
     RDKit          3D

 42 44  0  0  0  0  0  0  0  0999 V2000
   -5.5138    1.5432   -1.0100 C   0  0  0  0  0  0  0  0  0  0  0  0
   -4.9476    0.2565   -0.5978 N   0  0  0  0  0  0  0  0  0  0  0  0
   -5.8746   -0.8262   -0.9326 C   0  0  0  0  0  0  0  0  0  0  0  0
   -4.6012    0.2801    0.8335 C   0  0  0  0  0  0  0  0  0  0  0  0
   -3.8385   -0.9441    1.3649 C   0  0  0  0  0  0  0  0  0  0  0  0
   -2.6049   -1.2292    0.6676 N   0  0  0  0  0  0  0  0  0  0  0  0
   -2.4851   -2.3684   -0.0451 N   0  0  0  0  0  0  0  0  0  0  0  0
   -1.2558   -2.4053   -0.5411 N   0  0  0  0  0  0  0  0  0  0  0  0
   -0.5844   -1.3021   -0.0918 C   0  0  0  0  0  0  0  0  0  0  0  0
    0.7382   -0.8947   -0.3168 C   0  0  0  0  0  0  0  0  0  0  0  0
    1.1853    0.2818    0.3056 C   0  0  0  0  0  0  0  0  0  0  0  0
    2.5802    0.7757    0.1179 C   0  0  0  0  0  0  0  0  0  0  0  0
    2.7694    1.9858    0.1216 O   0  0  0  0  0  0  0  0  0  0  0  0
    3.5422   -0.2116   -0.0020 N   0  0  0  0  0  0  0  0  0  0  0  0
    4.9255   -0.0352   -0.2242 C   0  0  0  0  0  0  0  0  0  0  0  0
    5.7212   -1.1903   -0.2293 C   0  0  0  0  0  0  0  0  0  0  0  0
    7.0993   -1.1096   -0.4460 C   0  0  0  0  0  0  0  0  0  0  0  0
    7.6953    0.1297   -0.6626 C   0  0  0  0  0  0  0  0  0  0  0  0
    6.9086    1.2794   -0.6625 C   0  0  0  0  0  0  0  0  0  0  0  0
    7.6494    2.8103   -0.9355 Cl  0  0  0  0  0  0  0  0  0  0  0  0
    5.5306    1.2034   -0.4464 C   0  0  0  0  0  0  0  0  0  0  0  0
    0.3168    1.0418    1.1053 C   0  0  0  0  0  0  0  0  0  0  0  0
   -1.0082    0.6474    1.3301 C   0  0  0  0  0  0  0  0  0  0  0  0
   -1.4222   -0.5347    0.7096 C   0  0  0  0  0  0  0  0  0  0  0  0
   -6.4450    1.7728   -0.4795 H   0  0  0  0  0  0  0  0  0  0  0  0
   -4.8014    2.3551   -0.8256 H   0  0  0  0  0  0  0  0  0  0  0  0
   -5.7185    1.5481   -2.0865 H   0  0  0  0  0  0  0  0  0  0  0  0
   -5.4266   -1.8065   -0.7440 H   0  0  0  0  0  0  0  0  0  0  0  0
   -6.1191   -0.8066   -2.0009 H   0  0  0  0  0  0  0  0  0  0  0  0
   -6.8099   -0.7563   -0.3657 H   0  0  0  0  0  0  0  0  0  0  0  0
   -3.9786    1.1640    1.0219 H   0  0  0  0  0  0  0  0  0  0  0  0
   -5.5086    0.4108    1.4382 H   0  0  0  0  0  0  0  0  0  0  0  0
   -4.4658   -1.8422    1.3338 H   0  0  0  0  0  0  0  0  0  0  0  0
   -3.5751   -0.7826    2.4172 H   0  0  0  0  0  0  0  0  0  0  0  0
    1.3647   -1.4815   -0.9774 H   0  0  0  0  0  0  0  0  0  0  0  0
    3.2441   -1.1668    0.1471 H   0  0  0  0  0  0  0  0  0  0  0  0
    5.2809   -2.1706   -0.0632 H   0  0  0  0  0  0  0  0  0  0  0  0
    7.7052   -2.0122   -0.4461 H   0  0  0  0  0  0  0  0  0  0  0  0
    8.7667    0.1947   -0.8316 H   0  0  0  0  0  0  0  0  0  0  0  0
    4.9545    2.1225   -0.4612 H   0  0  0  0  0  0  0  0  0  0  0  0
    0.6774    1.9635    1.5629 H   0  0  0  0  0  0  0  0  0  0  0  0
   -1.6707    1.2434    1.9480 H   0  0  0  0  0  0  0  0  0  0  0  0
  1  2  1  0
  2  3  1  0
  2  4  1  0
  4  5  1  0
  5  6  1  0
  6  7  1  0
  7  8  2  0
  8  9  1  0
  9 10  2  0
 10 11  1  0
 11 12  1  0
 12 13  2  0
 12 14  1  0
 14 15  1  0
 15 16  2  0
 16 17  1  0
 17 18  2  0
 18 19  1  0
 19 20  1  0
 19 21  2  0
 11 22  2  0
 22 23  1  0
 23 24  2  0
 24  6  1  0
 24  9  1  0
 21 15  1  0
  1 25  1  0
  1 26  1  0
  1 27  1  0
  3 28  1  0
  3 29  1  0
  3 30  1  0
  4 31  1  0
  4 32  1  0
  5 33  1  0
  5 34  1  0
 10 35  1  0
 14 36  1  0
 16 37  1  0
 17 38  1  0
 18 39  1  0
 21 40  1  0
 22 41  1  0
 23 42  1  0
M  END
$$$$
