
     RDKit          3D

 86 88  0  0  0  0  0  0  0  0999 V2000
    7.6950    0.4799    0.8820 C   0  0  0  0  0  0  0  0  0  0  0  0
    6.3210   -0.0736    0.6151 C   0  0  0  0  0  0  0  0  0  0  0  0
    5.2558    0.3010    1.4536 C   0  0  0  0  0  0  0  0  0  0  0  0
    3.9573   -0.1809    1.2392 C   0  0  0  0  0  0  0  0  0  0  0  0
    2.8295    0.2248    2.1523 C   0  0  0  0  0  0  0  0  0  0  0  0
    1.9230    1.1681    1.5209 N   0  0  0  0  0  0  0  0  0  0  0  0
    2.2210    2.4772    1.2365 C   0  0  0  0  0  0  0  0  0  0  0  0
    1.1825    3.1240    0.7515 N   0  0  0  0  0  0  0  0  0  0  0  0
    0.1744    2.1991    0.7058 C   0  0  0  0  0  0  0  0  0  0  0  0
    0.6101    0.9869    1.1893 C   0  0  0  0  0  0  0  0  0  0  0  0
   -0.2459   -0.2150    1.2993 C   0  0  0  0  0  0  0  0  0  0  0  0
   -1.7349    0.2256    1.3275 C   0  0  1  0  0  0  0  0  0  0  0  0
   -2.1282    0.6270    2.7580 C   0  0  0  0  0  0  0  0  0  0  0  0
   -1.8210    0.0264    3.7780 O   0  0  0  0  0  0  0  0  0  0  0  0
   -2.9545    1.6901    2.8321 O   0  0  0  0  0  0  0  0  0  0  0  0
   -2.0627    1.2724    0.3032 N   0  0  0  0  0  0  0  0  0  0  0  0
   -3.3067    1.3986   -0.3286 C   0  0  0  0  0  0  0  0  0  0  0  0
   -3.5302    2.3673   -1.0632 O   0  0  0  0  0  0  0  0  0  0  0  0
   -4.3701    0.2918   -0.1169 C   0  0  0  0  0  0  0  0  0  0  0  0
   -4.0735   -0.9931   -0.8933 C   0  0  0  0  0  0  0  0  0  0  0  0
   -4.5489   -2.2197   -0.3961 C   0  0  0  0  0  0  0  0  0  0  0  0
   -4.2988   -3.4110   -1.0788 C   0  0  0  0  0  0  0  0  0  0  0  0
   -3.5762   -3.3938   -2.2694 C   0  0  0  0  0  0  0  0  0  0  0  0
   -3.1125   -2.1853   -2.7831 C   0  0  0  0  0  0  0  0  0  0  0  0
   -3.3622   -0.9913   -2.1038 C   0  0  0  0  0  0  0  0  0  0  0  0
   -5.7998    0.7945   -0.3404 C   0  0  0  0  0  0  0  0  0  0  0  0
   -6.6355    1.0405    0.7626 C   0  0  0  0  0  0  0  0  0  0  0  0
   -7.9419    1.4996    0.5801 C   0  0  0  0  0  0  0  0  0  0  0  0
   -8.4299    1.7252   -0.7043 C   0  0  0  0  0  0  0  0  0  0  0  0
   -7.6120    1.4951   -1.8079 C   0  0  0  0  0  0  0  0  0  0  0  0
   -6.3062    1.0341   -1.6283 C   0  0  0  0  0  0  0  0  0  0  0  0
   -1.2110    2.4854    0.2433 C   0  0  0  0  0  0  0  0  0  0  0  0
    3.7331   -1.0482    0.1663 C   0  0  0  0  0  0  0  0  0  0  0  0
    4.7875   -1.4331   -0.6667 C   0  0  0  0  0  0  0  0  0  0  0  0
    6.0927   -0.9598   -0.4580 C   0  0  0  0  0  0  0  0  0  0  0  0
    7.1777   -1.3654   -1.2672 N   0  0  0  0  0  0  0  0  0  0  0  0
    7.7311   -2.6413   -0.8022 C   0  0  0  0  0  0  0  0  0  0  0  0
    6.9163   -1.3149   -2.7068 C   0  0  0  0  0  0  0  0  0  0  0  0
    1.1155   -0.8773   -1.0577 O   0  0  0  0  0  0  0  0  0  0  0  0
    0.5593   -0.2398   -0.1718 C   0  0  0  0  0  0  0  0  0  0  0  0
    1.3064    0.2235    0.8647 O   0  0  0  0  0  0  0  0  0  0  0  0
   -0.9217    0.1439   -0.0964 C   0  0  0  0  0  0  0  0  0  0  0  0
   -1.1236    1.4646   -0.3687 F   0  0  0  0  0  0  0  0  0  0  0  0
   -1.6946   -0.5509   -0.9775 F   0  0  0  0  0  0  0  0  0  0  0  0
   -1.4583   -0.0787    1.1374 F   0  0  0  0  0  0  0  0  0  0  0  0
    1.0555    1.3550   -0.4250 O   0  0  0  0  0  0  0  0  0  0  0  0
    0.5533    0.3013   -0.0529 C   0  0  0  0  0  0  0  0  0  0  0  0
    1.3732   -0.6939    0.3755 O   0  0  0  0  0  0  0  0  0  0  0  0
   -0.9347   -0.0648   -0.0473 C   0  0  0  0  0  0  0  0  0  0  0  0
   -1.3038   -0.7508    1.0717 F   0  0  0  0  0  0  0  0  0  0  0  0
   -1.7471    1.0272   -0.1080 F   0  0  0  0  0  0  0  0  0  0  0  0
   -1.2732   -0.8528   -1.1072 F   0  0  0  0  0  0  0  0  0  0  0  0
    7.6661    1.2736    1.6357 H   0  0  0  0  0  0  0  0  0  0  0  0
    8.1182    0.9174   -0.0283 H   0  0  0  0  0  0  0  0  0  0  0  0
    8.3570   -0.3091    1.2511 H   0  0  0  0  0  0  0  0  0  0  0  0
    5.4479    0.9812    2.2818 H   0  0  0  0  0  0  0  0  0  0  0  0
    3.2049    0.7039    3.0645 H   0  0  0  0  0  0  0  0  0  0  0  0
    2.2660   -0.6597    2.4661 H   0  0  0  0  0  0  0  0  0  0  0  0
    3.2015    2.9035    1.4063 H   0  0  0  0  0  0  0  0  0  0  0  0
   -0.0752   -0.8422    0.4159 H   0  0  0  0  0  0  0  0  0  0  0  0
    0.0063   -0.8110    2.1817 H   0  0  0  0  0  0  0  0  0  0  0  0
   -2.3269   -0.6677    1.1163 H   0  0  0  0  0  0  0  0  0  0  0  0
   -3.1015    1.8276    3.7920 H   0  0  0  0  0  0  0  0  0  0  0  0
   -4.3192    0.0310    0.9481 H   0  0  0  0  0  0  0  0  0  0  0  0
   -5.1285   -2.2517    0.5250 H   0  0  0  0  0  0  0  0  0  0  0  0
   -4.6771   -4.3515   -0.6861 H   0  0  0  0  0  0  0  0  0  0  0  0
   -3.3859   -4.3209   -2.8040 H   0  0  0  0  0  0  0  0  0  0  0  0
   -2.5622   -2.1681   -3.7202 H   0  0  0  0  0  0  0  0  0  0  0  0
   -3.0023   -0.0605   -2.5396 H   0  0  0  0  0  0  0  0  0  0  0  0
   -6.2745    0.8819    1.7760 H   0  0  0  0  0  0  0  0  0  0  0  0
   -8.5766    1.6877    1.4421 H   0  0  0  0  0  0  0  0  0  0  0  0
   -9.4436    2.0896   -0.8458 H   0  0  0  0  0  0  0  0  0  0  0  0
   -7.9854    1.6813   -2.8111 H   0  0  0  0  0  0  0  0  0  0  0  0
   -5.6805    0.8771   -2.5043 H   0  0  0  0  0  0  0  0  0  0  0  0
   -1.6683    3.2483    0.8830 H   0  0  0  0  0  0  0  0  0  0  0  0
   -1.1873    2.8655   -0.7837 H   0  0  0  0  0  0  0  0  0  0  0  0
    2.7372   -1.4373   -0.0318 H   0  0  0  0  0  0  0  0  0  0  0  0
    4.5768   -2.1248   -1.4777 H   0  0  0  0  0  0  0  0  0  0  0  0
    8.0685   -2.5727    0.2372 H   0  0  0  0  0  0  0  0  0  0  0  0
    8.6037   -2.9133   -1.4053 H   0  0  0  0  0  0  0  0  0  0  0  0
    7.0005   -3.4541   -0.8825 H   0  0  0  0  0  0  0  0  0  0  0  0
    7.8627   -1.4048   -3.2519 H   0  0  0  0  0  0  0  0  0  0  0  0
    6.2647   -2.1309   -3.0382 H   0  0  0  0  0  0  0  0  0  0  0  0
    6.4675   -0.3571   -2.9937 H   0  0  0  0  0  0  0  0  0  0  0  0
    2.2170   -0.0852    0.6700 H   0  0  0  0  0  0  0  0  0  0  0  0
    2.2769   -0.3211    0.2933 H   0  0  0  0  0  0  0  0  0  0  0  0
  1  2  1  0
  2  3  2  0
  3  4  1  0
  4  5  1  0
  5  6  1  0
  6  7  1  0
  7  8  2  0
  8  9  1  0
  9 10  2  0
 10 11  1  0
 11 12  1  0
 12 13  1  0
 13 14  2  0
 13 15  1  0
 12 16  1  0
 16 17  1  0
 17 18  2  0
 17 19  1  0
 19 20  1  0
 20 21  2  0
 21 22  1  0
 22 23  2  0
 23 24  1  0
 24 25  2  0
 19 26  1  0
 26 27  2  0
 27 28  1  0
 28 29  2  0
 29 30  1  0
 30 31  2  0
 16 32  1  0
  4 33  2  0
 33 34  1  0
 34 35  2  0
 35 36  1  0
 36 37  1  0
 36 38  1  0
 39 40  2  0
 40 41  1  0
 40 42  1  0
 42 43  1  0
 42 44  1  0
 42 45  1  0
 46 47  2  0
 47 48  1  0
 47 49  1  0
 49 50  1  0
 49 51  1  0
 49 52  1  0
 35  2  1  0
 10  6  1  0
 25 20  1  0
 31 26  1  0
 32  9  1  0
  1 53  1  0
  1 54  1  0
  1 55  1  0
  3 56  1  0
  5 57  1  0
  5 58  1  0
  7 59  1  0
 11 60  1  0
 11 61  1  0
 12 62  1  6
 15 63  1  0
 19 64  1  0
 21 65  1  0
 22 66  1  0
 23 67  1  0
 24 68  1  0
 25 69  1  0
 27 70  1  0
 28 71  1  0
 29 72  1  0
 30 73  1  0
 31 74  1  0
 32 75  1  0
 32 76  1  0
 33 77  1  0
 34 78  1  0
 37 79  1  0
 37 80  1  0
 37 81  1  0
 38 82  1  0
 38 83  1  0
 38 84  1  0
 41 85  1  0
 48 86  1  0
M  END
$$$$
