
     RDKit          3D

 43 46  0  0  0  0  0  0  0  0999 V2000
   -1.6862    2.2303    0.6544 C   0  0  0  0  0  0  0  0  0  0  0  0
   -2.1828    0.8927    0.1774 C   0  0  0  0  0  0  0  0  0  0  0  0
   -1.3107   -0.1384   -0.1703 C   0  0  0  0  0  0  0  0  0  0  0  0
    0.1548   -0.0501   -0.0668 C   0  0  0  0  0  0  0  0  0  0  0  0
    0.9597   -0.1783   -1.2075 C   0  0  0  0  0  0  0  0  0  0  0  0
    2.3550   -0.0959   -1.1208 C   0  0  0  0  0  0  0  0  0  0  0  0
    2.9962    0.1081    0.1105 C   0  0  0  0  0  0  0  0  0  0  0  0
    4.4645    0.2052    0.2032 C   0  0  0  0  0  0  0  0  0  0  0  0
    5.0738    1.2686    0.8948 C   0  0  0  0  0  0  0  0  0  0  0  0
    6.4665    1.3702    0.9886 C   0  0  0  0  0  0  0  0  0  0  0  0
    7.2802    0.4099    0.3921 C   0  0  0  0  0  0  0  0  0  0  0  0
    6.7006   -0.6502   -0.2992 C   0  0  0  0  0  0  0  0  0  0  0  0
    5.3118   -0.7448   -0.3894 C   0  0  0  0  0  0  0  0  0  0  0  0
    4.7977   -1.7884   -1.0593 F   0  0  0  0  0  0  0  0  0  0  0  0
    2.1886    0.2173    1.2542 C   0  0  0  0  0  0  0  0  0  0  0  0
    0.7930    0.1351    1.1684 C   0  0  0  0  0  0  0  0  0  0  0  0
   -1.7457   -1.3355   -0.6396 N   0  0  0  0  0  0  0  0  0  0  0  0
   -3.0568   -1.5833   -0.7354 C   0  0  0  0  0  0  0  0  0  0  0  0
   -3.4510   -2.8330   -1.2001 C   0  0  0  0  0  0  0  0  0  0  0  0
   -4.7960   -3.1879   -1.3103 C   0  0  0  0  0  0  0  0  0  0  0  0
   -5.7631   -2.2711   -0.9433 C   0  0  0  0  0  0  0  0  0  0  0  0
   -7.0579   -2.5972   -1.0369 F   0  0  0  0  0  0  0  0  0  0  0  0
   -5.4031   -1.0134   -0.4770 C   0  0  0  0  0  0  0  0  0  0  0  0
   -4.0370   -0.6437   -0.3733 C   0  0  0  0  0  0  0  0  0  0  0  0
   -3.5586    0.6098    0.0824 C   0  0  0  0  0  0  0  0  0  0  0  0
   -4.5171    1.6473    0.5062 C   0  0  0  0  0  0  0  0  0  0  0  0
   -4.6141    2.1242    1.6191 O   0  0  0  0  0  0  0  0  0  0  0  0
   -5.2528    2.0748   -0.5334 O   0  0  0  0  0  0  0  0  0  0  0  0
   -0.6991    2.4689    0.2463 H   0  0  0  0  0  0  0  0  0  0  0  0
   -2.3399    3.0426    0.3201 H   0  0  0  0  0  0  0  0  0  0  0  0
   -1.6308    2.2436    1.7473 H   0  0  0  0  0  0  0  0  0  0  0  0
    0.4985   -0.3506   -2.1785 H   0  0  0  0  0  0  0  0  0  0  0  0
    2.9400   -0.1971   -2.0333 H   0  0  0  0  0  0  0  0  0  0  0  0
    4.4621    2.0401    1.3590 H   0  0  0  0  0  0  0  0  0  0  0  0
    6.9133    2.2031    1.5265 H   0  0  0  0  0  0  0  0  0  0  0  0
    8.3618    0.4879    0.4648 H   0  0  0  0  0  0  0  0  0  0  0  0
    7.3180   -1.4091   -0.7697 H   0  0  0  0  0  0  0  0  0  0  0  0
    2.6428    0.3482    2.2346 H   0  0  0  0  0  0  0  0  0  0  0  0
    0.2059    0.2027    2.0822 H   0  0  0  0  0  0  0  0  0  0  0  0
   -2.6849   -3.5541   -1.4789 H   0  0  0  0  0  0  0  0  0  0  0  0
   -5.0845   -4.1689   -1.6730 H   0  0  0  0  0  0  0  0  0  0  0  0
   -6.2004   -0.3294   -0.2009 H   0  0  0  0  0  0  0  0  0  0  0  0
   -5.8123    2.7899   -0.1634 H   0  0  0  0  0  0  0  0  0  0  0  0
  1  2  1  0
  2  3  2  0
  3  4  1  0
  4  5  2  0
  5  6  1  0
  6  7  2  0
  7  8  1  0
  8  9  2  0
  9 10  1  0
 10 11  2  0
 11 12  1  0
 12 13  2  0
 13 14  1  0
  7 15  1  0
 15 16  2  0
  3 17  1  0
 17 18  2  0
 18 19  1  0
 19 20  2  0
 20 21  1  0
 21 22  1  0
 21 23  2  0
 23 24  1  0
 24 25  2  0
 25 26  1  0
 26 27  2  0
 26 28  1  0
 25  2  1  0
 16  4  1  0
 24 18  1  0
 13  8  1  0
  1 29  1  0
  1 30  1  0
  1 31  1  0
  5 32  1  0
  6 33  1  0
  9 34  1  0
 10 35  1  0
 11 36  1  0
 12 37  1  0
 15 38  1  0
 16 39  1  0
 19 40  1  0
 20 41  1  0
 23 42  1  0
 28 43  1  0
M  END
$$$$
