
     RDKit          3D

 33 33  0  0  0  0  0  0  0  0999 V2000
   -3.2660    1.6416   -0.9271 C   0  0  0  0  0  0  0  0  0  0  0  0
   -3.4460    0.3495   -0.1293 C   0  0  0  0  0  0  0  0  0  0  0  0
   -3.2532    0.6125    1.3647 C   0  0  0  0  0  0  0  0  0  0  0  0
   -2.5693   -0.8070   -0.6535 C   0  0  0  0  0  0  0  0  0  0  0  0
   -1.0750   -0.6047   -0.5711 C   0  0  0  0  0  0  0  0  0  0  0  0
   -0.3743   -0.0199   -1.6323 C   0  0  0  0  0  0  0  0  0  0  0  0
    1.0081    0.1689   -1.5561 C   0  0  0  0  0  0  0  0  0  0  0  0
    1.7222   -0.2250   -0.4164 C   0  0  0  0  0  0  0  0  0  0  0  0
    3.2232   -0.0116   -0.3495 C   0  0  0  0  0  0  0  0  0  0  0  0
    3.6146    0.9436    0.7803 C   0  0  0  0  0  0  0  0  0  0  0  0
    3.9732   -1.3236   -0.2133 C   0  0  0  0  0  0  0  0  0  0  0  0
    4.3145   -1.8729    0.8225 O   0  0  0  0  0  0  0  0  0  0  0  0
    4.2464   -1.8961   -1.4050 O   0  0  0  0  0  0  0  0  0  0  0  0
    1.0196   -0.8178    0.6426 C   0  0  0  0  0  0  0  0  0  0  0  0
   -0.3626   -1.0060    0.5648 C   0  0  0  0  0  0  0  0  0  0  0  0
   -3.3989    1.4608   -1.9988 H   0  0  0  0  0  0  0  0  0  0  0  0
   -4.0089    2.3865   -0.6217 H   0  0  0  0  0  0  0  0  0  0  0  0
   -2.2761    2.0821   -0.7714 H   0  0  0  0  0  0  0  0  0  0  0  0
   -4.4890    0.0324   -0.2659 H   0  0  0  0  0  0  0  0  0  0  0  0
   -2.2630    1.0257    1.5812 H   0  0  0  0  0  0  0  0  0  0  0  0
   -3.3769   -0.3091    1.9428 H   0  0  0  0  0  0  0  0  0  0  0  0
   -3.9959    1.3326    1.7254 H   0  0  0  0  0  0  0  0  0  0  0  0
   -2.8371   -1.0130   -1.6988 H   0  0  0  0  0  0  0  0  0  0  0  0
   -2.8282   -1.7262   -0.1106 H   0  0  0  0  0  0  0  0  0  0  0  0
   -0.9018    0.2946   -2.5302 H   0  0  0  0  0  0  0  0  0  0  0  0
    1.5220    0.6258   -2.3993 H   0  0  0  0  0  0  0  0  0  0  0  0
    3.5697    0.4554   -1.2816 H   0  0  0  0  0  0  0  0  0  0  0  0
    4.6965    1.1180    0.7795 H   0  0  0  0  0  0  0  0  0  0  0  0
    3.1147    1.9118    0.6657 H   0  0  0  0  0  0  0  0  0  0  0  0
    3.3516    0.5461    1.7669 H   0  0  0  0  0  0  0  0  0  0  0  0
    4.6830   -2.7404   -1.1665 H   0  0  0  0  0  0  0  0  0  0  0  0
    1.5427   -1.1442    1.5400 H   0  0  0  0  0  0  0  0  0  0  0  0
   -0.8799   -1.4703    1.4016 H   0  0  0  0  0  0  0  0  0  0  0  0
  1  2  1  0
  2  3  1  0
  2  4  1  0
  4  5  1  0
  5  6  2  0
  6  7  1  0
  7  8  2  0
  8  9  1  0
  9 10  1  0
  9 11  1  0
 11 12  2  0
 11 13  1  0
  8 14  1  0
 14 15  2  0
 15  5  1  0
  1 16  1  0
  1 17  1  0
  1 18  1  0
  2 19  1  0
  3 20  1  0
  3 21  1  0
  3 22  1  0
  4 23  1  0
  4 24  1  0
  6 25  1  0
  7 26  1  0
  9 27  1  0
 10 28  1  0
 10 29  1  0
 10 30  1  0
 13 31  1  0
 14 32  1  0
 15 33  1  0
M  END
$$$$
