
     RDKit          3D

 75 78  0  0  0  0  0  0  0  0999 V2000
    4.1776   -3.8210    0.0242 C   0  0  0  0  0  0  0  0  0  0  0  0
    4.7357   -2.5218    0.1806 O   0  0  0  0  0  0  0  0  0  0  0  0
    3.9348   -1.4522   -0.1514 C   0  0  0  0  0  0  0  0  0  0  0  0
    2.6009   -1.5529   -0.5612 C   0  0  0  0  0  0  0  0  0  0  0  0
    1.8728   -0.4034   -0.8983 C   0  0  0  0  0  0  0  0  0  0  0  0
    0.4893   -0.5051   -1.3552 C   0  0  0  0  0  0  0  0  0  0  0  0
   -0.4651    0.2660   -0.8025 N   0  0  0  0  0  0  0  0  0  0  0  0
   -1.5977   -0.1129   -1.4291 N   0  0  0  0  0  0  0  0  0  0  0  0
   -2.8676    0.4937   -1.0750 C   0  0  0  0  0  0  0  0  0  0  0  0
   -3.6532   -0.3928   -0.1025 C   0  0  0  0  0  0  0  0  0  0  0  0
   -4.9577    0.1748    0.2972 N   0  0  0  0  0  0  0  0  0  0  0  0
   -5.8820    0.2921   -0.8432 C   0  0  0  0  0  0  0  0  0  0  0  0
   -7.3689    0.3244   -0.4535 C   0  0  0  0  0  0  0  0  0  0  0  0
   -7.5674    0.9575    0.9338 C   0  0  0  0  0  0  0  0  0  0  0  0
   -8.9932    1.0853    1.3458 N   0  0  0  0  0  0  0  0  0  0  0  0
   -9.8016    1.8035    0.3547 C   0  0  0  0  0  0  0  0  0  0  0  0
   -9.1183    1.7730    2.6390 C   0  0  0  0  0  0  0  0  0  0  0  0
   -6.7695    0.1217    1.9648 C   0  0  0  0  0  0  0  0  0  0  0  0
   -5.5640   -0.6130    1.3708 C   0  0  0  0  0  0  0  0  0  0  0  0
   -1.4046   -1.0755   -2.3785 C   0  0  0  0  0  0  0  0  0  0  0  0
   -2.3433   -1.6422   -3.1562 N   0  0  0  0  0  0  0  0  0  0  0  0
   -1.8035   -2.5465   -3.9885 C   0  0  0  0  0  0  0  0  0  0  0  0
   -0.5070   -2.8932   -4.1068 N   0  0  0  0  0  0  0  0  0  0  0  0
    0.3989   -2.2962   -3.3041 C   0  0  0  0  0  0  0  0  0  0  0  0
    1.7256   -2.6644   -3.4900 N   0  0  0  0  0  0  0  0  0  0  0  0
   -0.0476   -1.3484   -2.3748 C   0  0  0  0  0  0  0  0  0  0  0  0
    2.4813    0.8509   -0.7873 C   0  0  0  0  0  0  0  0  0  0  0  0
    3.8119    0.9607   -0.3747 C   0  0  0  0  0  0  0  0  0  0  0  0
    4.5470   -0.1838   -0.0614 C   0  0  0  0  0  0  0  0  0  0  0  0
    5.8926   -0.1489    0.3486 N   0  0  0  0  0  0  0  0  0  0  0  0
    6.7305    0.9195    0.4688 C   0  0  0  0  0  0  0  0  0  0  0  0
    6.4792    2.0907    0.2374 O   0  0  0  0  0  0  0  0  0  0  0  0
    7.9353    0.4562    0.8897 O   0  0  0  0  0  0  0  0  0  0  0  0
    9.0517    1.3612    1.0922 C   0  0  0  0  0  0  0  0  0  0  0  0
   10.2042    0.4589    1.5593 C   0  0  0  0  0  0  0  0  0  0  0  0
    8.7525    2.3810    2.1967 C   0  0  0  0  0  0  0  0  0  0  0  0
    9.4647    2.0395   -0.2192 C   0  0  0  0  0  0  0  0  0  0  0  0
    3.8923   -4.0061   -1.0163 H   0  0  0  0  0  0  0  0  0  0  0  0
    3.3311   -3.9691    0.7018 H   0  0  0  0  0  0  0  0  0  0  0  0
    4.9489   -4.5497    0.2920 H   0  0  0  0  0  0  0  0  0  0  0  0
    2.1048   -2.5169   -0.6218 H   0  0  0  0  0  0  0  0  0  0  0  0
   -3.4131    0.6601   -2.0103 H   0  0  0  0  0  0  0  0  0  0  0  0
   -2.6585    1.4742   -0.6316 H   0  0  0  0  0  0  0  0  0  0  0  0
   -3.7916   -1.3966   -0.5265 H   0  0  0  0  0  0  0  0  0  0  0  0
   -3.0338   -0.5235    0.7952 H   0  0  0  0  0  0  0  0  0  0  0  0
   -5.6460    1.2213   -1.3757 H   0  0  0  0  0  0  0  0  0  0  0  0
   -5.7442   -0.5303   -1.5572 H   0  0  0  0  0  0  0  0  0  0  0  0
   -7.7735   -0.6964   -0.4531 H   0  0  0  0  0  0  0  0  0  0  0  0
   -7.8988    0.8777   -1.2359 H   0  0  0  0  0  0  0  0  0  0  0  0
   -7.1275    1.9654    0.8981 H   0  0  0  0  0  0  0  0  0  0  0  0
   -9.9088    1.2233   -0.5672 H   0  0  0  0  0  0  0  0  0  0  0  0
  -10.8241    1.9535    0.7212 H   0  0  0  0  0  0  0  0  0  0  0  0
   -9.3801    2.7859    0.1121 H   0  0  0  0  0  0  0  0  0  0  0  0
   -8.6843    2.7788    2.6133 H   0  0  0  0  0  0  0  0  0  0  0  0
  -10.1725    1.8622    2.9271 H   0  0  0  0  0  0  0  0  0  0  0  0
   -8.6402    1.2075    3.4446 H   0  0  0  0  0  0  0  0  0  0  0  0
   -6.4248    0.7877    2.7663 H   0  0  0  0  0  0  0  0  0  0  0  0
   -7.4142   -0.6315    2.4364 H   0  0  0  0  0  0  0  0  0  0  0  0
   -4.8465   -0.7876    2.1822 H   0  0  0  0  0  0  0  0  0  0  0  0
   -5.8666   -1.6023    1.0022 H   0  0  0  0  0  0  0  0  0  0  0  0
   -2.4938   -3.0589   -4.6517 H   0  0  0  0  0  0  0  0  0  0  0  0
    1.8297   -3.1213   -4.3901 H   0  0  0  0  0  0  0  0  0  0  0  0
    2.3970   -1.9287   -3.3045 H   0  0  0  0  0  0  0  0  0  0  0  0
    1.9207    1.7546   -1.0217 H   0  0  0  0  0  0  0  0  0  0  0  0
    4.2432    1.9547   -0.3039 H   0  0  0  0  0  0  0  0  0  0  0  0
    6.3072   -1.0461    0.5687 H   0  0  0  0  0  0  0  0  0  0  0  0
   11.1192    1.0314    1.7458 H   0  0  0  0  0  0  0  0  0  0  0  0
   10.4244   -0.3113    0.8105 H   0  0  0  0  0  0  0  0  0  0  0  0
    9.9344   -0.0722    2.4799 H   0  0  0  0  0  0  0  0  0  0  0  0
    7.9859    3.1005    1.8936 H   0  0  0  0  0  0  0  0  0  0  0  0
    8.3761    1.8806    3.0964 H   0  0  0  0  0  0  0  0  0  0  0  0
    9.6484    2.9525    2.4636 H   0  0  0  0  0  0  0  0  0  0  0  0
    9.5869    1.2990   -1.0180 H   0  0  0  0  0  0  0  0  0  0  0  0
   10.4064    2.5878   -0.1054 H   0  0  0  0  0  0  0  0  0  0  0  0
    8.7118    2.7536   -0.5661 H   0  0  0  0  0  0  0  0  0  0  0  0
  1  2  1  0
  2  3  1  0
  3  4  2  0
  4  5  1  0
  5  6  1  0
  6  7  2  0
  7  8  1  0
  8  9  1  0
  9 10  1  0
 10 11  1  0
 11 12  1  0
 12 13  1  0
 13 14  1  0
 14 15  1  0
 15 16  1  0
 15 17  1  0
 14 18  1  0
 18 19  1  0
  8 20  1  0
 20 21  2  0
 21 22  1  0
 22 23  2  0
 23 24  1  0
 24 25  1  0
 24 26  2  0
  5 27  2  0
 27 28  1  0
 28 29  2  0
 29 30  1  0
 30 31  1  0
 31 32  2  0
 31 33  1  0
 33 34  1  0
 34 35  1  0
 34 36  1  0
 34 37  1  0
 29  3  1  0
 26  6  1  0
 19 11  1  0
 26 20  1  0
  1 38  1  0
  1 39  1  0
  1 40  1  0
  4 41  1  0
  9 42  1  0
  9 43  1  0
 10 44  1  0
 10 45  1  0
 12 46  1  0
 12 47  1  0
 13 48  1  0
 13 49  1  0
 14 50  1  0
 16 51  1  0
 16 52  1  0
 16 53  1  0
 17 54  1  0
 17 55  1  0
 17 56  1  0
 18 57  1  0
 18 58  1  0
 19 59  1  0
 19 60  1  0
 22 61  1  0
 25 62  1  0
 25 63  1  0
 27 64  1  0
 28 65  1  0
 30 66  1  0
 35 67  1  0
 35 68  1  0
 35 69  1  0
 36 70  1  0
 36 71  1  0
 36 72  1  0
 37 73  1  0
 37 74  1  0
 37 75  1  0
M  END
$$$$
