
     RDKit          3D

 41 43  0  0  0  0  0  0  0  0999 V2000
    6.2564   -1.5513   -1.2126 C   0  0  0  0  0  0  0  0  0  0  0  0
    5.0525   -1.1531   -1.8566 O   0  0  0  0  0  0  0  0  0  0  0  0
    4.2198   -0.3241   -1.1571 C   0  0  0  0  0  0  0  0  0  0  0  0
    3.0794    0.0817   -1.8591 C   0  0  0  0  0  0  0  0  0  0  0  0
    2.1399    0.9277   -1.2674 C   0  0  0  0  0  0  0  0  0  0  0  0
    2.3412    1.3585    0.0446 C   0  0  0  0  0  0  0  0  0  0  0  0
    1.1614    2.4390    0.8110 S   0  0  0  0  0  6  0  0  0  0  0  0
    1.8919    3.3202    1.6981 O   0  0  0  0  0  0  0  0  0  0  0  0
    0.2766    2.9695   -0.2031 O   0  0  0  0  0  0  0  0  0  0  0  0
    0.2957    1.3856    1.8147 N   0  0  0  0  0  0  0  0  0  0  0  0
   -0.7207    0.5882    1.2201 C   0  0  0  0  0  0  0  0  0  0  0  0
   -0.3881   -0.7004    0.7535 C   0  0  0  0  0  0  0  0  0  0  0  0
   -1.3462   -1.5084    0.1316 C   0  0  0  0  0  0  0  0  0  0  0  0
   -2.6142   -0.9854   -0.0062 C   0  0  0  0  0  0  0  0  0  0  0  0
   -2.9379    0.2951    0.4502 C   0  0  0  0  0  0  0  0  0  0  0  0
   -2.0094    1.1069    1.0669 C   0  0  0  0  0  0  0  0  0  0  0  0
   -4.2866    0.5284    0.1528 N   0  0  0  0  0  0  0  0  0  0  0  0
   -5.0001    1.7409    0.4308 C   0  0  0  0  0  0  0  0  0  0  0  0
   -4.8199   -0.6069   -0.4966 C   0  0  0  0  0  0  0  0  0  0  0  0
   -5.9614   -0.7518   -0.9039 O   0  0  0  0  0  0  0  0  0  0  0  0
   -3.7634   -1.5408   -0.5804 N   0  0  0  0  0  0  0  0  0  0  0  0
   -3.8469   -2.8401   -1.1808 C   0  0  0  0  0  0  0  0  0  0  0  0
    3.4818    0.9716    0.7533 C   0  0  0  0  0  0  0  0  0  0  0  0
    4.4187    0.1258    0.1506 C   0  0  0  0  0  0  0  0  0  0  0  0
    6.8138   -2.1856   -1.9085 H   0  0  0  0  0  0  0  0  0  0  0  0
    6.8833   -0.6853   -0.9758 H   0  0  0  0  0  0  0  0  0  0  0  0
    6.0459   -2.1447   -0.3167 H   0  0  0  0  0  0  0  0  0  0  0  0
    2.9267   -0.2616   -2.8802 H   0  0  0  0  0  0  0  0  0  0  0  0
    1.2627    1.2376   -1.8311 H   0  0  0  0  0  0  0  0  0  0  0  0
    0.0826    1.8366    2.7043 H   0  0  0  0  0  0  0  0  0  0  0  0
    0.6228   -1.0813    0.8824 H   0  0  0  0  0  0  0  0  0  0  0  0
   -1.0912   -2.4991   -0.2247 H   0  0  0  0  0  0  0  0  0  0  0  0
   -2.2617    2.1062    1.3984 H   0  0  0  0  0  0  0  0  0  0  0  0
   -4.5259    2.5694   -0.1032 H   0  0  0  0  0  0  0  0  0  0  0  0
   -6.0397    1.6551    0.1031 H   0  0  0  0  0  0  0  0  0  0  0  0
   -4.9800    1.9344    1.5072 H   0  0  0  0  0  0  0  0  0  0  0  0
   -3.1506   -2.8945   -2.0227 H   0  0  0  0  0  0  0  0  0  0  0  0
   -4.8607   -3.0275   -1.5451 H   0  0  0  0  0  0  0  0  0  0  0  0
   -3.5890   -3.5999   -0.4374 H   0  0  0  0  0  0  0  0  0  0  0  0
    3.6479    1.3232    1.7694 H   0  0  0  0  0  0  0  0  0  0  0  0
    5.2927   -0.1601    0.7270 H   0  0  0  0  0  0  0  0  0  0  0  0
  1  2  1  0
  2  3  1  0
  3  4  2  0
  4  5  1  0
  5  6  2  0
  6  7  1  0
  7  8  2  0
  7  9  2  0
  7 10  1  0
 10 11  1  0
 11 12  2  0
 12 13  1  0
 13 14  2  0
 14 15  1  0
 15 16  2  0
 15 17  1  0
 17 18  1  0
 17 19  1  0
 19 20  2  0
 19 21  1  0
 21 22  1  0
  6 23  1  0
 23 24  2  0
 24  3  1  0
 16 11  1  0
 21 14  1  0
  1 25  1  0
  1 26  1  0
  1 27  1  0
  4 28  1  0
  5 29  1  0
 10 30  1  0
 12 31  1  0
 13 32  1  0
 16 33  1  0
 18 34  1  0
 18 35  1  0
 18 36  1  0
 22 37  1  0
 22 38  1  0
 22 39  1  0
 23 40  1  0
 24 41  1  0
M  END
$$$$
