
     RDKit          3D

 46 49  0  0  0  0  0  0  0  0999 V2000
   -5.1849    2.5075   -1.8860 C   0  0  0  0  0  0  0  0  0  0  0  0
   -3.9880    1.7477   -1.8065 O   0  0  0  0  0  0  0  0  0  0  0  0
   -3.6334    1.3079   -0.5637 C   0  0  0  0  0  0  0  0  0  0  0  0
   -4.0392    1.8903    0.6273 C   0  0  0  0  0  0  0  0  0  0  0  0
   -3.5717    1.3543    1.8227 C   0  0  0  0  0  0  0  0  0  0  0  0
   -2.7139    0.2605    1.7905 C   0  0  0  0  0  0  0  0  0  0  0  0
   -2.3414   -0.2693    0.5570 C   0  0  0  0  0  0  0  0  0  0  0  0
   -1.4283   -1.4263    0.4386 C   0  0  0  0  0  0  0  0  0  0  0  0
   -1.7100   -2.5728    1.2143 C   0  0  0  0  0  0  0  0  0  0  0  0
   -0.9029   -3.7001    1.1544 C   0  0  0  0  0  0  0  0  0  0  0  0
   -1.2016   -4.7662    1.9074 F   0  0  0  0  0  0  0  0  0  0  0  0
    0.2003   -3.7361    0.3241 C   0  0  0  0  0  0  0  0  0  0  0  0
    0.5016   -2.6243   -0.4617 C   0  0  0  0  0  0  0  0  0  0  0  0
   -0.2897   -1.4505   -0.4239 C   0  0  0  0  0  0  0  0  0  0  0  0
    0.0790   -0.2389   -1.2982 C   0  0  1  0  0  0  0  0  0  0  0  0
    0.5244    0.9941   -0.4993 C   0  0  0  0  0  0  0  0  0  0  0  0
    1.9504    0.8473   -0.0383 C   0  0  0  0  0  0  0  0  0  0  0  0
    2.2712    1.4303    1.1418 N   0  0  0  0  0  0  0  0  0  0  0  0
    3.5490    1.3608    1.5178 C   0  0  0  0  0  0  0  0  0  0  0  0
    3.8927    1.9306    2.7235 N   0  0  0  0  0  0  0  0  0  0  0  0
    4.5111    0.7398    0.8311 N   0  0  0  0  0  0  0  0  0  0  0  0
    4.1752    0.1646   -0.3531 C   0  0  0  0  0  0  0  0  0  0  0  0
    5.3027   -0.5054   -1.0802 C   0  0  0  0  0  0  0  0  0  0  0  0
    2.8776    0.1966   -0.8367 C   0  0  0  0  0  0  0  0  0  0  0  0
    2.4417   -0.4201   -2.1101 C   0  0  0  0  0  0  0  0  0  0  0  0
    3.2286   -0.8310   -2.9515 O   0  0  0  0  0  0  0  0  0  0  0  0
    1.0884   -0.5362   -2.3117 N   0  0  0  0  0  0  0  0  0  0  0  0
   -2.7923    0.2523   -0.6067 N   0  0  0  0  0  0  0  0  0  0  0  0
   -5.0321    3.5162   -1.4892 H   0  0  0  0  0  0  0  0  0  0  0  0
   -6.0175    2.0071   -1.3790 H   0  0  0  0  0  0  0  0  0  0  0  0
   -5.4498    2.6046   -2.9434 H   0  0  0  0  0  0  0  0  0  0  0  0
   -4.6907    2.7545    0.6560 H   0  0  0  0  0  0  0  0  0  0  0  0
   -3.8663    1.7914    2.7730 H   0  0  0  0  0  0  0  0  0  0  0  0
   -2.3310   -0.1549    2.7177 H   0  0  0  0  0  0  0  0  0  0  0  0
   -2.5802   -2.6064    1.8657 H   0  0  0  0  0  0  0  0  0  0  0  0
    0.8175   -4.6281    0.2838 H   0  0  0  0  0  0  0  0  0  0  0  0
    1.3702   -2.7008   -1.1117 H   0  0  0  0  0  0  0  0  0  0  0  0
   -0.8017    0.0149   -1.8959 H   0  0  0  0  0  0  0  0  0  0  0  0
    0.4863    1.8793   -1.1480 H   0  0  0  0  0  0  0  0  0  0  0  0
   -0.1208    1.2010    0.3583 H   0  0  0  0  0  0  0  0  0  0  0  0
    4.7260    1.4883    3.0849 H   0  0  0  0  0  0  0  0  0  0  0  0
    3.0854    1.9740    3.3278 H   0  0  0  0  0  0  0  0  0  0  0  0
    6.2255   -0.4544   -0.4919 H   0  0  0  0  0  0  0  0  0  0  0  0
    5.4950   -0.0075   -2.0354 H   0  0  0  0  0  0  0  0  0  0  0  0
    5.0804   -1.5640   -1.2467 H   0  0  0  0  0  0  0  0  0  0  0  0
    0.8073   -1.0227   -3.1547 H   0  0  0  0  0  0  0  0  0  0  0  0
  1  2  1  0
  2  3  1  0
  3  4  2  0
  4  5  1  0
  5  6  2  0
  6  7  1  0
  7  8  1  0
  8  9  2  0
  9 10  1  0
 10 11  1  0
 10 12  2  0
 12 13  1  0
 13 14  2  0
 14 15  1  0
 15 16  1  0
 16 17  1  0
 17 18  2  0
 18 19  1  0
 19 20  1  0
 19 21  2  0
 21 22  1  0
 22 23  1  0
 22 24  2  0
 24 25  1  0
 25 26  2  0
 25 27  1  0
  7 28  2  0
 28  3  1  0
 14  8  1  0
 27 15  1  0
 24 17  1  0
  1 29  1  0
  1 30  1  0
  1 31  1  0
  4 32  1  0
  5 33  1  0
  6 34  1  0
  9 35  1  0
 12 36  1  0
 13 37  1  0
 15 38  1  6
 16 39  1  0
 16 40  1  0
 20 41  1  0
 20 42  1  0
 23 43  1  0
 23 44  1  0
 23 45  1  0
 27 46  1  0
M  END
$$$$
