
     RDKit          3D

 49 52  0  0  0  0  0  0  0  0999 V2000
   -7.2135    0.5592   -0.9143 C   0  0  0  0  0  0  0  0  0  0  0  0
   -6.0092    0.2853   -0.0647 C   0  0  0  0  0  0  0  0  0  0  0  0
   -5.3898   -0.9492   -0.1105 C   0  0  0  0  0  0  0  0  0  0  0  0
   -4.2806   -1.1191    0.6959 C   0  0  0  0  0  0  0  0  0  0  0  0
   -3.5366   -2.4202    0.6943 C   0  0  0  0  0  0  0  0  0  0  0  0
   -3.8112   -0.1379    1.4912 N   0  0  0  0  0  0  0  0  0  0  0  0
   -4.4832    1.0239    1.4657 C   0  0  0  0  0  0  0  0  0  0  0  0
   -3.7857    2.3476    2.4133 S   0  0  0  0  0  0  0  0  0  0  0  0
   -3.2471    3.3840    1.0209 C   0  0  0  0  0  0  0  0  0  0  0  0
   -2.2717    2.7060    0.0629 C   0  0  0  0  0  0  0  0  0  0  0  0
   -2.2258    3.0765   -1.1089 O   0  0  0  0  0  0  0  0  0  0  0  0
   -1.4604    1.7602    0.6454 N   0  0  0  0  0  0  0  0  0  0  0  0
   -0.5230    1.0521   -0.0483 C   0  0  0  0  0  0  0  0  0  0  0  0
   -0.1175    1.1861   -1.2828 N   0  0  0  0  0  0  0  0  0  0  0  0
    0.8625    0.2500   -1.5441 C   0  0  0  0  0  0  0  0  0  0  0  0
    1.1838   -0.5953   -0.4988 C   0  0  0  0  0  0  0  0  0  0  0  0
    2.1711   -1.7195   -0.4512 C   0  0  0  0  0  0  0  0  0  0  0  0
    3.4991   -1.3312    0.1753 C   0  0  0  0  0  0  0  0  0  0  0  0
    3.6478   -1.5373    1.5611 C   0  0  0  0  0  0  0  0  0  0  0  0
    4.8248   -1.1919    2.2141 C   0  0  0  0  0  0  0  0  0  0  0  0
    5.8744   -0.6312    1.4947 C   0  0  0  0  0  0  0  0  0  0  0  0
    5.7640   -0.4075    0.1151 C   0  0  0  0  0  0  0  0  0  0  0  0
    6.8400    0.1630   -0.5851 C   0  0  0  0  0  0  0  0  0  0  0  0
    6.7617    0.3989   -1.9555 C   0  0  0  0  0  0  0  0  0  0  0  0
    5.6045    0.0651   -2.6439 C   0  0  0  0  0  0  0  0  0  0  0  0
    4.5259   -0.5041   -1.9613 C   0  0  0  0  0  0  0  0  0  0  0  0
    4.5697   -0.7550   -0.5693 C   0  0  0  0  0  0  0  0  0  0  0  0
    0.2120   -0.1916    0.8617 S   0  0  0  0  0  0  0  0  0  0  0  0
   -5.5631    1.2867    0.7186 N   0  0  0  0  0  0  0  0  0  0  0  0
   -6.9588    0.4599   -1.9741 H   0  0  0  0  0  0  0  0  0  0  0  0
   -8.0169   -0.1426   -0.6696 H   0  0  0  0  0  0  0  0  0  0  0  0
   -7.5860    1.5749   -0.7465 H   0  0  0  0  0  0  0  0  0  0  0  0
   -5.7532   -1.7428   -0.7519 H   0  0  0  0  0  0  0  0  0  0  0  0
   -4.2088   -3.2424    0.9589 H   0  0  0  0  0  0  0  0  0  0  0  0
   -2.7189   -2.4026    1.4221 H   0  0  0  0  0  0  0  0  0  0  0  0
   -3.1087   -2.6085   -0.2953 H   0  0  0  0  0  0  0  0  0  0  0  0
   -2.7547    4.2750    1.4231 H   0  0  0  0  0  0  0  0  0  0  0  0
   -4.1273    3.7076    0.4556 H   0  0  0  0  0  0  0  0  0  0  0  0
   -1.6578    1.4428    1.5858 H   0  0  0  0  0  0  0  0  0  0  0  0
    1.3103    0.2294   -2.5300 H   0  0  0  0  0  0  0  0  0  0  0  0
    2.3315   -2.1262   -1.4567 H   0  0  0  0  0  0  0  0  0  0  0  0
    1.7417   -2.5631    0.1073 H   0  0  0  0  0  0  0  0  0  0  0  0
    2.8354   -1.9687    2.1429 H   0  0  0  0  0  0  0  0  0  0  0  0
    4.9241   -1.3553    3.2839 H   0  0  0  0  0  0  0  0  0  0  0  0
    6.7867   -0.3651    2.0243 H   0  0  0  0  0  0  0  0  0  0  0  0
    7.7554    0.4322   -0.0621 H   0  0  0  0  0  0  0  0  0  0  0  0
    7.6024    0.8432   -2.4812 H   0  0  0  0  0  0  0  0  0  0  0  0
    5.5353    0.2474   -3.7132 H   0  0  0  0  0  0  0  0  0  0  0  0
    3.6453   -0.7486   -2.5468 H   0  0  0  0  0  0  0  0  0  0  0  0
  1  2  1  0
  2  3  2  0
  3  4  1  0
  4  5  1  0
  4  6  2  0
  6  7  1  0
  7  8  1  0
  8  9  1  0
  9 10  1  0
 10 11  2  0
 10 12  1  0
 12 13  1  0
 13 14  2  0
 14 15  1  0
 15 16  2  0
 16 17  1  0
 17 18  1  0
 18 19  2  0
 19 20  1  0
 20 21  2  0
 21 22  1  0
 22 23  2  0
 23 24  1  0
 24 25  2  0
 25 26  1  0
 26 27  2  0
 16 28  1  0
  7 29  2  0
 29  2  1  0
 28 13  1  0
 27 18  1  0
 27 22  1  0
  1 30  1  0
  1 31  1  0
  1 32  1  0
  3 33  1  0
  5 34  1  0
  5 35  1  0
  5 36  1  0
  9 37  1  0
  9 38  1  0
 12 39  1  0
 15 40  1  0
 17 41  1  0
 17 42  1  0
 19 43  1  0
 20 44  1  0
 21 45  1  0
 23 46  1  0
 24 47  1  0
 25 48  1  0
 26 49  1  0
M  END
$$$$
