
     RDKit          3D

 10 10  0  0  0  0  0  0  0  0999 V2000
    1.9292   -0.0867   -0.1891 N   0  0  0  0  0  0  0  0  0  0  0  0
    0.6023   -0.0849   -0.1096 C   0  0  0  0  0  0  0  0  0  0  0  0
   -0.0502    1.1080   -0.0930 N   0  0  0  0  0  0  0  0  0  0  0  0
   -1.3106    0.7535   -0.0054 C   0  0  0  0  0  0  0  0  0  0  0  0
   -1.3927   -0.6011    0.0426 N   0  0  0  0  0  0  0  0  0  0  0  0
   -0.1739   -1.1587   -0.0028 N   0  0  0  0  0  0  0  0  0  0  0  0
    2.3852    0.7768    0.0735 H   0  0  0  0  0  0  0  0  0  0  0  0
    2.3917   -0.9194    0.1492 H   0  0  0  0  0  0  0  0  0  0  0  0
   -2.1698    1.4073    0.0256 H   0  0  0  0  0  0  0  0  0  0  0  0
   -2.2112   -1.1949    0.1090 H   0  0  0  0  0  0  0  0  0  0  0  0
  1  2  1  0
  2  3  1  0
  3  4  2  0
  4  5  1  0
  5  6  1  0
  6  2  2  0
  1  7  1  0
  1  8  1  0
  4  9  1  0
  5 10  1  0
M  END
$$$$
