
     RDKit          3D

 29 31  0  0  0  0  0  0  0  0999 V2000
   -0.0381    1.2178   -1.2722 O   0  0  0  0  0  0  0  0  0  0  0  0
   -0.1320    0.0662   -0.8655 C   0  0  0  0  0  0  0  0  0  0  0  0
    1.0788   -0.8504   -0.8048 C   0  0  0  0  0  0  0  0  0  0  0  0
    2.3716   -0.0474   -0.9022 C   0  0  0  0  0  0  0  0  0  0  0  0
    3.7634   -1.1338   -1.5226 S   0  0  0  0  0  0  0  0  0  0  0  0
    4.7361   -0.7202   -0.1819 C   0  0  0  0  0  0  0  0  0  0  0  0
    5.9375   -1.0217    0.2169 N   0  0  0  0  0  0  0  0  0  0  0  0
    5.9897   -0.3629    1.4249 C   0  0  0  0  0  0  0  0  0  0  0  0
    4.8796    0.3056    1.7789 N   0  0  0  0  0  0  0  0  0  0  0  0
    4.0966    0.0647    0.7089 N   0  0  0  0  0  0  0  0  0  0  0  0
    2.7911    0.4550    0.4802 C   0  0  0  0  0  0  0  0  0  0  0  0
    2.1340    1.0718    1.3020 O   0  0  0  0  0  0  0  0  0  0  0  0
   -1.2907   -0.5813   -0.4717 N   0  0  0  0  0  0  0  0  0  0  0  0
   -2.5941   -0.0442   -0.4110 C   0  0  0  0  0  0  0  0  0  0  0  0
   -2.9128    1.2764   -0.7356 C   0  0  0  0  0  0  0  0  0  0  0  0
   -4.2339    1.7316   -0.6482 C   0  0  0  0  0  0  0  0  0  0  0  0
   -5.2414    0.8655   -0.2345 C   0  0  0  0  0  0  0  0  0  0  0  0
   -7.0240    1.4809   -0.1175 Br  0  0  0  0  0  0  0  0  0  0  0  0
   -4.9406   -0.4527    0.0944 C   0  0  0  0  0  0  0  0  0  0  0  0
   -3.6199   -0.9041    0.0064 C   0  0  0  0  0  0  0  0  0  0  0  0
    1.0449   -1.4337    0.1236 H   0  0  0  0  0  0  0  0  0  0  0  0
    0.9783   -1.5407   -1.6517 H   0  0  0  0  0  0  0  0  0  0  0  0
    2.3151    0.8081   -1.5824 H   0  0  0  0  0  0  0  0  0  0  0  0
    6.8630   -0.3782    2.0666 H   0  0  0  0  0  0  0  0  0  0  0  0
   -1.2053   -1.5501   -0.1899 H   0  0  0  0  0  0  0  0  0  0  0  0
   -2.1571    1.9861   -1.0576 H   0  0  0  0  0  0  0  0  0  0  0  0
   -4.4582    2.7640   -0.9046 H   0  0  0  0  0  0  0  0  0  0  0  0
   -5.7215   -1.1347    0.4199 H   0  0  0  0  0  0  0  0  0  0  0  0
   -3.4100   -1.9377    0.2696 H   0  0  0  0  0  0  0  0  0  0  0  0
  1  2  2  0
  2  3  1  0
  3  4  1  0
  4  5  1  0
  5  6  1  0
  6  7  2  0
  7  8  1  0
  8  9  2  0
  9 10  1  0
 10 11  1  0
 11 12  2  0
  2 13  1  0
 13 14  1  0
 14 15  2  0
 15 16  1  0
 16 17  2  0
 17 18  1  0
 17 19  1  0
 19 20  2  0
 11  4  1  0
 20 14  1  0
 10  6  1  0
  3 21  1  0
  3 22  1  0
  4 23  1  0
  8 24  1  0
 13 25  1  0
 15 26  1  0
 16 27  1  0
 19 28  1  0
 20 29  1  0
M  END
$$$$
