
     RDKit          3D

 36 36  0  0  0  0  0  0  0  0999 V2000
    2.9574    0.0632   -0.1501 C   0  0  0  0  0  0  0  0  0  0  0  0
    1.4603    0.0621   -0.0701 C   0  0  0  0  0  0  0  0  0  0  0  0
    0.8176   -0.1231    1.1635 C   0  0  0  0  0  0  0  0  0  0  0  0
   -0.5763   -0.1570    1.2365 C   0  0  0  0  0  0  0  0  0  0  0  0
   -1.3297   -0.0083    0.0701 C   0  0  0  0  0  0  0  0  0  0  0  0
   -3.1386   -0.0870    0.1567 S   0  0  0  0  0  6  0  0  0  0  0  0
   -3.5063   -0.6511   -1.1401 O   0  0  0  0  0  0  0  0  0  0  0  0
   -3.3758   -0.9657    1.2998 O   0  0  0  0  0  0  0  0  0  0  0  0
   -3.4894    1.3158    0.3563 O   0  0  0  0  0  1  0  0  0  0  0  0
   -0.7050    0.1530   -1.1684 C   0  0  0  0  0  0  0  0  0  0  0  0
    0.6892    0.1862   -1.2359 C   0  0  0  0  0  0  0  0  0  0  0  0
   -2.3341    0.2590    0.8173 N   0  0  0  0  0  4  0  0  0  0  0  0
   -1.7043   -0.1047   -0.4702 C   0  0  0  0  0  0  0  0  0  0  0  0
   -0.2111   -0.0933   -0.3501 C   0  0  0  0  0  0  0  0  0  0  0  0
    0.4789   -1.2464    0.0555 C   0  0  0  0  0  0  0  0  0  0  0  0
    1.8652   -1.2201    0.2124 C   0  0  0  0  0  0  0  0  0  0  0  0
    2.5734   -0.0451   -0.0280 C   0  0  0  0  0  0  0  0  0  0  0  0
    1.8990    1.1059   -0.4282 C   0  0  0  0  0  0  0  0  0  0  0  0
    0.5128    1.0856   -0.5868 C   0  0  0  0  0  0  0  0  0  0  0  0
    3.3248   -0.9565   -0.3012 H   0  0  0  0  0  0  0  0  0  0  0  0
    3.3975    0.4657    0.7684 H   0  0  0  0  0  0  0  0  0  0  0  0
    3.3041    0.6909   -0.9777 H   0  0  0  0  0  0  0  0  0  0  0  0
    1.3952   -0.2442    2.0758 H   0  0  0  0  0  0  0  0  0  0  0  0
   -1.0817   -0.3000    2.1881 H   0  0  0  0  0  0  0  0  0  0  0  0
   -1.3094    0.2485   -2.0668 H   0  0  0  0  0  0  0  0  0  0  0  0
    1.1662    0.3076   -2.2047 H   0  0  0  0  0  0  0  0  0  0  0  0
   -2.0502   -0.3986    1.5536 H   0  0  0  0  0  0  0  0  0  0  0  0
   -3.3580    0.2571    0.7562 H   0  0  0  0  0  0  0  0  0  0  0  0
   -2.0270    1.1929    1.1153 H   0  0  0  0  0  0  0  0  0  0  0  0
   -2.0554    0.6155   -1.2164 H   0  0  0  0  0  0  0  0  0  0  0  0
   -2.0803   -1.0956   -0.7452 H   0  0  0  0  0  0  0  0  0  0  0  0
   -0.0433   -2.1834    0.2424 H   0  0  0  0  0  0  0  0  0  0  0  0
    2.4006   -2.1181    0.5161 H   0  0  0  0  0  0  0  0  0  0  0  0
    3.6556   -0.0287    0.0888 H   0  0  0  0  0  0  0  0  0  0  0  0
    2.4607    2.0180   -0.6230 H   0  0  0  0  0  0  0  0  0  0  0  0
    0.0175    2.0000   -0.9098 H   0  0  0  0  0  0  0  0  0  0  0  0
  1  2  1  0
  2  3  2  0
  3  4  1  0
  4  5  2  0
  5  6  1  0
  6  7  2  0
  6  8  2  0
  6  9  1  0
  5 10  1  0
 10 11  2  0
 12 13  1  0
 13 14  1  0
 14 15  2  0
 15 16  1  0
 16 17  2  0
 17 18  1  0
 18 19  2  0
 11  2  1  0
 19 14  1  0
  1 20  1  0
  1 21  1  0
  1 22  1  0
  3 23  1  0
  4 24  1  0
 10 25  1  0
 11 26  1  0
 12 27  1  0
 12 28  1  0
 12 29  1  0
 13 30  1  0
 13 31  1  0
 15 32  1  0
 16 33  1  0
 17 34  1  0
 18 35  1  0
 19 36  1  0
M  CHG  2   9  -1  12   1
M  END
$$$$
