
     RDKit          3D

 37 38  0  0  0  0  0  0  0  0999 V2000
    5.2800    0.9500   -0.0086 C   0  0  0  0  0  0  0  0  0  0  0  0
    3.9800    0.2045   -0.0923 C   0  0  0  0  0  0  0  0  0  0  0  0
    3.7599   -0.7185   -1.1239 C   0  0  0  0  0  0  0  0  0  0  0  0
    2.5421   -1.3927   -1.2222 C   0  0  0  0  0  0  0  0  0  0  0  0
    1.5355   -1.1319   -0.2897 C   0  0  0  0  0  0  0  0  0  0  0  0
   -0.0303   -1.9688   -0.4292 S   0  0  0  0  0  6  0  0  0  0  0  0
   -0.1402   -2.4795   -1.7848 O   0  0  0  0  0  0  0  0  0  0  0  0
   -0.0591   -2.9015    0.6809 O   0  0  0  0  0  0  0  0  0  0  0  0
   -1.3290   -0.7228   -0.2327 C   0  0  0  0  0  0  0  0  0  0  0  0
   -2.1309   -0.6767    0.9347 C   0  0  0  0  0  0  0  0  0  0  0  0
   -2.0016   -1.6209    2.1002 C   0  0  0  0  0  0  0  0  0  0  0  0
   -3.1300    0.3115    1.0340 C   0  0  0  0  0  0  0  0  0  0  0  0
   -3.3567    1.2321    0.0102 C   0  0  0  0  0  0  0  0  0  0  0  0
   -4.4116    2.2891    0.1552 C   0  0  0  0  0  0  0  0  0  0  0  0
   -2.5534    1.1840   -1.1288 C   0  0  0  0  0  0  0  0  0  0  0  0
   -1.5377    0.2205   -1.2734 C   0  0  0  0  0  0  0  0  0  0  0  0
   -0.7642    0.2420   -2.5668 C   0  0  0  0  0  0  0  0  0  0  0  0
    1.7349   -0.2078    0.7387 C   0  0  0  0  0  0  0  0  0  0  0  0
    2.9560    0.4622    0.8299 C   0  0  0  0  0  0  0  0  0  0  0  0
    5.2192    1.8738   -0.5920 H   0  0  0  0  0  0  0  0  0  0  0  0
    6.1049    0.3412   -0.3934 H   0  0  0  0  0  0  0  0  0  0  0  0
    5.5197    1.2017    1.0299 H   0  0  0  0  0  0  0  0  0  0  0  0
    4.5395   -0.9201   -1.8561 H   0  0  0  0  0  0  0  0  0  0  0  0
    2.3871   -2.1122   -2.0234 H   0  0  0  0  0  0  0  0  0  0  0  0
   -2.6973   -1.3623    2.9069 H   0  0  0  0  0  0  0  0  0  0  0  0
   -0.9986   -1.5659    2.5335 H   0  0  0  0  0  0  0  0  0  0  0  0
   -2.2457   -2.6429    1.7961 H   0  0  0  0  0  0  0  0  0  0  0  0
   -3.7520    0.3605    1.9278 H   0  0  0  0  0  0  0  0  0  0  0  0
   -3.9867    3.1786    0.6303 H   0  0  0  0  0  0  0  0  0  0  0  0
   -5.2469    1.9271    0.7640 H   0  0  0  0  0  0  0  0  0  0  0  0
   -4.8207    2.5702   -0.8209 H   0  0  0  0  0  0  0  0  0  0  0  0
   -2.7270    1.9080   -1.9247 H   0  0  0  0  0  0  0  0  0  0  0  0
   -0.9547    1.1638   -3.1287 H   0  0  0  0  0  0  0  0  0  0  0  0
   -1.0658   -0.5921   -3.2066 H   0  0  0  0  0  0  0  0  0  0  0  0
    0.3127    0.2170   -2.3911 H   0  0  0  0  0  0  0  0  0  0  0  0
    0.9600   -0.0060    1.4733 H   0  0  0  0  0  0  0  0  0  0  0  0
    3.1085    1.1849    1.6292 H   0  0  0  0  0  0  0  0  0  0  0  0
  1  2  1  0
  2  3  2  0
  3  4  1  0
  4  5  2  0
  5  6  1  0
  6  7  2  0
  6  8  2  0
  6  9  1  0
  9 10  2  0
 10 11  1  0
 10 12  1  0
 12 13  2  0
 13 14  1  0
 13 15  1  0
 15 16  2  0
 16 17  1  0
  5 18  1  0
 18 19  2  0
 19  2  1  0
 16  9  1  0
  1 20  1  0
  1 21  1  0
  1 22  1  0
  3 23  1  0
  4 24  1  0
 11 25  1  0
 11 26  1  0
 11 27  1  0
 12 28  1  0
 14 29  1  0
 14 30  1  0
 14 31  1  0
 15 32  1  0
 17 33  1  0
 17 34  1  0
 17 35  1  0
 18 36  1  0
 19 37  1  0
M  END
$$$$
