
     RDKit          3D

 47 49  0  0  0  0  0  0  0  0999 V2000
    5.3176   -0.0035   -3.2610 C   0  0  0  0  0  0  0  0  0  0  0  0
    4.4804    0.6060   -2.2865 O   0  0  0  0  0  0  0  0  0  0  0  0
    3.8999   -0.2178   -1.3596 C   0  0  0  0  0  0  0  0  0  0  0  0
    4.0928   -1.5923   -1.2589 C   0  0  0  0  0  0  0  0  0  0  0  0
    3.4425   -2.3075   -0.2566 C   0  0  0  0  0  0  0  0  0  0  0  0
    2.5963   -1.6523    0.6437 C   0  0  0  0  0  0  0  0  0  0  0  0
    2.3800   -0.2682    0.5627 C   0  0  0  0  0  0  0  0  0  0  0  0
    1.4995    0.3821    1.4748 N   0  0  0  0  0  0  0  0  0  0  0  0
    0.7319   -0.3447    2.4636 C   0  0  0  0  0  0  0  0  0  0  0  0
   -0.3068    0.6433    2.9480 C   0  0  0  0  0  0  0  0  0  0  0  0
   -1.6259    0.4870    2.2069 C   0  0  0  0  0  0  0  0  0  0  0  0
   -2.6611    0.2271    2.8147 O   0  0  0  0  0  0  0  0  0  0  0  0
   -1.5757    0.6503    0.8401 N   0  0  0  0  0  0  0  0  0  0  0  0
   -2.7434    0.4153    0.0021 C   0  0  0  0  0  0  0  0  0  0  0  0
   -2.9535   -1.0917   -0.2280 C   0  0  0  0  0  0  0  0  0  0  0  0
   -3.7169   -1.4134   -1.5154 C   0  0  0  0  0  0  0  0  0  0  0  0
   -4.6459   -0.2798   -1.9276 C   0  0  0  0  0  0  0  0  0  0  0  0
   -3.8771    1.0189   -2.1818 C   0  0  0  0  0  0  0  0  0  0  0  0
   -2.6153    1.1611   -1.3264 C   0  0  0  0  0  0  0  0  0  0  0  0
    0.3280    2.0042    2.7311 C   0  0  0  0  0  0  0  0  0  0  0  0
    1.3301    1.7668    1.6269 C   0  0  0  0  0  0  0  0  0  0  0  0
    1.8690    2.6817    1.0244 O   0  0  0  0  0  0  0  0  0  0  0  0
    3.0492    0.4307   -0.4513 C   0  0  0  0  0  0  0  0  0  0  0  0
    6.1814   -0.4860   -2.7913 H   0  0  0  0  0  0  0  0  0  0  0  0
    4.7527   -0.7130   -3.8734 H   0  0  0  0  0  0  0  0  0  0  0  0
    5.6919    0.7848   -3.9219 H   0  0  0  0  0  0  0  0  0  0  0  0
    4.7445   -2.1327   -1.9362 H   0  0  0  0  0  0  0  0  0  0  0  0
    3.5990   -3.3797   -0.1686 H   0  0  0  0  0  0  0  0  0  0  0  0
    2.1311   -2.2586    1.4139 H   0  0  0  0  0  0  0  0  0  0  0  0
    0.2705   -1.2389    2.0311 H   0  0  0  0  0  0  0  0  0  0  0  0
    1.4095   -0.6306    3.2768 H   0  0  0  0  0  0  0  0  0  0  0  0
   -0.5272    0.4828    4.0102 H   0  0  0  0  0  0  0  0  0  0  0  0
   -0.6737    0.6496    0.3761 H   0  0  0  0  0  0  0  0  0  0  0  0
   -3.6163    0.8110    0.5380 H   0  0  0  0  0  0  0  0  0  0  0  0
   -1.9916   -1.6205   -0.2533 H   0  0  0  0  0  0  0  0  0  0  0  0
   -3.4952   -1.5063    0.6321 H   0  0  0  0  0  0  0  0  0  0  0  0
   -4.2848   -2.3424   -1.3827 H   0  0  0  0  0  0  0  0  0  0  0  0
   -2.9999   -1.5999   -2.3255 H   0  0  0  0  0  0  0  0  0  0  0  0
   -5.2096   -0.5557   -2.8265 H   0  0  0  0  0  0  0  0  0  0  0  0
   -5.3853   -0.1152   -1.1330 H   0  0  0  0  0  0  0  0  0  0  0  0
   -3.5927    1.0812   -3.2392 H   0  0  0  0  0  0  0  0  0  0  0  0
   -4.5486    1.8661   -1.9965 H   0  0  0  0  0  0  0  0  0  0  0  0
   -1.7536    0.7690   -1.8842 H   0  0  0  0  0  0  0  0  0  0  0  0
   -2.4058    2.2245   -1.1582 H   0  0  0  0  0  0  0  0  0  0  0  0
    0.8746    2.3333    3.6207 H   0  0  0  0  0  0  0  0  0  0  0  0
   -0.3922    2.7717    2.4326 H   0  0  0  0  0  0  0  0  0  0  0  0
    2.9254    1.5022   -0.5769 H   0  0  0  0  0  0  0  0  0  0  0  0
  1  2  1  0
  2  3  1  0
  3  4  2  0
  4  5  1  0
  5  6  2  0
  6  7  1  0
  7  8  1  0
  8  9  1  0
  9 10  1  0
 10 11  1  0
 11 12  2  0
 11 13  1  0
 13 14  1  0
 14 15  1  0
 15 16  1  0
 16 17  1  0
 17 18  1  0
 18 19  1  0
 10 20  1  0
 20 21  1  0
 21 22  2  0
  7 23  2  0
 23  3  1  0
 21  8  1  0
 19 14  1  0
  1 24  1  0
  1 25  1  0
  1 26  1  0
  4 27  1  0
  5 28  1  0
  6 29  1  0
  9 30  1  0
  9 31  1  0
 10 32  1  0
 13 33  1  0
 14 34  1  0
 15 35  1  0
 15 36  1  0
 16 37  1  0
 16 38  1  0
 17 39  1  0
 17 40  1  0
 18 41  1  0
 18 42  1  0
 19 43  1  0
 19 44  1  0
 20 45  1  0
 20 46  1  0
 23 47  1  0
M  END
$$$$
