
     RDKit          3D

 44 45  0  0  0  0  0  0  0  0999 V2000
    4.5520   -0.9134   -0.9641 C   0  0  0  0  0  0  0  0  0  0  0  0
    3.4548   -0.3168   -0.0893 C   0  0  1  0  0  0  0  0  0  0  0  0
    3.1411    1.1305   -0.5085 C   0  0  0  0  0  0  0  0  0  0  0  0
    2.4844    2.0177    0.5659 C   0  0  0  0  0  0  0  0  0  0  0  0
    1.3882    1.4191    1.4552 C   0  0  0  0  0  0  0  0  0  0  0  0
    0.0695    0.9936    0.8681 C   0  0  0  0  0  0  0  0  0  0  0  0
   -0.4336    1.2422   -0.3520 C   0  0  0  0  0  0  0  0  0  0  0  0
   -1.7386    0.6969   -0.9063 C   0  0  2  0  0  0  0  0  0  0  0  0
   -2.8724    1.7398   -0.8084 C   0  0  0  0  0  0  0  0  0  0  0  0
   -4.1360    0.9661   -0.4258 C   0  0  2  0  0  0  0  0  0  0  0  0
   -4.3971    1.1290    0.9654 O   0  0  0  0  0  0  0  0  0  0  0  0
   -3.8159   -0.4977   -0.6897 C   0  0  0  0  0  0  0  0  0  0  0  0
   -2.3343   -0.6038   -0.3014 C   0  0  1  0  0  0  0  0  0  0  0  0
   -1.7152   -1.9363   -0.7856 C   0  0  2  0  0  0  0  0  0  0  0  0
   -2.2591   -3.0256   -0.0483 O   0  0  0  0  0  0  0  0  0  0  0  0
   -0.2242   -1.9334   -0.6682 C   0  0  0  0  0  0  0  0  0  0  0  0
    0.5406   -2.5030    0.2797 C   0  0  0  0  0  0  0  0  0  0  0  0
    1.9710   -2.1364    0.4435 C   0  0  0  0  0  0  0  0  0  0  0  0
    2.7176   -2.6728    1.2444 O   0  0  0  0  0  0  0  0  0  0  0  0
    2.2484   -1.0594   -0.3242 O   0  0  0  0  0  0  0  0  0  0  0  0
    4.7326   -1.9600   -0.6973 H   0  0  0  0  0  0  0  0  0  0  0  0
    4.2607   -0.9039   -2.0203 H   0  0  0  0  0  0  0  0  0  0  0  0
    5.4909   -0.3624   -0.8531 H   0  0  0  0  0  0  0  0  0  0  0  0
    3.7526   -0.3594    0.9648 H   0  0  0  0  0  0  0  0  0  0  0  0
    4.0678    1.6352   -0.8107 H   0  0  0  0  0  0  0  0  0  0  0  0
    2.4907    1.1203   -1.3923 H   0  0  0  0  0  0  0  0  0  0  0  0
    3.2870    2.3512    1.2380 H   0  0  0  0  0  0  0  0  0  0  0  0
    2.1094    2.9295    0.0838 H   0  0  0  0  0  0  0  0  0  0  0  0
    1.1580    2.1565    2.2358 H   0  0  0  0  0  0  0  0  0  0  0  0
    1.8058    0.5571    1.9894 H   0  0  0  0  0  0  0  0  0  0  0  0
   -0.5187    0.3972    1.5634 H   0  0  0  0  0  0  0  0  0  0  0  0
    0.1326    1.8671   -1.0402 H   0  0  0  0  0  0  0  0  0  0  0  0
   -1.5599    0.5037   -1.9747 H   0  0  0  0  0  0  0  0  0  0  0  0
   -2.6521    2.5340   -0.0858 H   0  0  0  0  0  0  0  0  0  0  0  0
   -3.0040    2.2102   -1.7903 H   0  0  0  0  0  0  0  0  0  0  0  0
   -5.0187    1.3012   -0.9784 H   0  0  0  0  0  0  0  0  0  0  0  0
   -4.5794    2.0722    1.1201 H   0  0  0  0  0  0  0  0  0  0  0  0
   -4.4348   -1.1772   -0.0949 H   0  0  0  0  0  0  0  0  0  0  0  0
   -3.9536   -0.7289   -1.7527 H   0  0  0  0  0  0  0  0  0  0  0  0
   -2.2886   -0.5690    0.7954 H   0  0  0  0  0  0  0  0  0  0  0  0
   -1.9697   -2.1115   -1.8372 H   0  0  0  0  0  0  0  0  0  0  0  0
   -2.3408   -2.7470    0.8793 H   0  0  0  0  0  0  0  0  0  0  0  0
    0.2524   -1.3022   -1.4171 H   0  0  0  0  0  0  0  0  0  0  0  0
    0.1388   -3.1503    1.0486 H   0  0  0  0  0  0  0  0  0  0  0  0
  1  2  1  0
  2  3  1  0
  3  4  1  0
  4  5  1  0
  5  6  1  0
  6  7  2  0
  7  8  1  0
  8  9  1  0
  9 10  1  0
 10 11  1  0
 10 12  1  0
 12 13  1  0
 13 14  1  0
 14 15  1  0
 14 16  1  0
 16 17  2  0
 17 18  1  0
 18 19  2  0
 18 20  1  0
 20  2  1  0
 13  8  1  0
  1 21  1  0
  1 22  1  0
  1 23  1  0
  2 24  1  1
  3 25  1  0
  3 26  1  0
  4 27  1  0
  4 28  1  0
  5 29  1  0
  5 30  1  0
  6 31  1  0
  7 32  1  0
  8 33  1  6
  9 34  1  0
  9 35  1  0
 10 36  1  6
 11 37  1  0
 12 38  1  0
 12 39  1  0
 13 40  1  1
 14 41  1  6
 15 42  1  0
 16 43  1  0
 17 44  1  0
M  END
$$$$
