
     RDKit          3D

 56 59  0  0  0  0  0  0  0  0999 V2000
    8.2677    0.0693    0.6757 C   0  0  0  0  0  0  0  0  0  0  0  0
    7.0404   -0.5745    0.1508 C   0  0  0  0  0  0  0  0  0  0  0  0
    6.6793   -1.9387    0.2019 C   0  0  0  0  0  0  0  0  0  0  0  0
    5.4450   -2.0166   -0.4102 C   0  0  0  0  0  0  0  0  0  0  0  0
    4.5555   -3.1821   -0.6419 C   0  0  0  0  0  0  0  0  0  0  0  0
    5.1500   -0.7333   -0.7973 N   0  0  0  0  0  0  0  0  0  0  0  0
    3.9504   -0.2469   -1.4554 C   0  0  0  0  0  0  0  0  0  0  0  0
    3.0411    0.4710   -0.4698 C   0  0  0  0  0  0  0  0  0  0  0  0
    1.8149    1.0053   -1.1646 C   0  0  0  0  0  0  0  0  0  0  0  0
    1.4461    0.6388   -2.2734 O   0  0  0  0  0  0  0  0  0  0  0  0
    1.1279    1.9325   -0.4120 N   0  0  0  0  0  0  0  0  0  0  0  0
   -0.1399    2.5060   -0.8779 C   0  0  1  0  0  0  0  0  0  0  0  0
   -1.3358    1.5319   -0.5946 C   0  0  0  0  0  0  0  0  0  0  0  0
   -1.8297    2.0304    0.7084 C   0  0  0  0  0  0  0  0  0  0  0  0
   -2.5889    1.7074    1.8100 C   0  0  0  0  0  0  0  0  0  0  0  0
   -3.3710    0.5237    2.1195 C   0  0  0  0  0  0  0  0  0  0  0  0
   -3.8298    0.3315    3.2408 O   0  0  0  0  0  0  0  0  0  0  0  0
   -3.5764   -0.3325    1.0651 N   0  0  0  0  0  0  0  0  0  0  0  0
   -4.4049   -1.5108    1.1761 C   0  0  0  0  0  0  0  0  0  0  0  0
   -5.3603   -1.6022    0.0109 C   0  0  0  0  0  0  0  0  0  0  0  0
   -5.3833   -2.7421   -0.8067 C   0  0  0  0  0  0  0  0  0  0  0  0
   -6.2603   -2.8184   -1.8904 C   0  0  0  0  0  0  0  0  0  0  0  0
   -7.1269   -1.7603   -2.1656 C   0  0  0  0  0  0  0  0  0  0  0  0
   -7.1264   -0.6284   -1.3491 C   0  0  0  0  0  0  0  0  0  0  0  0
   -6.2539   -0.5521   -0.2621 C   0  0  0  0  0  0  0  0  0  0  0  0
   -2.4185    2.8534    2.6528 C   0  0  0  0  0  0  0  0  0  0  0  0
   -1.6419    3.8072    2.1113 N   0  0  0  0  0  0  0  0  0  0  0  0
   -1.3474    3.2780    0.9335 N   0  0  0  0  0  0  0  0  0  0  0  0
   -0.4793    3.8024   -0.1063 C   0  0  0  0  0  0  0  0  0  0  0  0
    6.1008    0.1591   -0.4557 N   0  0  0  0  0  0  0  0  0  0  0  0
    8.8297    0.5449   -0.1351 H   0  0  0  0  0  0  0  0  0  0  0  0
    8.0132    0.8346    1.4171 H   0  0  0  0  0  0  0  0  0  0  0  0
    8.9224   -0.6636    1.1583 H   0  0  0  0  0  0  0  0  0  0  0  0
    7.2406   -2.7553    0.6349 H   0  0  0  0  0  0  0  0  0  0  0  0
    3.5704   -3.0158   -0.1898 H   0  0  0  0  0  0  0  0  0  0  0  0
    4.9770   -4.0878   -0.1979 H   0  0  0  0  0  0  0  0  0  0  0  0
    4.4233   -3.3641   -1.7159 H   0  0  0  0  0  0  0  0  0  0  0  0
    4.2730    0.4225   -2.2629 H   0  0  0  0  0  0  0  0  0  0  0  0
    3.4415   -1.0966   -1.9243 H   0  0  0  0  0  0  0  0  0  0  0  0
    2.7158   -0.2148    0.3224 H   0  0  0  0  0  0  0  0  0  0  0  0
    3.5723    1.3053    0.0069 H   0  0  0  0  0  0  0  0  0  0  0  0
    1.3541    2.0036    0.5758 H   0  0  0  0  0  0  0  0  0  0  0  0
   -0.0386    2.6971   -1.9517 H   0  0  0  0  0  0  0  0  0  0  0  0
   -2.1134    1.6551   -1.3565 H   0  0  0  0  0  0  0  0  0  0  0  0
   -1.0242    0.4845   -0.5559 H   0  0  0  0  0  0  0  0  0  0  0  0
   -3.2190   -0.0980    0.1517 H   0  0  0  0  0  0  0  0  0  0  0  0
   -3.7193   -2.3691    1.1786 H   0  0  0  0  0  0  0  0  0  0  0  0
   -4.9622   -1.5248    2.1201 H   0  0  0  0  0  0  0  0  0  0  0  0
   -4.7144   -3.5787   -0.6081 H   0  0  0  0  0  0  0  0  0  0  0  0
   -6.2688   -3.7040   -2.5207 H   0  0  0  0  0  0  0  0  0  0  0  0
   -7.8048   -1.8195   -3.0133 H   0  0  0  0  0  0  0  0  0  0  0  0
   -7.8065    0.1940   -1.5589 H   0  0  0  0  0  0  0  0  0  0  0  0
   -6.2705    0.3363    0.3744 H   0  0  0  0  0  0  0  0  0  0  0  0
   -2.8384    3.0116    3.6393 H   0  0  0  0  0  0  0  0  0  0  0  0
    0.3823    4.2986    0.3484 H   0  0  0  0  0  0  0  0  0  0  0  0
   -1.0801    4.4949   -0.7034 H   0  0  0  0  0  0  0  0  0  0  0  0
  1  2  1  0
  2  3  1  0
  3  4  2  0
  4  5  1  0
  4  6  1  0
  6  7  1  0
  7  8  1  0
  8  9  1  0
  9 10  2  0
  9 11  1  0
 11 12  1  0
 12 13  1  0
 13 14  1  0
 14 15  2  0
 15 16  1  0
 16 17  2  0
 16 18  1  0
 18 19  1  0
 19 20  1  0
 20 21  2  0
 21 22  1  0
 22 23  2  0
 23 24  1  0
 24 25  2  0
 15 26  1  0
 26 27  2  0
 27 28  1  0
 28 29  1  0
  6 30  1  0
 30  2  2  0
 29 12  1  0
 28 14  1  0
 25 20  1  0
  1 31  1  0
  1 32  1  0
  1 33  1  0
  3 34  1  0
  5 35  1  0
  5 36  1  0
  5 37  1  0
  7 38  1  0
  7 39  1  0
  8 40  1  0
  8 41  1  0
 11 42  1  0
 12 43  1  6
 13 44  1  0
 13 45  1  0
 18 46  1  0
 19 47  1  0
 19 48  1  0
 21 49  1  0
 22 50  1  0
 23 51  1  0
 24 52  1  0
 25 53  1  0
 26 54  1  0
 29 55  1  0
 29 56  1  0
M  END
$$$$
