
     RDKit          3D

 42 44  0  0  0  0  0  0  0  0999 V2000
   -0.7627    2.2086   -1.7347 C   0  0  0  0  0  0  0  0  0  0  0  0
    0.0513    1.0508   -2.0890 N   0  0  0  0  0  0  0  0  0  0  0  0
    1.3897    1.3434   -2.6091 C   0  0  0  0  0  0  0  0  0  0  0  0
    2.3604    1.7791   -1.5037 C   0  0  0  0  0  0  0  0  0  0  0  0
    2.7079    2.9531   -1.3995 O   0  0  0  0  0  0  0  0  0  0  0  0
    2.7426    0.7380   -0.6771 N   0  0  0  0  0  0  0  0  0  0  0  0
    3.6183    0.7845    0.4271 C   0  0  0  0  0  0  0  0  0  0  0  0
    4.3247    1.9260    0.8180 C   0  0  0  0  0  0  0  0  0  0  0  0
    5.1803    1.8837    1.9255 C   0  0  0  0  0  0  0  0  0  0  0  0
    5.3308    0.7004    2.6412 C   0  0  0  0  0  0  0  0  0  0  0  0
    6.1543    0.6731    3.6979 F   0  0  0  0  0  0  0  0  0  0  0  0
    4.6366   -0.4384    2.2661 C   0  0  0  0  0  0  0  0  0  0  0  0
    4.7858   -1.5764    2.9594 F   0  0  0  0  0  0  0  0  0  0  0  0
    3.7873   -0.3953    1.1671 C   0  0  0  0  0  0  0  0  0  0  0  0
    3.1169   -1.5020    0.8092 F   0  0  0  0  0  0  0  0  0  0  0  0
   -0.1600   -0.2285   -1.5789 C   0  0  0  0  0  0  0  0  0  0  0  0
    0.7492   -1.0537   -1.4885 O   0  0  0  0  0  0  0  0  0  0  0  0
   -1.5059   -0.6168   -1.1089 C   0  0  0  0  0  0  0  0  0  0  0  0
   -2.6173   -0.5008   -1.9528 C   0  0  0  0  0  0  0  0  0  0  0  0
   -3.8747   -0.9020   -1.4983 C   0  0  0  0  0  0  0  0  0  0  0  0
   -4.0119   -1.4318   -0.2158 C   0  0  0  0  0  0  0  0  0  0  0  0
   -2.8978   -1.5434    0.6250 C   0  0  0  0  0  0  0  0  0  0  0  0
   -1.6388   -1.1577    0.1730 C   0  0  0  0  0  0  0  0  0  0  0  0
   -2.9684   -2.0337    1.9033 O   0  0  0  0  0  0  0  0  0  0  0  0
   -4.3204   -2.0819    2.3732 C   0  0  0  0  0  0  0  0  0  0  0  0
   -5.2391   -2.6646    1.3124 C   0  0  0  0  0  0  0  0  0  0  0  0
   -5.2734   -1.8220    0.1546 O   0  0  0  0  0  0  0  0  0  0  0  0
   -0.8242    2.8783   -2.5973 H   0  0  0  0  0  0  0  0  0  0  0  0
   -1.7713    1.9381   -1.4226 H   0  0  0  0  0  0  0  0  0  0  0  0
   -0.2837    2.7301   -0.9008 H   0  0  0  0  0  0  0  0  0  0  0  0
    1.8007    0.4606   -3.1128 H   0  0  0  0  0  0  0  0  0  0  0  0
    1.3148    2.1386   -3.3586 H   0  0  0  0  0  0  0  0  0  0  0  0
    2.2869   -0.1660   -0.8499 H   0  0  0  0  0  0  0  0  0  0  0  0
    4.2372    2.8649    0.2785 H   0  0  0  0  0  0  0  0  0  0  0  0
    5.7318    2.7693    2.2285 H   0  0  0  0  0  0  0  0  0  0  0  0
   -2.5063   -0.1132   -2.9621 H   0  0  0  0  0  0  0  0  0  0  0  0
   -4.7433   -0.8211   -2.1466 H   0  0  0  0  0  0  0  0  0  0  0  0
   -0.7706   -1.2694    0.8168 H   0  0  0  0  0  0  0  0  0  0  0  0
   -4.6250   -1.0670    2.6564 H   0  0  0  0  0  0  0  0  0  0  0  0
   -4.3375   -2.7070    3.2716 H   0  0  0  0  0  0  0  0  0  0  0  0
   -6.2609   -2.7412    1.6971 H   0  0  0  0  0  0  0  0  0  0  0  0
   -4.9142   -3.6665    1.0053 H   0  0  0  0  0  0  0  0  0  0  0  0
  1  2  1  0
  2  3  1  0
  3  4  1  0
  4  5  2  0
  4  6  1  0
  6  7  1  0
  7  8  2  0
  8  9  1  0
  9 10  2  0
 10 11  1  0
 10 12  1  0
 12 13  1  0
 12 14  2  0
 14 15  1  0
  2 16  1  0
 16 17  2  0
 16 18  1  0
 18 19  2  0
 19 20  1  0
 20 21  2  0
 21 22  1  0
 22 23  2  0
 22 24  1  0
 24 25  1  0
 25 26  1  0
 26 27  1  0
 14  7  1  0
 23 18  1  0
 27 21  1  0
  1 28  1  0
  1 29  1  0
  1 30  1  0
  3 31  1  0
  3 32  1  0
  6 33  1  0
  8 34  1  0
  9 35  1  0
 19 36  1  0
 20 37  1  0
 23 38  1  0
 25 39  1  0
 25 40  1  0
 26 41  1  0
 26 42  1  0
M  END
$$$$
