
     RDKit          3D

 33 35  0  0  0  0  0  0  0  0999 V2000
    1.8475    2.2883   -1.6705 O   0  0  0  0  0  0  0  0  0  0  0  0
    1.0949    1.4921   -1.1315 C   0  0  0  0  0  0  0  0  0  0  0  0
   -0.3688    1.6064   -1.2087 C   0  0  0  0  0  0  0  0  0  0  0  0
   -1.1053    2.8520   -2.1010 Cl  0  0  0  0  0  0  0  0  0  0  0  0
   -0.9513    0.5954   -0.5602 C   0  0  0  0  0  0  0  0  0  0  0  0
   -2.3020    0.2681   -0.3709 N   0  0  0  0  0  0  0  0  0  0  0  0
   -3.3005    1.3338   -0.0873 C   0  0  0  0  0  0  0  0  0  0  0  0
   -4.6056    0.7740    0.5046 C   0  0  0  0  0  0  0  0  0  0  0  0
   -4.3898   -0.0417    1.6624 O   0  0  0  0  0  0  0  0  0  0  0  0
   -3.2974   -0.9678    1.5158 C   0  0  0  0  0  0  0  0  0  0  0  0
   -2.7535   -1.0667    0.0844 C   0  0  0  0  0  0  0  0  0  0  0  0
    0.1967   -0.1789    0.0327 C   0  0  0  0  0  0  0  0  0  0  0  0
    0.0303   -1.0975    0.8229 O   0  0  0  0  0  0  0  0  0  0  0  0
    1.3771    0.3745   -0.3954 N   0  0  0  0  0  0  0  0  0  0  0  0
    2.6883   -0.1058   -0.0749 C   0  0  0  0  0  0  0  0  0  0  0  0
    3.8404    0.6431   -0.3689 C   0  0  0  0  0  0  0  0  0  0  0  0
    5.1255    0.1741   -0.0598 C   0  0  0  0  0  0  0  0  0  0  0  0
    5.2957   -1.0644    0.5513 C   0  0  0  0  0  0  0  0  0  0  0  0
    6.9040   -1.5812    0.9029 Cl  0  0  0  0  0  0  0  0  0  0  0  0
    4.1722   -1.8326    0.8504 C   0  0  0  0  0  0  0  0  0  0  0  0
    4.2923   -3.3874    1.5985 Cl  0  0  0  0  0  0  0  0  0  0  0  0
    2.8877   -1.3556    0.5388 C   0  0  0  0  0  0  0  0  0  0  0  0
   -2.8665    2.0353    0.6359 H   0  0  0  0  0  0  0  0  0  0  0  0
   -3.5392    1.8772   -1.0064 H   0  0  0  0  0  0  0  0  0  0  0  0
   -5.2622    1.5991    0.7995 H   0  0  0  0  0  0  0  0  0  0  0  0
   -5.1523    0.1826   -0.2394 H   0  0  0  0  0  0  0  0  0  0  0  0
   -2.5079   -0.6460    2.2037 H   0  0  0  0  0  0  0  0  0  0  0  0
   -3.6513   -1.9469    1.8538 H   0  0  0  0  0  0  0  0  0  0  0  0
   -3.5514   -1.3989   -0.5919 H   0  0  0  0  0  0  0  0  0  0  0  0
   -1.9779   -1.8320    0.0047 H   0  0  0  0  0  0  0  0  0  0  0  0
    3.7892    1.6241   -0.8341 H   0  0  0  0  0  0  0  0  0  0  0  0
    5.9882    0.7915   -0.3025 H   0  0  0  0  0  0  0  0  0  0  0  0
    2.0528   -2.0082    0.7785 H   0  0  0  0  0  0  0  0  0  0  0  0
  1  2  2  0
  2  3  1  0
  3  4  1  0
  3  5  2  0
  5  6  1  0
  6  7  1  0
  7  8  1  0
  8  9  1  0
  9 10  1  0
 10 11  1  0
  5 12  1  0
 12 13  2  0
 12 14  1  0
 14 15  1  0
 15 16  2  0
 16 17  1  0
 17 18  2  0
 18 19  1  0
 18 20  1  0
 20 21  1  0
 20 22  2  0
 14  2  1  0
 22 15  1  0
 11  6  1  0
  7 23  1  0
  7 24  1  0
  8 25  1  0
  8 26  1  0
 10 27  1  0
 10 28  1  0
 11 29  1  0
 11 30  1  0
 16 31  1  0
 17 32  1  0
 22 33  1  0
M  END
$$$$
