
     RDKit          3D

 27 27  0  0  0  0  0  0  0  0999 V2000
    0.6900    0.0000    0.0000 Cl  0  0  0  0  0  0  0  0  0  0  0  0
   -3.5731   -0.8485   -0.0457 N   0  0  0  0  0  0  0  0  0  0  0  0
   -2.9333   -0.0934    0.9999 C   0  0  0  0  0  0  0  0  0  0  0  0
   -1.4808   -0.4299    1.1619 C   0  0  0  0  0  0  0  0  0  0  0  0
   -0.6751   -0.1774   -0.0448 C   0  0  0  0  0  0  0  0  0  0  0  0
   -1.0977    0.0217   -1.3374 C   0  0  0  0  0  0  0  0  0  0  0  0
    0.0016    0.2091   -2.1096 N   0  0  0  0  0  0  0  0  0  0  0  0
    1.1211    0.1395   -1.3735 C   0  0  0  0  0  0  0  0  0  0  0  0
    2.4583    0.2668   -1.7189 C   0  0  0  0  0  0  0  0  0  0  0  0
    3.3642    0.1384   -0.6968 C   0  0  0  0  0  0  0  0  0  0  0  0
    3.0120   -0.1014    0.6049 C   0  0  0  0  0  0  0  0  0  0  0  0
    4.0155   -0.2097    1.5501 O   0  0  0  0  0  0  0  0  0  0  0  0
    1.6722   -0.2248    0.9216 C   0  0  0  0  0  0  0  0  0  0  0  0
    0.7201   -0.1039   -0.0735 C   0  0  0  0  0  0  0  0  0  0  0  0
   -0.6900    0.0000    0.0000 H   0  0  0  0  0  0  0  0  0  0  0  0
   -3.3303   -1.8627   -0.0288 H   0  0  0  0  0  0  0  0  0  0  0  0
   -4.6075   -0.7025    0.0728 H   0  0  0  0  0  0  0  0  0  0  0  0
   -3.0100    0.9894    0.7604 H   0  0  0  0  0  0  0  0  0  0  0  0
   -3.4421   -0.2216    1.9878 H   0  0  0  0  0  0  0  0  0  0  0  0
   -1.3801   -1.5010    1.4698 H   0  0  0  0  0  0  0  0  0  0  0  0
   -1.0652    0.1827    1.9935 H   0  0  0  0  0  0  0  0  0  0  0  0
   -2.1256    0.0319   -1.7007 H   0  0  0  0  0  0  0  0  0  0  0  0
   -0.0625    0.3827   -3.1498 H   0  0  0  0  0  0  0  0  0  0  0  0
    2.7411    0.4590   -2.7525 H   0  0  0  0  0  0  0  0  0  0  0  0
    4.4172    0.2379   -0.9551 H   0  0  0  0  0  0  0  0  0  0  0  0
    3.8802   -0.3833    2.5225 H   0  0  0  0  0  0  0  0  0  0  0  0
    1.3796   -0.4146    1.9417 H   0  0  0  0  0  0  0  0  0  0  0  0
  2  3  1  0
  3  4  1  0
  4  5  1  0
  5  6  2  0
  6  7  1  0
  7  8  1  0
  8  9  2  0
  9 10  1  0
 10 11  2  0
 11 12  1  0
 11 13  1  0
 13 14  2  0
 14  5  1  0
 14  8  1  0
  1 15  1  0
  2 16  1  0
  2 17  1  0
  3 18  1  0
  3 19  1  0
  4 20  1  0
  4 21  1  0
  6 22  1  0
  7 23  1  0
  9 24  1  0
 10 25  1  0
 12 26  1  0
 13 27  1  0
M  END
$$$$
