
     RDKit          3D

 67 69  0  0  0  0  0  0  0  0999 V2000
    8.9312   -0.5962    1.2235 C   0  0  0  0  0  0  0  0  0  0  0  0
    7.9896    0.0013    0.1871 C   0  0  0  0  0  0  0  0  0  0  0  0
    7.3770   -1.0809   -0.6061 N   0  0  0  0  0  0  0  0  0  0  0  0
    7.6381   -0.9150   -2.0470 C   0  0  0  0  0  0  0  0  0  0  0  0
    9.0943   -1.1952   -2.4054 C   0  0  0  0  0  0  0  0  0  0  0  0
    5.9192   -1.1680   -0.3704 C   0  0  0  0  0  0  0  0  0  0  0  0
    5.5451   -1.5979    1.0619 C   0  0  0  0  0  0  0  0  0  0  0  0
    4.1214   -1.8458    1.2122 N   0  0  0  0  0  0  0  0  0  0  0  0
    3.2092   -0.8177    1.2856 C   0  0  0  0  0  0  0  0  0  0  0  0
    3.5241    0.3670    1.2708 O   0  0  0  0  0  0  0  0  0  0  0  0
    1.7801   -1.3016    1.3851 C   0  0  0  0  0  0  0  0  0  0  0  0
    0.7976   -0.1363    1.4031 C   0  0  0  0  0  0  0  0  0  0  0  0
   -0.6412   -0.6111    1.3487 C   0  0  0  0  0  0  0  0  0  0  0  0
   -0.9108   -1.8122    1.3878 O   0  0  0  0  0  0  0  0  0  0  0  0
   -1.6209    0.3664    1.2319 N   0  0  0  0  0  0  0  0  0  0  0  0
   -1.3922    1.8124    1.4528 C   0  0  0  0  0  0  0  0  0  0  0  0
   -2.0350    2.6830    0.3497 C   0  0  0  0  0  0  0  0  0  0  0  0
   -3.3981    2.1664    0.0787 C   0  0  0  0  0  0  0  0  0  0  0  0
   -3.8474    0.9171    0.4468 C   0  0  0  0  0  0  0  0  0  0  0  0
   -5.1913    0.8467   -0.0204 C   0  0  0  0  0  0  0  0  0  0  0  0
   -6.1156   -0.2927    0.1851 C   0  0  0  0  0  0  0  0  0  0  0  0
   -5.8693   -1.1422    1.0454 O   0  0  0  0  0  0  0  0  0  0  0  0
   -7.2561   -0.3984   -0.6010 N   0  0  0  0  0  0  0  0  0  0  0  0
   -7.6078    0.3967   -1.7696 C   0  0  0  0  0  0  0  0  0  0  0  0
   -8.7154   -0.3998   -2.4496 C   0  0  0  0  0  0  0  0  0  0  0  0
   -9.3858   -1.1160   -1.2846 C   0  0  0  0  0  0  0  0  0  0  0  0
   -8.2079   -1.4709   -0.3888 C   0  0  0  0  0  0  0  0  0  0  0  0
   -5.5249    1.9976   -0.6438 N   0  0  0  0  0  0  0  0  0  0  0  0
   -4.4234    2.7698   -0.5737 N   0  0  0  0  0  0  0  0  0  0  0  0
   -4.4575    4.0809   -1.1733 C   0  0  0  0  0  0  0  0  0  0  0  0
   -3.0291   -0.0863    1.1875 C   0  0  0  0  0  0  0  0  0  0  0  0
    9.7519   -1.1393    0.7447 H   0  0  0  0  0  0  0  0  0  0  0  0
    9.3694    0.2016    1.8336 H   0  0  0  0  0  0  0  0  0  0  0  0
    8.4105   -1.2838    1.8972 H   0  0  0  0  0  0  0  0  0  0  0  0
    8.5602    0.6997   -0.4368 H   0  0  0  0  0  0  0  0  0  0  0  0
    7.2398    0.6223    0.6940 H   0  0  0  0  0  0  0  0  0  0  0  0
    7.0342   -1.6328   -2.6178 H   0  0  0  0  0  0  0  0  0  0  0  0
    7.3499    0.0882   -2.3888 H   0  0  0  0  0  0  0  0  0  0  0  0
    9.3839   -2.2073   -2.0967 H   0  0  0  0  0  0  0  0  0  0  0  0
    9.2308   -1.1261   -3.4908 H   0  0  0  0  0  0  0  0  0  0  0  0
    9.7816   -0.4823   -1.9385 H   0  0  0  0  0  0  0  0  0  0  0  0
    5.4951   -1.9246   -1.0449 H   0  0  0  0  0  0  0  0  0  0  0  0
    5.4299   -0.2193   -0.6245 H   0  0  0  0  0  0  0  0  0  0  0  0
    5.8300   -0.8307    1.7892 H   0  0  0  0  0  0  0  0  0  0  0  0
    6.0569   -2.5293    1.3248 H   0  0  0  0  0  0  0  0  0  0  0  0
    3.7888   -2.7993    1.1400 H   0  0  0  0  0  0  0  0  0  0  0  0
    1.5796   -1.9537    0.5278 H   0  0  0  0  0  0  0  0  0  0  0  0
    1.6753   -1.8987    2.2977 H   0  0  0  0  0  0  0  0  0  0  0  0
    0.9468    0.4458    2.3191 H   0  0  0  0  0  0  0  0  0  0  0  0
    0.9808    0.5086    0.5359 H   0  0  0  0  0  0  0  0  0  0  0  0
   -1.8364    2.0513    2.4281 H   0  0  0  0  0  0  0  0  0  0  0  0
   -0.3304    2.0561    1.5223 H   0  0  0  0  0  0  0  0  0  0  0  0
   -1.4361    2.6110   -0.5667 H   0  0  0  0  0  0  0  0  0  0  0  0
   -2.0522    3.7302    0.6697 H   0  0  0  0  0  0  0  0  0  0  0  0
   -6.7476    0.5365   -2.4314 H   0  0  0  0  0  0  0  0  0  0  0  0
   -7.9846    1.3671   -1.4258 H   0  0  0  0  0  0  0  0  0  0  0  0
   -8.2786   -1.1365   -3.1358 H   0  0  0  0  0  0  0  0  0  0  0  0
   -9.4015    0.2350   -3.0183 H   0  0  0  0  0  0  0  0  0  0  0  0
  -10.0620   -0.4256   -0.7652 H   0  0  0  0  0  0  0  0  0  0  0  0
   -9.9601   -1.9932   -1.5931 H   0  0  0  0  0  0  0  0  0  0  0  0
   -8.4848   -1.5433    0.6679 H   0  0  0  0  0  0  0  0  0  0  0  0
   -7.7364   -2.4108   -0.7003 H   0  0  0  0  0  0  0  0  0  0  0  0
   -3.5422    4.6274   -0.9355 H   0  0  0  0  0  0  0  0  0  0  0  0
   -5.3220    4.6212   -0.7774 H   0  0  0  0  0  0  0  0  0  0  0  0
   -4.5468    3.9577   -2.2560 H   0  0  0  0  0  0  0  0  0  0  0  0
   -3.3761   -0.1763    2.2235 H   0  0  0  0  0  0  0  0  0  0  0  0
   -3.0947   -1.0677    0.7056 H   0  0  0  0  0  0  0  0  0  0  0  0
  1  2  1  0
  2  3  1  0
  3  4  1  0
  4  5  1  0
  3  6  1  0
  6  7  1  0
  7  8  1  0
  8  9  1  0
  9 10  2  0
  9 11  1  0
 11 12  1  0
 12 13  1  0
 13 14  2  0
 13 15  1  0
 15 16  1  0
 16 17  1  0
 17 18  1  0
 18 19  2  0
 19 20  1  0
 20 21  1  0
 21 22  2  0
 21 23  1  0
 23 24  1  0
 24 25  1  0
 25 26  1  0
 26 27  1  0
 20 28  2  0
 28 29  1  0
 29 30  1  0
 19 31  1  0
 31 15  1  0
 29 18  1  0
 27 23  1  0
  1 32  1  0
  1 33  1  0
  1 34  1  0
  2 35  1  0
  2 36  1  0
  4 37  1  0
  4 38  1  0
  5 39  1  0
  5 40  1  0
  5 41  1  0
  6 42  1  0
  6 43  1  0
  7 44  1  0
  7 45  1  0
  8 46  1  0
 11 47  1  0
 11 48  1  0
 12 49  1  0
 12 50  1  0
 16 51  1  0
 16 52  1  0
 17 53  1  0
 17 54  1  0
 24 55  1  0
 24 56  1  0
 25 57  1  0
 25 58  1  0
 26 59  1  0
 26 60  1  0
 27 61  1  0
 27 62  1  0
 30 63  1  0
 30 64  1  0
 30 65  1  0
 31 66  1  0
 31 67  1  0
M  END
$$$$
