
     RDKit          3D

 48 47  0  0  0  0  0  0  0  0999 V2000
    2.0492   -1.5708    2.0767 C   0  0  0  0  0  0  0  0  0  0  0  0
    2.1615   -0.6854    0.8811 C   0  0  1  0  0  0  0  0  0  0  0  0
    2.8623   -1.4487   -0.2513 C   0  0  0  0  0  0  0  0  0  0  0  0
    3.8971   -0.6124   -0.7606 N   0  0  0  0  0  0  0  0  0  0  0  0
    3.4630    0.5502   -1.4466 C   0  0  0  0  0  0  0  0  0  0  0  0
    1.9954    0.6647   -1.6765 C   0  0  0  0  0  0  0  0  0  0  0  0
    1.2083    0.9740   -0.4344 C   0  0  0  0  0  0  0  0  0  0  0  0
    0.9282   -0.2094    0.3582 N   0  0  0  0  0  0  0  0  0  0  0  0
   -0.2119    0.2052    1.5832 S   0  0  0  0  0  6  0  0  0  0  0  0
    0.4149    1.4004    2.2979 O   0  0  0  0  0  0  0  0  0  0  0  0
   -0.3403   -0.8351    2.6496 O   0  0  0  0  0  0  0  0  0  0  0  0
   -1.7108    0.7466    0.9228 C   0  0  0  0  0  0  0  0  0  0  0  0
   -2.1883    2.0438    1.1189 C   0  0  0  0  0  0  0  0  0  0  0  0
   -3.3675    2.5035    0.5872 C   0  0  0  0  0  0  0  0  0  0  0  0
   -4.1479    1.6780   -0.1830 C   0  0  0  0  0  0  0  0  0  0  0  0
   -3.7122    0.3895   -0.4002 C   0  0  0  0  0  0  0  0  0  0  0  0
   -4.5469   -0.3960   -1.1812 C   0  0  0  0  0  0  0  0  0  0  0  0
   -4.1459   -1.6580   -1.4019 N   0  0  0  0  0  0  0  0  0  0  0  0
   -3.0101   -2.1554   -0.9083 C   0  0  0  0  0  0  0  0  0  0  0  0
   -2.1750   -1.3575   -0.1227 C   0  0  0  0  0  0  0  0  0  0  0  0
   -1.0292   -1.8459    0.3936 F   0  0  0  0  0  0  0  0  0  0  0  0
   -2.5232   -0.0666    0.1390 C   0  0  0  0  0  0  0  0  0  0  0  0
    0.6851    0.0000    0.0000 Cl  0  0  0  0  0  0  0  0  0  0  0  0
   -0.0065    0.3642   -0.0000 O   0  0  0  0  0  0  0  0  0  0  0  0
   -0.0070    0.3996   -0.0000 O   0  0  0  0  0  0  0  0  0  0  0  0
    1.9614   -0.9887    3.0253 H   0  0  0  0  0  0  0  0  0  0  0  0
    1.2946   -2.3657    1.9812 H   0  0  0  0  0  0  0  0  0  0  0  0
    3.0370   -2.1107    2.1749 H   0  0  0  0  0  0  0  0  0  0  0  0
    2.7774    0.2049    1.1875 H   0  0  0  0  0  0  0  0  0  0  0  0
    3.3171   -2.3848    0.1612 H   0  0  0  0  0  0  0  0  0  0  0  0
    2.1669   -1.7633   -1.0314 H   0  0  0  0  0  0  0  0  0  0  0  0
    4.6327   -0.4164   -0.0638 H   0  0  0  0  0  0  0  0  0  0  0  0
    3.9535    0.5456   -2.4633 H   0  0  0  0  0  0  0  0  0  0  0  0
    3.8955    1.4422   -0.9366 H   0  0  0  0  0  0  0  0  0  0  0  0
    1.8452    1.5481   -2.3657 H   0  0  0  0  0  0  0  0  0  0  0  0
    1.6417   -0.2050   -2.2351 H   0  0  0  0  0  0  0  0  0  0  0  0
    0.2854    1.5546   -0.6588 H   0  0  0  0  0  0  0  0  0  0  0  0
    1.8295    1.6379    0.2207 H   0  0  0  0  0  0  0  0  0  0  0  0
   -1.5461    2.6831    1.7382 H   0  0  0  0  0  0  0  0  0  0  0  0
   -3.6934    3.5041    0.7636 H   0  0  0  0  0  0  0  0  0  0  0  0
   -5.0980    2.0305   -0.6184 H   0  0  0  0  0  0  0  0  0  0  0  0
   -5.4741   -0.0601   -1.6094 H   0  0  0  0  0  0  0  0  0  0  0  0
   -2.6970   -3.1709   -1.0913 H   0  0  0  0  0  0  0  0  0  0  0  0
   -0.6851    0.0000    0.0000 H   0  0  0  0  0  0  0  0  0  0  0  0
   -0.8246   -0.1843   -0.0000 H   0  0  0  0  0  0  0  0  0  0  0  0
    0.8311   -0.1799    0.0000 H   0  0  0  0  0  0  0  0  0  0  0  0
    0.7955   -0.1972    0.0000 H   0  0  0  0  0  0  0  0  0  0  0  0
   -0.7885   -0.2024   -0.0000 H   0  0  0  0  0  0  0  0  0  0  0  0
  1  2  1  0
  2  3  1  0
  3  4  1  0
  4  5  1  0
  5  6  1  0
  6  7  1  0
  7  8  1  0
  8  9  1  0
  9 10  2  0
  9 11  2  0
  9 12  1  0
 12 13  2  0
 13 14  1  0
 14 15  2  0
 15 16  1  0
 16 17  2  0
 17 18  1  0
 18 19  2  0
 19 20  1  0
 20 21  1  0
 20 22  2  0
  8  2  1  0
 22 12  1  0
 22 16  1  0
  1 26  1  0
  1 27  1  0
  1 28  1  0
  2 29  1  1
  3 30  1  0
  3 31  1  0
  4 32  1  0
  5 33  1  0
  5 34  1  0
  6 35  1  0
  6 36  1  0
  7 37  1  0
  7 38  1  0
 13 39  1  0
 14 40  1  0
 15 41  1  0
 17 42  1  0
 19 43  1  0
 23 44  1  0
 24 45  1  0
 24 46  1  0
 25 47  1  0
 25 48  1  0
M  END
$$$$
