
     RDKit          3D

 51 53  0  0  0  0  0  0  0  0999 V2000
    6.7968   -0.3467    1.3185 C   0  0  0  0  0  0  0  0  0  0  0  0
    5.7786   -1.0518    0.6189 O   0  0  0  0  0  0  0  0  0  0  0  0
    4.7870   -0.3031    0.0491 C   0  0  0  0  0  0  0  0  0  0  0  0
    4.6749    1.0830    0.0988 C   0  0  0  0  0  0  0  0  0  0  0  0
    3.5994    1.7187   -0.5279 C   0  0  0  0  0  0  0  0  0  0  0  0
    2.6272    0.9780   -1.2059 C   0  0  0  0  0  0  0  0  0  0  0  0
    1.5259    1.6640   -1.8029 N   0  0  0  0  0  0  0  0  0  0  0  0
    0.3961    2.3987   -0.7817 S   0  0  0  0  0  6  0  0  0  0  0  0
   -0.6987    2.8280   -1.6262 O   0  0  0  0  0  0  0  0  0  0  0  0
    1.0491    3.3053    0.1351 O   0  0  0  0  0  0  0  0  0  0  0  0
   -0.3158    1.1871    0.2078 C   0  0  0  0  0  0  0  0  0  0  0  0
   -1.3821    0.3337   -0.1746 C   0  0  0  0  0  0  0  0  0  0  0  0
   -1.6430   -0.4977    0.8988 C   0  0  0  0  0  0  0  0  0  0  0  0
   -2.6078   -1.5401    1.0344 C   0  0  0  0  0  0  0  0  0  0  0  0
   -2.5474   -2.4256    2.0778 N   0  0  0  0  0  0  0  0  0  0  0  0
   -3.4770   -3.3951    2.0275 N   0  0  0  0  0  0  0  0  0  0  0  0
   -4.1558   -3.1119    0.9132 C   0  0  0  0  0  0  0  0  0  0  0  0
   -3.6979   -1.9360    0.2764 C   0  0  0  0  0  0  0  0  0  0  0  0
   -4.2235   -1.3540   -0.9411 C   0  0  0  0  0  0  0  0  0  0  0  0
   -4.2530   -2.0207   -1.9725 O   0  0  0  0  0  0  0  0  0  0  0  0
   -4.6745   -0.0338   -0.8912 N   0  0  0  0  0  0  0  0  0  0  0  0
   -5.0907    0.6027   -2.1290 C   0  0  0  0  0  0  0  0  0  0  0  0
   -4.9858    0.6941    0.3328 C   0  0  0  0  0  0  0  0  0  0  0  0
   -0.7686   -0.1909    1.9106 O   0  0  0  0  0  0  0  0  0  0  0  0
    0.0286    0.8344    1.4926 C   0  0  0  0  0  0  0  0  0  0  0  0
    1.0312    1.3159    2.4657 C   0  0  0  0  0  0  0  0  0  0  0  0
    2.7337   -0.4188   -1.2787 C   0  0  0  0  0  0  0  0  0  0  0  0
    1.7435   -1.2689   -2.0227 C   0  0  0  0  0  0  0  0  0  0  0  0
    3.8198   -1.0422   -0.6398 C   0  0  0  0  0  0  0  0  0  0  0  0
    7.5076   -1.0831    1.7057 H   0  0  0  0  0  0  0  0  0  0  0  0
    6.3828    0.1983    2.1733 H   0  0  0  0  0  0  0  0  0  0  0  0
    7.3441    0.3244    0.6483 H   0  0  0  0  0  0  0  0  0  0  0  0
    5.4022    1.7017    0.6137 H   0  0  0  0  0  0  0  0  0  0  0  0
    3.5325    2.8040   -0.4848 H   0  0  0  0  0  0  0  0  0  0  0  0
    1.0582    1.1862   -2.5711 H   0  0  0  0  0  0  0  0  0  0  0  0
   -1.8927    0.3330   -1.1281 H   0  0  0  0  0  0  0  0  0  0  0  0
   -1.8763   -2.4310    2.8393 H   0  0  0  0  0  0  0  0  0  0  0  0
   -4.9691   -3.7606    0.6113 H   0  0  0  0  0  0  0  0  0  0  0  0
   -6.1831    0.5811   -2.1846 H   0  0  0  0  0  0  0  0  0  0  0  0
   -4.7427    1.6400   -2.1317 H   0  0  0  0  0  0  0  0  0  0  0  0
   -4.6792    0.0939   -3.0048 H   0  0  0  0  0  0  0  0  0  0  0  0
   -4.8182    0.1065    1.2359 H   0  0  0  0  0  0  0  0  0  0  0  0
   -6.0427    0.9782    0.3097 H   0  0  0  0  0  0  0  0  0  0  0  0
   -4.3715    1.5984    0.3666 H   0  0  0  0  0  0  0  0  0  0  0  0
    0.8111    2.3448    2.7656 H   0  0  0  0  0  0  0  0  0  0  0  0
    1.0344    0.6971    3.3688 H   0  0  0  0  0  0  0  0  0  0  0  0
    2.0361    1.2836    2.0377 H   0  0  0  0  0  0  0  0  0  0  0  0
    0.7417   -1.1509   -1.6026 H   0  0  0  0  0  0  0  0  0  0  0  0
    1.9992   -2.3323   -1.9632 H   0  0  0  0  0  0  0  0  0  0  0  0
    1.7293   -0.9940   -3.0823 H   0  0  0  0  0  0  0  0  0  0  0  0
    3.9260   -2.1255   -0.6775 H   0  0  0  0  0  0  0  0  0  0  0  0
  1  2  1  0
  2  3  1  0
  3  4  2  0
  4  5  1  0
  5  6  2  0
  6  7  1  0
  7  8  1  0
  8  9  2  0
  8 10  2  0
  8 11  1  0
 11 12  1  0
 12 13  2  0
 13 14  1  0
 14 15  1  0
 15 16  1  0
 16 17  2  0
 17 18  1  0
 18 19  1  0
 19 20  2  0
 19 21  1  0
 21 22  1  0
 21 23  1  0
 13 24  1  0
 24 25  1  0
 25 26  1  0
  6 27  1  0
 27 28  1  0
 27 29  2  0
 29  3  1  0
 25 11  2  0
 18 14  2  0
  1 30  1  0
  1 31  1  0
  1 32  1  0
  4 33  1  0
  5 34  1  0
  7 35  1  0
 12 36  1  0
 15 37  1  0
 17 38  1  0
 22 39  1  0
 22 40  1  0
 22 41  1  0
 23 42  1  0
 23 43  1  0
 23 44  1  0
 26 45  1  0
 26 46  1  0
 26 47  1  0
 28 48  1  0
 28 49  1  0
 28 50  1  0
 29 51  1  0
M  END
$$$$
