
     RDKit          3D

 38 40  0  0  0  0  0  0  0  0999 V2000
    4.8072    2.7206    0.2467 O   0  0  0  0  0  0  0  0  0  0  0  0
    3.9548    1.8397    0.2361 C   0  0  0  0  0  0  0  0  0  0  0  0
    2.5608    2.0714   -0.2138 C   0  0  0  0  0  0  0  0  0  0  0  0
    2.2138    3.6824   -0.7752 Cl  0  0  0  0  0  0  0  0  0  0  0  0
    1.5971    1.1302   -0.2050 C   0  0  0  0  0  0  0  0  0  0  0  0
    0.2916    1.3840   -0.6505 N   0  0  0  0  0  0  0  0  0  0  0  0
   -0.8840    0.5367   -0.4692 C   0  0  0  0  0  0  0  0  0  0  0  0
   -2.1434    1.2234   -1.0514 C   0  0  0  0  0  0  0  0  0  0  0  0
   -3.4190    0.4997   -0.9740 N   0  0  0  0  0  0  0  0  0  0  0  0
   -3.4217   -0.8029   -1.6665 C   0  0  0  0  0  0  0  0  0  0  0  0
   -3.4732   -2.0061   -0.7100 C   0  0  0  0  0  0  0  0  0  0  0  0
   -4.6142   -1.9873    0.1592 O   0  0  0  0  0  0  0  0  0  0  0  0
   -5.0656   -0.6626    0.4741 C   0  0  0  0  0  0  0  0  0  0  0  0
   -3.9451    0.3860    0.3976 C   0  0  0  0  0  0  0  0  0  0  0  0
    1.9574   -0.2514    0.3079 C   0  0  0  0  0  0  0  0  0  0  0  0
    1.1199   -1.1456    0.3981 O   0  0  0  0  0  0  0  0  0  0  0  0
    3.3619   -0.5108    0.7141 C   0  0  0  0  0  0  0  0  0  0  0  0
    3.6464   -1.7789    1.1230 N   0  0  0  0  0  0  0  0  0  0  0  0
    4.9140   -2.0433    1.5049 C   0  0  0  0  0  0  0  0  0  0  0  0
    5.9239   -1.0976    1.5011 C   0  0  0  0  0  0  0  0  0  0  0  0
    5.6141    0.1926    1.0811 C   0  0  0  0  0  0  0  0  0  0  0  0
    4.3075    0.4917    0.6792 C   0  0  0  0  0  0  0  0  0  0  0  0
    0.1024    2.3701   -0.8292 H   0  0  0  0  0  0  0  0  0  0  0  0
   -0.7267   -0.4142   -0.9872 H   0  0  0  0  0  0  0  0  0  0  0  0
   -1.0248    0.3424    0.5986 H   0  0  0  0  0  0  0  0  0  0  0  0
   -2.2687    2.2020   -0.5683 H   0  0  0  0  0  0  0  0  0  0  0  0
   -1.9520    1.4590   -2.1071 H   0  0  0  0  0  0  0  0  0  0  0  0
   -4.3267   -0.8253   -2.2869 H   0  0  0  0  0  0  0  0  0  0  0  0
   -2.5776   -0.9028   -2.3584 H   0  0  0  0  0  0  0  0  0  0  0  0
   -2.5720   -2.0482   -0.0876 H   0  0  0  0  0  0  0  0  0  0  0  0
   -3.5148   -2.9383   -1.2825 H   0  0  0  0  0  0  0  0  0  0  0  0
   -5.8843   -0.4096   -0.2099 H   0  0  0  0  0  0  0  0  0  0  0  0
   -5.4852   -0.6920    1.4849 H   0  0  0  0  0  0  0  0  0  0  0  0
   -4.3328    1.3595    0.7170 H   0  0  0  0  0  0  0  0  0  0  0  0
   -3.1572    0.0906    1.0994 H   0  0  0  0  0  0  0  0  0  0  0  0
    5.0999   -3.0659    1.8236 H   0  0  0  0  0  0  0  0  0  0  0  0
    6.9288   -1.3576    1.8180 H   0  0  0  0  0  0  0  0  0  0  0  0
    6.3877    0.9585    1.0682 H   0  0  0  0  0  0  0  0  0  0  0  0
  1  2  2  0
  2  3  1  0
  3  4  1  0
  3  5  2  0
  5  6  1  0
  6  7  1  0
  7  8  1  0
  8  9  1  0
  9 10  1  0
 10 11  1  0
 11 12  1  0
 12 13  1  0
 13 14  1  0
  5 15  1  0
 15 16  2  0
 15 17  1  0
 17 18  2  0
 18 19  1  0
 19 20  2  0
 20 21  1  0
 21 22  2  0
 22  2  1  0
 14  9  1  0
 22 17  1  0
  6 23  1  0
  7 24  1  0
  7 25  1  0
  8 26  1  0
  8 27  1  0
 10 28  1  0
 10 29  1  0
 11 30  1  0
 11 31  1  0
 13 32  1  0
 13 33  1  0
 14 34  1  0
 14 35  1  0
 19 36  1  0
 20 37  1  0
 21 38  1  0
M  END
$$$$
