
     RDKit          3D

 61 64  0  0  0  0  0  0  0  0999 V2000
   -1.6338   -4.3491    0.4363 C   0  0  0  0  0  0  0  0  0  0  0  0
   -0.9768   -3.1201    1.0692 C   0  0  0  0  0  0  0  0  0  0  0  0
    0.0466   -3.5443    2.1301 C   0  0  0  0  0  0  0  0  0  0  0  0
   -2.0471   -2.1610    1.6663 C   0  0  0  0  0  0  0  0  0  0  0  0
   -1.5993   -0.7837    1.3916 N   0  0  0  0  0  0  0  0  0  0  0  0
   -2.5632    0.3183    1.4928 C   0  0  0  0  0  0  0  0  0  0  0  0
   -3.5974    0.3850    0.3470 C   0  0  0  0  0  0  0  0  0  0  0  0
   -4.0464   -0.6269   -0.1997 O   0  0  0  0  0  0  0  0  0  0  0  0
   -4.0563    1.6421   -0.0103 N   0  0  0  0  0  0  0  0  0  0  0  0
   -3.6730    2.9272    0.5587 C   0  0  0  0  0  0  0  0  0  0  0  0
   -4.3897    3.9570   -0.3006 C   0  0  0  0  0  0  0  0  0  0  0  0
   -5.6244    3.2075   -0.7849 C   0  0  0  0  0  0  0  0  0  0  0  0
   -5.0981    1.7998   -1.0114 C   0  0  0  0  0  0  0  0  0  0  0  0
   -0.7569   -0.8879    0.2798 C   0  0  0  0  0  0  0  0  0  0  0  0
   -0.2967    0.1360   -0.5353 C   0  0  0  0  0  0  0  0  0  0  0  0
    0.5844   -0.1658   -1.5790 C   0  0  0  0  0  0  0  0  0  0  0  0
    1.0162   -1.4875   -1.7732 C   0  0  0  0  0  0  0  0  0  0  0  0
    2.1954   -1.8472   -3.0556 S   0  0  0  0  0  6  0  0  0  0  0  0
    1.9850   -3.2160   -3.4767 O   0  0  0  0  0  0  0  0  0  0  0  0
    2.1854   -0.7562   -4.0064 O   0  0  0  0  0  0  0  0  0  0  0  0
    3.6698   -1.8406   -2.2144 N   0  0  0  0  0  0  0  0  0  0  0  0
    4.0012   -0.6977   -1.4347 C   0  0  0  0  0  0  0  0  0  0  0  0
    4.0033   -0.8013   -0.0409 C   0  0  0  0  0  0  0  0  0  0  0  0
    4.2559    0.3262    0.7430 C   0  0  0  0  0  0  0  0  0  0  0  0
    4.5099    1.5522    0.1213 C   0  0  0  0  0  0  0  0  0  0  0  0
    4.7857    2.9961    1.1190 S   0  0  0  0  0  6  0  0  0  0  0  0
    6.4619    2.9724    1.2946 N   0  0  0  0  0  0  0  0  0  0  0  0
    4.1979    2.7740    2.4190 O   0  0  0  0  0  0  0  0  0  0  0  0
    4.4894    4.1649    0.3212 O   0  0  0  0  0  0  0  0  0  0  0  0
    4.5053    1.6618   -1.2727 C   0  0  0  0  0  0  0  0  0  0  0  0
    4.2545    0.5295   -2.0490 C   0  0  0  0  0  0  0  0  0  0  0  0
    0.5460   -2.5278   -0.9690 C   0  0  0  0  0  0  0  0  0  0  0  0
   -0.3380   -2.2069    0.0521 C   0  0  0  0  0  0  0  0  0  0  0  0
   -2.3353   -4.0657   -0.3566 H   0  0  0  0  0  0  0  0  0  0  0  0
   -0.8908   -5.0166   -0.0117 H   0  0  0  0  0  0  0  0  0  0  0  0
   -2.1896   -4.9247    1.1859 H   0  0  0  0  0  0  0  0  0  0  0  0
   -0.4306   -4.1288    2.9247 H   0  0  0  0  0  0  0  0  0  0  0  0
    0.8384   -4.1613    1.6919 H   0  0  0  0  0  0  0  0  0  0  0  0
    0.5296   -2.6796    2.5983 H   0  0  0  0  0  0  0  0  0  0  0  0
   -2.1724   -2.3111    2.7448 H   0  0  0  0  0  0  0  0  0  0  0  0
   -3.0229   -2.3443    1.2035 H   0  0  0  0  0  0  0  0  0  0  0  0
   -2.0019    1.2520    1.5723 H   0  0  0  0  0  0  0  0  0  0  0  0
   -3.1295    0.2156    2.4265 H   0  0  0  0  0  0  0  0  0  0  0  0
   -2.5869    3.0590    0.5292 H   0  0  0  0  0  0  0  0  0  0  0  0
   -4.0179    2.9575    1.5994 H   0  0  0  0  0  0  0  0  0  0  0  0
   -4.6313    4.8702    0.2513 H   0  0  0  0  0  0  0  0  0  0  0  0
   -3.7639    4.2303   -1.1595 H   0  0  0  0  0  0  0  0  0  0  0  0
   -6.3880    3.2029    0.0044 H   0  0  0  0  0  0  0  0  0  0  0  0
   -6.0646    3.6419   -1.6862 H   0  0  0  0  0  0  0  0  0  0  0  0
   -4.6303    1.7024   -1.9986 H   0  0  0  0  0  0  0  0  0  0  0  0
   -5.8735    1.0357   -0.9047 H   0  0  0  0  0  0  0  0  0  0  0  0
   -0.5988    1.1636   -0.3737 H   0  0  0  0  0  0  0  0  0  0  0  0
    0.9458    0.6350   -2.2210 H   0  0  0  0  0  0  0  0  0  0  0  0
    3.8634   -2.7581   -1.8166 H   0  0  0  0  0  0  0  0  0  0  0  0
    3.7811   -1.7462    0.4486 H   0  0  0  0  0  0  0  0  0  0  0  0
    4.2354    0.2462    1.8292 H   0  0  0  0  0  0  0  0  0  0  0  0
    6.8959    2.1131    0.9499 H   0  0  0  0  0  0  0  0  0  0  0  0
    6.8516    3.8018    0.8423 H   0  0  0  0  0  0  0  0  0  0  0  0
    4.6819    2.6181   -1.7609 H   0  0  0  0  0  0  0  0  0  0  0  0
    4.2458    0.6142   -3.1340 H   0  0  0  0  0  0  0  0  0  0  0  0
    0.8630   -3.5533   -1.1290 H   0  0  0  0  0  0  0  0  0  0  0  0
  1  2  1  0
  2  3  1  0
  2  4  1  0
  4  5  1  0
  5  6  1  0
  6  7  1  0
  7  8  2  0
  7  9  1  0
  9 10  1  0
 10 11  1  0
 11 12  1  0
 12 13  1  0
  5 14  1  0
 14 15  2  0
 15 16  1  0
 16 17  2  0
 17 18  1  0
 18 19  2  0
 18 20  2  0
 18 21  1  0
 21 22  1  0
 22 23  2  0
 23 24  1  0
 24 25  2  0
 25 26  1  0
 26 27  1  0
 26 28  2  0
 26 29  2  0
 25 30  1  0
 30 31  2  0
 17 32  1  0
 32 33  2  0
 33  2  1  0
 13  9  1  0
 33 14  1  0
 31 22  1  0
  1 34  1  0
  1 35  1  0
  1 36  1  0
  3 37  1  0
  3 38  1  0
  3 39  1  0
  4 40  1  0
  4 41  1  0
  6 42  1  0
  6 43  1  0
 10 44  1  0
 10 45  1  0
 11 46  1  0
 11 47  1  0
 12 48  1  0
 12 49  1  0
 13 50  1  0
 13 51  1  0
 15 52  1  0
 16 53  1  0
 21 54  1  0
 23 55  1  0
 24 56  1  0
 27 57  1  0
 27 58  1  0
 30 59  1  0
 31 60  1  0
 32 61  1  0
M  END
$$$$
