
     RDKit          3D

102106  0  0  0  0  0  0  0  0999 V2000
    6.4791   -5.0147    1.4821 C   0  0  0  0  0  0  0  0  0  0  0  0
    6.5320   -6.0538    0.3719 C   0  0  0  0  0  0  0  0  0  0  0  0
    6.3225   -5.4624   -1.0198 C   0  0  0  0  0  0  0  0  0  0  0  0
    7.4445   -4.5270   -1.4622 C   0  0  0  0  0  0  0  0  0  0  0  0
    7.1450   -4.0735   -2.7806 O   0  0  0  0  0  0  0  0  0  0  0  0
    8.1158   -3.1672   -3.3125 C   0  0  0  0  0  0  0  0  0  0  0  0
    7.9120   -1.7340   -2.8152 C   0  0  0  0  0  0  0  0  0  0  0  0
    6.6947   -1.2057   -3.3613 O   0  0  0  0  0  0  0  0  0  0  0  0
    6.0181   -0.4095   -2.4837 C   0  0  0  0  0  0  0  0  0  0  0  0
    5.7926    0.9088   -2.8530 C   0  0  0  0  0  0  0  0  0  0  0  0
    5.0463    1.7526   -2.0219 C   0  0  0  0  0  0  0  0  0  0  0  0
    4.4982    1.2772   -0.8219 C   0  0  0  0  0  0  0  0  0  0  0  0
    3.6686    2.1454    0.0232 C   0  0  0  0  0  0  0  0  0  0  0  0
    4.1401    3.3357    0.5472 C   0  0  0  0  0  0  0  0  0  0  0  0
    3.3148    4.1425    1.3488 C   0  0  0  0  0  0  0  0  0  0  0  0
    1.9682    3.8402    1.6758 C   0  0  0  0  0  0  0  0  0  0  0  0
    1.4878    2.6289    1.1026 C   0  0  0  0  0  0  0  0  0  0  0  0
    2.3473    1.8120    0.3155 C   0  0  0  0  0  0  0  0  0  0  0  0
    0.1390    2.0285    1.1564 C   0  0  0  0  0  0  0  0  0  0  0  0
   -1.0285    2.6512    0.9196 C   0  0  0  0  0  0  0  0  0  0  0  0
   -2.2705    1.8259    0.8782 C   0  0  0  0  0  0  0  0  0  0  0  0
   -3.1638    2.0322    1.6892 O   0  0  0  0  0  0  0  0  0  0  0  0
   -2.2486    0.9154   -0.1589 N   0  0  0  0  0  0  0  0  0  0  0  0
   -3.2986    0.0845   -0.5964 C   0  0  0  0  0  0  0  0  0  0  0  0
   -3.0444   -0.7568   -1.6881 C   0  0  0  0  0  0  0  0  0  0  0  0
   -4.0523   -1.5682   -2.2183 C   0  0  0  0  0  0  0  0  0  0  0  0
   -5.3340   -1.5491   -1.6655 C   0  0  0  0  0  0  0  0  0  0  0  0
   -6.6712   -2.5080   -2.4044 S   0  0  0  0  0  4  0  0  0  0  0  0
   -6.1278   -3.0541   -3.6961 O   0  0  0  0  0  0  0  0  0  0  0  0
   -6.7319   -3.8955   -1.2224 C   0  0  0  0  0  0  0  0  0  0  0  0
   -7.4812   -3.5545    0.0159 C   0  0  0  0  0  0  0  0  0  0  0  0
   -7.0138   -3.3088    1.2936 C   0  0  0  0  0  0  0  0  0  0  0  0
   -8.0381   -2.9953    2.1428 N   0  0  0  0  0  0  0  0  0  0  0  0
   -9.1263   -3.0621    1.4119 C   0  0  0  0  0  0  0  0  0  0  0  0
   -8.8506   -3.4316    0.1247 N   0  0  0  0  0  0  0  0  0  0  0  0
   -9.8526   -3.6013   -0.9097 C   0  0  0  0  0  0  0  0  0  0  0  0
  -10.3133   -5.0479   -1.0986 C   0  0  0  0  0  0  0  0  0  0  0  0
  -11.1557   -5.5628    0.0637 C   0  0  0  0  0  0  0  0  0  0  0  0
   -5.5911   -0.7137   -0.5743 C   0  0  0  0  0  0  0  0  0  0  0  0
   -4.5755    0.0877   -0.0372 C   0  0  0  0  0  0  0  0  0  0  0  0
   -1.2096    4.1259    0.7588 C   0  0  0  0  0  0  0  0  0  0  0  0
   -1.2412    4.7971    2.1254 C   0  0  0  0  0  0  0  0  0  0  0  0
   -0.0817    4.3915    3.0414 C   0  0  0  0  0  0  0  0  0  0  0  0
    1.2342    4.7323    2.4744 N   0  0  0  0  0  0  0  0  0  0  0  0
    1.8237    5.9760    3.0217 C   0  0  0  0  0  0  0  0  0  0  0  0
    1.4683    7.2279    2.1953 C   0  0  0  0  0  0  0  0  0  0  0  0
    1.9569    8.4806    2.9301 C   0  0  0  0  0  0  0  0  0  0  0  0
    2.0366    7.2097    0.7753 C   0  0  0  0  0  0  0  0  0  0  0  0
    4.7252   -0.0623   -0.4738 C   0  0  0  0  0  0  0  0  0  0  0  0
    5.4691   -0.9072   -1.3049 C   0  0  0  0  0  0  0  0  0  0  0  0
    6.5258   -5.5043    2.4609 H   0  0  0  0  0  0  0  0  0  0  0  0
    5.5514   -4.4338    1.4387 H   0  0  0  0  0  0  0  0  0  0  0  0
    7.3218   -4.3240    1.4156 H   0  0  0  0  0  0  0  0  0  0  0  0
    5.7478   -6.7974    0.5591 H   0  0  0  0  0  0  0  0  0  0  0  0
    7.4889   -6.5866    0.4167 H   0  0  0  0  0  0  0  0  0  0  0  0
    5.3639   -4.9285   -1.0583 H   0  0  0  0  0  0  0  0  0  0  0  0
    6.2374   -6.2790   -1.7486 H   0  0  0  0  0  0  0  0  0  0  0  0
    7.5212   -3.6740   -0.7823 H   0  0  0  0  0  0  0  0  0  0  0  0
    8.4017   -5.0622   -1.4653 H   0  0  0  0  0  0  0  0  0  0  0  0
    9.1276   -3.5203   -3.0820 H   0  0  0  0  0  0  0  0  0  0  0  0
    7.9979   -3.1890   -4.4020 H   0  0  0  0  0  0  0  0  0  0  0  0
    7.9376   -1.7059   -1.7206 H   0  0  0  0  0  0  0  0  0  0  0  0
    8.7295   -1.1068   -3.1881 H   0  0  0  0  0  0  0  0  0  0  0  0
    6.1812    1.2819   -3.7951 H   0  0  0  0  0  0  0  0  0  0  0  0
    4.8706    2.7778   -2.3372 H   0  0  0  0  0  0  0  0  0  0  0  0
    5.1609    3.6583    0.3529 H   0  0  0  0  0  0  0  0  0  0  0  0
    3.7934    5.0485    1.7050 H   0  0  0  0  0  0  0  0  0  0  0  0
    1.9592    0.8912   -0.1200 H   0  0  0  0  0  0  0  0  0  0  0  0
    0.1319    0.9550    1.3405 H   0  0  0  0  0  0  0  0  0  0  0  0
   -1.4001    0.8827   -0.7090 H   0  0  0  0  0  0  0  0  0  0  0  0
   -2.0621   -0.7845   -2.1492 H   0  0  0  0  0  0  0  0  0  0  0  0
   -3.8344   -2.1942   -3.0805 H   0  0  0  0  0  0  0  0  0  0  0  0
   -7.2238   -4.7284   -1.7358 H   0  0  0  0  0  0  0  0  0  0  0  0
   -5.7076   -4.2155   -0.9991 H   0  0  0  0  0  0  0  0  0  0  0  0
   -5.9861   -3.3250    1.6394 H   0  0  0  0  0  0  0  0  0  0  0  0
  -10.1314   -2.8690    1.7631 H   0  0  0  0  0  0  0  0  0  0  0  0
  -10.6994   -2.9502   -0.6610 H   0  0  0  0  0  0  0  0  0  0  0  0
   -9.4314   -3.2246   -1.8457 H   0  0  0  0  0  0  0  0  0  0  0  0
   -9.4529   -5.7139   -1.2422 H   0  0  0  0  0  0  0  0  0  0  0  0
  -10.9172   -5.0989   -2.0122 H   0  0  0  0  0  0  0  0  0  0  0  0
  -11.5203   -6.5718   -0.1589 H   0  0  0  0  0  0  0  0  0  0  0  0
  -12.0238   -4.9155    0.2360 H   0  0  0  0  0  0  0  0  0  0  0  0
  -10.5683   -5.6139    0.9866 H   0  0  0  0  0  0  0  0  0  0  0  0
   -6.5846   -0.6552   -0.1357 H   0  0  0  0  0  0  0  0  0  0  0  0
   -4.8269    0.7293    0.8027 H   0  0  0  0  0  0  0  0  0  0  0  0
   -0.4105    4.5509    0.1379 H   0  0  0  0  0  0  0  0  0  0  0  0
   -2.1414    4.3373    0.2226 H   0  0  0  0  0  0  0  0  0  0  0  0
   -2.1814    4.5449    2.6333 H   0  0  0  0  0  0  0  0  0  0  0  0
   -1.2589    5.8811    1.9806 H   0  0  0  0  0  0  0  0  0  0  0  0
   -0.1296    3.3428    3.3505 H   0  0  0  0  0  0  0  0  0  0  0  0
   -0.2303    4.9301    3.9865 H   0  0  0  0  0  0  0  0  0  0  0  0
    2.9006    5.9053    3.1987 H   0  0  0  0  0  0  0  0  0  0  0  0
    1.4307    6.1313    4.0338 H   0  0  0  0  0  0  0  0  0  0  0  0
    0.3792    7.3066    2.1119 H   0  0  0  0  0  0  0  0  0  0  0  0
    1.4862    8.5562    3.9163 H   0  0  0  0  0  0  0  0  0  0  0  0
    1.7070    9.3866    2.3684 H   0  0  0  0  0  0  0  0  0  0  0  0
    3.0423    8.4599    3.0682 H   0  0  0  0  0  0  0  0  0  0  0  0
    3.1309    7.1667    0.7873 H   0  0  0  0  0  0  0  0  0  0  0  0
    1.7509    8.1198    0.2368 H   0  0  0  0  0  0  0  0  0  0  0  0
    1.6570    6.3578    0.2021 H   0  0  0  0  0  0  0  0  0  0  0  0
    4.3122   -0.4646    0.4481 H   0  0  0  0  0  0  0  0  0  0  0  0
    5.5976   -1.9479   -1.0365 H   0  0  0  0  0  0  0  0  0  0  0  0
  1  2  1  0
  2  3  1  0
  3  4  1  0
  4  5  1  0
  5  6  1  0
  6  7  1  0
  7  8  1  0
  8  9  1  0
  9 10  2  0
 10 11  1  0
 11 12  2  0
 12 13  1  0
 13 14  2  0
 14 15  1  0
 15 16  2  0
 16 17  1  0
 17 18  2  0
 17 19  1  0
 19 20  2  0
 20 21  1  0
 21 22  2  0
 21 23  1  0
 23 24  1  0
 24 25  2  0
 25 26  1  0
 26 27  2  0
 27 28  1  0
 28 29  2  0
 28 30  1  1
 30 31  1  0
 31 32  2  0
 32 33  1  0
 33 34  2  0
 34 35  1  0
 35 36  1  0
 36 37  1  0
 37 38  1  0
 27 39  1  0
 39 40  2  0
 20 41  1  0
 41 42  1  0
 42 43  1  0
 43 44  1  0
 44 45  1  0
 45 46  1  0
 46 47  1  0
 46 48  1  0
 12 49  1  0
 49 50  2  0
 50  9  1  0
 18 13  1  0
 40 24  1  0
 44 16  1  0
 35 31  1  0
  1 51  1  0
  1 52  1  0
  1 53  1  0
  2 54  1  0
  2 55  1  0
  3 56  1  0
  3 57  1  0
  4 58  1  0
  4 59  1  0
  6 60  1  0
  6 61  1  0
  7 62  1  0
  7 63  1  0
 10 64  1  0
 11 65  1  0
 14 66  1  0
 15 67  1  0
 18 68  1  0
 19 69  1  0
 23 70  1  0
 25 71  1  0
 26 72  1  0
 30 73  1  0
 30 74  1  0
 32 75  1  0
 34 76  1  0
 36 77  1  0
 36 78  1  0
 37 79  1  0
 37 80  1  0
 38 81  1  0
 38 82  1  0
 38 83  1  0
 39 84  1  0
 40 85  1  0
 41 86  1  0
 41 87  1  0
 42 88  1  0
 42 89  1  0
 43 90  1  0
 43 91  1  0
 45 92  1  0
 45 93  1  0
 46 94  1  0
 47 95  1  0
 47 96  1  0
 47 97  1  0
 48 98  1  0
 48 99  1  0
 48100  1  0
 49101  1  0
 50102  1  0
M  END
$$$$
