
     RDKit          3D

 43 45  0  0  0  0  0  0  0  0999 V2000
    4.7316    2.9969    0.5844 C   0  0  0  0  0  0  0  0  0  0  0  0
    3.9153    1.7378    0.5583 C   0  0  0  0  0  0  0  0  0  0  0  0
    2.8887    1.5421    1.4845 C   0  0  0  0  0  0  0  0  0  0  0  0
    2.1590    0.3540    1.4834 C   0  0  0  0  0  0  0  0  0  0  0  0
    2.4502   -0.6557    0.5533 C   0  0  0  0  0  0  0  0  0  0  0  0
    1.4689   -2.1443    0.6255 S   0  0  0  0  0  6  0  0  0  0  0  0
    2.3525   -3.2776    0.4525 O   0  0  0  0  0  0  0  0  0  0  0  0
    0.5844   -2.0747    1.7699 O   0  0  0  0  0  0  0  0  0  0  0  0
    0.5335   -2.0510   -0.7847 N   0  0  0  0  0  0  0  0  0  0  0  0
   -0.6056   -1.1994   -0.7676 C   0  0  0  0  0  0  0  0  0  0  0  0
   -0.4536    0.1525   -1.1398 C   0  0  0  0  0  0  0  0  0  0  0  0
   -1.5390    1.0345   -1.1015 C   0  0  0  0  0  0  0  0  0  0  0  0
   -2.7477    0.5241   -0.6786 C   0  0  0  0  0  0  0  0  0  0  0  0
   -2.8922   -0.8134   -0.3006 C   0  0  0  0  0  0  0  0  0  0  0  0
   -1.8361   -1.6994   -0.3325 C   0  0  0  0  0  0  0  0  0  0  0  0
   -4.2249   -1.0089    0.0840 N   0  0  0  0  0  0  0  0  0  0  0  0
   -4.7763   -2.2407    0.5689 C   0  0  0  0  0  0  0  0  0  0  0  0
   -4.9276    0.2089   -0.0484 C   0  0  0  0  0  0  0  0  0  0  0  0
   -6.1051    0.4090    0.2037 O   0  0  0  0  0  0  0  0  0  0  0  0
   -3.9909    1.1498   -0.5306 N   0  0  0  0  0  0  0  0  0  0  0  0
   -4.2627    2.5312   -0.8012 C   0  0  0  0  0  0  0  0  0  0  0  0
    3.4884   -0.4866   -0.3820 C   0  0  0  0  0  0  0  0  0  0  0  0
    3.8849   -1.5369   -1.3814 C   0  0  0  0  0  0  0  0  0  0  0  0
    4.2175    0.7168   -0.3542 C   0  0  0  0  0  0  0  0  0  0  0  0
    5.0824    3.2550   -0.4204 H   0  0  0  0  0  0  0  0  0  0  0  0
    4.1362    3.8416    0.9467 H   0  0  0  0  0  0  0  0  0  0  0  0
    5.5978    2.8675    1.2404 H   0  0  0  0  0  0  0  0  0  0  0  0
    2.6535    2.3107    2.2180 H   0  0  0  0  0  0  0  0  0  0  0  0
    1.3638    0.2249    2.2158 H   0  0  0  0  0  0  0  0  0  0  0  0
    0.4270   -2.9762   -1.1997 H   0  0  0  0  0  0  0  0  0  0  0  0
    0.5152    0.5201   -1.4711 H   0  0  0  0  0  0  0  0  0  0  0  0
   -1.4225    2.0718   -1.3908 H   0  0  0  0  0  0  0  0  0  0  0  0
   -1.9500   -2.7284   -0.0164 H   0  0  0  0  0  0  0  0  0  0  0  0
   -5.8403   -2.1208    0.7904 H   0  0  0  0  0  0  0  0  0  0  0  0
   -4.6556   -3.0164   -0.1928 H   0  0  0  0  0  0  0  0  0  0  0  0
   -4.2535   -2.5351    1.4835 H   0  0  0  0  0  0  0  0  0  0  0  0
   -4.0368    2.7463   -1.8496 H   0  0  0  0  0  0  0  0  0  0  0  0
   -5.3152    2.7575   -0.6097 H   0  0  0  0  0  0  0  0  0  0  0  0
   -3.6410    3.1555   -0.1529 H   0  0  0  0  0  0  0  0  0  0  0  0
    4.4153   -2.3541   -0.8837 H   0  0  0  0  0  0  0  0  0  0  0  0
    4.5558   -1.1251   -2.1437 H   0  0  0  0  0  0  0  0  0  0  0  0
    3.0148   -1.9265   -1.9162 H   0  0  0  0  0  0  0  0  0  0  0  0
    5.0399    0.8627   -1.0543 H   0  0  0  0  0  0  0  0  0  0  0  0
  1  2  1  0
  2  3  2  0
  3  4  1  0
  4  5  2  0
  5  6  1  0
  6  7  2  0
  6  8  2  0
  6  9  1  0
  9 10  1  0
 10 11  2  0
 11 12  1  0
 12 13  2  0
 13 14  1  0
 14 15  2  0
 14 16  1  0
 16 17  1  0
 16 18  1  0
 18 19  2  0
 18 20  1  0
 20 21  1  0
  5 22  1  0
 22 23  1  0
 22 24  2  0
 24  2  1  0
 15 10  1  0
 20 13  1  0
  1 25  1  0
  1 26  1  0
  1 27  1  0
  3 28  1  0
  4 29  1  0
  9 30  1  0
 11 31  1  0
 12 32  1  0
 15 33  1  0
 17 34  1  0
 17 35  1  0
 17 36  1  0
 21 37  1  0
 21 38  1  0
 21 39  1  0
 23 40  1  0
 23 41  1  0
 23 42  1  0
 24 43  1  0
M  END
$$$$
