
     RDKit          3D

 42 45  0  0  0  0  0  0  0  0999 V2000
    8.1902    1.2229   -0.9209 C   0  0  0  0  0  0  0  0  0  0  0  0
    6.7556    1.2486   -0.4763 C   0  0  0  0  0  0  0  0  0  0  0  0
    6.2383    2.3779    0.1637 C   0  0  0  0  0  0  0  0  0  0  0  0
    4.9117    2.4067    0.6103 C   0  0  0  0  0  0  0  0  0  0  0  0
    4.0853    1.2813    0.4249 C   0  0  0  0  0  0  0  0  0  0  0  0
    2.7600    1.1700    0.8141 N   0  0  0  0  0  0  0  0  0  0  0  0
    2.3040   -0.0150    0.4868 C   0  0  0  0  0  0  0  0  0  0  0  0
    1.0079   -0.3625    0.7695 N   0  0  0  0  0  0  0  0  0  0  0  0
    0.3785   -1.5546    0.4827 C   0  0  0  0  0  0  0  0  0  0  0  0
    0.8679   -2.5357   -0.0636 O   0  0  0  0  0  0  0  0  0  0  0  0
   -1.0616   -1.5446    0.9765 C   0  0  0  0  0  0  0  0  0  0  0  0
   -1.8565   -2.7514    0.4727 C   0  0  0  0  0  0  0  0  0  0  0  0
   -3.2750   -2.8174    1.0439 C   0  0  0  0  0  0  0  0  0  0  0  0
   -4.1665   -1.7003    0.5848 C   0  0  0  0  0  0  0  0  0  0  0  0
   -3.9282   -0.9185   -0.4451 N   0  0  0  0  0  0  0  0  0  0  0  0
   -4.9558   -0.0021   -0.5958 C   0  0  0  0  0  0  0  0  0  0  0  0
   -5.0392    0.9895   -1.5942 C   0  0  0  0  0  0  0  0  0  0  0  0
   -6.1383    1.8540   -1.6265 C   0  0  0  0  0  0  0  0  0  0  0  0
   -7.1505    1.7419   -0.6783 C   0  0  0  0  0  0  0  0  0  0  0  0
   -7.0919    0.7658    0.3214 C   0  0  0  0  0  0  0  0  0  0  0  0
   -5.9837   -0.0974    0.3434 C   0  0  0  0  0  0  0  0  0  0  0  0
   -5.6289   -1.3837    1.4306 S   0  0  0  0  0  0  0  0  0  0  0  0
    3.4015   -1.0576   -0.2850 S   0  0  0  0  0  0  0  0  0  0  0  0
    4.6189    0.1549   -0.2018 C   0  0  0  0  0  0  0  0  0  0  0  0
    5.9487    0.1135   -0.6544 C   0  0  0  0  0  0  0  0  0  0  0  0
    8.3110    0.5970   -1.8116 H   0  0  0  0  0  0  0  0  0  0  0  0
    8.8224    0.8269   -0.1201 H   0  0  0  0  0  0  0  0  0  0  0  0
    8.5372    2.2284   -1.1818 H   0  0  0  0  0  0  0  0  0  0  0  0
    6.8643    3.2541    0.3215 H   0  0  0  0  0  0  0  0  0  0  0  0
    4.5134    3.2888    1.1016 H   0  0  0  0  0  0  0  0  0  0  0  0
    0.4914    0.3801    1.2194 H   0  0  0  0  0  0  0  0  0  0  0  0
   -1.5313   -0.6118    0.6463 H   0  0  0  0  0  0  0  0  0  0  0  0
   -1.0380   -1.5455    2.0728 H   0  0  0  0  0  0  0  0  0  0  0  0
   -1.3324   -3.6723    0.7587 H   0  0  0  0  0  0  0  0  0  0  0  0
   -1.8865   -2.7427   -0.6243 H   0  0  0  0  0  0  0  0  0  0  0  0
   -3.7303   -3.7666    0.7346 H   0  0  0  0  0  0  0  0  0  0  0  0
   -3.2201   -2.8295    2.1396 H   0  0  0  0  0  0  0  0  0  0  0  0
   -4.2479    1.0721   -2.3325 H   0  0  0  0  0  0  0  0  0  0  0  0
   -6.1991    2.6169   -2.3991 H   0  0  0  0  0  0  0  0  0  0  0  0
   -8.0003    2.4206   -0.7149 H   0  0  0  0  0  0  0  0  0  0  0  0
   -7.8831    0.6784    1.0597 H   0  0  0  0  0  0  0  0  0  0  0  0
    6.3371   -0.7811   -1.1336 H   0  0  0  0  0  0  0  0  0  0  0  0
  1  2  1  0
  2  3  2  0
  3  4  1  0
  4  5  2  0
  5  6  1  0
  6  7  2  0
  7  8  1  0
  8  9  1  0
  9 10  2  0
  9 11  1  0
 11 12  1  0
 12 13  1  0
 13 14  1  0
 14 15  2  0
 15 16  1  0
 16 17  2  0
 17 18  1  0
 18 19  2  0
 19 20  1  0
 20 21  2  0
 21 22  1  0
  7 23  1  0
 23 24  1  0
 24 25  2  0
 25  2  1  0
 24  5  1  0
 22 14  1  0
 21 16  1  0
  1 26  1  0
  1 27  1  0
  1 28  1  0
  3 29  1  0
  4 30  1  0
  8 31  1  0
 11 32  1  0
 11 33  1  0
 12 34  1  0
 12 35  1  0
 13 36  1  0
 13 37  1  0
 17 38  1  0
 18 39  1  0
 19 40  1  0
 20 41  1  0
 25 42  1  0
M  END
$$$$
