
     RDKit          3D

 45 48  0  0  0  0  0  0  0  0999 V2000
   -2.0017    1.4871   -1.3720 C   0  0  0  0  0  0  0  0  0  0  0  0
   -2.1496    0.6239   -0.0929 C   0  0  2  0  0  0  0  0  0  0  0  0
   -1.6280    1.4136    1.1140 C   0  0  0  0  0  0  0  0  0  0  0  0
   -0.0977    1.5849    1.0699 C   0  0  0  0  0  0  0  0  0  0  0  0
    0.6704    0.2506    0.8727 C   0  0  2  0  0  0  0  0  0  0  0  0
    2.1885    0.3866    0.7764 C   0  0  0  0  0  0  0  0  0  0  0  0
    2.8759    1.3832    1.4927 C   0  0  0  0  0  0  0  0  0  0  0  0
    4.2676    1.4840    1.4400 C   0  0  0  0  0  0  0  0  0  0  0  0
    4.9932    0.5812    0.6818 C   0  0  0  0  0  0  0  0  0  0  0  0
    6.3492    0.7160    0.6539 O   0  0  0  0  0  0  0  0  0  0  0  0
    4.3483   -0.4293   -0.0201 C   0  0  0  0  0  0  0  0  0  0  0  0
    2.9468   -0.5456    0.0326 C   0  0  0  0  0  0  0  0  0  0  0  0
    2.3031   -1.6527   -0.7678 C   0  0  0  0  0  0  0  0  0  0  0  0
    0.8350   -1.8933   -0.4290 C   0  0  0  0  0  0  0  0  0  0  0  0
    0.0980   -0.5560   -0.3320 C   0  0  1  0  0  0  0  0  0  0  0  0
   -1.4089   -0.7285   -0.1364 C   0  0  2  0  0  0  0  0  0  0  0  0
   -2.2046   -1.5388   -1.1592 C   0  0  0  0  0  0  0  0  0  0  0  0
   -3.6627   -1.1008   -0.9156 C   0  0  1  0  0  0  0  0  0  0  0  0
   -4.3853   -2.1646   -0.2974 O   0  0  0  0  0  0  0  0  0  0  0  0
   -3.5980    0.1154    0.0472 C   0  0  2  0  0  0  0  0  0  0  0  0
   -4.5621    1.1004   -0.2987 O   0  0  0  0  0  0  0  0  0  0  0  0
   -2.4044    0.9904   -2.2603 H   0  0  0  0  0  0  0  0  0  0  0  0
   -2.5421    2.4347   -1.2621 H   0  0  0  0  0  0  0  0  0  0  0  0
   -0.9621    1.7424   -1.5928 H   0  0  0  0  0  0  0  0  0  0  0  0
   -1.8902    0.8914    2.0436 H   0  0  0  0  0  0  0  0  0  0  0  0
   -2.1071    2.3984    1.1697 H   0  0  0  0  0  0  0  0  0  0  0  0
    0.1982    2.0562    2.0142 H   0  0  0  0  0  0  0  0  0  0  0  0
    0.1770    2.2916    0.2775 H   0  0  0  0  0  0  0  0  0  0  0  0
    0.4958   -0.3433    1.7834 H   0  0  0  0  0  0  0  0  0  0  0  0
    2.3451    2.0989    2.1137 H   0  0  0  0  0  0  0  0  0  0  0  0
    4.7805    2.2644    1.9947 H   0  0  0  0  0  0  0  0  0  0  0  0
    6.7165    0.0175    0.0884 H   0  0  0  0  0  0  0  0  0  0  0  0
    4.9206   -1.1376   -0.6124 H   0  0  0  0  0  0  0  0  0  0  0  0
    2.3856   -1.3897   -1.8303 H   0  0  0  0  0  0  0  0  0  0  0  0
    2.8548   -2.5885   -0.6172 H   0  0  0  0  0  0  0  0  0  0  0  0
    0.7549   -2.4370    0.5212 H   0  0  0  0  0  0  0  0  0  0  0  0
    0.3959   -2.5345   -1.2012 H   0  0  0  0  0  0  0  0  0  0  0  0
    0.2861   -0.0084   -1.2644 H   0  0  0  0  0  0  0  0  0  0  0  0
   -1.5497   -1.2374    0.8320 H   0  0  0  0  0  0  0  0  0  0  0  0
   -2.0610   -2.6157   -1.0244 H   0  0  0  0  0  0  0  0  0  0  0  0
   -1.8957   -1.2794   -2.1779 H   0  0  0  0  0  0  0  0  0  0  0  0
   -4.1695   -0.8515   -1.8543 H   0  0  0  0  0  0  0  0  0  0  0  0
   -4.5403   -2.8379   -0.9818 H   0  0  0  0  0  0  0  0  0  0  0  0
   -3.8131   -0.2108    1.0729 H   0  0  0  0  0  0  0  0  0  0  0  0
   -4.5531    1.7686    0.4076 H   0  0  0  0  0  0  0  0  0  0  0  0
  2  1  1  6
  2  3  1  0
  3  4  1  0
  4  5  1  0
  5  6  1  0
  6  7  2  0
  7  8  1  0
  8  9  2  0
  9 10  1  0
  9 11  1  0
 11 12  2  0
 12 13  1  0
 13 14  1  0
 14 15  1  0
 15 16  1  0
 16 17  1  0
 17 18  1  0
 18 19  1  0
 18 20  1  0
 20 21  1  0
 16  2  1  0
 20  2  1  0
 15  5  1  0
 12  6  1  0
  1 22  1  0
  1 23  1  0
  1 24  1  0
  3 25  1  0
  3 26  1  0
  4 27  1  0
  4 28  1  0
  5 29  1  1
  7 30  1  0
  8 31  1  0
 10 32  1  0
 11 33  1  0
 13 34  1  0
 13 35  1  0
 14 36  1  0
 14 37  1  0
 15 38  1  6
 16 39  1  1
 17 40  1  0
 17 41  1  0
 18 42  1  6
 19 43  1  0
 20 44  1  1
 21 45  1  0
M  END
$$$$
