
     RDKit          3D

 58 60  0  0  0  0  0  0  0  0999 V2000
   -2.7287   -4.7940    2.6259 C   0  0  0  0  0  0  0  0  0  0  0  0
   -1.4408   -4.2251    2.1657 C   0  0  0  0  0  0  0  0  0  0  0  0
   -0.3198   -4.9051    2.4502 N   0  0  0  0  0  0  0  0  0  0  0  0
    0.7176   -4.1712    1.9202 O   0  0  0  0  0  0  0  0  0  0  0  0
    0.2269   -3.0612    1.3104 C   0  0  0  0  0  0  0  0  0  0  0  0
    1.2206   -2.2128    0.6740 C   0  0  0  0  0  0  0  0  0  0  0  0
    1.0591   -1.7970   -0.6524 C   0  0  0  0  0  0  0  0  0  0  0  0
    2.0127   -0.9698   -1.2576 C   0  0  0  0  0  0  0  0  0  0  0  0
    3.1492   -0.5349   -0.5570 C   0  0  0  0  0  0  0  0  0  0  0  0
    4.1535    0.3328   -1.1982 C   0  0  0  0  0  0  0  0  0  0  0  0
    5.5244    0.0335   -1.1273 C   0  0  0  0  0  0  0  0  0  0  0  0
    6.4795    0.8580   -1.7332 C   0  0  0  0  0  0  0  0  0  0  0  0
    6.0893    2.0035   -2.4330 C   0  0  0  0  0  0  0  0  0  0  0  0
    7.1137    2.8815   -3.1103 C   0  0  0  0  0  0  0  0  0  0  0  0
    7.1795    4.2885   -2.5104 C   0  0  0  0  0  0  0  0  0  0  0  0
    8.0392    4.4514   -1.5975 O   0  0  0  0  0  0  0  0  0  0  0  0
    6.3934    5.1346   -3.0283 O   0  0  0  0  0  1  0  0  0  0  0  0
    4.7269    2.3104   -2.5096 C   0  0  0  0  0  0  0  0  0  0  0  0
    3.7742    1.4892   -1.8979 C   0  0  0  0  0  0  0  0  0  0  0  0
    3.2999   -0.9600    0.7725 C   0  0  0  0  0  0  0  0  0  0  0  0
    2.3520   -1.7917    1.3797 C   0  0  0  0  0  0  0  0  0  0  0  0
   -1.1484   -3.0270    1.4493 C   0  0  0  0  0  0  0  0  0  0  0  0
   -1.9235   -1.9852    0.9639 N   0  0  0  0  0  0  0  0  0  0  0  0
   -3.2707   -1.8234    1.0574 C   0  0  0  0  0  0  0  0  0  0  0  0
   -4.0856   -2.5816    1.5554 O   0  0  0  0  0  0  0  0  0  0  0  0
   -3.5882   -0.6328    0.4883 O   0  0  0  0  0  0  0  0  0  0  0  0
   -4.9795   -0.2526    0.5339 C   0  0  2  0  0  0  0  0  0  0  0  0
   -5.6792   -0.8683   -0.6766 C   0  0  0  0  0  0  0  0  0  0  0  0
   -5.0138    1.2663    0.6133 C   0  0  0  0  0  0  0  0  0  0  0  0
   -5.6935    2.0767   -0.3097 C   0  0  0  0  0  0  0  0  0  0  0  0
   -5.6765    3.4702   -0.1900 C   0  0  0  0  0  0  0  0  0  0  0  0
   -4.9817    4.0776    0.8523 C   0  0  0  0  0  0  0  0  0  0  0  0
   -4.3140    3.2919    1.7873 C   0  0  0  0  0  0  0  0  0  0  0  0
   -4.3339    1.9002    1.6718 C   0  0  0  0  0  0  0  0  0  0  0  0
    0.0000    0.0000    0.0000 Na  0  0  0  0  0 15  0  0  0  0  0  0
   -3.3973   -4.9798    1.7800 H   0  0  0  0  0  0  0  0  0  0  0  0
   -2.5814   -5.7543    3.1318 H   0  0  0  0  0  0  0  0  0  0  0  0
   -3.2130   -4.1262    3.3454 H   0  0  0  0  0  0  0  0  0  0  0  0
    0.2068   -2.1292   -1.2400 H   0  0  0  0  0  0  0  0  0  0  0  0
    1.8744   -0.6772   -2.2973 H   0  0  0  0  0  0  0  0  0  0  0  0
    5.8667   -0.8536   -0.6001 H   0  0  0  0  0  0  0  0  0  0  0  0
    7.5353    0.6074   -1.6517 H   0  0  0  0  0  0  0  0  0  0  0  0
    8.1094    2.4248   -3.0464 H   0  0  0  0  0  0  0  0  0  0  0  0
    6.8802    2.9436   -4.1801 H   0  0  0  0  0  0  0  0  0  0  0  0
    4.4095    3.2121   -3.0332 H   0  0  0  0  0  0  0  0  0  0  0  0
    2.7292    1.7803   -1.9605 H   0  0  0  0  0  0  0  0  0  0  0  0
    4.1601   -0.6314    1.3535 H   0  0  0  0  0  0  0  0  0  0  0  0
    2.5035   -2.0977    2.4131 H   0  0  0  0  0  0  0  0  0  0  0  0
   -1.4415   -1.2120    0.5221 H   0  0  0  0  0  0  0  0  0  0  0  0
   -5.4583   -0.6287    1.4484 H   0  0  0  0  0  0  0  0  0  0  0  0
   -5.5822   -1.9588   -0.6736 H   0  0  0  0  0  0  0  0  0  0  0  0
   -6.7476   -0.6240   -0.6890 H   0  0  0  0  0  0  0  0  0  0  0  0
   -5.2270   -0.5252   -1.6113 H   0  0  0  0  0  0  0  0  0  0  0  0
   -6.2413    1.6476   -1.1435 H   0  0  0  0  0  0  0  0  0  0  0  0
   -6.1965    4.0833   -0.9224 H   0  0  0  0  0  0  0  0  0  0  0  0
   -4.9591    5.1609    0.9329 H   0  0  0  0  0  0  0  0  0  0  0  0
   -3.7648    3.7608    2.6004 H   0  0  0  0  0  0  0  0  0  0  0  0
   -3.7989    1.3048    2.4107 H   0  0  0  0  0  0  0  0  0  0  0  0
  1  2  1  0
  2  3  2  0
  3  4  1  0
  4  5  1  0
  5  6  1  0
  6  7  2  0
  7  8  1  0
  8  9  2  0
  9 10  1  0
 10 11  2  0
 11 12  1  0
 12 13  2  0
 13 14  1  0
 14 15  1  0
 15 16  2  0
 15 17  1  0
 13 18  1  0
 18 19  2  0
  9 20  1  0
 20 21  2  0
  5 22  2  0
 22 23  1  0
 23 24  1  0
 24 25  2  0
 24 26  1  0
 26 27  1  0
 27 28  1  0
 27 29  1  0
 29 30  2  0
 30 31  1  0
 31 32  2  0
 32 33  1  0
 33 34  2  0
 22  2  1  0
 34 29  1  0
 21  6  1  0
 19 10  1  0
  1 36  1  0
  1 37  1  0
  1 38  1  0
  7 39  1  0
  8 40  1  0
 11 41  1  0
 12 42  1  0
 14 43  1  0
 14 44  1  0
 18 45  1  0
 19 46  1  0
 20 47  1  0
 21 48  1  0
 23 49  1  0
 27 50  1  1
 28 51  1  0
 28 52  1  0
 28 53  1  0
 30 54  1  0
 31 55  1  0
 32 56  1  0
 33 57  1  0
 34 58  1  0
M  CHG  2  17  -1  35   1
M  END
$$$$
