
     RDKit          3D

 37 39  0  0  0  0  0  0  0  0999 V2000
    6.5889    1.1563    1.0930 C   0  0  0  0  0  0  0  0  0  0  0  0
    5.8823    1.1672   -0.2373 C   0  0  0  0  0  0  0  0  0  0  0  0
    6.3934    1.6949   -1.2229 O   0  0  0  0  0  0  0  0  0  0  0  0
    4.5404    0.5211   -0.3485 C   0  0  0  0  0  0  0  0  0  0  0  0
    3.8734    0.5687   -1.5779 C   0  0  0  0  0  0  0  0  0  0  0  0
    2.6125   -0.0219   -1.7318 C   0  0  0  0  0  0  0  0  0  0  0  0
    1.9997   -0.6687   -0.6591 C   0  0  0  0  0  0  0  0  0  0  0  0
    0.7373   -1.2927   -0.7263 N   0  0  0  0  0  0  0  0  0  0  0  0
   -0.1536   -1.2874   -1.7898 C   0  0  0  0  0  0  0  0  0  0  0  0
    0.0116   -0.7242   -2.8690 O   0  0  0  0  0  0  0  0  0  0  0  0
   -1.4011   -2.1147   -1.5512 C   0  0  0  0  0  0  0  0  0  0  0  0
   -2.1195   -1.5853   -0.3792 C   0  0  0  0  0  0  0  0  0  0  0  0
   -1.8359   -1.7432    0.8955 N   0  0  0  0  0  0  0  0  0  0  0  0
   -2.7940   -1.0372    1.5912 N   0  0  0  0  0  0  0  0  0  0  0  0
   -3.6021   -0.4977    0.6965 C   0  0  0  0  0  0  0  0  0  0  0  0
   -4.7784    0.3434    0.8596 C   0  0  0  0  0  0  0  0  0  0  0  0
   -5.4958    0.8498   -0.2191 C   0  0  0  0  0  0  0  0  0  0  0  0
   -6.5963    1.6330   -0.0751 N   0  0  0  0  0  0  0  0  0  0  0  0
   -6.9542    1.8961    1.2012 C   0  0  0  0  0  0  0  0  0  0  0  0
   -6.2482    1.3993    2.2826 C   0  0  0  0  0  0  0  0  0  0  0  0
   -5.1531    0.6171    2.1384 N   0  0  0  0  0  0  0  0  0  0  0  0
   -3.2282   -0.8132   -0.5912 O   0  0  0  0  0  0  0  0  0  0  0  0
    2.6706   -0.7196    0.5698 C   0  0  0  0  0  0  0  0  0  0  0  0
    3.9309   -0.1290    0.7281 C   0  0  0  0  0  0  0  0  0  0  0  0
    7.5353    1.6986    1.0015 H   0  0  0  0  0  0  0  0  0  0  0  0
    6.8133    0.1297    1.3937 H   0  0  0  0  0  0  0  0  0  0  0  0
    5.9829    1.6620    1.8492 H   0  0  0  0  0  0  0  0  0  0  0  0
    4.3298    1.0680   -2.4316 H   0  0  0  0  0  0  0  0  0  0  0  0
    2.1433    0.0416   -2.7088 H   0  0  0  0  0  0  0  0  0  0  0  0
    0.4149   -1.7209    0.1384 H   0  0  0  0  0  0  0  0  0  0  0  0
   -1.1091   -3.1578   -1.3911 H   0  0  0  0  0  0  0  0  0  0  0  0
   -2.0323   -2.0779   -2.4454 H   0  0  0  0  0  0  0  0  0  0  0  0
   -5.2129    0.6458   -1.2466 H   0  0  0  0  0  0  0  0  0  0  0  0
   -7.8300    2.5216    1.3328 H   0  0  0  0  0  0  0  0  0  0  0  0
   -6.5450    1.6176    3.3025 H   0  0  0  0  0  0  0  0  0  0  0  0
    2.2199   -1.2153    1.4272 H   0  0  0  0  0  0  0  0  0  0  0  0
    4.4094   -0.1931    1.7008 H   0  0  0  0  0  0  0  0  0  0  0  0
  1  2  1  0
  2  3  2  0
  2  4  1  0
  4  5  2  0
  5  6  1  0
  6  7  2  0
  7  8  1  0
  8  9  1  0
  9 10  2  0
  9 11  1  0
 11 12  1  0
 12 13  2  0
 13 14  1  0
 14 15  2  0
 15 16  1  0
 16 17  2  0
 17 18  1  0
 18 19  2  0
 19 20  1  0
 20 21  2  0
 15 22  1  0
  7 23  1  0
 23 24  2  0
 24  4  1  0
 22 12  1  0
 21 16  1  0
  1 25  1  0
  1 26  1  0
  1 27  1  0
  5 28  1  0
  6 29  1  0
  8 30  1  0
 11 31  1  0
 11 32  1  0
 17 33  1  0
 19 34  1  0
 20 35  1  0
 23 36  1  0
 24 37  1  0
M  END
$$$$
