
     RDKit          3D

 74 75  0  0  0  0  0  0  0  0999 V2000
    1.9701   -4.4666    0.9746 C   0  0  0  0  0  0  0  0  0  0  0  0
    1.3646   -3.0794    0.7733 C   0  0  0  0  0  0  0  0  0  0  0  0
    1.4512   -2.5000   -0.5800 N   0  0  0  0  0  0  0  0  0  0  0  0
    2.8269   -2.2824   -1.0481 C   0  0  0  0  0  0  0  0  0  0  0  0
    3.5707   -1.2481   -0.2526 C   0  0  0  0  0  0  0  0  0  0  0  0
    3.9561   -0.0607   -0.7424 C   0  0  0  0  0  0  0  0  0  0  0  0
    4.6900    0.8633    0.0471 C   0  0  0  0  0  0  0  0  0  0  0  0
    5.3149    1.6481    0.7074 C   0  0  0  0  0  0  0  0  0  0  0  0
    6.0871    2.6157    1.5184 C   0  0  0  0  0  0  0  0  0  0  0  0
    5.1752    3.7802    1.9288 C   0  0  0  0  0  0  0  0  0  0  0  0
    6.6241    1.9151    2.7745 C   0  0  0  0  0  0  0  0  0  0  0  0
    7.2617    3.1526    0.6881 C   0  0  0  0  0  0  0  0  0  0  0  0
    0.7035   -3.2752   -1.5889 C   0  0  0  0  0  0  0  0  0  0  0  0
   -0.7907   -3.3501   -1.3446 C   0  0  0  0  0  0  0  0  0  0  0  0
   -1.4588   -4.5800   -1.4341 C   0  0  0  0  0  0  0  0  0  0  0  0
   -2.8406   -4.6449   -1.2632 C   0  0  0  0  0  0  0  0  0  0  0  0
   -3.5635   -3.4822   -0.9982 C   0  0  0  0  0  0  0  0  0  0  0  0
   -2.9155   -2.2501   -0.8941 C   0  0  0  0  0  0  0  0  0  0  0  0
   -3.7389   -1.1912   -0.6297 O   0  0  0  0  0  0  0  0  0  0  0  0
   -3.1117    0.0093   -0.1812 C   0  0  0  0  0  0  0  0  0  0  0  0
   -4.2250    0.9319    0.2153 C   0  0  0  0  0  0  0  0  0  0  0  0
   -5.0048    1.7298   -0.6016 C   0  0  0  0  0  0  0  0  0  0  0  0
   -5.9912    2.4637    0.1252 C   0  0  0  0  0  0  0  0  0  0  0  0
   -6.9524    3.3806   -0.5097 C   0  0  0  0  0  0  0  0  0  0  0  0
   -6.7010    4.0510   -1.7461 C   0  0  0  0  0  0  0  0  0  0  0  0
   -7.7493    4.8635   -2.1225 C   0  0  0  0  0  0  0  0  0  0  0  0
   -9.0327    4.8219   -0.9938 S   0  0  0  0  0  0  0  0  0  0  0  0
   -8.1905    3.7127    0.0022 C   0  0  0  0  0  0  0  0  0  0  0  0
   -5.9257    2.1935    1.4756 C   0  0  0  0  0  0  0  0  0  0  0  0
   -4.6838    1.0813    1.8574 S   0  0  0  0  0  0  0  0  0  0  0  0
   -1.5344   -2.1845   -1.0830 C   0  0  0  0  0  0  0  0  0  0  0  0
   -2.5648   -0.3044    0.9965 O   0  0  0  0  0  0  0  0  0  0  0  0
   -1.6411   -0.1920    0.2129 C   0  0  0  0  0  0  0  0  0  0  0  0
   -1.5856    0.7799   -0.7088 O   0  0  0  0  0  0  0  0  0  0  0  0
   -0.5480   -1.1549    0.0605 C   0  0  0  0  0  0  0  0  0  0  0  0
    0.7502   -0.8350   -0.0227 C   0  0  0  0  0  0  0  0  0  0  0  0
    1.2768    0.5287    0.1249 C   0  0  0  0  0  0  0  0  0  0  0  0
    0.7656    1.4751    0.6890 O   0  0  0  0  0  0  0  0  0  0  0  0
    2.4944    0.6033   -0.4385 O   0  0  0  0  0  0  0  0  0  0  0  0
    1.4761   -5.2200    0.3535 H   0  0  0  0  0  0  0  0  0  0  0  0
    1.8448   -4.7713    2.0187 H   0  0  0  0  0  0  0  0  0  0  0  0
    3.0420   -4.4814    0.7569 H   0  0  0  0  0  0  0  0  0  0  0  0
    1.8284   -2.3922    1.4911 H   0  0  0  0  0  0  0  0  0  0  0  0
    0.3150   -3.1150    1.0904 H   0  0  0  0  0  0  0  0  0  0  0  0
    2.8021   -1.9477   -2.0933 H   0  0  0  0  0  0  0  0  0  0  0  0
    3.4031   -3.2139   -1.0515 H   0  0  0  0  0  0  0  0  0  0  0  0
    3.8348   -1.5129    0.7680 H   0  0  0  0  0  0  0  0  0  0  0  0
    3.7121    0.2304   -1.7602 H   0  0  0  0  0  0  0  0  0  0  0  0
    4.7788    4.3057    1.0513 H   0  0  0  0  0  0  0  0  0  0  0  0
    5.7164    4.5119    2.5393 H   0  0  0  0  0  0  0  0  0  0  0  0
    4.3170    3.4276    2.5129 H   0  0  0  0  0  0  0  0  0  0  0  0
    5.8065    1.5308    3.3966 H   0  0  0  0  0  0  0  0  0  0  0  0
    7.2638    1.0629    2.5124 H   0  0  0  0  0  0  0  0  0  0  0  0
    7.2185    2.6018    3.3885 H   0  0  0  0  0  0  0  0  0  0  0  0
    7.8615    3.8656    1.2657 H   0  0  0  0  0  0  0  0  0  0  0  0
    6.9092    3.6676   -0.2135 H   0  0  0  0  0  0  0  0  0  0  0  0
    7.9259    2.3424    0.3625 H   0  0  0  0  0  0  0  0  0  0  0  0
    1.1265   -4.2826   -1.6935 H   0  0  0  0  0  0  0  0  0  0  0  0
    0.8124   -2.7979   -2.5730 H   0  0  0  0  0  0  0  0  0  0  0  0
   -0.9077   -5.4934   -1.6464 H   0  0  0  0  0  0  0  0  0  0  0  0
   -3.3566   -5.5976   -1.3403 H   0  0  0  0  0  0  0  0  0  0  0  0
   -4.6413   -3.5344   -0.8683 H   0  0  0  0  0  0  0  0  0  0  0  0
   -2.5410    0.4665   -0.9986 H   0  0  0  0  0  0  0  0  0  0  0  0
   -2.4461   -0.1896    0.6684 H   0  0  0  0  0  0  0  0  0  0  0  0
   -4.8735    1.7592   -1.6768 H   0  0  0  0  0  0  0  0  0  0  0  0
   -5.7956    3.9610   -2.3338 H   0  0  0  0  0  0  0  0  0  0  0  0
   -7.8203    5.4868   -3.0042 H   0  0  0  0  0  0  0  0  0  0  0  0
   -8.6575    3.3549    0.9102 H   0  0  0  0  0  0  0  0  0  0  0  0
   -6.5412    2.5964    2.2686 H   0  0  0  0  0  0  0  0  0  0  0  0
   -0.9996   -1.2400   -1.0354 H   0  0  0  0  0  0  0  0  0  0  0  0
   -2.3383    1.3650   -0.4849 H   0  0  0  0  0  0  0  0  0  0  0  0
   -0.8631   -2.1905    0.0343 H   0  0  0  0  0  0  0  0  0  0  0  0
    1.4924   -1.6109   -0.1691 H   0  0  0  0  0  0  0  0  0  0  0  0
    2.7616    1.5357   -0.2942 H   0  0  0  0  0  0  0  0  0  0  0  0
  1  2  1  0
  2  3  1  0
  3  4  1  0
  4  5  1  0
  5  6  2  0
  6  7  1  0
  7  8  3  0
  8  9  1  0
  9 10  1  0
  9 11  1  0
  9 12  1  0
  3 13  1  0
 13 14  1  0
 14 15  2  0
 15 16  1  0
 16 17  2  0
 17 18  1  0
 18 19  1  0
 19 20  1  0
 20 21  1  0
 21 22  2  0
 22 23  1  0
 23 24  1  0
 24 25  1  0
 25 26  2  0
 26 27  1  0
 27 28  1  0
 23 29  2  0
 29 30  1  0
 18 31  2  0
 32 33  2  0
 33 34  1  0
 33 35  1  0
 35 36  2  0
 36 37  1  0
 37 38  2  0
 37 39  1  0
 31 14  1  0
 30 21  1  0
 28 24  2  0
  1 40  1  0
  1 41  1  0
  1 42  1  0
  2 43  1  0
  2 44  1  0
  4 45  1  0
  4 46  1  0
  5 47  1  0
  6 48  1  0
 10 49  1  0
 10 50  1  0
 10 51  1  0
 11 52  1  0
 11 53  1  0
 11 54  1  0
 12 55  1  0
 12 56  1  0
 12 57  1  0
 13 58  1  0
 13 59  1  0
 15 60  1  0
 16 61  1  0
 17 62  1  0
 20 63  1  0
 20 64  1  0
 22 65  1  0
 25 66  1  0
 26 67  1  0
 28 68  1  0
 29 69  1  0
 31 70  1  0
 34 71  1  0
 35 72  1  0
 36 73  1  0
 39 74  1  0
M  END
$$$$
