
     RDKit          3D

 63 67  0  0  0  0  0  0  0  0999 V2000
   -5.3461   -2.1935    2.9546 C   0  0  0  0  0  0  0  0  0  0  0  0
   -4.2009   -1.3680    2.6307 N   0  0  0  0  0  0  0  0  0  0  0  0
   -2.9021   -1.6809    2.9393 C   0  0  0  0  0  0  0  0  0  0  0  0
   -2.1098   -0.6396    2.5053 C   0  0  0  0  0  0  0  0  0  0  0  0
   -0.3932   -0.4788    2.6320 S   0  0  0  0  0  6  0  0  0  0  0  0
   -0.2231    0.6056    3.5743 O   0  0  0  0  0  0  0  0  0  0  0  0
    0.0944   -1.8137    2.8992 O   0  0  0  0  0  0  0  0  0  0  0  0
    0.1669    0.0171    1.1097 N   0  0  0  0  0  0  0  0  0  0  0  0
    0.0141   -0.9263   -0.0202 C   0  0  0  0  0  0  0  0  0  0  0  0
    1.2117   -1.8675   -0.1322 C   0  0  0  0  0  0  0  0  0  0  0  0
    2.5694   -1.1369   -0.1360 C   0  0  0  0  0  0  0  0  0  0  0  0
    2.8429   -0.4642   -1.4817 C   0  0  0  0  0  0  0  0  0  0  0  0
    1.9330   -0.3940   -2.3169 O   0  0  0  0  0  0  0  0  0  0  0  0
    4.0706    0.0896   -1.7695 N   0  0  0  0  0  0  0  0  0  0  0  0
    4.2313    0.8092   -3.0455 C   0  0  0  0  0  0  0  0  0  0  0  0
    5.6056    1.4741   -3.0392 C   0  0  0  0  0  0  0  0  0  0  0  0
    6.2529    0.7941   -1.8752 C   0  0  0  0  0  0  0  0  0  0  0  0
    7.5854    0.9125   -1.4980 C   0  0  0  0  0  0  0  0  0  0  0  0
    8.0217    0.2090   -0.3792 C   0  0  0  0  0  0  0  0  0  0  0  0
    7.1290   -0.5959    0.3342 C   0  0  0  0  0  0  0  0  0  0  0  0
    5.7839   -0.6981   -0.0526 C   0  0  0  0  0  0  0  0  0  0  0  0
    5.3392    0.0117   -1.1555 C   0  0  0  0  0  0  0  0  0  0  0  0
    2.6290   -0.1442    1.0326 C   0  0  0  0  0  0  0  0  0  0  0  0
    1.4241    0.7840    1.0633 C   0  0  0  0  0  0  0  0  0  0  0  0
   -2.9577    0.3108    1.8890 C   0  0  0  0  0  0  0  0  0  0  0  0
   -4.2536   -0.1830    1.9207 C   0  0  0  0  0  0  0  0  0  0  0  0
   -5.4712    0.4191    1.4113 C   0  0  0  0  0  0  0  0  0  0  0  0
   -6.4731    0.5342    2.1165 O   0  0  0  0  0  0  0  0  0  0  0  0
   -5.4653    0.8436    0.0932 N   0  0  0  0  0  0  0  0  0  0  0  0
   -4.4890    0.5077   -0.9348 C   0  0  0  0  0  0  0  0  0  0  0  0
   -4.9601    1.2616   -2.1672 C   0  0  0  0  0  0  0  0  0  0  0  0
   -6.4730    1.2766   -1.9995 C   0  0  0  0  0  0  0  0  0  0  0  0
   -6.6582    1.4313   -0.4962 C   0  0  0  0  0  0  0  0  0  0  0  0
   -5.0048   -3.1336    3.3930 H   0  0  0  0  0  0  0  0  0  0  0  0
   -5.8975   -2.3972    2.0319 H   0  0  0  0  0  0  0  0  0  0  0  0
   -5.9654   -1.6579    3.6783 H   0  0  0  0  0  0  0  0  0  0  0  0
   -2.6389   -2.5991    3.4514 H   0  0  0  0  0  0  0  0  0  0  0  0
   -0.9104   -1.5071    0.0803 H   0  0  0  0  0  0  0  0  0  0  0  0
   -0.1136   -0.3368   -0.9362 H   0  0  0  0  0  0  0  0  0  0  0  0
    1.2074   -2.5670    0.7123 H   0  0  0  0  0  0  0  0  0  0  0  0
    1.1006   -2.4833   -1.0325 H   0  0  0  0  0  0  0  0  0  0  0  0
    3.3200   -1.9210   -0.0151 H   0  0  0  0  0  0  0  0  0  0  0  0
    4.1637    0.0686   -3.8515 H   0  0  0  0  0  0  0  0  0  0  0  0
    3.4205    1.5326   -3.1831 H   0  0  0  0  0  0  0  0  0  0  0  0
    6.1387    1.2861   -3.9784 H   0  0  0  0  0  0  0  0  0  0  0  0
    5.5283    2.5523   -2.8586 H   0  0  0  0  0  0  0  0  0  0  0  0
    8.2756    1.5353   -2.0603 H   0  0  0  0  0  0  0  0  0  0  0  0
    9.0597    0.2805   -0.0635 H   0  0  0  0  0  0  0  0  0  0  0  0
    7.4795   -1.1506    1.2010 H   0  0  0  0  0  0  0  0  0  0  0  0
    5.1550   -1.3475    0.5361 H   0  0  0  0  0  0  0  0  0  0  0  0
    3.5293    0.4748    0.9921 H   0  0  0  0  0  0  0  0  0  0  0  0
    2.6777   -0.7051    1.9740 H   0  0  0  0  0  0  0  0  0  0  0  0
    1.4956    1.4684    1.9149 H   0  0  0  0  0  0  0  0  0  0  0  0
    1.4096    1.4208    0.1720 H   0  0  0  0  0  0  0  0  0  0  0  0
   -2.6528    1.2615    1.4666 H   0  0  0  0  0  0  0  0  0  0  0  0
   -4.5198   -0.5772   -1.0898 H   0  0  0  0  0  0  0  0  0  0  0  0
   -3.4791    0.8014   -0.6477 H   0  0  0  0  0  0  0  0  0  0  0  0
   -4.6376    0.7893   -3.1003 H   0  0  0  0  0  0  0  0  0  0  0  0
   -4.5760    2.2891   -2.1511 H   0  0  0  0  0  0  0  0  0  0  0  0
   -6.9517    2.0754   -2.5661 H   0  0  0  0  0  0  0  0  0  0  0  0
   -6.8909    0.3212   -2.3366 H   0  0  0  0  0  0  0  0  0  0  0  0
   -6.6828    2.4882   -0.2049 H   0  0  0  0  0  0  0  0  0  0  0  0
   -7.5683    0.9386   -0.1348 H   0  0  0  0  0  0  0  0  0  0  0  0
  1  2  1  0
  2  3  1  0
  3  4  2  0
  4  5  1  0
  5  6  2  0
  5  7  2  0
  5  8  1  0
  8  9  1  0
  9 10  1  0
 10 11  1  0
 11 12  1  0
 12 13  2  0
 12 14  1  0
 14 15  1  0
 15 16  1  0
 16 17  1  0
 17 18  2  0
 18 19  1  0
 19 20  2  0
 20 21  1  0
 21 22  2  0
 11 23  1  0
 23 24  1  0
  4 25  1  0
 25 26  2  0
 26 27  1  0
 27 28  2  0
 27 29  1  0
 29 30  1  0
 30 31  1  0
 31 32  1  0
 32 33  1  0
 26  2  1  0
 33 29  1  0
 24  8  1  0
 22 14  1  0
 22 17  1  0
  1 34  1  0
  1 35  1  0
  1 36  1  0
  3 37  1  0
  9 38  1  0
  9 39  1  0
 10 40  1  0
 10 41  1  0
 11 42  1  0
 15 43  1  0
 15 44  1  0
 16 45  1  0
 16 46  1  0
 18 47  1  0
 19 48  1  0
 20 49  1  0
 21 50  1  0
 23 51  1  0
 23 52  1  0
 24 53  1  0
 24 54  1  0
 25 55  1  0
 30 56  1  0
 30 57  1  0
 31 58  1  0
 31 59  1  0
 32 60  1  0
 32 61  1  0
 33 62  1  0
 33 63  1  0
M  END
$$$$
