
     RDKit          3D

 76 79  0  0  0  0  0  0  0  0999 V2000
   -4.9301   -4.3896    2.7163 C   0  0  0  0  0  0  0  0  0  0  0  0
   -3.5766   -4.1271    3.3601 C   0  0  0  0  0  0  0  0  0  0  0  0
   -2.9306   -2.8158    2.9075 C   0  0  0  0  0  0  0  0  0  0  0  0
   -2.4928   -2.8336    1.4395 C   0  0  0  0  0  0  0  0  0  0  0  0
   -1.8818   -1.5271    1.0350 C   0  0  0  0  0  0  0  0  0  0  0  0
   -0.6510   -1.1934    1.3828 N   0  0  0  0  0  0  0  0  0  0  0  0
   -0.3454   -0.0493    0.6987 C   0  0  0  0  0  0  0  0  0  0  0  0
    0.9405    0.6249    0.8078 C   0  0  0  0  0  0  0  0  0  0  0  0
    1.2345    1.7974    0.1031 C   0  0  0  0  0  0  0  0  0  0  0  0
    2.4864    2.4100    0.2338 C   0  0  0  0  0  0  0  0  0  0  0  0
    3.4681    1.8687    1.0660 C   0  0  0  0  0  0  0  0  0  0  0  0
    4.6386    2.5715    1.0880 O   0  0  0  0  0  0  0  0  0  0  0  0
    5.7244    2.0882    1.8784 C   0  0  0  0  0  0  0  0  0  0  0  0
    6.5408    1.0238    1.1447 C   0  0  0  0  0  0  0  0  0  0  0  0
    7.0654    1.5389   -0.2048 C   0  0  0  0  0  0  0  0  0  0  0  0
    7.9588    0.5613   -0.8585 N   0  0  0  0  0  0  0  0  0  0  0  0
    8.7317    1.2215   -1.9256 C   0  0  0  0  0  0  0  0  0  0  0  0
    9.8774    0.3594   -2.4484 C   0  0  0  0  0  0  0  0  0  0  0  0
    7.2127   -0.6078   -1.3604 C   0  0  0  0  0  0  0  0  0  0  0  0
    7.7557   -1.8761   -0.7151 C   0  0  0  0  0  0  0  0  0  0  0  0
    3.1840    0.7041    1.7734 C   0  0  0  0  0  0  0  0  0  0  0  0
    1.9308    0.0891    1.6433 C   0  0  0  0  0  0  0  0  0  0  0  0
   -1.4158    0.3266   -0.0762 C   0  0  0  0  0  0  0  0  0  0  0  0
   -2.4322   -0.5809    0.1698 N   0  0  0  0  0  0  0  0  0  0  0  0
   -3.7457   -0.4893   -0.3865 C   0  0  0  0  0  0  0  0  0  0  0  0
   -4.8571   -1.0387    0.2657 C   0  0  0  0  0  0  0  0  0  0  0  0
   -6.1353   -0.9247   -0.2899 C   0  0  0  0  0  0  0  0  0  0  0  0
   -6.3159   -0.2311   -1.4822 C   0  0  0  0  0  0  0  0  0  0  0  0
   -7.5846   -0.1650   -2.0029 O   0  0  0  0  0  0  0  0  0  0  0  0
   -8.1344    1.0877   -2.1680 C   0  0  0  0  0  0  0  0  0  0  0  0
   -8.9949    1.2444   -3.2580 C   0  0  0  0  0  0  0  0  0  0  0  0
   -9.6274    2.4694   -3.4805 C   0  0  0  0  0  0  0  0  0  0  0  0
   -9.4044    3.5307   -2.6044 C   0  0  0  0  0  0  0  0  0  0  0  0
  -10.1821    5.0409   -2.8760 Cl  0  0  0  0  0  0  0  0  0  0  0  0
   -8.5616    3.3746   -1.5045 C   0  0  0  0  0  0  0  0  0  0  0  0
   -7.9316    2.1478   -1.2795 C   0  0  0  0  0  0  0  0  0  0  0  0
   -5.2229    0.3183   -2.1480 C   0  0  0  0  0  0  0  0  0  0  0  0
   -3.9431    0.1984   -1.5971 C   0  0  0  0  0  0  0  0  0  0  0  0
   -5.6181   -3.5568    2.8930 H   0  0  0  0  0  0  0  0  0  0  0  0
   -5.3776   -5.2942    3.1410 H   0  0  0  0  0  0  0  0  0  0  0  0
   -4.8414   -4.5412    1.6365 H   0  0  0  0  0  0  0  0  0  0  0  0
   -2.9031   -4.9670    3.1537 H   0  0  0  0  0  0  0  0  0  0  0  0
   -3.7131   -4.0895    4.4476 H   0  0  0  0  0  0  0  0  0  0  0  0
   -2.0509   -2.6312    3.5386 H   0  0  0  0  0  0  0  0  0  0  0  0
   -3.6167   -1.9828    3.0997 H   0  0  0  0  0  0  0  0  0  0  0  0
   -1.7283   -3.6119    1.3147 H   0  0  0  0  0  0  0  0  0  0  0  0
   -3.3036   -3.1224    0.7673 H   0  0  0  0  0  0  0  0  0  0  0  0
    0.5054    2.2566   -0.5570 H   0  0  0  0  0  0  0  0  0  0  0  0
    2.6970    3.3206   -0.3222 H   0  0  0  0  0  0  0  0  0  0  0  0
    5.3933    1.7446    2.8648 H   0  0  0  0  0  0  0  0  0  0  0  0
    6.3702    2.9530    2.0736 H   0  0  0  0  0  0  0  0  0  0  0  0
    5.9229    0.1337    0.9900 H   0  0  0  0  0  0  0  0  0  0  0  0
    7.3831    0.7262    1.7812 H   0  0  0  0  0  0  0  0  0  0  0  0
    6.2382    1.8122   -0.8730 H   0  0  0  0  0  0  0  0  0  0  0  0
    7.6255    2.4609   -0.0001 H   0  0  0  0  0  0  0  0  0  0  0  0
    8.0808    1.5240   -2.7553 H   0  0  0  0  0  0  0  0  0  0  0  0
    9.1893    2.1370   -1.5299 H   0  0  0  0  0  0  0  0  0  0  0  0
   10.4840    0.9349   -3.1559 H   0  0  0  0  0  0  0  0  0  0  0  0
   10.5319    0.0387   -1.6308 H   0  0  0  0  0  0  0  0  0  0  0  0
    9.5175   -0.5308   -2.9728 H   0  0  0  0  0  0  0  0  0  0  0  0
    6.1395   -0.5386   -1.1449 H   0  0  0  0  0  0  0  0  0  0  0  0
    7.2748   -0.7013   -2.4515 H   0  0  0  0  0  0  0  0  0  0  0  0
    8.8157   -2.0219   -0.9446 H   0  0  0  0  0  0  0  0  0  0  0  0
    7.2093   -2.7488   -1.0865 H   0  0  0  0  0  0  0  0  0  0  0  0
    7.6401   -1.8489    0.3731 H   0  0  0  0  0  0  0  0  0  0  0  0
    3.9064    0.2378    2.4332 H   0  0  0  0  0  0  0  0  0  0  0  0
    1.7303   -0.8227    2.2043 H   0  0  0  0  0  0  0  0  0  0  0  0
   -1.5568    1.1775   -0.7233 H   0  0  0  0  0  0  0  0  0  0  0  0
   -4.7809   -1.5241    1.2305 H   0  0  0  0  0  0  0  0  0  0  0  0
   -6.9917   -1.3569    0.2215 H   0  0  0  0  0  0  0  0  0  0  0  0
   -9.1719    0.4113   -3.9340 H   0  0  0  0  0  0  0  0  0  0  0  0
  -10.2917    2.5879   -4.3320 H   0  0  0  0  0  0  0  0  0  0  0  0
   -8.3948    4.2007   -0.8171 H   0  0  0  0  0  0  0  0  0  0  0  0
   -7.2953    2.0326   -0.4062 H   0  0  0  0  0  0  0  0  0  0  0  0
   -5.3588    0.8339   -3.0943 H   0  0  0  0  0  0  0  0  0  0  0  0
   -3.1127    0.6190   -2.1590 H   0  0  0  0  0  0  0  0  0  0  0  0
  1  2  1  0
  2  3  1  0
  3  4  1  0
  4  5  1  0
  5  6  2  0
  6  7  1  0
  7  8  1  0
  8  9  2  0
  9 10  1  0
 10 11  2  0
 11 12  1  0
 12 13  1  0
 13 14  1  0
 14 15  1  0
 15 16  1  0
 16 17  1  0
 17 18  1  0
 16 19  1  0
 19 20  1  0
 11 21  1  0
 21 22  2  0
  7 23  2  0
 23 24  1  0
 24 25  1  0
 25 26  2  0
 26 27  1  0
 27 28  2  0
 28 29  1  0
 29 30  1  0
 30 31  2  0
 31 32  1  0
 32 33  2  0
 33 34  1  0
 33 35  1  0
 35 36  2  0
 28 37  1  0
 37 38  2  0
 24  5  1  0
 38 25  1  0
 22  8  1  0
 36 30  1  0
  1 39  1  0
  1 40  1  0
  1 41  1  0
  2 42  1  0
  2 43  1  0
  3 44  1  0
  3 45  1  0
  4 46  1  0
  4 47  1  0
  9 48  1  0
 10 49  1  0
 13 50  1  0
 13 51  1  0
 14 52  1  0
 14 53  1  0
 15 54  1  0
 15 55  1  0
 17 56  1  0
 17 57  1  0
 18 58  1  0
 18 59  1  0
 18 60  1  0
 19 61  1  0
 19 62  1  0
 20 63  1  0
 20 64  1  0
 20 65  1  0
 21 66  1  0
 22 67  1  0
 23 68  1  0
 26 69  1  0
 27 70  1  0
 31 71  1  0
 32 72  1  0
 35 73  1  0
 36 74  1  0
 37 75  1  0
 38 76  1  0
M  END
$$$$
