
     RDKit          3D

 77 83  0  0  0  0  0  0  0  0999 V2000
   -5.5660   -1.1490    1.7605 O   0  0  0  0  0  0  0  0  0  0  0  0
   -4.5623   -0.4717    1.5546 C   0  0  0  0  0  0  0  0  0  0  0  0
   -4.3623    0.3951    0.4950 N   0  0  0  0  0  0  0  0  0  0  0  0
   -5.2360    0.6840   -0.5712 C   0  0  0  0  0  0  0  0  0  0  0  0
   -4.7964    1.6220   -1.5135 C   0  0  0  0  0  0  0  0  0  0  0  0
   -5.5832    1.9880   -2.6129 C   0  0  0  0  0  0  0  0  0  0  0  0
   -6.8344    1.3778   -2.7285 C   0  0  0  0  0  0  0  0  0  0  0  0
   -7.8198    1.5027   -3.6663 N   0  0  0  0  0  0  0  0  0  0  0  0
   -8.8930    0.7294   -3.4505 N   0  0  0  0  0  0  0  0  0  0  0  0
   -8.6162    0.0836   -2.3032 C   0  0  0  0  0  0  0  0  0  0  0  0
   -9.5836   -0.8557   -1.7313 C   0  0  0  0  0  0  0  0  0  0  0  0
   -9.7486   -0.9847   -0.3510 C   0  0  0  0  0  0  0  0  0  0  0  0
  -10.6805   -1.8945    0.1226 C   0  0  0  0  0  0  0  0  0  0  0  0
  -11.4519   -2.6649   -0.6729 N   0  0  0  0  0  0  0  0  0  0  0  0
  -11.2865   -2.5138   -2.0040 C   0  0  0  0  0  0  0  0  0  0  0  0
  -10.3809   -1.6353   -2.5735 C   0  0  0  0  0  0  0  0  0  0  0  0
   -7.3172    0.4476   -1.8158 C   0  0  0  0  0  0  0  0  0  0  0  0
   -6.4944    0.0869   -0.7247 C   0  0  0  0  0  0  0  0  0  0  0  0
   -3.3970   -0.5077    2.5421 C   0  0  2  0  0  0  0  0  0  0  0  0
   -3.2081    0.8378    3.2494 C   0  0  0  0  0  0  0  0  0  0  0  0
   -1.8624    1.3704    2.7625 C   0  0  0  0  0  0  0  0  0  0  0  0
   -1.5894    0.5822    1.5610 N   0  0  0  0  0  0  0  0  0  0  0  0
   -0.1989    0.6611    1.0742 C   0  0  0  0  0  0  0  0  0  0  0  0
    0.9006    0.0866    1.9949 C   0  0  0  0  0  0  0  0  0  0  0  0
    0.6848   -0.2847    3.1498 O   0  0  0  0  0  0  0  0  0  0  0  0
    2.1800    0.0083    1.4513 N   0  0  0  0  0  0  0  0  0  0  0  0
    2.5684    0.5072    0.1270 C   0  0  0  0  0  0  0  0  0  0  0  0
    4.0634    0.8700    0.0326 C   0  0  0  0  0  0  0  0  0  0  0  0
    4.9181   -0.2628    0.4155 N   0  0  0  0  0  0  0  0  0  0  0  0
    6.2598   -0.3053    0.0630 C   0  0  0  0  0  0  0  0  0  0  0  0
    7.0056   -1.4898    0.1459 C   0  0  0  0  0  0  0  0  0  0  0  0
    8.3646   -1.5440   -0.2075 C   0  0  0  0  0  0  0  0  0  0  0  0
    9.0518   -0.4117   -0.6686 C   0  0  0  0  0  0  0  0  0  0  0  0
   10.4816   -0.4628   -1.0350 C   0  0  0  0  0  0  0  0  0  0  0  0
   11.1307   -1.6373   -0.8916 N   0  0  0  0  0  0  0  0  0  0  0  0
   12.4330   -1.6525   -1.2316 C   0  0  0  0  0  0  0  0  0  0  0  0
   13.1078   -0.5534   -1.7048 C   0  0  0  0  0  0  0  0  0  0  0  0
   12.3623    0.5946   -1.8158 C   0  0  0  0  0  0  0  0  0  0  0  0
   11.0583    0.6695   -1.4912 N   0  0  0  0  0  0  0  0  0  0  0  0
    8.3061    0.7724   -0.7642 C   0  0  0  0  0  0  0  0  0  0  0  0
    6.9468    0.8206   -0.4106 C   0  0  0  0  0  0  0  0  0  0  0  0
    4.3812   -1.2052    1.4159 C   0  0  0  0  0  0  0  0  0  0  0  0
    3.2561   -0.5752    2.2585 C   0  0  0  0  0  0  0  0  0  0  0  0
   -2.0673   -0.7762    1.8442 C   0  0  0  0  0  0  0  0  0  0  0  0
   -3.4579    0.8648    0.4878 H   0  0  0  0  0  0  0  0  0  0  0  0
   -3.8186    2.0887   -1.4051 H   0  0  0  0  0  0  0  0  0  0  0  0
   -5.2298    2.7133   -3.3388 H   0  0  0  0  0  0  0  0  0  0  0  0
   -7.8169    2.0961   -4.4875 H   0  0  0  0  0  0  0  0  0  0  0  0
   -9.1847   -0.3861    0.3548 H   0  0  0  0  0  0  0  0  0  0  0  0
  -10.8376   -2.0273    1.1895 H   0  0  0  0  0  0  0  0  0  0  0  0
  -11.9224   -3.1383   -2.6242 H   0  0  0  0  0  0  0  0  0  0  0  0
  -10.2985   -1.5602   -3.6531 H   0  0  0  0  0  0  0  0  0  0  0  0
   -6.8517   -0.6611   -0.0276 H   0  0  0  0  0  0  0  0  0  0  0  0
   -3.6096   -1.3004    3.2695 H   0  0  0  0  0  0  0  0  0  0  0  0
   -3.1843    0.7000    4.3369 H   0  0  0  0  0  0  0  0  0  0  0  0
   -4.0173    1.5425    3.0237 H   0  0  0  0  0  0  0  0  0  0  0  0
   -1.1168    1.2381    3.5523 H   0  0  0  0  0  0  0  0  0  0  0  0
   -1.9216    2.4391    2.5315 H   0  0  0  0  0  0  0  0  0  0  0  0
    0.0345    1.7152    0.8860 H   0  0  0  0  0  0  0  0  0  0  0  0
   -0.1511    0.1346    0.1138 H   0  0  0  0  0  0  0  0  0  0  0  0
    1.9678    1.3818   -0.1367 H   0  0  0  0  0  0  0  0  0  0  0  0
    2.3324   -0.2903   -0.5875 H   0  0  0  0  0  0  0  0  0  0  0  0
    4.2730    1.7219    0.6915 H   0  0  0  0  0  0  0  0  0  0  0  0
    4.2645    1.1747   -1.0014 H   0  0  0  0  0  0  0  0  0  0  0  0
    6.5381   -2.4161    0.4690 H   0  0  0  0  0  0  0  0  0  0  0  0
    8.8842   -2.4973   -0.1206 H   0  0  0  0  0  0  0  0  0  0  0  0
   12.9330   -2.6086   -1.1067 H   0  0  0  0  0  0  0  0  0  0  0  0
   14.1543   -0.5890   -1.9709 H   0  0  0  0  0  0  0  0  0  0  0  0
   12.8031    1.5183   -2.1803 H   0  0  0  0  0  0  0  0  0  0  0  0
    8.7823    1.6871   -1.1150 H   0  0  0  0  0  0  0  0  0  0  0  0
    6.4492    1.7823   -0.4968 H   0  0  0  0  0  0  0  0  0  0  0  0
    3.9952   -2.0872    0.8900 H   0  0  0  0  0  0  0  0  0  0  0  0
    5.1604   -1.5380    2.1121 H   0  0  0  0  0  0  0  0  0  0  0  0
    2.8480   -1.3270    2.9426 H   0  0  0  0  0  0  0  0  0  0  0  0
    3.6620    0.2392    2.8716 H   0  0  0  0  0  0  0  0  0  0  0  0
   -2.1789   -1.3612    0.9252 H   0  0  0  0  0  0  0  0  0  0  0  0
   -1.4090   -1.3252    2.5243 H   0  0  0  0  0  0  0  0  0  0  0  0
  1  2  2  0
  2  3  1  0
  3  4  1  0
  4  5  2  0
  5  6  1  0
  6  7  2  0
  7  8  1  0
  8  9  1  0
  9 10  2  0
 10 11  1  0
 11 12  2  0
 12 13  1  0
 13 14  2  0
 14 15  1  0
 15 16  2  0
 10 17  1  0
 17 18  2  0
  2 19  1  0
 19 20  1  0
 20 21  1  0
 21 22  1  0
 22 23  1  0
 23 24  1  0
 24 25  2  0
 24 26  1  0
 26 27  1  0
 27 28  1  0
 28 29  1  0
 29 30  1  0
 30 31  2  0
 31 32  1  0
 32 33  2  0
 33 34  1  0
 34 35  2  0
 35 36  1  0
 36 37  2  0
 37 38  1  0
 38 39  2  0
 33 40  1  0
 40 41  2  0
 29 42  1  0
 42 43  1  0
 22 44  1  0
 18  4  1  0
 44 19  1  0
 17  7  1  0
 43 26  1  0
 16 11  1  0
 41 30  1  0
 39 34  1  0
  3 45  1  0
  5 46  1  0
  6 47  1  0
  8 48  1  0
 12 49  1  0
 13 50  1  0
 15 51  1  0
 16 52  1  0
 18 53  1  0
 19 54  1  1
 20 55  1  0
 20 56  1  0
 21 57  1  0
 21 58  1  0
 23 59  1  0
 23 60  1  0
 27 61  1  0
 27 62  1  0
 28 63  1  0
 28 64  1  0
 31 65  1  0
 32 66  1  0
 36 67  1  0
 37 68  1  0
 38 69  1  0
 40 70  1  0
 41 71  1  0
 42 72  1  0
 42 73  1  0
 43 74  1  0
 43 75  1  0
 44 76  1  0
 44 77  1  0
M  END
$$$$
