
     RDKit          3D

 54 55  0  0  0  0  0  0  0  0999 V2000
    6.7805   -1.4963   -2.1979 C   0  0  0  0  0  0  0  0  0  0  0  0
    7.2819   -1.4179   -0.7665 C   0  0  0  0  0  0  0  0  0  0  0  0
    6.2602   -1.8125    0.1479 O   0  0  0  0  0  0  0  0  0  0  0  0
    5.4306   -0.8575    0.6638 C   0  0  0  0  0  0  0  0  0  0  0  0
    5.3404    0.4723    0.2475 C   0  0  0  0  0  0  0  0  0  0  0  0
    4.4337    1.3429    0.8619 C   0  0  0  0  0  0  0  0  0  0  0  0
    3.6084    0.8739    1.8873 C   0  0  0  0  0  0  0  0  0  0  0  0
    2.4676    1.9892    2.6684 S   0  0  0  0  0  6  0  0  0  0  0  0
    3.0465    3.3135    2.6234 O   0  0  0  0  0  0  0  0  0  0  0  0
    2.0235    1.3884    3.9059 O   0  0  0  0  0  0  0  0  0  0  0  0
    1.1787    1.9970    1.5959 N   0  0  0  0  0  0  0  0  0  0  0  0
    0.4756    0.7514    1.2888 C   0  0  0  0  0  0  0  0  0  0  0  0
   -0.9077    1.0799    0.7298 C   0  0  0  0  0  0  0  0  0  0  0  0
   -1.6759   -0.2047    0.3943 C   0  0  0  0  0  0  0  0  0  0  0  0
   -3.0562    0.0542   -0.0513 N   0  0  0  0  0  0  0  0  0  0  0  0
   -3.1036    0.6412   -1.4014 C   0  0  0  0  0  0  0  0  0  0  0  0
   -4.5406    0.9704   -1.8436 C   0  0  0  0  0  0  0  0  0  0  0  0
   -5.1237    2.1395   -1.0425 C   0  0  0  0  0  0  0  0  0  0  0  0
   -5.4254   -0.2789   -1.7517 C   0  0  0  0  0  0  0  0  0  0  0  0
   -5.3135   -0.9566   -0.3809 C   0  0  0  0  0  0  0  0  0  0  0  0
   -6.0921   -2.2719   -0.3677 C   0  0  0  0  0  0  0  0  0  0  0  0
   -3.8404   -1.1944   -0.0105 C   0  0  0  0  0  0  0  0  0  0  0  0
    3.6972   -0.4495    2.3198 C   0  0  0  0  0  0  0  0  0  0  0  0
    4.6033   -1.3105    1.6981 C   0  0  0  0  0  0  0  0  0  0  0  0
    5.9514   -0.8038   -2.3705 H   0  0  0  0  0  0  0  0  0  0  0  0
    6.4041   -2.5011   -2.4169 H   0  0  0  0  0  0  0  0  0  0  0  0
    7.5835   -1.2609   -2.9021 H   0  0  0  0  0  0  0  0  0  0  0  0
    7.7088   -0.4380   -0.5257 H   0  0  0  0  0  0  0  0  0  0  0  0
    8.0992   -2.1384   -0.6469 H   0  0  0  0  0  0  0  0  0  0  0  0
    5.9573    0.8653   -0.5537 H   0  0  0  0  0  0  0  0  0  0  0  0
    4.3807    2.3804    0.5389 H   0  0  0  0  0  0  0  0  0  0  0  0
    1.2271    2.7308    0.8918 H   0  0  0  0  0  0  0  0  0  0  0  0
    1.0482    0.1905    0.5425 H   0  0  0  0  0  0  0  0  0  0  0  0
    0.3746    0.1365    2.1890 H   0  0  0  0  0  0  0  0  0  0  0  0
   -0.7891    1.7086   -0.1599 H   0  0  0  0  0  0  0  0  0  0  0  0
   -1.4706    1.6703    1.4640 H   0  0  0  0  0  0  0  0  0  0  0  0
   -1.1282   -0.7912   -0.3549 H   0  0  0  0  0  0  0  0  0  0  0  0
   -1.7047   -0.8107    1.3096 H   0  0  0  0  0  0  0  0  0  0  0  0
   -2.6509   -0.0457   -2.1295 H   0  0  0  0  0  0  0  0  0  0  0  0
   -2.5232    1.5692   -1.4401 H   0  0  0  0  0  0  0  0  0  0  0  0
   -4.5093    1.2843   -2.8951 H   0  0  0  0  0  0  0  0  0  0  0  0
   -5.1671    1.9307    0.0307 H   0  0  0  0  0  0  0  0  0  0  0  0
   -4.5147    3.0393   -1.1813 H   0  0  0  0  0  0  0  0  0  0  0  0
   -6.1388    2.3709   -1.3821 H   0  0  0  0  0  0  0  0  0  0  0  0
   -6.4704   -0.0223   -1.9641 H   0  0  0  0  0  0  0  0  0  0  0  0
   -5.1133   -0.9856   -2.5323 H   0  0  0  0  0  0  0  0  0  0  0  0
   -5.7627   -0.3013    0.3767 H   0  0  0  0  0  0  0  0  0  0  0  0
   -5.6910   -2.9805   -1.1003 H   0  0  0  0  0  0  0  0  0  0  0  0
   -6.0426   -2.7421    0.6201 H   0  0  0  0  0  0  0  0  0  0  0  0
   -7.1474   -2.1002   -0.6048 H   0  0  0  0  0  0  0  0  0  0  0  0
   -3.8100   -1.6105    1.0048 H   0  0  0  0  0  0  0  0  0  0  0  0
   -3.3993   -1.9456   -0.6799 H   0  0  0  0  0  0  0  0  0  0  0  0
    3.0743   -0.8170    3.1322 H   0  0  0  0  0  0  0  0  0  0  0  0
    4.6751   -2.3449    2.0282 H   0  0  0  0  0  0  0  0  0  0  0  0
  1  2  1  0
  2  3  1  0
  3  4  1  0
  4  5  2  0
  5  6  1  0
  6  7  2  0
  7  8  1  0
  8  9  2  0
  8 10  2  0
  8 11  1  0
 11 12  1  0
 12 13  1  0
 13 14  1  0
 14 15  1  0
 15 16  1  0
 16 17  1  0
 17 18  1  0
 17 19  1  0
 19 20  1  0
 20 21  1  0
 20 22  1  0
  7 23  1  0
 23 24  2  0
 24  4  1  0
 22 15  1  0
  1 25  1  0
  1 26  1  0
  1 27  1  0
  2 28  1  0
  2 29  1  0
  5 30  1  0
  6 31  1  0
 11 32  1  0
 12 33  1  0
 12 34  1  0
 13 35  1  0
 13 36  1  0
 14 37  1  0
 14 38  1  0
 16 39  1  0
 16 40  1  0
 17 41  1  0
 18 42  1  0
 18 43  1  0
 18 44  1  0
 19 45  1  0
 19 46  1  0
 20 47  1  0
 21 48  1  0
 21 49  1  0
 21 50  1  0
 22 51  1  0
 22 52  1  0
 23 53  1  0
 24 54  1  0
M  END
$$$$
