
     RDKit          3D

 54 58  0  0  0  0  0  0  0  0999 V2000
    7.1357    1.6556    1.5981 C   0  0  0  0  0  0  0  0  0  0  0  0
    6.6663    1.2622    0.2199 C   0  0  0  0  0  0  0  0  0  0  0  0
    7.2671    1.6556   -0.7794 O   0  0  0  0  0  0  0  0  0  0  0  0
    5.5521    0.4459    0.1478 N   0  0  0  0  0  0  0  0  0  0  0  0
    4.8341   -0.0851    1.3162 C   0  0  0  0  0  0  0  0  0  0  0  0
    3.8995   -1.2523    0.9546 C   0  0  0  0  0  0  0  0  0  0  0  0
    2.9421   -0.8876   -0.1115 N   0  0  0  0  0  0  0  0  0  0  0  0
    1.6028   -0.6198    0.2217 C   0  0  0  0  0  0  0  0  0  0  0  0
    0.6187   -0.7714   -0.7789 C   0  0  0  0  0  0  0  0  0  0  0  0
   -0.7479   -0.5352   -0.5438 C   0  0  0  0  0  0  0  0  0  0  0  0
   -1.1284   -0.1168    0.7418 C   0  0  0  0  0  0  0  0  0  0  0  0
   -0.1834    0.0421    1.7568 C   0  0  0  0  0  0  0  0  0  0  0  0
    1.1588   -0.2099    1.4912 C   0  0  0  0  0  0  0  0  0  0  0  0
    2.0293   -0.0007    2.4910 F   0  0  0  0  0  0  0  0  0  0  0  0
   -2.5536    0.1787    1.0257 C   0  0  0  0  0  0  0  0  0  0  0  0
   -2.9099    0.5071    2.1545 O   0  0  0  0  0  0  0  0  0  0  0  0
   -3.5273    0.0878   -0.0903 C   0  0  0  0  0  0  0  0  0  0  0  0
   -4.9816    0.4317    0.0177 C   0  0  0  0  0  0  0  0  0  0  0  0
   -5.6985    0.3438   -0.9752 O   0  0  0  0  0  0  0  0  0  0  0  0
   -5.3701    0.8258    1.2728 N   0  0  0  0  0  0  0  0  0  0  0  0
   -6.6233    1.2015    1.6816 C   0  0  0  0  0  0  0  0  0  0  0  0
   -6.8527    1.5556    2.9256 N   0  0  0  0  0  0  0  0  0  0  0  0
   -8.1851    1.8862    3.0765 C   0  0  0  0  0  0  0  0  0  0  0  0
   -8.9535    1.7785    1.9386 C   0  0  0  0  0  0  0  0  0  0  0  0
   -7.9724    1.2458    0.6397 S   0  0  0  0  0  0  0  0  0  0  0  0
   -3.0491   -0.3330   -1.2724 C   0  0  0  0  0  0  0  0  0  0  0  0
   -1.7447   -0.7064   -1.5444 N   0  0  0  0  0  0  0  0  0  0  0  0
   -1.4027   -1.0863   -2.9290 C   0  0  0  0  0  0  0  0  0  0  0  0
   -0.8636   -2.4559   -3.2634 C   0  0  0  0  0  0  0  0  0  0  0  0
   -2.2315   -2.0668   -3.7253 C   0  0  0  0  0  0  0  0  0  0  0  0
    3.4789    0.0098   -1.1703 C   0  0  0  0  0  0  0  0  0  0  0  0
    5.0174    0.0709   -1.1659 C   0  0  0  0  0  0  0  0  0  0  0  0
    7.8975    2.4364    1.5105 H   0  0  0  0  0  0  0  0  0  0  0  0
    6.3089    2.0590    2.1880 H   0  0  0  0  0  0  0  0  0  0  0  0
    7.5789    0.7924    2.1010 H   0  0  0  0  0  0  0  0  0  0  0  0
    4.2638    0.7482    1.7409 H   0  0  0  0  0  0  0  0  0  0  0  0
    5.5608   -0.4135    2.0657 H   0  0  0  0  0  0  0  0  0  0  0  0
    3.4081   -1.6599    1.8445 H   0  0  0  0  0  0  0  0  0  0  0  0
    4.5108   -2.0783    0.5672 H   0  0  0  0  0  0  0  0  0  0  0  0
    0.9423   -1.1087   -1.7594 H   0  0  0  0  0  0  0  0  0  0  0  0
   -0.4746    0.3707    2.7505 H   0  0  0  0  0  0  0  0  0  0  0  0
   -4.6803    0.8550    2.0225 H   0  0  0  0  0  0  0  0  0  0  0  0
   -8.5464    2.2023    4.0474 H   0  0  0  0  0  0  0  0  0  0  0  0
  -10.0070    1.9799    1.8115 H   0  0  0  0  0  0  0  0  0  0  0  0
   -3.7109   -0.4134   -2.1329 H   0  0  0  0  0  0  0  0  0  0  0  0
   -0.9935   -0.2453   -3.4855 H   0  0  0  0  0  0  0  0  0  0  0  0
   -0.0760   -2.5232   -4.0044 H   0  0  0  0  0  0  0  0  0  0  0  0
   -0.7914   -3.1898   -2.4689 H   0  0  0  0  0  0  0  0  0  0  0  0
   -3.0738   -2.5559   -3.2501 H   0  0  0  0  0  0  0  0  0  0  0  0
   -2.3761   -1.8642   -4.7802 H   0  0  0  0  0  0  0  0  0  0  0  0
    3.1423   -0.3380   -2.1536 H   0  0  0  0  0  0  0  0  0  0  0  0
    3.0983    1.0295   -1.0210 H   0  0  0  0  0  0  0  0  0  0  0  0
    5.3589    0.7721   -1.9346 H   0  0  0  0  0  0  0  0  0  0  0  0
    5.4361   -0.9129   -1.4103 H   0  0  0  0  0  0  0  0  0  0  0  0
  1  2  1  0
  2  3  2  0
  2  4  1  0
  4  5  1  0
  5  6  1  0
  6  7  1  0
  7  8  1  0
  8  9  2  0
  9 10  1  0
 10 11  2  0
 11 12  1  0
 12 13  2  0
 13 14  1  0
 11 15  1  0
 15 16  2  0
 15 17  1  0
 17 18  1  0
 18 19  2  0
 18 20  1  0
 20 21  1  0
 21 22  2  0
 22 23  1  0
 23 24  2  0
 24 25  1  0
 17 26  2  0
 26 27  1  0
 27 28  1  0
 28 29  1  0
 29 30  1  0
  7 31  1  0
 31 32  1  0
 32  4  1  0
 13  8  1  0
 25 21  1  0
 30 28  1  0
 27 10  1  0
  1 33  1  0
  1 34  1  0
  1 35  1  0
  5 36  1  0
  5 37  1  0
  6 38  1  0
  6 39  1  0
  9 40  1  0
 12 41  1  0
 20 42  1  0
 23 43  1  0
 24 44  1  0
 26 45  1  0
 28 46  1  0
 29 47  1  0
 29 48  1  0
 30 49  1  0
 30 50  1  0
 31 51  1  0
 31 52  1  0
 32 53  1  0
 32 54  1  0
M  END
$$$$
