
     RDKit          3D

 60 65  0  0  0  0  0  0  0  0999 V2000
   -4.7935    4.1697    0.4626 C   0  0  0  0  0  0  0  0  0  0  0  0
   -5.7709    3.3781   -0.1275 C   0  0  0  0  0  0  0  0  0  0  0  0
   -5.5955    1.9961   -0.1668 C   0  0  0  0  0  0  0  0  0  0  0  0
   -4.4429    1.4423    0.3864 C   0  0  0  0  0  0  0  0  0  0  0  0
   -4.2208   -0.0148    0.3777 C   0  0  0  0  0  0  0  0  0  0  0  0
   -5.0809   -0.8644   -0.2462 N   0  0  0  0  0  0  0  0  0  0  0  0
   -4.5412   -2.0527   -0.0186 N   0  0  0  0  0  0  0  0  0  0  0  0
   -3.3989   -2.0625    0.6980 C   0  0  0  0  0  0  0  0  0  0  0  0
   -3.1301   -0.7519    0.9862 C   0  0  0  0  0  0  0  0  0  0  0  0
   -1.9777   -0.3239    1.7538 C   0  0  0  0  0  0  0  0  0  0  0  0
   -2.0949   -0.2920    3.1423 C   0  0  0  0  0  0  0  0  0  0  0  0
   -0.9998    0.1117    3.8740 C   0  0  0  0  0  0  0  0  0  0  0  0
    0.1785    0.4725    3.3263 N   0  0  0  0  0  0  0  0  0  0  0  0
    0.2896    0.4525    1.9862 C   0  0  0  0  0  0  0  0  0  0  0  0
    1.4971    0.8380    1.4206 C   0  0  0  0  0  0  0  0  0  0  0  0
    1.7081    0.8579    0.0383 C   0  0  0  0  0  0  0  0  0  0  0  0
    2.9561    1.2658   -0.3370 O   0  0  0  0  0  0  0  0  0  0  0  0
    3.2190    1.5134   -1.7179 C   0  0  0  0  0  0  0  0  0  0  0  0
    3.7615    0.2706   -2.4559 C   0  0  0  0  0  0  0  0  0  0  0  0
    5.0586   -0.2908   -2.0488 N   0  0  0  0  0  0  0  0  0  0  0  0
    6.1947    0.6299   -2.2106 C   0  0  0  0  0  0  0  0  0  0  0  0
    7.4453    0.0852   -1.5011 C   0  0  0  0  0  0  0  0  0  0  0  0
    7.2821   -0.0252   -0.0784 O   0  0  0  0  0  0  0  0  0  0  0  0
    5.9111   -0.1796    0.3219 C   0  0  0  0  0  0  0  0  0  0  0  0
    5.0600   -0.9278   -0.7180 C   0  0  0  0  0  0  0  0  0  0  0  0
    0.6813    0.4606   -0.8061 C   0  0  0  0  0  0  0  0  0  0  0  0
   -0.5439    0.0671   -0.2640 C   0  0  0  0  0  0  0  0  0  0  0  0
   -0.7622    0.0575    1.1350 C   0  0  0  0  0  0  0  0  0  0  0  0
   -2.9022   -3.4370    0.8743 C   0  0  0  0  0  0  0  0  0  0  0  0
   -4.1335   -4.2805    0.4430 C   0  0  0  0  0  0  0  0  0  0  0  0
   -5.0048   -3.3607   -0.4344 C   0  0  0  0  0  0  0  0  0  0  0  0
   -3.4865    2.2071    0.9702 N   0  0  0  0  0  0  0  0  0  0  0  0
   -3.6779    3.5433    0.9920 C   0  0  0  0  0  0  0  0  0  0  0  0
   -4.8973    5.2477    0.5114 H   0  0  0  0  0  0  0  0  0  0  0  0
   -6.6638    3.8303   -0.5505 H   0  0  0  0  0  0  0  0  0  0  0  0
   -6.3510    1.3648   -0.6264 H   0  0  0  0  0  0  0  0  0  0  0  0
   -3.0183   -0.5647    3.6402 H   0  0  0  0  0  0  0  0  0  0  0  0
   -1.0391    0.1592    4.9582 H   0  0  0  0  0  0  0  0  0  0  0  0
    2.3031    1.1431    2.0844 H   0  0  0  0  0  0  0  0  0  0  0  0
    2.3390    1.9170   -2.2336 H   0  0  0  0  0  0  0  0  0  0  0  0
    3.9536    2.3238   -1.7573 H   0  0  0  0  0  0  0  0  0  0  0  0
    3.8334    0.5234   -3.5221 H   0  0  0  0  0  0  0  0  0  0  0  0
    3.0179   -0.5335   -2.3992 H   0  0  0  0  0  0  0  0  0  0  0  0
    6.4045    0.7657   -3.2770 H   0  0  0  0  0  0  0  0  0  0  0  0
    5.9729    1.6124   -1.7808 H   0  0  0  0  0  0  0  0  0  0  0  0
    7.7168   -0.9037   -1.8910 H   0  0  0  0  0  0  0  0  0  0  0  0
    8.2973    0.7488   -1.6804 H   0  0  0  0  0  0  0  0  0  0  0  0
    5.9087   -0.7255    1.2708 H   0  0  0  0  0  0  0  0  0  0  0  0
    5.5024    0.8173    0.5223 H   0  0  0  0  0  0  0  0  0  0  0  0
    4.0477   -1.0957   -0.3345 H   0  0  0  0  0  0  0  0  0  0  0  0
    5.4973   -1.9257   -0.8541 H   0  0  0  0  0  0  0  0  0  0  0  0
    0.7890    0.4378   -1.8844 H   0  0  0  0  0  0  0  0  0  0  0  0
   -1.3392   -0.2289   -0.9451 H   0  0  0  0  0  0  0  0  0  0  0  0
   -2.0530   -3.6281    0.2106 H   0  0  0  0  0  0  0  0  0  0  0  0
   -2.6123   -3.6569    1.9048 H   0  0  0  0  0  0  0  0  0  0  0  0
   -3.8477   -5.2038   -0.0713 H   0  0  0  0  0  0  0  0  0  0  0  0
   -4.7019   -4.5679    1.3373 H   0  0  0  0  0  0  0  0  0  0  0  0
   -6.0727   -3.4564   -0.2255 H   0  0  0  0  0  0  0  0  0  0  0  0
   -4.7878   -3.4699   -1.5002 H   0  0  0  0  0  0  0  0  0  0  0  0
   -2.8843    4.1141    1.4655 H   0  0  0  0  0  0  0  0  0  0  0  0
  1  2  2  0
  2  3  1  0
  3  4  2  0
  4  5  1  0
  5  6  2  0
  6  7  1  0
  7  8  1  0
  8  9  2  0
  9 10  1  0
 10 11  2  0
 11 12  1  0
 12 13  2  0
 13 14  1  0
 14 15  2  0
 15 16  1  0
 16 17  1  0
 17 18  1  0
 18 19  1  0
 19 20  1  0
 20 21  1  0
 21 22  1  0
 22 23  1  0
 23 24  1  0
 24 25  1  0
 16 26  2  0
 26 27  1  0
 27 28  2  0
  8 29  1  0
 29 30  1  0
 30 31  1  0
  4 32  1  0
 32 33  2  0
 33  1  1  0
  9  5  1  0
 28 10  1  0
 31  7  1  0
 28 14  1  0
 25 20  1  0
  1 34  1  0
  2 35  1  0
  3 36  1  0
 11 37  1  0
 12 38  1  0
 15 39  1  0
 18 40  1  0
 18 41  1  0
 19 42  1  0
 19 43  1  0
 21 44  1  0
 21 45  1  0
 22 46  1  0
 22 47  1  0
 24 48  1  0
 24 49  1  0
 25 50  1  0
 25 51  1  0
 26 52  1  0
 27 53  1  0
 29 54  1  0
 29 55  1  0
 30 56  1  0
 30 57  1  0
 31 58  1  0
 31 59  1  0
 33 60  1  0
M  END
$$$$
