
     RDKit          3D

 64 65  0  0  0  0  0  0  0  0999 V2000
   -5.3619    2.5782    2.1282 N   0  0  0  0  0  0  0  0  0  0  0  0
   -4.6321    1.7448    1.4675 C   0  0  0  0  0  0  0  0  0  0  0  0
   -3.3025    1.9041    1.1901 N   0  0  0  0  0  0  0  0  0  0  0  0
   -2.5369    3.0711    1.6013 C   0  0  0  0  0  0  0  0  0  0  0  0
   -1.1102    3.0202    1.0525 C   0  0  0  0  0  0  0  0  0  0  0  0
   -1.0568    3.0374   -0.4792 C   0  0  0  0  0  0  0  0  0  0  0  0
    0.3242    3.4072   -1.0302 C   0  0  0  0  0  0  0  0  0  0  0  0
    1.4817    2.5067   -0.5934 C   0  0  0  0  0  0  0  0  0  0  0  0
    1.3806    1.0794   -1.1345 C   0  0  0  0  0  0  0  0  0  0  0  0
    2.5433    0.2941   -0.7228 N   0  0  0  0  0  0  0  0  0  0  0  0
    3.7486    0.4413   -1.3509 C   0  0  0  0  0  0  0  0  0  0  0  0
    3.9323    1.2483   -2.3376 N   0  0  0  0  0  0  0  0  0  0  0  0
    4.7186   -0.3260   -0.7863 N   0  0  0  0  0  0  0  0  0  0  0  0
    5.9537   -0.7402   -1.2016 C   0  0  0  0  0  0  0  0  0  0  0  0
    6.2606   -0.8572   -2.4498 N   0  0  0  0  0  0  0  0  0  0  0  0
    6.7864   -0.9933   -0.1409 N   0  0  0  0  0  0  0  0  0  0  0  0
    8.0885   -1.5400   -0.1748 C   0  0  0  0  0  0  0  0  0  0  0  0
    8.9238   -1.3605    0.9429 C   0  0  0  0  0  0  0  0  0  0  0  0
   10.2070   -1.9168    0.9875 C   0  0  0  0  0  0  0  0  0  0  0  0
   10.6645   -2.6809   -0.0806 C   0  0  0  0  0  0  0  0  0  0  0  0
   12.2385   -3.3711   -0.0265 Cl  0  0  0  0  0  0  0  0  0  0  0  0
    9.8483   -2.8955   -1.1855 C   0  0  0  0  0  0  0  0  0  0  0  0
    8.5655   -2.3351   -1.2241 C   0  0  0  0  0  0  0  0  0  0  0  0
   -5.1390    0.5907    0.9452 N   0  0  0  0  0  0  0  0  0  0  0  0
   -6.3648   -0.0129    1.0650 C   0  0  0  0  0  0  0  0  0  0  0  0
   -7.2883    0.4418    1.8475 N   0  0  0  0  0  0  0  0  0  0  0  0
   -6.4677   -1.1315    0.2730 N   0  0  0  0  0  0  0  0  0  0  0  0
   -7.5054   -2.0911    0.2753 C   0  0  0  0  0  0  0  0  0  0  0  0
   -8.3462   -2.3167    1.3730 C   0  0  0  0  0  0  0  0  0  0  0  0
   -9.3244   -3.3181    1.3462 C   0  0  0  0  0  0  0  0  0  0  0  0
   -9.4576   -4.1254    0.2223 C   0  0  0  0  0  0  0  0  0  0  0  0
  -10.6557   -5.3590    0.1861 Cl  0  0  0  0  0  0  0  0  0  0  0  0
   -8.6149   -3.9448   -0.8697 C   0  0  0  0  0  0  0  0  0  0  0  0
   -7.6403   -2.9409   -0.8369 C   0  0  0  0  0  0  0  0  0  0  0  0
   -4.8139    3.3850    2.4239 H   0  0  0  0  0  0  0  0  0  0  0  0
   -2.7687    1.0464    1.2787 H   0  0  0  0  0  0  0  0  0  0  0  0
   -2.4940    3.1110    2.6958 H   0  0  0  0  0  0  0  0  0  0  0  0
   -3.0288    3.9858    1.2496 H   0  0  0  0  0  0  0  0  0  0  0  0
   -0.5651    3.8864    1.4476 H   0  0  0  0  0  0  0  0  0  0  0  0
   -0.6049    2.1221    1.4278 H   0  0  0  0  0  0  0  0  0  0  0  0
   -1.7753    3.7741   -0.8610 H   0  0  0  0  0  0  0  0  0  0  0  0
   -1.3703    2.0644   -0.8752 H   0  0  0  0  0  0  0  0  0  0  0  0
    0.2734    3.4217   -2.1258 H   0  0  0  0  0  0  0  0  0  0  0  0
    0.5553    4.4342   -0.7207 H   0  0  0  0  0  0  0  0  0  0  0  0
    1.5607    2.4865    0.4999 H   0  0  0  0  0  0  0  0  0  0  0  0
    2.4111    2.9692   -0.9476 H   0  0  0  0  0  0  0  0  0  0  0  0
    1.2732    1.0714   -2.2252 H   0  0  0  0  0  0  0  0  0  0  0  0
    0.4881    0.5957   -0.7226 H   0  0  0  0  0  0  0  0  0  0  0  0
    2.3004   -0.6798   -0.5792 H   0  0  0  0  0  0  0  0  0  0  0  0
    4.9273    1.2432   -2.5909 H   0  0  0  0  0  0  0  0  0  0  0  0
    4.4812   -0.6281    0.1460 H   0  0  0  0  0  0  0  0  0  0  0  0
    5.4308   -0.6505   -3.0167 H   0  0  0  0  0  0  0  0  0  0  0  0
    6.6639   -0.3570    0.6358 H   0  0  0  0  0  0  0  0  0  0  0  0
    8.5875   -0.7757    1.7954 H   0  0  0  0  0  0  0  0  0  0  0  0
   10.8375   -1.7523    1.8568 H   0  0  0  0  0  0  0  0  0  0  0  0
   10.1938   -3.4989   -2.0202 H   0  0  0  0  0  0  0  0  0  0  0  0
    7.9463   -2.5372   -2.0944 H   0  0  0  0  0  0  0  0  0  0  0  0
   -4.4845    0.0745    0.3875 H   0  0  0  0  0  0  0  0  0  0  0  0
   -6.8993    1.3092    2.2665 H   0  0  0  0  0  0  0  0  0  0  0  0
   -6.0651   -1.0194   -0.6458 H   0  0  0  0  0  0  0  0  0  0  0  0
   -8.2564   -1.7129    2.2733 H   0  0  0  0  0  0  0  0  0  0  0  0
   -9.9709   -3.4549    2.2082 H   0  0  0  0  0  0  0  0  0  0  0  0
   -8.7060   -4.5798   -1.7463 H   0  0  0  0  0  0  0  0  0  0  0  0
   -6.9889   -2.8273   -1.6994 H   0  0  0  0  0  0  0  0  0  0  0  0
  1  2  2  3
  2  3  1  0
  3  4  1  0
  4  5  1  0
  5  6  1  0
  6  7  1  0
  7  8  1  0
  8  9  1  0
  9 10  1  0
 10 11  1  0
 11 12  2  3
 11 13  1  0
 13 14  1  0
 14 15  2  3
 14 16  1  0
 16 17  1  0
 17 18  2  0
 18 19  1  0
 19 20  2  0
 20 21  1  0
 20 22  1  0
 22 23  2  0
  2 24  1  0
 24 25  1  0
 25 26  2  3
 25 27  1  0
 27 28  1  0
 28 29  2  0
 29 30  1  0
 30 31  2  0
 31 32  1  0
 31 33  1  0
 33 34  2  0
 23 17  1  0
 34 28  1  0
  1 35  1  0
  3 36  1  0
  4 37  1  0
  4 38  1  0
  5 39  1  0
  5 40  1  0
  6 41  1  0
  6 42  1  0
  7 43  1  0
  7 44  1  0
  8 45  1  0
  8 46  1  0
  9 47  1  0
  9 48  1  0
 10 49  1  0
 12 50  1  0
 13 51  1  0
 15 52  1  0
 16 53  1  0
 18 54  1  0
 19 55  1  0
 22 56  1  0
 23 57  1  0
 24 58  1  0
 26 59  1  0
 27 60  1  0
 29 61  1  0
 30 62  1  0
 33 63  1  0
 34 64  1  0
M  END
$$$$
