
     RDKit          3D

 21 22  0  0  0  0  0  0  0  0999 V2000
    3.2008   -1.0221   -0.2506 C   0  0  0  0  0  0  0  0  0  0  0  0
    1.8887   -0.2972   -0.2127 C   0  0  0  0  0  0  0  0  0  0  0  0
    1.8335    1.0588   -0.4920 C   0  0  0  0  0  0  0  0  0  0  0  0
    0.5979    1.6981   -0.4471 C   0  0  0  0  0  0  0  0  0  0  0  0
   -0.5721    0.9792   -0.1240 C   0  0  0  0  0  0  0  0  0  0  0  0
   -1.8746    1.5359   -0.0519 C   0  0  0  0  0  0  0  0  0  0  0  0
   -2.1662    3.2145   -0.3650 Cl  0  0  0  0  0  0  0  0  0  0  0  0
   -2.9806    0.7500    0.2761 C   0  0  0  0  0  0  0  0  0  0  0  0
   -2.8047   -0.6028    0.5371 C   0  0  0  0  0  0  0  0  0  0  0  0
   -4.1838   -1.5557    0.9403 Cl  0  0  0  0  0  0  0  0  0  0  0  0
   -1.5274   -1.1570    0.4681 C   0  0  0  0  0  0  0  0  0  0  0  0
   -1.3374   -2.4985    0.7246 O   0  0  0  0  0  0  0  0  0  0  0  0
   -0.4087   -0.3941    0.1432 C   0  0  0  0  0  0  0  0  0  0  0  0
    0.7875   -1.0191    0.1010 N   0  0  0  0  0  0  0  0  0  0  0  0
    3.8933   -0.5890    0.4779 H   0  0  0  0  0  0  0  0  0  0  0  0
    3.0677   -2.0810   -0.0067 H   0  0  0  0  0  0  0  0  0  0  0  0
    3.6411   -0.9553   -1.2503 H   0  0  0  0  0  0  0  0  0  0  0  0
    2.7311    1.6161   -0.7411 H   0  0  0  0  0  0  0  0  0  0  0  0
    0.5585    2.7627   -0.6669 H   0  0  0  0  0  0  0  0  0  0  0  0
   -3.9729    1.1908    0.3275 H   0  0  0  0  0  0  0  0  0  0  0  0
   -0.3716   -2.6342    0.6124 H   0  0  0  0  0  0  0  0  0  0  0  0
  1  2  1  0
  2  3  2  0
  3  4  1  0
  4  5  2  0
  5  6  1  0
  6  7  1  0
  6  8  2  0
  8  9  1  0
  9 10  1  0
  9 11  2  0
 11 12  1  0
 11 13  1  0
 13 14  2  0
 14  2  1  0
 13  5  1  0
  1 15  1  0
  1 16  1  0
  1 17  1  0
  3 18  1  0
  4 19  1  0
  8 20  1  0
 12 21  1  0
M  END
$$$$
