
     RDKit          3D

 44 45  0  0  0  0  0  0  0  0999 V2000
   -4.9338    0.0728   -0.5227 C   0  0  0  0  0  0  0  0  0  0  0  0
   -3.6925    0.5529    0.1011 N   0  0  0  0  0  0  0  0  0  0  0  0
   -3.9430    0.7129    1.5214 C   0  0  0  0  0  0  0  0  0  0  0  0
   -2.6869   -0.4544   -0.1658 C   0  0  0  0  0  0  0  0  0  0  0  0
   -1.3910   -0.0523    0.4308 C   0  0  0  0  0  0  0  0  0  0  0  0
   -0.2413   -0.9332    0.2888 C   0  0  0  0  0  0  0  0  0  0  0  0
    0.9179   -0.5072   -0.0923 C   0  0  0  0  0  0  0  0  0  0  0  0
    1.0481    0.9247   -0.3930 C   0  0  0  0  0  0  0  0  0  0  0  0
   -0.0294    1.3161   -1.1283 C   0  0  0  0  0  0  0  0  0  0  0  0
   -0.0607    2.6643   -1.4383 C   0  0  0  0  0  0  0  0  0  0  0  0
    0.9573    3.5330   -1.0156 C   0  0  0  0  0  0  0  0  0  0  0  0
    2.0318    3.0349   -0.2644 C   0  0  0  0  0  0  0  0  0  0  0  0
    2.1041    1.7015    0.0687 C   0  0  0  0  0  0  0  0  0  0  0  0
    3.3191    1.3503    0.8262 C   0  0  0  0  0  0  0  0  0  0  0  0
    3.8739    0.0948    0.5835 O   0  0  0  0  0  0  0  0  0  0  0  0
    3.3567   -1.1425    0.2239 C   0  0  0  0  0  0  0  0  0  0  0  0
    4.2717   -2.1689    0.1920 C   0  0  0  0  0  0  0  0  0  0  0  0
    3.8657   -3.4402   -0.1538 C   0  0  0  0  0  0  0  0  0  0  0  0
    2.5346   -3.7311   -0.4800 C   0  0  0  0  0  0  0  0  0  0  0  0
    1.5866   -2.7111   -0.4565 C   0  0  0  0  0  0  0  0  0  0  0  0
    2.0627   -1.4817   -0.1040 C   0  0  0  0  0  0  0  0  0  0  0  0
    0.6865    0.0000    0.0000 Cl  0  0  0  0  0  0  0  0  0  0  0  0
   -5.8132    0.5760   -0.1118 H   0  0  0  0  0  0  0  0  0  0  0  0
   -4.8186    0.1912   -1.6167 H   0  0  0  0  0  0  0  0  0  0  0  0
   -4.9559   -1.0273   -0.3303 H   0  0  0  0  0  0  0  0  0  0  0  0
   -4.9254    1.2497    1.6031 H   0  0  0  0  0  0  0  0  0  0  0  0
   -3.1870    1.3715    2.0001 H   0  0  0  0  0  0  0  0  0  0  0  0
   -4.0237   -0.2645    2.0291 H   0  0  0  0  0  0  0  0  0  0  0  0
   -2.7217   -0.6377   -1.2471 H   0  0  0  0  0  0  0  0  0  0  0  0
   -3.0341   -1.3934    0.3034 H   0  0  0  0  0  0  0  0  0  0  0  0
   -1.6896   -0.2750    1.5344 H   0  0  0  0  0  0  0  0  0  0  0  0
   -1.2339    0.9919    0.7289 H   0  0  0  0  0  0  0  0  0  0  0  0
   -0.3574   -1.9799    0.5256 H   0  0  0  0  0  0  0  0  0  0  0  0
   -0.7570    0.6467   -1.5121 H   0  0  0  0  0  0  0  0  0  0  0  0
   -0.9056    3.0356   -2.0250 H   0  0  0  0  0  0  0  0  0  0  0  0
    0.9015    4.5832   -1.2754 H   0  0  0  0  0  0  0  0  0  0  0  0
    2.7864    3.7528    0.0309 H   0  0  0  0  0  0  0  0  0  0  0  0
    3.0928    1.4513    1.9230 H   0  0  0  0  0  0  0  0  0  0  0  0
    4.0567    2.1838    0.6271 H   0  0  0  0  0  0  0  0  0  0  0  0
    5.2941   -1.9668    0.4377 H   0  0  0  0  0  0  0  0  0  0  0  0
    4.5862   -4.2686   -0.1827 H   0  0  0  0  0  0  0  0  0  0  0  0
    2.2063   -4.7178   -0.7512 H   0  0  0  0  0  0  0  0  0  0  0  0
    0.5474   -2.8383   -0.7126 H   0  0  0  0  0  0  0  0  0  0  0  0
   -0.6865    0.0000    0.0000 H   0  0  0  0  0  0  0  0  0  0  0  0
  1  2  1  0
  2  3  1  0
  2  4  1  0
  4  5  1  0
  5  6  1  0
  6  7  2  0
  7  8  1  0
  8  9  2  0
  9 10  1  0
 10 11  2  0
 11 12  1  0
 12 13  2  0
 13 14  1  0
 14 15  1  0
 15 16  1  0
 16 17  2  0
 17 18  1  0
 18 19  2  0
 19 20  1  0
 20 21  2  0
 21  7  1  0
 13  8  1  0
 21 16  1  0
  1 23  1  0
  1 24  1  0
  1 25  1  0
  3 26  1  0
  3 27  1  0
  3 28  1  0
  4 29  1  0
  4 30  1  0
  5 31  1  0
  5 32  1  0
  6 33  1  0
  9 34  1  0
 10 35  1  0
 11 36  1  0
 12 37  1  0
 14 38  1  0
 14 39  1  0
 17 40  1  0
 18 41  1  0
 19 42  1  0
 20 43  1  0
 22 44  1  0
M  END
$$$$
