
     RDKit          3D

 37 39  0  0  0  0  0  0  0  0999 V2000
    2.9044    1.2685    2.0740 O   0  0  0  0  0  0  0  0  0  0  0  0
    2.3148    0.7971    1.1107 C   0  0  0  0  0  0  0  0  0  0  0  0
    0.9362    0.7953    0.9027 N   0  0  0  0  0  0  0  0  0  0  0  0
   -0.1020    1.4713    1.5663 C   0  0  0  0  0  0  0  0  0  0  0  0
    0.1212    2.6023    2.7866 S   0  0  0  0  0  0  0  0  0  0  0  0
   -1.3804    1.1461    1.0281 N   0  0  0  0  0  0  0  0  0  0  0  0
   -2.3433    2.2399    0.8032 C   0  0  0  0  0  0  0  0  0  0  0  0
   -3.7081    1.8147    0.2838 C   0  0  0  0  0  0  0  0  0  0  0  0
   -3.5410    0.8526   -0.8758 C   0  0  0  0  0  0  0  0  0  0  0  0
   -2.7503   -0.3322   -0.3979 C   0  0  0  0  0  0  0  0  0  0  0  0
   -3.0354   -1.6073   -0.9116 C   0  0  0  0  0  0  0  0  0  0  0  0
   -2.3419   -2.7251   -0.4540 C   0  0  0  0  0  0  0  0  0  0  0  0
   -1.3675   -2.5793    0.5267 C   0  0  0  0  0  0  0  0  0  0  0  0
   -1.0647   -1.3105    1.0263 C   0  0  0  0  0  0  0  0  0  0  0  0
   -1.7198   -0.1659    0.5439 C   0  0  0  0  0  0  0  0  0  0  0  0
    3.1167    0.1334    0.0430 C   0  0  0  0  0  0  0  0  0  0  0  0
    4.3909    0.6435   -0.2374 C   0  0  0  0  0  0  0  0  0  0  0  0
    5.1779    0.0605   -1.2316 C   0  0  0  0  0  0  0  0  0  0  0  0
    4.7000   -1.0397   -1.9423 C   0  0  0  0  0  0  0  0  0  0  0  0
    3.4399   -1.5646   -1.6551 C   0  0  0  0  0  0  0  0  0  0  0  0
    2.6480   -0.9844   -0.6611 C   0  0  0  0  0  0  0  0  0  0  0  0
    0.6305    0.4125    0.0208 H   0  0  0  0  0  0  0  0  0  0  0  0
   -2.4922    2.7921    1.7369 H   0  0  0  0  0  0  0  0  0  0  0  0
   -1.8737    2.9330    0.0930 H   0  0  0  0  0  0  0  0  0  0  0  0
   -4.2804    2.6952   -0.0287 H   0  0  0  0  0  0  0  0  0  0  0  0
   -4.2740    1.3329    1.0922 H   0  0  0  0  0  0  0  0  0  0  0  0
   -4.5309    0.5416   -1.2288 H   0  0  0  0  0  0  0  0  0  0  0  0
   -3.0171    1.3278   -1.7133 H   0  0  0  0  0  0  0  0  0  0  0  0
   -3.8156   -1.7367   -1.6589 H   0  0  0  0  0  0  0  0  0  0  0  0
   -2.5808   -3.7116   -0.8437 H   0  0  0  0  0  0  0  0  0  0  0  0
   -0.8515   -3.4535    0.9162 H   0  0  0  0  0  0  0  0  0  0  0  0
   -0.3314   -1.2409    1.8273 H   0  0  0  0  0  0  0  0  0  0  0  0
    4.7721    1.4978    0.3198 H   0  0  0  0  0  0  0  0  0  0  0  0
    6.1652    0.4622   -1.4465 H   0  0  0  0  0  0  0  0  0  0  0  0
    5.3164   -1.4959   -2.7134 H   0  0  0  0  0  0  0  0  0  0  0  0
    3.0799   -2.4346   -2.1994 H   0  0  0  0  0  0  0  0  0  0  0  0
    1.6879   -1.4380   -0.4339 H   0  0  0  0  0  0  0  0  0  0  0  0
  1  2  2  0
  2  3  1  0
  3  4  1  0
  4  5  2  0
  4  6  1  0
  6  7  1  0
  7  8  1  0
  8  9  1  0
  9 10  1  0
 10 11  2  0
 11 12  1  0
 12 13  2  0
 13 14  1  0
 14 15  2  0
  2 16  1  0
 16 17  2  0
 17 18  1  0
 18 19  2  0
 19 20  1  0
 20 21  2  0
 15  6  1  0
 21 16  1  0
 15 10  1  0
  3 22  1  0
  7 23  1  0
  7 24  1  0
  8 25  1  0
  8 26  1  0
  9 27  1  0
  9 28  1  0
 11 29  1  0
 12 30  1  0
 13 31  1  0
 14 32  1  0
 17 33  1  0
 18 34  1  0
 19 35  1  0
 20 36  1  0
 21 37  1  0
M  END
$$$$
