
     RDKit          3D

 26 27  0  0  0  0  0  0  0  0999 V2000
    4.5164   -1.3413   -0.7227 N   0  0  0  0  0  0  0  0  0  0  0  0
    3.7707   -0.5500    0.1257 C   0  0  0  0  0  0  0  0  0  0  0  0
    4.4331    0.1832    1.0234 N   0  0  0  0  0  0  0  0  0  0  0  0
    3.6871    0.9581    1.8288 C   0  0  0  0  0  0  0  0  0  0  0  0
    2.3182    1.0319    1.7535 C   0  0  0  0  0  0  0  0  0  0  0  0
    1.7312    0.2513    0.7810 C   0  0  0  0  0  0  0  0  0  0  0  0
    0.2689    0.2639    0.6142 C   0  0  0  0  0  0  0  0  0  0  0  0
   -0.3861   -0.4604   -0.3087 C   0  0  0  0  0  0  0  0  0  0  0  0
   -1.8445   -0.4358   -0.4817 C   0  0  0  0  0  0  0  0  0  0  0  0
   -2.7259   -0.4400    0.6073 C   0  0  0  0  0  0  0  0  0  0  0  0
   -4.1081   -0.4435    0.4021 C   0  0  0  0  0  0  0  0  0  0  0  0
   -4.6218   -0.4529   -0.8931 C   0  0  0  0  0  0  0  0  0  0  0  0
   -3.7549   -0.4652   -1.9836 C   0  0  0  0  0  0  0  0  0  0  0  0
   -2.3729   -0.4627   -1.7785 C   0  0  0  0  0  0  0  0  0  0  0  0
    2.4476   -0.5379   -0.0449 N   0  0  0  0  0  0  0  0  0  0  0  0
    5.4520   -0.9686   -0.7979 H   0  0  0  0  0  0  0  0  0  0  0  0
    4.0045   -1.4954   -1.5795 H   0  0  0  0  0  0  0  0  0  0  0  0
    4.2427    1.5371    2.5604 H   0  0  0  0  0  0  0  0  0  0  0  0
    1.7514    1.6672    2.4194 H   0  0  0  0  0  0  0  0  0  0  0  0
   -0.2802    0.9181    1.2847 H   0  0  0  0  0  0  0  0  0  0  0  0
    0.1605   -1.0977   -1.0012 H   0  0  0  0  0  0  0  0  0  0  0  0
   -2.3471   -0.4555    1.6261 H   0  0  0  0  0  0  0  0  0  0  0  0
   -4.7827   -0.4464    1.2542 H   0  0  0  0  0  0  0  0  0  0  0  0
   -5.6969   -0.4576   -1.0524 H   0  0  0  0  0  0  0  0  0  0  0  0
   -4.1526   -0.4793   -2.9950 H   0  0  0  0  0  0  0  0  0  0  0  0
   -1.7108   -0.4742   -2.6416 H   0  0  0  0  0  0  0  0  0  0  0  0
  1  2  1  0
  2  3  2  0
  3  4  1  0
  4  5  2  0
  5  6  1  0
  6  7  1  0
  7  8  2  0
  8  9  1  0
  9 10  2  0
 10 11  1  0
 11 12  2  0
 12 13  1  0
 13 14  2  0
  6 15  2  0
 15  2  1  0
 14  9  1  0
  1 16  1  0
  1 17  1  0
  4 18  1  0
  5 19  1  0
  7 20  1  0
  8 21  1  0
 10 22  1  0
 11 23  1  0
 12 24  1  0
 13 25  1  0
 14 26  1  0
M  END
$$$$
