
     RDKit          3D

 37 39  0  0  0  0  0  0  0  0999 V2000
    2.5768   -2.6966    0.7605 O   0  0  0  0  0  0  0  0  0  0  0  0
    2.3763   -2.5150   -0.4260 C   0  0  0  0  0  0  0  0  0  0  0  0
    2.4985   -3.5149   -1.3165 O   0  0  0  0  0  0  0  0  0  0  0  0
    1.9872   -1.2294   -1.0541 C   0  0  0  0  0  0  0  0  0  0  0  0
    1.7432   -1.1155   -2.4296 C   0  0  0  0  0  0  0  0  0  0  0  0
    1.3779    0.1156   -2.9807 C   0  0  0  0  0  0  0  0  0  0  0  0
    1.2360    1.2342   -2.1594 C   0  0  0  0  0  0  0  0  0  0  0  0
    1.4499    1.1127   -0.7825 C   0  0  0  0  0  0  0  0  0  0  0  0
    1.2792    2.5366    0.2717 S   0  0  0  0  0  6  0  0  0  0  0  0
    1.1889    3.6995   -0.5874 O   0  0  0  0  0  0  0  0  0  0  0  0
    2.3162    2.4410    1.2773 O   0  0  0  0  0  0  0  0  0  0  0  0
   -0.2129    2.3368    1.0274 N   0  0  0  0  0  0  0  0  0  0  0  0
   -1.4636    2.6025    0.2899 C   0  0  0  0  0  0  0  0  0  0  0  0
   -1.9889    1.3628   -0.4311 C   0  0  0  0  0  0  0  0  0  0  0  0
   -1.8755    0.0963    0.3806 C   0  0  0  0  0  0  0  0  0  0  0  0
   -2.5255   -1.0650   -0.0608 C   0  0  0  0  0  0  0  0  0  0  0  0
   -2.3972   -2.2594    0.6467 C   0  0  0  0  0  0  0  0  0  0  0  0
   -1.6165   -2.3062    1.7983 C   0  0  0  0  0  0  0  0  0  0  0  0
   -0.9613   -1.1589    2.2441 C   0  0  0  0  0  0  0  0  0  0  0  0
   -1.0741    0.0470    1.5363 C   0  0  0  0  0  0  0  0  0  0  0  0
   -0.3580    1.2778    2.0425 C   0  0  0  0  0  0  0  0  0  0  0  0
    1.8598   -0.1055   -0.2314 C   0  0  0  0  0  0  0  0  0  0  0  0
    2.7590   -4.2848   -0.7684 H   0  0  0  0  0  0  0  0  0  0  0  0
    1.8426   -1.9799   -3.0825 H   0  0  0  0  0  0  0  0  0  0  0  0
    1.2050    0.2008   -4.0513 H   0  0  0  0  0  0  0  0  0  0  0  0
    0.9556    2.1901   -2.5973 H   0  0  0  0  0  0  0  0  0  0  0  0
   -2.2093    2.9448    1.0201 H   0  0  0  0  0  0  0  0  0  0  0  0
   -1.3431    3.4314   -0.4149 H   0  0  0  0  0  0  0  0  0  0  0  0
   -1.4412    1.2191   -1.3674 H   0  0  0  0  0  0  0  0  0  0  0  0
   -3.0387    1.5343   -0.6990 H   0  0  0  0  0  0  0  0  0  0  0  0
   -3.1318   -1.0458   -0.9638 H   0  0  0  0  0  0  0  0  0  0  0  0
   -2.9040   -3.1553    0.2976 H   0  0  0  0  0  0  0  0  0  0  0  0
   -1.5136   -3.2381    2.3487 H   0  0  0  0  0  0  0  0  0  0  0  0
   -0.3505   -1.2157    3.1433 H   0  0  0  0  0  0  0  0  0  0  0  0
    0.6171    0.9975    2.4542 H   0  0  0  0  0  0  0  0  0  0  0  0
   -0.9342    1.6922    2.8797 H   0  0  0  0  0  0  0  0  0  0  0  0
    2.0705   -0.1868    0.8330 H   0  0  0  0  0  0  0  0  0  0  0  0
  1  2  2  0
  2  3  1  0
  2  4  1  0
  4  5  2  0
  5  6  1  0
  6  7  2  0
  7  8  1  0
  8  9  1  0
  9 10  2  0
  9 11  2  0
  9 12  1  0
 12 13  1  0
 13 14  1  0
 14 15  1  0
 15 16  2  0
 16 17  1  0
 17 18  2  0
 18 19  1  0
 19 20  2  0
 20 21  1  0
  8 22  2  0
 22  4  1  0
 21 12  1  0
 20 15  1  0
  3 23  1  0
  5 24  1  0
  6 25  1  0
  7 26  1  0
 13 27  1  0
 13 28  1  0
 14 29  1  0
 14 30  1  0
 16 31  1  0
 17 32  1  0
 18 33  1  0
 19 34  1  0
 21 35  1  0
 21 36  1  0
 22 37  1  0
M  END
$$$$
