
     RDKit          3D

 54 57  0  0  0  0  0  0  0  0999 V2000
    3.9449    3.4938   -1.1558 C   0  0  0  0  0  0  0  0  0  0  0  0
    3.9523    2.2738   -0.4590 O   0  0  0  0  0  0  0  0  0  0  0  0
    2.8336    1.4553   -0.3840 C   0  0  0  0  0  0  0  0  0  0  0  0
    1.8059    1.8307   -0.9567 O   0  0  0  0  0  0  0  0  0  0  0  0
    2.8814    0.1808    0.3545 C   0  0  2  0  0  0  0  0  0  0  0  0
    3.7762   -0.7162   -0.4712 C   0  0  1  0  0  0  0  0  0  0  0  0
    5.0731   -0.2194   -0.4451 O   0  0  0  0  0  0  0  0  0  0  0  0
    3.7692   -2.1550   -0.0242 C   0  0  0  0  0  0  0  0  0  0  0  0
    2.3045   -2.5733   -0.2478 C   0  0  0  0  0  0  0  0  0  0  0  0
    1.5748   -1.8830    0.8988 C   0  0  2  0  0  0  0  0  0  0  0  0
    0.2669   -2.5278    1.0499 C   0  0  0  0  0  0  0  0  0  0  0  0
   -0.8635   -1.7751    0.5808 N   0  0  0  0  0  0  0  0  0  0  0  0
   -1.3044   -2.0953   -0.7189 C   0  0  0  0  0  0  0  0  0  0  0  0
   -2.0626   -1.0528   -1.4470 C   0  0  0  0  0  0  0  0  0  0  0  0
   -2.7020   -0.0464   -0.5643 C   0  0  0  0  0  0  0  0  0  0  0  0
   -2.0900    0.2736    0.6190 C   0  0  0  0  0  0  0  0  0  0  0  0
   -2.8475    1.2037    1.2506 N   0  0  0  0  0  0  0  0  0  0  0  0
   -3.9268    1.5036    0.5296 C   0  0  0  0  0  0  0  0  0  0  0  0
   -4.9868    2.3694    0.7247 C   0  0  0  0  0  0  0  0  0  0  0  0
   -5.9694    2.4510   -0.2341 C   0  0  0  0  0  0  0  0  0  0  0  0
   -5.9065    1.6788   -1.3850 C   0  0  0  0  0  0  0  0  0  0  0  0
   -4.8340    0.8174   -1.5592 C   0  0  0  0  0  0  0  0  0  0  0  0
   -3.8502    0.7265   -0.6138 C   0  0  0  0  0  0  0  0  0  0  0  0
   -0.8197   -0.4130    0.9400 C   0  0  2  0  0  0  0  0  0  0  0  0
    0.3626    0.2388    0.2442 C   0  0  0  0  0  0  0  0  0  0  0  0
    1.6107   -0.3867    0.8289 C   0  0  2  0  0  0  0  0  0  0  0  0
    0.6870    0.0000    0.0000 Cl  0  0  0  0  0  0  0  0  0  0  0  0
    3.6631    4.2941   -0.4379 H   0  0  0  0  0  0  0  0  0  0  0  0
    3.2121    3.4772   -1.9903 H   0  0  0  0  0  0  0  0  0  0  0  0
    4.9402    3.7452   -1.5901 H   0  0  0  0  0  0  0  0  0  0  0  0
    3.5442    0.4215    1.2662 H   0  0  0  0  0  0  0  0  0  0  0  0
    3.3497   -0.7043   -1.5088 H   0  0  0  0  0  0  0  0  0  0  0  0
    5.2599    0.2961    0.3591 H   0  0  0  0  0  0  0  0  0  0  0  0
    3.9959   -2.2225    1.0718 H   0  0  0  0  0  0  0  0  0  0  0  0
    4.4608   -2.7317   -0.6299 H   0  0  0  0  0  0  0  0  0  0  0  0
    1.9865   -2.2261   -1.2308 H   0  0  0  0  0  0  0  0  0  0  0  0
    2.2439   -3.6463   -0.0689 H   0  0  0  0  0  0  0  0  0  0  0  0
    2.1935   -2.1755    1.8027 H   0  0  0  0  0  0  0  0  0  0  0  0
    0.0473   -2.7760    2.1304 H   0  0  0  0  0  0  0  0  0  0  0  0
    0.2254   -3.5219    0.5354 H   0  0  0  0  0  0  0  0  0  0  0  0
   -1.8809   -3.0650   -0.6615 H   0  0  0  0  0  0  0  0  0  0  0  0
   -0.4060   -2.3641   -1.3484 H   0  0  0  0  0  0  0  0  0  0  0  0
   -1.4858   -0.5577   -2.2736 H   0  0  0  0  0  0  0  0  0  0  0  0
   -2.9155   -1.5631   -1.9864 H   0  0  0  0  0  0  0  0  0  0  0  0
   -2.5943    1.6094    2.1720 H   0  0  0  0  0  0  0  0  0  0  0  0
   -5.0796    2.9902    1.6032 H   0  0  0  0  0  0  0  0  0  0  0  0
   -6.7923    3.1231   -0.0827 H   0  0  0  0  0  0  0  0  0  0  0  0
   -6.6796    1.7394   -2.1450 H   0  0  0  0  0  0  0  0  0  0  0  0
   -4.8029    0.2253   -2.4606 H   0  0  0  0  0  0  0  0  0  0  0  0
   -0.6469   -0.3235    2.0312 H   0  0  0  0  0  0  0  0  0  0  0  0
    0.3192    1.2975    0.5883 H   0  0  0  0  0  0  0  0  0  0  0  0
    0.3184    0.0774   -0.8251 H   0  0  0  0  0  0  0  0  0  0  0  0
    1.5308   -0.0723    1.9348 H   0  0  0  0  0  0  0  0  0  0  0  0
   -0.6870    0.0000    0.0000 H   0  0  0  0  0  0  0  0  0  0  0  0
  1  2  1  0
  2  3  1  0
  3  4  2  0
  3  5  1  0
  5  6  1  0
  6  7  1  0
  6  8  1  0
  8  9  1  0
  9 10  1  0
 10 11  1  0
 11 12  1  0
 12 13  1  0
 13 14  1  0
 14 15  1  0
 15 16  2  0
 16 17  1  0
 17 18  1  0
 18 19  2  0
 19 20  1  0
 20 21  2  0
 21 22  1  0
 22 23  2  0
 16 24  1  0
 24 25  1  0
 25 26  1  0
 26  5  1  0
 26 10  1  0
 24 12  1  0
 23 15  1  0
 23 18  1  0
  1 28  1  0
  1 29  1  0
  1 30  1  0
  5 31  1  1
  6 32  1  6
  7 33  1  0
  8 34  1  0
  8 35  1  0
  9 36  1  0
  9 37  1  0
 10 38  1  1
 11 39  1  0
 11 40  1  0
 13 41  1  0
 13 42  1  0
 14 43  1  0
 14 44  1  0
 17 45  1  0
 19 46  1  0
 20 47  1  0
 21 48  1  0
 22 49  1  0
 24 50  1  1
 25 51  1  0
 25 52  1  0
 26 53  1  1
 27 54  1  0
M  END
$$$$
