
     RDKit          3D

 52 55  0  0  0  0  0  0  0  0999 V2000
   -4.1696   -1.5387   -3.6233 C   0  0  0  0  0  0  0  0  0  0  0  0
   -4.3854   -2.0599   -2.2264 C   0  0  0  0  0  0  0  0  0  0  0  0
   -5.1867   -2.9647   -1.9992 O   0  0  0  0  0  0  0  0  0  0  0  0
   -3.6295   -1.4816   -1.2301 N   0  0  0  0  0  0  0  0  0  0  0  0
   -3.8031   -1.8827    0.1594 C   0  0  0  0  0  0  0  0  0  0  0  0
   -3.0036   -0.8707    0.9758 C   0  0  0  0  0  0  0  0  0  0  0  0
   -3.8669    0.2572    1.4129 C   0  0  0  0  0  0  0  0  0  0  0  0
   -3.9853    1.4713    0.9241 N   0  0  0  0  0  0  0  0  0  0  0  0
   -4.9164    2.0276    1.7643 C   0  0  0  0  0  0  0  0  0  0  0  0
   -5.3885    3.4161    1.6128 C   0  0  0  0  0  0  0  0  0  0  0  0
   -5.3494    1.2193    2.7398 N   0  0  0  0  0  0  0  0  0  0  0  0
   -4.6516    0.0343    2.5074 O   0  0  0  0  0  0  0  0  0  0  0  0
   -1.9376   -0.4397   -0.0348 C   0  0  0  0  0  0  0  0  0  0  0  0
   -2.6244   -0.4415   -1.4022 C   0  0  0  0  0  0  0  0  0  0  0  0
   -0.6483   -1.3060   -0.0026 C   0  0  0  0  0  0  0  0  0  0  0  0
    0.0803   -0.0618   -0.1491 N   0  0  0  0  0  0  0  0  0  0  0  0
    1.4205    0.2259   -0.0815 C   0  0  0  0  0  0  0  0  0  0  0  0
    1.8297    1.3688    0.1130 O   0  0  0  0  0  0  0  0  0  0  0  0
    2.3487   -0.9872   -0.2634 C   0  0  0  0  0  0  0  0  0  0  0  0
    3.7343   -0.7176   -0.3826 O   0  0  0  0  0  0  0  0  0  0  0  0
    4.3413   -0.3778    0.8611 C   0  0  0  0  0  0  0  0  0  0  0  0
    5.7650    0.0348    0.5981 C   0  0  0  0  0  0  0  0  0  0  0  0
    6.0366    1.2857    0.0250 C   0  0  0  0  0  0  0  0  0  0  0  0
    7.3515    1.6807   -0.2250 C   0  0  0  0  0  0  0  0  0  0  0  0
    8.4072    0.8272    0.0897 C   0  0  0  0  0  0  0  0  0  0  0  0
    8.1488   -0.4230    0.6498 C   0  0  0  0  0  0  0  0  0  0  0  0
    6.8336   -0.8197    0.9007 C   0  0  0  0  0  0  0  0  0  0  0  0
   -1.0306    0.7766    0.2704 C   0  0  0  0  0  0  0  0  0  0  0  0
   -4.9236   -1.9675   -4.2902 H   0  0  0  0  0  0  0  0  0  0  0  0
   -4.2748   -0.4510   -3.6471 H   0  0  0  0  0  0  0  0  0  0  0  0
   -3.1794   -1.8323   -3.9809 H   0  0  0  0  0  0  0  0  0  0  0  0
   -4.8658   -1.9419    0.4181 H   0  0  0  0  0  0  0  0  0  0  0  0
   -3.3688   -2.8853    0.2536 H   0  0  0  0  0  0  0  0  0  0  0  0
   -2.5695   -1.3394    1.8665 H   0  0  0  0  0  0  0  0  0  0  0  0
   -5.4844    3.6750    0.5537 H   0  0  0  0  0  0  0  0  0  0  0  0
   -4.6776    4.1094    2.0729 H   0  0  0  0  0  0  0  0  0  0  0  0
   -6.3655    3.5601    2.0854 H   0  0  0  0  0  0  0  0  0  0  0  0
   -3.1456    0.5002   -1.6040 H   0  0  0  0  0  0  0  0  0  0  0  0
   -1.9581   -0.6727   -2.2383 H   0  0  0  0  0  0  0  0  0  0  0  0
   -0.4275   -1.8092    0.9444 H   0  0  0  0  0  0  0  0  0  0  0  0
   -0.5108   -2.0034   -0.8330 H   0  0  0  0  0  0  0  0  0  0  0  0
    2.1767   -1.6941    0.5569 H   0  0  0  0  0  0  0  0  0  0  0  0
    2.0504   -1.4821   -1.1944 H   0  0  0  0  0  0  0  0  0  0  0  0
    4.3097   -1.2463    1.5296 H   0  0  0  0  0  0  0  0  0  0  0  0
    3.8139    0.4444    1.3567 H   0  0  0  0  0  0  0  0  0  0  0  0
    5.2158    1.9526   -0.2341 H   0  0  0  0  0  0  0  0  0  0  0  0
    7.5494    2.6521   -0.6700 H   0  0  0  0  0  0  0  0  0  0  0  0
    9.4308    1.1340   -0.1078 H   0  0  0  0  0  0  0  0  0  0  0  0
    8.9720   -1.0914    0.8873 H   0  0  0  0  0  0  0  0  0  0  0  0
    6.6484   -1.8015    1.3292 H   0  0  0  0  0  0  0  0  0  0  0  0
   -1.1796    1.6566   -0.3603 H   0  0  0  0  0  0  0  0  0  0  0  0
   -0.9563    1.0708    1.3220 H   0  0  0  0  0  0  0  0  0  0  0  0
  1  2  1  0
  2  3  2  0
  2  4  1  0
  4  5  1  0
  5  6  1  0
  6  7  1  0
  7  8  2  0
  8  9  1  0
  9 10  1  0
  9 11  2  0
 11 12  1  0
  6 13  1  0
 13 14  1  0
 13 15  1  0
 15 16  1  0
 16 17  1  0
 17 18  2  0
 17 19  1  0
 19 20  1  0
 20 21  1  0
 21 22  1  0
 22 23  2  0
 23 24  1  0
 24 25  2  0
 25 26  1  0
 26 27  2  0
 16 28  1  0
 14  4  1  0
 27 22  1  0
 12  7  1  0
 28 13  1  0
  1 29  1  0
  1 30  1  0
  1 31  1  0
  5 32  1  0
  5 33  1  0
  6 34  1  0
 10 35  1  0
 10 36  1  0
 10 37  1  0
 14 38  1  0
 14 39  1  0
 15 40  1  0
 15 41  1  0
 19 42  1  0
 19 43  1  0
 21 44  1  0
 21 45  1  0
 23 46  1  0
 24 47  1  0
 25 48  1  0
 26 49  1  0
 27 50  1  0
 28 51  1  0
 28 52  1  0
M  END
$$$$
