
     RDKit          3D

 42 44  0  0  0  0  0  0  0  0999 V2000
    8.1176    1.5878    0.6628 O   0  0  0  0  0  0  0  0  0  0  0  0
    6.9038    1.5931    0.7220 C   0  0  0  0  0  0  0  0  0  0  0  0
    6.2694    2.3499    1.6407 O   0  0  0  0  0  0  0  0  0  0  0  0
    5.9396    0.8409   -0.1202 C   0  0  0  0  0  0  0  0  0  0  0  0
    4.6823    0.4975    0.4028 C   0  0  0  0  0  0  0  0  0  0  0  0
    3.7630   -0.2275   -0.3609 C   0  0  0  0  0  0  0  0  0  0  0  0
    2.5243   -0.5808    0.2023 N   0  0  0  0  0  0  0  0  0  0  0  0
    1.5911   -0.0104   -0.4051 N   0  0  0  0  0  0  0  0  0  0  0  0
    0.3532   -0.3444    0.1731 C   0  0  0  0  0  0  0  0  0  0  0  0
   -0.1596   -1.6486    0.1059 C   0  0  0  0  0  0  0  0  0  0  0  0
   -1.4053   -1.9538    0.6602 C   0  0  0  0  0  0  0  0  0  0  0  0
   -2.1520   -0.9417    1.2706 C   0  0  0  0  0  0  0  0  0  0  0  0
   -3.7161   -1.3414    2.0097 S   0  0  0  0  0  6  0  0  0  0  0  0
   -3.5482   -2.6283    2.6583 O   0  0  0  0  0  0  0  0  0  0  0  0
   -4.2023   -0.2080    2.7677 O   0  0  0  0  0  0  0  0  0  0  0  0
   -4.7284   -1.6342    0.7132 N   0  0  0  0  0  0  0  0  0  0  0  0
   -5.2697   -0.5474    0.0051 C   0  0  0  0  0  0  0  0  0  0  0  0
   -6.5713   -0.6202   -0.4687 C   0  0  0  0  0  0  0  0  0  0  0  0
   -7.0535    0.4318   -1.2432 C   0  0  0  0  0  0  0  0  0  0  0  0
   -6.2144    1.5007   -1.5333 C   0  0  0  0  0  0  0  0  0  0  0  0
   -4.9206    1.4659   -1.0411 C   0  0  0  0  0  0  0  0  0  0  0  0
   -4.4287    0.4554   -0.2917 N   0  0  0  0  0  0  0  0  0  0  0  0
   -1.6543    0.3615    1.3486 C   0  0  0  0  0  0  0  0  0  0  0  0
   -0.4079    0.6561    0.7901 C   0  0  0  0  0  0  0  0  0  0  0  0
    4.1202   -0.6306   -1.6536 C   0  0  0  0  0  0  0  0  0  0  0  0
    5.3665   -0.2945   -2.1866 C   0  0  0  0  0  0  0  0  0  0  0  0
    6.2721    0.4418   -1.4206 C   0  0  0  0  0  0  0  0  0  0  0  0
    7.4744    0.7866   -1.9680 O   0  0  0  0  0  0  0  0  0  0  0  0
    7.0061    2.7988    2.1065 H   0  0  0  0  0  0  0  0  0  0  0  0
    4.4079    0.7891    1.4140 H   0  0  0  0  0  0  0  0  0  0  0  0
    0.4218   -2.4295   -0.3776 H   0  0  0  0  0  0  0  0  0  0  0  0
   -1.7839   -2.9719    0.6145 H   0  0  0  0  0  0  0  0  0  0  0  0
   -5.2828   -2.4745    0.8336 H   0  0  0  0  0  0  0  0  0  0  0  0
   -7.2092   -1.4655   -0.2399 H   0  0  0  0  0  0  0  0  0  0  0  0
   -8.0730    0.4160   -1.6183 H   0  0  0  0  0  0  0  0  0  0  0  0
   -6.5571    2.3376   -2.1319 H   0  0  0  0  0  0  0  0  0  0  0  0
   -4.2218    2.2723   -1.2456 H   0  0  0  0  0  0  0  0  0  0  0  0
   -2.2342    1.1486    1.8252 H   0  0  0  0  0  0  0  0  0  0  0  0
   -0.0224    1.6715    0.8374 H   0  0  0  0  0  0  0  0  0  0  0  0
    3.4155   -1.2071   -2.2483 H   0  0  0  0  0  0  0  0  0  0  0  0
    5.6088   -0.6096   -3.1974 H   0  0  0  0  0  0  0  0  0  0  0  0
    7.5795    0.3670   -2.8369 H   0  0  0  0  0  0  0  0  0  0  0  0
  1  2  2  0
  2  3  1  0
  2  4  1  0
  4  5  2  0
  5  6  1  0
  6  7  1  0
  7  8  2  0
  8  9  1  0
  9 10  2  0
 10 11  1  0
 11 12  2  0
 12 13  1  0
 13 14  2  0
 13 15  2  0
 13 16  1  0
 16 17  1  0
 17 18  2  0
 18 19  1  0
 19 20  2  0
 20 21  1  0
 21 22  2  0
 12 23  1  0
 23 24  2  0
  6 25  2  0
 25 26  1  0
 26 27  2  0
 27 28  1  0
 27  4  1  0
 24  9  1  0
 22 17  1  0
  3 29  1  0
  5 30  1  0
 10 31  1  0
 11 32  1  0
 16 33  1  0
 18 34  1  0
 19 35  1  0
 20 36  1  0
 21 37  1  0
 23 38  1  0
 24 39  1  0
 25 40  1  0
 26 41  1  0
 28 42  1  0
M  END
$$$$
