
     RDKit          3D

 28 28  0  0  0  0  0  0  0  0999 V2000
   -3.7434   -2.9484   -0.7428 C   0  0  0  0  0  0  0  0  0  0  0  0
   -3.0646   -1.6691   -1.1519 C   0  0  0  0  0  0  0  0  0  0  0  0
   -3.6522   -0.9229   -2.2558 C   0  0  0  0  0  0  0  0  0  0  0  0
   -2.9543    0.2009   -2.5707 C   0  0  0  0  0  0  0  0  0  0  0  0
   -1.8585    0.6794   -2.0210 C   0  0  0  0  0  0  0  0  0  0  0  0
   -1.2603   -0.0823   -0.8997 C   0  0  0  0  0  0  0  0  0  0  0  0
   -0.2008    0.2301   -0.3557 C   0  0  0  0  0  0  0  0  0  0  0  0
    0.9578    0.5732    0.2658 C   0  0  0  0  0  0  0  0  0  0  0  0
    2.2434    0.9360    0.9304 C   0  0  0  0  0  0  0  0  0  0  0  0
    2.8475   -0.0660    1.6423 C   0  0  0  0  0  0  0  0  0  0  0  0
    3.9446    0.2295    2.3938 C   0  0  0  0  0  0  0  0  0  0  0  0
    4.4718    1.5057    2.4632 C   0  0  0  0  0  0  0  0  0  0  0  0
    3.8166    2.5094    1.6903 C   0  0  0  0  0  0  0  0  0  0  0  0
    2.7194    2.1968    0.9457 C   0  0  0  0  0  0  0  0  0  0  0  0
   -2.0256   -1.2238   -0.6275 N   0  0  0  0  0  0  0  0  0  0  0  0
    0.6833    0.0000    0.0000 Cl  0  0  0  0  0  0  0  0  0  0  0  0
   -4.7632   -2.9726   -1.2198 H   0  0  0  0  0  0  0  0  0  0  0  0
   -3.2147   -3.8120   -1.2095 H   0  0  0  0  0  0  0  0  0  0  0  0
   -3.8191   -2.9889    0.3706 H   0  0  0  0  0  0  0  0  0  0  0  0
   -4.5236   -1.2654   -2.7308 H   0  0  0  0  0  0  0  0  0  0  0  0
   -3.3538    0.7342   -3.5110 H   0  0  0  0  0  0  0  0  0  0  0  0
   -1.3487    1.5701   -2.3027 H   0  0  0  0  0  0  0  0  0  0  0  0
    2.5079   -1.1060    1.6824 H   0  0  0  0  0  0  0  0  0  0  0  0
    4.4252   -0.5437    3.0216 H   0  0  0  0  0  0  0  0  0  0  0  0
    5.3606    1.7833    3.0141 H   0  0  0  0  0  0  0  0  0  0  0  0
    4.2651    3.4885    1.7372 H   0  0  0  0  0  0  0  0  0  0  0  0
    2.2233    2.9640    0.3771 H   0  0  0  0  0  0  0  0  0  0  0  0
   -0.6833    0.0000    0.0000 H   0  0  0  0  0  0  0  0  0  0  0  0
  1  2  1  0
  2  3  2  0
  3  4  1  0
  4  5  2  0
  5  6  1  0
  6  7  1  0
  7  8  3  0
  8  9  1  0
  9 10  2  0
 10 11  1  0
 11 12  2  0
 12 13  1  0
 13 14  2  0
  6 15  2  0
 15  2  1  0
 14  9  1  0
  1 17  1  0
  1 18  1  0
  1 19  1  0
  3 20  1  0
  4 21  1  0
  5 22  1  0
 10 23  1  0
 11 24  1  0
 12 25  1  0
 13 26  1  0
 14 27  1  0
 16 28  1  0
M  END
$$$$
