
     RDKit          3D

 26 27  0  0  0  0  0  0  0  0999 V2000
   -3.6923   -0.2605    0.5219 N   0  0  0  0  0  0  0  0  0  0  0  0
   -2.8145    0.1879   -0.3053 C   0  0  0  0  0  0  0  0  0  0  0  0
   -3.2589    0.5793   -1.5172 N   0  0  0  0  0  0  0  0  0  0  0  0
   -1.4777    0.3081   -0.0807 N   0  0  0  0  0  0  0  0  0  0  0  0
   -0.9414    0.6721    1.2311 C   0  0  0  0  0  0  0  0  0  0  0  0
    0.1724   -0.2964    1.6207 C   0  0  0  0  0  0  0  0  0  0  0  0
    1.2296   -0.3549    0.5489 C   0  0  0  0  0  0  0  0  0  0  0  0
    2.5325   -0.7624    0.8655 C   0  0  0  0  0  0  0  0  0  0  0  0
    3.5077   -0.8370   -0.1279 C   0  0  0  0  0  0  0  0  0  0  0  0
    3.1874   -0.5149   -1.4441 C   0  0  0  0  0  0  0  0  0  0  0  0
    1.8887   -0.1227   -1.7704 C   0  0  0  0  0  0  0  0  0  0  0  0
    0.8940   -0.0458   -0.7821 C   0  0  0  0  0  0  0  0  0  0  0  0
   -0.5072    0.3821   -1.1798 C   0  0  0  0  0  0  0  0  0  0  0  0
   -3.2143   -0.5805    1.3646 H   0  0  0  0  0  0  0  0  0  0  0  0
   -2.9579    1.5134   -1.7583 H   0  0  0  0  0  0  0  0  0  0  0  0
   -4.2738    0.5317   -1.5157 H   0  0  0  0  0  0  0  0  0  0  0  0
   -1.7109    0.6672    2.0106 H   0  0  0  0  0  0  0  0  0  0  0  0
   -0.5580    1.7002    1.1871 H   0  0  0  0  0  0  0  0  0  0  0  0
   -0.2356   -1.3044    1.7630 H   0  0  0  0  0  0  0  0  0  0  0  0
    0.6133    0.0304    2.5695 H   0  0  0  0  0  0  0  0  0  0  0  0
    2.7937   -1.0243    1.8883 H   0  0  0  0  0  0  0  0  0  0  0  0
    4.5172   -1.1510    0.1245 H   0  0  0  0  0  0  0  0  0  0  0  0
    3.9476   -0.5758   -2.2186 H   0  0  0  0  0  0  0  0  0  0  0  0
    1.6526    0.1164   -2.8053 H   0  0  0  0  0  0  0  0  0  0  0  0
   -0.4652    1.4135   -1.5508 H   0  0  0  0  0  0  0  0  0  0  0  0
   -0.8291   -0.2718   -2.0001 H   0  0  0  0  0  0  0  0  0  0  0  0
  1  2  2  3
  2  3  1  0
  2  4  1  0
  4  5  1  0
  5  6  1  0
  6  7  1  0
  7  8  2  0
  8  9  1  0
  9 10  2  0
 10 11  1  0
 11 12  2  0
 12 13  1  0
 13  4  1  0
 12  7  1  0
  1 14  1  0
  3 15  1  0
  3 16  1  0
  5 17  1  0
  5 18  1  0
  6 19  1  0
  6 20  1  0
  8 21  1  0
  9 22  1  0
 10 23  1  0
 11 24  1  0
 13 25  1  0
 13 26  1  0
M  END
$$$$
