
     RDKit          3D

 43 43  0  0  0  0  0  0  0  0999 V2000
    0.6832    0.0000    0.0000 Cl  0  0  0  0  0  0  0  0  0  0  0  0
    0.6896    0.0000    0.0000 Cl  0  0  0  0  0  0  0  0  0  0  0  0
   -5.4497    0.7830    0.5724 N   0  0  0  0  0  0  0  0  0  0  0  0
   -4.0920    0.4734    0.1877 C   0  0  1  0  0  0  0  0  0  0  0  0
   -3.2176    0.2836    1.4187 C   0  0  0  0  0  0  0  0  0  0  0  0
   -1.7942    0.2405    0.9313 C   0  0  0  0  0  0  0  0  0  0  0  0
   -1.5274   -0.7932   -0.0955 C   0  0  2  0  0  0  0  0  0  0  0  0
   -0.3299   -0.4292   -0.8127 N   0  0  0  0  0  0  0  0  0  0  0  0
    0.8709   -0.3737   -0.0609 C   0  0  2  0  0  0  0  0  0  0  0  0
    1.1826    0.5139    1.0429 C   0  0  0  0  0  0  0  0  0  0  0  0
    1.8928    0.6501   -0.3255 C   0  0  1  0  0  0  0  0  0  0  0  0
    3.3371    0.3198   -0.3302 C   0  0  0  0  0  0  0  0  0  0  0  0
    4.2228    1.0257   -1.1097 C   0  0  0  0  0  0  0  0  0  0  0  0
    5.5848    0.7258   -1.1224 C   0  0  0  0  0  0  0  0  0  0  0  0
    6.0946   -0.2950   -0.3490 C   0  0  0  0  0  0  0  0  0  0  0  0
    5.2071   -1.0026    0.4324 C   0  0  0  0  0  0  0  0  0  0  0  0
    3.8608   -0.7035    0.4426 C   0  0  0  0  0  0  0  0  0  0  0  0
   -2.6161   -0.9768   -1.1118 C   0  0  0  0  0  0  0  0  0  0  0  0
   -3.9957   -0.8254   -0.5810 C   0  0  0  0  0  0  0  0  0  0  0  0
   -0.6832    0.0000    0.0000 H   0  0  0  0  0  0  0  0  0  0  0  0
   -0.6896    0.0000    0.0000 H   0  0  0  0  0  0  0  0  0  0  0  0
   -5.5421    1.8307    0.5932 H   0  0  0  0  0  0  0  0  0  0  0  0
   -6.1281    0.4315   -0.1311 H   0  0  0  0  0  0  0  0  0  0  0  0
   -3.6746    1.3235   -0.3979 H   0  0  0  0  0  0  0  0  0  0  0  0
   -3.4972   -0.6681    1.8793 H   0  0  0  0  0  0  0  0  0  0  0  0
   -3.3268    1.1566    2.0778 H   0  0  0  0  0  0  0  0  0  0  0  0
   -1.5537    1.2631    0.5751 H   0  0  0  0  0  0  0  0  0  0  0  0
   -1.1698    0.0562    1.8286 H   0  0  0  0  0  0  0  0  0  0  0  0
   -1.3607   -1.8081    0.3684 H   0  0  0  0  0  0  0  0  0  0  0  0
   -0.4526    0.2828   -1.5365 H   0  0  0  0  0  0  0  0  0  0  0  0
    1.3172   -1.4177    0.0443 H   0  0  0  0  0  0  0  0  0  0  0  0
    0.6985    1.4509    1.3178 H   0  0  0  0  0  0  0  0  0  0  0  0
    1.8544    0.1458    1.8739 H   0  0  0  0  0  0  0  0  0  0  0  0
    1.5979    1.4792   -0.9861 H   0  0  0  0  0  0  0  0  0  0  0  0
    3.8423    1.8353   -1.7279 H   0  0  0  0  0  0  0  0  0  0  0  0
    6.2643    1.2987   -1.7469 H   0  0  0  0  0  0  0  0  0  0  0  0
    7.1635   -0.5165   -0.3707 H   0  0  0  0  0  0  0  0  0  0  0  0
    5.5957   -1.8023    1.0393 H   0  0  0  0  0  0  0  0  0  0  0  0
    3.1663   -1.2578    1.0542 H   0  0  0  0  0  0  0  0  0  0  0  0
   -2.5426   -2.0237   -1.5336 H   0  0  0  0  0  0  0  0  0  0  0  0
   -2.4946   -0.3112   -1.9970 H   0  0  0  0  0  0  0  0  0  0  0  0
   -4.6851   -0.7256   -1.4545 H   0  0  0  0  0  0  0  0  0  0  0  0
   -4.3034   -1.6395    0.1007 H   0  0  0  0  0  0  0  0  0  0  0  0
  3  4  1  0
  4  5  1  0
  5  6  1  0
  6  7  1  0
  7  8  1  0
  8  9  1  0
  9 10  1  0
 10 11  1  0
 11 12  1  0
 12 13  2  0
 13 14  1  0
 14 15  2  0
 15 16  1  0
 16 17  2  0
  7 18  1  0
 18 19  1  0
 19  4  1  0
 11  9  1  0
 17 12  1  0
  1 20  1  0
  2 21  1  0
  3 22  1  0
  3 23  1  0
  4 24  1  6
  5 25  1  0
  5 26  1  0
  6 27  1  0
  6 28  1  0
  7 29  1  1
  8 30  1  0
  9 31  1  1
 10 32  1  0
 10 33  1  0
 11 34  1  6
 13 35  1  0
 14 36  1  0
 15 37  1  0
 16 38  1  0
 17 39  1  0
 18 40  1  0
 18 41  1  0
 19 42  1  0
 19 43  1  0
M  END
$$$$
