
     RDKit          3D

 43 46  0  0  0  0  0  0  0  0999 V2000
    3.9363    2.2472   -2.8759 C   0  0  0  0  0  0  0  0  0  0  0  0
    4.3842    1.2567   -1.8289 C   0  0  0  0  0  0  0  0  0  0  0  0
    5.5714    1.1611   -1.5397 O   0  0  0  0  0  0  0  0  0  0  0  0
    3.3310    0.5609   -1.2838 N   0  0  0  0  0  0  0  0  0  0  0  0
    3.3860   -0.3963   -0.3029 C   0  0  0  0  0  0  0  0  0  0  0  0
    2.2893   -0.9752    0.1196 N   0  0  0  0  0  0  0  0  0  0  0  0
    2.5950   -1.8817    1.1318 C   0  0  0  0  0  0  0  0  0  0  0  0
    1.6870   -2.6887    1.8623 C   0  0  0  0  0  0  0  0  0  0  0  0
    0.3185   -2.6763    1.6305 O   0  0  0  0  0  0  0  0  0  0  0  0
   -0.2802   -1.4292    1.7412 C   0  0  0  0  0  0  0  0  0  0  0  0
   -1.2371   -1.1158    0.8037 C   0  0  0  0  0  0  0  0  0  0  0  0
   -1.8491    0.1139    0.9449 C   0  0  0  0  0  0  0  0  0  0  0  0
   -2.8927    0.6083    0.0183 C   0  0  0  0  0  0  0  0  0  0  0  0
   -3.0681    1.9889   -0.1956 C   0  0  0  0  0  0  0  0  0  0  0  0
   -4.0477    2.4812   -1.0663 C   0  0  0  0  0  0  0  0  0  0  0  0
   -4.8980    1.6033   -1.7475 C   0  0  0  0  0  0  0  0  0  0  0  0
   -5.9463    2.1223   -2.7009 C   0  0  0  0  0  0  0  0  0  0  0  0
   -5.5176    2.1141   -3.9935 F   0  0  0  0  0  0  0  0  0  0  0  0
   -7.0918    1.3844   -2.6826 F   0  0  0  0  0  0  0  0  0  0  0  0
   -6.3263    3.4043   -2.4409 F   0  0  0  0  0  0  0  0  0  0  0  0
   -4.7373    0.2262   -1.5474 C   0  0  0  0  0  0  0  0  0  0  0  0
   -3.7546   -0.2605   -0.6755 C   0  0  0  0  0  0  0  0  0  0  0  0
   -1.5169    0.9532    1.9537 N   0  0  0  0  0  0  0  0  0  0  0  0
   -0.5865    0.5280    2.8217 C   0  0  0  0  0  0  0  0  0  0  0  0
    0.0515   -0.6428    2.7799 N   0  0  0  0  0  0  0  0  0  0  0  0
    2.1598   -3.6027    2.8115 C   0  0  0  0  0  0  0  0  0  0  0  0
    3.5218   -3.6936    3.0783 C   0  0  0  0  0  0  0  0  0  0  0  0
    4.4403   -2.8893    2.3964 C   0  0  0  0  0  0  0  0  0  0  0  0
    3.9562   -1.9956    1.4252 C   0  0  0  0  0  0  0  0  0  0  0  0
    4.8333   -0.9033    0.4261 S   0  0  0  0  0  0  0  0  0  0  0  0
    2.9709    1.9697   -3.3081 H   0  0  0  0  0  0  0  0  0  0  0  0
    4.6727    2.2724   -3.6841 H   0  0  0  0  0  0  0  0  0  0  0  0
    3.8564    3.2379   -2.4210 H   0  0  0  0  0  0  0  0  0  0  0  0
    2.3884    0.7466   -1.5958 H   0  0  0  0  0  0  0  0  0  0  0  0
   -1.4581   -1.7986   -0.0034 H   0  0  0  0  0  0  0  0  0  0  0  0
   -2.4287    2.7023    0.3246 H   0  0  0  0  0  0  0  0  0  0  0  0
   -4.1439    3.5578   -1.2011 H   0  0  0  0  0  0  0  0  0  0  0  0
   -5.3863   -0.4803   -2.0642 H   0  0  0  0  0  0  0  0  0  0  0  0
   -3.6897   -1.3375   -0.5342 H   0  0  0  0  0  0  0  0  0  0  0  0
   -0.3320    1.1986    3.6350 H   0  0  0  0  0  0  0  0  0  0  0  0
    1.4568   -4.2313    3.3515 H   0  0  0  0  0  0  0  0  0  0  0  0
    3.8782   -4.3966    3.8288 H   0  0  0  0  0  0  0  0  0  0  0  0
    5.5038   -2.9592    2.6080 H   0  0  0  0  0  0  0  0  0  0  0  0
  1  2  1  0
  2  3  2  0
  2  4  1  0
  4  5  1  0
  5  6  2  0
  6  7  1  0
  7  8  2  0
  8  9  1  0
  9 10  1  0
 10 11  2  0
 11 12  1  0
 12 13  1  0
 13 14  2  0
 14 15  1  0
 15 16  2  0
 16 17  1  0
 17 18  1  0
 17 19  1  0
 17 20  1  0
 16 21  1  0
 21 22  2  0
 12 23  2  0
 23 24  1  0
 24 25  2  0
  8 26  1  0
 26 27  2  0
 27 28  1  0
 28 29  2  0
 29 30  1  0
 30  5  1  0
 29  7  1  0
 25 10  1  0
 22 13  1  0
  1 31  1  0
  1 32  1  0
  1 33  1  0
  4 34  1  0
 11 35  1  0
 14 36  1  0
 15 37  1  0
 21 38  1  0
 22 39  1  0
 24 40  1  0
 26 41  1  0
 27 42  1  0
 28 43  1  0
M  END
$$$$
