
     RDKit          3D

 25 27  0  0  0  0  0  0  0  0999 V2000
    1.2620    1.8750   -0.4997 N   0  0  0  0  0  0  0  0  0  0  0  0
    2.0237    0.7215   -0.3852 C   0  0  0  0  0  0  0  0  0  0  0  0
    3.3463    0.8654   -0.5899 N   0  0  0  0  0  0  0  0  0  0  0  0
    4.1311   -0.2182   -0.4989 C   0  0  0  0  0  0  0  0  0  0  0  0
    3.7601   -1.4719   -0.2338 N   0  0  0  0  0  0  0  0  0  0  0  0
    2.4352   -1.5795   -0.0389 C   0  0  0  0  0  0  0  0  0  0  0  0
    1.7447   -3.0976    0.3077 S   0  0  0  0  0  0  0  0  0  0  0  0
    0.1780   -2.4271    0.4050 C   0  0  0  0  0  0  0  0  0  0  0  0
    0.1749   -1.0637    0.1760 C   0  0  0  0  0  0  0  0  0  0  0  0
   -1.0755   -0.3217    0.2344 C   0  0  0  0  0  0  0  0  0  0  0  0
   -2.0650   -0.5279   -0.7345 C   0  0  0  0  0  0  0  0  0  0  0  0
   -3.2583    0.1947   -0.6813 C   0  0  0  0  0  0  0  0  0  0  0  0
   -3.4673    1.1236    0.3376 C   0  0  0  0  0  0  0  0  0  0  0  0
   -2.4849    1.3322    1.3051 C   0  0  0  0  0  0  0  0  0  0  0  0
   -1.2909    0.6109    1.2555 C   0  0  0  0  0  0  0  0  0  0  0  0
    1.5019   -0.5533   -0.0898 C   0  0  0  0  0  0  0  0  0  0  0  0
    0.2982    1.7402   -0.7764 H   0  0  0  0  0  0  0  0  0  0  0  0
    1.7729    2.6036   -0.9839 H   0  0  0  0  0  0  0  0  0  0  0  0
    5.1917   -0.0550   -0.6634 H   0  0  0  0  0  0  0  0  0  0  0  0
   -0.6650   -3.0660    0.6346 H   0  0  0  0  0  0  0  0  0  0  0  0
   -1.9129   -1.2456   -1.5376 H   0  0  0  0  0  0  0  0  0  0  0  0
   -4.0255    0.0330   -1.4345 H   0  0  0  0  0  0  0  0  0  0  0  0
   -4.3974    1.6854    0.3787 H   0  0  0  0  0  0  0  0  0  0  0  0
   -2.6477    2.0568    2.0991 H   0  0  0  0  0  0  0  0  0  0  0  0
   -0.5303    0.7856    2.0139 H   0  0  0  0  0  0  0  0  0  0  0  0
  1  2  1  0
  2  3  2  0
  3  4  1  0
  4  5  2  0
  5  6  1  0
  6  7  1  0
  7  8  1  0
  8  9  2  0
  9 10  1  0
 10 11  2  0
 11 12  1  0
 12 13  2  0
 13 14  1  0
 14 15  2  0
  9 16  1  0
 16  2  1  0
 16  6  2  0
 15 10  1  0
  1 17  1  0
  1 18  1  0
  4 19  1  0
  8 20  1  0
 11 21  1  0
 12 22  1  0
 13 23  1  0
 14 24  1  0
 15 25  1  0
M  END
$$$$
