
     RDKit          3D

 27 29  0  0  0  0  0  0  0  0999 V2000
   -0.2489   -2.0574    1.4394 O   0  0  0  0  0  0  0  0  0  0  0  0
   -0.1263   -1.0495    0.7481 C   0  0  0  0  0  0  0  0  0  0  0  0
    1.2504   -0.6169    0.4063 C   0  0  0  0  0  0  0  0  0  0  0  0
    2.3509   -1.4316    0.7217 C   0  0  0  0  0  0  0  0  0  0  0  0
    2.2296   -2.6389    1.3585 O   0  0  0  0  0  0  0  0  0  0  0  0
    3.6454   -1.0394    0.3933 C   0  0  0  0  0  0  0  0  0  0  0  0
    3.8566    0.1775   -0.2484 C   0  0  0  0  0  0  0  0  0  0  0  0
    2.7717    0.9987   -0.5581 C   0  0  0  0  0  0  0  0  0  0  0  0
    1.4589    0.6080   -0.2378 C   0  0  0  0  0  0  0  0  0  0  0  0
    0.3248    1.5399   -0.5542 C   0  0  0  0  0  0  0  0  0  0  0  0
   -1.0577    0.9697   -0.3834 C   0  0  0  0  0  0  0  0  0  0  0  0
   -2.1492    1.7270   -0.8467 C   0  0  0  0  0  0  0  0  0  0  0  0
   -3.4534    1.2617   -0.6987 C   0  0  0  0  0  0  0  0  0  0  0  0
   -3.6856    0.0349   -0.0844 C   0  0  0  0  0  0  0  0  0  0  0  0
   -2.6111   -0.7249    0.3856 C   0  0  0  0  0  0  0  0  0  0  0  0
   -2.8788   -1.9319    0.9671 O   0  0  0  0  0  0  0  0  0  0  0  0
   -1.2904   -0.2640    0.2478 C   0  0  0  0  0  0  0  0  0  0  0  0
    1.2745   -2.7607    1.5715 H   0  0  0  0  0  0  0  0  0  0  0  0
    4.4850   -1.6829    0.6421 H   0  0  0  0  0  0  0  0  0  0  0  0
    4.8673    0.4875   -0.5021 H   0  0  0  0  0  0  0  0  0  0  0  0
    2.9564    1.9518   -1.0506 H   0  0  0  0  0  0  0  0  0  0  0  0
    0.4142    2.4212    0.0937 H   0  0  0  0  0  0  0  0  0  0  0  0
    0.4326    1.8657   -1.5971 H   0  0  0  0  0  0  0  0  0  0  0  0
   -1.9841    2.6900   -1.3275 H   0  0  0  0  0  0  0  0  0  0  0  0
   -4.2884    1.8551   -1.0636 H   0  0  0  0  0  0  0  0  0  0  0  0
   -4.7082   -0.3171    0.0174 H   0  0  0  0  0  0  0  0  0  0  0  0
   -3.8360   -2.0732    1.0266 H   0  0  0  0  0  0  0  0  0  0  0  0
  1  2  2  0
  2  3  1  0
  3  4  2  0
  4  5  1  0
  4  6  1  0
  6  7  2  0
  7  8  1  0
  8  9  2  0
  9 10  1  0
 10 11  1  0
 11 12  2  0
 12 13  1  0
 13 14  2  0
 14 15  1  0
 15 16  1  0
 15 17  2  0
 17  2  1  0
  9  3  1  0
 17 11  1  0
  5 18  1  0
  6 19  1  0
  7 20  1  0
  8 21  1  0
 10 22  1  0
 10 23  1  0
 12 24  1  0
 13 25  1  0
 14 26  1  0
 16 27  1  0
M  END
$$$$
