
     RDKit          3D

 45 48  0  0  0  0  0  0  0  0999 V2000
    2.3212    4.0871   -0.6946 C   0  0  0  0  0  0  0  0  0  0  0  0
    1.3676    2.9458   -0.5373 C   0  0  0  0  0  0  0  0  0  0  0  0
   -0.2987    3.2638   -0.3768 S   0  0  0  0  0  0  0  0  0  0  0  0
   -0.6764    1.6212   -0.3197 C   0  0  0  0  0  0  0  0  0  0  0  0
    0.4374    0.7967   -0.3039 C   0  0  0  0  0  0  0  0  0  0  0  0
    1.6444    1.5853   -0.5213 C   0  0  0  0  0  0  0  0  0  0  0  0
    3.0232    1.0218   -0.7036 C   0  0  0  0  0  0  0  0  0  0  0  0
    0.3791   -0.6542   -0.0627 C   0  0  0  0  0  0  0  0  0  0  0  0
    1.3391   -1.2538    0.9136 C   0  0  0  0  0  0  0  0  0  0  0  0
    1.8168   -2.5523    0.6862 C   0  0  0  0  0  0  0  0  0  0  0  0
    2.7005   -3.1436    1.5927 C   0  0  0  0  0  0  0  0  0  0  0  0
    3.0965   -2.4433    2.7310 C   0  0  0  0  0  0  0  0  0  0  0  0
    4.1859   -3.1699    3.8455 Cl  0  0  0  0  0  0  0  0  0  0  0  0
    2.6115   -1.1588    2.9752 C   0  0  0  0  0  0  0  0  0  0  0  0
    1.7273   -0.5639    2.0705 C   0  0  0  0  0  0  0  0  0  0  0  0
   -0.4830   -1.4406   -0.6117 N   0  0  0  0  0  0  0  0  0  0  0  0
   -1.4782   -0.9296   -1.5630 C   0  0  1  0  0  0  0  0  0  0  0  0
   -2.1642   -2.1070   -2.2675 C   0  0  0  0  0  0  0  0  0  0  0  0
   -2.9740   -3.0458   -1.3962 C   0  0  0  0  0  0  0  0  0  0  0  0
   -2.3833   -3.4634   -0.2421 N   0  0  0  0  0  0  0  0  0  0  0  0
   -4.0535   -3.5145   -1.7455 O   0  0  0  0  0  0  0  0  0  0  0  0
   -2.4312   -0.0029   -0.8821 C   0  0  0  0  0  0  0  0  0  0  0  0
   -3.7360   -0.1142   -0.7835 N   0  0  0  0  0  0  0  0  0  0  0  0
   -4.2124    1.0263   -0.2088 N   0  0  0  0  0  0  0  0  0  0  0  0
   -3.1950    1.8256    0.0421 C   0  0  0  0  0  0  0  0  0  0  0  0
   -3.3238    3.1326    0.7279 C   0  0  0  0  0  0  0  0  0  0  0  0
   -2.0138    1.2086   -0.3510 N   0  0  0  0  0  0  0  0  0  0  0  0
    1.8931    5.0347   -0.3512 H   0  0  0  0  0  0  0  0  0  0  0  0
    3.2317    3.9097   -0.1127 H   0  0  0  0  0  0  0  0  0  0  0  0
    2.6014    4.1995   -1.7471 H   0  0  0  0  0  0  0  0  0  0  0  0
    3.6037    1.6305   -1.4050 H   0  0  0  0  0  0  0  0  0  0  0  0
    3.5563    1.0003    0.2516 H   0  0  0  0  0  0  0  0  0  0  0  0
    2.9894    0.0088   -1.1154 H   0  0  0  0  0  0  0  0  0  0  0  0
    1.5070   -3.1084   -0.1968 H   0  0  0  0  0  0  0  0  0  0  0  0
    3.0707   -4.1491    1.4075 H   0  0  0  0  0  0  0  0  0  0  0  0
    2.9121   -0.6197    3.8704 H   0  0  0  0  0  0  0  0  0  0  0  0
    1.3437    0.4301    2.2885 H   0  0  0  0  0  0  0  0  0  0  0  0
   -0.9605   -0.3764   -2.3600 H   0  0  0  0  0  0  0  0  0  0  0  0
   -2.8428   -1.7169   -3.0373 H   0  0  0  0  0  0  0  0  0  0  0  0
   -1.4119   -2.7200   -2.7799 H   0  0  0  0  0  0  0  0  0  0  0  0
   -1.6259   -2.9099    0.1465 H   0  0  0  0  0  0  0  0  0  0  0  0
   -2.9685   -3.9894    0.3924 H   0  0  0  0  0  0  0  0  0  0  0  0
   -2.6175    3.2223    1.5583 H   0  0  0  0  0  0  0  0  0  0  0  0
   -3.1794    3.9599    0.0274 H   0  0  0  0  0  0  0  0  0  0  0  0
   -4.3296    3.2369    1.1494 H   0  0  0  0  0  0  0  0  0  0  0  0
  1  2  1  0
  2  3  1  0
  3  4  1  0
  4  5  2  0
  5  6  1  0
  6  7  1  0
  5  8  1  0
  8  9  1  0
  9 10  2  0
 10 11  1  0
 11 12  2  0
 12 13  1  0
 12 14  1  0
 14 15  2  0
  8 16  2  0
 16 17  1  0
 17 18  1  0
 18 19  1  0
 19 20  1  0
 19 21  2  0
 17 22  1  0
 22 23  2  0
 23 24  1  0
 24 25  2  0
 25 26  1  0
 25 27  1  0
  6  2  2  0
 15  9  1  0
 27 22  1  0
 27  4  1  0
  1 28  1  0
  1 29  1  0
  1 30  1  0
  7 31  1  0
  7 32  1  0
  7 33  1  0
 10 34  1  0
 11 35  1  0
 14 36  1  0
 15 37  1  0
 17 38  1  6
 18 39  1  0
 18 40  1  0
 20 41  1  0
 20 42  1  0
 26 43  1  0
 26 44  1  0
 26 45  1  0
M  END
$$$$
