
     RDKit          3D

 58 62  0  0  0  0  0  0  0  0999 V2000
    6.0822   -1.7665    1.2517 O   0  0  0  0  0  0  0  0  0  0  0  0
    6.8972   -1.0597    0.6766 C   0  0  0  0  0  0  0  0  0  0  0  0
    6.7711   -0.5261   -0.5787 N   0  0  0  0  0  0  0  0  0  0  0  0
    5.7126   -0.6581   -1.4757 C   0  0  0  0  0  0  0  0  0  0  0  0
    4.5532   -1.3721   -1.2248 C   0  0  0  0  0  0  0  0  0  0  0  0
    3.5807   -1.4100   -2.2208 C   0  0  0  0  0  0  0  0  0  0  0  0
    2.4364   -2.1488   -2.0198 O   0  0  0  0  0  0  0  0  0  0  0  0
    1.3456   -1.3995   -1.6459 C   0  0  0  0  0  0  0  0  0  0  0  0
    0.4169   -1.0208   -2.6102 C   0  0  0  0  0  0  0  0  0  0  0  0
   -0.6953   -0.2829   -2.2179 C   0  0  0  0  0  0  0  0  0  0  0  0
   -1.5721    0.1093   -3.1553 F   0  0  0  0  0  0  0  0  0  0  0  0
   -0.9194    0.0659   -0.8759 C   0  0  0  0  0  0  0  0  0  0  0  0
   -2.0786    0.8188   -0.5945 N   0  0  0  0  0  0  0  0  0  0  0  0
   -2.5328    1.2297    0.6374 C   0  0  0  0  0  0  0  0  0  0  0  0
   -2.0364    1.0031    1.7324 O   0  0  0  0  0  0  0  0  0  0  0  0
   -3.7964    2.0305    0.5688 C   0  0  0  0  0  0  0  0  0  0  0  0
   -5.0533    1.2332    0.3956 C   0  0  0  0  0  0  0  0  0  0  0  0
   -5.4887    1.0712   -0.7348 O   0  0  0  0  0  0  0  0  0  0  0  0
   -5.5581    0.7451    1.5825 N   0  0  0  0  0  0  0  0  0  0  0  0
   -6.7258   -0.0201    1.7674 C   0  0  0  0  0  0  0  0  0  0  0  0
   -7.0172   -0.4371    3.0756 C   0  0  0  0  0  0  0  0  0  0  0  0
   -8.1603   -1.1939    3.3411 C   0  0  0  0  0  0  0  0  0  0  0  0
   -9.0124   -1.5339    2.2991 C   0  0  0  0  0  0  0  0  0  0  0  0
  -10.1082   -2.2608    2.5527 F   0  0  0  0  0  0  0  0  0  0  0  0
   -8.7412   -1.1323    0.9988 C   0  0  0  0  0  0  0  0  0  0  0  0
   -7.5978   -0.3724    0.7320 C   0  0  0  0  0  0  0  0  0  0  0  0
   -3.7271    3.4045   -0.0998 C   0  0  0  0  0  0  0  0  0  0  0  0
   -3.8734    3.3213    1.3861 C   0  0  0  0  0  0  0  0  0  0  0  0
    0.0024   -0.3479    0.0852 C   0  0  0  0  0  0  0  0  0  0  0  0
    1.1239   -1.0816   -0.3044 C   0  0  0  0  0  0  0  0  0  0  0  0
    1.9896   -1.4828    0.6367 F   0  0  0  0  0  0  0  0  0  0  0  0
    3.7949   -0.7811   -3.4404 C   0  0  0  0  0  0  0  0  0  0  0  0
    4.9792   -0.0922   -3.5980 C   0  0  0  0  0  0  0  0  0  0  0  0
    5.9332   -0.0133   -2.6449 N   0  0  0  0  0  0  0  0  0  0  0  0
    8.1751   -0.7437    1.3897 C   0  0  0  0  0  0  0  0  0  0  0  0
    9.5115   -0.8612    0.6929 C   0  0  0  0  0  0  0  0  0  0  0  0
    9.0102    0.4876    1.1242 C   0  0  0  0  0  0  0  0  0  0  0  0
    7.5276    0.0159   -0.9669 H   0  0  0  0  0  0  0  0  0  0  0  0
    4.3803   -1.8928   -0.2917 H   0  0  0  0  0  0  0  0  0  0  0  0
    0.5497   -1.2812   -3.6533 H   0  0  0  0  0  0  0  0  0  0  0  0
   -2.6609    1.0441   -1.3980 H   0  0  0  0  0  0  0  0  0  0  0  0
   -5.0063    0.9339    2.4125 H   0  0  0  0  0  0  0  0  0  0  0  0
   -6.3599   -0.1813    3.9029 H   0  0  0  0  0  0  0  0  0  0  0  0
   -8.3892   -1.5187    4.3507 H   0  0  0  0  0  0  0  0  0  0  0  0
   -9.4161   -1.4109    0.1961 H   0  0  0  0  0  0  0  0  0  0  0  0
   -7.4193   -0.0712   -0.2947 H   0  0  0  0  0  0  0  0  0  0  0  0
   -4.5832    3.7328   -0.6809 H   0  0  0  0  0  0  0  0  0  0  0  0
   -2.7751    3.7424   -0.4963 H   0  0  0  0  0  0  0  0  0  0  0  0
   -3.0187    3.5898    1.9993 H   0  0  0  0  0  0  0  0  0  0  0  0
   -4.8264    3.6141    1.8138 H   0  0  0  0  0  0  0  0  0  0  0  0
   -0.1136   -0.1275    1.1397 H   0  0  0  0  0  0  0  0  0  0  0  0
    3.0717   -0.8317   -4.2443 H   0  0  0  0  0  0  0  0  0  0  0  0
    5.2072    0.4271   -4.5251 H   0  0  0  0  0  0  0  0  0  0  0  0
    8.1490   -1.0668    2.4299 H   0  0  0  0  0  0  0  0  0  0  0  0
   10.3286   -1.3046    1.2513 H   0  0  0  0  0  0  0  0  0  0  0  0
    9.5358   -1.0902   -0.3657 H   0  0  0  0  0  0  0  0  0  0  0  0
    9.4934    0.9570    1.9752 H   0  0  0  0  0  0  0  0  0  0  0  0
    8.7044    1.1981    0.3670 H   0  0  0  0  0  0  0  0  0  0  0  0
  1  2  2  0
  2  3  1  0
  3  4  1  0
  4  5  2  0
  5  6  1  0
  6  7  1  0
  7  8  1  0
  8  9  2  0
  9 10  1  0
 10 11  1  0
 10 12  2  0
 12 13  1  0
 13 14  1  0
 14 15  2  0
 14 16  1  0
 16 17  1  0
 17 18  2  0
 17 19  1  0
 19 20  1  0
 20 21  2  0
 21 22  1  0
 22 23  2  0
 23 24  1  0
 23 25  1  0
 25 26  2  0
 16 27  1  0
 27 28  1  0
 12 29  1  0
 29 30  2  0
 30 31  1  0
  6 32  2  0
 32 33  1  0
 33 34  2  0
  2 35  1  0
 35 36  1  0
 36 37  1  0
 34  4  1  0
 37 35  1  0
 30  8  1  0
 28 16  1  0
 26 20  1  0
  3 38  1  0
  5 39  1  0
  9 40  1  0
 13 41  1  0
 19 42  1  0
 21 43  1  0
 22 44  1  0
 25 45  1  0
 26 46  1  0
 27 47  1  0
 27 48  1  0
 28 49  1  0
 28 50  1  0
 29 51  1  0
 32 52  1  0
 33 53  1  0
 35 54  1  0
 36 55  1  0
 36 56  1  0
 37 57  1  0
 37 58  1  0
M  END
$$$$
