
     RDKit          3D

 74 77  0  0  0  0  0  0  0  0999 V2000
   -4.0746   -5.3984   -0.0906 C   0  0  0  0  0  0  0  0  0  0  0  0
   -3.8166   -4.6770   -1.4209 C   0  0  0  0  0  0  0  0  0  0  0  0
   -5.0101   -4.9451   -2.3553 C   0  0  0  0  0  0  0  0  0  0  0  0
   -2.5411   -5.2136   -2.0797 C   0  0  0  0  0  0  0  0  0  0  0  0
   -3.6744   -3.1560   -1.1981 C   0  0  0  0  0  0  0  0  0  0  0  0
   -4.2864   -2.3484   -1.9048 O   0  0  0  0  0  0  0  0  0  0  0  0
   -2.7847   -2.6825   -0.0371 C   0  0  0  0  0  0  0  0  0  0  0  0
   -2.2246   -1.3296   -0.2612 N   0  0  0  0  0  0  0  0  0  0  0  0
   -1.0937   -1.3589   -1.0676 C   0  0  0  0  0  0  0  0  0  0  0  0
   -0.7126   -2.4490   -1.5391 O   0  0  0  0  0  0  0  0  0  0  0  0
   -0.2125   -0.1647   -1.3566 C   0  0  2  0  0  0  0  0  0  0  0  0
    1.0200   -0.3569   -0.5827 N   0  0  0  0  0  0  0  0  0  0  0  0
    2.2290    0.0848   -1.0693 C   0  0  0  0  0  0  0  0  0  0  0  0
    2.3384    0.6287   -2.1597 O   0  0  0  0  0  0  0  0  0  0  0  0
    3.2343   -0.1716   -0.1650 N   0  0  0  0  0  0  0  0  0  0  0  0
    4.5900    0.1984   -0.2476 C   0  0  0  0  0  0  0  0  0  0  0  0
    5.1172    1.0053   -1.2586 C   0  0  0  0  0  0  0  0  0  0  0  0
    6.4768    1.3342   -1.2709 C   0  0  0  0  0  0  0  0  0  0  0  0
    7.3227    0.8621   -0.2681 C   0  0  0  0  0  0  0  0  0  0  0  0
    6.8056    0.0587    0.7526 C   0  0  0  0  0  0  0  0  0  0  0  0
    7.6535   -0.4630    1.8500 C   0  0  0  0  0  0  0  0  0  0  0  0
    7.2553   -1.0811    2.8213 O   0  0  0  0  0  0  0  0  0  0  0  0
    8.9602   -0.1933    1.6783 O   0  0  0  0  0  0  0  0  0  0  0  0
    5.4417   -0.2682    0.7608 C   0  0  0  0  0  0  0  0  0  0  0  0
   -0.8434    1.1918   -1.1544 C   0  0  0  0  0  0  0  0  0  0  0  0
   -1.0159    1.4665    0.2852 N   0  0  0  0  0  0  0  0  0  0  0  0
   -0.4146    2.7306    0.8077 C   0  0  0  0  0  0  0  0  0  0  0  0
   -0.9087    3.9920    0.0701 C   0  0  0  0  0  0  0  0  0  0  0  0
   -0.3110    5.2579    0.6848 C   0  0  0  0  0  0  0  0  0  0  0  0
    1.2144    5.2068    0.7020 C   0  0  0  0  0  0  0  0  0  0  0  0
    1.7297    3.9477    1.3929 C   0  0  0  0  0  0  0  0  0  0  0  0
    1.1233    2.6823    0.7847 C   0  0  0  0  0  0  0  0  0  0  0  0
   -2.2975    1.0487    0.7257 C   0  0  0  0  0  0  0  0  0  0  0  0
   -3.0684    1.9200    1.5480 C   0  0  0  0  0  0  0  0  0  0  0  0
   -4.3768    1.6535    1.9503 C   0  0  0  0  0  0  0  0  0  0  0  0
   -4.9790    0.4921    1.5334 C   0  0  0  0  0  0  0  0  0  0  0  0
   -4.2429   -0.4129    0.7721 C   0  0  0  0  0  0  0  0  0  0  0  0
   -2.8850   -0.2097    0.3918 C   0  0  0  0  0  0  0  0  0  0  0  0
   -4.9292   -4.9586    0.4359 H   0  0  0  0  0  0  0  0  0  0  0  0
   -3.2110   -5.3374    0.5799 H   0  0  0  0  0  0  0  0  0  0  0  0
   -4.2880   -6.4612   -0.2495 H   0  0  0  0  0  0  0  0  0  0  0  0
   -5.9393   -4.5415   -1.9366 H   0  0  0  0  0  0  0  0  0  0  0  0
   -5.1557   -6.0194   -2.5180 H   0  0  0  0  0  0  0  0  0  0  0  0
   -4.8629   -4.4788   -3.3366 H   0  0  0  0  0  0  0  0  0  0  0  0
   -2.3204   -4.6730   -3.0070 H   0  0  0  0  0  0  0  0  0  0  0  0
   -1.6698   -5.1088   -1.4262 H   0  0  0  0  0  0  0  0  0  0  0  0
   -2.6398   -6.2769   -2.3234 H   0  0  0  0  0  0  0  0  0  0  0  0
   -1.9550   -3.3881    0.0860 H   0  0  0  0  0  0  0  0  0  0  0  0
   -3.3362   -2.7446    0.9066 H   0  0  0  0  0  0  0  0  0  0  0  0
    0.0387   -0.2419   -2.4238 H   0  0  0  0  0  0  0  0  0  0  0  0
    0.8813   -0.2774    0.4139 H   0  0  0  0  0  0  0  0  0  0  0  0
    2.9773   -0.8016    0.5802 H   0  0  0  0  0  0  0  0  0  0  0  0
    4.4933    1.3957   -2.0575 H   0  0  0  0  0  0  0  0  0  0  0  0
    6.8719    1.9596   -2.0683 H   0  0  0  0  0  0  0  0  0  0  0  0
    8.3772    1.1271   -0.2906 H   0  0  0  0  0  0  0  0  0  0  0  0
    9.3892   -0.5995    2.4606 H   0  0  0  0  0  0  0  0  0  0  0  0
    5.0538   -0.8924    1.5635 H   0  0  0  0  0  0  0  0  0  0  0  0
   -1.7894    1.2833   -1.7056 H   0  0  0  0  0  0  0  0  0  0  0  0
   -0.1748    1.9332   -1.6055 H   0  0  0  0  0  0  0  0  0  0  0  0
   -0.6573    2.8175    1.8748 H   0  0  0  0  0  0  0  0  0  0  0  0
   -2.0006    4.0654    0.0888 H   0  0  0  0  0  0  0  0  0  0  0  0
   -0.6290    3.9589   -0.9892 H   0  0  0  0  0  0  0  0  0  0  0  0
   -0.6424    6.1345    0.1165 H   0  0  0  0  0  0  0  0  0  0  0  0
   -0.6857    5.3797    1.7085 H   0  0  0  0  0  0  0  0  0  0  0  0
    1.6073    6.0944    1.2104 H   0  0  0  0  0  0  0  0  0  0  0  0
    1.5901    5.2355   -0.3283 H   0  0  0  0  0  0  0  0  0  0  0  0
    1.4877    3.9924    2.4620 H   0  0  0  0  0  0  0  0  0  0  0  0
    2.8220    3.9060    1.3151 H   0  0  0  0  0  0  0  0  0  0  0  0
    1.4915    2.5865   -0.2416 H   0  0  0  0  0  0  0  0  0  0  0  0
    1.4803    1.8108    1.3450 H   0  0  0  0  0  0  0  0  0  0  0  0
   -2.6820    2.8766    1.8838 H   0  0  0  0  0  0  0  0  0  0  0  0
   -4.9216    2.3732    2.5552 H   0  0  0  0  0  0  0  0  0  0  0  0
   -6.0122    0.2786    1.7917 H   0  0  0  0  0  0  0  0  0  0  0  0
   -4.7970   -1.2898    0.4483 H   0  0  0  0  0  0  0  0  0  0  0  0
  1  2  1  0
  2  3  1  0
  2  4  1  0
  2  5  1  0
  5  6  2  0
  5  7  1  0
  7  8  1  0
  8  9  1  0
  9 10  2  0
  9 11  1  0
 11 12  1  0
 12 13  1  0
 13 14  2  0
 13 15  1  0
 15 16  1  0
 16 17  2  0
 17 18  1  0
 18 19  2  0
 19 20  1  0
 20 21  1  0
 21 22  2  0
 21 23  1  0
 20 24  2  0
 11 25  1  0
 25 26  1  0
 26 27  1  0
 27 28  1  0
 28 29  1  0
 29 30  1  0
 30 31  1  0
 31 32  1  0
 26 33  1  0
 33 34  2  0
 34 35  1  0
 35 36  2  0
 36 37  1  0
 37 38  2  0
 38  8  1  0
 24 16  1  0
 32 27  1  0
 38 33  1  0
  1 39  1  0
  1 40  1  0
  1 41  1  0
  3 42  1  0
  3 43  1  0
  3 44  1  0
  4 45  1  0
  4 46  1  0
  4 47  1  0
  7 48  1  0
  7 49  1  0
 11 50  1  6
 12 51  1  0
 15 52  1  0
 17 53  1  0
 18 54  1  0
 19 55  1  0
 23 56  1  0
 24 57  1  0
 25 58  1  0
 25 59  1  0
 27 60  1  0
 28 61  1  0
 28 62  1  0
 29 63  1  0
 29 64  1  0
 30 65  1  0
 30 66  1  0
 31 67  1  0
 31 68  1  0
 32 69  1  0
 32 70  1  0
 34 71  1  0
 35 72  1  0
 36 73  1  0
 37 74  1  0
M  END
$$$$
