
     RDKit          3D

 54 57  0  0  0  0  0  0  0  0999 V2000
    8.6259   -2.0747    1.1066 C   0  0  0  0  0  0  0  0  0  0  0  0
    8.4950   -1.1506    0.0311 O   0  0  0  0  0  0  0  0  0  0  0  0
    7.4706   -0.2493    0.1306 C   0  0  0  0  0  0  0  0  0  0  0  0
    7.1493    0.4071   -1.0626 C   0  0  0  0  0  0  0  0  0  0  0  0
    6.1225    1.3562   -1.0976 C   0  0  0  0  0  0  0  0  0  0  0  0
    5.4131    1.6797    0.0727 C   0  0  0  0  0  0  0  0  0  0  0  0
    4.3072    2.7096    0.0420 C   0  0  0  0  0  0  0  0  0  0  0  0
    3.0060    2.1142    0.2360 N   0  0  0  0  0  0  0  0  0  0  0  0
    2.3587    2.0570    1.4329 C   0  0  0  0  0  0  0  0  0  0  0  0
    2.7537    2.4578    2.5148 O   0  0  0  0  0  0  0  0  0  0  0  0
    1.1397    1.4526    1.2346 N   0  0  0  0  0  0  0  0  0  0  0  0
    1.0164    0.9099   -0.0959 C   0  0  1  0  0  0  0  0  0  0  0  0
   -0.2490    1.3257   -0.8234 C   0  0  0  0  0  0  0  0  0  0  0  0
   -1.4717    0.6918   -0.1955 C   0  0  0  0  0  0  0  0  0  0  0  0
   -1.4479    0.0652    0.8590 O   0  0  0  0  0  0  0  0  0  0  0  0
   -2.6290    0.8944   -0.9169 N   0  0  0  0  0  0  0  0  0  0  0  0
   -3.9255    0.5052   -0.3813 C   0  0  0  0  0  0  0  0  0  0  0  0
   -4.1163   -1.0090   -0.2776 C   0  0  0  0  0  0  0  0  0  0  0  0
   -5.4351   -1.3480    0.2186 N   0  0  0  0  0  0  0  0  0  0  0  0
   -5.7665   -1.4679    1.5405 C   0  0  0  0  0  0  0  0  0  0  0  0
   -7.0345   -1.7738    1.6971 N   0  0  0  0  0  0  0  0  0  0  0  0
   -7.5405   -1.8711    0.4237 C   0  0  0  0  0  0  0  0  0  0  0  0
   -8.8422   -2.1840    0.0041 C   0  0  0  0  0  0  0  0  0  0  0  0
   -9.1169   -2.2224   -1.3684 C   0  0  0  0  0  0  0  0  0  0  0  0
   -8.1163   -1.9528   -2.3059 C   0  0  0  0  0  0  0  0  0  0  0  0
   -6.8112   -1.6359   -1.9075 C   0  0  0  0  0  0  0  0  0  0  0  0
   -6.5570   -1.6064   -0.5302 C   0  0  0  0  0  0  0  0  0  0  0  0
    2.2647    1.5100   -0.7421 C   0  0  0  0  0  0  0  0  0  0  0  0
    2.5398    1.4346   -1.9336 O   0  0  0  0  0  0  0  0  0  0  0  0
    5.7465    1.0268    1.2748 C   0  0  0  0  0  0  0  0  0  0  0  0
    6.7669    0.0675    1.3037 C   0  0  0  0  0  0  0  0  0  0  0  0
    9.3752   -2.8172    0.8136 H   0  0  0  0  0  0  0  0  0  0  0  0
    8.9794   -1.5766    2.0173 H   0  0  0  0  0  0  0  0  0  0  0  0
    7.6829   -2.6076    1.2937 H   0  0  0  0  0  0  0  0  0  0  0  0
    7.6987    0.1721   -1.9750 H   0  0  0  0  0  0  0  0  0  0  0  0
    5.8858    1.8401   -2.0437 H   0  0  0  0  0  0  0  0  0  0  0  0
    4.3061    3.2402   -0.9184 H   0  0  0  0  0  0  0  0  0  0  0  0
    4.4932    3.4534    0.8276 H   0  0  0  0  0  0  0  0  0  0  0  0
    0.5781    1.1511    2.0260 H   0  0  0  0  0  0  0  0  0  0  0  0
    1.1339   -0.1786   -0.0355 H   0  0  0  0  0  0  0  0  0  0  0  0
   -0.3735    2.4168   -0.8027 H   0  0  0  0  0  0  0  0  0  0  0  0
   -0.1971    1.0111   -1.8744 H   0  0  0  0  0  0  0  0  0  0  0  0
   -2.6120    1.5640   -1.6812 H   0  0  0  0  0  0  0  0  0  0  0  0
   -4.0358    0.9750    0.6043 H   0  0  0  0  0  0  0  0  0  0  0  0
   -4.6833    0.9427   -1.0408 H   0  0  0  0  0  0  0  0  0  0  0  0
   -3.9831   -1.4875   -1.2550 H   0  0  0  0  0  0  0  0  0  0  0  0
   -3.3895   -1.4680    0.4003 H   0  0  0  0  0  0  0  0  0  0  0  0
   -5.0524   -1.3182    2.3415 H   0  0  0  0  0  0  0  0  0  0  0  0
   -9.6131   -2.3933    0.7393 H   0  0  0  0  0  0  0  0  0  0  0  0
  -10.1221   -2.4681   -1.7046 H   0  0  0  0  0  0  0  0  0  0  0  0
   -8.3548   -1.9923   -3.3676 H   0  0  0  0  0  0  0  0  0  0  0  0
   -6.0395   -1.4312   -2.6427 H   0  0  0  0  0  0  0  0  0  0  0  0
    5.2137    1.2593    2.1965 H   0  0  0  0  0  0  0  0  0  0  0  0
    6.9929   -0.4068    2.2535 H   0  0  0  0  0  0  0  0  0  0  0  0
  1  2  1  0
  2  3  1  0
  3  4  2  0
  4  5  1  0
  5  6  2  0
  6  7  1  0
  7  8  1  0
  8  9  1  0
  9 10  2  0
  9 11  1  0
 11 12  1  0
 12 13  1  0
 13 14  1  0
 14 15  2  0
 14 16  1  0
 16 17  1  0
 17 18  1  0
 18 19  1  0
 19 20  1  0
 20 21  2  0
 21 22  1  0
 22 23  2  0
 23 24  1  0
 24 25  2  0
 25 26  1  0
 26 27  2  0
 12 28  1  0
 28 29  2  0
  6 30  1  0
 30 31  2  0
 31  3  1  0
 28  8  1  0
 27 19  1  0
 27 22  1  0
  1 32  1  0
  1 33  1  0
  1 34  1  0
  4 35  1  0
  5 36  1  0
  7 37  1  0
  7 38  1  0
 11 39  1  0
 12 40  1  1
 13 41  1  0
 13 42  1  0
 16 43  1  0
 17 44  1  0
 17 45  1  0
 18 46  1  0
 18 47  1  0
 20 48  1  0
 23 49  1  0
 24 50  1  0
 25 51  1  0
 26 52  1  0
 30 53  1  0
 31 54  1  0
M  END
$$$$
