
     RDKit          3D

 17 17  0  0  0  0  0  0  0  0999 V2000
    1.6994    1.3813   -1.4964 O   0  0  0  0  0  0  0  0  0  0  0  0
    0.8499    1.5614   -0.6474 C   0  0  0  0  0  0  0  0  0  0  0  0
    0.6499    2.7580   -0.0687 O   0  0  0  0  0  0  0  0  0  0  0  0
   -0.0995    0.5626   -0.1465 C   0  0  0  0  0  0  0  0  0  0  0  0
   -1.4586    0.8768   -0.0354 C   0  0  0  0  0  0  0  0  0  0  0  0
   -2.3618   -0.1134    0.3443 C   0  0  0  0  0  0  0  0  0  0  0  0
   -1.8770   -1.3874    0.5934 C   0  0  0  0  0  0  0  0  0  0  0  0
   -0.5724   -1.7225    0.5043 N   0  0  0  0  0  0  0  0  0  0  0  0
    0.3004   -0.7352    0.1374 C   0  0  0  0  0  0  0  0  0  0  0  0
    1.7419   -1.0995    0.1689 C   0  0  0  0  0  0  0  0  0  0  0  0
    2.6465   -0.4122    0.6082 O   0  0  0  0  0  0  0  0  0  0  0  0
    1.9691   -2.3282   -0.3362 O   0  0  0  0  0  0  0  0  0  0  0  0
    1.3577    3.3256   -0.4428 H   0  0  0  0  0  0  0  0  0  0  0  0
   -1.8142    1.8802   -0.2575 H   0  0  0  0  0  0  0  0  0  0  0  0
   -3.4218    0.1015    0.4337 H   0  0  0  0  0  0  0  0  0  0  0  0
   -2.5443   -2.1947    0.8846 H   0  0  0  0  0  0  0  0  0  0  0  0
    2.9350   -2.4544   -0.2439 H   0  0  0  0  0  0  0  0  0  0  0  0
  1  2  2  0
  2  3  1  0
  2  4  1  0
  4  5  2  0
  5  6  1  0
  6  7  2  0
  7  8  1  0
  8  9  2  0
  9 10  1  0
 10 11  2  0
 10 12  1  0
  9  4  1  0
  3 13  1  0
  5 14  1  0
  6 15  1  0
  7 16  1  0
 12 17  1  0
M  END
$$$$
