
     RDKit          3D

 36 38  0  0  0  0  0  0  0  0999 V2000
    4.0621   -0.7641   -0.8988 C   0  0  0  0  0  0  0  0  0  0  0  0
    3.1173   -0.3493    0.2200 C   0  0  0  0  0  0  0  0  0  0  0  0
    1.9969   -1.3707    0.3975 C   0  0  0  0  0  0  0  0  0  0  0  0
    0.9074   -0.9436    1.7884 S   0  0  0  0  0  0  0  0  0  0  0  0
   -0.0387    0.3288    1.0230 C   0  0  0  0  0  0  0  0  0  0  0  0
    0.3842    1.5309    1.2706 N   0  0  0  0  0  0  0  0  0  0  0  0
   -0.2464    2.5450    0.6203 C   0  0  0  0  0  0  0  0  0  0  0  0
   -1.2149    2.3898   -0.2777 C   0  0  0  0  0  0  0  0  0  0  0  0
   -1.7105    1.0329   -0.5864 C   0  0  0  0  0  0  0  0  0  0  0  0
   -2.6040    0.8785   -1.4180 O   0  0  0  0  0  0  0  0  0  0  0  0
   -1.0994    0.0120    0.1623 N   0  0  0  0  0  0  0  0  0  0  0  0
   -1.6325   -1.3156    0.0265 C   0  0  0  0  0  0  0  0  0  0  0  0
   -1.9797   -2.0756    1.1541 C   0  0  0  0  0  0  0  0  0  0  0  0
   -2.5046   -3.3638    1.0161 C   0  0  0  0  0  0  0  0  0  0  0  0
   -2.7024   -3.9052   -0.2511 C   0  0  0  0  0  0  0  0  0  0  0  0
   -2.3855   -3.1561   -1.3808 C   0  0  0  0  0  0  0  0  0  0  0  0
   -1.8606   -1.8682   -1.2432 C   0  0  0  0  0  0  0  0  0  0  0  0
   -1.8200    3.8387   -0.9711 S   0  0  0  0  0  0  0  0  0  0  0  0
   -0.4662    4.8245   -0.2383 C   0  0  0  0  0  0  0  0  0  0  0  0
    0.1473    3.9689    0.8750 C   0  0  0  0  0  0  0  0  0  0  0  0
    4.5268   -1.7312   -0.6820 H   0  0  0  0  0  0  0  0  0  0  0  0
    3.5296   -0.8438   -1.8520 H   0  0  0  0  0  0  0  0  0  0  0  0
    4.8591   -0.0230   -1.0158 H   0  0  0  0  0  0  0  0  0  0  0  0
    3.6932   -0.2489    1.1479 H   0  0  0  0  0  0  0  0  0  0  0  0
    2.7075    0.6376   -0.0217 H   0  0  0  0  0  0  0  0  0  0  0  0
    1.4104   -1.4680   -0.5219 H   0  0  0  0  0  0  0  0  0  0  0  0
    2.4259   -2.3553    0.6125 H   0  0  0  0  0  0  0  0  0  0  0  0
   -1.8784   -1.6677    2.1572 H   0  0  0  0  0  0  0  0  0  0  0  0
   -2.7692   -3.9387    1.9001 H   0  0  0  0  0  0  0  0  0  0  0  0
   -3.1158   -4.9048   -0.3586 H   0  0  0  0  0  0  0  0  0  0  0  0
   -2.5529   -3.5689   -2.3726 H   0  0  0  0  0  0  0  0  0  0  0  0
   -1.6235   -1.3082   -2.1454 H   0  0  0  0  0  0  0  0  0  0  0  0
   -0.8411    5.7788    0.1427 H   0  0  0  0  0  0  0  0  0  0  0  0
    0.2748    5.0285   -1.0186 H   0  0  0  0  0  0  0  0  0  0  0  0
   -0.2319    4.2858    1.8540 H   0  0  0  0  0  0  0  0  0  0  0  0
    1.2360    4.0904    0.8856 H   0  0  0  0  0  0  0  0  0  0  0  0
  1  2  1  0
  2  3  1  0
  3  4  1  0
  4  5  1  0
  5  6  2  0
  6  7  1  0
  7  8  2  0
  8  9  1  0
  9 10  2  0
  9 11  1  0
 11 12  1  0
 12 13  2  0
 13 14  1  0
 14 15  2  0
 15 16  1  0
 16 17  2  0
  8 18  1  0
 18 19  1  0
 19 20  1  0
 11  5  1  0
 17 12  1  0
 20  7  1  0
  1 21  1  0
  1 22  1  0
  1 23  1  0
  2 24  1  0
  2 25  1  0
  3 26  1  0
  3 27  1  0
 13 28  1  0
 14 29  1  0
 15 30  1  0
 16 31  1  0
 17 32  1  0
 19 33  1  0
 19 34  1  0
 20 35  1  0
 20 36  1  0
M  END
$$$$
