
     RDKit          3D

 65 69  0  0  0  0  0  0  0  0999 V2000
    0.9377    3.3166    0.4740 O   0  0  0  0  0  0  0  0  0  0  0  0
    0.3583    2.2354    0.5572 C   0  0  0  0  0  0  0  0  0  0  0  0
    0.9934    1.0450    0.8379 N   0  0  0  0  0  0  0  0  0  0  0  0
    2.3792    0.8003    0.9476 C   0  0  0  0  0  0  0  0  0  0  0  0
    3.3701    1.7331    0.6352 C   0  0  0  0  0  0  0  0  0  0  0  0
    4.7227    1.3934    0.7528 C   0  0  0  0  0  0  0  0  0  0  0  0
    5.1002    0.1174    1.1734 C   0  0  0  0  0  0  0  0  0  0  0  0
    4.1144   -0.8086    1.5347 C   0  0  0  0  0  0  0  0  0  0  0  0
    2.7636   -0.4741    1.3895 C   0  0  0  0  0  0  0  0  0  0  0  0
    4.3419   -2.0690    2.0290 O   0  0  0  0  0  0  0  0  0  0  0  0
    5.5020   -2.1531    2.8594 C   0  0  0  0  0  0  0  0  0  0  0  0
    6.7578   -2.3719    2.0335 C   0  0  0  0  0  0  0  0  0  0  0  0
    6.8142   -1.4401    0.8361 C   0  0  0  0  0  0  0  0  0  0  0  0
    6.4521   -0.1084    1.2017 O   0  0  0  0  0  0  0  0  0  0  0  0
   -1.0331    2.1361    0.4023 N   0  0  0  0  0  0  0  0  0  0  0  0
   -1.7835    3.3932    0.4428 C   0  0  0  0  0  0  0  0  0  0  0  0
   -2.2490    3.8091   -0.9176 C   0  0  0  0  0  0  0  0  0  0  0  0
   -1.2822    4.3600   -1.9370 C   0  0  0  0  0  0  0  0  0  0  0  0
   -2.2876    5.2713   -1.2896 C   0  0  0  0  0  0  0  0  0  0  0  0
   -1.8170    0.8853    0.4314 C   0  0  0  0  0  0  0  0  0  0  0  0
   -1.5223   -0.1064   -0.7278 C   0  0  2  0  0  0  0  0  0  0  0  0
   -2.1127    0.3953   -2.0595 C   0  0  0  0  0  0  0  0  0  0  0  0
   -3.6409    0.2650   -2.1032 C   0  0  0  0  0  0  0  0  0  0  0  0
   -4.1647   -0.9641   -1.3533 C   0  0  0  0  0  0  0  0  0  0  0  0
   -3.1271   -1.9834   -1.3229 N   0  0  0  0  0  0  0  0  0  0  0  0
   -3.6144   -3.3411   -1.0865 C   0  0  0  0  0  0  0  0  0  0  0  0
   -3.8714   -3.6660    0.3803 C   0  0  0  0  0  0  0  0  0  0  0  0
   -2.6212   -3.3994    1.2038 C   0  0  0  0  0  0  0  0  0  0  0  0
   -2.1671   -1.9580    1.0039 C   0  0  0  0  0  0  0  0  0  0  0  0
   -1.9733   -1.5967   -0.4844 C   0  0  2  0  0  0  0  0  0  0  0  0
    0.4033    0.2788    1.1111 H   0  0  0  0  0  0  0  0  0  0  0  0
    3.1271    2.7318    0.2820 H   0  0  0  0  0  0  0  0  0  0  0  0
    5.4838    2.1266    0.4939 H   0  0  0  0  0  0  0  0  0  0  0  0
    2.0168   -1.2214    1.6515 H   0  0  0  0  0  0  0  0  0  0  0  0
    5.3599   -3.0058    3.5310 H   0  0  0  0  0  0  0  0  0  0  0  0
    5.5876   -1.2754    3.5118 H   0  0  0  0  0  0  0  0  0  0  0  0
    7.6331   -2.2200    2.6805 H   0  0  0  0  0  0  0  0  0  0  0  0
    6.8051   -3.4057    1.6748 H   0  0  0  0  0  0  0  0  0  0  0  0
    6.1998   -1.8057    0.0007 H   0  0  0  0  0  0  0  0  0  0  0  0
    7.8436   -1.4037    0.4611 H   0  0  0  0  0  0  0  0  0  0  0  0
   -1.1761    4.1853    0.8965 H   0  0  0  0  0  0  0  0  0  0  0  0
   -2.6452    3.2605    1.1084 H   0  0  0  0  0  0  0  0  0  0  0  0
   -3.0687    3.1976   -1.2721 H   0  0  0  0  0  0  0  0  0  0  0  0
   -1.4303    4.0885   -2.9754 H   0  0  0  0  0  0  0  0  0  0  0  0
   -0.2396    4.4699   -1.6560 H   0  0  0  0  0  0  0  0  0  0  0  0
   -1.9141    6.0034   -0.5822 H   0  0  0  0  0  0  0  0  0  0  0  0
   -3.1172    5.6228   -1.8933 H   0  0  0  0  0  0  0  0  0  0  0  0
   -2.8837    1.1335    0.4500 H   0  0  0  0  0  0  0  0  0  0  0  0
   -1.5925    0.4455    1.4061 H   0  0  0  0  0  0  0  0  0  0  0  0
   -0.4369   -0.1428   -0.8832 H   0  0  0  0  0  0  0  0  0  0  0  0
   -1.8080    1.4227   -2.2755 H   0  0  0  0  0  0  0  0  0  0  0  0
   -1.6903   -0.2086   -2.8759 H   0  0  0  0  0  0  0  0  0  0  0  0
   -3.9535    0.2200   -3.1541 H   0  0  0  0  0  0  0  0  0  0  0  0
   -4.1128    1.1587   -1.6798 H   0  0  0  0  0  0  0  0  0  0  0  0
   -5.0604   -1.3186   -1.8770 H   0  0  0  0  0  0  0  0  0  0  0  0
   -4.4839   -0.6892   -0.3409 H   0  0  0  0  0  0  0  0  0  0  0  0
   -4.5194   -3.5375   -1.6746 H   0  0  0  0  0  0  0  0  0  0  0  0
   -2.8620   -4.0417   -1.4738 H   0  0  0  0  0  0  0  0  0  0  0  0
   -4.7080   -3.0653    0.7606 H   0  0  0  0  0  0  0  0  0  0  0  0
   -4.1602   -4.7192    0.4803 H   0  0  0  0  0  0  0  0  0  0  0  0
   -1.8205   -4.0896    0.9053 H   0  0  0  0  0  0  0  0  0  0  0  0
   -2.8277   -3.5817    2.2659 H   0  0  0  0  0  0  0  0  0  0  0  0
   -1.2273   -1.8063    1.5480 H   0  0  0  0  0  0  0  0  0  0  0  0
   -2.9237   -1.3077    1.4604 H   0  0  0  0  0  0  0  0  0  0  0  0
   -1.1388   -2.2165   -0.8459 H   0  0  0  0  0  0  0  0  0  0  0  0
  1  2  2  0
  2  3  1  0
  3  4  1  0
  4  5  2  0
  5  6  1  0
  6  7  2  0
  7  8  1  0
  8  9  2  0
  8 10  1  0
 10 11  1  0
 11 12  1  0
 12 13  1  0
 13 14  1  0
  2 15  1  0
 15 16  1  0
 16 17  1  0
 17 18  1  0
 18 19  1  0
 15 20  1  0
 20 21  1  0
 21 22  1  0
 22 23  1  0
 23 24  1  0
 24 25  1  0
 25 26  1  0
 26 27  1  0
 27 28  1  0
 28 29  1  0
 29 30  1  0
  9  4  1  0
 19 17  1  0
 30 21  1  0
 14  7  1  0
 30 25  1  0
  3 31  1  0
  5 32  1  0
  6 33  1  0
  9 34  1  0
 11 35  1  0
 11 36  1  0
 12 37  1  0
 12 38  1  0
 13 39  1  0
 13 40  1  0
 16 41  1  0
 16 42  1  0
 17 43  1  0
 18 44  1  0
 18 45  1  0
 19 46  1  0
 19 47  1  0
 20 48  1  0
 20 49  1  0
 21 50  1  6
 22 51  1  0
 22 52  1  0
 23 53  1  0
 23 54  1  0
 24 55  1  0
 24 56  1  0
 26 57  1  0
 26 58  1  0
 27 59  1  0
 27 60  1  0
 28 61  1  0
 28 62  1  0
 29 63  1  0
 29 64  1  0
 30 65  1  6
M  END
$$$$
