
     RDKit          3D

 58 61  0  0  0  0  0  0  0  0999 V2000
   -4.0442   -0.0624   -2.0888 C   0  0  0  0  0  0  0  0  0  0  0  0
   -3.1217    0.6769   -1.2446 N   0  0  0  0  0  0  0  0  0  0  0  0
   -1.7860    0.9179   -1.8001 C   0  0  0  0  0  0  0  0  0  0  0  0
   -0.8773   -0.3312   -1.8951 C   0  0  0  0  0  0  0  0  0  0  0  0
   -0.3901   -0.7802   -0.5856 N   0  0  0  0  0  0  0  0  0  0  0  0
   -1.0459   -2.0011   -0.0769 C   0  0  0  0  0  0  0  0  0  0  0  0
   -1.0544   -2.0653    1.4679 C   0  0  0  0  0  0  0  0  0  0  0  0
   -0.3683   -3.3188    1.9914 C   0  0  0  0  0  0  0  0  0  0  0  0
   -0.9315   -4.5125    1.4482 O   0  0  0  0  0  0  0  0  0  0  0  0
   -1.1848   -4.4902    0.0409 C   0  0  0  0  0  0  0  0  0  0  0  0
   -0.5384   -3.3150   -0.6864 C   0  0  0  0  0  0  0  0  0  0  0  0
    1.0447   -0.6184   -0.3240 C   0  0  0  0  0  0  0  0  0  0  0  0
    2.0706   -1.2099   -1.3098 C   0  0  0  0  0  0  0  0  0  0  0  0
    3.3544   -0.4693   -0.9454 C   0  0  0  0  0  0  0  0  0  0  0  0
    2.9139    0.8439   -0.5362 N   0  0  0  0  0  0  0  0  0  0  0  0
    3.7878    1.9010   -0.4249 C   0  0  0  0  0  0  0  0  0  0  0  0
    4.9752    1.8346   -0.7156 O   0  0  0  0  0  0  0  0  0  0  0  0
    3.2083    3.1795    0.0730 C   0  0  0  0  0  0  0  0  0  0  0  0
    4.0444    4.1270    0.9008 C   0  0  0  0  0  0  0  0  0  0  0  0
    2.9438    3.3489    1.5549 C   0  0  0  0  0  0  0  0  0  0  0  0
    1.4884    0.8604   -0.2421 C   0  0  0  0  0  0  0  0  0  0  0  0
   -3.3590    0.6051    0.1441 C   0  0  0  0  0  0  0  0  0  0  0  0
   -4.2371   -0.1361    0.5939 O   0  0  0  0  0  0  0  0  0  0  0  0
   -2.5930    1.4909    1.0398 C   0  0  0  0  0  0  0  0  0  0  0  0
   -2.3098    2.8268    0.7919 C   0  0  0  0  0  0  0  0  0  0  0  0
   -1.4599    3.5265    2.1047 S   0  0  0  0  0  0  0  0  0  0  0  0
   -1.5638    2.0360    2.9396 C   0  0  0  0  0  0  0  0  0  0  0  0
   -2.1682    1.0589    2.2991 N   0  0  0  0  0  0  0  0  0  0  0  0
   -3.7860   -1.1248   -2.0785 H   0  0  0  0  0  0  0  0  0  0  0  0
   -3.9892    0.3208   -3.1126 H   0  0  0  0  0  0  0  0  0  0  0  0
   -5.0745    0.0461   -1.7320 H   0  0  0  0  0  0  0  0  0  0  0  0
   -1.9236    1.3320   -2.8062 H   0  0  0  0  0  0  0  0  0  0  0  0
   -1.2699    1.6898   -1.2257 H   0  0  0  0  0  0  0  0  0  0  0  0
   -0.0436   -0.0494   -2.5477 H   0  0  0  0  0  0  0  0  0  0  0  0
   -1.4005   -1.1370   -2.4277 H   0  0  0  0  0  0  0  0  0  0  0  0
   -2.1077   -1.9262   -0.3543 H   0  0  0  0  0  0  0  0  0  0  0  0
   -0.5983   -1.1784    1.9240 H   0  0  0  0  0  0  0  0  0  0  0  0
   -2.1016   -2.0742    1.8045 H   0  0  0  0  0  0  0  0  0  0  0  0
   -0.4677   -3.3709    3.0813 H   0  0  0  0  0  0  0  0  0  0  0  0
    0.7045   -3.3074    1.7688 H   0  0  0  0  0  0  0  0  0  0  0  0
   -2.2779   -4.4791   -0.0926 H   0  0  0  0  0  0  0  0  0  0  0  0
   -0.8238   -5.4374   -0.3709 H   0  0  0  0  0  0  0  0  0  0  0  0
    0.5425   -3.4096   -0.5604 H   0  0  0  0  0  0  0  0  0  0  0  0
   -0.7537   -3.3659   -1.7578 H   0  0  0  0  0  0  0  0  0  0  0  0
    1.2796   -1.0480    0.6593 H   0  0  0  0  0  0  0  0  0  0  0  0
    2.2039   -2.2876   -1.2076 H   0  0  0  0  0  0  0  0  0  0  0  0
    1.8158   -1.0045   -2.3547 H   0  0  0  0  0  0  0  0  0  0  0  0
    3.8468   -0.9356   -0.0884 H   0  0  0  0  0  0  0  0  0  0  0  0
    4.0634   -0.4095   -1.7757 H   0  0  0  0  0  0  0  0  0  0  0  0
    2.5188    3.6477   -0.6215 H   0  0  0  0  0  0  0  0  0  0  0  0
    3.8960    5.1935    0.7579 H   0  0  0  0  0  0  0  0  0  0  0  0
    5.0776    3.8450    1.0892 H   0  0  0  0  0  0  0  0  0  0  0  0
    3.2368    2.5499    2.2276 H   0  0  0  0  0  0  0  0  0  0  0  0
    2.0500    3.8856    1.8584 H   0  0  0  0  0  0  0  0  0  0  0  0
    1.0175    1.5032   -0.9908 H   0  0  0  0  0  0  0  0  0  0  0  0
    1.2903    1.2797    0.7497 H   0  0  0  0  0  0  0  0  0  0  0  0
   -2.5645    3.4143   -0.0781 H   0  0  0  0  0  0  0  0  0  0  0  0
   -1.1587    1.9139    3.9357 H   0  0  0  0  0  0  0  0  0  0  0  0
  1  2  1  0
  2  3  1  0
  3  4  1  0
  4  5  1  0
  5  6  1  0
  6  7  1  0
  7  8  1  0
  8  9  1  0
  9 10  1  0
 10 11  1  0
  5 12  1  0
 12 13  1  0
 13 14  1  0
 14 15  1  0
 15 16  1  0
 16 17  2  0
 16 18  1  0
 18 19  1  0
 19 20  1  0
 15 21  1  0
  2 22  1  0
 22 23  2  0
 22 24  1  0
 24 25  2  0
 25 26  1  0
 26 27  1  0
 27 28  2  0
 11  6  1  0
 21 12  1  0
 28 24  1  0
 20 18  1  0
  1 29  1  0
  1 30  1  0
  1 31  1  0
  3 32  1  0
  3 33  1  0
  4 34  1  0
  4 35  1  0
  6 36  1  0
  7 37  1  0
  7 38  1  0
  8 39  1  0
  8 40  1  0
 10 41  1  0
 10 42  1  0
 11 43  1  0
 11 44  1  0
 12 45  1  0
 13 46  1  0
 13 47  1  0
 14 48  1  0
 14 49  1  0
 18 50  1  0
 19 51  1  0
 19 52  1  0
 20 53  1  0
 20 54  1  0
 21 55  1  0
 21 56  1  0
 25 57  1  0
 27 58  1  0
M  END
$$$$
