
     RDKit          3D

 28 28  0  0  0  0  0  0  0  0999 V2000
    4.9839   -1.1723    0.2247 C   0  0  0  0  0  0  0  0  0  0  0  0
    3.7713   -0.8072   -0.6170 C   0  0  0  0  0  0  0  0  0  0  0  0
    2.6847   -0.4003    0.2563 N   0  0  0  0  0  0  0  0  0  0  0  0
    1.4901   -0.1011   -0.3869 C   0  0  0  0  0  0  0  0  0  0  0  0
    1.4957    0.4291   -1.5955 N   0  0  0  0  0  0  0  0  0  0  0  0
    0.2840    0.6739   -2.0664 C   0  0  0  0  0  0  0  0  0  0  0  0
    0.2148    1.3672   -3.6278 Cl  0  0  0  0  0  0  0  0  0  0  0  0
   -0.8810    0.4489   -1.4818 N   0  0  0  0  0  0  0  0  0  0  0  0
   -0.7705   -0.0888   -0.2819 C   0  0  0  0  0  0  0  0  0  0  0  0
   -1.9000   -0.3993    0.4562 N   0  0  0  0  0  0  0  0  0  0  0  0
   -3.0915    0.4164    0.2588 C   0  0  0  0  0  0  0  0  0  0  0  0
   -2.9279    1.7852    0.9195 C   0  0  0  0  0  0  0  0  0  0  0  0
   -4.2798   -0.3240    0.8737 C   0  0  0  0  0  0  0  0  0  0  0  0
    0.3878   -0.3782    0.3008 N   0  0  0  0  0  0  0  0  0  0  0  0
    5.3104   -0.3217    0.8324 H   0  0  0  0  0  0  0  0  0  0  0  0
    4.7563   -2.0011    0.9036 H   0  0  0  0  0  0  0  0  0  0  0  0
    5.8168   -1.4751   -0.4174 H   0  0  0  0  0  0  0  0  0  0  0  0
    4.0505    0.0069   -1.2965 H   0  0  0  0  0  0  0  0  0  0  0  0
    3.4783   -1.6756   -1.2194 H   0  0  0  0  0  0  0  0  0  0  0  0
    2.4564   -1.0503    1.0016 H   0  0  0  0  0  0  0  0  0  0  0  0
   -1.6127   -0.5405    1.4186 H   0  0  0  0  0  0  0  0  0  0  0  0
   -3.3060    0.5480   -0.8090 H   0  0  0  0  0  0  0  0  0  0  0  0
   -2.1070    2.3505    0.4658 H   0  0  0  0  0  0  0  0  0  0  0  0
   -3.8408    2.3802    0.8113 H   0  0  0  0  0  0  0  0  0  0  0  0
   -2.7099    1.6881    1.9890 H   0  0  0  0  0  0  0  0  0  0  0  0
   -4.4104   -1.3051    0.4037 H   0  0  0  0  0  0  0  0  0  0  0  0
   -4.1368   -0.4890    1.9477 H   0  0  0  0  0  0  0  0  0  0  0  0
   -5.2067    0.2426    0.7363 H   0  0  0  0  0  0  0  0  0  0  0  0
  1  2  1  0
  2  3  1  0
  3  4  1  0
  4  5  2  0
  5  6  1  0
  6  7  1  0
  6  8  2  0
  8  9  1  0
  9 10  1  0
 10 11  1  0
 11 12  1  0
 11 13  1  0
  9 14  2  0
 14  4  1  0
  1 15  1  0
  1 16  1  0
  1 17  1  0
  2 18  1  0
  2 19  1  0
  3 20  1  0
 10 21  1  0
 11 22  1  0
 12 23  1  0
 12 24  1  0
 12 25  1  0
 13 26  1  0
 13 27  1  0
 13 28  1  0
M  END
$$$$
