
     RDKit          3D

 60 63  0  0  0  0  0  0  0  0999 V2000
   -4.9362    3.6765    0.0773 C   0  0  0  0  0  0  0  0  0  0  0  0
   -5.3543    2.3340    0.6933 C   0  0  0  0  0  0  0  0  0  0  0  0
   -5.8021    2.5455    2.1516 C   0  0  0  0  0  0  0  0  0  0  0  0
   -6.5700    1.7865   -0.0741 C   0  0  0  0  0  0  0  0  0  0  0  0
   -4.1856    1.4087    0.6670 N   0  0  0  0  0  0  0  0  0  0  0  0
   -2.9863    1.5371    1.4027 C   0  0  0  0  0  0  0  0  0  0  0  0
   -2.7751    2.3502    2.2909 O   0  0  0  0  0  0  0  0  0  0  0  0
   -1.9413    0.5256    0.9738 C   0  0  0  0  0  0  0  0  0  0  0  0
   -0.7747    0.4799    1.7175 N   0  0  0  0  0  0  0  0  0  0  0  0
    0.5455    0.2777    1.2727 C   0  0  0  0  0  0  0  0  0  0  0  0
    1.5250   -0.0164    2.2245 C   0  0  0  0  0  0  0  0  0  0  0  0
    2.8548   -0.2611    1.8501 C   0  0  0  0  0  0  0  0  0  0  0  0
    3.2686   -0.2265    0.5116 C   0  0  0  0  0  0  0  0  0  0  0  0
    4.5852   -0.4675    0.1436 N   0  0  0  0  0  0  0  0  0  0  0  0
    5.4743   -1.2484    1.0104 C   0  0  0  0  0  0  0  0  0  0  0  0
    6.5230   -1.9866    0.1816 C   0  0  0  0  0  0  0  0  0  0  0  0
    7.3691   -1.0362   -0.6610 C   0  0  0  0  0  0  0  0  0  0  0  0
    6.6126    0.2277   -1.0607 C   0  0  0  0  0  0  0  0  0  0  0  0
    5.1056   -0.0024   -1.1458 C   0  0  0  0  0  0  0  0  0  0  0  0
    2.2738    0.0714   -0.4300 C   0  0  0  0  0  0  0  0  0  0  0  0
    0.9405    0.3172   -0.0617 C   0  0  0  0  0  0  0  0  0  0  0  0
   -2.3960   -0.2227   -0.0439 C   0  0  0  0  0  0  0  0  0  0  0  0
   -1.8721   -1.4055   -0.7205 C   0  0  0  0  0  0  0  0  0  0  0  0
   -1.7831   -1.4863   -2.1187 C   0  0  0  0  0  0  0  0  0  0  0  0
   -1.2625   -2.6266   -2.7362 C   0  0  0  0  0  0  0  0  0  0  0  0
   -0.8194   -3.6981   -1.9656 C   0  0  0  0  0  0  0  0  0  0  0  0
   -0.8946   -3.6312   -0.5772 C   0  0  0  0  0  0  0  0  0  0  0  0
   -1.4169   -2.4931    0.0410 C   0  0  0  0  0  0  0  0  0  0  0  0
   -3.9732    0.2523   -0.5367 S   0  0  0  0  0  6  0  0  0  0  0  0
   -3.9121    0.9532   -1.8024 O   0  0  0  0  0  0  0  0  0  0  0  0
   -4.9271   -0.8097   -0.3013 O   0  0  0  0  0  0  0  0  0  0  0  0
   -4.6127    3.5533   -0.9624 H   0  0  0  0  0  0  0  0  0  0  0  0
   -5.7661    4.3919    0.0868 H   0  0  0  0  0  0  0  0  0  0  0  0
   -4.1031    4.1300    0.6251 H   0  0  0  0  0  0  0  0  0  0  0  0
   -5.0545    3.0827    2.7427 H   0  0  0  0  0  0  0  0  0  0  0  0
   -5.9915    1.5868    2.6478 H   0  0  0  0  0  0  0  0  0  0  0  0
   -6.7236    3.1375    2.2008 H   0  0  0  0  0  0  0  0  0  0  0  0
   -6.8953    0.8207    0.3272 H   0  0  0  0  0  0  0  0  0  0  0  0
   -6.3668    1.6616   -1.1422 H   0  0  0  0  0  0  0  0  0  0  0  0
   -7.4225    2.4717    0.0027 H   0  0  0  0  0  0  0  0  0  0  0  0
   -0.8022    1.1184    2.5182 H   0  0  0  0  0  0  0  0  0  0  0  0
    1.2646   -0.0682    3.2790 H   0  0  0  0  0  0  0  0  0  0  0  0
    3.5694   -0.4615    2.6433 H   0  0  0  0  0  0  0  0  0  0  0  0
    4.9132   -2.0052    1.5721 H   0  0  0  0  0  0  0  0  0  0  0  0
    5.9616   -0.5830    1.7332 H   0  0  0  0  0  0  0  0  0  0  0  0
    6.0151   -2.6956   -0.4855 H   0  0  0  0  0  0  0  0  0  0  0  0
    7.1723   -2.5824    0.8331 H   0  0  0  0  0  0  0  0  0  0  0  0
    7.7126   -1.5668   -1.5573 H   0  0  0  0  0  0  0  0  0  0  0  0
    8.2724   -0.7494   -0.1094 H   0  0  0  0  0  0  0  0  0  0  0  0
    6.9953    0.6020   -2.0170 H   0  0  0  0  0  0  0  0  0  0  0  0
    6.8118    1.0103   -0.3166 H   0  0  0  0  0  0  0  0  0  0  0  0
    4.8773   -0.7383   -1.9260 H   0  0  0  0  0  0  0  0  0  0  0  0
    4.6461    0.9509   -1.4337 H   0  0  0  0  0  0  0  0  0  0  0  0
    2.5081    0.0973   -1.4906 H   0  0  0  0  0  0  0  0  0  0  0  0
    0.2368    0.5569   -0.8515 H   0  0  0  0  0  0  0  0  0  0  0  0
   -2.1035   -0.6616   -2.7531 H   0  0  0  0  0  0  0  0  0  0  0  0
   -1.2000   -2.6752   -3.8205 H   0  0  0  0  0  0  0  0  0  0  0  0
   -0.4114   -4.5830   -2.4464 H   0  0  0  0  0  0  0  0  0  0  0  0
   -0.5429   -4.4632    0.0277 H   0  0  0  0  0  0  0  0  0  0  0  0
   -1.4561   -2.4639    1.1284 H   0  0  0  0  0  0  0  0  0  0  0  0
  1  2  1  0
  2  3  1  0
  2  4  1  0
  2  5  1  0
  5  6  1  0
  6  7  2  0
  6  8  1  0
  8  9  1  0
  9 10  1  0
 10 11  2  0
 11 12  1  0
 12 13  2  0
 13 14  1  0
 14 15  1  0
 15 16  1  0
 16 17  1  0
 17 18  1  0
 18 19  1  0
 13 20  1  0
 20 21  2  0
  8 22  2  0
 22 23  1  0
 23 24  2  0
 24 25  1  0
 25 26  2  0
 26 27  1  0
 27 28  2  0
 22 29  1  0
 29 30  2  0
 29 31  2  0
 29  5  1  0
 21 10  1  0
 28 23  1  0
 19 14  1  0
  1 32  1  0
  1 33  1  0
  1 34  1  0
  3 35  1  0
  3 36  1  0
  3 37  1  0
  4 38  1  0
  4 39  1  0
  4 40  1  0
  9 41  1  0
 11 42  1  0
 12 43  1  0
 15 44  1  0
 15 45  1  0
 16 46  1  0
 16 47  1  0
 17 48  1  0
 17 49  1  0
 18 50  1  0
 18 51  1  0
 19 52  1  0
 19 53  1  0
 20 54  1  0
 21 55  1  0
 24 56  1  0
 25 57  1  0
 26 58  1  0
 27 59  1  0
 28 60  1  0
M  END
$$$$
