
     RDKit          3D

 69 73  0  0  0  0  0  0  0  0999 V2000
   11.6137   -1.1106    0.0732 C   0  0  0  0  0  0  0  0  0  0  0  0
   11.4756   -0.1686   -1.0262 N   0  0  0  0  0  0  0  0  0  0  0  0
   11.4031   -0.8065   -2.3313 C   0  0  0  0  0  0  0  0  0  0  0  0
   10.5090    0.8985   -0.8049 C   0  0  0  0  0  0  0  0  0  0  0  0
    9.0323    0.6212   -0.6867 C   0  0  0  0  0  0  0  0  0  0  0  0
    8.3726   -0.5449   -0.7870 C   0  0  0  0  0  0  0  0  0  0  0  0
    6.8906   -0.6606   -0.7059 C   0  0  0  0  0  0  0  0  0  0  0  0
    6.3213   -1.4143   -1.4843 O   0  0  0  0  0  0  0  0  0  0  0  0
    6.3332    0.0814    0.3117 N   0  0  0  0  0  0  0  0  0  0  0  0
    4.9682    0.1752    0.6520 C   0  0  0  0  0  0  0  0  0  0  0  0
    3.9451   -0.4668   -0.0508 C   0  0  0  0  0  0  0  0  0  0  0  0
    2.6094   -0.3285    0.3466 C   0  0  0  0  0  0  0  0  0  0  0  0
    2.2844    0.4675    1.4497 C   0  0  0  0  0  0  0  0  0  0  0  0
    0.8762    0.6365    1.9068 C   0  0  0  0  0  0  0  0  0  0  0  0
    0.6666    0.7340    3.1095 O   0  0  0  0  0  0  0  0  0  0  0  0
   -0.0566    0.7120    0.8880 N   0  0  0  0  0  0  0  0  0  0  0  0
   -1.4597    0.7988    1.0176 C   0  0  0  0  0  0  0  0  0  0  0  0
   -2.1346    0.6878    2.2295 C   0  0  0  0  0  0  0  0  0  0  0  0
   -3.5273    0.7509    2.2605 C   0  0  0  0  0  0  0  0  0  0  0  0
   -4.2550    0.9293    1.0811 C   0  0  0  0  0  0  0  0  0  0  0  0
   -3.6090    1.0658   -0.1490 C   0  0  0  0  0  0  0  0  0  0  0  0
   -4.2800    1.2161   -1.3697 N   0  0  0  0  0  0  0  0  0  0  0  0
   -5.6216    1.1702   -1.7330 C   0  0  0  0  0  0  0  0  0  0  0  0
   -5.8863    1.5305   -2.9992 N   0  0  0  0  0  0  0  0  0  0  0  0
   -7.1743    1.4611   -3.4036 C   0  0  0  0  0  0  0  0  0  0  0  0
   -8.2153    1.0499   -2.6042 C   0  0  0  0  0  0  0  0  0  0  0  0
   -9.8012    0.9588   -3.2541 Cl  0  0  0  0  0  0  0  0  0  0  0  0
   -7.8496    0.7049   -1.3188 C   0  0  0  0  0  0  0  0  0  0  0  0
   -8.7841    0.2210   -0.3118 C   0  0  0  0  0  0  0  0  0  0  0  0
   -9.9251    0.8952    0.0804 C   0  0  0  0  0  0  0  0  0  0  0  0
  -10.5368    0.1612    1.0635 N   0  0  0  0  0  0  0  0  0  0  0  0
   -9.8004   -0.9663    1.3467 C   0  0  0  0  0  0  0  0  0  0  0  0
  -10.0310   -1.9846    2.2800 C   0  0  0  0  0  0  0  0  0  0  0  0
   -9.0911   -3.0175    2.3584 C   0  0  0  0  0  0  0  0  0  0  0  0
   -7.9645   -3.0279    1.5391 C   0  0  0  0  0  0  0  0  0  0  0  0
   -7.7491   -2.0020    0.6125 C   0  0  0  0  0  0  0  0  0  0  0  0
   -8.6846   -0.9495    0.5077 C   0  0  0  0  0  0  0  0  0  0  0  0
   -6.5671    0.7568   -0.8830 N   0  0  0  0  0  0  0  0  0  0  0  0
   -2.2044    0.9807   -0.1597 C   0  0  0  0  0  0  0  0  0  0  0  0
    3.3043    1.0991    2.1674 C   0  0  0  0  0  0  0  0  0  0  0  0
    4.6368    0.9581    1.7658 C   0  0  0  0  0  0  0  0  0  0  0  0
   10.7579   -1.7842    0.1734 H   0  0  0  0  0  0  0  0  0  0  0  0
   12.5085   -1.7292   -0.0659 H   0  0  0  0  0  0  0  0  0  0  0  0
   11.7479   -0.5826    1.0245 H   0  0  0  0  0  0  0  0  0  0  0  0
   10.5506   -1.4828   -2.4358 H   0  0  0  0  0  0  0  0  0  0  0  0
   11.3478   -0.0592   -3.1310 H   0  0  0  0  0  0  0  0  0  0  0  0
   12.3115   -1.3904   -2.5182 H   0  0  0  0  0  0  0  0  0  0  0  0
   10.8043    1.4351    0.1073 H   0  0  0  0  0  0  0  0  0  0  0  0
   10.6338    1.6391   -1.6072 H   0  0  0  0  0  0  0  0  0  0  0  0
    8.4533    1.5309   -0.5306 H   0  0  0  0  0  0  0  0  0  0  0  0
    8.8628   -1.4797   -1.0212 H   0  0  0  0  0  0  0  0  0  0  0  0
    6.9758    0.5756    0.9159 H   0  0  0  0  0  0  0  0  0  0  0  0
    4.1537   -1.0980   -0.9100 H   0  0  0  0  0  0  0  0  0  0  0  0
    1.8448   -0.8767   -0.1980 H   0  0  0  0  0  0  0  0  0  0  0  0
    0.3010    0.7739   -0.0561 H   0  0  0  0  0  0  0  0  0  0  0  0
   -1.6091    0.5354    3.1665 H   0  0  0  0  0  0  0  0  0  0  0  0
   -4.0516    0.6541    3.2072 H   0  0  0  0  0  0  0  0  0  0  0  0
   -5.3376    0.9722    1.1566 H   0  0  0  0  0  0  0  0  0  0  0  0
   -3.7335    1.5276   -2.1589 H   0  0  0  0  0  0  0  0  0  0  0  0
   -7.3395    1.7507   -4.4381 H   0  0  0  0  0  0  0  0  0  0  0  0
  -10.3559    1.8320   -0.2473 H   0  0  0  0  0  0  0  0  0  0  0  0
  -11.3951    0.4153    1.5332 H   0  0  0  0  0  0  0  0  0  0  0  0
  -10.9034   -1.9788    2.9251 H   0  0  0  0  0  0  0  0  0  0  0  0
   -9.2409   -3.8229    3.0740 H   0  0  0  0  0  0  0  0  0  0  0  0
   -7.2418   -3.8369    1.6196 H   0  0  0  0  0  0  0  0  0  0  0  0
   -6.8621   -2.0123   -0.0162 H   0  0  0  0  0  0  0  0  0  0  0  0
   -1.6864    1.0539   -1.1117 H   0  0  0  0  0  0  0  0  0  0  0  0
    3.0625    1.7003    3.0419 H   0  0  0  0  0  0  0  0  0  0  0  0
    5.4070    1.4638    2.3427 H   0  0  0  0  0  0  0  0  0  0  0  0
  1  2  1  0
  2  3  1  0
  2  4  1  0
  4  5  1  0
  5  6  2  0
  6  7  1  0
  7  8  2  0
  7  9  1  0
  9 10  1  0
 10 11  2  0
 11 12  1  0
 12 13  2  0
 13 14  1  0
 14 15  2  0
 14 16  1  0
 16 17  1  0
 17 18  2  0
 18 19  1  0
 19 20  2  0
 20 21  1  0
 21 22  1  0
 22 23  1  0
 23 24  2  0
 24 25  1  0
 25 26  2  0
 26 27  1  0
 26 28  1  0
 28 29  1  0
 29 30  2  0
 30 31  1  0
 31 32  1  0
 32 33  2  0
 33 34  1  0
 34 35  2  0
 35 36  1  0
 36 37  2  0
 28 38  2  0
 21 39  2  0
 13 40  1  0
 40 41  2  0
 41 10  1  0
 39 17  1  0
 38 23  1  0
 37 29  1  0
 37 32  1  0
  1 42  1  0
  1 43  1  0
  1 44  1  0
  3 45  1  0
  3 46  1  0
  3 47  1  0
  4 48  1  0
  4 49  1  0
  5 50  1  0
  6 51  1  0
  9 52  1  0
 11 53  1  0
 12 54  1  0
 16 55  1  0
 18 56  1  0
 19 57  1  0
 20 58  1  0
 22 59  1  0
 25 60  1  0
 30 61  1  0
 31 62  1  0
 33 63  1  0
 34 64  1  0
 35 65  1  0
 36 66  1  0
 39 67  1  0
 40 68  1  0
 41 69  1  0
M  END
$$$$
