
     RDKit          3D

 62 65  0  0  0  0  0  0  0  0999 V2000
    4.2209    1.5763    2.7016 C   0  0  0  0  0  0  0  0  0  0  0  0
    3.9753    0.4222    1.7796 C   0  0  0  0  0  0  0  0  0  0  0  0
    4.1672   -0.7482    2.0715 O   0  0  0  0  0  0  0  0  0  0  0  0
    3.4849    0.8698    0.5963 O   0  0  0  0  0  0  0  0  0  0  0  0
    3.2502   -0.0729   -0.4885 C   0  0  2  0  0  0  0  0  0  0  0  0
    4.5033   -0.9693   -0.7014 C   0  0  0  0  0  0  0  0  0  0  0  0
    4.4681   -2.4369   -0.3745 C   0  0  0  0  0  0  0  0  0  0  0  0
    5.5564   -0.4786   -1.1303 O   0  0  0  0  0  0  0  0  0  0  0  0
    3.1571    0.8490   -1.7577 C   0  0  0  0  0  0  0  0  0  0  0  0
    1.6767    1.1989   -1.9703 C   0  0  0  0  0  0  0  0  0  0  0  0
    0.9702    0.6139   -0.7563 C   0  0  1  0  0  0  0  0  0  0  0  0
   -0.5467    0.3828   -0.8598 C   0  0  2  0  0  0  0  0  0  0  0  0
   -1.2918    1.6871   -1.1756 C   0  0  0  0  0  0  0  0  0  0  0  0
   -2.8055    1.4578   -1.2834 C   0  0  2  0  0  0  0  0  0  0  0  0
   -3.4747    2.7658   -1.7310 C   0  0  0  0  0  0  0  0  0  0  0  0
   -3.3521    0.8236   -0.0016 C   0  0  0  0  0  0  0  0  0  0  0  0
   -4.4167    1.3316    0.6506 C   0  0  0  0  0  0  0  0  0  0  0  0
   -5.0444    0.6527    1.8085 C   0  0  0  0  0  0  0  0  0  0  0  0
   -5.9860    1.1894    2.3869 O   0  0  0  0  0  0  0  0  0  0  0  0
   -4.5535   -0.7196    2.1722 C   0  0  0  0  0  0  0  0  0  0  0  0
   -3.0566   -0.8145    1.9303 C   0  0  0  0  0  0  0  0  0  0  0  0
   -2.6281   -0.4556    0.4744 C   0  0  1  0  0  0  0  0  0  0  0  0
   -3.0320   -1.6201   -0.4588 C   0  0  0  0  0  0  0  0  0  0  0  0
   -1.0698   -0.2136    0.4765 C   0  0  1  0  0  0  0  0  0  0  0  0
   -0.2379   -1.4495    0.9045 C   0  0  0  0  0  0  0  0  0  0  0  0
    1.2766   -1.1746    0.9231 C   0  0  0  0  0  0  0  0  0  0  0  0
    1.7948   -0.6673   -0.4358 C   0  0  2  0  0  0  0  0  0  0  0  0
    1.5980   -1.7733   -1.5096 C   0  0  0  0  0  0  0  0  0  0  0  0
    4.6737    1.2105    3.6275 H   0  0  0  0  0  0  0  0  0  0  0  0
    3.2736    2.0651    2.9421 H   0  0  0  0  0  0  0  0  0  0  0  0
    4.9119    2.2833    2.2354 H   0  0  0  0  0  0  0  0  0  0  0  0
    3.7668   -2.6577    0.4279 H   0  0  0  0  0  0  0  0  0  0  0  0
    5.4607   -2.7478   -0.0337 H   0  0  0  0  0  0  0  0  0  0  0  0
    4.2114   -3.0048   -1.2712 H   0  0  0  0  0  0  0  0  0  0  0  0
    3.7424    1.7674   -1.6261 H   0  0  0  0  0  0  0  0  0  0  0  0
    3.5352    0.3505   -2.6587 H   0  0  0  0  0  0  0  0  0  0  0  0
    1.5341    2.2821   -2.0431 H   0  0  0  0  0  0  0  0  0  0  0  0
    1.3108    0.7538   -2.9025 H   0  0  0  0  0  0  0  0  0  0  0  0
    1.1121    1.3357    0.0643 H   0  0  0  0  0  0  0  0  0  0  0  0
   -0.7492   -0.3116   -1.6812 H   0  0  0  0  0  0  0  0  0  0  0  0
   -0.9241    2.0957   -2.1249 H   0  0  0  0  0  0  0  0  0  0  0  0
   -1.0788    2.4394   -0.4043 H   0  0  0  0  0  0  0  0  0  0  0  0
   -2.9809    0.7387   -2.0952 H   0  0  0  0  0  0  0  0  0  0  0  0
   -3.3564    3.5567   -0.9821 H   0  0  0  0  0  0  0  0  0  0  0  0
   -3.0311    3.1256   -2.6662 H   0  0  0  0  0  0  0  0  0  0  0  0
   -4.5439    2.6203   -1.9196 H   0  0  0  0  0  0  0  0  0  0  0  0
   -4.9321    2.2355    0.3479 H   0  0  0  0  0  0  0  0  0  0  0  0
   -4.7587   -0.8934    3.2342 H   0  0  0  0  0  0  0  0  0  0  0  0
   -5.1102   -1.4609    1.5908 H   0  0  0  0  0  0  0  0  0  0  0  0
   -2.5559   -0.1363    2.6357 H   0  0  0  0  0  0  0  0  0  0  0  0
   -2.7311   -1.8285    2.1913 H   0  0  0  0  0  0  0  0  0  0  0  0
   -2.6283   -1.5046   -1.4691 H   0  0  0  0  0  0  0  0  0  0  0  0
   -2.6802   -2.5839   -0.0758 H   0  0  0  0  0  0  0  0  0  0  0  0
   -4.1212   -1.6948   -0.5590 H   0  0  0  0  0  0  0  0  0  0  0  0
   -0.8771    0.5532    1.2449 H   0  0  0  0  0  0  0  0  0  0  0  0
   -0.5244   -1.7632    1.9141 H   0  0  0  0  0  0  0  0  0  0  0  0
   -0.4452   -2.2996    0.2470 H   0  0  0  0  0  0  0  0  0  0  0  0
    1.7966   -2.0896    1.2234 H   0  0  0  0  0  0  0  0  0  0  0  0
    1.4629   -0.4352    1.7098 H   0  0  0  0  0  0  0  0  0  0  0  0
    2.1198   -1.5514   -2.4454 H   0  0  0  0  0  0  0  0  0  0  0  0
    0.5494   -1.9374   -1.7683 H   0  0  0  0  0  0  0  0  0  0  0  0
    1.9641   -2.7395   -1.1512 H   0  0  0  0  0  0  0  0  0  0  0  0
  1  2  1  0
  2  3  2  0
  2  4  1  0
  5  4  1  1
  5  6  1  0
  6  7  1  0
  6  8  2  0
  5  9  1  0
  9 10  1  0
 10 11  1  0
 11 12  1  0
 12 13  1  0
 13 14  1  0
 14 15  1  0
 14 16  1  0
 16 17  2  0
 17 18  1  0
 18 19  2  0
 18 20  1  0
 20 21  1  0
 21 22  1  0
 22 23  1  6
 22 24  1  0
 24 25  1  0
 25 26  1  0
 26 27  1  0
 27 28  1  6
 27  5  1  0
 27 11  1  0
 24 12  1  0
 22 16  1  0
  1 29  1  0
  1 30  1  0
  1 31  1  0
  7 32  1  0
  7 33  1  0
  7 34  1  0
  9 35  1  0
  9 36  1  0
 10 37  1  0
 10 38  1  0
 11 39  1  1
 12 40  1  6
 13 41  1  0
 13 42  1  0
 14 43  1  6
 15 44  1  0
 15 45  1  0
 15 46  1  0
 17 47  1  0
 20 48  1  0
 20 49  1  0
 21 50  1  0
 21 51  1  0
 23 52  1  0
 23 53  1  0
 23 54  1  0
 24 55  1  1
 25 56  1  0
 25 57  1  0
 26 58  1  0
 26 59  1  0
 28 60  1  0
 28 61  1  0
 28 62  1  0
M  END
$$$$
