
     RDKit          3D

 57 61  0  0  0  0  0  0  0  0999 V2000
    0.3924    2.8955    0.6607 N   0  0  0  0  0  0  0  0  0  0  0  0
   -0.1045    1.6714    0.3850 C   0  0  0  0  0  0  0  0  0  0  0  0
   -1.4166    1.2933    0.1141 C   0  0  0  0  0  0  0  0  0  0  0  0
   -2.5734    2.1806    0.1099 C   0  0  0  0  0  0  0  0  0  0  0  0
   -2.4893    3.3860    0.3362 O   0  0  0  0  0  0  0  0  0  0  0  0
   -3.7715    1.5652   -0.1621 N   0  0  0  0  0  0  0  0  0  0  0  0
   -4.9753    2.3248   -0.3719 C   0  0  0  0  0  0  0  0  0  0  0  0
   -6.1339    1.4047   -0.2965 C   0  0  0  0  0  0  0  0  0  0  0  0
   -7.0367    1.0976    0.7006 C   0  0  0  0  0  0  0  0  0  0  0  0
   -7.9096    0.1213    0.1627 C   0  0  0  0  0  0  0  0  0  0  0  0
   -7.4846   -0.1055   -1.1247 C   0  0  0  0  0  0  0  0  0  0  0  0
   -6.4051    0.6661   -1.4126 O   0  0  0  0  0  0  0  0  0  0  0  0
   -1.3795   -0.1012   -0.1563 C   0  0  0  0  0  0  0  0  0  0  0  0
   -2.3806   -0.9572   -0.4953 N   0  0  0  0  0  0  0  0  0  0  0  0
   -1.9811   -2.2247   -0.6950 C   0  0  0  0  0  0  0  0  0  0  0  0
   -2.9397   -3.1655   -1.0488 C   0  0  0  0  0  0  0  0  0  0  0  0
   -2.6044   -4.5011   -1.2758 C   0  0  0  0  0  0  0  0  0  0  0  0
   -1.2835   -4.9061   -1.1468 C   0  0  0  0  0  0  0  0  0  0  0  0
   -0.3093   -3.9720   -0.7913 C   0  0  0  0  0  0  0  0  0  0  0  0
   -0.6270   -2.6393   -0.5618 C   0  0  0  0  0  0  0  0  0  0  0  0
    0.3649   -1.7969   -0.2237 N   0  0  0  0  0  0  0  0  0  0  0  0
   -0.0681   -0.5340   -0.0316 C   0  0  0  0  0  0  0  0  0  0  0  0
    0.6964    0.5523    0.3101 N   0  0  0  0  0  0  0  0  0  0  0  0
    2.1341    0.4885    0.5233 C   0  0  0  0  0  0  0  0  0  0  0  0
    2.9118    0.7895   -0.7663 C   0  0  0  0  0  0  0  0  0  0  0  0
    4.3790    0.7575   -0.6663 N   0  0  0  0  0  0  0  0  0  0  0  0
    4.9197   -0.5935   -0.4957 C   0  0  0  0  0  0  0  0  0  0  0  0
    6.4193   -0.5577   -0.2092 C   0  0  0  0  0  0  0  0  0  0  0  0
    6.7279    0.1964    1.0840 C   0  0  0  0  0  0  0  0  0  0  0  0
    5.6306    1.1916    1.4578 C   0  0  0  0  0  0  0  0  0  0  0  0
    4.9515    1.7738    0.2200 C   0  0  0  0  0  0  0  0  0  0  0  0
    1.3010    3.0706    1.0758 H   0  0  0  0  0  0  0  0  0  0  0  0
   -0.2685    3.6679    0.7949 H   0  0  0  0  0  0  0  0  0  0  0  0
   -3.7522    0.5956   -0.4699 H   0  0  0  0  0  0  0  0  0  0  0  0
   -4.9126    2.7994   -1.3567 H   0  0  0  0  0  0  0  0  0  0  0  0
   -5.0488    3.1148    0.3826 H   0  0  0  0  0  0  0  0  0  0  0  0
   -7.0534    1.5221    1.6944 H   0  0  0  0  0  0  0  0  0  0  0  0
   -8.7427   -0.3608    0.6534 H   0  0  0  0  0  0  0  0  0  0  0  0
   -7.8221   -0.7520   -1.9229 H   0  0  0  0  0  0  0  0  0  0  0  0
   -3.9758   -2.8501   -1.1520 H   0  0  0  0  0  0  0  0  0  0  0  0
   -3.3745   -5.2168   -1.5529 H   0  0  0  0  0  0  0  0  0  0  0  0
   -1.0063   -5.9428   -1.3219 H   0  0  0  0  0  0  0  0  0  0  0  0
    0.7258   -4.2910   -0.6919 H   0  0  0  0  0  0  0  0  0  0  0  0
    2.3820    1.1929    1.3238 H   0  0  0  0  0  0  0  0  0  0  0  0
    2.3637   -0.5116    0.9061 H   0  0  0  0  0  0  0  0  0  0  0  0
    2.6176    1.7777   -1.1444 H   0  0  0  0  0  0  0  0  0  0  0  0
    2.5987    0.0896   -1.5527 H   0  0  0  0  0  0  0  0  0  0  0  0
    4.4230   -1.1282    0.3222 H   0  0  0  0  0  0  0  0  0  0  0  0
    4.7460   -1.1701   -1.4116 H   0  0  0  0  0  0  0  0  0  0  0  0
    6.9381   -0.0728   -1.0461 H   0  0  0  0  0  0  0  0  0  0  0  0
    6.8187   -1.5764   -0.1474 H   0  0  0  0  0  0  0  0  0  0  0  0
    7.6857    0.7181    0.9711 H   0  0  0  0  0  0  0  0  0  0  0  0
    6.8601   -0.5125    1.9098 H   0  0  0  0  0  0  0  0  0  0  0  0
    4.8809    0.6899    2.0827 H   0  0  0  0  0  0  0  0  0  0  0  0
    6.0561    1.9951    2.0698 H   0  0  0  0  0  0  0  0  0  0  0  0
    5.7001    2.3319   -0.3569 H   0  0  0  0  0  0  0  0  0  0  0  0
    4.2054    2.5176    0.5255 H   0  0  0  0  0  0  0  0  0  0  0  0
  1  2  1  0
  2  3  2  0
  3  4  1  0
  4  5  2  0
  4  6  1  0
  6  7  1  0
  7  8  1  0
  8  9  2  0
  9 10  1  0
 10 11  2  0
 11 12  1  0
  3 13  1  0
 13 14  2  0
 14 15  1  0
 15 16  2  0
 16 17  1  0
 17 18  2  0
 18 19  1  0
 19 20  2  0
 20 21  1  0
 21 22  2  0
 22 23  1  0
 23 24  1  0
 24 25  1  0
 25 26  1  0
 26 27  1  0
 27 28  1  0
 28 29  1  0
 29 30  1  0
 30 31  1  0
 23  2  1  0
 31 26  1  0
 12  8  1  0
 22 13  1  0
 20 15  1  0
  1 32  1  0
  1 33  1  0
  6 34  1  0
  7 35  1  0
  7 36  1  0
  9 37  1  0
 10 38  1  0
 11 39  1  0
 16 40  1  0
 17 41  1  0
 18 42  1  0
 19 43  1  0
 24 44  1  0
 24 45  1  0
 25 46  1  0
 25 47  1  0
 27 48  1  0
 27 49  1  0
 28 50  1  0
 28 51  1  0
 29 52  1  0
 29 53  1  0
 30 54  1  0
 30 55  1  0
 31 56  1  0
 31 57  1  0
M  END
$$$$
