
     RDKit          3D

 40 41  0  0  0  0  0  0  0  0999 V2000
   -1.3821   -3.3827   -0.0597 C   0  0  0  0  0  0  0  0  0  0  0  0
   -1.7085   -2.0538    0.4003 N   0  0  0  0  0  0  0  0  0  0  0  0
   -2.4919   -1.4058   -0.5829 C   0  0  0  0  0  0  0  0  0  0  0  0
   -2.9767   -0.0293   -0.2017 C   0  0  0  0  0  0  0  0  0  0  0  0
   -1.8578    0.9651   -0.2093 C   0  0  0  0  0  0  0  0  0  0  0  0
   -2.4055    2.2316   -0.2650 C   0  0  0  0  0  0  0  0  0  0  0  0
   -1.5385    3.3268   -0.2820 C   0  0  0  0  0  0  0  0  0  0  0  0
   -2.1509    4.9675   -0.3518 Cl  0  0  0  0  0  0  0  0  0  0  0  0
   -0.1733    3.1507   -0.2444 C   0  0  0  0  0  0  0  0  0  0  0  0
    0.6879    4.2392   -0.2613 O   0  0  0  0  0  0  0  0  0  0  0  0
    0.3374    1.8712   -0.1892 C   0  0  0  0  0  0  0  0  0  0  0  0
   -0.4952    0.7788   -0.1714 C   0  0  0  0  0  0  0  0  0  0  0  0
    0.1753   -0.5409   -0.1109 C   0  0  1  0  0  0  0  0  0  0  0  0
    1.6217   -0.4498    0.1528 C   0  0  0  0  0  0  0  0  0  0  0  0
    2.4694   -0.3638   -0.9284 C   0  0  0  0  0  0  0  0  0  0  0  0
    3.8282   -0.2751   -0.7992 C   0  0  0  0  0  0  0  0  0  0  0  0
    4.3752   -0.2712    0.4622 C   0  0  0  0  0  0  0  0  0  0  0  0
    3.5291   -0.3572    1.5481 C   0  0  0  0  0  0  0  0  0  0  0  0
    2.1631   -0.4463    1.4131 C   0  0  0  0  0  0  0  0  0  0  0  0
   -0.5697   -1.3789    0.8867 C   0  0  0  0  0  0  0  0  0  0  0  0
    0.6890    0.0000    0.0000 Cl  0  0  0  0  0  0  0  0  0  0  0  0
   -0.3747   -3.4213   -0.5346 H   0  0  0  0  0  0  0  0  0  0  0  0
   -2.1286   -3.7315   -0.8256 H   0  0  0  0  0  0  0  0  0  0  0  0
   -1.4715   -4.1429    0.7707 H   0  0  0  0  0  0  0  0  0  0  0  0
   -1.9922   -1.3143   -1.5793 H   0  0  0  0  0  0  0  0  0  0  0  0
   -3.4011   -2.0180   -0.7659 H   0  0  0  0  0  0  0  0  0  0  0  0
   -3.5183    0.0035    0.7429 H   0  0  0  0  0  0  0  0  0  0  0  0
   -3.6712    0.2978   -1.0146 H   0  0  0  0  0  0  0  0  0  0  0  0
   -3.4918    2.3929   -0.2956 H   0  0  0  0  0  0  0  0  0  0  0  0
    0.3632    5.1904   -0.3011 H   0  0  0  0  0  0  0  0  0  0  0  0
    1.3952    1.7154   -0.1593 H   0  0  0  0  0  0  0  0  0  0  0  0
    0.0000   -1.0177   -1.1170 H   0  0  0  0  0  0  0  0  0  0  0  0
    2.0679   -0.3639   -1.9573 H   0  0  0  0  0  0  0  0  0  0  0  0
    4.5034   -0.2069   -1.6505 H   0  0  0  0  0  0  0  0  0  0  0  0
    5.4616   -0.2013    0.6030 H   0  0  0  0  0  0  0  0  0  0  0  0
    3.9946   -0.3520    2.5476 H   0  0  0  0  0  0  0  0  0  0  0  0
    1.4961   -0.5138    2.2573 H   0  0  0  0  0  0  0  0  0  0  0  0
   -0.8338   -0.7541    1.7871 H   0  0  0  0  0  0  0  0  0  0  0  0
    0.1639   -2.1385    1.2859 H   0  0  0  0  0  0  0  0  0  0  0  0
   -0.6890    0.0000    0.0000 H   0  0  0  0  0  0  0  0  0  0  0  0
  1  2  1  0
  2  3  1  0
  3  4  1  0
  4  5  1  0
  5  6  2  0
  6  7  1  0
  7  8  1  0
  7  9  2  0
  9 10  1  0
  9 11  1  0
 11 12  2  0
 12 13  1  0
 13 14  1  0
 14 15  2  0
 15 16  1  0
 16 17  2  0
 17 18  1  0
 18 19  2  0
 13 20  1  0
 20  2  1  0
 12  5  1  0
 19 14  1  0
  1 22  1  0
  1 23  1  0
  1 24  1  0
  3 25  1  0
  3 26  1  0
  4 27  1  0
  4 28  1  0
  6 29  1  0
 10 30  1  0
 11 31  1  0
 13 32  1  6
 15 33  1  0
 16 34  1  0
 17 35  1  0
 18 36  1  0
 19 37  1  0
 20 38  1  0
 20 39  1  0
 21 40  1  0
M  END
$$$$
