
     RDKit          3D

 37 38  0  0  0  0  0  0  0  0999 V2000
   -4.4157    1.1089    1.1400 C   0  0  0  0  0  0  0  0  0  0  0  0
   -3.2946    0.1714    0.7854 C   0  0  0  0  0  0  0  0  0  0  0  0
   -2.9618   -0.8492    1.6945 C   0  0  0  0  0  0  0  0  0  0  0  0
   -1.9615   -1.7771    1.3981 C   0  0  0  0  0  0  0  0  0  0  0  0
   -1.2859   -1.6931    0.1809 C   0  0  0  0  0  0  0  0  0  0  0  0
   -0.0125   -2.8620   -0.2107 S   0  0  0  0  0  6  0  0  0  0  0  0
    0.2569   -3.6681    0.9593 O   0  0  0  0  0  0  0  0  0  0  0  0
   -0.3418   -3.4491   -1.4886 O   0  0  0  0  0  0  0  0  0  0  0  0
    1.3071   -1.8674   -0.4597 N   0  0  0  0  0  0  0  0  0  0  0  0
    2.0685   -1.4276    0.7039 C   0  0  0  0  0  0  0  0  0  0  0  0
    2.9641   -0.2641    0.3546 C   0  0  0  0  0  0  0  0  0  0  0  0
    4.3577   -0.3741    0.4593 C   0  0  0  0  0  0  0  0  0  0  0  0
    5.1789    0.7073    0.1344 C   0  0  0  0  0  0  0  0  0  0  0  0
    4.6169    1.9070   -0.2985 C   0  0  0  0  0  0  0  0  0  0  0  0
    3.2331    2.0282   -0.4076 C   0  0  0  0  0  0  0  0  0  0  0  0
    2.4102    0.9493   -0.0821 C   0  0  0  0  0  0  0  0  0  0  0  0
   -1.5877   -0.6832   -0.7344 C   0  0  0  0  0  0  0  0  0  0  0  0
   -2.5705    0.2656   -0.4214 C   0  0  0  0  0  0  0  0  0  0  0  0
   -2.7920    1.3351   -1.4265 C   0  0  0  0  0  0  0  0  0  0  0  0
   -2.8396    2.6173   -0.9589 N   0  0  0  0  0  0  0  0  0  0  0  0
   -2.8533    1.0873   -2.6224 O   0  0  0  0  0  0  0  0  0  0  0  0
   -4.0182    2.0311    1.5738 H   0  0  0  0  0  0  0  0  0  0  0  0
   -5.0907    0.6531    1.8730 H   0  0  0  0  0  0  0  0  0  0  0  0
   -5.0256    1.3453    0.2624 H   0  0  0  0  0  0  0  0  0  0  0  0
   -3.4967   -0.9390    2.6392 H   0  0  0  0  0  0  0  0  0  0  0  0
   -1.7289   -2.5645    2.1124 H   0  0  0  0  0  0  0  0  0  0  0  0
    1.8170   -2.0646   -1.3193 H   0  0  0  0  0  0  0  0  0  0  0  0
    2.6731   -2.2660    1.0683 H   0  0  0  0  0  0  0  0  0  0  0  0
    1.4025   -1.1161    1.5165 H   0  0  0  0  0  0  0  0  0  0  0  0
    4.8162   -1.3025    0.7931 H   0  0  0  0  0  0  0  0  0  0  0  0
    6.2588    0.6134    0.2173 H   0  0  0  0  0  0  0  0  0  0  0  0
    5.2581    2.7467   -0.5536 H   0  0  0  0  0  0  0  0  0  0  0  0
    2.7952    2.9622   -0.7501 H   0  0  0  0  0  0  0  0  0  0  0  0
    1.3316    1.0545   -0.1776 H   0  0  0  0  0  0  0  0  0  0  0  0
   -1.0573   -0.6263   -1.6839 H   0  0  0  0  0  0  0  0  0  0  0  0
   -2.8588    3.3515   -1.6553 H   0  0  0  0  0  0  0  0  0  0  0  0
   -2.5526    2.8586   -0.0211 H   0  0  0  0  0  0  0  0  0  0  0  0
  1  2  1  0
  2  3  2  0
  3  4  1  0
  4  5  2  0
  5  6  1  0
  6  7  2  0
  6  8  2  0
  6  9  1  0
  9 10  1  0
 10 11  1  0
 11 12  2  0
 12 13  1  0
 13 14  2  0
 14 15  1  0
 15 16  2  0
  5 17  1  0
 17 18  2  0
 18 19  1  0
 19 20  1  0
 19 21  2  0
 18  2  1  0
 16 11  1  0
  1 22  1  0
  1 23  1  0
  1 24  1  0
  3 25  1  0
  4 26  1  0
  9 27  1  0
 10 28  1  0
 10 29  1  0
 12 30  1  0
 13 31  1  0
 14 32  1  0
 15 33  1  0
 16 34  1  0
 17 35  1  0
 20 36  1  0
 20 37  1  0
M  END
$$$$
