
     RDKit          3D

 63 67  0  0  0  0  0  0  0  0999 V2000
    6.5330    1.4217    1.3185 C   0  0  0  0  0  0  0  0  0  0  0  0
    5.7145    2.6934    1.5560 C   0  0  0  0  0  0  0  0  0  0  0  0
    6.0021    3.7257    0.4632 C   0  0  0  0  0  0  0  0  0  0  0  0
    4.2489    2.3945    1.6591 C   0  0  0  0  0  0  0  0  0  0  0  0
    3.3958    1.8075    0.6944 C   0  0  0  0  0  0  0  0  0  0  0  0
    2.1675    1.7638    1.3073 C   0  0  0  0  0  0  0  0  0  0  0  0
    0.8255    1.2811    0.8895 C   0  0  0  0  0  0  0  0  0  0  0  0
    0.8525   -0.0685    0.3515 N   0  0  0  0  0  0  0  0  0  0  0  0
   -0.3948   -0.5468   -0.0286 C   0  0  0  0  0  0  0  0  0  0  0  0
   -1.3135    0.2905   -0.5089 N   0  0  0  0  0  0  0  0  0  0  0  0
   -2.4905   -0.2224   -0.8933 C   0  0  0  0  0  0  0  0  0  0  0  0
   -3.5161    0.6189   -1.3842 N   0  0  0  0  0  0  0  0  0  0  0  0
   -3.5320    1.9698   -1.3997 C   0  0  0  0  0  0  0  0  0  0  0  0
   -2.9795    2.8166   -0.4078 C   0  0  0  0  0  0  0  0  0  0  0  0
   -3.2194    4.0904   -0.8549 C   0  0  0  0  0  0  0  0  0  0  0  0
   -2.8221    5.4255   -0.1877 C   0  0  0  0  0  0  0  0  0  0  0  0
   -1.6235    5.4993    0.7206 C   0  0  0  0  0  0  0  0  0  0  0  0
   -1.5560    6.0964   -0.6556 C   0  0  0  0  0  0  0  0  0  0  0  0
   -3.8996    3.9535   -2.0259 N   0  0  0  0  0  0  0  0  0  0  0  0
   -4.1338    2.6732   -2.3642 N   0  0  0  0  0  0  0  0  0  0  0  0
   -2.7497   -1.5744   -0.7802 C   0  0  0  0  0  0  0  0  0  0  0  0
   -1.7545   -2.3868   -0.2707 C   0  0  0  0  0  0  0  0  0  0  0  0
   -1.9654   -3.7532   -0.1061 N   0  0  0  0  0  0  0  0  0  0  0  0
   -0.9358   -4.4884    0.6441 C   0  0  0  0  0  0  0  0  0  0  0  0
   -1.3810   -5.9526    0.8648 C   0  0  0  0  0  0  0  0  0  0  0  0
   -1.6861   -6.7152   -0.3673 N   0  0  0  0  0  0  0  0  0  0  0  0
   -0.6488   -7.6997   -0.6637 C   0  0  0  0  0  0  0  0  0  0  0  0
   -1.8932   -5.8152   -1.5211 C   0  0  0  0  0  0  0  0  0  0  0  0
   -2.6424   -4.5042   -1.1778 C   0  0  0  0  0  0  0  0  0  0  0  0
   -0.5817   -1.8601    0.1189 N   0  0  0  0  0  0  0  0  0  0  0  0
    2.2710    2.2926    2.5564 O   0  0  0  0  0  0  0  0  0  0  0  0
    3.5770    2.6910    2.7805 N   0  0  0  0  0  0  0  0  0  0  0  0
    7.6050    1.6450    1.3191 H   0  0  0  0  0  0  0  0  0  0  0  0
    6.3444    0.6813    2.1040 H   0  0  0  0  0  0  0  0  0  0  0  0
    6.2872    0.9566    0.3563 H   0  0  0  0  0  0  0  0  0  0  0  0
    6.0502    3.1244    2.5097 H   0  0  0  0  0  0  0  0  0  0  0  0
    5.7193    3.3545   -0.5291 H   0  0  0  0  0  0  0  0  0  0  0  0
    5.4431    4.6513    0.6422 H   0  0  0  0  0  0  0  0  0  0  0  0
    7.0677    3.9770    0.4373 H   0  0  0  0  0  0  0  0  0  0  0  0
    3.6349    1.4609   -0.3010 H   0  0  0  0  0  0  0  0  0  0  0  0
    0.4530    1.9876    0.1355 H   0  0  0  0  0  0  0  0  0  0  0  0
    0.1439    1.3262    1.7496 H   0  0  0  0  0  0  0  0  0  0  0  0
    1.2402   -0.7665    0.9760 H   0  0  0  0  0  0  0  0  0  0  0  0
   -3.9526    0.2133   -2.2039 H   0  0  0  0  0  0  0  0  0  0  0  0
   -2.4701    2.5239    0.4969 H   0  0  0  0  0  0  0  0  0  0  0  0
   -3.6612    6.0710    0.0623 H   0  0  0  0  0  0  0  0  0  0  0  0
   -1.6734    6.1762    1.5671 H   0  0  0  0  0  0  0  0  0  0  0  0
   -1.0445    4.6021    0.9140 H   0  0  0  0  0  0  0  0  0  0  0  0
   -0.9330    5.5922   -1.3874 H   0  0  0  0  0  0  0  0  0  0  0  0
   -1.5539    7.1775   -0.7411 H   0  0  0  0  0  0  0  0  0  0  0  0
   -4.2383    4.6856   -2.6390 H   0  0  0  0  0  0  0  0  0  0  0  0
   -3.7189   -1.9744   -1.0449 H   0  0  0  0  0  0  0  0  0  0  0  0
   -0.7881   -4.0269    1.6275 H   0  0  0  0  0  0  0  0  0  0  0  0
    0.0232   -4.4715    0.1113 H   0  0  0  0  0  0  0  0  0  0  0  0
   -0.6378   -6.4690    1.4851 H   0  0  0  0  0  0  0  0  0  0  0  0
   -2.3037   -5.9382    1.4600 H   0  0  0  0  0  0  0  0  0  0  0  0
   -0.5634   -8.4222    0.1565 H   0  0  0  0  0  0  0  0  0  0  0  0
   -0.9046   -8.2729   -1.5621 H   0  0  0  0  0  0  0  0  0  0  0  0
    0.3316   -7.2334   -0.8171 H   0  0  0  0  0  0  0  0  0  0  0  0
   -0.9264   -5.5414   -1.9694 H   0  0  0  0  0  0  0  0  0  0  0  0
   -2.4609   -6.3524   -2.2902 H   0  0  0  0  0  0  0  0  0  0  0  0
   -2.7182   -3.9185   -2.1024 H   0  0  0  0  0  0  0  0  0  0  0  0
   -3.6634   -4.7374   -0.8499 H   0  0  0  0  0  0  0  0  0  0  0  0
  1  2  1  0
  2  3  1  0
  2  4  1  0
  4  5  1  0
  5  6  2  0
  6  7  1  0
  7  8  1  0
  8  9  1  0
  9 10  2  0
 10 11  1  0
 11 12  1  0
 12 13  1  0
 13 14  1  0
 14 15  2  0
 15 16  1  0
 16 17  1  0
 17 18  1  0
 15 19  1  0
 19 20  1  0
 11 21  2  0
 21 22  1  0
 22 23  1  0
 23 24  1  0
 24 25  1  0
 25 26  1  0
 26 27  1  0
 26 28  1  0
 28 29  1  0
 22 30  2  0
  6 31  1  0
 31 32  1  0
 32  4  2  0
 30  9  1  0
 20 13  2  0
 29 23  1  0
 18 16  1  0
  1 33  1  0
  1 34  1  0
  1 35  1  0
  2 36  1  0
  3 37  1  0
  3 38  1  0
  3 39  1  0
  5 40  1  0
  7 41  1  0
  7 42  1  0
  8 43  1  0
 12 44  1  0
 14 45  1  0
 16 46  1  0
 17 47  1  0
 17 48  1  0
 18 49  1  0
 18 50  1  0
 19 51  1  0
 21 52  1  0
 24 53  1  0
 24 54  1  0
 25 55  1  0
 25 56  1  0
 27 57  1  0
 27 58  1  0
 27 59  1  0
 28 60  1  0
 28 61  1  0
 29 62  1  0
 29 63  1  0
M  END
$$$$
