
     RDKit          3D

 39 42  0  0  0  0  0  0  0  0999 V2000
    3.8439    1.6739    0.5348 C   0  0  0  0  0  0  0  0  0  0  0  0
    3.3569    0.3156   -0.0056 C   0  0  0  0  0  0  0  0  0  0  0  0
    3.8289    0.1717   -1.4630 C   0  0  0  0  0  0  0  0  0  0  0  0
    3.9771   -0.8020    0.8510 C   0  0  0  0  0  0  0  0  0  0  0  0
    1.8465    0.2411    0.0598 C   0  0  0  0  0  0  0  0  0  0  0  0
    1.0260    1.1705    0.5035 N   0  0  0  0  0  0  0  0  0  0  0  0
   -0.2470    0.6591    0.3698 C   0  0  0  0  0  0  0  0  0  0  0  0
   -1.4897    1.2288    0.6891 C   0  0  0  0  0  0  0  0  0  0  0  0
   -1.4979    2.5748    1.2562 C   0  0  0  0  0  0  0  0  0  0  0  0
   -2.6684    3.1343    1.5666 C   0  0  0  0  0  0  0  0  0  0  0  0
   -3.8425    2.4683    1.3615 N   0  0  0  0  0  0  0  0  0  0  0  0
   -3.9542    1.1966    0.8335 C   0  0  0  0  0  0  0  0  0  0  0  0
   -5.0682    0.7047    0.6978 O   0  0  0  0  0  0  0  0  0  0  0  0
   -2.6770    0.4971    0.4573 C   0  0  0  0  0  0  0  0  0  0  0  0
   -2.6374   -0.8191   -0.0992 C   0  0  0  0  0  0  0  0  0  0  0  0
   -3.7591   -1.6416   -0.3735 C   0  0  0  0  0  0  0  0  0  0  0  0
   -3.6204   -2.9179   -0.9195 C   0  0  0  0  0  0  0  0  0  0  0  0
   -4.7140   -3.6536   -1.1591 F   0  0  0  0  0  0  0  0  0  0  0  0
   -2.3744   -3.4421   -1.2199 C   0  0  0  0  0  0  0  0  0  0  0  0
   -1.2399   -2.6788   -0.9713 C   0  0  0  0  0  0  0  0  0  0  0  0
   -1.3687   -1.3846   -0.4185 C   0  0  0  0  0  0  0  0  0  0  0  0
   -0.2079   -0.6188   -0.1705 C   0  0  0  0  0  0  0  0  0  0  0  0
    1.1330   -0.8583   -0.3572 N   0  0  0  0  0  0  0  0  0  0  0  0
    3.4345    2.5067   -0.0494 H   0  0  0  0  0  0  0  0  0  0  0  0
    3.5387    1.8221    1.5775 H   0  0  0  0  0  0  0  0  0  0  0  0
    4.9368    1.7476    0.4958 H   0  0  0  0  0  0  0  0  0  0  0  0
    3.3867    0.9454   -2.1019 H   0  0  0  0  0  0  0  0  0  0  0  0
    4.9189    0.2599   -1.5363 H   0  0  0  0  0  0  0  0  0  0  0  0
    3.5492   -0.8004   -1.8853 H   0  0  0  0  0  0  0  0  0  0  0  0
    5.0715   -0.7428    0.8465 H   0  0  0  0  0  0  0  0  0  0  0  0
    3.6426   -0.7357    1.8931 H   0  0  0  0  0  0  0  0  0  0  0  0
    3.7008   -1.7964    0.4814 H   0  0  0  0  0  0  0  0  0  0  0  0
   -0.5557    3.0903    1.4127 H   0  0  0  0  0  0  0  0  0  0  0  0
   -2.7391    4.1310    1.9906 H   0  0  0  0  0  0  0  0  0  0  0  0
   -4.7221    2.9098    1.6037 H   0  0  0  0  0  0  0  0  0  0  0  0
   -4.7742   -1.3144   -0.1708 H   0  0  0  0  0  0  0  0  0  0  0  0
   -2.2986   -4.4380   -1.6439 H   0  0  0  0  0  0  0  0  0  0  0  0
   -0.2699   -3.1029   -1.2120 H   0  0  0  0  0  0  0  0  0  0  0  0
    1.5346   -1.7018   -0.7379 H   0  0  0  0  0  0  0  0  0  0  0  0
  1  2  1  0
  2  3  1  0
  2  4  1  0
  2  5  1  0
  5  6  2  0
  6  7  1  0
  7  8  2  0
  8  9  1  0
  9 10  2  0
 10 11  1  0
 11 12  1  0
 12 13  2  0
 12 14  1  0
 14 15  2  0
 15 16  1  0
 16 17  2  0
 17 18  1  0
 17 19  1  0
 19 20  2  0
 20 21  1  0
 21 22  2  0
 22 23  1  0
 23  5  1  0
 22  7  1  0
 14  8  1  0
 21 15  1  0
  1 24  1  0
  1 25  1  0
  1 26  1  0
  3 27  1  0
  3 28  1  0
  3 29  1  0
  4 30  1  0
  4 31  1  0
  4 32  1  0
  9 33  1  0
 10 34  1  0
 11 35  1  0
 16 36  1  0
 19 37  1  0
 20 38  1  0
 23 39  1  0
M  END
$$$$
