
     RDKit          3D

 83 87  0  0  0  0  0  0  0  0999 V2000
    1.6758   -4.3086   -2.0042 C   0  0  0  0  0  0  0  0  0  0  0  0
    2.4606   -3.2735   -1.4294 O   0  0  0  0  0  0  0  0  0  0  0  0
    1.8037   -2.2076   -0.8708 C   0  0  0  0  0  0  0  0  0  0  0  0
    0.4231   -2.0082   -0.9248 C   0  0  0  0  0  0  0  0  0  0  0  0
   -0.1786   -0.8688   -0.3270 C   0  0  0  0  0  0  0  0  0  0  0  0
   -1.5530   -0.5711   -0.3414 C   0  0  0  0  0  0  0  0  0  0  0  0
   -2.4192   -1.4390   -1.0304 N   0  0  0  0  0  0  0  0  0  0  0  0
   -3.8719   -1.2253   -1.0645 C   0  0  0  0  0  0  0  0  0  0  0  0
   -4.5507   -1.3217    0.2982 C   0  0  0  0  0  0  0  0  0  0  0  0
   -6.0609   -1.1852    0.0973 C   0  0  0  0  0  0  0  0  0  0  0  0
   -6.4538    0.0618   -0.5591 N   0  0  0  0  0  0  0  0  0  0  0  0
   -7.7340    0.0593   -1.2789 C   0  0  0  0  0  0  0  0  0  0  0  0
   -8.8831   -0.4566   -0.4025 C   0  0  0  0  0  0  0  0  0  0  0  0
   -7.6978   -0.7050   -2.6062 C   0  0  0  0  0  0  0  0  0  0  0  0
   -5.3770    0.8232   -1.1871 C   0  0  0  0  0  0  0  0  0  0  0  0
   -4.2958   -0.0028   -1.8820 C   0  0  0  0  0  0  0  0  0  0  0  0
   -2.0487    0.4997    0.3004 N   0  0  0  0  0  0  0  0  0  0  0  0
   -1.2063    1.3184    0.9493 C   0  0  0  0  0  0  0  0  0  0  0  0
   -1.7133    2.4043    1.6834 N   0  0  0  0  0  0  0  0  0  0  0  0
   -0.8148    3.5616    1.6878 C   0  0  0  0  0  0  0  0  0  0  0  0
   -1.3020    4.5969    2.6885 C   0  0  0  0  0  0  0  0  0  0  0  0
   -2.7511    4.9277    2.4218 C   0  0  0  0  0  0  0  0  0  0  0  0
   -2.8610    5.5625    1.2251 F   0  0  0  0  0  0  0  0  0  0  0  0
   -3.1876    5.8102    3.3573 F   0  0  0  0  0  0  0  0  0  0  0  0
   -3.6418    3.7092    2.4329 C   0  0  0  0  0  0  0  0  0  0  0  0
   -3.1278    2.6824    1.4370 C   0  0  0  0  0  0  0  0  0  0  0  0
    0.1188    1.1227    0.9598 N   0  0  0  0  0  0  0  0  0  0  0  0
    0.6208    0.0508    0.3455 C   0  0  0  0  0  0  0  0  0  0  0  0
    1.9954   -0.1528    0.3885 C   0  0  0  0  0  0  0  0  0  0  0  0
    2.6018   -1.2605   -0.2134 C   0  0  0  0  0  0  0  0  0  0  0  0
    3.9506   -1.5137   -0.1985 O   0  0  0  0  0  0  0  0  0  0  0  0
    4.8138   -0.5238    0.3582 C   0  0  0  0  0  0  0  0  0  0  0  0
    6.2537   -0.9952    0.1493 C   0  0  0  0  0  0  0  0  0  0  0  0
    7.2524    0.0291    0.6964 C   0  0  0  0  0  0  0  0  0  0  0  0
    8.6733   -0.2723    0.5446 N   0  0  0  0  0  0  0  0  0  0  0  0
    9.1387   -0.4372   -0.8284 C   0  0  0  0  0  0  0  0  0  0  0  0
   10.5720   -0.9007   -0.6200 C   0  0  0  0  0  0  0  0  0  0  0  0
   10.5502   -1.6582    0.7049 C   0  0  0  0  0  0  0  0  0  0  0  0
    9.1484   -1.4475    1.2670 C   0  0  0  0  0  0  0  0  0  0  0  0
    1.1198   -3.9431   -2.8738 H   0  0  0  0  0  0  0  0  0  0  0  0
    1.0042   -4.7544   -1.2633 H   0  0  0  0  0  0  0  0  0  0  0  0
    2.3572   -5.0924   -2.3494 H   0  0  0  0  0  0  0  0  0  0  0  0
   -0.2182   -2.7326   -1.4154 H   0  0  0  0  0  0  0  0  0  0  0  0
   -2.0573   -1.5695   -1.9723 H   0  0  0  0  0  0  0  0  0  0  0  0
   -4.2440   -2.0923   -1.6298 H   0  0  0  0  0  0  0  0  0  0  0  0
   -4.3262   -2.2889    0.7630 H   0  0  0  0  0  0  0  0  0  0  0  0
   -4.2024   -0.5552    0.9959 H   0  0  0  0  0  0  0  0  0  0  0  0
   -6.3987   -2.0554   -0.4777 H   0  0  0  0  0  0  0  0  0  0  0  0
   -6.5510   -1.2434    1.0763 H   0  0  0  0  0  0  0  0  0  0  0  0
   -7.9843    1.1034   -1.5095 H   0  0  0  0  0  0  0  0  0  0  0  0
   -9.8449   -0.2946   -0.9020 H   0  0  0  0  0  0  0  0  0  0  0  0
   -8.7959   -1.5282   -0.1947 H   0  0  0  0  0  0  0  0  0  0  0  0
   -8.9167    0.0785    0.5534 H   0  0  0  0  0  0  0  0  0  0  0  0
   -6.9799   -0.2595   -3.3007 H   0  0  0  0  0  0  0  0  0  0  0  0
   -8.6789   -0.6691   -3.0934 H   0  0  0  0  0  0  0  0  0  0  0  0
   -7.4355   -1.7592   -2.4728 H   0  0  0  0  0  0  0  0  0  0  0  0
   -5.7695    1.5708   -1.8872 H   0  0  0  0  0  0  0  0  0  0  0  0
   -4.9003    1.4118   -0.3980 H   0  0  0  0  0  0  0  0  0  0  0  0
   -4.6718   -0.3460   -2.8542 H   0  0  0  0  0  0  0  0  0  0  0  0
   -3.4447    0.6492   -2.1136 H   0  0  0  0  0  0  0  0  0  0  0  0
   -0.7631    4.0039    0.6845 H   0  0  0  0  0  0  0  0  0  0  0  0
    0.2052    3.2887    1.9854 H   0  0  0  0  0  0  0  0  0  0  0  0
   -0.6883    5.5017    2.6139 H   0  0  0  0  0  0  0  0  0  0  0  0
   -1.1921    4.2201    3.7136 H   0  0  0  0  0  0  0  0  0  0  0  0
   -3.6672    3.2816    3.4427 H   0  0  0  0  0  0  0  0  0  0  0  0
   -4.6704    3.9894    2.1790 H   0  0  0  0  0  0  0  0  0  0  0  0
   -3.7349    1.7799    1.5716 H   0  0  0  0  0  0  0  0  0  0  0  0
   -3.2733    3.0484    0.4126 H   0  0  0  0  0  0  0  0  0  0  0  0
    2.5838    0.5856    0.9240 H   0  0  0  0  0  0  0  0  0  0  0  0
    4.6135   -0.4130    1.4307 H   0  0  0  0  0  0  0  0  0  0  0  0
    4.6658    0.4342   -0.1547 H   0  0  0  0  0  0  0  0  0  0  0  0
    6.3804   -1.9685    0.6379 H   0  0  0  0  0  0  0  0  0  0  0  0
    6.4112   -1.1687   -0.9216 H   0  0  0  0  0  0  0  0  0  0  0  0
    7.0621    0.9979    0.2173 H   0  0  0  0  0  0  0  0  0  0  0  0
    7.0501    0.1903    1.7631 H   0  0  0  0  0  0  0  0  0  0  0  0
    8.5826   -1.2109   -1.3685 H   0  0  0  0  0  0  0  0  0  0  0  0
    9.0948    0.4939   -1.4006 H   0  0  0  0  0  0  0  0  0  0  0  0
   10.9211   -1.5303   -1.4446 H   0  0  0  0  0  0  0  0  0  0  0  0
   11.2471   -0.0402   -0.5416 H   0  0  0  0  0  0  0  0  0  0  0  0
   10.7572   -2.7224    0.5576 H   0  0  0  0  0  0  0  0  0  0  0  0
   11.3149   -1.2567    1.3795 H   0  0  0  0  0  0  0  0  0  0  0  0
    9.1745   -1.2827    2.3483 H   0  0  0  0  0  0  0  0  0  0  0  0
    8.5414   -2.3366    1.0642 H   0  0  0  0  0  0  0  0  0  0  0  0
  1  2  1  0
  2  3  1  0
  3  4  2  0
  4  5  1  0
  5  6  2  0
  6  7  1  0
  7  8  1  0
  8  9  1  0
  9 10  1  0
 10 11  1  0
 11 12  1  0
 12 13  1  0
 12 14  1  0
 11 15  1  0
 15 16  1  0
  6 17  1  0
 17 18  2  0
 18 19  1  0
 19 20  1  0
 20 21  1  0
 21 22  1  0
 22 23  1  0
 22 24  1  0
 22 25  1  0
 25 26  1  0
 18 27  1  0
 27 28  2  0
 28 29  1  0
 29 30  2  0
 30 31  1  0
 31 32  1  0
 32 33  1  0
 33 34  1  0
 34 35  1  0
 35 36  1  0
 36 37  1  0
 37 38  1  0
 38 39  1  0
 30  3  1  0
 39 35  1  0
 28  5  1  0
 16  8  1  0
 26 19  1  0
  1 40  1  0
  1 41  1  0
  1 42  1  0
  4 43  1  0
  7 44  1  0
  8 45  1  0
  9 46  1  0
  9 47  1  0
 10 48  1  0
 10 49  1  0
 12 50  1  0
 13 51  1  0
 13 52  1  0
 13 53  1  0
 14 54  1  0
 14 55  1  0
 14 56  1  0
 15 57  1  0
 15 58  1  0
 16 59  1  0
 16 60  1  0
 20 61  1  0
 20 62  1  0
 21 63  1  0
 21 64  1  0
 25 65  1  0
 25 66  1  0
 26 67  1  0
 26 68  1  0
 29 69  1  0
 32 70  1  0
 32 71  1  0
 33 72  1  0
 33 73  1  0
 34 74  1  0
 34 75  1  0
 36 76  1  0
 36 77  1  0
 37 78  1  0
 37 79  1  0
 38 80  1  0
 38 81  1  0
 39 82  1  0
 39 83  1  0
M  END
$$$$
