
     RDKit          3D

 42 45  0  0  0  0  0  0  0  0999 V2000
    5.0204   -2.5447   -0.0997 N   0  0  0  0  0  0  0  0  0  0  0  0
    4.2532   -1.3773   -0.5290 C   0  0  0  0  0  0  0  0  0  0  0  0
    4.9222   -0.0596   -0.1554 C   0  0  0  0  0  0  0  0  0  0  0  0
    3.7820    0.9298   -0.3771 C   0  0  0  0  0  0  0  0  0  0  0  0
    2.6029    0.2287    0.1502 N   0  0  0  0  0  0  0  0  0  0  0  0
    1.3016    0.7229   -0.0097 C   0  0  0  0  0  0  0  0  0  0  0  0
    1.0356    1.8585   -0.8052 C   0  0  0  0  0  0  0  0  0  0  0  0
    2.0259    2.5228   -1.4215 F   0  0  0  0  0  0  0  0  0  0  0  0
   -0.2417    2.3686   -0.9952 C   0  0  0  0  0  0  0  0  0  0  0  0
   -1.3355    1.7379   -0.4099 C   0  0  0  0  0  0  0  0  0  0  0  0
   -2.6815    2.3309   -0.6260 C   0  0  0  0  0  0  0  0  0  0  0  0
   -2.8109    3.2665   -1.4073 O   0  0  0  0  0  0  0  0  0  0  0  0
   -3.8249    1.7517    0.1145 C   0  0  0  0  0  0  0  0  0  0  0  0
   -5.1642    2.3651    0.1058 C   0  0  0  0  0  0  0  0  0  0  0  0
   -5.4529    3.4975   -0.2333 O   0  0  0  0  0  0  0  0  0  0  0  0
   -6.1334    1.5342    0.5422 O   0  0  0  0  0  0  0  0  0  0  0  0
   -3.5791    0.6171    0.7848 C   0  0  0  0  0  0  0  0  0  0  0  0
   -2.3638   -0.0401    0.8806 N   0  0  0  0  0  0  0  0  0  0  0  0
   -2.4249   -1.4702    1.2560 C   0  0  0  0  0  0  0  0  0  0  0  0
   -3.3903   -2.4274    0.5900 C   0  0  0  0  0  0  0  0  0  0  0  0
   -1.9236   -2.5641    0.3423 C   0  0  0  0  0  0  0  0  0  0  0  0
   -1.1748    0.5876    0.3854 C   0  0  0  0  0  0  0  0  0  0  0  0
    0.1607    0.1560    0.6471 C   0  0  0  0  0  0  0  0  0  0  0  0
    0.4394   -0.9103    2.0103 Cl  0  0  0  0  0  0  0  0  0  0  0  0
    2.8558   -1.2296    0.1212 C   0  0  0  0  0  0  0  0  0  0  0  0
    5.1473   -2.5187    0.9128 H   0  0  0  0  0  0  0  0  0  0  0  0
    5.9584   -2.5003   -0.4972 H   0  0  0  0  0  0  0  0  0  0  0  0
    4.1306   -1.4252   -1.6188 H   0  0  0  0  0  0  0  0  0  0  0  0
    5.2305   -0.0531    0.8978 H   0  0  0  0  0  0  0  0  0  0  0  0
    5.7956    0.1669   -0.7743 H   0  0  0  0  0  0  0  0  0  0  0  0
    3.6932    1.1086   -1.4550 H   0  0  0  0  0  0  0  0  0  0  0  0
    3.9646    1.8737    0.1459 H   0  0  0  0  0  0  0  0  0  0  0  0
   -0.3664    3.2575   -1.6094 H   0  0  0  0  0  0  0  0  0  0  0  0
   -6.9438    2.0826    0.4663 H   0  0  0  0  0  0  0  0  0  0  0  0
   -4.3747    0.1080    1.3251 H   0  0  0  0  0  0  0  0  0  0  0  0
   -2.3031   -1.6098    2.3284 H   0  0  0  0  0  0  0  0  0  0  0  0
   -4.0028   -2.0749   -0.2315 H   0  0  0  0  0  0  0  0  0  0  0  0
   -3.8721   -3.1716    1.2135 H   0  0  0  0  0  0  0  0  0  0  0  0
   -1.5521   -2.2943   -0.6391 H   0  0  0  0  0  0  0  0  0  0  0  0
   -1.4039   -3.3993    0.7975 H   0  0  0  0  0  0  0  0  0  0  0  0
    2.8921   -1.6166    1.1449 H   0  0  0  0  0  0  0  0  0  0  0  0
    2.1086   -1.7858   -0.4566 H   0  0  0  0  0  0  0  0  0  0  0  0
  1  2  1  0
  2  3  1  0
  3  4  1  0
  4  5  1  0
  5  6  1  0
  6  7  2  0
  7  8  1  0
  7  9  1  0
  9 10  2  0
 10 11  1  0
 11 12  2  0
 11 13  1  0
 13 14  1  0
 14 15  2  0
 14 16  1  0
 13 17  2  0
 17 18  1  0
 18 19  1  0
 19 20  1  0
 20 21  1  0
 18 22  1  0
 22 23  2  0
 23 24  1  0
  5 25  1  0
 25  2  1  0
 23  6  1  0
 22 10  1  0
 21 19  1  0
  1 26  1  0
  1 27  1  0
  2 28  1  0
  3 29  1  0
  3 30  1  0
  4 31  1  0
  4 32  1  0
  9 33  1  0
 16 34  1  0
 17 35  1  0
 19 36  1  0
 20 37  1  0
 20 38  1  0
 21 39  1  0
 21 40  1  0
 25 41  1  0
 25 42  1  0
M  END
$$$$
