
     RDKit          3D

 60 64  0  0  0  0  0  0  0  0999 V2000
    5.3385    2.1907    3.7901 C   0  0  0  0  0  0  0  0  0  0  0  0
    5.5189    1.2583    2.6180 C   0  0  0  0  0  0  0  0  0  0  0  0
    6.6339    0.8708    2.2894 O   0  0  0  0  0  0  0  0  0  0  0  0
    4.3164    0.9601    2.0008 N   0  0  0  0  0  0  0  0  0  0  0  0
    4.1101    0.1258    0.8814 C   0  0  0  0  0  0  0  0  0  0  0  0
    5.1259   -0.5830    0.2413 C   0  0  0  0  0  0  0  0  0  0  0  0
    4.8385   -1.3921   -0.8603 C   0  0  0  0  0  0  0  0  0  0  0  0
    3.5328   -1.4937   -1.3384 C   0  0  0  0  0  0  0  0  0  0  0  0
    2.4963   -0.7823   -0.7228 C   0  0  0  0  0  0  0  0  0  0  0  0
    1.1336   -0.8759   -1.2102 N   0  0  0  0  0  0  0  0  0  0  0  0
    0.6251   -2.1987   -1.2694 C   0  0  0  0  0  0  0  0  0  0  0  0
    1.3427   -3.2005   -1.1649 O   0  0  0  0  0  0  0  0  0  0  0  0
   -0.7538   -2.3476   -1.4322 N   0  0  0  0  0  0  0  0  0  0  0  0
   -1.2739   -3.7034   -1.5675 C   0  0  0  0  0  0  0  0  0  0  0  0
   -1.1256   -4.7261   -0.4638 C   0  0  0  0  0  0  0  0  0  0  0  0
   -2.4798   -4.1836   -0.7907 C   0  0  0  0  0  0  0  0  0  0  0  0
   -1.6392   -1.3081   -1.6252 C   0  0  0  0  0  0  0  0  0  0  0  0
   -2.7881   -1.4646   -2.0453 O   0  0  0  0  0  0  0  0  0  0  0  0
   -1.1172    0.0520   -1.3387 C   0  0  0  0  0  0  0  0  0  0  0  0
   -2.0045    1.0630   -1.1505 C   0  0  0  0  0  0  0  0  0  0  0  0
   -3.3837    0.8549   -1.0316 N   0  0  0  0  0  0  0  0  0  0  0  0
   -4.0221    0.6583    0.2341 C   0  0  0  0  0  0  0  0  0  0  0  0
   -3.4740    1.0939    1.4468 C   0  0  0  0  0  0  0  0  0  0  0  0
   -4.1737    0.9243    2.6478 C   0  0  0  0  0  0  0  0  0  0  0  0
   -5.4388    0.3347    2.6429 C   0  0  0  0  0  0  0  0  0  0  0  0
   -6.4684    0.0852    4.4286 I   0  0  0  0  0  0  0  0  0  0  0  0
   -6.0159   -0.0798    1.4482 C   0  0  0  0  0  0  0  0  0  0  0  0
   -5.3105    0.0955    0.2616 C   0  0  0  0  0  0  0  0  0  0  0  0
   -5.8779   -0.3038   -0.8867 F   0  0  0  0  0  0  0  0  0  0  0  0
   -1.5073    2.3690   -1.1466 N   0  0  0  0  0  0  0  0  0  0  0  0
   -2.4513    3.4850   -1.0783 C   0  0  0  0  0  0  0  0  0  0  0  0
   -0.1820    2.6728   -1.4204 C   0  0  0  0  0  0  0  0  0  0  0  0
    0.2465    3.8218   -1.5133 O   0  0  0  0  0  0  0  0  0  0  0  0
    0.7697    1.5210   -1.5676 C   0  0  0  0  0  0  0  0  0  0  0  0
    2.1499    1.9601   -1.9830 C   0  0  0  0  0  0  0  0  0  0  0  0
    0.3163    0.2625   -1.3573 C   0  0  0  0  0  0  0  0  0  0  0  0
    2.7973    0.0131    0.3988 C   0  0  0  0  0  0  0  0  0  0  0  0
    6.2229    2.1446    4.4322 H   0  0  0  0  0  0  0  0  0  0  0  0
    4.4688    1.8984    4.3856 H   0  0  0  0  0  0  0  0  0  0  0  0
    5.2094    3.2130    3.4252 H   0  0  0  0  0  0  0  0  0  0  0  0
    3.4938    1.4124    2.3782 H   0  0  0  0  0  0  0  0  0  0  0  0
    6.1571   -0.5370    0.5778 H   0  0  0  0  0  0  0  0  0  0  0  0
    5.6386   -1.9468   -1.3451 H   0  0  0  0  0  0  0  0  0  0  0  0
    3.3408   -2.1242   -2.2036 H   0  0  0  0  0  0  0  0  0  0  0  0
   -1.1753   -4.0714   -2.5868 H   0  0  0  0  0  0  0  0  0  0  0  0
   -0.8933   -5.7443   -0.7550 H   0  0  0  0  0  0  0  0  0  0  0  0
   -0.6639   -4.4208    0.4684 H   0  0  0  0  0  0  0  0  0  0  0  0
   -2.9442   -3.5143   -0.0759 H   0  0  0  0  0  0  0  0  0  0  0  0
   -3.1816   -4.8297   -1.3063 H   0  0  0  0  0  0  0  0  0  0  0  0
   -3.6800    0.0508   -1.6121 H   0  0  0  0  0  0  0  0  0  0  0  0
   -2.4986    1.5712    1.4799 H   0  0  0  0  0  0  0  0  0  0  0  0
   -3.7210    1.2649    3.5757 H   0  0  0  0  0  0  0  0  0  0  0  0
   -7.0015   -0.5322    1.4122 H   0  0  0  0  0  0  0  0  0  0  0  0
   -3.1304    3.4352   -1.9360 H   0  0  0  0  0  0  0  0  0  0  0  0
   -1.9453    4.4543   -1.1065 H   0  0  0  0  0  0  0  0  0  0  0  0
   -3.0191    3.4396   -0.1460 H   0  0  0  0  0  0  0  0  0  0  0  0
    2.0890    2.7142   -2.7773 H   0  0  0  0  0  0  0  0  0  0  0  0
    2.7410    1.1505   -2.4160 H   0  0  0  0  0  0  0  0  0  0  0  0
    2.6926    2.4030   -1.1422 H   0  0  0  0  0  0  0  0  0  0  0  0
    1.9954    0.5391    0.9087 H   0  0  0  0  0  0  0  0  0  0  0  0
  1  2  1  0
  2  3  2  0
  2  4  1  0
  4  5  1  0
  5  6  2  0
  6  7  1  0
  7  8  2  0
  8  9  1  0
  9 10  1  0
 10 11  1  0
 11 12  2  0
 11 13  1  0
 13 14  1  0
 14 15  1  0
 15 16  1  0
 13 17  1  0
 17 18  2  0
 17 19  1  0
 19 20  2  0
 20 21  1  0
 21 22  1  0
 22 23  2  0
 23 24  1  0
 24 25  2  0
 25 26  1  0
 25 27  1  0
 27 28  2  0
 28 29  1  0
 20 30  1  0
 30 31  1  0
 30 32  1  0
 32 33  2  0
 32 34  1  0
 34 35  1  0
 34 36  2  0
  9 37  2  0
 37  5  1  0
 36 10  1  0
 16 14  1  0
 36 19  1  0
 28 22  1  0
  1 38  1  0
  1 39  1  0
  1 40  1  0
  4 41  1  0
  6 42  1  0
  7 43  1  0
  8 44  1  0
 14 45  1  0
 15 46  1  0
 15 47  1  0
 16 48  1  0
 16 49  1  0
 21 50  1  0
 23 51  1  0
 24 52  1  0
 27 53  1  0
 31 54  1  0
 31 55  1  0
 31 56  1  0
 35 57  1  0
 35 58  1  0
 35 59  1  0
 37 60  1  0
M  END
$$$$
