
     RDKit          3D

 54 57  0  0  0  0  0  0  0  0999 V2000
    4.6535   -1.7401   -2.4342 C   0  0  0  0  0  0  0  0  0  0  0  0
    5.0944   -2.7016   -1.3418 C   0  0  0  0  0  0  0  0  0  0  0  0
    5.1932   -2.0593   -0.0400 N   0  0  0  0  0  0  0  0  0  0  0  0
    6.4193   -1.7513    0.4396 N   0  0  0  0  0  0  0  0  0  0  0  0
    6.1670   -1.1393    1.5980 C   0  0  0  0  0  0  0  0  0  0  0  0
    4.7910   -1.0366    1.8563 C   0  0  0  0  0  0  0  0  0  0  0  0
    4.1646   -1.6324    0.7720 C   0  0  0  0  0  0  0  0  0  0  0  0
    2.7638   -1.8512    0.4925 C   0  0  0  0  0  0  0  0  0  0  0  0
    2.3638   -2.9020   -0.0034 O   0  0  0  0  0  0  0  0  0  0  0  0
    1.8776   -0.8281    0.7815 N   0  0  0  0  0  0  0  0  0  0  0  0
    2.2003    0.5717    1.0315 C   0  0  0  0  0  0  0  0  0  0  0  0
    0.9561    1.3505    0.6145 C   0  0  0  0  0  0  0  0  0  0  0  0
   -0.1735    0.3521    0.8808 C   0  0  0  0  0  0  0  0  0  0  0  0
   -1.4657    0.6891    0.2547 N   0  0  0  0  0  0  0  0  0  0  0  0
   -1.5642    0.6281   -1.1407 C   0  0  0  0  0  0  0  0  0  0  0  0
   -0.5973    0.4402   -1.8710 O   0  0  0  0  0  0  0  0  0  0  0  0
   -2.9050    0.7779   -1.7790 C   0  0  0  0  0  0  0  0  0  0  0  0
   -3.8093   -0.4192   -1.9692 C   0  0  0  0  0  0  0  0  0  0  0  0
   -3.1272    0.1774   -3.1572 C   0  0  0  0  0  0  0  0  0  0  0  0
   -2.5394    1.1767    1.1606 C   0  0  0  0  0  0  0  0  0  0  0  0
   -2.9478    2.6371    0.8909 C   0  0  0  0  0  0  0  0  0  0  0  0
   -4.4453    2.8894    0.8564 C   0  0  0  0  0  0  0  0  0  0  0  0
   -5.1279    2.0153    1.7456 O   0  0  0  0  0  0  0  0  0  0  0  0
   -5.0629    0.6768    1.2681 C   0  0  0  0  0  0  0  0  0  0  0  0
   -3.6495    0.1388    1.3818 C   0  0  0  0  0  0  0  0  0  0  0  0
    0.4603   -0.9935    0.4905 C   0  0  0  0  0  0  0  0  0  0  0  0
    4.6258   -2.2575   -3.3987 H   0  0  0  0  0  0  0  0  0  0  0  0
    3.6552   -1.3359   -2.2357 H   0  0  0  0  0  0  0  0  0  0  0  0
    5.3462   -0.8945   -2.5168 H   0  0  0  0  0  0  0  0  0  0  0  0
    6.0859   -3.1059   -1.5892 H   0  0  0  0  0  0  0  0  0  0  0  0
    4.4171   -3.5555   -1.2525 H   0  0  0  0  0  0  0  0  0  0  0  0
    6.9966   -0.7989    2.2054 H   0  0  0  0  0  0  0  0  0  0  0  0
    4.3177   -0.6018    2.7256 H   0  0  0  0  0  0  0  0  0  0  0  0
    2.3699    0.6818    2.1075 H   0  0  0  0  0  0  0  0  0  0  0  0
    3.0894    0.8906    0.4818 H   0  0  0  0  0  0  0  0  0  0  0  0
    1.0269    1.6190   -0.4451 H   0  0  0  0  0  0  0  0  0  0  0  0
    0.8383    2.2802    1.1805 H   0  0  0  0  0  0  0  0  0  0  0  0
   -0.3206    0.3052    1.9686 H   0  0  0  0  0  0  0  0  0  0  0  0
   -3.3513    1.7588   -1.6687 H   0  0  0  0  0  0  0  0  0  0  0  0
   -3.4605   -1.3899   -1.6304 H   0  0  0  0  0  0  0  0  0  0  0  0
   -4.8808   -0.2787   -1.8886 H   0  0  0  0  0  0  0  0  0  0  0  0
   -2.3186   -0.3843   -3.6171 H   0  0  0  0  0  0  0  0  0  0  0  0
   -3.7267    0.7370   -3.8658 H   0  0  0  0  0  0  0  0  0  0  0  0
   -2.0594    1.2457    2.1488 H   0  0  0  0  0  0  0  0  0  0  0  0
   -2.4764    3.0520   -0.0057 H   0  0  0  0  0  0  0  0  0  0  0  0
   -2.5359    3.2433    1.7142 H   0  0  0  0  0  0  0  0  0  0  0  0
   -4.8487    2.7749   -0.1541 H   0  0  0  0  0  0  0  0  0  0  0  0
   -4.6574    3.9181    1.1634 H   0  0  0  0  0  0  0  0  0  0  0  0
   -5.4318    0.6358    0.2365 H   0  0  0  0  0  0  0  0  0  0  0  0
   -5.7460    0.0640    1.8681 H   0  0  0  0  0  0  0  0  0  0  0  0
   -3.5274   -0.7507    0.7580 H   0  0  0  0  0  0  0  0  0  0  0  0
   -3.5295   -0.2366    2.4085 H   0  0  0  0  0  0  0  0  0  0  0  0
    0.3535   -1.2618   -0.5629 H   0  0  0  0  0  0  0  0  0  0  0  0
    0.0584   -1.8205    1.0863 H   0  0  0  0  0  0  0  0  0  0  0  0
  1  2  1  0
  2  3  1  0
  3  4  1  0
  4  5  2  0
  5  6  1  0
  6  7  2  0
  7  8  1  0
  8  9  2  0
  8 10  1  0
 10 11  1  0
 11 12  1  0
 12 13  1  0
 13 14  1  0
 14 15  1  0
 15 16  2  0
 15 17  1  0
 17 18  1  0
 18 19  1  0
 14 20  1  0
 20 21  1  0
 21 22  1  0
 22 23  1  0
 23 24  1  0
 24 25  1  0
 13 26  1  0
  7  3  1  0
 26 10  1  0
 19 17  1  0
 25 20  1  0
  1 27  1  0
  1 28  1  0
  1 29  1  0
  2 30  1  0
  2 31  1  0
  5 32  1  0
  6 33  1  0
 11 34  1  0
 11 35  1  0
 12 36  1  0
 12 37  1  0
 13 38  1  0
 17 39  1  0
 18 40  1  0
 18 41  1  0
 19 42  1  0
 19 43  1  0
 20 44  1  0
 21 45  1  0
 21 46  1  0
 22 47  1  0
 22 48  1  0
 24 49  1  0
 24 50  1  0
 25 51  1  0
 25 52  1  0
 26 53  1  0
 26 54  1  0
M  END
$$$$
