
     RDKit          3D

 70 74  0  0  0  0  0  0  0  0999 V2000
   -3.1671    0.1485    0.2922 C   0  0  0  0  0  0  0  0  0  0  0  0
   -1.6771    0.0576    0.1337 C   0  0  0  0  0  0  0  0  0  0  0  0
   -1.0788    0.3819   -1.0925 C   0  0  0  0  0  0  0  0  0  0  0  0
    0.3026    0.2696   -1.2583 C   0  0  0  0  0  0  0  0  0  0  0  0
    1.0848   -0.1827   -0.1942 C   0  0  0  0  0  0  0  0  0  0  0  0
    2.8405   -0.3021   -0.3789 S   0  0  0  0  0  6  0  0  0  0  0  0
    3.2544    0.6273   -1.4087 O   0  0  0  0  0  0  0  0  0  0  0  0
    3.1856   -1.7043   -0.4246 O   0  0  0  0  0  0  0  0  0  0  0  0
    3.4331    0.3150    0.9899 O   0  0  0  0  0  0  0  0  0  0  0  0
    0.5044   -0.5181    1.0310 C   0  0  0  0  0  0  0  0  0  0  0  0
   -0.8776   -0.4041    1.1888 C   0  0  0  0  0  0  0  0  0  0  0  0
    0.3398   -3.3023    0.1004 C   0  0  0  0  0  0  0  0  0  0  0  0
    1.2427   -2.1828   -0.0087 N   0  0  0  0  0  0  0  0  0  0  0  0
    2.6100   -2.3074    0.0250 C   0  0  0  0  0  0  0  0  0  0  0  0
    3.1024   -1.0316   -0.1152 C   0  0  0  0  0  0  0  0  0  0  0  0
    4.4986   -0.6224   -0.1407 C   0  0  0  0  0  0  0  0  0  0  0  0
    5.5504   -1.5473   -0.0764 C   0  0  0  0  0  0  0  0  0  0  0  0
    6.8785   -1.1140   -0.1049 C   0  0  0  0  0  0  0  0  0  0  0  0
    7.1615    0.2447   -0.1977 C   0  0  0  0  0  0  0  0  0  0  0  0
    8.4424    0.6357   -0.2238 F   0  0  0  0  0  0  0  0  0  0  0  0
    6.1434    1.1898   -0.2630 C   0  0  0  0  0  0  0  0  0  0  0  0
    6.4955    2.6416   -0.3624 C   0  0  0  0  0  0  0  0  0  0  0  0
    7.2374    3.0810    0.6923 F   0  0  0  0  0  0  0  0  0  0  0  0
    5.4052    3.4605   -0.4045 F   0  0  0  0  0  0  0  0  0  0  0  0
    7.2141    2.9373   -1.4810 F   0  0  0  0  0  0  0  0  0  0  0  0
    4.8107    0.7453   -0.2347 C   0  0  0  0  0  0  0  0  0  0  0  0
    2.0612   -0.1439   -0.2323 N   0  0  0  0  0  0  0  0  0  0  0  0
    0.9444   -0.8478   -0.1733 C   0  0  0  0  0  0  0  0  0  0  0  0
   -0.4175   -0.2143   -0.2638 C   0  0  0  0  0  0  0  0  0  0  0  0
   -1.1234   -0.1531    1.0894 C   0  0  0  0  0  0  0  0  0  0  0  0
   -2.4497    0.5977    0.9780 C   0  0  0  0  0  0  0  0  0  0  0  0
   -3.2774    0.0339   -0.0873 N   0  0  0  0  0  0  0  0  0  0  0  0
   -4.6305    0.4090   -0.1687 C   0  0  0  0  0  0  0  0  0  0  0  0
   -5.3715   -0.1673   -1.1655 N   0  0  0  0  0  0  0  0  0  0  0  0
   -6.6843    0.1038   -1.2911 C   0  0  0  0  0  0  0  0  0  0  0  0
   -7.4280    0.9188   -0.5343 N   0  0  0  0  0  0  0  0  0  0  0  0
   -6.6870    1.4789    0.4313 C   0  0  0  0  0  0  0  0  0  0  0  0
   -7.1444    2.3598    1.3661 N   0  0  0  0  0  0  0  0  0  0  0  0
   -6.1944    2.7859    2.2185 N   0  0  0  0  0  0  0  0  0  0  0  0
   -5.1021    2.1381    1.7951 C   0  0  0  0  0  0  0  0  0  0  0  0
   -5.3363    1.2913    0.6835 C   0  0  0  0  0  0  0  0  0  0  0  0
   -2.6407   -0.0539   -1.4138 C   0  0  0  0  0  0  0  0  0  0  0  0
   -1.3283   -0.8299   -1.3223 C   0  0  0  0  0  0  0  0  0  0  0  0
   -3.5629    1.0081   -0.2588 H   0  0  0  0  0  0  0  0  0  0  0  0
   -3.4435    0.2810    1.3436 H   0  0  0  0  0  0  0  0  0  0  0  0
   -3.6392   -0.7645   -0.0834 H   0  0  0  0  0  0  0  0  0  0  0  0
   -1.6891    0.7247   -1.9259 H   0  0  0  0  0  0  0  0  0  0  0  0
    0.7548    0.5304   -2.2127 H   0  0  0  0  0  0  0  0  0  0  0  0
    3.9873    1.0859    0.7434 H   0  0  0  0  0  0  0  0  0  0  0  0
    1.1169   -0.8756    1.8558 H   0  0  0  0  0  0  0  0  0  0  0  0
   -1.3290   -0.6786    2.1402 H   0  0  0  0  0  0  0  0  0  0  0  0
    0.8718   -4.1550    0.5320 H   0  0  0  0  0  0  0  0  0  0  0  0
   -0.4931   -3.0441    0.7535 H   0  0  0  0  0  0  0  0  0  0  0  0
   -0.0088   -3.5615   -0.9018 H   0  0  0  0  0  0  0  0  0  0  0  0
    3.0901   -3.2681    0.1432 H   0  0  0  0  0  0  0  0  0  0  0  0
    5.3556   -2.6139   -0.0060 H   0  0  0  0  0  0  0  0  0  0  0  0
    7.6942   -1.8293   -0.0559 H   0  0  0  0  0  0  0  0  0  0  0  0
    4.0003    1.4742   -0.2863 H   0  0  0  0  0  0  0  0  0  0  0  0
   -0.2354    0.8266   -0.5737 H   0  0  0  0  0  0  0  0  0  0  0  0
   -1.3181   -1.1616    1.4709 H   0  0  0  0  0  0  0  0  0  0  0  0
   -0.4871    0.3430    1.8329 H   0  0  0  0  0  0  0  0  0  0  0  0
   -2.9455    0.4895    1.9484 H   0  0  0  0  0  0  0  0  0  0  0  0
   -2.2613    1.6626    0.7935 H   0  0  0  0  0  0  0  0  0  0  0  0
   -7.1976   -0.4007   -2.1040 H   0  0  0  0  0  0  0  0  0  0  0  0
   -8.0907    2.7061    1.4641 H   0  0  0  0  0  0  0  0  0  0  0  0
   -4.1778    2.3256    2.3229 H   0  0  0  0  0  0  0  0  0  0  0  0
   -2.4555    0.9556   -1.8036 H   0  0  0  0  0  0  0  0  0  0  0  0
   -3.2659   -0.5794   -2.1454 H   0  0  0  0  0  0  0  0  0  0  0  0
   -0.8335   -0.8335   -2.3010 H   0  0  0  0  0  0  0  0  0  0  0  0
   -1.5646   -1.8712   -1.0810 H   0  0  0  0  0  0  0  0  0  0  0  0
  1  2  1  0
  2  3  2  0
  3  4  1  0
  4  5  2  0
  5  6  1  0
  6  7  2  0
  6  8  2  0
  6  9  1  0
  5 10  1  0
 10 11  2  0
 12 13  1  0
 13 14  1  0
 14 15  2  0
 15 16  1  0
 16 17  2  0
 17 18  1  0
 18 19  2  0
 19 20  1  0
 19 21  1  0
 21 22  1  0
 22 23  1  0
 22 24  1  0
 22 25  1  0
 21 26  2  0
 15 27  1  0
 27 28  2  0
 28 29  1  0
 29 30  1  0
 30 31  1  0
 31 32  1  0
 32 33  1  0
 33 34  2  0
 34 35  1  0
 35 36  2  0
 36 37  1  0
 37 38  1  0
 38 39  1  0
 39 40  2  0
 40 41  1  0
 32 42  1  0
 42 43  1  0
 11  2  1  0
 28 13  1  0
 43 29  1  0
 26 16  1  0
 41 33  1  0
 41 37  2  0
  1 44  1  0
  1 45  1  0
  1 46  1  0
  3 47  1  0
  4 48  1  0
  9 49  1  0
 10 50  1  0
 11 51  1  0
 12 52  1  0
 12 53  1  0
 12 54  1  0
 14 55  1  0
 17 56  1  0
 18 57  1  0
 26 58  1  0
 29 59  1  0
 30 60  1  0
 30 61  1  0
 31 62  1  0
 31 63  1  0
 35 64  1  0
 38 65  1  0
 40 66  1  0
 42 67  1  0
 42 68  1  0
 43 69  1  0
 43 70  1  0
M  END
$$$$
