
     RDKit          3D

 52 54  0  0  0  0  0  0  0  0999 V2000
    1.8025    0.5727    2.5278 C   0  0  0  0  0  0  0  0  0  0  0  0
    0.6331    0.1945    1.6651 C   0  0  0  0  0  0  0  0  0  0  0  0
   -0.5337    0.9706    1.7030 C   0  0  0  0  0  0  0  0  0  0  0  0
   -1.6777    0.6673    0.9249 C   0  0  0  0  0  0  0  0  0  0  0  0
   -1.6590   -0.4895    0.1102 C   0  0  0  0  0  0  0  0  0  0  0  0
   -0.4695   -1.2452    0.0479 C   0  0  0  0  0  0  0  0  0  0  0  0
    0.6615   -0.8955    0.7934 C   0  0  0  0  0  0  0  0  0  0  0  0
    1.8652   -1.7350    0.6263 C   0  0  0  0  0  0  0  0  0  0  0  0
    1.8448   -2.8837    1.0569 O   0  0  0  0  0  0  0  0  0  0  0  0
    3.0698   -1.2044   -0.0718 C   0  0  0  0  0  0  0  0  0  0  0  0
    4.2735   -1.9118    0.0496 C   0  0  0  0  0  0  0  0  0  0  0  0
    5.4307   -1.4565   -0.5902 C   0  0  0  0  0  0  0  0  0  0  0  0
    5.3911   -0.2904   -1.3631 C   0  0  0  0  0  0  0  0  0  0  0  0
    6.5899    0.2342   -2.0613 C   0  0  0  0  0  0  0  0  0  0  0  0
    6.6302    1.2383   -2.7478 O   0  0  0  0  0  0  0  0  0  0  0  0
    7.6822   -0.5241   -1.8646 O   0  0  0  0  0  0  0  0  0  0  0  0
    4.1863    0.4126   -1.4936 C   0  0  0  0  0  0  0  0  0  0  0  0
    3.0284   -0.0429   -0.8538 C   0  0  0  0  0  0  0  0  0  0  0  0
   -2.8654   -0.9252   -0.7326 C   0  0  0  0  0  0  0  0  0  0  0  0
   -3.1505   -2.4393   -0.5894 C   0  0  0  0  0  0  0  0  0  0  0  0
   -2.5651   -0.6261   -2.2182 C   0  0  0  0  0  0  0  0  0  0  0  0
   -4.1560   -0.1950   -0.3002 C   0  0  0  0  0  0  0  0  0  0  0  0
   -3.9266    1.2934   -0.0994 C   0  0  0  0  0  0  0  0  0  0  0  0
   -2.9128    1.5749    1.0318 C   0  0  0  0  0  0  0  0  0  0  0  0
   -3.5811    1.3442    2.4053 C   0  0  0  0  0  0  0  0  0  0  0  0
   -2.5370    3.0717    0.9182 C   0  0  0  0  0  0  0  0  0  0  0  0
    1.4786    1.1655    3.3903 H   0  0  0  0  0  0  0  0  0  0  0  0
    2.5206    1.1669    1.9550 H   0  0  0  0  0  0  0  0  0  0  0  0
    2.3024   -0.3151    2.9280 H   0  0  0  0  0  0  0  0  0  0  0  0
   -0.5547    1.8278    2.3744 H   0  0  0  0  0  0  0  0  0  0  0  0
   -0.4056   -2.1214   -0.5948 H   0  0  0  0  0  0  0  0  0  0  0  0
    4.3146   -2.8228    0.6451 H   0  0  0  0  0  0  0  0  0  0  0  0
    6.3537   -2.0211   -0.4798 H   0  0  0  0  0  0  0  0  0  0  0  0
    8.3830   -0.0678   -2.3763 H   0  0  0  0  0  0  0  0  0  0  0  0
    4.1436    1.3171   -2.0986 H   0  0  0  0  0  0  0  0  0  0  0  0
    2.1071    0.5190   -0.9866 H   0  0  0  0  0  0  0  0  0  0  0  0
   -4.0740   -2.7149   -1.1126 H   0  0  0  0  0  0  0  0  0  0  0  0
   -2.3529   -3.0587   -1.0129 H   0  0  0  0  0  0  0  0  0  0  0  0
   -3.2652   -2.7228    0.4635 H   0  0  0  0  0  0  0  0  0  0  0  0
   -2.3052    0.4256   -2.3806 H   0  0  0  0  0  0  0  0  0  0  0  0
   -3.4287   -0.8603   -2.8510 H   0  0  0  0  0  0  0  0  0  0  0  0
   -1.7219   -1.2223   -2.5867 H   0  0  0  0  0  0  0  0  0  0  0  0
   -4.5471   -0.6294    0.6285 H   0  0  0  0  0  0  0  0  0  0  0  0
   -4.9429   -0.3409   -1.0515 H   0  0  0  0  0  0  0  0  0  0  0  0
   -3.5796    1.7364   -1.0414 H   0  0  0  0  0  0  0  0  0  0  0  0
   -4.8856    1.7795    0.1227 H   0  0  0  0  0  0  0  0  0  0  0  0
   -4.5074    1.9229    2.4964 H   0  0  0  0  0  0  0  0  0  0  0  0
   -2.9255    1.6502    3.2291 H   0  0  0  0  0  0  0  0  0  0  0  0
   -3.8266    0.2894    2.5700 H   0  0  0  0  0  0  0  0  0  0  0  0
   -3.4354    3.6998    0.8899 H   0  0  0  0  0  0  0  0  0  0  0  0
   -1.9372    3.4200    1.7656 H   0  0  0  0  0  0  0  0  0  0  0  0
   -1.9631    3.2675    0.0047 H   0  0  0  0  0  0  0  0  0  0  0  0
  1  2  1  0
  2  3  2  0
  3  4  1  0
  4  5  2  0
  5  6  1  0
  6  7  2  0
  7  8  1  0
  8  9  2  0
  8 10  1  0
 10 11  2  0
 11 12  1  0
 12 13  2  0
 13 14  1  0
 14 15  2  0
 14 16  1  0
 13 17  1  0
 17 18  2  0
  5 19  1  0
 19 20  1  0
 19 21  1  0
 19 22  1  0
 22 23  1  0
 23 24  1  0
 24 25  1  0
 24 26  1  0
  7  2  1  0
 18 10  1  0
 24  4  1  0
  1 27  1  0
  1 28  1  0
  1 29  1  0
  3 30  1  0
  6 31  1  0
 11 32  1  0
 12 33  1  0
 16 34  1  0
 17 35  1  0
 18 36  1  0
 20 37  1  0
 20 38  1  0
 20 39  1  0
 21 40  1  0
 21 41  1  0
 21 42  1  0
 22 43  1  0
 22 44  1  0
 23 45  1  0
 23 46  1  0
 25 47  1  0
 25 48  1  0
 25 49  1  0
 26 50  1  0
 26 51  1  0
 26 52  1  0
M  END
$$$$
