
     RDKit          3D

 44 45  0  0  0  0  0  0  0  0999 V2000
   -7.5374    0.8200    0.9177 O   0  0  0  0  0  0  0  0  0  0  0  0
   -6.4311    0.4936    0.5069 C   0  0  0  0  0  0  0  0  0  0  0  0
   -5.2116    0.8427    1.2500 C   0  0  0  0  0  0  0  0  0  0  0  0
   -4.0405    0.3758    0.8180 C   0  0  0  0  0  0  0  0  0  0  0  0
   -3.9351   -0.3968   -0.3250 N   0  0  0  0  0  0  0  0  0  0  0  0
   -2.6398   -0.8962   -0.7746 C   0  0  2  0  0  0  0  0  0  0  0  0
   -1.8783   -1.3679    0.3590 O   0  0  0  0  0  0  0  0  0  0  0  0
   -0.4796   -1.1298    0.0778 C   0  0  2  0  0  0  0  0  0  0  0  0
    0.0847   -0.2598    1.1997 C   0  0  0  0  0  0  0  0  0  0  0  0
    1.4817   -0.0738    1.0441 O   0  0  0  0  0  0  0  0  0  0  0  0
    2.4636   -1.0027    1.9031 P   0  0  0  0  0  5  0  0  0  0  0  0
    2.2345   -1.0488    3.3762 O   0  0  0  0  0  0  0  0  0  0  0  0
    2.2371   -2.4433    1.2395 O   0  0  0  0  0  0  0  0  0  0  0  0
    3.9307   -0.6475    1.4210 O   0  0  0  0  0  0  0  0  0  0  0  0
    4.6638    0.7029    1.8069 P   0  0  0  0  0  5  0  0  0  0  0  0
    3.8340    1.9313    1.9795 O   0  0  0  0  0  0  0  0  0  0  0  0
    5.5545    0.3030    3.0774 O   0  0  0  0  0  0  0  0  0  0  0  0
    5.7901    0.8808    0.7012 O   0  0  0  0  0  0  0  0  0  0  0  0
    5.4363    1.6618   -0.6366 P   0  0  0  0  0  5  0  0  0  0  0  0
    4.2595    1.1767   -1.4080 O   0  0  0  0  0  0  0  0  0  0  0  0
    6.8104    1.6207   -1.4555 O   0  0  0  0  0  0  0  0  0  0  0  0
    5.3754    3.1925   -0.1927 O   0  0  0  0  0  0  0  0  0  0  0  0
   -0.3873   -0.4710   -1.3022 C   0  0  1  0  0  0  0  0  0  0  0  0
   -0.2536   -1.4689   -2.3251 O   0  0  0  0  0  0  0  0  0  0  0  0
   -1.7607    0.1661   -1.4564 C   0  0  1  0  0  0  0  0  0  0  0  0
   -2.0791    0.4028   -2.8251 O   0  0  0  0  0  0  0  0  0  0  0  0
   -5.0430   -0.6795   -1.1182 C   0  0  0  0  0  0  0  0  0  0  0  0
   -5.0036   -1.3275   -2.1652 O   0  0  0  0  0  0  0  0  0  0  0  0
   -6.2404   -0.2069   -0.6472 N   0  0  0  0  0  0  0  0  0  0  0  0
   -5.3211    1.4401    2.1395 H   0  0  0  0  0  0  0  0  0  0  0  0
   -3.1246    0.5885    1.3633 H   0  0  0  0  0  0  0  0  0  0  0  0
   -2.7907   -1.7568   -1.4440 H   0  0  0  0  0  0  0  0  0  0  0  0
    0.0198   -2.1044    0.0645 H   0  0  0  0  0  0  0  0  0  0  0  0
   -0.3953    0.7230    1.1953 H   0  0  0  0  0  0  0  0  0  0  0  0
   -0.1442   -0.7037    2.1724 H   0  0  0  0  0  0  0  0  0  0  0  0
    2.4918   -3.1476    1.8624 H   0  0  0  0  0  0  0  0  0  0  0  0
    6.2545   -0.3418    2.8672 H   0  0  0  0  0  0  0  0  0  0  0  0
    6.7130    2.0518   -2.3285 H   0  0  0  0  0  0  0  0  0  0  0  0
    4.5791    3.3928    0.3472 H   0  0  0  0  0  0  0  0  0  0  0  0
    0.4370    0.2372   -1.4285 H   0  0  0  0  0  0  0  0  0  0  0  0
    0.6585   -1.8152   -2.2682 H   0  0  0  0  0  0  0  0  0  0  0  0
   -1.8008    1.1156   -0.9132 H   0  0  0  0  0  0  0  0  0  0  0  0
   -1.7509   -0.3860   -3.3085 H   0  0  0  0  0  0  0  0  0  0  0  0
   -7.0614   -0.4439   -1.1847 H   0  0  0  0  0  0  0  0  0  0  0  0
  1  2  2  0
  2  3  1  0
  3  4  2  0
  4  5  1  0
  5  6  1  0
  6  7  1  0
  7  8  1  0
  8  9  1  0
  9 10  1  0
 10 11  1  0
 11 12  2  0
 11 13  1  0
 11 14  1  0
 14 15  1  0
 15 16  2  0
 15 17  1  0
 15 18  1  0
 18 19  1  0
 19 20  2  0
 19 21  1  0
 19 22  1  0
  8 23  1  0
 23 24  1  0
 23 25  1  0
 25 26  1  0
  5 27  1  0
 27 28  2  0
 27 29  1  0
 29  2  1  0
 25  6  1  0
  3 30  1  0
  4 31  1  0
  6 32  1  6
  8 33  1  6
  9 34  1  0
  9 35  1  0
 13 36  1  0
 17 37  1  0
 21 38  1  0
 22 39  1  0
 23 40  1  1
 24 41  1  0
 25 42  1  1
 26 43  1  0
 29 44  1  0
M  END
$$$$
