
     RDKit          3D

 42 44  0  0  0  0  0  0  0  0999 V2000
    8.0268   -1.5099   -0.2541 C   0  0  0  0  0  0  0  0  0  0  0  0
    6.9477   -1.3675   -1.1699 O   0  0  0  0  0  0  0  0  0  0  0  0
    5.7674   -0.8969   -0.6655 C   0  0  0  0  0  0  0  0  0  0  0  0
    5.5202   -0.5526    0.6623 C   0  0  0  0  0  0  0  0  0  0  0  0
    4.2582   -0.0814    1.0453 C   0  0  0  0  0  0  0  0  0  0  0  0
    3.2298    0.0494    0.0999 C   0  0  0  0  0  0  0  0  0  0  0  0
    1.9582    0.5269    0.5101 N   0  0  0  0  0  0  0  0  0  0  0  0
    0.8264    0.7245   -0.2456 C   0  0  0  0  0  0  0  0  0  0  0  0
   -0.1240    1.1890    0.6432 C   0  0  0  0  0  0  0  0  0  0  0  0
   -1.4954    1.6097    0.3728 C   0  0  0  0  0  0  0  0  0  0  0  0
   -1.9153    2.6727    0.8279 O   0  0  0  0  0  0  0  0  0  0  0  0
   -2.2901    0.7946   -0.4430 N   0  0  0  0  0  0  0  0  0  0  0  0
   -1.9819   -0.5878   -0.7857 C   0  0  0  0  0  0  0  0  0  0  0  0
   -3.5731    1.3212   -0.9036 C   0  0  0  0  0  0  0  0  0  0  0  0
   -4.7530    0.7572   -0.1458 C   0  0  0  0  0  0  0  0  0  0  0  0
   -4.9516    1.0778    1.2050 C   0  0  0  0  0  0  0  0  0  0  0  0
   -6.0391    0.5552    1.9066 C   0  0  0  0  0  0  0  0  0  0  0  0
   -6.9415   -0.2910    1.2659 C   0  0  0  0  0  0  0  0  0  0  0  0
   -6.7586   -0.6143   -0.0772 C   0  0  0  0  0  0  0  0  0  0  0  0
   -5.6710   -0.0928   -0.7807 C   0  0  0  0  0  0  0  0  0  0  0  0
    0.4511    1.2907    1.8820 N   0  0  0  0  0  0  0  0  0  0  0  0
    1.7026    0.8611    1.7973 N   0  0  0  0  0  0  0  0  0  0  0  0
    3.4784   -0.2958   -1.2333 C   0  0  0  0  0  0  0  0  0  0  0  0
    4.7425   -0.7658   -1.6057 C   0  0  0  0  0  0  0  0  0  0  0  0
    7.7880   -2.2398    0.5264 H   0  0  0  0  0  0  0  0  0  0  0  0
    8.8896   -1.8882   -0.8108 H   0  0  0  0  0  0  0  0  0  0  0  0
    8.3072   -0.5440    0.1789 H   0  0  0  0  0  0  0  0  0  0  0  0
    6.2845   -0.6365    1.4282 H   0  0  0  0  0  0  0  0  0  0  0  0
    4.0988    0.1799    2.0908 H   0  0  0  0  0  0  0  0  0  0  0  0
    0.7856    0.5503   -1.3080 H   0  0  0  0  0  0  0  0  0  0  0  0
   -1.2169   -1.0121   -0.1329 H   0  0  0  0  0  0  0  0  0  0  0  0
   -2.8769   -1.2076   -0.6843 H   0  0  0  0  0  0  0  0  0  0  0  0
   -1.6420   -0.6182   -1.8247 H   0  0  0  0  0  0  0  0  0  0  0  0
   -3.5969    2.4148   -0.8281 H   0  0  0  0  0  0  0  0  0  0  0  0
   -3.6546    1.0911   -1.9733 H   0  0  0  0  0  0  0  0  0  0  0  0
   -4.2578    1.7415    1.7189 H   0  0  0  0  0  0  0  0  0  0  0  0
   -6.1805    0.8115    2.9534 H   0  0  0  0  0  0  0  0  0  0  0  0
   -7.7884   -0.6960    1.8135 H   0  0  0  0  0  0  0  0  0  0  0  0
   -7.4647   -1.2723   -0.5769 H   0  0  0  0  0  0  0  0  0  0  0  0
   -5.5460   -0.3562   -1.8282 H   0  0  0  0  0  0  0  0  0  0  0  0
    2.7229   -0.2133   -2.0081 H   0  0  0  0  0  0  0  0  0  0  0  0
    4.9333   -1.0327   -2.6431 H   0  0  0  0  0  0  0  0  0  0  0  0
  1  2  1  0
  2  3  1  0
  3  4  2  0
  4  5  1  0
  5  6  2  0
  6  7  1  0
  7  8  1  0
  8  9  2  0
  9 10  1  0
 10 11  2  0
 10 12  1  0
 12 13  1  0
 12 14  1  0
 14 15  1  0
 15 16  2  0
 16 17  1  0
 17 18  2  0
 18 19  1  0
 19 20  2  0
  9 21  1  0
 21 22  2  0
  6 23  1  0
 23 24  2  0
 24  3  1  0
 22  7  1  0
 20 15  1  0
  1 25  1  0
  1 26  1  0
  1 27  1  0
  4 28  1  0
  5 29  1  0
  8 30  1  0
 13 31  1  0
 13 32  1  0
 13 33  1  0
 14 34  1  0
 14 35  1  0
 16 36  1  0
 17 37  1  0
 18 38  1  0
 19 39  1  0
 20 40  1  0
 23 41  1  0
 24 42  1  0
M  END
$$$$
