
     RDKit          3D

 53 57  0  0  0  0  0  0  0  0999 V2000
    6.8909    2.8250   -2.1963 N   0  0  0  0  0  0  0  0  0  0  0  0
    6.3077    3.1435   -0.8703 C   0  0  0  0  0  0  0  0  0  0  0  0
    4.9102    2.5238   -0.7540 C   0  0  0  0  0  0  0  0  0  0  0  0
    3.9099    3.2301   -0.6467 O   0  0  0  0  0  0  0  0  0  0  0  0
    4.9586    1.1399   -0.7877 N   0  0  0  0  0  0  0  0  0  0  0  0
    3.8961    0.2334   -0.6287 C   0  0  0  0  0  0  0  0  0  0  0  0
    2.5724    0.6099   -0.4038 C   0  0  0  0  0  0  0  0  0  0  0  0
    1.5606   -0.3542   -0.2474 C   0  0  0  0  0  0  0  0  0  0  0  0
    1.8620   -1.7185   -0.3000 C   0  0  0  0  0  0  0  0  0  0  0  0
    0.8766   -2.7512   -0.1496 N   0  0  0  0  0  0  0  0  0  0  0  0
    1.2909   -4.0528   -0.2462 N   0  0  0  0  0  0  0  0  0  0  0  0
    0.1949   -4.8123   -0.0976 C   0  0  0  0  0  0  0  0  0  0  0  0
    0.2346   -6.3169   -0.1304 C   0  0  0  0  0  0  0  0  0  0  0  0
   -1.0144   -6.8536   -0.0732 F   0  0  0  0  0  0  0  0  0  0  0  0
    0.9203   -6.8385    0.9218 F   0  0  0  0  0  0  0  0  0  0  0  0
    0.8076   -6.8060   -1.2624 F   0  0  0  0  0  0  0  0  0  0  0  0
   -0.9415   -4.0056    0.1043 C   0  0  0  0  0  0  0  0  0  0  0  0
   -0.4993   -2.6948    0.0910 C   0  0  0  0  0  0  0  0  0  0  0  0
   -1.3365   -1.5245    0.3165 C   0  0  0  0  0  0  0  0  0  0  0  0
   -1.4987   -1.0144    1.6002 C   0  0  0  0  0  0  0  0  0  0  0  0
   -2.3862    0.0437    1.8281 C   0  0  0  0  0  0  0  0  0  0  0  0
   -3.1540    0.6266    0.7890 C   0  0  0  0  0  0  0  0  0  0  0  0
   -2.9774    0.0863   -0.5121 C   0  0  0  0  0  0  0  0  0  0  0  0
   -3.7139    0.5958   -1.5844 C   0  0  0  0  0  0  0  0  0  0  0  0
   -4.6324    1.6244   -1.3949 C   0  0  0  0  0  0  0  0  0  0  0  0
   -4.8345    2.1819   -0.1281 C   0  0  0  0  0  0  0  0  0  0  0  0
   -5.7792    3.2120    0.0307 C   0  0  0  0  0  0  0  0  0  0  0  0
   -6.0086    3.7932    1.2772 C   0  0  0  0  0  0  0  0  0  0  0  0
   -5.2938    3.3481    2.3800 C   0  0  0  0  0  0  0  0  0  0  0  0
   -4.3593    2.3163    2.2358 C   0  0  0  0  0  0  0  0  0  0  0  0
   -4.0960    1.7001    0.9840 C   0  0  0  0  0  0  0  0  0  0  0  0
   -2.0806   -0.9749   -0.7324 C   0  0  0  0  0  0  0  0  0  0  0  0
    3.2007   -2.0925   -0.5239 C   0  0  0  0  0  0  0  0  0  0  0  0
    4.2023   -1.1287   -0.6895 C   0  0  0  0  0  0  0  0  0  0  0  0
    6.2517    3.2127   -2.9014 H   0  0  0  0  0  0  0  0  0  0  0  0
    7.7563    3.3613   -2.3056 H   0  0  0  0  0  0  0  0  0  0  0  0
    6.9409    2.7532   -0.0615 H   0  0  0  0  0  0  0  0  0  0  0  0
    6.2212    4.2298   -0.7488 H   0  0  0  0  0  0  0  0  0  0  0  0
    5.8680    0.7524   -1.0175 H   0  0  0  0  0  0  0  0  0  0  0  0
    2.2799    1.6574   -0.3633 H   0  0  0  0  0  0  0  0  0  0  0  0
    0.5580    0.0269   -0.0959 H   0  0  0  0  0  0  0  0  0  0  0  0
   -1.9619   -4.3353    0.2659 H   0  0  0  0  0  0  0  0  0  0  0  0
   -0.9463   -1.4364    2.4376 H   0  0  0  0  0  0  0  0  0  0  0  0
   -2.4770    0.3950    2.8520 H   0  0  0  0  0  0  0  0  0  0  0  0
   -3.5966    0.1822   -2.5850 H   0  0  0  0  0  0  0  0  0  0  0  0
   -5.2076    1.9757   -2.2527 H   0  0  0  0  0  0  0  0  0  0  0  0
   -6.3499    3.5716   -0.8231 H   0  0  0  0  0  0  0  0  0  0  0  0
   -6.7438    4.5875    1.3827 H   0  0  0  0  0  0  0  0  0  0  0  0
   -5.4728    3.7853    3.3598 H   0  0  0  0  0  0  0  0  0  0  0  0
   -3.8476    1.9896    3.1359 H   0  0  0  0  0  0  0  0  0  0  0  0
   -1.9741   -1.3942   -1.7332 H   0  0  0  0  0  0  0  0  0  0  0  0
    3.4918   -3.1431   -0.5756 H   0  0  0  0  0  0  0  0  0  0  0  0
    5.2203   -1.4663   -0.8642 H   0  0  0  0  0  0  0  0  0  0  0  0
  1  2  1  0
  2  3  1  0
  3  4  2  0
  3  5  1  0
  5  6  1  0
  6  7  2  0
  7  8  1  0
  8  9  2  0
  9 10  1  0
 10 11  1  0
 11 12  2  0
 12 13  1  0
 13 14  1  0
 13 15  1  0
 13 16  1  0
 12 17  1  0
 17 18  2  0
 18 19  1  0
 19 20  2  0
 20 21  1  0
 21 22  2  0
 22 23  1  0
 23 24  1  0
 24 25  2  0
 25 26  1  0
 26 27  2  0
 27 28  1  0
 28 29  2  0
 29 30  1  0
 30 31  2  0
 23 32  2  0
  9 33  1  0
 33 34  2  0
 34  6  1  0
 18 10  1  0
 32 19  1  0
 31 22  1  0
 31 26  1  0
  1 35  1  0
  1 36  1  0
  2 37  1  0
  2 38  1  0
  5 39  1  0
  7 40  1  0
  8 41  1  0
 17 42  1  0
 20 43  1  0
 21 44  1  0
 24 45  1  0
 25 46  1  0
 27 47  1  0
 28 48  1  0
 29 49  1  0
 30 50  1  0
 32 51  1  0
 33 52  1  0
 34 53  1  0
M  END
$$$$
