
     RDKit          3D

 58 61  0  0  0  0  0  0  0  0999 V2000
    7.8761   -2.0817   -2.6306 C   0  0  0  0  0  0  0  0  0  0  0  0
    7.1376   -2.2447   -1.3067 C   0  0  0  0  0  0  0  0  0  0  0  0
    5.7758   -2.6238   -1.5151 O   0  0  0  0  0  0  0  0  0  0  0  0
    4.9304   -1.5269   -1.8469 C   0  0  0  0  0  0  0  0  0  0  0  0
    3.4964   -2.0377   -1.9522 C   0  0  0  0  0  0  0  0  0  0  0  0
    2.9387   -2.5465   -0.6207 C   0  0  0  0  0  0  0  0  0  0  0  0
    2.2853   -1.4916    0.1660 N   0  0  0  0  0  0  0  0  0  0  0  0
    0.9532   -1.0962   -0.0284 C   0  0  0  0  0  0  0  0  0  0  0  0
    0.0344   -1.9373   -1.2749 S   0  0  0  0  0  0  0  0  0  0  0  0
   -1.6574   -1.6666   -0.6971 C   0  0  0  0  0  0  0  0  0  0  0  0
   -2.2196   -0.3072   -1.0927 C   0  0  0  0  0  0  0  0  0  0  0  0
   -1.7274    0.4465   -1.9234 O   0  0  0  0  0  0  0  0  0  0  0  0
   -3.4092   -0.0163   -0.4472 N   0  0  0  0  0  0  0  0  0  0  0  0
   -4.2313    1.1002   -0.8794 C   0  0  0  0  0  0  0  0  0  0  0  0
   -5.4119    1.3050    0.0765 C   0  0  0  0  0  0  0  0  0  0  0  0
   -6.4031    2.3402   -0.4284 C   0  0  0  0  0  0  0  0  0  0  0  0
   -7.3713    1.5149   -1.2444 C   0  0  0  0  0  0  0  0  0  0  0  0
   -7.3932    0.1901   -0.5121 C   0  0  0  0  0  0  0  0  0  0  0  0
   -6.1402    0.0609    0.1748 O   0  0  0  0  0  0  0  0  0  0  0  0
    0.3288   -0.1729    0.6303 N   0  0  0  0  0  0  0  0  0  0  0  0
    1.0695    0.4613    1.6280 C   0  0  0  0  0  0  0  0  0  0  0  0
    2.3573    0.1225    1.8955 C   0  0  0  0  0  0  0  0  0  0  0  0
    3.0013    1.0155    3.1783 S   0  0  0  0  0  0  0  0  0  0  0  0
    1.5238    1.8936    3.3938 C   0  0  0  0  0  0  0  0  0  0  0  0
    1.2578    2.8907    4.3539 C   0  0  0  0  0  0  0  0  0  0  0  0
    0.0053    3.4993    4.3629 C   0  0  0  0  0  0  0  0  0  0  0  0
   -0.9675    3.1293    3.4443 C   0  0  0  0  0  0  0  0  0  0  0  0
   -0.7072    2.1342    2.5001 C   0  0  0  0  0  0  0  0  0  0  0  0
    0.5548    1.4960    2.4645 C   0  0  0  0  0  0  0  0  0  0  0  0
    3.0625   -0.8866    1.1648 C   0  0  0  0  0  0  0  0  0  0  0  0
    4.2264   -1.1971    1.3879 O   0  0  0  0  0  0  0  0  0  0  0  0
    8.9402   -1.8905   -2.4642 H   0  0  0  0  0  0  0  0  0  0  0  0
    7.4652   -1.2502   -3.2165 H   0  0  0  0  0  0  0  0  0  0  0  0
    7.7731   -2.9857   -3.2384 H   0  0  0  0  0  0  0  0  0  0  0  0
    7.6122   -3.0523   -0.7319 H   0  0  0  0  0  0  0  0  0  0  0  0
    7.1968   -1.3309   -0.7017 H   0  0  0  0  0  0  0  0  0  0  0  0
    5.0149   -0.7370   -1.0959 H   0  0  0  0  0  0  0  0  0  0  0  0
    5.2291   -1.1172   -2.8134 H   0  0  0  0  0  0  0  0  0  0  0  0
    3.4857   -2.8769   -2.6596 H   0  0  0  0  0  0  0  0  0  0  0  0
    2.8644   -1.2490   -2.3686 H   0  0  0  0  0  0  0  0  0  0  0  0
    2.2165   -3.3373   -0.8206 H   0  0  0  0  0  0  0  0  0  0  0  0
    3.7144   -3.0214   -0.0222 H   0  0  0  0  0  0  0  0  0  0  0  0
   -1.7221   -1.8039    0.3887 H   0  0  0  0  0  0  0  0  0  0  0  0
   -2.2930   -2.4282   -1.1629 H   0  0  0  0  0  0  0  0  0  0  0  0
   -3.9160   -0.7811   -0.0103 H   0  0  0  0  0  0  0  0  0  0  0  0
   -4.5829    0.8442   -1.8972 H   0  0  0  0  0  0  0  0  0  0  0  0
   -3.6121    2.0067   -0.9447 H   0  0  0  0  0  0  0  0  0  0  0  0
   -5.0364    1.5600    1.0756 H   0  0  0  0  0  0  0  0  0  0  0  0
   -5.9382    3.1397   -1.0055 H   0  0  0  0  0  0  0  0  0  0  0  0
   -6.9287    2.7953    0.4168 H   0  0  0  0  0  0  0  0  0  0  0  0
   -6.9740    1.3773   -2.2618 H   0  0  0  0  0  0  0  0  0  0  0  0
   -8.3636    1.9638   -1.3372 H   0  0  0  0  0  0  0  0  0  0  0  0
   -7.5236   -0.6551   -1.1983 H   0  0  0  0  0  0  0  0  0  0  0  0
   -8.1893    0.1505    0.2297 H   0  0  0  0  0  0  0  0  0  0  0  0
    2.0133    3.1816    5.0763 H   0  0  0  0  0  0  0  0  0  0  0  0
   -0.2116    4.2695    5.0997 H   0  0  0  0  0  0  0  0  0  0  0  0
   -1.9386    3.6140    3.4615 H   0  0  0  0  0  0  0  0  0  0  0  0
   -1.4718    1.8470    1.7814 H   0  0  0  0  0  0  0  0  0  0  0  0
  1  2  1  0
  2  3  1  0
  3  4  1  0
  4  5  1  0
  5  6  1  0
  6  7  1  0
  7  8  1  0
  8  9  1  0
  9 10  1  0
 10 11  1  0
 11 12  2  0
 11 13  1  0
 13 14  1  0
 14 15  1  0
 15 16  1  0
 16 17  1  0
 17 18  1  0
 18 19  1  0
  8 20  2  0
 20 21  1  0
 21 22  2  0
 22 23  1  0
 23 24  1  0
 24 25  2  0
 25 26  1  0
 26 27  2  0
 27 28  1  0
 28 29  2  0
 22 30  1  0
 30 31  2  0
 30  7  1  0
 19 15  1  0
 29 21  1  0
 29 24  1  0
  1 32  1  0
  1 33  1  0
  1 34  1  0
  2 35  1  0
  2 36  1  0
  4 37  1  0
  4 38  1  0
  5 39  1  0
  5 40  1  0
  6 41  1  0
  6 42  1  0
 10 43  1  0
 10 44  1  0
 13 45  1  0
 14 46  1  0
 14 47  1  0
 15 48  1  0
 16 49  1  0
 16 50  1  0
 17 51  1  0
 17 52  1  0
 18 53  1  0
 18 54  1  0
 25 55  1  0
 26 56  1  0
 27 57  1  0
 28 58  1  0
M  END
$$$$
