
     RDKit          3D

 65 68  0  0  0  0  0  0  0  0999 V2000
    0.6874    0.0000    0.0000 Cl  0  0  0  0  0  0  0  0  0  0  0  0
    5.8964   -0.6440   -1.9606 N   0  0  0  0  0  0  0  0  0  0  0  0
    5.6106   -0.5850   -0.5751 C   0  0  0  0  0  0  0  0  0  0  0  0
    4.4996   -1.0978   -0.0427 N   0  0  0  0  0  0  0  0  0  0  0  0
    4.1882   -1.0693    1.2499 C   0  0  0  0  0  0  0  0  0  0  0  0
    2.9889   -1.6279    1.7917 N   0  0  0  0  0  0  0  0  0  0  0  0
    2.0240   -2.2410    0.9394 C   0  0  0  0  0  0  0  0  0  0  0  0
    1.1117   -1.2593    0.3158 C   0  0  1  0  0  0  0  0  0  0  0  0
    0.3924   -0.5293    1.4684 C   0  0  0  0  0  0  0  0  0  0  0  0
   -0.8944    0.0136    0.8359 C   0  0  0  0  0  0  0  0  0  0  0  0
   -0.4955    1.0426   -0.1643 C   0  0  2  0  0  0  0  0  0  0  0  0
   -1.7620    1.3808   -0.9924 C   0  0  0  0  0  0  0  0  0  0  0  0
   -2.7874    1.8836   -0.1853 N   0  0  0  0  0  0  0  0  0  0  0  0
   -4.2651    2.3402   -0.8295 S   0  0  0  0  0  6  0  0  0  0  0  0
   -4.2802    2.3783   -2.3400 O   0  0  0  0  0  0  0  0  0  0  0  0
   -4.5392    3.7875   -0.4064 O   0  0  0  0  0  0  0  0  0  0  0  0
   -5.6036    1.3865   -0.2232 C   0  0  0  0  0  0  0  0  0  0  0  0
   -6.4961    1.9510    0.6969 C   0  0  0  0  0  0  0  0  0  0  0  0
   -7.5055    1.2170    1.2476 C   0  0  0  0  0  0  0  0  0  0  0  0
   -7.6783   -0.1044    0.9148 C   0  0  0  0  0  0  0  0  0  0  0  0
   -6.8137   -0.6801    0.0107 C   0  0  0  0  0  0  0  0  0  0  0  0
   -6.9539   -2.0050   -0.3746 C   0  0  0  0  0  0  0  0  0  0  0  0
   -6.0946   -2.5633   -1.2943 C   0  0  0  0  0  0  0  0  0  0  0  0
   -5.0721   -1.8350   -1.8628 C   0  0  0  0  0  0  0  0  0  0  0  0
   -4.9261   -0.5134   -1.4826 C   0  0  0  0  0  0  0  0  0  0  0  0
   -5.7711    0.0627   -0.5646 C   0  0  0  0  0  0  0  0  0  0  0  0
    0.5034    0.5547   -1.1684 C   0  0  0  0  0  0  0  0  0  0  0  0
    1.6790   -0.1926   -0.5412 C   0  0  0  0  0  0  0  0  0  0  0  0
    5.0542   -0.4770    2.1139 N   0  0  0  0  0  0  0  0  0  0  0  0
    6.1823    0.0544    1.6445 C   0  0  0  0  0  0  0  0  0  0  0  0
    7.0715    0.6639    2.5400 C   0  0  0  0  0  0  0  0  0  0  0  0
    8.2273    1.2030    2.0233 C   0  0  0  0  0  0  0  0  0  0  0  0
    8.5373    1.1649    0.6707 C   0  0  0  0  0  0  0  0  0  0  0  0
    7.6591    0.5654   -0.1982 C   0  0  0  0  0  0  0  0  0  0  0  0
    6.5044    0.0259    0.3129 C   0  0  0  0  0  0  0  0  0  0  0  0
   -0.6874    0.0000    0.0000 H   0  0  0  0  0  0  0  0  0  0  0  0
    5.4711    0.0443   -2.5956 H   0  0  0  0  0  0  0  0  0  0  0  0
    6.5261   -1.3729   -2.3248 H   0  0  0  0  0  0  0  0  0  0  0  0
    2.8009   -1.5950    2.8248 H   0  0  0  0  0  0  0  0  0  0  0  0
    2.4965   -2.8413    0.1192 H   0  0  0  0  0  0  0  0  0  0  0  0
    1.3886   -2.9916    1.4856 H   0  0  0  0  0  0  0  0  0  0  0  0
    0.2982   -1.7545   -0.2837 H   0  0  0  0  0  0  0  0  0  0  0  0
    0.1889   -1.2067    2.2956 H   0  0  0  0  0  0  0  0  0  0  0  0
    0.9973    0.3577    1.7351 H   0  0  0  0  0  0  0  0  0  0  0  0
   -1.4439    0.4771    1.6801 H   0  0  0  0  0  0  0  0  0  0  0  0
   -1.4185   -0.8161    0.3553 H   0  0  0  0  0  0  0  0  0  0  0  0
   -0.1994    2.0103    0.2999 H   0  0  0  0  0  0  0  0  0  0  0  0
   -2.0161    0.4124   -1.4541 H   0  0  0  0  0  0  0  0  0  0  0  0
   -1.4688    2.0407   -1.8442 H   0  0  0  0  0  0  0  0  0  0  0  0
   -2.8760    1.5509    0.7731 H   0  0  0  0  0  0  0  0  0  0  0  0
   -6.3409    2.9866    0.9422 H   0  0  0  0  0  0  0  0  0  0  0  0
   -8.1910    1.6969    1.9709 H   0  0  0  0  0  0  0  0  0  0  0  0
   -8.4605   -0.7202    1.3269 H   0  0  0  0  0  0  0  0  0  0  0  0
   -7.7685   -2.5670    0.0843 H   0  0  0  0  0  0  0  0  0  0  0  0
   -6.2030   -3.6014   -1.5966 H   0  0  0  0  0  0  0  0  0  0  0  0
   -4.3885   -2.2591   -2.5878 H   0  0  0  0  0  0  0  0  0  0  0  0
   -4.1702    0.1238   -1.9031 H   0  0  0  0  0  0  0  0  0  0  0  0
    0.0310   -0.0655   -1.9565 H   0  0  0  0  0  0  0  0  0  0  0  0
    0.9497    1.4465   -1.6702 H   0  0  0  0  0  0  0  0  0  0  0  0
    2.3235    0.5445   -0.0556 H   0  0  0  0  0  0  0  0  0  0  0  0
    2.2132   -0.6318   -1.4351 H   0  0  0  0  0  0  0  0  0  0  0  0
    6.8573    0.7103    3.6068 H   0  0  0  0  0  0  0  0  0  0  0  0
    8.9344    1.6803    2.6896 H   0  0  0  0  0  0  0  0  0  0  0  0
    9.4519    1.5966    0.2947 H   0  0  0  0  0  0  0  0  0  0  0  0
    7.8251    0.4925   -1.2740 H   0  0  0  0  0  0  0  0  0  0  0  0
  2  3  1  0
  3  4  2  0
  4  5  1  0
  5  6  1  0
  6  7  1  0
  7  8  1  0
  8  9  1  0
  9 10  1  0
 10 11  1  0
 11 12  1  0
 12 13  1  0
 13 14  1  0
 14 15  2  0
 14 16  2  0
 14 17  1  0
 17 18  2  0
 18 19  1  0
 19 20  2  0
 20 21  1  0
 21 22  2  0
 22 23  1  0
 23 24  2  0
 24 25  1  0
 25 26  2  0
 11 27  1  0
 27 28  1  0
  5 29  2  0
 29 30  1  0
 30 31  2  0
 31 32  1  0
 32 33  2  0
 33 34  1  0
 34 35  2  0
 35  3  1  0
 28  8  1  0
 35 30  1  0
 26 17  1  0
 26 21  1  0
  1 36  1  0
  2 37  1  0
  2 38  1  0
  6 39  1  0
  7 40  1  0
  7 41  1  0
  8 42  1  6
  9 43  1  0
  9 44  1  0
 10 45  1  0
 10 46  1  0
 11 47  1  1
 12 48  1  0
 12 49  1  0
 13 50  1  0
 18 51  1  0
 19 52  1  0
 20 53  1  0
 22 54  1  0
 23 55  1  0
 24 56  1  0
 25 57  1  0
 27 58  1  0
 27 59  1  0
 28 60  1  0
 28 61  1  0
 31 62  1  0
 32 63  1  0
 33 64  1  0
 34 65  1  0
M  END
$$$$
