
     RDKit          3D

 64 66  0  0  0  0  0  0  0  0999 V2000
    8.6665    2.5367   -0.6904 C   0  0  0  0  0  0  0  0  0  0  0  0
    8.5405    1.2409   -1.4778 C   0  0  0  0  0  0  0  0  0  0  0  0
    7.7615    0.1706   -0.7187 C   0  0  0  0  0  0  0  0  0  0  0  0
    6.2598    0.4216   -0.6691 C   0  0  0  0  0  0  0  0  0  0  0  0
    5.7202    1.2823   -1.3525 O   0  0  0  0  0  0  0  0  0  0  0  0
    5.6330   -0.4597    0.1987 N   0  0  0  0  0  0  0  0  0  0  0  0
    4.2594   -0.5363    0.5068 C   0  0  0  0  0  0  0  0  0  0  0  0
    3.8717   -1.5113    1.4328 C   0  0  0  0  0  0  0  0  0  0  0  0
    2.5339   -1.6486    1.8047 C   0  0  0  0  0  0  0  0  0  0  0  0
    1.5548   -0.8174    1.2449 C   0  0  0  0  0  0  0  0  0  0  0  0
    1.9252    0.1636    0.3167 C   0  0  0  0  0  0  0  0  0  0  0  0
    3.2803    0.2916   -0.0471 C   0  0  0  0  0  0  0  0  0  0  0  0
    0.9116    1.0856   -0.3196 C   0  0  0  0  0  0  0  0  0  0  0  0
   -0.4688    0.9088    0.1270 N   0  0  0  0  0  0  0  0  0  0  0  0
   -1.3796    1.8588   -0.3388 C   0  0  0  0  0  0  0  0  0  0  0  0
   -1.0646    2.9165   -0.8743 O   0  0  0  0  0  0  0  0  0  0  0  0
   -2.8176    1.5777   -0.1761 C   0  0  0  0  0  0  0  0  0  0  0  0
   -3.4697    1.9622    0.9895 C   0  0  0  0  0  0  0  0  0  0  0  0
   -4.8183    1.6301    1.1604 C   0  0  0  0  0  0  0  0  0  0  0  0
   -5.5480    0.9366    0.1746 C   0  0  0  0  0  0  0  0  0  0  0  0
   -6.8968    0.6034    0.3996 N   0  0  0  0  0  0  0  0  0  0  0  0
   -7.5573   -0.2975   -0.5445 C   0  0  0  0  0  0  0  0  0  0  0  0
   -7.7370    1.7258    0.8399 C   0  0  0  0  0  0  0  0  0  0  0  0
   -4.8521    0.5738   -0.9955 C   0  0  0  0  0  0  0  0  0  0  0  0
   -3.5028    0.8987   -1.1798 C   0  0  0  0  0  0  0  0  0  0  0  0
   -0.8692   -0.4234    0.6272 C   0  0  0  0  0  0  0  0  0  0  0  0
   -1.0696   -1.4582   -0.5142 C   0  0  0  0  0  0  0  0  0  0  0  0
   -0.6212   -1.2546   -1.6466 O   0  0  0  0  0  0  0  0  0  0  0  0
   -1.7572   -2.6432   -0.2136 N   0  0  0  0  0  0  0  0  0  0  0  0
   -2.7043   -2.7674    0.8866 C   0  0  0  0  0  0  0  0  0  0  0  0
   -1.9464   -3.5851   -1.3044 C   0  0  0  0  0  0  0  0  0  0  0  0
    0.1206   -0.9413    1.6782 C   0  0  0  0  0  0  0  0  0  0  0  0
    9.1813    2.3671    0.2618 H   0  0  0  0  0  0  0  0  0  0  0  0
    9.2475    3.2680   -1.2610 H   0  0  0  0  0  0  0  0  0  0  0  0
    7.6883    2.9768   -0.4779 H   0  0  0  0  0  0  0  0  0  0  0  0
    8.0715    1.4453   -2.4472 H   0  0  0  0  0  0  0  0  0  0  0  0
    9.5465    0.8601   -1.6864 H   0  0  0  0  0  0  0  0  0  0  0  0
    7.9085   -0.7926   -1.2268 H   0  0  0  0  0  0  0  0  0  0  0  0
    8.1522    0.0743    0.3018 H   0  0  0  0  0  0  0  0  0  0  0  0
    6.2272   -1.1241    0.6770 H   0  0  0  0  0  0  0  0  0  0  0  0
    4.6063   -2.1816    1.8753 H   0  0  0  0  0  0  0  0  0  0  0  0
    2.2596   -2.4104    2.5327 H   0  0  0  0  0  0  0  0  0  0  0  0
    3.5427    1.0549   -0.7760 H   0  0  0  0  0  0  0  0  0  0  0  0
    0.9263    0.9485   -1.4094 H   0  0  0  0  0  0  0  0  0  0  0  0
    1.2006    2.1241   -0.1089 H   0  0  0  0  0  0  0  0  0  0  0  0
   -2.9368    2.5052    1.7661 H   0  0  0  0  0  0  0  0  0  0  0  0
   -5.2927    1.9023    2.0989 H   0  0  0  0  0  0  0  0  0  0  0  0
   -6.9712   -1.2097   -0.7098 H   0  0  0  0  0  0  0  0  0  0  0  0
   -7.7435    0.1981   -1.5034 H   0  0  0  0  0  0  0  0  0  0  0  0
   -8.5198   -0.6220   -0.1368 H   0  0  0  0  0  0  0  0  0  0  0  0
   -7.4172    2.1274    1.8074 H   0  0  0  0  0  0  0  0  0  0  0  0
   -8.7738    1.3993    0.9786 H   0  0  0  0  0  0  0  0  0  0  0  0
   -7.7353    2.5315    0.0967 H   0  0  0  0  0  0  0  0  0  0  0  0
   -5.3496    0.0462   -1.8042 H   0  0  0  0  0  0  0  0  0  0  0  0
   -2.9905    0.6141   -2.0969 H   0  0  0  0  0  0  0  0  0  0  0  0
   -1.8353   -0.3025    1.1206 H   0  0  0  0  0  0  0  0  0  0  0  0
   -2.3963   -2.2044    1.7693 H   0  0  0  0  0  0  0  0  0  0  0  0
   -2.7892   -3.8241    1.1691 H   0  0  0  0  0  0  0  0  0  0  0  0
   -3.6809   -2.3987    0.5521 H   0  0  0  0  0  0  0  0  0  0  0  0
   -2.8673   -3.3253   -1.8338 H   0  0  0  0  0  0  0  0  0  0  0  0
   -1.1093   -3.5540   -2.0091 H   0  0  0  0  0  0  0  0  0  0  0  0
   -2.0228   -4.5984   -0.8998 H   0  0  0  0  0  0  0  0  0  0  0  0
   -0.0917   -1.9852    1.9312 H   0  0  0  0  0  0  0  0  0  0  0  0
    0.0062   -0.3510    2.5962 H   0  0  0  0  0  0  0  0  0  0  0  0
  1  2  1  0
  2  3  1  0
  3  4  1  0
  4  5  2  0
  4  6  1  0
  6  7  1  0
  7  8  2  0
  8  9  1  0
  9 10  2  0
 10 11  1  0
 11 12  2  0
 11 13  1  0
 13 14  1  0
 14 15  1  0
 15 16  2  0
 15 17  1  0
 17 18  2  0
 18 19  1  0
 19 20  2  0
 20 21  1  0
 21 22  1  0
 21 23  1  0
 20 24  1  0
 24 25  2  0
 14 26  1  0
 26 27  1  0
 27 28  2  0
 27 29  1  0
 29 30  1  0
 29 31  1  0
 26 32  1  0
 12  7  1  0
 25 17  1  0
 32 10  1  0
  1 33  1  0
  1 34  1  0
  1 35  1  0
  2 36  1  0
  2 37  1  0
  3 38  1  0
  3 39  1  0
  6 40  1  0
  8 41  1  0
  9 42  1  0
 12 43  1  0
 13 44  1  0
 13 45  1  0
 18 46  1  0
 19 47  1  0
 22 48  1  0
 22 49  1  0
 22 50  1  0
 23 51  1  0
 23 52  1  0
 23 53  1  0
 24 54  1  0
 25 55  1  0
 26 56  1  0
 30 57  1  0
 30 58  1  0
 30 59  1  0
 31 60  1  0
 31 61  1  0
 31 62  1  0
 32 63  1  0
 32 64  1  0
M  END
$$$$
