
     RDKit          3D

 57 60  0  0  0  0  0  0  0  0999 V2000
   -5.3327   -3.2371    2.9467 C   0  0  0  0  0  0  0  0  0  0  0  0
   -4.8306   -1.8602    3.3624 C   0  0  0  0  0  0  0  0  0  0  0  0
   -4.5787   -0.9900    2.2187 N   0  0  0  0  0  0  0  0  0  0  0  0
   -3.3491   -1.0855    1.6010 C   0  0  0  0  0  0  0  0  0  0  0  0
   -2.5140   -1.9499    1.8304 O   0  0  0  0  0  0  0  0  0  0  0  0
   -3.1007   -0.0593    0.5339 C   0  0  0  0  0  0  0  0  0  0  0  0
   -1.7510    0.2398    0.0701 C   0  0  0  0  0  0  0  0  0  0  0  0
   -1.5095    0.8975   -1.0809 N   0  0  0  0  0  0  0  0  0  0  0  0
   -0.1220    0.9890   -1.1310 O   0  0  0  0  0  0  0  0  0  0  0  0
    0.3528    0.3964    0.0036 C   0  0  0  0  0  0  0  0  0  0  0  0
    1.7860    0.3471    0.2393 C   0  0  0  0  0  0  0  0  0  0  0  0
    2.3030   -0.1393    1.2437 O   0  0  0  0  0  0  0  0  0  0  0  0
    2.5669    0.8978   -0.7696 N   0  0  0  0  0  0  0  0  0  0  0  0
    4.0184    0.8651   -0.7174 C   0  0  0  0  0  0  0  0  0  0  0  0
    4.5865   -0.4918   -1.1809 C   0  0  0  0  0  0  0  0  0  0  0  0
    6.0493   -0.6461   -1.1891 N   0  0  0  0  0  0  0  0  0  0  0  0
    6.7257    0.2936   -2.0879 C   0  0  0  0  0  0  0  0  0  0  0  0
    8.2157   -0.0365   -2.1961 C   0  0  0  0  0  0  0  0  0  0  0  0
    8.8793   -0.0601   -0.8231 C   0  0  0  0  0  0  0  0  0  0  0  0
    8.1110   -0.9728    0.1269 C   0  0  0  0  0  0  0  0  0  0  0  0
    6.6234   -0.6165    0.1619 C   0  0  0  0  0  0  0  0  0  0  0  0
   -0.6064   -0.0689    0.7753 N   0  0  0  0  0  0  0  0  0  0  0  0
   -4.0853    0.5983    0.0032 N   0  0  0  0  0  0  0  0  0  0  0  0
   -5.3721    0.4049    0.4649 N   0  0  0  0  0  0  0  0  0  0  0  0
   -6.3615    1.1098   -0.3218 C   0  0  0  0  0  0  0  0  0  0  0  0
   -7.7421    1.0173   -0.0901 C   0  0  0  0  0  0  0  0  0  0  0  0
   -8.6679    1.7136   -0.8809 C   0  0  0  0  0  0  0  0  0  0  0  0
   -8.2354    2.5180   -1.9283 C   0  0  0  0  0  0  0  0  0  0  0  0
   -6.8759    2.6247   -2.1886 C   0  0  0  0  0  0  0  0  0  0  0  0
   -5.9547    1.9282   -1.3972 C   0  0  0  0  0  0  0  0  0  0  0  0
   -5.6638   -0.3354    1.6328 C   0  0  0  0  0  0  0  0  0  0  0  0
   -6.7820   -0.4490    2.1384 O   0  0  0  0  0  0  0  0  0  0  0  0
   -6.2737   -3.1667    2.3919 H   0  0  0  0  0  0  0  0  0  0  0  0
   -4.6067   -3.7474    2.3057 H   0  0  0  0  0  0  0  0  0  0  0  0
   -5.5041   -3.8597    3.8302 H   0  0  0  0  0  0  0  0  0  0  0  0
   -5.5651   -1.3861    4.0233 H   0  0  0  0  0  0  0  0  0  0  0  0
   -3.9037   -1.9713    3.9375 H   0  0  0  0  0  0  0  0  0  0  0  0
    2.1178    1.2247   -1.6169 H   0  0  0  0  0  0  0  0  0  0  0  0
    4.3306    1.0880    0.3079 H   0  0  0  0  0  0  0  0  0  0  0  0
    4.3665    1.6755   -1.3651 H   0  0  0  0  0  0  0  0  0  0  0  0
    4.1552   -1.2935   -0.5670 H   0  0  0  0  0  0  0  0  0  0  0  0
    4.2150   -0.6951   -2.1945 H   0  0  0  0  0  0  0  0  0  0  0  0
    6.2879    0.2334   -3.0915 H   0  0  0  0  0  0  0  0  0  0  0  0
    6.6112    1.3280   -1.7411 H   0  0  0  0  0  0  0  0  0  0  0  0
    8.3419   -1.0135   -2.6798 H   0  0  0  0  0  0  0  0  0  0  0  0
    8.7132    0.7025   -2.8342 H   0  0  0  0  0  0  0  0  0  0  0  0
    9.9173   -0.3985   -0.9127 H   0  0  0  0  0  0  0  0  0  0  0  0
    8.9055    0.9566   -0.4121 H   0  0  0  0  0  0  0  0  0  0  0  0
    8.2314   -2.0159   -0.1922 H   0  0  0  0  0  0  0  0  0  0  0  0
    8.5337   -0.8965    1.1351 H   0  0  0  0  0  0  0  0  0  0  0  0
    6.1133   -1.3454    0.8031 H   0  0  0  0  0  0  0  0  0  0  0  0
    6.4992    0.3706    0.6238 H   0  0  0  0  0  0  0  0  0  0  0  0
   -8.1587    0.3989    0.6970 H   0  0  0  0  0  0  0  0  0  0  0  0
   -9.7309    1.6187   -0.6721 H   0  0  0  0  0  0  0  0  0  0  0  0
   -8.9550    3.0560   -2.5392 H   0  0  0  0  0  0  0  0  0  0  0  0
   -6.5235    3.2481   -3.0062 H   0  0  0  0  0  0  0  0  0  0  0  0
   -4.9010    2.0459   -1.6414 H   0  0  0  0  0  0  0  0  0  0  0  0
  1  2  1  0
  2  3  1  0
  3  4  1  0
  4  5  2  0
  4  6  1  0
  6  7  1  0
  7  8  2  0
  8  9  1  0
  9 10  1  0
 10 11  1  0
 11 12  2  0
 11 13  1  0
 13 14  1  0
 14 15  1  0
 15 16  1  0
 16 17  1  0
 17 18  1  0
 18 19  1  0
 19 20  1  0
 20 21  1  0
 10 22  2  0
  6 23  2  0
 23 24  1  0
 24 25  1  0
 25 26  2  0
 26 27  1  0
 27 28  2  0
 28 29  1  0
 29 30  2  0
 24 31  1  0
 31 32  2  0
 31  3  1  0
 22  7  1  0
 30 25  1  0
 21 16  1  0
  1 33  1  0
  1 34  1  0
  1 35  1  0
  2 36  1  0
  2 37  1  0
 13 38  1  0
 14 39  1  0
 14 40  1  0
 15 41  1  0
 15 42  1  0
 17 43  1  0
 17 44  1  0
 18 45  1  0
 18 46  1  0
 19 47  1  0
 19 48  1  0
 20 49  1  0
 20 50  1  0
 21 51  1  0
 21 52  1  0
 26 53  1  0
 27 54  1  0
 28 55  1  0
 29 56  1  0
 30 57  1  0
M  END
$$$$
