
     RDKit          3D

 57 61  0  0  0  0  0  0  0  0999 V2000
    7.7018    2.7518   -1.5566 C   0  0  0  0  0  0  0  0  0  0  0  0
    7.0244    2.2162   -0.5320 C   0  0  0  0  0  0  0  0  0  0  0  0
    5.5406    2.0847   -0.6030 C   0  0  0  0  0  0  0  0  0  0  0  0
    4.9049    2.7258   -1.4398 O   0  0  0  0  0  0  0  0  0  0  0  0
    4.9409    1.1977    0.2850 N   0  0  0  0  0  0  0  0  0  0  0  0
    5.6597    0.3948    1.2774 C   0  0  0  0  0  0  0  0  0  0  0  0
    4.7365   -0.4829    2.1202 C   0  0  0  0  0  0  0  0  0  0  0  0
    3.8053   -1.3445    1.2591 C   0  0  0  0  0  0  0  0  0  0  0  0
    3.2791   -0.5985    0.0169 C   0  0  0  0  0  0  0  0  0  0  0  0
    1.8938   -0.9151   -0.2852 N   0  0  0  0  0  0  0  0  0  0  0  0
    0.9071   -0.5313    0.5539 N   0  0  0  0  0  0  0  0  0  0  0  0
   -0.2184   -0.9091   -0.0773 C   0  0  0  0  0  0  0  0  0  0  0  0
   -1.5262   -0.6153    0.4874 C   0  0  0  0  0  0  0  0  0  0  0  0
   -1.9581   -1.2697    1.6466 C   0  0  0  0  0  0  0  0  0  0  0  0
   -3.2292   -1.0066    2.1626 C   0  0  0  0  0  0  0  0  0  0  0  0
   -4.0744   -0.0882    1.5280 C   0  0  0  0  0  0  0  0  0  0  0  0
   -5.2917    0.1149    2.1397 O   0  0  0  0  0  0  0  0  0  0  0  0
   -6.3072    0.6559    1.3915 C   0  0  0  0  0  0  0  0  0  0  0  0
   -6.9259   -0.0830    0.3798 C   0  0  0  0  0  0  0  0  0  0  0  0
   -7.9804    0.4827   -0.3365 C   0  0  0  0  0  0  0  0  0  0  0  0
   -8.4220    1.7721   -0.0273 C   0  0  0  0  0  0  0  0  0  0  0  0
   -7.8146    2.4959    1.0018 C   0  0  0  0  0  0  0  0  0  0  0  0
   -6.7586    1.9342    1.7188 C   0  0  0  0  0  0  0  0  0  0  0  0
   -3.6336    0.5847    0.3835 C   0  0  0  0  0  0  0  0  0  0  0  0
   -2.3658    0.3155   -0.1394 C   0  0  0  0  0  0  0  0  0  0  0  0
    0.0624   -1.6001   -1.2876 C   0  0  0  0  0  0  0  0  0  0  0  0
   -0.6396   -2.2389   -2.3155 C   0  0  0  0  0  0  0  0  0  0  0  0
   -2.0200   -2.3589   -2.3707 N   0  0  0  0  0  0  0  0  0  0  0  0
    0.0619   -2.8029   -3.3227 N   0  0  0  0  0  0  0  0  0  0  0  0
    1.4059   -2.7143   -3.3033 C   0  0  0  0  0  0  0  0  0  0  0  0
    2.1806   -2.1287   -2.3761 N   0  0  0  0  0  0  0  0  0  0  0  0
    1.4411   -1.5898   -1.3882 C   0  0  0  0  0  0  0  0  0  0  0  0
    3.5062    0.9132    0.1259 C   0  0  0  0  0  0  0  0  0  0  0  0
    8.7815    2.8549   -1.5229 H   0  0  0  0  0  0  0  0  0  0  0  0
    7.1914    3.1020   -2.4510 H   0  0  0  0  0  0  0  0  0  0  0  0
    7.5551    1.8854    0.3480 H   0  0  0  0  0  0  0  0  0  0  0  0
    6.3856   -0.2322    0.7384 H   0  0  0  0  0  0  0  0  0  0  0  0
    6.2174    1.0737    1.9367 H   0  0  0  0  0  0  0  0  0  0  0  0
    4.1260    0.1590    2.7733 H   0  0  0  0  0  0  0  0  0  0  0  0
    5.3300   -1.1246    2.7791 H   0  0  0  0  0  0  0  0  0  0  0  0
    2.9878   -1.7177    1.8901 H   0  0  0  0  0  0  0  0  0  0  0  0
    4.3554   -2.2353    0.9198 H   0  0  0  0  0  0  0  0  0  0  0  0
    3.8709   -0.9502   -0.8391 H   0  0  0  0  0  0  0  0  0  0  0  0
   -1.3096   -1.9842    2.1501 H   0  0  0  0  0  0  0  0  0  0  0  0
   -3.5604   -1.5153    3.0663 H   0  0  0  0  0  0  0  0  0  0  0  0
   -6.5917   -1.0896    0.1524 H   0  0  0  0  0  0  0  0  0  0  0  0
   -8.4634   -0.0825   -1.1303 H   0  0  0  0  0  0  0  0  0  0  0  0
   -9.2488    2.2076   -0.5828 H   0  0  0  0  0  0  0  0  0  0  0  0
   -8.1716    3.4922    1.2495 H   0  0  0  0  0  0  0  0  0  0  0  0
   -6.2854    2.4911    2.5260 H   0  0  0  0  0  0  0  0  0  0  0  0
   -4.2524    1.3318   -0.1104 H   0  0  0  0  0  0  0  0  0  0  0  0
   -2.0339    0.8446   -1.0314 H   0  0  0  0  0  0  0  0  0  0  0  0
   -2.2928   -3.0972   -3.0114 H   0  0  0  0  0  0  0  0  0  0  0  0
   -2.4948   -2.3501   -1.4785 H   0  0  0  0  0  0  0  0  0  0  0  0
    1.9260   -3.1830   -4.1346 H   0  0  0  0  0  0  0  0  0  0  0  0
    3.1001    1.4197   -0.7554 H   0  0  0  0  0  0  0  0  0  0  0  0
    2.9907    1.3377    0.9935 H   0  0  0  0  0  0  0  0  0  0  0  0
  1  2  2  3
  2  3  1  0
  3  4  2  0
  3  5  1  0
  5  6  1  0
  6  7  1  0
  7  8  1  0
  8  9  1  0
  9 10  1  0
 10 11  1  0
 11 12  2  0
 12 13  1  0
 13 14  2  0
 14 15  1  0
 15 16  2  0
 16 17  1  0
 17 18  1  0
 18 19  2  0
 19 20  1  0
 20 21  2  0
 21 22  1  0
 22 23  2  0
 16 24  1  0
 24 25  2  0
 12 26  1  0
 26 27  2  0
 27 28  1  0
 27 29  1  0
 29 30  2  0
 30 31  1  0
 31 32  2  0
  9 33  1  0
 33  5  1  0
 32 10  1  0
 25 13  1  0
 32 26  1  0
 23 18  1  0
  1 34  1  0
  1 35  1  0
  2 36  1  0
  6 37  1  0
  6 38  1  0
  7 39  1  0
  7 40  1  0
  8 41  1  0
  8 42  1  0
  9 43  1  0
 14 44  1  0
 15 45  1  0
 19 46  1  0
 20 47  1  0
 21 48  1  0
 22 49  1  0
 23 50  1  0
 24 51  1  0
 25 52  1  0
 28 53  1  0
 28 54  1  0
 30 55  1  0
 33 56  1  0
 33 57  1  0
M  END
$$$$
