
     RDKit          3D

 29 29  0  0  0  0  0  0  0  0999 V2000
   -5.2301   -1.0522   -0.7586 C   0  0  0  0  0  0  0  0  0  0  0  0
   -4.0687   -0.0833   -0.6014 C   0  0  0  0  0  0  0  0  0  0  0  0
   -2.8372   -0.7417   -0.9949 N   0  0  0  0  0  0  0  0  0  0  0  0
   -1.6841    0.0183   -0.8346 C   0  0  0  0  0  0  0  0  0  0  0  0
   -1.7217    1.3368   -0.9867 N   0  0  0  0  0  0  0  0  0  0  0  0
   -0.5668    1.9666   -0.8441 C   0  0  0  0  0  0  0  0  0  0  0  0
   -0.5660    3.3394   -0.9970 N   0  0  0  0  0  0  0  0  0  0  0  0
    0.5743    1.3950   -0.5239 N   0  0  0  0  0  0  0  0  0  0  0  0
    0.5009    0.0739   -0.3801 C   0  0  0  0  0  0  0  0  0  0  0  0
    1.6474   -0.6561   -0.0572 O   0  0  0  0  0  0  0  0  0  0  0  0
    2.7261    0.1893    0.2723 N   0  0  0  0  0  0  0  0  0  0  0  0
    3.8057   -0.4963    0.4914 C   0  0  0  0  0  0  0  0  0  0  0  0
    3.8864   -2.0002    0.4023 C   0  0  0  0  0  0  0  0  0  0  0  0
    5.0633    0.2480    0.8564 C   0  0  0  0  0  0  0  0  0  0  0  0
   -0.5961   -0.6653   -0.5238 N   0  0  0  0  0  0  0  0  0  0  0  0
   -5.0929   -1.9365   -0.1271 H   0  0  0  0  0  0  0  0  0  0  0  0
   -6.1702   -0.5704   -0.4729 H   0  0  0  0  0  0  0  0  0  0  0  0
   -5.3199   -1.3922   -1.7959 H   0  0  0  0  0  0  0  0  0  0  0  0
   -4.0150    0.2449    0.4438 H   0  0  0  0  0  0  0  0  0  0  0  0
   -4.2596    0.7946   -1.2300 H   0  0  0  0  0  0  0  0  0  0  0  0
   -2.6546   -1.6369   -0.5539 H   0  0  0  0  0  0  0  0  0  0  0  0
   -1.4845    3.7183   -0.8188 H   0  0  0  0  0  0  0  0  0  0  0  0
    0.2161    3.7424   -0.4992 H   0  0  0  0  0  0  0  0  0  0  0  0
    3.6309   -2.3229   -0.6107 H   0  0  0  0  0  0  0  0  0  0  0  0
    3.1921   -2.4493    1.1177 H   0  0  0  0  0  0  0  0  0  0  0  0
    4.8986   -2.3419    0.6344 H   0  0  0  0  0  0  0  0  0  0  0  0
    4.8806    1.3255    0.8900 H   0  0  0  0  0  0  0  0  0  0  0  0
    5.4094   -0.0871    1.8379 H   0  0  0  0  0  0  0  0  0  0  0  0
    5.8356    0.0392    0.1112 H   0  0  0  0  0  0  0  0  0  0  0  0
  1  2  1  0
  2  3  1  0
  3  4  1  0
  4  5  2  0
  5  6  1  0
  6  7  1  0
  6  8  2  0
  8  9  1  0
  9 10  1  0
 10 11  1  0
 11 12  2  3
 12 13  1  0
 12 14  1  0
  9 15  2  0
 15  4  1  0
  1 16  1  0
  1 17  1  0
  1 18  1  0
  2 19  1  0
  2 20  1  0
  3 21  1  0
  7 22  1  0
  7 23  1  0
 13 24  1  0
 13 25  1  0
 13 26  1  0
 14 27  1  0
 14 28  1  0
 14 29  1  0
M  END
$$$$
