
     RDKit          3D

 47 48  0  0  0  0  0  0  0  0999 V2000
    6.5474    0.2079   -2.1460 N   0  0  0  0  0  0  0  0  0  0  0  0
    6.9417   -0.1865   -0.8368 C   0  0  0  0  0  0  0  0  0  0  0  0
    8.2989   -0.2510   -0.5063 C   0  0  0  0  0  0  0  0  0  0  0  0
    8.6889   -0.4830    0.8130 C   0  0  0  0  0  0  0  0  0  0  0  0
    7.7259   -0.6135    1.8123 C   0  0  0  0  0  0  0  0  0  0  0  0
    6.3680   -0.5048    1.5013 C   0  0  0  0  0  0  0  0  0  0  0  0
    5.9703   -0.2779    0.1842 C   0  0  0  0  0  0  0  0  0  0  0  0
    4.6288   -0.1516   -0.2308 N   0  0  0  0  0  0  0  0  0  0  0  0
    3.4854   -0.1845    0.5416 C   0  0  0  0  0  0  0  0  0  0  0  0
    3.4349   -0.2956    1.7609 O   0  0  0  0  0  0  0  0  0  0  0  0
    2.2361   -0.0555   -0.3172 C   0  0  0  0  0  0  0  0  0  0  0  0
    0.9508   -0.0866    0.5082 C   0  0  0  0  0  0  0  0  0  0  0  0
   -0.2857    0.0378   -0.3832 C   0  0  0  0  0  0  0  0  0  0  0  0
   -1.5734    0.0113    0.4414 C   0  0  0  0  0  0  0  0  0  0  0  0
   -2.8073    0.1303   -0.4517 C   0  0  0  0  0  0  0  0  0  0  0  0
   -4.1075    0.1113    0.3404 C   0  0  0  0  0  0  0  0  0  0  0  0
   -4.1270    0.0179    1.5615 O   0  0  0  0  0  0  0  0  0  0  0  0
   -5.2063    0.2127   -0.4992 N   0  0  0  0  0  0  0  0  0  0  0  0
   -6.5690    0.2298   -0.1359 C   0  0  0  0  0  0  0  0  0  0  0  0
   -7.0294    0.1439    1.1789 C   0  0  0  0  0  0  0  0  0  0  0  0
   -8.4010    0.1682    1.4533 C   0  0  0  0  0  0  0  0  0  0  0  0
   -9.3235    0.2785    0.4159 C   0  0  0  0  0  0  0  0  0  0  0  0
   -8.8757    0.3649   -0.8990 C   0  0  0  0  0  0  0  0  0  0  0  0
   -7.5054    0.3406   -1.1730 C   0  0  0  0  0  0  0  0  0  0  0  0
    6.4469    1.2237   -2.1600 H   0  0  0  0  0  0  0  0  0  0  0  0
    7.2582   -0.0522   -2.8277 H   0  0  0  0  0  0  0  0  0  0  0  0
    9.0627   -0.1229   -1.2677 H   0  0  0  0  0  0  0  0  0  0  0  0
    9.7440   -0.5508    1.0654 H   0  0  0  0  0  0  0  0  0  0  0  0
    8.0286   -0.7910    2.8414 H   0  0  0  0  0  0  0  0  0  0  0  0
    5.6458   -0.6012    2.3056 H   0  0  0  0  0  0  0  0  0  0  0  0
    4.5384   -0.0529   -1.2383 H   0  0  0  0  0  0  0  0  0  0  0  0
    2.2319   -0.8795   -1.0407 H   0  0  0  0  0  0  0  0  0  0  0  0
    2.2976    0.8885   -0.8718 H   0  0  0  0  0  0  0  0  0  0  0  0
    0.9627    0.7307    1.2400 H   0  0  0  0  0  0  0  0  0  0  0  0
    0.9015   -1.0218    1.0796 H   0  0  0  0  0  0  0  0  0  0  0  0
   -0.2981   -0.7837   -1.1098 H   0  0  0  0  0  0  0  0  0  0  0  0
   -0.2345    0.9732   -0.9536 H   0  0  0  0  0  0  0  0  0  0  0  0
   -1.5632    0.8328    1.1685 H   0  0  0  0  0  0  0  0  0  0  0  0
   -1.6241   -0.9206    1.0181 H   0  0  0  0  0  0  0  0  0  0  0  0
   -2.8289   -0.7018   -1.1656 H   0  0  0  0  0  0  0  0  0  0  0  0
   -2.7657    1.0685   -1.0178 H   0  0  0  0  0  0  0  0  0  0  0  0
   -5.0143    0.2823   -1.4901 H   0  0  0  0  0  0  0  0  0  0  0  0
   -6.3474    0.0567    2.0188 H   0  0  0  0  0  0  0  0  0  0  0  0
   -8.7438    0.1003    2.4828 H   0  0  0  0  0  0  0  0  0  0  0  0
  -10.3880    0.2969    0.6339 H   0  0  0  0  0  0  0  0  0  0  0  0
   -9.5918    0.4510   -1.7119 H   0  0  0  0  0  0  0  0  0  0  0  0
   -7.1842    0.4096   -2.2087 H   0  0  0  0  0  0  0  0  0  0  0  0
  1  2  1  0
  2  3  2  0
  3  4  1  0
  4  5  2  0
  5  6  1  0
  6  7  2  0
  7  8  1  0
  8  9  1  0
  9 10  2  0
  9 11  1  0
 11 12  1  0
 12 13  1  0
 13 14  1  0
 14 15  1  0
 15 16  1  0
 16 17  2  0
 16 18  1  0
 18 19  1  0
 19 20  2  0
 20 21  1  0
 21 22  2  0
 22 23  1  0
 23 24  2  0
  7  2  1  0
 24 19  1  0
  1 25  1  0
  1 26  1  0
  3 27  1  0
  4 28  1  0
  5 29  1  0
  6 30  1  0
  8 31  1  0
 11 32  1  0
 11 33  1  0
 12 34  1  0
 12 35  1  0
 13 36  1  0
 13 37  1  0
 14 38  1  0
 14 39  1  0
 15 40  1  0
 15 41  1  0
 18 42  1  0
 20 43  1  0
 21 44  1  0
 22 45  1  0
 23 46  1  0
 24 47  1  0
M  END
$$$$
