
     RDKit          3D

 57 60  0  0  0  0  0  0  0  0999 V2000
    7.0520   -1.9882    0.5006 C   0  0  0  0  0  0  0  0  0  0  0  0
    6.3305   -1.1880   -0.5615 C   0  0  0  0  0  0  0  0  0  0  0  0
    6.8088   -1.0803   -1.6922 O   0  0  0  0  0  0  0  0  0  0  0  0
    5.1196   -0.6121   -0.1953 N   0  0  0  0  0  0  0  0  0  0  0  0
    4.6294   -0.5928    1.1837 C   0  0  0  0  0  0  0  0  0  0  0  0
    3.2327    0.0155    1.3164 C   0  0  0  0  0  0  0  0  0  0  0  0
    2.3354   -0.4778    0.1690 C   0  0  0  0  0  0  0  0  0  0  0  0
    0.9289   -0.1227    0.3944 N   0  0  0  0  0  0  0  0  0  0  0  0
   -0.0241   -0.7409   -0.5339 C   0  0  0  0  0  0  0  0  0  0  0  0
   -1.2721    0.1707   -0.5066 C   0  0  1  0  0  0  0  0  0  0  0  0
   -2.4991   -0.5447   -0.1853 N   0  0  0  0  0  0  0  0  0  0  0  0
   -3.2327   -1.1836   -1.1610 C   0  0  0  0  0  0  0  0  0  0  0  0
   -2.9974   -1.0624   -2.3561 O   0  0  0  0  0  0  0  0  0  0  0  0
   -4.3631   -2.0268   -0.6888 C   0  0  0  0  0  0  0  0  0  0  0  0
   -4.2951   -2.7331    0.5216 C   0  0  0  0  0  0  0  0  0  0  0  0
   -5.3698   -3.5237    0.9303 C   0  0  0  0  0  0  0  0  0  0  0  0
   -6.5096   -3.6167    0.1312 C   0  0  0  0  0  0  0  0  0  0  0  0
   -6.5746   -2.9290   -1.0820 C   0  0  0  0  0  0  0  0  0  0  0  0
   -5.5009   -2.1391   -1.4963 C   0  0  0  0  0  0  0  0  0  0  0  0
   -0.9307    1.2534    0.5233 C   0  0  2  0  0  0  0  0  0  0  0  0
   -1.5568    2.5873    0.3081 C   0  0  0  0  0  0  0  0  0  0  0  0
   -1.6574    3.5500    1.2037 N   0  0  0  0  0  0  0  0  0  0  0  0
   -2.2969    4.5557    0.5250 C   0  0  0  0  0  0  0  0  0  0  0  0
   -2.6202    5.8527    1.1518 C   0  0  0  0  0  0  0  0  0  0  0  0
   -2.5843    4.2746   -0.7523 N   0  0  0  0  0  0  0  0  0  0  0  0
   -2.1294    3.0167   -0.8584 N   0  0  0  0  0  0  0  0  0  0  0  0
    0.5927    1.3009    0.4602 C   0  0  0  0  0  0  0  0  0  0  0  0
    2.9202   -0.0689   -1.2039 C   0  0  0  0  0  0  0  0  0  0  0  0
    4.4202    0.2361   -1.1537 C   0  0  0  0  0  0  0  0  0  0  0  0
    6.4470   -2.8524    0.8033 H   0  0  0  0  0  0  0  0  0  0  0  0
    7.2837   -1.3558    1.3658 H   0  0  0  0  0  0  0  0  0  0  0  0
    7.9981   -2.3565    0.0890 H   0  0  0  0  0  0  0  0  0  0  0  0
    4.6215   -1.6247    1.5597 H   0  0  0  0  0  0  0  0  0  0  0  0
    5.3424   -0.0235    1.7948 H   0  0  0  0  0  0  0  0  0  0  0  0
    2.8144   -0.2576    2.2949 H   0  0  0  0  0  0  0  0  0  0  0  0
    3.3098    1.1118    1.2957 H   0  0  0  0  0  0  0  0  0  0  0  0
    2.3752   -1.5783    0.2124 H   0  0  0  0  0  0  0  0  0  0  0  0
   -0.2470   -1.7663   -0.2227 H   0  0  0  0  0  0  0  0  0  0  0  0
    0.3599   -0.7730   -1.5596 H   0  0  0  0  0  0  0  0  0  0  0  0
   -1.3766    0.5985   -1.5125 H   0  0  0  0  0  0  0  0  0  0  0  0
   -2.7576   -0.6505    0.7864 H   0  0  0  0  0  0  0  0  0  0  0  0
   -3.4025   -2.7055    1.1415 H   0  0  0  0  0  0  0  0  0  0  0  0
   -5.3153   -4.0786    1.8652 H   0  0  0  0  0  0  0  0  0  0  0  0
   -7.3442   -4.2355    0.4498 H   0  0  0  0  0  0  0  0  0  0  0  0
   -7.4624   -3.0122   -1.7068 H   0  0  0  0  0  0  0  0  0  0  0  0
   -5.5535   -1.6099   -2.4463 H   0  0  0  0  0  0  0  0  0  0  0  0
   -1.2282    0.9085    1.5241 H   0  0  0  0  0  0  0  0  0  0  0  0
   -3.6467    6.1540    0.9227 H   0  0  0  0  0  0  0  0  0  0  0  0
   -2.5208    5.7939    2.2393 H   0  0  0  0  0  0  0  0  0  0  0  0
   -1.9411    6.6281    0.7930 H   0  0  0  0  0  0  0  0  0  0  0  0
   -2.2374    2.5346   -1.7436 H   0  0  0  0  0  0  0  0  0  0  0  0
    0.9311    1.8510   -0.4237 H   0  0  0  0  0  0  0  0  0  0  0  0
    1.0058    1.7847    1.3496 H   0  0  0  0  0  0  0  0  0  0  0  0
    2.7418   -0.8920   -1.9127 H   0  0  0  0  0  0  0  0  0  0  0  0
    2.4162    0.8068   -1.6329 H   0  0  0  0  0  0  0  0  0  0  0  0
    4.5874    1.2763   -0.8407 H   0  0  0  0  0  0  0  0  0  0  0  0
    4.8426    0.1415   -2.1610 H   0  0  0  0  0  0  0  0  0  0  0  0
  1  2  1  0
  2  3  2  0
  2  4  1  0
  4  5  1  0
  5  6  1  0
  6  7  1  0
  7  8  1  0
  8  9  1  0
  9 10  1  0
 10 11  1  0
 11 12  1  0
 12 13  2  0
 12 14  1  0
 14 15  2  0
 15 16  1  0
 16 17  2  0
 17 18  1  0
 18 19  2  0
 10 20  1  0
 20 21  1  0
 21 22  2  0
 22 23  1  0
 23 24  1  0
 23 25  2  0
 25 26  1  0
 20 27  1  0
  7 28  1  0
 28 29  1  0
 29  4  1  0
 27  8  1  0
 19 14  1  0
 26 21  1  0
  1 30  1  0
  1 31  1  0
  1 32  1  0
  5 33  1  0
  5 34  1  0
  6 35  1  0
  6 36  1  0
  7 37  1  0
  9 38  1  0
  9 39  1  0
 10 40  1  6
 11 41  1  0
 15 42  1  0
 16 43  1  0
 17 44  1  0
 18 45  1  0
 19 46  1  0
 20 47  1  1
 24 48  1  0
 24 49  1  0
 24 50  1  0
 26 51  1  0
 27 52  1  0
 27 53  1  0
 28 54  1  0
 28 55  1  0
 29 56  1  0
 29 57  1  0
M  END
$$$$
