
     RDKit          3D

151156  0  0  0  0  0  0  0  0999 V2000
    0.0988    2.3588    2.4930 C   0  0  0  0  0  0  0  0  0  0  0  0
   -0.2801    2.1348    1.0287 C   0  0  0  0  0  0  0  0  0  0  0  0
    0.7181    2.7518    0.0560 C   0  0  0  0  0  0  0  0  0  0  0  0
   -0.6144    0.6851    0.7230 C   0  0  0  0  0  0  0  0  0  0  0  0
   -1.8619    0.1665    0.3569 C   0  0  0  0  0  0  0  0  0  0  0  0
   -3.0781    0.9344    0.0756 C   0  0  0  0  0  0  0  0  0  0  0  0
   -4.1371    0.6888    0.6429 O   0  0  0  0  0  0  0  0  0  0  0  0
   -2.8761    1.8760   -0.9157 N   0  0  0  0  0  0  0  0  0  0  0  0
   -3.8009    2.8010   -1.4341 C   0  0  0  0  0  0  0  0  0  0  0  0
   -3.3724    3.6043   -2.4983 C   0  0  0  0  0  0  0  0  0  0  0  0
   -4.2294    4.5496   -3.0688 C   0  0  0  0  0  0  0  0  0  0  0  0
   -5.5217    4.7051   -2.5743 C   0  0  0  0  0  0  0  0  0  0  0  0
   -5.9548    3.9145   -1.5131 C   0  0  0  0  0  0  0  0  0  0  0  0
   -5.0983    2.9657   -0.9445 C   0  0  0  0  0  0  0  0  0  0  0  0
   -1.7525   -1.2534    0.3473 C   0  0  0  0  0  0  0  0  0  0  0  0
   -2.7752   -2.2350    0.0202 C   0  0  0  0  0  0  0  0  0  0  0  0
   -3.2676   -3.1041    0.9999 C   0  0  0  0  0  0  0  0  0  0  0  0
   -4.2503   -4.0412    0.6755 C   0  0  0  0  0  0  0  0  0  0  0  0
   -4.7465   -4.1124   -0.6262 C   0  0  0  0  0  0  0  0  0  0  0  0
   -4.2635   -3.2446   -1.6055 C   0  0  0  0  0  0  0  0  0  0  0  0
   -3.2801   -2.3071   -1.2842 C   0  0  0  0  0  0  0  0  0  0  0  0
   -0.4422   -1.5849    0.6578 C   0  0  0  0  0  0  0  0  0  0  0  0
    0.1683   -2.9134    0.7710 C   0  0  0  0  0  0  0  0  0  0  0  0
    0.4678   -3.6567   -0.3782 C   0  0  0  0  0  0  0  0  0  0  0  0
    1.0460   -4.9225   -0.2660 C   0  0  0  0  0  0  0  0  0  0  0  0
    1.3144   -5.4435    0.9943 C   0  0  0  0  0  0  0  0  0  0  0  0
    1.8632   -6.6614    1.1031 F   0  0  0  0  0  0  0  0  0  0  0  0
    1.0153   -4.7228    2.1453 C   0  0  0  0  0  0  0  0  0  0  0  0
    0.4390   -3.4573    2.0344 C   0  0  0  0  0  0  0  0  0  0  0  0
    0.2633   -0.3907    0.7889 N   0  0  0  0  0  0  0  0  0  0  0  0
    1.7169   -0.3420    0.9511 C   0  0  0  0  0  0  0  0  0  0  0  0
    2.4667   -0.4932   -0.3731 C   0  0  0  0  0  0  0  0  0  0  0  0
    3.9296   -0.9037   -0.1823 C   0  0  0  0  0  0  0  0  0  0  0  0
    4.5322   -1.0885   -1.4578 O   0  0  0  0  0  0  0  0  0  0  0  0
    4.7930   -0.0180    0.7355 C   0  0  0  0  0  0  0  0  0  0  0  0
    4.7156    1.5059    0.5220 C   0  0  0  0  0  0  0  0  0  0  0  0
    4.5660    2.1015    1.8306 O   0  0  0  0  0  0  0  0  0  0  0  0
    5.9472    2.1248   -0.1241 C   0  0  0  0  0  0  0  0  0  0  0  0
    6.0785    1.8528   -1.6147 C   0  0  0  0  0  0  0  0  0  0  0  0
    7.1893    2.1837   -2.1158 O   0  0  0  0  0  0  0  0  0  0  0  0
    5.0798    1.3089   -2.1662 O   0  0  0  0  0  1  0  0  0  0  0  0
   -0.0895    2.8532   -1.8345 C   0  0  0  0  0  0  0  0  0  0  0  0
   -0.9347    1.6254   -2.1546 C   0  0  0  0  0  0  0  0  0  0  0  0
   -0.7038    1.0936   -3.5715 C   0  0  0  0  0  0  0  0  0  0  0  0
   -0.8607    0.5287   -1.1031 C   0  0  0  0  0  0  0  0  0  0  0  0
   -1.9216    0.0308   -0.3400 C   0  0  0  0  0  0  0  0  0  0  0  0
   -3.2873    0.5596   -0.3075 C   0  0  0  0  0  0  0  0  0  0  0  0
   -4.2538   -0.1357   -0.5912 O   0  0  0  0  0  0  0  0  0  0  0  0
   -3.3097    1.8811    0.0991 N   0  0  0  0  0  0  0  0  0  0  0  0
   -4.4184    2.7392    0.1998 C   0  0  0  0  0  0  0  0  0  0  0  0
   -4.1799    4.0375    0.6710 C   0  0  0  0  0  0  0  0  0  0  0  0
   -5.2252    4.9560    0.7908 C   0  0  0  0  0  0  0  0  0  0  0  0
   -6.5193    4.5879    0.4318 C   0  0  0  0  0  0  0  0  0  0  0  0
   -6.7660    3.3015   -0.0420 C   0  0  0  0  0  0  0  0  0  0  0  0
   -5.7196    2.3796   -0.1559 C   0  0  0  0  0  0  0  0  0  0  0  0
   -1.4480   -1.1132    0.3577 C   0  0  0  0  0  0  0  0  0  0  0  0
   -2.1904   -1.9828    1.2551 C   0  0  0  0  0  0  0  0  0  0  0  0
   -2.5275   -1.5346    2.5371 C   0  0  0  0  0  0  0  0  0  0  0  0
   -3.2465   -2.3600    3.4025 C   0  0  0  0  0  0  0  0  0  0  0  0
   -3.6359   -3.6338    2.9864 C   0  0  0  0  0  0  0  0  0  0  0  0
   -3.3064   -4.0825    1.7068 C   0  0  0  0  0  0  0  0  0  0  0  0
   -2.5852   -3.2594    0.8418 C   0  0  0  0  0  0  0  0  0  0  0  0
   -0.1087   -1.2923    0.0387 C   0  0  0  0  0  0  0  0  0  0  0  0
    0.7894   -2.3760    0.4583 C   0  0  0  0  0  0  0  0  0  0  0  0
    1.1321   -2.5338    1.8082 C   0  0  0  0  0  0  0  0  0  0  0  0
    1.9543   -3.5880    2.2097 C   0  0  0  0  0  0  0  0  0  0  0  0
    2.4211   -4.4907    1.2618 C   0  0  0  0  0  0  0  0  0  0  0  0
    3.1963   -5.5116    1.6496 F   0  0  0  0  0  0  0  0  0  0  0  0
    2.0841   -4.3581   -0.0798 C   0  0  0  0  0  0  0  0  0  0  0  0
    1.2632   -3.3024   -0.4819 C   0  0  0  0  0  0  0  0  0  0  0  0
    0.2667   -0.2105   -0.7531 N   0  0  0  0  0  0  0  0  0  0  0  0
    1.6467    0.1002   -1.1282 C   0  0  0  0  0  0  0  0  0  0  0  0
    2.3382    1.0588   -0.1549 C   0  0  0  0  0  0  0  0  0  0  0  0
    3.1632    0.4085    0.9574 C   0  0  0  0  0  0  0  0  0  0  0  0
    3.7415    1.4555    1.7460 O   0  0  0  0  0  0  0  0  0  0  0  0
    4.2390   -0.6200    0.5686 C   0  0  0  0  0  0  0  0  0  0  0  0
    5.4882   -0.1118   -0.1628 C   0  0  0  0  0  0  0  0  0  0  0  0
    6.4557   -1.1803   -0.0996 O   0  0  0  0  0  0  0  0  0  0  0  0
    5.2694    0.2128   -1.6357 C   0  0  0  0  0  0  0  0  0  0  0  0
    6.4308    1.1434   -1.9445 C   0  0  0  0  0  0  0  0  0  0  0  0
    6.1518    2.3766   -1.9566 O   0  0  0  0  0  0  0  0  0  0  0  0
    7.5444    0.5601   -2.0795 O   0  0  0  0  0  1  0  0  0  0  0  0
    0.0000    0.0000    0.0000 Ca  0  0  0  0  0 15  0  0  0  0  0  0
    1.0472    1.8905    2.7696 H   0  0  0  0  0  0  0  0  0  0  0  0
    0.1925    3.4310    2.6997 H   0  0  0  0  0  0  0  0  0  0  0  0
   -0.6733    1.9565    3.1592 H   0  0  0  0  0  0  0  0  0  0  0  0
   -1.2047    2.7114    0.8961 H   0  0  0  0  0  0  0  0  0  0  0  0
    1.7395    2.4303    0.2589 H   0  0  0  0  0  0  0  0  0  0  0  0
    0.4779    2.4981   -0.9825 H   0  0  0  0  0  0  0  0  0  0  0  0
    0.7091    3.8450    0.1440 H   0  0  0  0  0  0  0  0  0  0  0  0
   -1.9529    1.8716   -1.3322 H   0  0  0  0  0  0  0  0  0  0  0  0
   -2.3679    3.5025   -2.9017 H   0  0  0  0  0  0  0  0  0  0  0  0
   -3.8853    5.1617   -3.8975 H   0  0  0  0  0  0  0  0  0  0  0  0
   -6.1884    5.4413   -3.0136 H   0  0  0  0  0  0  0  0  0  0  0  0
   -6.9613    4.0326   -1.1198 H   0  0  0  0  0  0  0  0  0  0  0  0
   -5.4744    2.3743   -0.1153 H   0  0  0  0  0  0  0  0  0  0  0  0
   -2.8913   -3.0480    2.0177 H   0  0  0  0  0  0  0  0  0  0  0  0
   -4.6292   -4.7125    1.4410 H   0  0  0  0  0  0  0  0  0  0  0  0
   -5.5129   -4.8410   -0.8758 H   0  0  0  0  0  0  0  0  0  0  0  0
   -4.6518   -3.2959   -2.6182 H   0  0  0  0  0  0  0  0  0  0  0  0
   -2.9074   -1.6371   -2.0551 H   0  0  0  0  0  0  0  0  0  0  0  0
    0.2568   -3.2484   -1.3638 H   0  0  0  0  0  0  0  0  0  0  0  0
    1.2880   -5.4990   -1.1525 H   0  0  0  0  0  0  0  0  0  0  0  0
    1.2311   -5.1516    3.1191 H   0  0  0  0  0  0  0  0  0  0  0  0
    0.1983   -2.8942    2.9329 H   0  0  0  0  0  0  0  0  0  0  0  0
    1.9898    0.5906    1.4409 H   0  0  0  0  0  0  0  0  0  0  0  0
    1.9921   -1.1355    1.6533 H   0  0  0  0  0  0  0  0  0  0  0  0
    2.3902    0.4253   -0.9660 H   0  0  0  0  0  0  0  0  0  0  0  0
    1.9889   -1.2495   -1.0074 H   0  0  0  0  0  0  0  0  0  0  0  0
    3.9276   -1.9046    0.2689 H   0  0  0  0  0  0  0  0  0  0  0  0
    4.6821   -0.1883   -1.8586 H   0  0  0  0  0  0  0  0  0  0  0  0
    4.4961   -0.2418    1.7695 H   0  0  0  0  0  0  0  0  0  0  0  0
    5.8375   -0.3446    0.6508 H   0  0  0  0  0  0  0  0  0  0  0  0
    3.8215    1.7914   -0.0314 H   0  0  0  0  0  0  0  0  0  0  0  0
    5.4554    2.1134    2.2256 H   0  0  0  0  0  0  0  0  0  0  0  0
    5.9151    3.2151    0.0052 H   0  0  0  0  0  0  0  0  0  0  0  0
    6.8581    1.7920    0.3901 H   0  0  0  0  0  0  0  0  0  0  0  0
   -0.2272    3.1674   -0.7939 H   0  0  0  0  0  0  0  0  0  0  0  0
   -0.3868    3.6905   -2.4764 H   0  0  0  0  0  0  0  0  0  0  0  0
    0.9769    2.6870   -2.0057 H   0  0  0  0  0  0  0  0  0  0  0  0
   -1.9708    1.9880   -2.1652 H   0  0  0  0  0  0  0  0  0  0  0  0
   -1.3901    0.2670   -3.7909 H   0  0  0  0  0  0  0  0  0  0  0  0
    0.3119    0.7238   -3.7301 H   0  0  0  0  0  0  0  0  0  0  0  0
   -0.8842    1.8814   -4.3111 H   0  0  0  0  0  0  0  0  0  0  0  0
   -2.4094    2.2666    0.3576 H   0  0  0  0  0  0  0  0  0  0  0  0
   -3.1778    4.3474    0.9564 H   0  0  0  0  0  0  0  0  0  0  0  0
   -5.0266    5.9590    1.1591 H   0  0  0  0  0  0  0  0  0  0  0  0
   -7.3338    5.3019    0.5199 H   0  0  0  0  0  0  0  0  0  0  0  0
   -7.7723    3.0091   -0.3288 H   0  0  0  0  0  0  0  0  0  0  0  0
   -5.9549    1.3894   -0.5333 H   0  0  0  0  0  0  0  0  0  0  0  0
   -2.2276   -0.5428    2.8678 H   0  0  0  0  0  0  0  0  0  0  0  0
   -3.5034   -2.0102    4.3982 H   0  0  0  0  0  0  0  0  0  0  0  0
   -4.1998   -4.2756    3.6577 H   0  0  0  0  0  0  0  0  0  0  0  0
   -3.6156   -5.0722    1.3799 H   0  0  0  0  0  0  0  0  0  0  0  0
   -2.3379   -3.6117   -0.1566 H   0  0  0  0  0  0  0  0  0  0  0  0
    0.7620   -1.8334    2.5543 H   0  0  0  0  0  0  0  0  0  0  0  0
    2.2280   -3.7115    3.2520 H   0  0  0  0  0  0  0  0  0  0  0  0
    2.4573   -5.0753   -0.8011 H   0  0  0  0  0  0  0  0  0  0  0  0
    0.9874   -3.2088   -1.5294 H   0  0  0  0  0  0  0  0  0  0  0  0
    1.6190    0.5574   -2.1173 H   0  0  0  0  0  0  0  0  0  0  0  0
    2.1921   -0.8335   -1.2713 H   0  0  0  0  0  0  0  0  0  0  0  0
    1.5980    1.7201    0.3163 H   0  0  0  0  0  0  0  0  0  0  0  0
    2.9767    1.7507   -0.7132 H   0  0  0  0  0  0  0  0  0  0  0  0
    2.4626   -0.0950    1.6293 H   0  0  0  0  0  0  0  0  0  0  0  0
    4.3324    1.9742    1.1660 H   0  0  0  0  0  0  0  0  0  0  0  0
    4.5903   -1.0714    1.5085 H   0  0  0  0  0  0  0  0  0  0  0  0
    3.8038   -1.4551    0.0098 H   0  0  0  0  0  0  0  0  0  0  0  0
    5.9210    0.7264    0.3960 H   0  0  0  0  0  0  0  0  0  0  0  0
    7.1958   -0.8763   -0.6794 H   0  0  0  0  0  0  0  0  0  0  0  0
    4.3379    0.7300   -1.8545 H   0  0  0  0  0  0  0  0  0  0  0  0
    5.3271   -0.6769   -2.2713 H   0  0  0  0  0  0  0  0  0  0  0  0
  1  2  1  0
  2  3  1  0
  2  4  1  0
  4  5  2  0
  5  6  1  0
  6  7  2  0
  6  8  1  0
  8  9  1  0
  9 10  2  0
 10 11  1  0
 11 12  2  0
 12 13  1  0
 13 14  2  0
  5 15  1  0
 15 16  1  0
 16 17  2  0
 17 18  1  0
 18 19  2  0
 19 20  1  0
 20 21  2  0
 15 22  2  0
 22 23  1  0
 23 24  2  0
 24 25  1  0
 25 26  2  0
 26 27  1  0
 26 28  1  0
 28 29  2  0
 22 30  1  0
 30 31  1  0
 31 32  1  0
 32 33  1  0
 33 34  1  0
 33 35  1  0
 35 36  1  0
 36 37  1  0
 36 38  1  0
 38 39  1  0
 39 40  2  0
 39 41  1  0
 42 43  1  0
 43 44  1  0
 43 45  1  0
 45 46  2  0
 46 47  1  0
 47 48  2  0
 47 49  1  0
 49 50  1  0
 50 51  2  0
 51 52  1  0
 52 53  2  0
 53 54  1  0
 54 55  2  0
 46 56  1  0
 56 57  1  0
 57 58  2  0
 58 59  1  0
 59 60  2  0
 60 61  1  0
 61 62  2  0
 56 63  2  0
 63 64  1  0
 64 65  2  0
 65 66  1  0
 66 67  2  0
 67 68  1  0
 67 69  1  0
 69 70  2  0
 63 71  1  0
 71 72  1  0
 72 73  1  0
 73 74  1  0
 74 75  1  0
 74 76  1  0
 76 77  1  0
 77 78  1  0
 77 79  1  0
 79 80  1  0
 80 81  2  0
 80 82  1  0
 30  4  1  0
 71 45  1  0
 14  9  1  0
 21 16  1  0
 29 23  1  0
 55 50  1  0
 62 57  1  0
 70 64  1  0
  1 84  1  0
  1 85  1  0
  1 86  1  0
  2 87  1  0
  3 88  1  0
  3 89  1  0
  3 90  1  0
  8 91  1  0
 10 92  1  0
 11 93  1  0
 12 94  1  0
 13 95  1  0
 14 96  1  0
 17 97  1  0
 18 98  1  0
 19 99  1  0
 20100  1  0
 21101  1  0
 24102  1  0
 25103  1  0
 28104  1  0
 29105  1  0
 31106  1  0
 31107  1  0
 32108  1  0
 32109  1  0
 33110  1  0
 34111  1  0
 35112  1  0
 35113  1  0
 36114  1  0
 37115  1  0
 38116  1  0
 38117  1  0
 42118  1  0
 42119  1  0
 42120  1  0
 43121  1  0
 44122  1  0
 44123  1  0
 44124  1  0
 49125  1  0
 51126  1  0
 52127  1  0
 53128  1  0
 54129  1  0
 55130  1  0
 58131  1  0
 59132  1  0
 60133  1  0
 61134  1  0
 62135  1  0
 65136  1  0
 66137  1  0
 69138  1  0
 70139  1  0
 72140  1  0
 72141  1  0
 73142  1  0
 73143  1  0
 74144  1  0
 75145  1  0
 76146  1  0
 76147  1  0
 77148  1  0
 78149  1  0
 79150  1  0
 79151  1  0
M  CHG  3  41  -1  82  -1  83   2
M  END
$$$$
