
     RDKit          3D

 33 33  0  0  0  0  0  0  0  0999 V2000
    3.2184   -1.5549    0.1580 C   0  0  0  0  0  0  0  0  0  0  0  0
    2.7091   -0.2440   -0.2156 N   0  0  0  0  0  0  0  0  0  0  0  0
    3.4423    0.9063    0.2911 C   0  0  0  0  0  0  0  0  0  0  0  0
    1.3153   -0.1224   -0.1184 C   0  0  0  0  0  0  0  0  0  0  0  0
    0.5753   -1.2236   -0.1533 N   0  0  0  0  0  0  0  0  0  0  0  0
   -0.7416   -1.0783   -0.0745 C   0  0  0  0  0  0  0  0  0  0  0  0
   -1.5453   -2.2260   -0.0798 N   0  0  0  0  0  0  0  0  0  0  0  0
   -0.9169   -3.3949   -0.6753 C   0  0  0  0  0  0  0  0  0  0  0  0
   -2.9382   -1.9856   -0.4208 C   0  0  0  0  0  0  0  0  0  0  0  0
   -1.3243    0.1096    0.0321 N   0  0  0  0  0  0  0  0  0  0  0  0
   -0.5364    1.1777    0.0475 C   0  0  0  0  0  0  0  0  0  0  0  0
   -1.1203    2.4452    0.1728 N   0  0  0  0  0  0  0  0  0  0  0  0
   -2.5304    2.4971   -0.1783 C   0  0  0  0  0  0  0  0  0  0  0  0
   -0.2861    3.5387   -0.3003 C   0  0  0  0  0  0  0  0  0  0  0  0
    0.7859    1.0912   -0.0281 N   0  0  0  0  0  0  0  0  0  0  0  0
    2.9910   -1.7913    1.2041 H   0  0  0  0  0  0  0  0  0  0  0  0
    4.3075   -1.5865    0.0387 H   0  0  0  0  0  0  0  0  0  0  0  0
    2.8159   -2.3445   -0.4871 H   0  0  0  0  0  0  0  0  0  0  0  0
    3.2510    1.0664    1.3586 H   0  0  0  0  0  0  0  0  0  0  0  0
    4.5204    0.7540    0.1653 H   0  0  0  0  0  0  0  0  0  0  0  0
    3.1948    1.8198   -0.2619 H   0  0  0  0  0  0  0  0  0  0  0  0
   -1.5911   -4.2573   -0.6217 H   0  0  0  0  0  0  0  0  0  0  0  0
   -0.6756   -3.2259   -1.7313 H   0  0  0  0  0  0  0  0  0  0  0  0
   -0.0060   -3.6832   -0.1380 H   0  0  0  0  0  0  0  0  0  0  0  0
   -3.4152   -1.2974    0.2868 H   0  0  0  0  0  0  0  0  0  0  0  0
   -3.0393   -1.5865   -1.4368 H   0  0  0  0  0  0  0  0  0  0  0  0
   -3.5081   -2.9204   -0.3719 H   0  0  0  0  0  0  0  0  0  0  0  0
   -3.1302    1.8344    0.4562 H   0  0  0  0  0  0  0  0  0  0  0  0
   -2.6917    2.2338   -1.2302 H   0  0  0  0  0  0  0  0  0  0  0  0
   -2.9232    3.5086   -0.0242 H   0  0  0  0  0  0  0  0  0  0  0  0
   -0.7946    4.4977   -0.1483 H   0  0  0  0  0  0  0  0  0  0  0  0
    0.6565    3.5993    0.2558 H   0  0  0  0  0  0  0  0  0  0  0  0
   -0.0689    3.4431   -1.3706 H   0  0  0  0  0  0  0  0  0  0  0  0
  1  2  1  0
  2  3  1  0
  2  4  1  0
  4  5  2  0
  5  6  1  0
  6  7  1  0
  7  8  1  0
  7  9  1  0
  6 10  2  0
 10 11  1  0
 11 12  1  0
 12 13  1  0
 12 14  1  0
 11 15  2  0
 15  4  1  0
  1 16  1  0
  1 17  1  0
  1 18  1  0
  3 19  1  0
  3 20  1  0
  3 21  1  0
  8 22  1  0
  8 23  1  0
  8 24  1  0
  9 25  1  0
  9 26  1  0
  9 27  1  0
 13 28  1  0
 13 29  1  0
 13 30  1  0
 14 31  1  0
 14 32  1  0
 14 33  1  0
M  END
$$$$
