
     RDKit          3D

 33 31  0  0  0  0  0  0  0  0999 V2000
   -2.0702   -1.2313   -0.6471 N   0  0  0  0  0  0  0  0  0  0  0  0
   -1.8104    0.1984   -0.8518 C   0  0  0  0  0  0  0  0  0  0  0  0
   -0.9917    0.8416    0.2765 C   0  0  0  0  0  0  0  0  0  0  0  0
    0.4095    0.3372    0.3435 C   0  0  0  0  0  0  0  0  0  0  0  0
    1.5814    0.9702   -0.0123 C   0  0  0  0  0  0  0  0  0  0  0  0
    2.5728    0.0643    0.2448 N   0  0  0  0  0  0  0  0  0  0  0  0
    1.9825   -1.0632    0.7389 C   0  0  0  0  0  0  0  0  0  0  0  0
    0.6784   -0.9307    0.8108 N   0  0  0  0  0  0  0  0  0  0  0  0
    0.4577   -0.0946    1.7413 O   0  0  0  0  0  0  0  0  0  0  0  0
    0.0447   -0.0924    0.3158 P   0  0  0  0  0  5  0  0  0  0  0  0
   -1.1833   -1.0164   -0.0814 O   0  0  0  0  0  0  0  0  0  0  0  0
   -0.3762    1.3315   -0.2486 O   0  0  0  0  0  0  0  0  0  0  0  0
    1.1785   -0.5781   -0.6870 O   0  0  0  0  0  0  0  0  0  0  0  0
    0.0481   -0.7954    1.5591 O   0  0  0  0  0  0  0  0  0  0  0  0
    0.0033   -0.1024    0.2457 P   0  0  0  0  0  5  0  0  0  0  0  0
   -0.2862    1.4567    0.2869 O   0  0  0  0  0  0  0  0  0  0  0  0
    1.3603   -0.2170   -0.5711 O   0  0  0  0  0  0  0  0  0  0  0  0
   -1.1147   -0.6725   -0.7272 O   0  0  0  0  0  0  0  0  0  0  0  0
   -2.5596   -1.3532    0.2398 H   0  0  0  0  0  0  0  0  0  0  0  0
   -1.1605   -1.6791   -0.4744 H   0  0  0  0  0  0  0  0  0  0  0  0
   -2.7751    0.7112   -0.9319 H   0  0  0  0  0  0  0  0  0  0  0  0
   -1.2968    0.3256   -1.8116 H   0  0  0  0  0  0  0  0  0  0  0  0
   -0.9770    1.9278    0.1230 H   0  0  0  0  0  0  0  0  0  0  0  0
   -1.4835    0.6703    1.2420 H   0  0  0  0  0  0  0  0  0  0  0  0
    1.7875    1.9522   -0.4139 H   0  0  0  0  0  0  0  0  0  0  0  0
    3.5638    0.1979    0.0980 H   0  0  0  0  0  0  0  0  0  0  0  0
    2.5487   -1.9393    1.0257 H   0  0  0  0  0  0  0  0  0  0  0  0
   -1.2521   -1.0937   -1.0497 H   0  0  0  0  0  0  0  0  0  0  0  0
   -0.9233    1.8104    0.4018 H   0  0  0  0  0  0  0  0  0  0  0  0
    2.0539   -0.2666   -0.3920 H   0  0  0  0  0  0  0  0  0  0  0  0
   -0.2978    1.8282   -0.6135 H   0  0  0  0  0  0  0  0  0  0  0  0
    2.1061   -0.3876    0.0339 H   0  0  0  0  0  0  0  0  0  0  0  0
   -1.8191   -1.1100   -0.2137 H   0  0  0  0  0  0  0  0  0  0  0  0
  1  2  1  0
  2  3  1  0
  3  4  1  0
  4  5  2  0
  5  6  1  0
  6  7  1  0
  7  8  2  0
  9 10  2  0
 10 11  1  0
 10 12  1  0
 10 13  1  0
 14 15  2  0
 15 16  1  0
 15 17  1  0
 15 18  1  0
  8  4  1  0
  1 19  1  0
  1 20  1  0
  2 21  1  0
  2 22  1  0
  3 23  1  0
  3 24  1  0
  5 25  1  0
  6 26  1  0
  7 27  1  0
 11 28  1  0
 12 29  1  0
 13 30  1  0
 16 31  1  0
 17 32  1  0
 18 33  1  0
M  END
$$$$
