
     RDKit          3D

 69 72  0  0  0  0  0  0  0  0999 V2000
   -4.8913    4.9375    0.6763 C   0  0  0  0  0  0  0  0  0  0  0  0
   -3.4884    4.8124    0.1088 C   0  0  0  0  0  0  0  0  0  0  0  0
   -3.2398    3.4287   -0.1392 O   0  0  0  0  0  0  0  0  0  0  0  0
   -2.0087    3.0882   -0.6489 C   0  0  0  0  0  0  0  0  0  0  0  0
   -0.9950    3.9932   -0.9706 C   0  0  0  0  0  0  0  0  0  0  0  0
    0.2249    3.5740   -1.4844 C   0  0  0  0  0  0  0  0  0  0  0  0
    1.1454    4.5107   -1.7579 N   0  0  0  0  0  0  0  0  0  0  0  0
    2.3419    4.1120   -2.2455 C   0  0  0  0  0  0  0  0  0  0  0  0
    2.6818    2.7942   -2.4859 C   0  0  0  0  0  0  0  0  0  0  0  0
    3.9747    2.4975   -3.0196 C   0  0  0  0  0  0  0  0  0  0  0  0
    5.0346    2.3160   -3.4579 N   0  0  0  0  0  0  0  0  0  0  0  0
    1.7211    1.8094   -2.2171 C   0  0  0  0  0  0  0  0  0  0  0  0
    2.0446    0.4347   -2.4094 N   0  0  0  0  0  0  0  0  0  0  0  0
    2.6528   -0.4049   -1.4371 C   0  0  0  0  0  0  0  0  0  0  0  0
    3.2653    0.0887   -0.2801 C   0  0  0  0  0  0  0  0  0  0  0  0
    3.8990   -0.7706    0.6294 C   0  0  0  0  0  0  0  0  0  0  0  0
    3.9501   -2.1451    0.3907 C   0  0  0  0  0  0  0  0  0  0  0  0
    4.5420   -3.0648    1.2151 O   0  0  0  0  0  0  0  0  0  0  0  0
    5.0068   -2.6485    2.5019 C   0  0  0  0  0  0  0  0  0  0  0  0
    6.3956   -2.0493    2.4571 C   0  0  0  0  0  0  0  0  0  0  0  0
    7.4154   -2.6848    1.7489 C   0  0  0  0  0  0  0  0  0  0  0  0
    8.6844   -2.1121    1.7351 C   0  0  0  0  0  0  0  0  0  0  0  0
    8.9052   -0.9300    2.4313 C   0  0  0  0  0  0  0  0  0  0  0  0
    7.8418   -0.3657    3.1154 C   0  0  0  0  0  0  0  0  0  0  0  0
    6.5984   -0.8958    3.1464 N   0  0  0  0  0  0  0  0  0  0  0  0
    3.3760   -2.6365   -0.7911 C   0  0  0  0  0  0  0  0  0  0  0  0
    3.4311   -4.3221   -1.1839 Cl  0  0  0  0  0  0  0  0  0  0  0  0
    2.7423   -1.7770   -1.6961 C   0  0  0  0  0  0  0  0  0  0  0  0
    0.4547    2.1970   -1.6914 C   0  0  0  0  0  0  0  0  0  0  0  0
   -0.5738    1.2833   -1.3600 C   0  0  0  0  0  0  0  0  0  0  0  0
   -1.7975    1.7156   -0.8485 C   0  0  0  0  0  0  0  0  0  0  0  0
   -2.8546    0.8433   -0.5077 N   0  0  0  0  0  0  0  0  0  0  0  0
   -2.8929   -0.5257   -0.6179 C   0  0  0  0  0  0  0  0  0  0  0  0
   -2.0052   -1.2635   -1.0290 O   0  0  0  0  0  0  0  0  0  0  0  0
   -4.1541   -1.1352   -0.1231 C   0  0  0  0  0  0  0  0  0  0  0  0
   -5.3803   -0.6258   -0.3362 C   0  0  0  0  0  0  0  0  0  0  0  0
   -6.6871   -1.2342    0.1078 C   0  0  0  0  0  0  0  0  0  0  0  0
   -6.5911   -2.6022    0.6321 N   0  0  0  0  0  0  0  0  0  0  0  0
   -6.5049   -3.5857   -0.4546 C   0  0  0  0  0  0  0  0  0  0  0  0
   -7.7473   -2.9117    1.4763 C   0  0  0  0  0  0  0  0  0  0  0  0
   -5.6292    4.5365   -0.0262 H   0  0  0  0  0  0  0  0  0  0  0  0
   -4.9869    4.3588    1.6006 H   0  0  0  0  0  0  0  0  0  0  0  0
   -5.1342    5.9828    0.8864 H   0  0  0  0  0  0  0  0  0  0  0  0
   -3.4282    5.3827   -0.8253 H   0  0  0  0  0  0  0  0  0  0  0  0
   -2.7699    5.2042    0.8380 H   0  0  0  0  0  0  0  0  0  0  0  0
   -1.1248    5.0613   -0.8266 H   0  0  0  0  0  0  0  0  0  0  0  0
    3.0410    4.9227   -2.4430 H   0  0  0  0  0  0  0  0  0  0  0  0
    1.2682   -0.0674   -2.8431 H   0  0  0  0  0  0  0  0  0  0  0  0
    3.2574    1.1513   -0.0518 H   0  0  0  0  0  0  0  0  0  0  0  0
    4.3544   -0.3197    1.5068 H   0  0  0  0  0  0  0  0  0  0  0  0
    4.2857   -1.9873    2.9987 H   0  0  0  0  0  0  0  0  0  0  0  0
    5.0603   -3.5506    3.1234 H   0  0  0  0  0  0  0  0  0  0  0  0
    7.2225   -3.6062    1.2075 H   0  0  0  0  0  0  0  0  0  0  0  0
    9.4916   -2.5839    1.1796 H   0  0  0  0  0  0  0  0  0  0  0  0
    9.8809   -0.4588    2.4375 H   0  0  0  0  0  0  0  0  0  0  0  0
    7.9649    0.5579    3.6741 H   0  0  0  0  0  0  0  0  0  0  0  0
    2.3176   -2.1863   -2.6095 H   0  0  0  0  0  0  0  0  0  0  0  0
   -0.3952    0.2226   -1.4941 H   0  0  0  0  0  0  0  0  0  0  0  0
   -3.6530    1.3122   -0.0946 H   0  0  0  0  0  0  0  0  0  0  0  0
   -4.0145   -2.0879    0.3800 H   0  0  0  0  0  0  0  0  0  0  0  0
   -5.4909    0.3036   -0.8900 H   0  0  0  0  0  0  0  0  0  0  0  0
   -7.0722   -0.5625    0.8876 H   0  0  0  0  0  0  0  0  0  0  0  0
   -7.4061   -1.1870   -0.7210 H   0  0  0  0  0  0  0  0  0  0  0  0
   -5.6406   -3.3983   -1.0999 H   0  0  0  0  0  0  0  0  0  0  0  0
   -7.4046   -3.5916   -1.0829 H   0  0  0  0  0  0  0  0  0  0  0  0
   -6.3682   -4.5930   -0.0434 H   0  0  0  0  0  0  0  0  0  0  0  0
   -8.6941   -2.8302    0.9311 H   0  0  0  0  0  0  0  0  0  0  0  0
   -7.7834   -2.2370    2.3387 H   0  0  0  0  0  0  0  0  0  0  0  0
   -7.6665   -3.9273    1.8819 H   0  0  0  0  0  0  0  0  0  0  0  0
  1  2  1  0
  2  3  1  0
  3  4  1  0
  4  5  2  0
  5  6  1  0
  6  7  2  0
  7  8  1  0
  8  9  2  0
  9 10  1  0
 10 11  3  0
  9 12  1  0
 12 13  1  0
 13 14  1  0
 14 15  2  0
 15 16  1  0
 16 17  2  0
 17 18  1  0
 18 19  1  0
 19 20  1  0
 20 21  2  0
 21 22  1  0
 22 23  2  0
 23 24  1  0
 24 25  2  0
 17 26  1  0
 26 27  1  0
 26 28  2  0
 12 29  2  0
 29 30  1  0
 30 31  2  0
 31 32  1  0
 32 33  1  0
 33 34  2  0
 33 35  1  0
 35 36  2  0
 36 37  1  0
 37 38  1  0
 38 39  1  0
 38 40  1  0
 31  4  1  0
 29  6  1  0
 28 14  1  0
 25 20  1  0
  1 41  1  0
  1 42  1  0
  1 43  1  0
  2 44  1  0
  2 45  1  0
  5 46  1  0
  8 47  1  0
 13 48  1  0
 15 49  1  0
 16 50  1  0
 19 51  1  0
 19 52  1  0
 21 53  1  0
 22 54  1  0
 23 55  1  0
 24 56  1  0
 28 57  1  0
 30 58  1  0
 32 59  1  0
 35 60  1  0
 36 61  1  0
 37 62  1  0
 37 63  1  0
 39 64  1  0
 39 65  1  0
 39 66  1  0
 40 67  1  0
 40 68  1  0
 40 69  1  0
M  END
$$$$
