
     RDKit          3D

 43 43  0  0  0  0  0  0  0  0999 V2000
   -6.3910   -1.9210   -0.3196 C   0  0  0  0  0  0  0  0  0  0  0  0
   -5.4726   -0.7487   -0.5075 C   0  0  0  0  0  0  0  0  0  0  0  0
   -5.9755    0.5584   -0.4480 C   0  0  0  0  0  0  0  0  0  0  0  0
   -5.1300    1.6639   -0.6074 C   0  0  0  0  0  0  0  0  0  0  0  0
   -5.6882    3.0566   -0.6015 C   0  0  0  0  0  0  0  0  0  0  0  0
   -3.7651    1.4503   -0.8328 C   0  0  0  0  0  0  0  0  0  0  0  0
   -3.2419    0.1510   -0.8582 C   0  0  0  0  0  0  0  0  0  0  0  0
   -1.7785   -0.0084   -1.0798 C   0  0  0  0  0  0  0  0  0  0  0  0
   -1.1872    0.7915   -1.7983 O   0  0  0  0  0  0  0  0  0  0  0  0
   -1.1809   -1.0574   -0.4101 N   0  0  0  0  0  0  0  0  0  0  0  0
    0.0993   -1.4203   -0.8945 O   0  0  0  0  0  0  0  0  0  0  0  0
    1.0893   -0.8304   -0.0470 C   0  0  0  0  0  0  0  0  0  0  0  0
    2.4632   -1.2543   -0.5539 C   0  0  0  0  0  0  0  0  0  0  0  0
    3.5853   -0.7064    0.3266 C   0  0  0  0  0  0  0  0  0  0  0  0
    4.9600   -1.1329   -0.1982 C   0  0  0  0  0  0  0  0  0  0  0  0
    6.1028   -0.6551    0.6968 C   0  0  0  0  0  0  0  0  0  0  0  0
    6.3826    0.8298    0.5837 C   0  0  0  0  0  0  0  0  0  0  0  0
    5.8495    1.5864   -0.2231 O   0  0  0  0  0  0  0  0  0  0  0  0
    7.3367    1.2726    1.4745 N   0  0  0  0  0  0  0  0  0  0  0  0
    7.5302    2.6760    1.4862 O   0  0  0  0  0  0  0  0  0  0  0  0
   -4.0986   -0.9468   -0.7023 C   0  0  0  0  0  0  0  0  0  0  0  0
   -7.3969   -1.6927   -0.6873 H   0  0  0  0  0  0  0  0  0  0  0  0
   -6.0319   -2.7920   -0.8778 H   0  0  0  0  0  0  0  0  0  0  0  0
   -6.4522   -2.1810    0.7416 H   0  0  0  0  0  0  0  0  0  0  0  0
   -7.0411    0.7178   -0.2881 H   0  0  0  0  0  0  0  0  0  0  0  0
   -5.9813    3.3463   -1.6152 H   0  0  0  0  0  0  0  0  0  0  0  0
   -4.9483    3.7724   -0.2282 H   0  0  0  0  0  0  0  0  0  0  0  0
   -6.5634    3.1237    0.0533 H   0  0  0  0  0  0  0  0  0  0  0  0
   -3.0988    2.2988   -0.9842 H   0  0  0  0  0  0  0  0  0  0  0  0
   -1.7217   -1.8208   -0.0281 H   0  0  0  0  0  0  0  0  0  0  0  0
    0.9398   -1.1800    0.9815 H   0  0  0  0  0  0  0  0  0  0  0  0
    0.9973    0.2617   -0.0714 H   0  0  0  0  0  0  0  0  0  0  0  0
    2.5889   -0.9108   -1.5883 H   0  0  0  0  0  0  0  0  0  0  0  0
    2.5132   -2.3497   -0.5931 H   0  0  0  0  0  0  0  0  0  0  0  0
    3.4552   -1.0721    1.3524 H   0  0  0  0  0  0  0  0  0  0  0  0
    3.5180    0.3867    0.3638 H   0  0  0  0  0  0  0  0  0  0  0  0
    5.0986   -0.7634   -1.2214 H   0  0  0  0  0  0  0  0  0  0  0  0
    4.9953   -2.2283   -0.2469 H   0  0  0  0  0  0  0  0  0  0  0  0
    7.0213   -1.1782    0.4044 H   0  0  0  0  0  0  0  0  0  0  0  0
    5.8946   -0.9031    1.7439 H   0  0  0  0  0  0  0  0  0  0  0  0
    7.5065    0.7960    2.3537 H   0  0  0  0  0  0  0  0  0  0  0  0
    6.9372    2.9764    0.7613 H   0  0  0  0  0  0  0  0  0  0  0  0
   -3.7196   -1.9624   -0.7699 H   0  0  0  0  0  0  0  0  0  0  0  0
  1  2  1  0
  2  3  2  0
  3  4  1  0
  4  5  1  0
  4  6  2  0
  6  7  1  0
  7  8  1  0
  8  9  2  0
  8 10  1  0
 10 11  1  0
 11 12  1  0
 12 13  1  0
 13 14  1  0
 14 15  1  0
 15 16  1  0
 16 17  1  0
 17 18  2  0
 17 19  1  0
 19 20  1  0
  7 21  2  0
 21  2  1  0
  1 22  1  0
  1 23  1  0
  1 24  1  0
  3 25  1  0
  5 26  1  0
  5 27  1  0
  5 28  1  0
  6 29  1  0
 10 30  1  0
 12 31  1  0
 12 32  1  0
 13 33  1  0
 13 34  1  0
 14 35  1  0
 14 36  1  0
 15 37  1  0
 15 38  1  0
 16 39  1  0
 16 40  1  0
 19 41  1  0
 20 42  1  0
 21 43  1  0
M  END
$$$$
