
     RDKit          3D

 64 67  0  0  0  0  0  0  0  0999 V2000
   -4.2328   -3.1341   -1.6429 O   0  0  0  0  0  0  0  0  0  0  0  0
   -4.9766   -2.1635   -1.7662 C   0  0  0  0  0  0  0  0  0  0  0  0
   -6.3071   -2.3394   -2.4921 C   0  0  0  0  0  0  0  0  0  0  0  0
   -7.3855   -1.3290   -2.1703 C   0  0  0  0  0  0  0  0  0  0  0  0
   -7.7695   -0.3726   -3.1221 C   0  0  0  0  0  0  0  0  0  0  0  0
   -8.7352    0.5874   -2.8118 C   0  0  0  0  0  0  0  0  0  0  0  0
   -9.3312    0.5977   -1.5513 C   0  0  0  0  0  0  0  0  0  0  0  0
   -8.9760   -0.3696   -0.6139 C   0  0  0  0  0  0  0  0  0  0  0  0
   -9.5154   -0.3408    0.6407 O   0  0  0  0  0  0  0  0  0  0  0  0
  -10.7680   -1.0195    0.6704 C   0  0  0  0  0  0  0  0  0  0  0  0
  -10.6403   -2.3011    0.2661 F   0  0  0  0  0  0  0  0  0  0  0  0
  -11.2248   -1.0231    1.9424 F   0  0  0  0  0  0  0  0  0  0  0  0
  -11.6821   -0.3921   -0.1018 F   0  0  0  0  0  0  0  0  0  0  0  0
   -7.9962   -1.3184   -0.9074 C   0  0  0  0  0  0  0  0  0  0  0  0
   -4.7009   -0.8779   -1.3460 N   0  0  0  0  0  0  0  0  0  0  0  0
   -3.5446   -0.4874   -0.6552 C   0  0  0  0  0  0  0  0  0  0  0  0
   -3.4678    0.8309   -0.2251 C   0  0  0  0  0  0  0  0  0  0  0  0
   -2.3471    1.2521    0.4878 C   0  0  0  0  0  0  0  0  0  0  0  0
   -1.3363    0.3394    0.7424 C   0  0  0  0  0  0  0  0  0  0  0  0
   -0.1034    0.7172    1.5130 C   0  0  0  0  0  0  0  0  0  0  0  0
    0.9061    1.5338    0.7006 C   0  0  0  0  0  0  0  0  0  0  0  0
    1.5433    0.7258   -0.4397 C   0  0  0  0  0  0  0  0  0  0  0  0
    2.6317    1.4981   -1.1955 C   0  0  0  0  0  0  0  0  0  0  0  0
    3.8800    1.6664   -0.3908 C   0  0  0  0  0  0  0  0  0  0  0  0
    4.0783    2.6167    0.4974 N   0  0  0  0  0  0  0  0  0  0  0  0
    5.3177    2.5186    1.1015 N   0  0  0  0  0  0  0  0  0  0  0  0
    5.9936    1.4876    0.6566 C   0  0  0  0  0  0  0  0  0  0  0  0
    7.2228    1.0131    1.0084 N   0  0  0  0  0  0  0  0  0  0  0  0
    7.9673    1.5494    2.0239 C   0  0  0  0  0  0  0  0  0  0  0  0
    7.6737    2.5643    2.6580 O   0  0  0  0  0  0  0  0  0  0  0  0
    9.2746    0.8392    2.3450 C   0  0  0  0  0  0  0  0  0  0  0  0
    9.4753   -0.5720    1.8318 C   0  0  0  0  0  0  0  0  0  0  0  0
   10.2289   -1.4721    2.5854 C   0  0  0  0  0  0  0  0  0  0  0  0
   10.4829   -2.7425    2.0732 C   0  0  0  0  0  0  0  0  0  0  0  0
   10.0057   -3.0781    0.8120 C   0  0  0  0  0  0  0  0  0  0  0  0
    9.2771   -2.1289    0.1177 C   0  0  0  0  0  0  0  0  0  0  0  0
    8.9954   -0.8929    0.5987 N   0  0  0  0  0  0  0  0  0  0  0  0
    5.2021    0.5770   -0.5525 S   0  0  0  0  0  0  0  0  0  0  0  0
   -1.4247   -0.9279    0.2941 N   0  0  0  0  0  0  0  0  0  0  0  0
   -2.5382   -1.3403   -0.4043 N   0  0  0  0  0  0  0  0  0  0  0  0
   -6.0916   -2.3361   -3.5678 H   0  0  0  0  0  0  0  0  0  0  0  0
   -6.6959   -3.3369   -2.2494 H   0  0  0  0  0  0  0  0  0  0  0  0
   -7.3174   -0.3662   -4.1132 H   0  0  0  0  0  0  0  0  0  0  0  0
   -9.0224    1.3299   -3.5534 H   0  0  0  0  0  0  0  0  0  0  0  0
  -10.0718    1.3570   -1.3100 H   0  0  0  0  0  0  0  0  0  0  0  0
   -7.7104   -2.0482   -0.1514 H   0  0  0  0  0  0  0  0  0  0  0  0
   -5.4047   -0.1679   -1.4812 H   0  0  0  0  0  0  0  0  0  0  0  0
   -4.2686    1.5357   -0.4210 H   0  0  0  0  0  0  0  0  0  0  0  0
   -2.2767    2.2745    0.8448 H   0  0  0  0  0  0  0  0  0  0  0  0
   -0.4056    1.2840    2.4001 H   0  0  0  0  0  0  0  0  0  0  0  0
    0.3812   -0.1914    1.8890 H   0  0  0  0  0  0  0  0  0  0  0  0
    0.4312    2.4353    0.2948 H   0  0  0  0  0  0  0  0  0  0  0  0
    1.6862    1.8698    1.3915 H   0  0  0  0  0  0  0  0  0  0  0  0
    1.9554   -0.2115   -0.0409 H   0  0  0  0  0  0  0  0  0  0  0  0
    0.7644    0.4508   -1.1607 H   0  0  0  0  0  0  0  0  0  0  0  0
    2.2554    2.4847   -1.4962 H   0  0  0  0  0  0  0  0  0  0  0  0
    2.8604    0.9602   -2.1251 H   0  0  0  0  0  0  0  0  0  0  0  0
    7.5595    0.1683    0.5468 H   0  0  0  0  0  0  0  0  0  0  0  0
   10.0978    1.4649    1.9776 H   0  0  0  0  0  0  0  0  0  0  0  0
    9.3316    0.8138    3.4424 H   0  0  0  0  0  0  0  0  0  0  0  0
   10.6324   -1.1858    3.5525 H   0  0  0  0  0  0  0  0  0  0  0  0
   11.0686   -3.4545    2.6472 H   0  0  0  0  0  0  0  0  0  0  0  0
   10.1984   -4.0548    0.3812 H   0  0  0  0  0  0  0  0  0  0  0  0
    8.8900   -2.3424   -0.8758 H   0  0  0  0  0  0  0  0  0  0  0  0
  1  2  2  0
  2  3  1  0
  3  4  1  0
  4  5  2  0
  5  6  1  0
  6  7  2  0
  7  8  1  0
  8  9  1  0
  9 10  1  0
 10 11  1  0
 10 12  1  0
 10 13  1  0
  8 14  2  0
  2 15  1  0
 15 16  1  0
 16 17  2  0
 17 18  1  0
 18 19  2  0
 19 20  1  0
 20 21  1  0
 21 22  1  0
 22 23  1  0
 23 24  1  0
 24 25  2  0
 25 26  1  0
 26 27  2  0
 27 28  1  0
 28 29  1  0
 29 30  2  0
 29 31  1  0
 31 32  1  0
 32 33  2  0
 33 34  1  0
 34 35  2  0
 35 36  1  0
 36 37  2  0
 27 38  1  0
 19 39  1  0
 39 40  2  0
 14  4  1  0
 40 16  1  0
 38 24  1  0
 37 32  1  0
  3 41  1  0
  3 42  1  0
  5 43  1  0
  6 44  1  0
  7 45  1  0
 14 46  1  0
 15 47  1  0
 17 48  1  0
 18 49  1  0
 20 50  1  0
 20 51  1  0
 21 52  1  0
 21 53  1  0
 22 54  1  0
 22 55  1  0
 23 56  1  0
 23 57  1  0
 28 58  1  0
 31 59  1  0
 31 60  1  0
 33 61  1  0
 34 62  1  0
 35 63  1  0
 36 64  1  0
M  END
$$$$
