
     RDKit          3D

 55 56  0  0  0  0  0  0  0  0999 V2000
    2.8269   -0.7750    3.8195 C   0  0  0  0  0  0  0  0  0  0  0  0
    3.3225   -0.7386    2.3828 C   0  0  0  0  0  0  0  0  0  0  0  0
    2.8305    0.5151    1.6574 C   0  0  0  0  0  0  0  0  0  0  0  0
    3.3401    0.5963    0.2327 C   0  0  0  0  0  0  0  0  0  0  0  0
    2.5589    0.0844   -0.8211 C   0  0  0  0  0  0  0  0  0  0  0  0
    1.3285   -0.4543   -0.5431 O   0  0  0  0  0  0  0  0  0  0  0  0
    1.2716   -1.8559   -0.8405 C   0  0  0  0  0  0  0  0  0  0  0  0
   -0.1785   -2.3087   -0.7409 C   0  0  0  0  0  0  0  0  0  0  0  0
   -1.0447   -1.6587   -1.8185 C   0  0  0  0  0  0  0  0  0  0  0  0
   -2.3827   -2.1521   -1.7372 O   0  0  0  0  0  0  0  0  0  0  0  0
   -3.3020   -1.4097   -1.0519 C   0  0  0  0  0  0  0  0  0  0  0  0
   -3.0285   -0.3682   -0.1684 C   0  0  0  0  0  0  0  0  0  0  0  0
   -4.0791    0.3075    0.4633 C   0  0  0  0  0  0  0  0  0  0  0  0
   -5.4083   -0.0494    0.2245 C   0  0  0  0  0  0  0  0  0  0  0  0
   -6.3298    0.6988    0.8997 O   0  0  0  0  0  0  0  0  0  0  0  0
   -7.7001    0.4329    0.6279 C   0  0  0  0  0  0  0  0  0  0  0  0
   -8.5857    1.3796    1.4155 C   0  0  0  0  0  0  0  0  0  0  0  0
   -8.2517    2.2501    2.1988 O   0  0  0  0  0  0  0  0  0  0  0  0
   -9.8975    1.1677    1.1695 O   0  0  0  0  0  0  0  0  0  0  0  0
   -5.6819   -1.1043   -0.6442 C   0  0  0  0  0  0  0  0  0  0  0  0
   -4.6307   -1.7808   -1.2724 C   0  0  0  0  0  0  0  0  0  0  0  0
    2.9681    0.2045   -2.1507 C   0  0  0  0  0  0  0  0  0  0  0  0
    4.1881    0.8039   -2.4501 C   0  0  0  0  0  0  0  0  0  0  0  0
    5.0028    1.3010   -1.4246 C   0  0  0  0  0  0  0  0  0  0  0  0
    6.2895    1.9294   -1.8392 C   0  0  0  0  0  0  0  0  0  0  0  0
    6.8711    3.0516   -1.0213 C   0  0  0  0  0  0  0  0  0  0  0  0
    6.8449    1.5374   -2.8657 O   0  0  0  0  0  0  0  0  0  0  0  0
    4.5857    1.1783   -0.0875 C   0  0  0  0  0  0  0  0  0  0  0  0
    5.4252    1.6231    0.8986 O   0  0  0  0  0  0  0  0  0  0  0  0
    1.7325   -0.7626    3.8572 H   0  0  0  0  0  0  0  0  0  0  0  0
    3.2005    0.0852    4.3829 H   0  0  0  0  0  0  0  0  0  0  0  0
    3.1738   -1.6850    4.3193 H   0  0  0  0  0  0  0  0  0  0  0  0
    4.4178   -0.7802    2.3818 H   0  0  0  0  0  0  0  0  0  0  0  0
    2.9752   -1.6369    1.8621 H   0  0  0  0  0  0  0  0  0  0  0  0
    3.1309    1.4172    2.2052 H   0  0  0  0  0  0  0  0  0  0  0  0
    1.7337    0.5448    1.6681 H   0  0  0  0  0  0  0  0  0  0  0  0
    1.8727   -2.4001   -0.1036 H   0  0  0  0  0  0  0  0  0  0  0  0
    1.6577   -2.0852   -1.8408 H   0  0  0  0  0  0  0  0  0  0  0  0
   -0.5786   -2.0640    0.2498 H   0  0  0  0  0  0  0  0  0  0  0  0
   -0.2363   -3.4000   -0.8373 H   0  0  0  0  0  0  0  0  0  0  0  0
   -0.9984   -0.5633   -1.8109 H   0  0  0  0  0  0  0  0  0  0  0  0
   -0.6688   -1.9617   -2.8033 H   0  0  0  0  0  0  0  0  0  0  0  0
   -2.0145   -0.0586    0.0618 H   0  0  0  0  0  0  0  0  0  0  0  0
   -3.8567    1.1229    1.1502 H   0  0  0  0  0  0  0  0  0  0  0  0
   -7.9111    0.5917   -0.4354 H   0  0  0  0  0  0  0  0  0  0  0  0
   -7.9535   -0.5856    0.9416 H   0  0  0  0  0  0  0  0  0  0  0  0
  -10.3474    1.8300    1.7355 H   0  0  0  0  0  0  0  0  0  0  0  0
   -6.6936   -1.4316   -0.8577 H   0  0  0  0  0  0  0  0  0  0  0  0
   -4.8516   -2.6044   -1.9475 H   0  0  0  0  0  0  0  0  0  0  0  0
    2.3331   -0.1438   -2.9613 H   0  0  0  0  0  0  0  0  0  0  0  0
    4.4982    0.8964   -3.4907 H   0  0  0  0  0  0  0  0  0  0  0  0
    7.5407    2.6505   -0.2564 H   0  0  0  0  0  0  0  0  0  0  0  0
    6.0820    3.6580   -0.5684 H   0  0  0  0  0  0  0  0  0  0  0  0
    7.4411    3.7115   -1.6827 H   0  0  0  0  0  0  0  0  0  0  0  0
    5.1674    1.2489    1.7557 H   0  0  0  0  0  0  0  0  0  0  0  0
  1  2  1  0
  2  3  1  0
  3  4  1  0
  4  5  2  0
  5  6  1  0
  6  7  1  0
  7  8  1  0
  8  9  1  0
  9 10  1  0
 10 11  1  0
 11 12  2  0
 12 13  1  0
 13 14  2  0
 14 15  1  0
 15 16  1  0
 16 17  1  0
 17 18  2  0
 17 19  1  0
 14 20  1  0
 20 21  2  0
  5 22  1  0
 22 23  2  0
 23 24  1  0
 24 25  1  0
 25 26  1  0
 25 27  2  0
 24 28  2  0
 28 29  1  0
 28  4  1  0
 21 11  1  0
  1 30  1  0
  1 31  1  0
  1 32  1  0
  2 33  1  0
  2 34  1  0
  3 35  1  0
  3 36  1  0
  7 37  1  0
  7 38  1  0
  8 39  1  0
  8 40  1  0
  9 41  1  0
  9 42  1  0
 12 43  1  0
 13 44  1  0
 16 45  1  0
 16 46  1  0
 19 47  1  0
 20 48  1  0
 21 49  1  0
 22 50  1  0
 23 51  1  0
 26 52  1  0
 26 53  1  0
 26 54  1  0
 29 55  1  0
M  END
$$$$
