
     RDKit          3D

 48 51  0  0  0  0  0  0  0  0999 V2000
   -5.7066    1.5387   -0.1939 C   0  0  0  0  0  0  0  0  0  0  0  0
   -4.6545    0.6432   -0.8444 C   0  0  0  0  0  0  0  0  0  0  0  0
   -5.2705   -0.6946   -1.2695 C   0  0  0  0  0  0  0  0  0  0  0  0
   -4.2019   -1.6107   -1.8559 C   0  0  0  0  0  0  0  0  0  0  0  0
   -3.0303   -1.7862   -0.8937 C   0  0  0  0  0  0  0  0  0  0  0  0
   -2.4728   -0.4719   -0.5210 N   0  0  0  0  0  0  0  0  0  0  0  0
   -1.1672   -0.4440   -0.0626 C   0  0  0  0  0  0  0  0  0  0  0  0
   -0.5371   -1.5104    0.3243 N   0  0  0  0  0  0  0  0  0  0  0  0
    0.7546   -1.3841    0.7328 C   0  0  0  0  0  0  0  0  0  0  0  0
    1.4617   -0.2467    0.7792 C   0  0  0  0  0  0  0  0  0  0  0  0
    0.7037    0.9762    0.4532 C   0  0  0  0  0  0  0  0  0  0  0  0
    1.1314    2.1054    0.6572 O   0  0  0  0  0  0  0  0  0  0  0  0
   -0.5465    0.7727   -0.0484 N   0  0  0  0  0  0  0  0  0  0  0  0
    2.8759   -0.2155    1.3091 C   0  0  0  0  0  0  0  0  0  0  0  0
    3.8019    0.8691    0.7559 C   0  0  0  0  0  0  0  0  0  0  0  0
    3.8913    1.1487   -0.6206 C   0  0  0  0  0  0  0  0  0  0  0  0
    4.7674    2.1285   -1.0922 C   0  0  0  0  0  0  0  0  0  0  0  0
    5.5582    2.8326   -0.1948 C   0  0  0  0  0  0  0  0  0  0  0  0
    6.3980    3.7722   -0.6486 F   0  0  0  0  0  0  0  0  0  0  0  0
    5.4930    2.5738    1.1677 C   0  0  0  0  0  0  0  0  0  0  0  0
    4.6199    1.5935    1.6432 C   0  0  0  0  0  0  0  0  0  0  0  0
    3.5603   -1.6051    1.2607 C   0  0  0  0  0  0  0  0  0  0  0  0
    4.1058   -1.9614   -0.0598 C   0  0  0  0  0  0  0  0  0  0  0  0
    4.5233   -2.2344   -1.1084 N   0  0  0  0  0  0  0  0  0  0  0  0
    2.5873   -2.7042    1.6351 C   0  0  0  0  0  0  0  0  0  0  0  0
    2.9382   -3.7280    2.2178 O   0  0  0  0  0  0  0  0  0  0  0  0
    1.2982   -2.5410    1.2054 N   0  0  0  0  0  0  0  0  0  0  0  0
   -3.4726    0.4118    0.1070 C   0  0  0  0  0  0  0  0  0  0  0  0
   -5.2764    2.5080    0.0791 H   0  0  0  0  0  0  0  0  0  0  0  0
   -6.5383    1.7232   -0.8820 H   0  0  0  0  0  0  0  0  0  0  0  0
   -6.1134    1.0810    0.7142 H   0  0  0  0  0  0  0  0  0  0  0  0
   -4.2823    1.1522   -1.7439 H   0  0  0  0  0  0  0  0  0  0  0  0
   -5.7386   -1.1860   -0.4071 H   0  0  0  0  0  0  0  0  0  0  0  0
   -6.0599   -0.5293   -2.0121 H   0  0  0  0  0  0  0  0  0  0  0  0
   -4.6388   -2.5878   -2.0904 H   0  0  0  0  0  0  0  0  0  0  0  0
   -3.8393   -1.1844   -2.7998 H   0  0  0  0  0  0  0  0  0  0  0  0
   -3.3490   -2.3259    0.0066 H   0  0  0  0  0  0  0  0  0  0  0  0
   -2.2699   -2.3961   -1.3966 H   0  0  0  0  0  0  0  0  0  0  0  0
   -1.0524    1.5939   -0.3345 H   0  0  0  0  0  0  0  0  0  0  0  0
    2.7372    0.0196    2.3773 H   0  0  0  0  0  0  0  0  0  0  0  0
    3.2834    0.6103   -1.3455 H   0  0  0  0  0  0  0  0  0  0  0  0
    4.8363    2.3446   -2.1536 H   0  0  0  0  0  0  0  0  0  0  0  0
    6.1196    3.1387    1.8503 H   0  0  0  0  0  0  0  0  0  0  0  0
    4.5797    1.4095    2.7150 H   0  0  0  0  0  0  0  0  0  0  0  0
    4.3749   -1.6176    1.9970 H   0  0  0  0  0  0  0  0  0  0  0  0
    0.6662   -3.3260    1.3112 H   0  0  0  0  0  0  0  0  0  0  0  0
   -3.0357    1.3833    0.3633 H   0  0  0  0  0  0  0  0  0  0  0  0
   -3.8132   -0.0394    1.0480 H   0  0  0  0  0  0  0  0  0  0  0  0
  1  2  1  0
  2  3  1  0
  3  4  1  0
  4  5  1  0
  5  6  1  0
  6  7  1  0
  7  8  2  0
  8  9  1  0
  9 10  2  0
 10 11  1  0
 11 12  2  0
 11 13  1  0
 10 14  1  0
 14 15  1  0
 15 16  2  0
 16 17  1  0
 17 18  2  0
 18 19  1  0
 18 20  1  0
 20 21  2  0
 14 22  1  0
 22 23  1  0
 23 24  3  0
 22 25  1  0
 25 26  2  0
 25 27  1  0
  6 28  1  0
 28  2  1  0
 13  7  1  0
 21 15  1  0
 27  9  1  0
  1 29  1  0
  1 30  1  0
  1 31  1  0
  2 32  1  0
  3 33  1  0
  3 34  1  0
  4 35  1  0
  4 36  1  0
  5 37  1  0
  5 38  1  0
 13 39  1  0
 14 40  1  0
 16 41  1  0
 17 42  1  0
 20 43  1  0
 21 44  1  0
 22 45  1  0
 27 46  1  0
 28 47  1  0
 28 48  1  0
M  END
$$$$
