
     RDKit          3D

 44 46  0  0  0  0  0  0  0  0999 V2000
   -0.0667   -5.0857    0.4935 C   0  0  0  0  0  0  0  0  0  0  0  0
    0.0130   -3.6464    0.5772 N   0  0  0  0  0  0  0  0  0  0  0  0
    1.0003   -2.8479    0.0805 C   0  0  0  0  0  0  0  0  0  0  0  0
    0.6351   -1.5450    0.3781 C   0  0  0  0  0  0  0  0  0  0  0  0
    1.3313   -0.3239    0.0055 C   0  0  0  0  0  0  0  0  0  0  0  0
    0.7125    0.6526   -0.3914 O   0  0  0  0  0  0  0  0  0  0  0  0
    2.7047   -0.4297    0.1270 N   0  0  0  0  0  0  0  0  0  0  0  0
    3.6741    0.5484   -0.1782 C   0  0  0  0  0  0  0  0  0  0  0  0
    5.0120    0.2210    0.0870 C   0  0  0  0  0  0  0  0  0  0  0  0
    6.0393    1.1274   -0.1875 C   0  0  0  0  0  0  0  0  0  0  0  0
    5.7378    2.3724   -0.7326 C   0  0  0  0  0  0  0  0  0  0  0  0
    4.4109    2.7022   -0.9987 C   0  0  0  0  0  0  0  0  0  0  0  0
    4.0420    4.2421   -1.6764 Cl  0  0  0  0  0  0  0  0  0  0  0  0
    3.3804    1.7993   -0.7252 C   0  0  0  0  0  0  0  0  0  0  0  0
   -0.5842   -1.6800    1.0953 C   0  0  0  0  0  0  0  0  0  0  0  0
   -1.4636   -0.3282    1.7996 S   0  0  0  0  0  6  0  0  0  0  0  0
   -0.4301    0.4821    2.4130 O   0  0  0  0  0  0  0  0  0  0  0  0
   -2.5152   -0.9148    2.6069 O   0  0  0  0  0  0  0  0  0  0  0  0
   -2.2089    0.5514    0.5497 N   0  0  0  0  0  0  0  0  0  0  0  0
   -3.2375   -0.1722   -0.2382 C   0  0  0  0  0  0  0  0  0  0  0  0
   -4.6241    0.4156   -0.0152 C   0  0  0  0  0  0  0  0  0  0  0  0
   -4.6836    1.8899   -0.4115 C   0  0  0  0  0  0  0  0  0  0  0  0
   -3.3478    2.6035   -0.2092 C   0  0  0  0  0  0  0  0  0  0  0  0
   -2.5305    1.9547    0.9006 C   0  0  0  0  0  0  0  0  0  0  0  0
   -0.9685   -2.9701    1.1905 N   0  0  0  0  0  0  0  0  0  0  0  0
   -0.9742   -5.3487   -0.0556 H   0  0  0  0  0  0  0  0  0  0  0  0
    0.8121   -5.4681   -0.0314 H   0  0  0  0  0  0  0  0  0  0  0  0
   -0.0997   -5.4881    1.5090 H   0  0  0  0  0  0  0  0  0  0  0  0
    1.8401   -3.2563   -0.4650 H   0  0  0  0  0  0  0  0  0  0  0  0
    3.0511   -1.2874    0.5353 H   0  0  0  0  0  0  0  0  0  0  0  0
    5.2751   -0.7434    0.5150 H   0  0  0  0  0  0  0  0  0  0  0  0
    7.0720    0.8628    0.0255 H   0  0  0  0  0  0  0  0  0  0  0  0
    6.5351    3.0792   -0.9461 H   0  0  0  0  0  0  0  0  0  0  0  0
    2.3619    2.0995   -0.9480 H   0  0  0  0  0  0  0  0  0  0  0  0
   -3.2523   -1.2389    0.0077 H   0  0  0  0  0  0  0  0  0  0  0  0
   -2.9601   -0.1048   -1.2971 H   0  0  0  0  0  0  0  0  0  0  0  0
   -5.3729   -0.1486   -0.5824 H   0  0  0  0  0  0  0  0  0  0  0  0
   -4.8932    0.3165    1.0443 H   0  0  0  0  0  0  0  0  0  0  0  0
   -5.4663    2.3839    0.1766 H   0  0  0  0  0  0  0  0  0  0  0  0
   -4.9816    1.9851   -1.4625 H   0  0  0  0  0  0  0  0  0  0  0  0
   -2.7769    2.5701   -1.1462 H   0  0  0  0  0  0  0  0  0  0  0  0
   -3.5239    3.6617    0.0140 H   0  0  0  0  0  0  0  0  0  0  0  0
   -3.0834    1.9941    1.8465 H   0  0  0  0  0  0  0  0  0  0  0  0
   -1.5958    2.5127    1.0233 H   0  0  0  0  0  0  0  0  0  0  0  0
  1  2  1  0
  2  3  1  0
  3  4  2  0
  4  5  1  0
  5  6  2  0
  5  7  1  0
  7  8  1  0
  8  9  2  0
  9 10  1  0
 10 11  2  0
 11 12  1  0
 12 13  1  0
 12 14  2  0
  4 15  1  0
 15 16  1  0
 16 17  2  0
 16 18  2  0
 16 19  1  0
 19 20  1  0
 20 21  1  0
 21 22  1  0
 22 23  1  0
 23 24  1  0
 15 25  2  0
 25  2  1  0
 14  8  1  0
 24 19  1  0
  1 26  1  0
  1 27  1  0
  1 28  1  0
  3 29  1  0
  7 30  1  0
  9 31  1  0
 10 32  1  0
 11 33  1  0
 14 34  1  0
 20 35  1  0
 20 36  1  0
 21 37  1  0
 21 38  1  0
 22 39  1  0
 22 40  1  0
 23 41  1  0
 23 42  1  0
 24 43  1  0
 24 44  1  0
M  END
$$$$
