
     RDKit          3D

 52 53  0  0  0  0  0  0  0  0999 V2000
    0.6831    0.0000    0.0000 Cl  0  0  0  0  0  0  0  0  0  0  0  0
    4.7416   -0.8385    1.9772 O   0  0  0  0  0  0  0  0  0  0  0  0
    4.5189    0.2851    1.4688 C   0  0  0  0  0  0  0  0  0  0  0  0
    4.1825    1.3368    2.2778 O   0  0  0  0  0  0  0  0  0  0  0  0
    4.6064    0.5263    0.0005 C   0  0  0  0  0  0  0  0  0  0  0  0
    4.9816   -0.7474   -0.6688 C   0  0  0  0  0  0  0  0  0  0  0  0
    4.4522   -0.7991   -2.0636 C   0  0  0  0  0  0  0  0  0  0  0  0
    2.9512   -0.6155   -2.1338 C   0  0  0  0  0  0  0  0  0  0  0  0
    2.4435    0.2405   -1.1340 N   0  0  0  0  0  0  0  0  0  0  0  0
    1.3772   -0.2263   -0.3293 C   0  0  0  0  0  0  0  0  0  0  0  0
    0.0715   -0.3700   -1.1396 C   0  0  0  0  0  0  0  0  0  0  0  0
   -0.9211   -0.8577   -0.1515 C   0  0  0  0  0  0  0  0  0  0  0  0
   -2.1022   -0.3931    0.1275 C   0  0  0  0  0  0  0  0  0  0  0  0
   -2.7608    0.7448   -0.4921 C   0  0  0  0  0  0  0  0  0  0  0  0
   -2.5887    1.0788   -1.8004 C   0  0  0  0  0  0  0  0  0  0  0  0
   -3.0971    2.2358   -2.3896 C   0  0  0  0  0  0  0  0  0  0  0  0
   -3.8278    3.1046   -1.5994 C   0  0  0  0  0  0  0  0  0  0  0  0
   -4.0276    2.8093   -0.2799 C   0  0  0  0  0  0  0  0  0  0  0  0
   -3.5067    1.6488    0.2809 C   0  0  0  0  0  0  0  0  0  0  0  0
   -2.8710   -1.0623    1.1877 C   0  0  0  0  0  0  0  0  0  0  0  0
   -4.2257   -0.8744    1.3106 C   0  0  0  0  0  0  0  0  0  0  0  0
   -4.9681   -1.4505    2.3518 C   0  0  0  0  0  0  0  0  0  0  0  0
   -4.3099   -2.2286    3.2744 C   0  0  0  0  0  0  0  0  0  0  0  0
   -2.9654   -2.4320    3.1739 C   0  0  0  0  0  0  0  0  0  0  0  0
   -2.2611   -1.8423    2.1261 C   0  0  0  0  0  0  0  0  0  0  0  0
    3.3461    1.1496   -0.5393 C   0  0  0  0  0  0  0  0  0  0  0  0
   -0.6831    0.0000    0.0000 H   0  0  0  0  0  0  0  0  0  0  0  0
    3.9015    1.1902    3.2584 H   0  0  0  0  0  0  0  0  0  0  0  0
    5.4262    1.2635   -0.1600 H   0  0  0  0  0  0  0  0  0  0  0  0
    6.0977   -0.8074   -0.7442 H   0  0  0  0  0  0  0  0  0  0  0  0
    4.6706   -1.6254   -0.0693 H   0  0  0  0  0  0  0  0  0  0  0  0
    4.9773   -0.0263   -2.6702 H   0  0  0  0  0  0  0  0  0  0  0  0
    4.7023   -1.7782   -2.4986 H   0  0  0  0  0  0  0  0  0  0  0  0
    2.4748   -1.6133   -2.1911 H   0  0  0  0  0  0  0  0  0  0  0  0
    2.7552   -0.1483   -3.1435 H   0  0  0  0  0  0  0  0  0  0  0  0
    1.5295   -1.1938    0.1539 H   0  0  0  0  0  0  0  0  0  0  0  0
    1.1615    0.5210    0.4592 H   0  0  0  0  0  0  0  0  0  0  0  0
    0.2306   -1.1308   -1.9023 H   0  0  0  0  0  0  0  0  0  0  0  0
   -0.1602    0.6019   -1.5903 H   0  0  0  0  0  0  0  0  0  0  0  0
   -0.5703   -1.7582    0.3919 H   0  0  0  0  0  0  0  0  0  0  0  0
   -2.0734    0.4191   -2.4954 H   0  0  0  0  0  0  0  0  0  0  0  0
   -2.9288    2.4489   -3.4227 H   0  0  0  0  0  0  0  0  0  0  0  0
   -4.2101    4.0004   -2.0957 H   0  0  0  0  0  0  0  0  0  0  0  0
   -4.6060    3.5130    0.3102 H   0  0  0  0  0  0  0  0  0  0  0  0
   -3.6667    1.4842    1.3210 H   0  0  0  0  0  0  0  0  0  0  0  0
   -4.8429   -0.3118    0.6218 H   0  0  0  0  0  0  0  0  0  0  0  0
   -6.0274   -1.3095    2.4590 H   0  0  0  0  0  0  0  0  0  0  0  0
   -4.8342   -2.6963    4.0957 H   0  0  0  0  0  0  0  0  0  0  0  0
   -2.4653   -3.0480    3.9108 H   0  0  0  0  0  0  0  0  0  0  0  0
   -1.1997   -2.0383    2.1215 H   0  0  0  0  0  0  0  0  0  0  0  0
    2.8364    1.6516    0.3151 H   0  0  0  0  0  0  0  0  0  0  0  0
    3.5819    1.9692   -1.2709 H   0  0  0  0  0  0  0  0  0  0  0  0
  2  3  2  0
  3  4  1  0
  3  5  1  0
  5  6  1  0
  6  7  1  0
  7  8  1  0
  8  9  1  0
  9 10  1  0
 10 11  1  0
 11 12  1  0
 12 13  2  3
 13 14  1  0
 14 15  2  0
 15 16  1  0
 16 17  2  0
 17 18  1  0
 18 19  2  0
 13 20  1  0
 20 21  2  0
 21 22  1  0
 22 23  2  0
 23 24  1  0
 24 25  2  0
  9 26  1  0
 26  5  1  0
 19 14  1  0
 25 20  1  0
  1 27  1  0
  4 28  1  0
  5 29  1  0
  6 30  1  0
  6 31  1  0
  7 32  1  0
  7 33  1  0
  8 34  1  0
  8 35  1  0
 10 36  1  0
 10 37  1  0
 11 38  1  0
 11 39  1  0
 12 40  1  0
 15 41  1  0
 16 42  1  0
 17 43  1  0
 18 44  1  0
 19 45  1  0
 21 46  1  0
 22 47  1  0
 23 48  1  0
 24 49  1  0
 25 50  1  0
 26 51  1  0
 26 52  1  0
M  END
$$$$
