
     RDKit          3D

 72 77  0  0  0  0  0  0  0  0999 V2000
   12.7273   -0.4611   -1.0776 C   0  0  0  0  0  0  0  0  0  0  0  0
   12.0844    0.0442    0.2251 C   0  0  0  0  0  0  0  0  0  0  0  0
   12.5457   -0.8362    1.4010 C   0  0  0  0  0  0  0  0  0  0  0  0
   12.5651    1.4857    0.4834 C   0  0  0  0  0  0  0  0  0  0  0  0
   10.5865   -0.0053    0.0989 C   0  0  0  0  0  0  0  0  0  0  0  0
    9.5891    0.9328   -0.0429 C   0  0  0  0  0  0  0  0  0  0  0  0
    8.3843    0.1882   -0.0834 C   0  0  0  0  0  0  0  0  0  0  0  0
    7.1386    0.7743   -0.2086 N   0  0  0  0  0  0  0  0  0  0  0  0
    5.9307    0.1030   -0.1101 C   0  0  0  0  0  0  0  0  0  0  0  0
    5.7975   -1.0819    0.1638 O   0  0  0  0  0  0  0  0  0  0  0  0
    4.8812    0.9813   -0.3615 N   0  0  0  0  0  0  0  0  0  0  0  0
    3.4997    0.7306   -0.2351 C   0  0  0  0  0  0  0  0  0  0  0  0
    2.6280    1.7228   -0.6956 C   0  0  0  0  0  0  0  0  0  0  0  0
    1.2418    1.5595   -0.5913 C   0  0  0  0  0  0  0  0  0  0  0  0
    0.6930    0.4036   -0.0203 C   0  0  0  0  0  0  0  0  0  0  0  0
   -0.7555    0.2759    0.0753 C   0  0  0  0  0  0  0  0  0  0  0  0
   -1.4571   -0.7724    0.6613 C   0  0  0  0  0  0  0  0  0  0  0  0
   -2.7629   -0.4229    0.5054 N   0  0  0  0  0  0  0  0  0  0  0  0
   -2.8062    0.7723   -0.1424 C   0  0  0  0  0  0  0  0  0  0  0  0
   -1.6233    1.2423   -0.4258 N   0  0  0  0  0  0  0  0  0  0  0  0
   -4.4222    1.3464   -0.3986 S   0  0  0  0  0  0  0  0  0  0  0  0
   -5.0274   -0.1290    0.4351 C   0  0  0  0  0  0  0  0  0  0  0  0
   -6.3475   -0.4670    0.6855 C   0  0  0  0  0  0  0  0  0  0  0  0
   -6.6082   -1.6621    1.3644 C   0  0  0  0  0  0  0  0  0  0  0  0
   -7.8484   -2.1415    1.6904 O   0  0  0  0  0  0  0  0  0  0  0  0
   -8.9570   -1.2346    1.6384 C   0  0  0  0  0  0  0  0  0  0  0  0
   -9.6674   -1.2846    0.2686 C   0  0  0  0  0  0  0  0  0  0  0  0
   -9.6553   -0.0067   -0.4716 N   0  0  0  0  0  0  0  0  0  0  0  0
  -10.4182    1.0543    0.2283 C   0  0  0  0  0  0  0  0  0  0  0  0
  -10.9066    2.1441   -0.7382 C   0  0  0  0  0  0  0  0  0  0  0  0
  -11.8388    1.6422   -1.7051 O   0  0  0  0  0  0  0  0  0  0  0  0
  -11.6105    0.2678   -2.0476 C   0  0  0  0  0  0  0  0  0  0  0  0
  -10.1493   -0.1716   -1.8583 C   0  0  0  0  0  0  0  0  0  0  0  0
   -5.5450   -2.5036    1.7598 C   0  0  0  0  0  0  0  0  0  0  0  0
   -4.2117   -2.1655    1.5130 C   0  0  0  0  0  0  0  0  0  0  0  0
   -3.9884   -0.9747    0.8517 C   0  0  0  0  0  0  0  0  0  0  0  0
    1.5702   -0.5854    0.4424 C   0  0  0  0  0  0  0  0  0  0  0  0
    2.9605   -0.4219    0.3376 C   0  0  0  0  0  0  0  0  0  0  0  0
    8.6438   -1.1179    0.0002 N   0  0  0  0  0  0  0  0  0  0  0  0
   10.0128   -1.2401    0.1111 O   0  0  0  0  0  0  0  0  0  0  0  0
   12.4427    0.1668   -1.9317 H   0  0  0  0  0  0  0  0  0  0  0  0
   12.4161   -1.4875   -1.3091 H   0  0  0  0  0  0  0  0  0  0  0  0
   13.8216   -0.4519   -1.0079 H   0  0  0  0  0  0  0  0  0  0  0  0
   12.0625   -0.5347    2.3388 H   0  0  0  0  0  0  0  0  0  0  0  0
   13.6311   -0.7691    1.5456 H   0  0  0  0  0  0  0  0  0  0  0  0
   12.3016   -1.8921    1.2354 H   0  0  0  0  0  0  0  0  0  0  0  0
   13.6555    1.5263    0.5972 H   0  0  0  0  0  0  0  0  0  0  0  0
   12.2973    2.1553   -0.3429 H   0  0  0  0  0  0  0  0  0  0  0  0
   12.1196    1.8942    1.3987 H   0  0  0  0  0  0  0  0  0  0  0  0
    9.7140    2.0035   -0.0938 H   0  0  0  0  0  0  0  0  0  0  0  0
    7.1221    1.7784   -0.2266 H   0  0  0  0  0  0  0  0  0  0  0  0
    5.1260    1.8507   -0.8088 H   0  0  0  0  0  0  0  0  0  0  0  0
    3.0050    2.6379   -1.1454 H   0  0  0  0  0  0  0  0  0  0  0  0
    0.5877    2.3497   -0.9591 H   0  0  0  0  0  0  0  0  0  0  0  0
   -1.1487   -1.6822    1.1568 H   0  0  0  0  0  0  0  0  0  0  0  0
   -7.1343    0.1936    0.3440 H   0  0  0  0  0  0  0  0  0  0  0  0
   -9.6661   -1.5907    2.3967 H   0  0  0  0  0  0  0  0  0  0  0  0
   -8.6713   -0.2286    1.9657 H   0  0  0  0  0  0  0  0  0  0  0  0
   -9.1826   -2.0591   -0.3408 H   0  0  0  0  0  0  0  0  0  0  0  0
  -10.7070   -1.6075    0.4189 H   0  0  0  0  0  0  0  0  0  0  0  0
   -9.7829    1.5140    0.9928 H   0  0  0  0  0  0  0  0  0  0  0  0
  -11.2969    0.6257    0.7279 H   0  0  0  0  0  0  0  0  0  0  0  0
  -11.4094    2.9435   -0.1824 H   0  0  0  0  0  0  0  0  0  0  0  0
  -10.0652    2.6008   -1.2731 H   0  0  0  0  0  0  0  0  0  0  0  0
  -12.2824   -0.3487   -1.4387 H   0  0  0  0  0  0  0  0  0  0  0  0
  -11.9096    0.1373   -3.0933 H   0  0  0  0  0  0  0  0  0  0  0  0
  -10.0157   -1.1993   -2.2179 H   0  0  0  0  0  0  0  0  0  0  0  0
   -9.5171    0.4582   -2.4975 H   0  0  0  0  0  0  0  0  0  0  0  0
   -5.7738   -3.4337    2.2790 H   0  0  0  0  0  0  0  0  0  0  0  0
   -3.4078   -2.8171    1.8338 H   0  0  0  0  0  0  0  0  0  0  0  0
    1.2007   -1.5020    0.8950 H   0  0  0  0  0  0  0  0  0  0  0  0
    3.5941   -1.2170    0.7221 H   0  0  0  0  0  0  0  0  0  0  0  0
  1  2  1  0
  2  3  1  0
  2  4  1  0
  2  5  1  0
  5  6  2  0
  6  7  1  0
  7  8  1  0
  8  9  1  0
  9 10  2  0
  9 11  1  0
 11 12  1  0
 12 13  2  0
 13 14  1  0
 14 15  2  0
 15 16  1  0
 16 17  2  0
 17 18  1  0
 18 19  1  0
 19 20  2  0
 19 21  1  0
 21 22  1  0
 22 23  2  0
 23 24  1  0
 24 25  1  0
 25 26  1  0
 26 27  1  0
 27 28  1  0
 28 29  1  0
 29 30  1  0
 30 31  1  0
 31 32  1  0
 32 33  1  0
 24 34  2  0
 34 35  1  0
 35 36  2  0
 15 37  1  0
 37 38  2  0
  7 39  2  0
 39 40  1  0
 40  5  1  0
 38 12  1  0
 20 16  1  0
 36 22  1  0
 36 18  1  0
 33 28  1  0
  1 41  1  0
  1 42  1  0
  1 43  1  0
  3 44  1  0
  3 45  1  0
  3 46  1  0
  4 47  1  0
  4 48  1  0
  4 49  1  0
  6 50  1  0
  8 51  1  0
 11 52  1  0
 13 53  1  0
 14 54  1  0
 17 55  1  0
 23 56  1  0
 26 57  1  0
 26 58  1  0
 27 59  1  0
 27 60  1  0
 29 61  1  0
 29 62  1  0
 30 63  1  0
 30 64  1  0
 32 65  1  0
 32 66  1  0
 33 67  1  0
 33 68  1  0
 34 69  1  0
 35 70  1  0
 37 71  1  0
 38 72  1  0
M  END
$$$$
