
     RDKit          3D

 52 55  0  0  0  0  0  0  0  0999 V2000
   -3.3158   -4.0764    2.3209 C   0  0  0  0  0  0  0  0  0  0  0  0
   -2.5928   -3.9390    0.9870 C   0  0  0  0  0  0  0  0  0  0  0  0
   -2.3009   -2.5488    0.6531 N   0  0  0  0  0  0  0  0  0  0  0  0
   -1.1438   -1.9981    1.1653 C   0  0  0  0  0  0  0  0  0  0  0  0
   -0.4196   -2.5384    1.9900 O   0  0  0  0  0  0  0  0  0  0  0  0
   -0.8340   -0.6127    0.6754 C   0  0  0  0  0  0  0  0  0  0  0  0
    0.4987   -0.0358    0.8153 C   0  0  0  0  0  0  0  0  0  0  0  0
    0.7371    1.2796    0.6502 N   0  0  0  0  0  0  0  0  0  0  0  0
    2.1070    1.4022    0.8631 O   0  0  0  0  0  0  0  0  0  0  0  0
    2.5859    0.1440    1.0853 C   0  0  0  0  0  0  0  0  0  0  0  0
    3.9967   -0.0586    1.3805 C   0  0  0  0  0  0  0  0  0  0  0  0
    4.3752   -0.9455    2.1499 O   0  0  0  0  0  0  0  0  0  0  0  0
    4.9414    0.8046    0.7830 N   0  0  0  0  0  0  0  0  0  0  0  0
    6.3402    0.6689    1.1837 C   0  0  0  0  0  0  0  0  0  0  0  0
    7.1004   -0.2058    0.1890 C   0  0  0  0  0  0  0  0  0  0  0  0
    6.9527    0.3376   -1.2337 C   0  0  0  0  0  0  0  0  0  0  0  0
    5.4817    0.5478   -1.5992 C   0  0  0  0  0  0  0  0  0  0  0  0
    4.7597    1.3929   -0.5468 C   0  0  0  0  0  0  0  0  0  0  0  0
    1.6372   -0.7700    1.0734 N   0  0  0  0  0  0  0  0  0  0  0  0
   -1.7466    0.1068    0.0981 N   0  0  0  0  0  0  0  0  0  0  0  0
   -3.0048   -0.4156   -0.1232 N   0  0  0  0  0  0  0  0  0  0  0  0
   -3.9297    0.5610   -0.6585 C   0  0  0  0  0  0  0  0  0  0  0  0
   -5.2757    0.2831   -0.9337 C   0  0  0  0  0  0  0  0  0  0  0  0
   -6.1403    1.2628   -1.4471 C   0  0  0  0  0  0  0  0  0  0  0  0
   -5.6890    2.5603   -1.6892 C   0  0  0  0  0  0  0  0  0  0  0  0
   -6.6062    3.5946   -2.2682 C   0  0  0  0  0  0  0  0  0  0  0  0
   -4.3521    2.8573   -1.4319 C   0  0  0  0  0  0  0  0  0  0  0  0
   -3.4928    1.8761   -0.9198 C   0  0  0  0  0  0  0  0  0  0  0  0
   -3.3168   -1.7773    0.0860 C   0  0  0  0  0  0  0  0  0  0  0  0
   -4.3993   -2.3048   -0.1762 O   0  0  0  0  0  0  0  0  0  0  0  0
   -2.7170   -3.6668    3.1406 H   0  0  0  0  0  0  0  0  0  0  0  0
   -3.5136   -5.1307    2.5371 H   0  0  0  0  0  0  0  0  0  0  0  0
   -4.2729   -3.5452    2.3110 H   0  0  0  0  0  0  0  0  0  0  0  0
   -3.2029   -4.3828    0.1920 H   0  0  0  0  0  0  0  0  0  0  0  0
   -1.6534   -4.5030    1.0246 H   0  0  0  0  0  0  0  0  0  0  0  0
    6.4193    0.2535    2.1936 H   0  0  0  0  0  0  0  0  0  0  0  0
    6.7736    1.6758    1.2136 H   0  0  0  0  0  0  0  0  0  0  0  0
    6.7111   -1.2306    0.2254 H   0  0  0  0  0  0  0  0  0  0  0  0
    8.1602   -0.2497    0.4628 H   0  0  0  0  0  0  0  0  0  0  0  0
    7.4864    1.2925   -1.3150 H   0  0  0  0  0  0  0  0  0  0  0  0
    7.4183   -0.3525   -1.9460 H   0  0  0  0  0  0  0  0  0  0  0  0
    5.4075    1.0305   -2.5798 H   0  0  0  0  0  0  0  0  0  0  0  0
    4.9906   -0.4301   -1.6803 H   0  0  0  0  0  0  0  0  0  0  0  0
    5.1727    2.4079   -0.5199 H   0  0  0  0  0  0  0  0  0  0  0  0
    3.7087    1.4686   -0.8268 H   0  0  0  0  0  0  0  0  0  0  0  0
   -5.7151   -0.6925   -0.7596 H   0  0  0  0  0  0  0  0  0  0  0  0
   -7.1751    0.9948   -1.6513 H   0  0  0  0  0  0  0  0  0  0  0  0
   -6.3247    4.5982   -1.9325 H   0  0  0  0  0  0  0  0  0  0  0  0
   -6.5645    3.5624   -3.3612 H   0  0  0  0  0  0  0  0  0  0  0  0
   -7.6395    3.4237   -1.9484 H   0  0  0  0  0  0  0  0  0  0  0  0
   -3.9614    3.8542   -1.6237 H   0  0  0  0  0  0  0  0  0  0  0  0
   -2.4617    2.1691   -0.7330 H   0  0  0  0  0  0  0  0  0  0  0  0
  1  2  1  0
  2  3  1  0
  3  4  1  0
  4  5  2  0
  4  6  1  0
  6  7  1  0
  7  8  2  0
  8  9  1  0
  9 10  1  0
 10 11  1  0
 11 12  2  0
 11 13  1  0
 13 14  1  0
 14 15  1  0
 15 16  1  0
 16 17  1  0
 17 18  1  0
 10 19  2  0
  6 20  2  0
 20 21  1  0
 21 22  1  0
 22 23  2  0
 23 24  1  0
 24 25  2  0
 25 26  1  0
 25 27  1  0
 27 28  2  0
 21 29  1  0
 29 30  2  0
 29  3  1  0
 19  7  1  0
 28 22  1  0
 18 13  1  0
  1 31  1  0
  1 32  1  0
  1 33  1  0
  2 34  1  0
  2 35  1  0
 14 36  1  0
 14 37  1  0
 15 38  1  0
 15 39  1  0
 16 40  1  0
 16 41  1  0
 17 42  1  0
 17 43  1  0
 18 44  1  0
 18 45  1  0
 23 46  1  0
 24 47  1  0
 26 48  1  0
 26 49  1  0
 26 50  1  0
 27 51  1  0
 28 52  1  0
M  END
$$$$
