
     RDKit          3D

 58 61  0  0  0  0  0  0  0  0999 V2000
   -3.0889    2.9946    1.2565 C   0  0  0  0  0  0  0  0  0  0  0  0
   -4.1952    2.7332    0.2360 C   0  0  0  0  0  0  0  0  0  0  0  0
   -3.9486    3.5337   -1.0421 C   0  0  0  0  0  0  0  0  0  0  0  0
   -4.4419    1.2315   -0.0316 C   0  0  0  0  0  0  0  0  0  0  0  0
   -3.3476    0.4578   -0.7937 C   0  0  0  0  0  0  0  0  0  0  0  0
   -2.1566    0.2125    0.0095 N   0  0  0  0  0  0  0  0  0  0  0  0
   -0.9057    0.6210   -0.4056 C   0  0  0  0  0  0  0  0  0  0  0  0
   -0.7062    1.3148   -1.3937 O   0  0  0  0  0  0  0  0  0  0  0  0
    0.2021    0.1364    0.5104 C   0  0  0  0  0  0  0  0  0  0  0  0
    1.5723    0.6589    0.0779 C   0  0  0  0  0  0  0  0  0  0  0  0
    2.6826    0.1950    1.0106 C   0  0  0  0  0  0  0  0  0  0  0  0
    2.9581   -1.2022    0.9046 N   0  0  0  0  0  0  0  0  0  0  0  0
    4.2832   -1.4496    0.6156 C   0  0  0  0  0  0  0  0  0  0  0  0
    4.7041   -2.5961    0.6279 O   0  0  0  0  0  0  0  0  0  0  0  0
    4.9286   -0.2539    0.3874 N   0  0  0  0  0  0  0  0  0  0  0  0
    6.3038   -0.1106    0.0166 C   0  0  0  0  0  0  0  0  0  0  0  0
    6.9114    1.1508   -0.1072 C   0  0  0  0  0  0  0  0  0  0  0  0
    8.2577    1.2899   -0.4723 C   0  0  0  0  0  0  0  0  0  0  0  0
    9.0338    0.1675   -0.7267 C   0  0  0  0  0  0  0  0  0  0  0  0
    8.4613   -1.0923   -0.6178 C   0  0  0  0  0  0  0  0  0  0  0  0
    7.1149   -1.2271   -0.2524 C   0  0  0  0  0  0  0  0  0  0  0  0
    4.0406    0.7810    0.6205 C   0  0  0  0  0  0  0  0  0  0  0  0
    4.2244    1.9921    0.5736 O   0  0  0  0  0  0  0  0  0  0  0  0
   -3.8559   -0.8564   -1.3227 C   0  0  0  0  0  0  0  0  0  0  0  0
   -3.9382   -1.1634   -2.6063 N   0  0  0  0  0  0  0  0  0  0  0  0
   -4.4512   -2.4296   -2.7283 N   0  0  0  0  0  0  0  0  0  0  0  0
   -4.6796   -2.8857   -1.5198 C   0  0  0  0  0  0  0  0  0  0  0  0
   -5.1980   -4.1223   -1.0482 C   0  0  0  0  0  0  0  0  0  0  0  0
   -5.3302   -4.3263    0.2763 C   0  0  0  0  0  0  0  0  0  0  0  0
   -4.9547   -3.3048    1.2405 C   0  0  0  0  0  0  0  0  0  0  0  0
   -4.4630   -2.1347    0.7965 C   0  0  0  0  0  0  0  0  0  0  0  0
   -4.3249   -1.9252   -0.5789 N   0  0  0  0  0  0  0  0  0  0  0  0
   -3.2177    2.3702    2.1465 H   0  0  0  0  0  0  0  0  0  0  0  0
   -2.0948    2.8095    0.8427 H   0  0  0  0  0  0  0  0  0  0  0  0
   -3.1122    4.0412    1.5801 H   0  0  0  0  0  0  0  0  0  0  0  0
   -5.1250    3.1168    0.6787 H   0  0  0  0  0  0  0  0  0  0  0  0
   -3.9599    4.6080   -0.8282 H   0  0  0  0  0  0  0  0  0  0  0  0
   -2.9780    3.2997   -1.4901 H   0  0  0  0  0  0  0  0  0  0  0  0
   -4.7280    3.3340   -1.7847 H   0  0  0  0  0  0  0  0  0  0  0  0
   -4.6475    0.7512    0.9320 H   0  0  0  0  0  0  0  0  0  0  0  0
   -5.3776    1.1584   -0.6044 H   0  0  0  0  0  0  0  0  0  0  0  0
   -3.0628    1.0448   -1.6737 H   0  0  0  0  0  0  0  0  0  0  0  0
   -2.2140   -0.4147    0.7975 H   0  0  0  0  0  0  0  0  0  0  0  0
    0.1920   -0.9594    0.5007 H   0  0  0  0  0  0  0  0  0  0  0  0
   -0.0205    0.4751    1.5291 H   0  0  0  0  0  0  0  0  0  0  0  0
    1.7831    0.3396   -0.9515 H   0  0  0  0  0  0  0  0  0  0  0  0
    1.5480    1.7562    0.0560 H   0  0  0  0  0  0  0  0  0  0  0  0
    2.4797    0.4332    2.0598 H   0  0  0  0  0  0  0  0  0  0  0  0
    2.3772   -1.9614    1.2362 H   0  0  0  0  0  0  0  0  0  0  0  0
    6.3697    2.0730    0.0766 H   0  0  0  0  0  0  0  0  0  0  0  0
    8.6926    2.2830   -0.5566 H   0  0  0  0  0  0  0  0  0  0  0  0
   10.0771    0.2741   -1.0108 H   0  0  0  0  0  0  0  0  0  0  0  0
    9.0562   -1.9801   -0.8188 H   0  0  0  0  0  0  0  0  0  0  0  0
    6.7334   -2.2421   -0.1984 H   0  0  0  0  0  0  0  0  0  0  0  0
   -5.4772   -4.8786   -1.7734 H   0  0  0  0  0  0  0  0  0  0  0  0
   -5.7255   -5.2648    0.6548 H   0  0  0  0  0  0  0  0  0  0  0  0
   -5.0854   -3.5120    2.2979 H   0  0  0  0  0  0  0  0  0  0  0  0
   -4.1756   -1.3450    1.4745 H   0  0  0  0  0  0  0  0  0  0  0  0
  1  2  1  0
  2  3  1  0
  2  4  1  0
  4  5  1  0
  5  6  1  0
  6  7  1  0
  7  8  2  0
  7  9  1  0
  9 10  1  0
 10 11  1  0
 11 12  1  0
 12 13  1  0
 13 14  2  0
 13 15  1  0
 15 16  1  0
 16 17  2  0
 17 18  1  0
 18 19  2  0
 19 20  1  0
 20 21  2  0
 15 22  1  0
 22 23  2  0
  5 24  1  0
 24 25  2  0
 25 26  1  0
 26 27  2  0
 27 28  1  0
 28 29  2  0
 29 30  1  0
 30 31  2  0
 31 32  1  0
 22 11  1  0
 32 24  1  0
 21 16  1  0
 32 27  1  0
  1 33  1  0
  1 34  1  0
  1 35  1  0
  2 36  1  0
  3 37  1  0
  3 38  1  0
  3 39  1  0
  4 40  1  0
  4 41  1  0
  5 42  1  0
  6 43  1  0
  9 44  1  0
  9 45  1  0
 10 46  1  0
 10 47  1  0
 11 48  1  0
 12 49  1  0
 17 50  1  0
 18 51  1  0
 19 52  1  0
 20 53  1  0
 21 54  1  0
 28 55  1  0
 29 56  1  0
 30 57  1  0
 31 58  1  0
M  END
$$$$
