
     RDKit          3D

 52 56  0  0  0  0  0  0  0  0999 V2000
    9.0869    0.5258   -2.2722 C   0  0  0  0  0  0  0  0  0  0  0  0
    8.5558   -0.4034   -1.3356 O   0  0  0  0  0  0  0  0  0  0  0  0
    7.2669   -0.1998   -0.9277 C   0  0  0  0  0  0  0  0  0  0  0  0
    6.7900   -1.1349   -0.0079 C   0  0  0  0  0  0  0  0  0  0  0  0
    5.4864   -1.0473    0.4952 C   0  0  0  0  0  0  0  0  0  0  0  0
    4.6312   -0.0165    0.0848 C   0  0  0  0  0  0  0  0  0  0  0  0
    3.2603    0.0933    0.6025 C   0  0  0  0  0  0  0  0  0  0  0  0
    2.6147   -0.7322    1.5588 C   0  0  0  0  0  0  0  0  0  0  0  0
    1.3501   -0.2121    1.6983 C   0  0  0  0  0  0  0  0  0  0  0  0
    0.2295   -0.6066    2.5151 C   0  0  0  0  0  0  0  0  0  0  0  0
    0.2765   -1.5692    3.2760 O   0  0  0  0  0  0  0  0  0  0  0  0
   -0.9132    0.2042    2.3797 N   0  0  0  0  0  0  0  0  0  0  0  0
   -2.1097   -0.1595    3.1457 C   0  0  0  0  0  0  0  0  0  0  0  0
   -3.0126   -1.0267    2.3335 C   0  0  0  0  0  0  0  0  0  0  0  0
   -3.3664   -2.2624    2.7112 N   0  0  0  0  0  0  0  0  0  0  0  0
   -4.2037   -2.6874    1.6806 O   0  0  0  0  0  0  0  0  0  0  0  0
   -4.2878   -1.6540    0.7895 C   0  0  0  0  0  0  0  0  0  0  0  0
   -5.1368   -1.9074   -0.4167 C   0  0  0  0  0  0  0  0  0  0  0  0
   -5.6587   -0.7490   -1.1546 N   0  0  0  0  0  0  0  0  0  0  0  0
   -4.6502    0.0599   -1.8309 C   0  0  0  0  0  0  0  0  0  0  0  0
   -5.4183    1.3169   -2.2238 C   0  0  0  0  0  0  0  0  0  0  0  0
   -6.6577    1.3331   -1.3330 C   0  0  0  0  0  0  0  0  0  0  0  0
   -6.4648    0.1755   -0.3660 C   0  0  0  0  0  0  0  0  0  0  0  0
   -3.5833   -0.6027    1.1544 N   0  0  0  0  0  0  0  0  0  0  0  0
   -0.9616    1.2853    1.5039 C   0  0  0  0  0  0  0  0  0  0  0  0
    0.1044    1.6118    0.7622 C   0  0  0  0  0  0  0  0  0  0  0  0
    1.2709    0.8682    0.8542 N   0  0  0  0  0  0  0  0  0  0  0  0
    2.4282    1.0635    0.1847 N   0  0  0  0  0  0  0  0  0  0  0  0
    5.1203    0.9181   -0.8413 C   0  0  0  0  0  0  0  0  0  0  0  0
    6.4257    0.8295   -1.3441 C   0  0  0  0  0  0  0  0  0  0  0  0
   10.1156    0.2255   -2.4941 H   0  0  0  0  0  0  0  0  0  0  0  0
    9.1186    1.5363   -1.8511 H   0  0  0  0  0  0  0  0  0  0  0  0
    8.5242    0.5053   -3.2115 H   0  0  0  0  0  0  0  0  0  0  0  0
    7.4397   -1.9424    0.3223 H   0  0  0  0  0  0  0  0  0  0  0  0
    5.1627   -1.8004    1.2079 H   0  0  0  0  0  0  0  0  0  0  0  0
    3.0042   -1.5926    2.0848 H   0  0  0  0  0  0  0  0  0  0  0  0
   -1.8188   -0.6684    4.0717 H   0  0  0  0  0  0  0  0  0  0  0  0
   -2.6378    0.7565    3.4370 H   0  0  0  0  0  0  0  0  0  0  0  0
   -5.9950   -2.5191   -0.1093 H   0  0  0  0  0  0  0  0  0  0  0  0
   -4.5634   -2.5351   -1.1105 H   0  0  0  0  0  0  0  0  0  0  0  0
   -4.2423   -0.4478   -2.7109 H   0  0  0  0  0  0  0  0  0  0  0  0
   -3.8159    0.3382   -1.1789 H   0  0  0  0  0  0  0  0  0  0  0  0
   -4.8083    2.2140   -2.0729 H   0  0  0  0  0  0  0  0  0  0  0  0
   -5.7147    1.2857   -3.2785 H   0  0  0  0  0  0  0  0  0  0  0  0
   -7.5541    1.1764   -1.9454 H   0  0  0  0  0  0  0  0  0  0  0  0
   -6.7723    2.2879   -0.8099 H   0  0  0  0  0  0  0  0  0  0  0  0
   -5.9467    0.5317    0.5315 H   0  0  0  0  0  0  0  0  0  0  0  0
   -7.4236   -0.2600   -0.0674 H   0  0  0  0  0  0  0  0  0  0  0  0
   -1.8934    1.8406    1.4395 H   0  0  0  0  0  0  0  0  0  0  0  0
    0.1187    2.4399    0.0661 H   0  0  0  0  0  0  0  0  0  0  0  0
    4.4830    1.7323   -1.1830 H   0  0  0  0  0  0  0  0  0  0  0  0
    6.7465    1.5814   -2.0571 H   0  0  0  0  0  0  0  0  0  0  0  0
  1  2  1  0
  2  3  1  0
  3  4  2  0
  4  5  1  0
  5  6  2  0
  6  7  1  0
  7  8  1  0
  8  9  2  0
  9 10  1  0
 10 11  2  0
 10 12  1  0
 12 13  1  0
 13 14  1  0
 14 15  2  0
 15 16  1  0
 16 17  1  0
 17 18  1  0
 18 19  1  0
 19 20  1  0
 20 21  1  0
 21 22  1  0
 22 23  1  0
 17 24  2  0
 12 25  1  0
 25 26  2  0
 26 27  1  0
 27 28  1  0
  6 29  1  0
 29 30  2  0
 30  3  1  0
 28  7  2  0
 27  9  1  0
 24 14  1  0
 23 19  1  0
  1 31  1  0
  1 32  1  0
  1 33  1  0
  4 34  1  0
  5 35  1  0
  8 36  1  0
 13 37  1  0
 13 38  1  0
 18 39  1  0
 18 40  1  0
 20 41  1  0
 20 42  1  0
 21 43  1  0
 21 44  1  0
 22 45  1  0
 22 46  1  0
 23 47  1  0
 23 48  1  0
 25 49  1  0
 26 50  1  0
 29 51  1  0
 30 52  1  0
M  END
$$$$
