
     RDKit          3D

 51 54  0  0  0  0  0  0  0  0999 V2000
   -1.8618   -1.9634    2.2141 C   0  0  0  0  0  0  0  0  0  0  0  0
   -2.7539   -1.2486    1.3740 O   0  0  0  0  0  0  0  0  0  0  0  0
   -2.2077   -0.3869    0.4569 C   0  0  0  0  0  0  0  0  0  0  0  0
   -0.8491   -0.0661    0.3714 C   0  0  0  0  0  0  0  0  0  0  0  0
   -0.3914    0.8224   -0.6189 C   0  0  0  0  0  0  0  0  0  0  0  0
    1.0476    1.1951   -0.7230 C   0  0  0  0  0  0  0  0  0  0  0  0
    1.3256    2.3406   -1.0593 O   0  0  0  0  0  0  0  0  0  0  0  0
    1.9334    0.1685   -0.4566 N   0  0  0  0  0  0  0  0  0  0  0  0
    3.3502    0.2002   -0.4202 C   0  0  0  0  0  0  0  0  0  0  0  0
    4.0510    1.4120   -0.5328 C   0  0  0  0  0  0  0  0  0  0  0  0
    5.4473    1.4416   -0.4929 C   0  0  0  0  0  0  0  0  0  0  0  0
    6.1636    2.5964   -0.6355 O   0  0  0  0  0  0  0  0  0  0  0  0
    5.9181    3.5353    0.4074 C   0  0  0  0  0  0  0  0  0  0  0  0
    6.8722    4.4925    0.3547 F   0  0  0  0  0  0  0  0  0  0  0  0
    4.7194    4.1333    0.2612 F   0  0  0  0  0  0  0  0  0  0  0  0
    5.9855    2.9450    1.6209 F   0  0  0  0  0  0  0  0  0  0  0  0
    6.1702    0.2576   -0.3901 C   0  0  0  0  0  0  0  0  0  0  0  0
    5.4993   -0.9591   -0.2622 C   0  0  0  0  0  0  0  0  0  0  0  0
    4.0892   -1.0047   -0.2615 C   0  0  0  0  0  0  0  0  0  0  0  0
    3.4462   -2.2706   -0.1049 N   0  0  0  0  0  0  0  0  0  0  0  0
    4.0113   -3.5184    0.0318 C   0  0  0  0  0  0  0  0  0  0  0  0
    3.0833   -4.4384    0.1672 N   0  0  0  0  0  0  0  0  0  0  0  0
    1.9332   -3.7194    0.1060 C   0  0  0  0  0  0  0  0  0  0  0  0
    2.0865   -2.4040   -0.0468 N   0  0  0  0  0  0  0  0  0  0  0  0
   -1.2954    1.4079   -1.5156 C   0  0  0  0  0  0  0  0  0  0  0  0
   -2.6491    1.0923   -1.4380 C   0  0  0  0  0  0  0  0  0  0  0  0
   -3.1000    0.2157   -0.4461 C   0  0  0  0  0  0  0  0  0  0  0  0
   -4.4428   -0.0638   -0.4333 O   0  0  0  0  0  0  0  0  0  0  0  0
   -5.1062    0.6450    0.6128 C   0  0  0  0  0  0  0  0  0  0  0  0
   -6.5705    0.8094    0.2965 C   0  0  0  0  0  0  0  0  0  0  0  0
   -7.4197   -0.3825   -0.0671 C   0  0  0  0  0  0  0  0  0  0  0  0
   -7.1199    0.6713   -1.1019 C   0  0  0  0  0  0  0  0  0  0  0  0
   -1.3428   -1.2845    2.8985 H   0  0  0  0  0  0  0  0  0  0  0  0
   -2.4551   -2.6588    2.8177 H   0  0  0  0  0  0  0  0  0  0  0  0
   -1.1518   -2.5549    1.6284 H   0  0  0  0  0  0  0  0  0  0  0  0
   -0.1361   -0.4774    1.0807 H   0  0  0  0  0  0  0  0  0  0  0  0
    1.5370   -0.7677   -0.3501 H   0  0  0  0  0  0  0  0  0  0  0  0
    3.5184    2.3495   -0.6661 H   0  0  0  0  0  0  0  0  0  0  0  0
    7.2595    0.2786   -0.3968 H   0  0  0  0  0  0  0  0  0  0  0  0
    6.1177   -1.8495   -0.1647 H   0  0  0  0  0  0  0  0  0  0  0  0
    5.0752   -3.7065    0.0274 H   0  0  0  0  0  0  0  0  0  0  0  0
    0.9475   -4.1676    0.1656 H   0  0  0  0  0  0  0  0  0  0  0  0
   -0.9448    2.1064   -2.2752 H   0  0  0  0  0  0  0  0  0  0  0  0
   -3.3560    1.5345   -2.1373 H   0  0  0  0  0  0  0  0  0  0  0  0
   -5.0132    0.0880    1.5532 H   0  0  0  0  0  0  0  0  0  0  0  0
   -4.6676    1.6426    0.7497 H   0  0  0  0  0  0  0  0  0  0  0  0
   -7.0273    1.5530    0.9421 H   0  0  0  0  0  0  0  0  0  0  0  0
   -6.9356   -1.3493   -0.1699 H   0  0  0  0  0  0  0  0  0  0  0  0
   -8.4220   -0.4318    0.3385 H   0  0  0  0  0  0  0  0  0  0  0  0
   -7.9208    1.3357   -1.4025 H   0  0  0  0  0  0  0  0  0  0  0  0
   -6.4477    0.4036   -1.9072 H   0  0  0  0  0  0  0  0  0  0  0  0
  1  2  1  0
  2  3  1  0
  3  4  2  0
  4  5  1  0
  5  6  1  0
  6  7  2  0
  6  8  1  0
  8  9  1  0
  9 10  2  0
 10 11  1  0
 11 12  1  0
 12 13  1  0
 13 14  1  0
 13 15  1  0
 13 16  1  0
 11 17  2  0
 17 18  1  0
 18 19  2  0
 19 20  1  0
 20 21  1  0
 21 22  2  0
 22 23  1  0
 23 24  2  0
  5 25  2  0
 25 26  1  0
 26 27  2  0
 27 28  1  0
 28 29  1  0
 29 30  1  0
 30 31  1  0
 31 32  1  0
 27  3  1  0
 32 30  1  0
 19  9  1  0
 24 20  1  0
  1 33  1  0
  1 34  1  0
  1 35  1  0
  4 36  1  0
  8 37  1  0
 10 38  1  0
 17 39  1  0
 18 40  1  0
 21 41  1  0
 23 42  1  0
 25 43  1  0
 26 44  1  0
 29 45  1  0
 29 46  1  0
 30 47  1  0
 31 48  1  0
 31 49  1  0
 32 50  1  0
 32 51  1  0
M  END
$$$$
