
     RDKit          3D

 15 13  0  0  0  0  0  0  0  0999 V2000
   -0.8250   -1.0874    0.0691 C   0  0  0  0  0  0  0  0  0  0  0  0
   -0.0397    0.0807    0.3495 N   0  0  0  0  0  0  0  0  0  0  0  0
    1.3616   -0.1113    0.3302 C   0  0  0  0  0  0  0  0  0  0  0  0
   -0.5215    1.2310   -0.3485 C   0  0  0  0  0  0  0  0  0  0  0  0
    0.6898    0.0000    0.0000 Cl  0  0  0  0  0  0  0  0  0  0  0  0
   -1.6063   -0.8424   -0.6987 H   0  0  0  0  0  0  0  0  0  0  0  0
   -0.1767   -1.9187   -0.2369 H   0  0  0  0  0  0  0  0  0  0  0  0
   -1.3721   -1.3440    1.0150 H   0  0  0  0  0  0  0  0  0  0  0  0
    1.5919   -1.2027    0.2581 H   0  0  0  0  0  0  0  0  0  0  0  0
    1.8444    0.2153    1.2958 H   0  0  0  0  0  0  0  0  0  0  0  0
    1.9087    0.4310   -0.4594 H   0  0  0  0  0  0  0  0  0  0  0  0
   -1.2198    0.8920   -1.1588 H   0  0  0  0  0  0  0  0  0  0  0  0
   -1.1892    1.7885    0.3708 H   0  0  0  0  0  0  0  0  0  0  0  0
    0.2438    1.8680   -0.7862 H   0  0  0  0  0  0  0  0  0  0  0  0
   -0.6898    0.0000    0.0000 H   0  0  0  0  0  0  0  0  0  0  0  0
  1  2  1  0
  2  3  1  0
  2  4  1  0
  1  6  1  0
  1  7  1  0
  1  8  1  0
  3  9  1  0
  3 10  1  0
  3 11  1  0
  4 12  1  0
  4 13  1  0
  4 14  1  0
  5 15  1  0
M  END
$$$$
