
     RDKit          3D

 60 63  0  0  0  0  0  0  0  0999 V2000
    6.0675    2.6713   -0.2801 C   0  0  0  0  0  0  0  0  0  0  0  0
    6.5334    2.3665    1.1166 C   0  0  0  0  0  0  0  0  0  0  0  0
    7.7064    2.9585    1.4736 N   0  0  0  0  0  0  0  0  0  0  0  0
    8.1840    2.6940    2.7074 C   0  0  0  0  0  0  0  0  0  0  0  0
    7.5499    1.8561    3.6031 C   0  0  0  0  0  0  0  0  0  0  0  0
    8.2269    1.5530    5.1550 Cl  0  0  0  0  0  0  0  0  0  0  0  0
    6.3518    1.2578    3.2232 C   0  0  0  0  0  0  0  0  0  0  0  0
    5.7854    1.5247    1.9700 C   0  0  0  0  0  0  0  0  0  0  0  0
    4.6229    0.8865    1.5180 N   0  0  0  0  0  0  0  0  0  0  0  0
    3.6847    0.2877    2.4580 C   0  0  0  0  0  0  0  0  0  0  0  0
    2.4677   -0.2633    1.7687 C   0  0  0  0  0  0  0  0  0  0  0  0
    2.3164   -1.5035    1.1778 C   0  0  0  0  0  0  0  0  0  0  0  0
    1.0308   -1.6584    0.5800 C   0  0  0  0  0  0  0  0  0  0  0  0
    0.2337   -0.5408    0.7337 C   0  0  0  0  0  0  0  0  0  0  0  0
   -1.1125   -0.2836    0.2480 C   0  0  0  0  0  0  0  0  0  0  0  0
   -1.9033    0.4914    0.7779 O   0  0  0  0  0  0  0  0  0  0  0  0
   -1.4299   -0.9399   -0.9247 N   0  0  0  0  0  0  0  0  0  0  0  0
   -2.6417   -0.6694   -1.6903 C   0  0  1  0  0  0  0  0  0  0  0  0
   -3.9751   -0.9628   -0.9784 C   0  0  0  0  0  0  0  0  0  0  0  0
   -4.3532   -2.4274   -0.7273 C   0  0  0  0  0  0  0  0  0  0  0  0
   -3.4673   -3.2106    0.2346 C   0  0  0  0  0  0  0  0  0  0  0  0
   -3.9116   -4.6596    0.0408 C   0  0  0  0  0  0  0  0  0  0  0  0
   -4.5216   -4.7345   -1.3592 C   0  0  0  0  0  0  0  0  0  0  0  0
   -4.3710   -3.3385   -1.9526 C   0  0  0  0  0  0  0  0  0  0  0  0
   -2.5586    0.7638   -2.2684 C   0  0  0  0  0  0  0  0  0  0  0  0
   -2.0346    0.9904   -3.3568 O   0  0  0  0  0  0  0  0  0  0  0  0
   -2.9913    1.7621   -1.4131 N   0  0  0  0  0  0  0  0  0  0  0  0
   -2.8595    3.1447   -1.7413 C   0  0  0  0  0  0  0  0  0  0  0  0
   -3.7266    3.7871   -2.7862 C   0  0  0  0  0  0  0  0  0  0  0  0
   -3.9427    4.1059   -1.3362 C   0  0  0  0  0  0  0  0  0  0  0  0
    1.0467    0.6858    1.6208 S   0  0  0  0  0  0  0  0  0  0  0  0
    5.0880    3.1592   -0.2594 H   0  0  0  0  0  0  0  0  0  0  0  0
    6.7637    3.3496   -0.7830 H   0  0  0  0  0  0  0  0  0  0  0  0
    6.0089    1.7554   -0.8714 H   0  0  0  0  0  0  0  0  0  0  0  0
    9.1199    3.1844    2.9567 H   0  0  0  0  0  0  0  0  0  0  0  0
    5.8738    0.5752    3.9201 H   0  0  0  0  0  0  0  0  0  0  0  0
    4.1324    1.4284    0.8123 H   0  0  0  0  0  0  0  0  0  0  0  0
    3.3879    1.0248    3.2084 H   0  0  0  0  0  0  0  0  0  0  0  0
    4.1674   -0.5364    2.9869 H   0  0  0  0  0  0  0  0  0  0  0  0
    3.1000   -2.2591    1.1667 H   0  0  0  0  0  0  0  0  0  0  0  0
    0.7124   -2.5565    0.0711 H   0  0  0  0  0  0  0  0  0  0  0  0
   -0.6680   -1.3663   -1.4333 H   0  0  0  0  0  0  0  0  0  0  0  0
   -2.5784   -1.3198   -2.5689 H   0  0  0  0  0  0  0  0  0  0  0  0
   -4.0297   -0.4385   -0.0175 H   0  0  0  0  0  0  0  0  0  0  0  0
   -4.7769   -0.5297   -1.5930 H   0  0  0  0  0  0  0  0  0  0  0  0
   -5.3695   -2.4138   -0.3051 H   0  0  0  0  0  0  0  0  0  0  0  0
   -2.4139   -3.1310   -0.0331 H   0  0  0  0  0  0  0  0  0  0  0  0
   -3.5801   -2.8800    1.2699 H   0  0  0  0  0  0  0  0  0  0  0  0
   -4.6609   -4.9320    0.7886 H   0  0  0  0  0  0  0  0  0  0  0  0
   -3.0718   -5.3511    0.1526 H   0  0  0  0  0  0  0  0  0  0  0  0
   -4.0295   -5.4868   -1.9796 H   0  0  0  0  0  0  0  0  0  0  0  0
   -5.5781   -5.0061   -1.2892 H   0  0  0  0  0  0  0  0  0  0  0  0
   -3.4301   -3.2967   -2.5063 H   0  0  0  0  0  0  0  0  0  0  0  0
   -5.1816   -3.0944   -2.6426 H   0  0  0  0  0  0  0  0  0  0  0  0
   -2.9561    1.5244   -0.4179 H   0  0  0  0  0  0  0  0  0  0  0  0
   -1.8362    3.5006   -1.6681 H   0  0  0  0  0  0  0  0  0  0  0  0
   -4.4561    3.1656   -3.2936 H   0  0  0  0  0  0  0  0  0  0  0  0
   -3.2701    4.5393   -3.4190 H   0  0  0  0  0  0  0  0  0  0  0  0
   -3.6415    5.0845   -0.9831 H   0  0  0  0  0  0  0  0  0  0  0  0
   -4.8335    3.7121   -0.8622 H   0  0  0  0  0  0  0  0  0  0  0  0
  1  2  1  0
  2  3  2  0
  3  4  1  0
  4  5  2  0
  5  6  1  0
  5  7  1  0
  7  8  2  0
  8  9  1  0
  9 10  1  0
 10 11  1  0
 11 12  2  0
 12 13  1  0
 13 14  2  0
 14 15  1  0
 15 16  2  0
 15 17  1  0
 17 18  1  0
 18 19  1  0
 19 20  1  0
 20 21  1  0
 21 22  1  0
 22 23  1  0
 23 24  1  0
 18 25  1  0
 25 26  2  0
 25 27  1  0
 27 28  1  0
 28 29  1  0
 29 30  1  0
 14 31  1  0
  8  2  1  0
 31 11  1  0
 24 20  1  0
 30 28  1  0
  1 32  1  0
  1 33  1  0
  1 34  1  0
  4 35  1  0
  7 36  1  0
  9 37  1  0
 10 38  1  0
 10 39  1  0
 12 40  1  0
 13 41  1  0
 17 42  1  0
 18 43  1  6
 19 44  1  0
 19 45  1  0
 20 46  1  0
 21 47  1  0
 21 48  1  0
 22 49  1  0
 22 50  1  0
 23 51  1  0
 23 52  1  0
 24 53  1  0
 24 54  1  0
 27 55  1  0
 28 56  1  0
 29 57  1  0
 29 58  1  0
 30 59  1  0
 30 60  1  0
M  END
$$$$
