
     RDKit          3D

 94 99  0  0  0  0  0  0  0  0999 V2000
   -9.7715    3.1637    0.7471 C   0  0  0  0  0  0  0  0  0  0  0  0
   -9.4278    1.9040    0.1867 O   0  0  0  0  0  0  0  0  0  0  0  0
   -8.0979    1.6036    0.0758 C   0  0  0  0  0  0  0  0  0  0  0  0
   -7.0490    2.4464    0.4420 C   0  0  0  0  0  0  0  0  0  0  0  0
   -5.7095    2.0388    0.2855 C   0  0  0  0  0  0  0  0  0  0  0  0
   -5.3932    0.7903   -0.2635 C   0  0  0  0  0  0  0  0  0  0  0  0
   -6.4577   -0.0410   -0.6559 C   0  0  0  0  0  0  0  0  0  0  0  0
   -7.7874    0.3468   -0.4533 C   0  0  0  0  0  0  0  0  0  0  0  0
   -8.8030   -0.4831   -0.8620 O   0  0  0  0  0  0  0  0  0  0  0  0
   -8.9513   -1.6331   -0.0138 C   0  0  0  0  0  0  0  0  0  0  0  0
   -9.6409   -2.7089   -0.8485 C   0  0  0  0  0  0  0  0  0  0  0  0
   -9.8005   -1.2895    1.2060 C   0  0  0  0  0  0  0  0  0  0  0  0
   -3.9139    0.4373   -0.4892 C   0  0  2  0  0  0  0  0  0  0  0  0
   -3.7227   -1.0849   -0.6147 C   0  0  0  0  0  0  0  0  0  0  0  0
   -3.5344   -1.6697   -1.8810 C   0  0  0  0  0  0  0  0  0  0  0  0
   -3.3715   -3.0500   -2.0066 C   0  0  0  0  0  0  0  0  0  0  0  0
   -3.4031   -3.8580   -0.8716 C   0  0  0  0  0  0  0  0  0  0  0  0
   -3.1990   -5.5580   -1.0321 Cl  0  0  0  0  0  0  0  0  0  0  0  0
   -3.6027   -3.3005    0.3887 C   0  0  0  0  0  0  0  0  0  0  0  0
   -3.7677   -1.9205    0.5171 C   0  0  0  0  0  0  0  0  0  0  0  0
   -3.0244    1.0564    0.5384 N   0  0  0  0  0  0  0  0  0  0  0  0
   -1.6724    0.5852    0.6955 C   0  0  0  0  0  0  0  0  0  0  0  0
   -0.9072    0.1379   -0.3810 C   0  0  0  0  0  0  0  0  0  0  0  0
    0.4123   -0.3093   -0.1922 C   0  0  0  0  0  0  0  0  0  0  0  0
    1.0308   -0.3293    1.0674 C   0  0  0  0  0  0  0  0  0  0  0  0
    2.3428   -0.7553    1.2489 N   0  0  0  0  0  0  0  0  0  0  0  0
    2.8552   -0.9838    2.5973 C   0  0  0  0  0  0  0  0  0  0  0  0
    3.3050   -0.8336    0.1388 C   0  0  0  0  0  0  0  0  0  0  0  0
    3.6922    0.5594   -0.4172 C   0  0  1  0  0  0  0  0  0  0  0  0
    4.5158    1.3999    0.5766 C   0  0  0  0  0  0  0  0  0  0  0  0
    5.9661    1.6568    0.1506 C   0  0  0  0  0  0  0  0  0  0  0  0
    6.6316    0.3761   -0.3873 C   0  0  2  0  0  0  0  0  0  0  0  0
    8.0695    0.5134   -0.7401 N   0  0  0  0  0  0  0  0  0  0  0  0
    8.8746    1.1952    0.2834 C   0  0  0  0  0  0  0  0  0  0  0  0
   10.3090    1.3937   -0.2192 C   0  0  0  0  0  0  0  0  0  0  0  0
   10.9466    0.1627   -0.6553 N   0  0  0  0  0  0  0  0  0  0  0  0
   12.3656    0.2261   -0.9529 C   0  0  0  0  0  0  0  0  0  0  0  0
   10.1798   -0.8013   -1.3034 C   0  0  0  0  0  0  0  0  0  0  0  0
   10.6852   -1.6796   -2.0067 O   0  0  0  0  0  0  0  0  0  0  0  0
    8.6743   -0.8249   -0.9975 C   0  0  0  0  0  0  0  0  0  0  0  0
    5.8431   -0.1308   -1.6231 C   0  0  0  0  0  0  0  0  0  0  0  0
    4.4244    0.4245   -1.7557 C   0  0  0  0  0  0  0  0  0  0  0  0
    0.2362    0.1113    2.1361 C   0  0  0  0  0  0  0  0  0  0  0  0
   -1.0795    0.5660    1.9583 C   0  0  0  0  0  0  0  0  0  0  0  0
   -3.3232    2.3148    1.0839 C   0  0  0  0  0  0  0  0  0  0  0  0
   -2.5827    2.9475    1.8432 O   0  0  0  0  0  0  0  0  0  0  0  0
   -4.5998    2.9822    0.6279 C   0  0  0  0  0  0  0  0  0  0  0  0
   -9.3904    3.9876    0.1353 H   0  0  0  0  0  0  0  0  0  0  0  0
   -9.4185    3.2421    1.7800 H   0  0  0  0  0  0  0  0  0  0  0  0
  -10.8633    3.2369    0.7580 H   0  0  0  0  0  0  0  0  0  0  0  0
   -7.2429    3.4358    0.8462 H   0  0  0  0  0  0  0  0  0  0  0  0
   -6.2782   -1.0014   -1.1323 H   0  0  0  0  0  0  0  0  0  0  0  0
   -7.9798   -2.0260    0.3096 H   0  0  0  0  0  0  0  0  0  0  0  0
  -10.6234   -2.3653   -1.1943 H   0  0  0  0  0  0  0  0  0  0  0  0
   -9.7726   -3.6340   -0.2791 H   0  0  0  0  0  0  0  0  0  0  0  0
   -9.0526   -2.9313   -1.7457 H   0  0  0  0  0  0  0  0  0  0  0  0
  -10.7492   -0.8311    0.9047 H   0  0  0  0  0  0  0  0  0  0  0  0
   -9.2881   -0.5646    1.8480 H   0  0  0  0  0  0  0  0  0  0  0  0
  -10.0124   -2.1804    1.8052 H   0  0  0  0  0  0  0  0  0  0  0  0
   -3.6370    0.9110   -1.4419 H   0  0  0  0  0  0  0  0  0  0  0  0
   -3.5115   -1.0558   -2.7791 H   0  0  0  0  0  0  0  0  0  0  0  0
   -3.2213   -3.4900   -2.9889 H   0  0  0  0  0  0  0  0  0  0  0  0
   -3.6269   -3.9291    1.2751 H   0  0  0  0  0  0  0  0  0  0  0  0
   -3.9206   -1.4929    1.5064 H   0  0  0  0  0  0  0  0  0  0  0  0
   -1.2880    0.1578   -1.3965 H   0  0  0  0  0  0  0  0  0  0  0  0
    0.9458   -0.6425   -1.0770 H   0  0  0  0  0  0  0  0  0  0  0  0
    2.9607   -0.0395    3.1419 H   0  0  0  0  0  0  0  0  0  0  0  0
    2.1988   -1.6572    3.1615 H   0  0  0  0  0  0  0  0  0  0  0  0
    3.8434   -1.4578    2.5799 H   0  0  0  0  0  0  0  0  0  0  0  0
    4.2110   -1.3601    0.4633 H   0  0  0  0  0  0  0  0  0  0  0  0
    2.8933   -1.4663   -0.6565 H   0  0  0  0  0  0  0  0  0  0  0  0
    2.7681    1.1149   -0.6204 H   0  0  0  0  0  0  0  0  0  0  0  0
    4.0240    2.3707    0.7200 H   0  0  0  0  0  0  0  0  0  0  0  0
    4.5272    0.9317    1.5672 H   0  0  0  0  0  0  0  0  0  0  0  0
    6.4855    2.0392    1.0357 H   0  0  0  0  0  0  0  0  0  0  0  0
    6.0012    2.4509   -0.6065 H   0  0  0  0  0  0  0  0  0  0  0  0
    6.5444   -0.3762    0.4095 H   0  0  0  0  0  0  0  0  0  0  0  0
    8.4890    2.1976    0.4922 H   0  0  0  0  0  0  0  0  0  0  0  0
    8.8738    0.6296    1.2240 H   0  0  0  0  0  0  0  0  0  0  0  0
   10.9155    1.8323    0.5811 H   0  0  0  0  0  0  0  0  0  0  0  0
   10.3131    2.0861   -1.0707 H   0  0  0  0  0  0  0  0  0  0  0  0
   12.5102    0.8169   -1.8629 H   0  0  0  0  0  0  0  0  0  0  0  0
   12.7759   -0.7765   -1.1061 H   0  0  0  0  0  0  0  0  0  0  0  0
   12.8910    0.6964   -0.1172 H   0  0  0  0  0  0  0  0  0  0  0  0
    8.1965   -1.2835   -1.8689 H   0  0  0  0  0  0  0  0  0  0  0  0
    8.5349   -1.4883   -0.1353 H   0  0  0  0  0  0  0  0  0  0  0  0
    5.8038   -1.2267   -1.5898 H   0  0  0  0  0  0  0  0  0  0  0  0
    6.3714    0.1227   -2.5509 H   0  0  0  0  0  0  0  0  0  0  0  0
    3.8502   -0.1968   -2.4531 H   0  0  0  0  0  0  0  0  0  0  0  0
    4.4795    1.4159   -2.2239 H   0  0  0  0  0  0  0  0  0  0  0  0
    0.6263    0.1370    3.1490 H   0  0  0  0  0  0  0  0  0  0  0  0
   -1.6326    0.8950    2.8345 H   0  0  0  0  0  0  0  0  0  0  0  0
   -4.9255    3.6406    1.4419 H   0  0  0  0  0  0  0  0  0  0  0  0
   -4.3660    3.6018   -0.2451 H   0  0  0  0  0  0  0  0  0  0  0  0
  1  2  1  0
  2  3  1  0
  3  4  2  0
  4  5  1  0
  5  6  2  0
  6  7  1  0
  7  8  2  0
  8  9  1  0
  9 10  1  0
 10 11  1  0
 10 12  1  0
  6 13  1  0
 13 14  1  0
 14 15  2  0
 15 16  1  0
 16 17  2  0
 17 18  1  0
 17 19  1  0
 19 20  2  0
 13 21  1  0
 21 22  1  0
 22 23  2  0
 23 24  1  0
 24 25  2  0
 25 26  1  0
 26 27  1  0
 26 28  1  0
 28 29  1  0
 29 30  1  0
 30 31  1  0
 31 32  1  0
 32 33  1  0
 33 34  1  0
 34 35  1  0
 35 36  1  0
 36 37  1  0
 36 38  1  0
 38 39  2  0
 38 40  1  0
 32 41  1  0
 41 42  1  0
 25 43  1  0
 43 44  2  0
 21 45  1  0
 45 46  2  0
 45 47  1  0
  8  3  1  0
 20 14  1  0
 44 22  1  0
 47  5  1  0
 42 29  1  0
 40 33  1  0
  1 48  1  0
  1 49  1  0
  1 50  1  0
  4 51  1  0
  7 52  1  0
 10 53  1  0
 11 54  1  0
 11 55  1  0
 11 56  1  0
 12 57  1  0
 12 58  1  0
 12 59  1  0
 13 60  1  6
 15 61  1  0
 16 62  1  0
 19 63  1  0
 20 64  1  0
 23 65  1  0
 24 66  1  0
 27 67  1  0
 27 68  1  0
 27 69  1  0
 28 70  1  0
 28 71  1  0
 29 72  1  6
 30 73  1  0
 30 74  1  0
 31 75  1  0
 31 76  1  0
 32 77  1  1
 34 78  1  0
 34 79  1  0
 35 80  1  0
 35 81  1  0
 37 82  1  0
 37 83  1  0
 37 84  1  0
 40 85  1  0
 40 86  1  0
 41 87  1  0
 41 88  1  0
 42 89  1  0
 42 90  1  0
 43 91  1  0
 44 92  1  0
 47 93  1  0
 47 94  1  0
M  END
$$$$
