
     RDKit          3D

 74 80  0  0  0  0  0  0  0  0999 V2000
   -7.4461    0.6120   -3.6618 C   0  0  0  0  0  0  0  0  0  0  0  0
   -6.8830   -0.0312   -2.5256 O   0  0  0  0  0  0  0  0  0  0  0  0
   -7.6155   -0.0092   -1.3691 C   0  0  0  0  0  0  0  0  0  0  0  0
   -8.8955    0.5565   -1.2213 C   0  0  0  0  0  0  0  0  0  0  0  0
   -9.5571    0.5178    0.0100 C   0  0  0  0  0  0  0  0  0  0  0  0
   -8.9032   -0.0880    1.0615 C   0  0  0  0  0  0  0  0  0  0  0  0
   -7.6247   -0.6539    0.9531 C   0  0  0  0  0  0  0  0  0  0  0  0
   -6.9833   -0.6213   -0.2762 C   0  0  0  0  0  0  0  0  0  0  0  0
   -7.2563   -1.2129    2.2983 C   0  0  1  0  0  0  0  0  0  0  0  0
   -6.4869   -2.4949    2.4361 C   0  0  0  0  0  0  0  0  0  0  0  0
   -5.8766   -1.1960    2.9245 C   0  0  1  0  0  0  0  0  0  0  0  0
   -4.6746   -0.5978    2.2299 C   0  0  0  0  0  0  0  0  0  0  0  0
   -3.5576   -1.3832    1.9006 C   0  0  0  0  0  0  0  0  0  0  0  0
   -2.4234   -0.8503    1.2669 C   0  0  0  0  0  0  0  0  0  0  0  0
   -2.3901    0.5223    0.9586 C   0  0  0  0  0  0  0  0  0  0  0  0
   -1.4793    1.4374    0.3418 C   0  0  0  0  0  0  0  0  0  0  0  0
   -0.1721    1.1602   -0.1766 C   0  0  0  0  0  0  0  0  0  0  0  0
    0.7072    0.2671    0.3087 C   0  0  0  0  0  0  0  0  0  0  0  0
    2.0430    0.0361   -0.2605 C   0  0  0  0  0  0  0  0  0  0  0  0
    2.5570   -1.2665   -0.2705 C   0  0  0  0  0  0  0  0  0  0  0  0
    3.8317   -1.5282   -0.7837 C   0  0  0  0  0  0  0  0  0  0  0  0
    4.6246   -0.4879   -1.2847 C   0  0  0  0  0  0  0  0  0  0  0  0
    5.9967   -0.7698   -1.8605 C   0  0  0  0  0  0  0  0  0  0  0  0
    7.0754   -0.0070   -1.2158 N   0  0  0  0  0  0  0  0  0  0  0  0
    7.2372   -0.3681    0.2070 C   0  0  0  0  0  0  0  0  0  0  0  0
    8.5652    0.1430    0.8120 C   0  0  2  0  0  0  0  0  0  0  0  0
    8.6225    1.6648    0.9127 C   0  0  0  0  0  0  0  0  0  0  0  0
    9.7328   -0.3045    0.1010 O   0  0  0  0  0  0  0  0  0  0  0  0
    9.4444   -0.9160   -1.1634 C   0  0  2  0  0  0  0  0  0  0  0  0
   10.7478   -0.9676   -1.9507 C   0  0  0  0  0  0  0  0  0  0  0  0
    8.3549   -0.1473   -1.9435 C   0  0  0  0  0  0  0  0  0  0  0  0
    4.1161    0.8178   -1.2601 C   0  0  0  0  0  0  0  0  0  0  0  0
    2.8422    1.0783   -0.7457 C   0  0  0  0  0  0  0  0  0  0  0  0
   -2.0094    2.6664    0.2543 N   0  0  0  0  0  0  0  0  0  0  0  0
   -3.2064    2.5513    0.8470 N   0  0  0  0  0  0  0  0  0  0  0  0
   -3.4997    1.2918    1.2869 C   0  0  0  0  0  0  0  0  0  0  0  0
   -4.6330    0.7760    1.9276 C   0  0  0  0  0  0  0  0  0  0  0  0
   -8.4662   -0.9241    3.1579 C   0  0  0  0  0  0  0  0  0  0  0  0
   -8.5898   -1.2331    4.3309 O   0  0  0  0  0  0  0  0  0  0  0  0
   -9.3783   -0.2524    2.3640 N   0  0  0  0  0  0  0  0  0  0  0  0
   -7.6033    1.6795   -3.4743 H   0  0  0  0  0  0  0  0  0  0  0  0
   -6.7319    0.5217   -4.4861 H   0  0  0  0  0  0  0  0  0  0  0  0
   -8.3758    0.1228   -3.9709 H   0  0  0  0  0  0  0  0  0  0  0  0
   -9.4044    1.0300   -2.0553 H   0  0  0  0  0  0  0  0  0  0  0  0
  -10.5463    0.9458    0.1236 H   0  0  0  0  0  0  0  0  0  0  0  0
   -5.9969   -1.0588   -0.3984 H   0  0  0  0  0  0  0  0  0  0  0  0
   -6.0956   -2.9591    1.5389 H   0  0  0  0  0  0  0  0  0  0  0  0
   -6.8149   -3.2072    3.1861 H   0  0  0  0  0  0  0  0  0  0  0  0
   -5.8559   -1.0784    4.0086 H   0  0  0  0  0  0  0  0  0  0  0  0
   -3.5639   -2.4453    2.1405 H   0  0  0  0  0  0  0  0  0  0  0  0
   -1.5940   -1.5031    1.0148 H   0  0  0  0  0  0  0  0  0  0  0  0
    0.1123    1.7775   -1.0259 H   0  0  0  0  0  0  0  0  0  0  0  0
    0.4610   -0.3387    1.1762 H   0  0  0  0  0  0  0  0  0  0  0  0
    1.9649   -2.0949    0.1129 H   0  0  0  0  0  0  0  0  0  0  0  0
    4.1989   -2.5516   -0.7879 H   0  0  0  0  0  0  0  0  0  0  0  0
    6.2145   -1.8453   -1.8222 H   0  0  0  0  0  0  0  0  0  0  0  0
    5.9410   -0.5034   -2.9246 H   0  0  0  0  0  0  0  0  0  0  0  0
    7.2136   -1.4612    0.3173 H   0  0  0  0  0  0  0  0  0  0  0  0
    6.4032    0.0348    0.7934 H   0  0  0  0  0  0  0  0  0  0  0  0
    8.6534   -0.2609    1.8276 H   0  0  0  0  0  0  0  0  0  0  0  0
    9.5558    1.9743    1.3947 H   0  0  0  0  0  0  0  0  0  0  0  0
    7.7842    2.0547    1.4979 H   0  0  0  0  0  0  0  0  0  0  0  0
    8.6116    2.1389   -0.0738 H   0  0  0  0  0  0  0  0  0  0  0  0
    9.1169   -1.9468   -0.9769 H   0  0  0  0  0  0  0  0  0  0  0  0
   11.5150   -1.5083   -1.3853 H   0  0  0  0  0  0  0  0  0  0  0  0
   10.6105   -1.4635   -2.9169 H   0  0  0  0  0  0  0  0  0  0  0  0
   11.1397    0.0410   -2.1246 H   0  0  0  0  0  0  0  0  0  0  0  0
    8.2121   -0.6142   -2.9273 H   0  0  0  0  0  0  0  0  0  0  0  0
    8.7132    0.8721   -2.1394 H   0  0  0  0  0  0  0  0  0  0  0  0
    4.7220    1.6421   -1.6316 H   0  0  0  0  0  0  0  0  0  0  0  0
    2.4912    2.1073   -0.7195 H   0  0  0  0  0  0  0  0  0  0  0  0
   -3.7901    3.3771    0.9101 H   0  0  0  0  0  0  0  0  0  0  0  0
   -5.4748    1.4178    2.1722 H   0  0  0  0  0  0  0  0  0  0  0  0
  -10.2777    0.0490    2.7048 H   0  0  0  0  0  0  0  0  0  0  0  0
  1  2  1  0
  2  3  1  0
  3  4  2  0
  4  5  1  0
  5  6  2  0
  6  7  1  0
  7  8  2  0
  7  9  1  0
  9 10  1  6
 10 11  1  0
 11 12  1  0
 12 13  2  0
 13 14  1  0
 14 15  2  0
 15 16  1  0
 16 17  1  0
 17 18  2  0
 18 19  1  0
 19 20  2  0
 20 21  1  0
 21 22  2  0
 22 23  1  0
 23 24  1  0
 24 25  1  0
 25 26  1  0
 26 27  1  0
 26 28  1  0
 28 29  1  0
 29 30  1  0
 29 31  1  0
 22 32  1  0
 32 33  2  0
 16 34  2  0
 34 35  1  0
 35 36  1  0
 36 37  2  0
  9 38  1  0
 38 39  2  0
 38 40  1  0
  8  3  1  0
 11  9  1  0
 37 12  1  0
 40  6  1  0
 36 15  1  0
 33 19  1  0
 31 24  1  0
  1 41  1  0
  1 42  1  0
  1 43  1  0
  4 44  1  0
  5 45  1  0
  8 46  1  0
 10 47  1  0
 10 48  1  0
 11 49  1  1
 13 50  1  0
 14 51  1  0
 17 52  1  0
 18 53  1  0
 20 54  1  0
 21 55  1  0
 23 56  1  0
 23 57  1  0
 25 58  1  0
 25 59  1  0
 26 60  1  1
 27 61  1  0
 27 62  1  0
 27 63  1  0
 29 64  1  1
 30 65  1  0
 30 66  1  0
 30 67  1  0
 31 68  1  0
 31 69  1  0
 32 70  1  0
 33 71  1  0
 35 72  1  0
 37 73  1  0
 40 74  1  0
M  END
$$$$
