
     RDKit          3D

 50 52  0  0  0  0  0  0  0  0999 V2000
   -6.8303   -1.2287   -1.0356 C   0  0  0  0  0  0  0  0  0  0  0  0
   -5.4047   -0.9368   -1.0406 N   0  0  0  0  0  0  0  0  0  0  0  0
   -5.0135   -0.2054    0.1637 C   0  0  0  0  0  0  0  0  0  0  0  0
   -3.5233    0.0439    0.1816 C   0  0  0  0  0  0  0  0  0  0  0  0
   -2.7012   -0.5834    1.1266 C   0  0  0  0  0  0  0  0  0  0  0  0
   -1.3229   -0.3481    1.1353 C   0  0  0  0  0  0  0  0  0  0  0  0
   -0.7421    0.5152    0.2000 C   0  0  0  0  0  0  0  0  0  0  0  0
    0.6972    0.7632    0.2184 C   0  0  0  0  0  0  0  0  0  0  0  0
    1.2087    2.0361    0.2897 N   0  0  0  0  0  0  0  0  0  0  0  0
    2.5817    2.0128    0.3169 C   0  0  0  0  0  0  0  0  0  0  0  0
    3.4899    3.0738    0.3925 C   0  0  0  0  0  0  0  0  0  0  0  0
    4.8426    2.7519    0.4201 C   0  0  0  0  0  0  0  0  0  0  0  0
    5.7431    3.7414    0.4960 F   0  0  0  0  0  0  0  0  0  0  0  0
    5.2820    1.4382    0.3779 C   0  0  0  0  0  0  0  0  0  0  0  0
    4.3621    0.3755    0.2942 C   0  0  0  0  0  0  0  0  0  0  0  0
    2.9785    0.6738    0.2628 C   0  0  0  0  0  0  0  0  0  0  0  0
    1.7791   -0.1062    0.1824 C   0  0  0  0  0  0  0  0  0  0  0  0
    1.7352   -1.5934    0.0503 C   0  0  0  0  0  0  0  0  0  0  0  0
    2.8992   -2.1240   -0.7804 C   0  0  0  0  0  0  0  0  0  0  0  0
    4.1649   -2.0923   -0.0729 N   0  0  0  0  0  0  0  0  0  0  0  0
    4.9083   -1.0040    0.3029 C   0  0  0  0  0  0  0  0  0  0  0  0
    6.0718   -1.1937    0.6569 O   0  0  0  0  0  0  0  0  0  0  0  0
   -1.5602    1.1397   -0.7477 C   0  0  0  0  0  0  0  0  0  0  0  0
   -2.9378    0.9047   -0.7575 C   0  0  0  0  0  0  0  0  0  0  0  0
    0.4612   -0.2396    1.4745 O   0  0  0  0  0  0  0  0  0  0  0  0
    0.0625   -0.0325    0.0616 P   0  0  0  0  0  5  0  0  0  0  0  0
   -1.3656   -0.5964   -0.3503 O   0  0  0  0  0  0  0  0  0  0  0  0
    1.0103   -0.6869   -1.0341 O   0  0  0  0  0  0  0  0  0  0  0  0
   -0.0202    1.4784   -0.4257 O   0  0  0  0  0  0  0  0  0  0  0  0
   -7.4228   -0.3084   -1.0119 H   0  0  0  0  0  0  0  0  0  0  0  0
   -7.1098   -1.8567   -0.1834 H   0  0  0  0  0  0  0  0  0  0  0  0
   -7.0954   -1.7670   -1.9508 H   0  0  0  0  0  0  0  0  0  0  0  0
   -4.8777   -1.8087   -1.0792 H   0  0  0  0  0  0  0  0  0  0  0  0
   -5.3036   -0.7663    1.0610 H   0  0  0  0  0  0  0  0  0  0  0  0
   -5.5263    0.7635    0.2098 H   0  0  0  0  0  0  0  0  0  0  0  0
   -3.1261   -1.2587    1.8655 H   0  0  0  0  0  0  0  0  0  0  0  0
   -0.7064   -0.8374    1.8859 H   0  0  0  0  0  0  0  0  0  0  0  0
    0.6468    2.8745    0.3411 H   0  0  0  0  0  0  0  0  0  0  0  0
    3.1696    4.1086    0.4341 H   0  0  0  0  0  0  0  0  0  0  0  0
    6.3507    1.2414    0.4165 H   0  0  0  0  0  0  0  0  0  0  0  0
    0.8029   -1.8893   -0.4451 H   0  0  0  0  0  0  0  0  0  0  0  0
    1.7360   -2.0469    1.0487 H   0  0  0  0  0  0  0  0  0  0  0  0
    3.0159   -1.5681   -1.7179 H   0  0  0  0  0  0  0  0  0  0  0  0
    2.7148   -3.1744   -1.0309 H   0  0  0  0  0  0  0  0  0  0  0  0
    4.7157   -2.9428   -0.0627 H   0  0  0  0  0  0  0  0  0  0  0  0
   -1.1335    1.7978   -1.5006 H   0  0  0  0  0  0  0  0  0  0  0  0
   -3.5591    1.3847   -1.5115 H   0  0  0  0  0  0  0  0  0  0  0  0
   -1.4282   -1.5527   -0.1772 H   0  0  0  0  0  0  0  0  0  0  0  0
    1.9235   -0.3598   -0.9482 H   0  0  0  0  0  0  0  0  0  0  0  0
   -0.6435    1.9894    0.1207 H   0  0  0  0  0  0  0  0  0  0  0  0
  1  2  1  0
  2  3  1  0
  3  4  1  0
  4  5  2  0
  5  6  1  0
  6  7  2  0
  7  8  1  0
  8  9  1  0
  9 10  1  0
 10 11  2  0
 11 12  1  0
 12 13  1  0
 12 14  2  0
 14 15  1  0
 15 16  2  0
 16 17  1  0
 17 18  1  0
 18 19  1  0
 19 20  1  0
 20 21  1  0
 21 22  2  0
  7 23  1  0
 23 24  2  0
 25 26  2  0
 26 27  1  0
 26 28  1  0
 26 29  1  0
 24  4  1  0
 17  8  2  0
 16 10  1  0
 21 15  1  0
  1 30  1  0
  1 31  1  0
  1 32  1  0
  2 33  1  0
  3 34  1  0
  3 35  1  0
  5 36  1  0
  6 37  1  0
  9 38  1  0
 11 39  1  0
 14 40  1  0
 18 41  1  0
 18 42  1  0
 19 43  1  0
 19 44  1  0
 20 45  1  0
 23 46  1  0
 24 47  1  0
 27 48  1  0
 28 49  1  0
 29 50  1  0
M  END
$$$$
