
     RDKit          3D

 58 60  0  0  0  0  0  0  0  0999 V2000
   -5.6218   -1.9326   -0.8335 C   0  0  0  0  0  0  0  0  0  0  0  0
   -5.0638   -1.3900    0.4870 C   0  0  0  0  0  0  0  0  0  0  0  0
   -6.0672   -0.4610    1.1877 C   0  0  0  0  0  0  0  0  0  0  0  0
   -6.1654    0.9084    0.4993 C   0  0  0  0  0  0  0  0  0  0  0  0
   -7.0601    1.8512    1.3036 C   0  0  0  0  0  0  0  0  0  0  0  0
   -4.7673    1.5192    0.3032 C   0  0  0  0  0  0  0  0  0  0  0  0
   -3.8985    0.6004   -0.4411 N   0  0  0  0  0  0  0  0  0  0  0  0
   -2.6257    1.2104   -0.8481 C   0  0  0  0  0  0  0  0  0  0  0  0
   -1.6604    1.6241    0.2729 C   0  0  0  0  0  0  0  0  0  0  0  0
   -0.4091    2.3093   -0.2795 C   0  0  0  0  0  0  0  0  0  0  0  0
    0.4257    1.4148   -1.0560 N   0  0  0  0  0  0  0  0  0  0  0  0
    1.3502    0.5742   -0.4531 C   0  0  0  0  0  0  0  0  0  0  0  0
    1.5496    0.5787    0.7584 O   0  0  0  0  0  0  0  0  0  0  0  0
    2.0689   -0.3371   -1.4524 C   0  0  0  0  0  0  0  0  0  0  0  0
    3.1052   -1.1236   -0.8058 N   0  0  0  0  0  0  0  0  0  0  0  0
    4.3667   -0.5681   -0.7664 N   0  0  0  0  0  0  0  0  0  0  0  0
    5.2892   -1.2126   -0.1205 C   0  0  0  0  0  0  0  0  0  0  0  0
    6.6567   -0.6284   -0.0455 C   0  0  0  0  0  0  0  0  0  0  0  0
    7.8049   -1.4273   -0.1317 C   0  0  0  0  0  0  0  0  0  0  0  0
    9.0716   -0.8382   -0.0615 C   0  0  0  0  0  0  0  0  0  0  0  0
    9.1894    0.5436    0.0888 C   0  0  0  0  0  0  0  0  0  0  0  0
   10.7497    1.2614    0.1792 Cl  0  0  0  0  0  0  0  0  0  0  0  0
    8.0518    1.3463    0.1624 C   0  0  0  0  0  0  0  0  0  0  0  0
    6.7848    0.7615    0.0898 C   0  0  0  0  0  0  0  0  0  0  0  0
    5.0703   -2.4948    0.5840 C   0  0  0  0  0  0  0  0  0  0  0  0
    3.8426   -3.0138    0.5257 C   0  0  0  0  0  0  0  0  0  0  0  0
    2.7606   -2.3252   -0.2067 C   0  0  0  0  0  0  0  0  0  0  0  0
    1.6470   -2.8426   -0.2532 O   0  0  0  0  0  0  0  0  0  0  0  0
   -3.7207   -0.6665    0.2809 C   0  0  0  0  0  0  0  0  0  0  0  0
   -4.9235   -2.6517   -1.2763 H   0  0  0  0  0  0  0  0  0  0  0  0
   -5.7954   -1.1416   -1.5694 H   0  0  0  0  0  0  0  0  0  0  0  0
   -6.5715   -2.4523   -0.6667 H   0  0  0  0  0  0  0  0  0  0  0  0
   -4.8884   -2.2541    1.1419 H   0  0  0  0  0  0  0  0  0  0  0  0
   -7.0558   -0.9342    1.2326 H   0  0  0  0  0  0  0  0  0  0  0  0
   -5.7419   -0.3188    2.2275 H   0  0  0  0  0  0  0  0  0  0  0  0
   -6.6301    0.7766   -0.4868 H   0  0  0  0  0  0  0  0  0  0  0  0
   -8.0705    1.4361    1.4009 H   0  0  0  0  0  0  0  0  0  0  0  0
   -7.1438    2.8255    0.8079 H   0  0  0  0  0  0  0  0  0  0  0  0
   -6.6620    2.0170    2.3118 H   0  0  0  0  0  0  0  0  0  0  0  0
   -4.8744    2.4576   -0.2543 H   0  0  0  0  0  0  0  0  0  0  0  0
   -4.3336    1.7685    1.2795 H   0  0  0  0  0  0  0  0  0  0  0  0
   -2.8483    2.0875   -1.4709 H   0  0  0  0  0  0  0  0  0  0  0  0
   -2.1191    0.5074   -1.5221 H   0  0  0  0  0  0  0  0  0  0  0  0
   -1.3668    0.7492    0.8639 H   0  0  0  0  0  0  0  0  0  0  0  0
   -2.1558    2.3272    0.9518 H   0  0  0  0  0  0  0  0  0  0  0  0
   -0.6775    3.1514   -0.9261 H   0  0  0  0  0  0  0  0  0  0  0  0
    0.1837    2.7043    0.5536 H   0  0  0  0  0  0  0  0  0  0  0  0
    0.2314    1.3062   -2.0431 H   0  0  0  0  0  0  0  0  0  0  0  0
    1.3273   -1.0023   -1.9095 H   0  0  0  0  0  0  0  0  0  0  0  0
    2.5247    0.2756   -2.2387 H   0  0  0  0  0  0  0  0  0  0  0  0
    7.7341   -2.5019   -0.2759 H   0  0  0  0  0  0  0  0  0  0  0  0
    9.9617   -1.4618   -0.1317 H   0  0  0  0  0  0  0  0  0  0  0  0
    8.1422    2.4227    0.2745 H   0  0  0  0  0  0  0  0  0  0  0  0
    5.8976    1.3908    0.1478 H   0  0  0  0  0  0  0  0  0  0  0  0
    5.8625   -2.9663    1.1476 H   0  0  0  0  0  0  0  0  0  0  0  0
    3.5749   -3.9380    1.0209 H   0  0  0  0  0  0  0  0  0  0  0  0
   -3.2585   -0.4938    1.2616 H   0  0  0  0  0  0  0  0  0  0  0  0
   -3.0480   -1.3283   -0.2793 H   0  0  0  0  0  0  0  0  0  0  0  0
  1  2  1  0
  2  3  1  0
  3  4  1  0
  4  5  1  0
  4  6  1  0
  6  7  1  0
  7  8  1  0
  8  9  1  0
  9 10  1  0
 10 11  1  0
 11 12  1  0
 12 13  2  0
 12 14  1  0
 14 15  1  0
 15 16  1  0
 16 17  2  0
 17 18  1  0
 18 19  2  0
 19 20  1  0
 20 21  2  0
 21 22  1  0
 21 23  1  0
 23 24  2  0
 17 25  1  0
 25 26  2  0
 26 27  1  0
 27 28  2  0
  7 29  1  0
 29  2  1  0
 27 15  1  0
 24 18  1  0
  1 30  1  0
  1 31  1  0
  1 32  1  0
  2 33  1  0
  3 34  1  0
  3 35  1  0
  4 36  1  0
  5 37  1  0
  5 38  1  0
  5 39  1  0
  6 40  1  0
  6 41  1  0
  8 42  1  0
  8 43  1  0
  9 44  1  0
  9 45  1  0
 10 46  1  0
 10 47  1  0
 11 48  1  0
 14 49  1  0
 14 50  1  0
 19 51  1  0
 20 52  1  0
 23 53  1  0
 24 54  1  0
 25 55  1  0
 26 56  1  0
 29 57  1  0
 29 58  1  0
M  END
$$$$
