
     RDKit          3D

 62 65  0  0  0  0  0  0  0  0999 V2000
   -7.5208    4.0041    0.5529 C   0  0  0  0  0  0  0  0  0  0  0  0
   -6.6957    2.9584    0.4125 C   0  0  0  0  0  0  0  0  0  0  0  0
   -7.2306    1.6051    0.0765 C   0  0  0  0  0  0  0  0  0  0  0  0
   -8.4267    1.4315   -0.1151 O   0  0  0  0  0  0  0  0  0  0  0  0
   -6.2276    0.6583    0.0226 N   0  0  0  0  0  0  0  0  0  0  0  0
   -6.3629   -0.7170   -0.2733 C   0  0  0  0  0  0  0  0  0  0  0  0
   -7.5780   -1.3375   -0.5690 C   0  0  0  0  0  0  0  0  0  0  0  0
   -7.6285   -2.7089   -0.8428 C   0  0  0  0  0  0  0  0  0  0  0  0
   -6.4619   -3.4693   -0.8334 C   0  0  0  0  0  0  0  0  0  0  0  0
   -5.2397   -2.8567   -0.5625 C   0  0  0  0  0  0  0  0  0  0  0  0
   -4.1328   -3.6791   -0.5604 O   0  0  0  0  0  0  0  0  0  0  0  0
   -2.9947   -3.1516   -1.1390 C   0  0  0  0  0  0  0  0  0  0  0  0
   -2.1305   -2.5565   -0.2849 N   0  0  0  0  0  0  0  0  0  0  0  0
   -1.0075   -2.0429   -0.8079 C   0  0  0  0  0  0  0  0  0  0  0  0
   -0.1616   -1.4282    0.1010 N   0  0  0  0  0  0  0  0  0  0  0  0
    1.0621   -0.7478    0.0120 C   0  0  0  0  0  0  0  0  0  0  0  0
    1.6904   -0.4438   -1.1929 C   0  0  0  0  0  0  0  0  0  0  0  0
    2.9130    0.2398   -1.2128 C   0  0  0  0  0  0  0  0  0  0  0  0
    3.5680    0.6349   -0.0366 C   0  0  0  0  0  0  0  0  0  0  0  0
    4.7893    1.3241   -0.1168 N   0  0  0  0  0  0  0  0  0  0  0  0
    5.3018    1.9978    1.0943 C   0  0  0  0  0  0  0  0  0  0  0  0
    6.5151    2.8989    0.7583 C   0  0  0  0  0  0  0  0  0  0  0  0
    7.6173    2.2352    0.0270 N   0  0  0  0  0  0  0  0  0  0  0  0
    8.3553    1.3072    0.8810 C   0  0  0  0  0  0  0  0  0  0  0  0
    7.0505    1.5527   -1.1570 C   0  0  0  0  0  0  0  0  0  0  0  0
    5.8464    0.6175   -0.8812 C   0  0  0  0  0  0  0  0  0  0  0  0
    2.9196    0.3440    1.1740 C   0  0  0  0  0  0  0  0  0  0  0  0
    1.6911   -0.3376    1.2080 C   0  0  0  0  0  0  0  0  0  0  0  0
    1.0030   -0.6625    2.3586 O   0  0  0  0  0  0  0  0  0  0  0  0
    1.5947   -0.2935    3.5999 C   0  0  0  0  0  0  0  0  0  0  0  0
   -0.7150   -2.1124   -2.1170 N   0  0  0  0  0  0  0  0  0  0  0  0
   -1.5928   -2.7465   -2.9259 C   0  0  0  0  0  0  0  0  0  0  0  0
   -2.7673   -3.3013   -2.4889 C   0  0  0  0  0  0  0  0  0  0  0  0
   -3.8246   -4.1058   -3.5687 Cl  0  0  0  0  0  0  0  0  0  0  0  0
   -5.1930   -1.4894   -0.2644 C   0  0  0  0  0  0  0  0  0  0  0  0
   -7.1379    4.9894    0.7953 H   0  0  0  0  0  0  0  0  0  0  0  0
   -8.5967    3.8995    0.4306 H   0  0  0  0  0  0  0  0  0  0  0  0
   -5.6289    3.0848    0.5406 H   0  0  0  0  0  0  0  0  0  0  0  0
   -5.2865    0.9682    0.2217 H   0  0  0  0  0  0  0  0  0  0  0  0
   -8.5119   -0.7839   -0.5885 H   0  0  0  0  0  0  0  0  0  0  0  0
   -8.5838   -3.1792   -1.0637 H   0  0  0  0  0  0  0  0  0  0  0  0
   -6.5068   -4.5347   -1.0464 H   0  0  0  0  0  0  0  0  0  0  0  0
   -0.4961   -1.5453    1.0497 H   0  0  0  0  0  0  0  0  0  0  0  0
    1.2421   -0.7124   -2.1445 H   0  0  0  0  0  0  0  0  0  0  0  0
    3.3357    0.4910   -2.1828 H   0  0  0  0  0  0  0  0  0  0  0  0
    4.5225    2.6375    1.5284 H   0  0  0  0  0  0  0  0  0  0  0  0
    5.5953    1.2554    1.8476 H   0  0  0  0  0  0  0  0  0  0  0  0
    6.8992    3.3536    1.6803 H   0  0  0  0  0  0  0  0  0  0  0  0
    6.1611    3.7371    0.1412 H   0  0  0  0  0  0  0  0  0  0  0  0
    8.7889    1.8392    1.7352 H   0  0  0  0  0  0  0  0  0  0  0  0
    7.7406    0.4884    1.2673 H   0  0  0  0  0  0  0  0  0  0  0  0
    9.1952    0.8723    0.3264 H   0  0  0  0  0  0  0  0  0  0  0  0
    7.8371    0.9924   -1.6784 H   0  0  0  0  0  0  0  0  0  0  0  0
    6.7242    2.3305   -1.8619 H   0  0  0  0  0  0  0  0  0  0  0  0
    5.4825    0.2689   -1.8536 H   0  0  0  0  0  0  0  0  0  0  0  0
    6.1753   -0.2666   -0.3203 H   0  0  0  0  0  0  0  0  0  0  0  0
    3.3874    0.6388    2.1039 H   0  0  0  0  0  0  0  0  0  0  0  0
    0.9278   -0.6273    4.4012 H   0  0  0  0  0  0  0  0  0  0  0  0
    1.6935    0.7948    3.6827 H   0  0  0  0  0  0  0  0  0  0  0  0
    2.5584   -0.7952    3.7423 H   0  0  0  0  0  0  0  0  0  0  0  0
   -1.2991   -2.7915   -3.9705 H   0  0  0  0  0  0  0  0  0  0  0  0
   -4.2445   -1.0270   -0.0072 H   0  0  0  0  0  0  0  0  0  0  0  0
  1  2  2  3
  2  3  1  0
  3  4  2  0
  3  5  1  0
  5  6  1  0
  6  7  2  0
  7  8  1  0
  8  9  2  0
  9 10  1  0
 10 11  1  0
 11 12  1  0
 12 13  2  0
 13 14  1  0
 14 15  1  0
 15 16  1  0
 16 17  2  0
 17 18  1  0
 18 19  2  0
 19 20  1  0
 20 21  1  0
 21 22  1  0
 22 23  1  0
 23 24  1  0
 23 25  1  0
 25 26  1  0
 19 27  1  0
 27 28  2  0
 28 29  1  0
 29 30  1  0
 14 31  2  0
 31 32  1  0
 32 33  2  0
 33 34  1  0
 10 35  2  0
 35  6  1  0
 33 12  1  0
 28 16  1  0
 26 20  1  0
  1 36  1  0
  1 37  1  0
  2 38  1  0
  5 39  1  0
  7 40  1  0
  8 41  1  0
  9 42  1  0
 15 43  1  0
 17 44  1  0
 18 45  1  0
 21 46  1  0
 21 47  1  0
 22 48  1  0
 22 49  1  0
 24 50  1  0
 24 51  1  0
 24 52  1  0
 25 53  1  0
 25 54  1  0
 26 55  1  0
 26 56  1  0
 27 57  1  0
 30 58  1  0
 30 59  1  0
 30 60  1  0
 32 61  1  0
 35 62  1  0
M  END
$$$$
