
     RDKit          3D

 49 52  0  0  0  0  0  0  0  0999 V2000
   -0.9392   -1.1455   -2.2995 C   0  0  0  0  0  0  0  0  0  0  0  0
   -1.7342   -0.2391   -1.4157 C   0  0  0  0  0  0  0  0  0  0  0  0
   -1.3810    0.9470   -0.8938 C   0  0  0  0  0  0  0  0  0  0  0  0
   -0.2930    1.7726   -0.9971 N   0  0  0  0  0  0  0  0  0  0  0  0
    0.7211    1.7628   -1.9298 C   0  0  0  0  0  0  0  0  0  0  0  0
    0.7695    1.0327   -2.9174 O   0  0  0  0  0  0  0  0  0  0  0  0
    1.8168    2.7840   -1.6544 C   0  0  0  0  0  0  0  0  0  0  0  0
    3.3914    1.9501   -1.2860 S   0  0  0  0  0  0  0  0  0  0  0  0
    3.0597    1.2642    0.2694 C   0  0  0  0  0  0  0  0  0  0  0  0
    2.0198    1.6122    0.9985 N   0  0  0  0  0  0  0  0  0  0  0  0
    2.1190    0.9201    2.1648 N   0  0  0  0  0  0  0  0  0  0  0  0
    3.2058    0.1686    2.1792 N   0  0  0  0  0  0  0  0  0  0  0  0
    3.8294    0.3457    0.9790 N   0  0  0  0  0  0  0  0  0  0  0  0
    5.0397   -0.3681    0.7078 C   0  0  0  0  0  0  0  0  0  0  0  0
    5.6870   -0.3482   -0.5346 C   0  0  0  0  0  0  0  0  0  0  0  0
    6.8795   -1.0619   -0.7278 C   0  0  0  0  0  0  0  0  0  0  0  0
    7.4224   -1.8046    0.3111 C   0  0  0  0  0  0  0  0  0  0  0  0
    8.5635   -2.4806    0.1176 F   0  0  0  0  0  0  0  0  0  0  0  0
    6.7944   -1.8533    1.5452 C   0  0  0  0  0  0  0  0  0  0  0  0
    5.6044   -1.1443    1.7433 C   0  0  0  0  0  0  0  0  0  0  0  0
   -2.5016    1.3354    0.0221 C   0  0  0  0  0  0  0  0  0  0  0  0
   -2.4613    2.3567    0.6942 O   0  0  0  0  0  0  0  0  0  0  0  0
   -3.4528    0.3158   -0.0515 N   0  0  0  0  0  0  0  0  0  0  0  0
   -4.3978   -0.0043    0.9595 C   0  0  0  0  0  0  0  0  0  0  0  0
   -4.8886    0.9839    1.8234 C   0  0  0  0  0  0  0  0  0  0  0  0
   -5.8181    0.6727    2.8220 C   0  0  0  0  0  0  0  0  0  0  0  0
   -6.2696   -0.6353    2.9750 C   0  0  0  0  0  0  0  0  0  0  0  0
   -5.7900   -1.6322    2.1319 C   0  0  0  0  0  0  0  0  0  0  0  0
   -4.8620   -1.3182    1.1331 C   0  0  0  0  0  0  0  0  0  0  0  0
   -3.0117   -0.6591   -0.9922 N   0  0  0  0  0  0  0  0  0  0  0  0
   -4.0061   -0.9461   -2.0448 C   0  0  0  0  0  0  0  0  0  0  0  0
    0.1279   -1.1138   -2.0608 H   0  0  0  0  0  0  0  0  0  0  0  0
   -1.2428   -2.1882   -2.1525 H   0  0  0  0  0  0  0  0  0  0  0  0
   -1.1001   -0.8946   -3.3531 H   0  0  0  0  0  0  0  0  0  0  0  0
   -0.2988    2.5206   -0.3044 H   0  0  0  0  0  0  0  0  0  0  0  0
    1.9385    3.3911   -2.5578 H   0  0  0  0  0  0  0  0  0  0  0  0
    1.5488    3.4683   -0.8422 H   0  0  0  0  0  0  0  0  0  0  0  0
    5.3104    0.1894   -1.3945 H   0  0  0  0  0  0  0  0  0  0  0  0
    7.3844   -1.0429   -1.6907 H   0  0  0  0  0  0  0  0  0  0  0  0
    7.2275   -2.4429    2.3471 H   0  0  0  0  0  0  0  0  0  0  0  0
    5.1389   -1.2096    2.7266 H   0  0  0  0  0  0  0  0  0  0  0  0
   -4.5708    2.0192    1.7298 H   0  0  0  0  0  0  0  0  0  0  0  0
   -6.1853    1.4561    3.4803 H   0  0  0  0  0  0  0  0  0  0  0  0
   -6.9869   -0.8768    3.7555 H   0  0  0  0  0  0  0  0  0  0  0  0
   -6.1269   -2.6587    2.2560 H   0  0  0  0  0  0  0  0  0  0  0  0
   -4.4820   -2.1267    0.5150 H   0  0  0  0  0  0  0  0  0  0  0  0
   -3.6870   -1.8066   -2.6421 H   0  0  0  0  0  0  0  0  0  0  0  0
   -4.1231   -0.0836   -2.7130 H   0  0  0  0  0  0  0  0  0  0  0  0
   -4.9891   -1.1840   -1.6258 H   0  0  0  0  0  0  0  0  0  0  0  0
  1  2  1  0
  2  3  2  0
  3  4  1  0
  4  5  1  0
  5  6  2  0
  5  7  1  0
  7  8  1  0
  8  9  1  0
  9 10  2  0
 10 11  1  0
 11 12  2  0
 12 13  1  0
 13 14  1  0
 14 15  2  0
 15 16  1  0
 16 17  2  0
 17 18  1  0
 17 19  1  0
 19 20  2  0
  3 21  1  0
 21 22  2  0
 21 23  1  0
 23 24  1  0
 24 25  2  0
 25 26  1  0
 26 27  2  0
 27 28  1  0
 28 29  2  0
 23 30  1  0
 30 31  1  0
 30  2  1  0
 13  9  1  0
 20 14  1  0
 29 24  1  0
  1 32  1  0
  1 33  1  0
  1 34  1  0
  4 35  1  0
  7 36  1  0
  7 37  1  0
 15 38  1  0
 16 39  1  0
 19 40  1  0
 20 41  1  0
 25 42  1  0
 26 43  1  0
 27 44  1  0
 28 45  1  0
 29 46  1  0
 31 47  1  0
 31 48  1  0
 31 49  1  0
M  END
$$$$
