
     RDKit          3D

 39 41  0  0  0  0  0  0  0  0999 V2000
   -5.1228    1.8565    0.6042 C   0  0  0  0  0  0  0  0  0  0  0  0
   -4.7595    0.3478   -0.3245 S   0  0  0  0  0  0  0  0  0  0  0  0
   -2.9427    0.3397   -0.1273 C   0  0  0  0  0  0  0  0  0  0  0  0
   -2.2971   -0.8365   -0.8769 C   0  0  1  0  0  0  0  0  0  0  0  0
   -0.7707   -0.7325   -0.8209 C   0  0  0  0  0  0  0  0  0  0  0  0
   -0.4670   -1.2039    0.5373 N   0  0  0  0  0  0  0  0  0  0  0  0
    0.9538   -1.5152    0.7264 C   0  0  0  0  0  0  0  0  0  0  0  0
    1.7522   -0.2522    0.7655 C   0  0  0  0  0  0  0  0  0  0  0  0
    1.6536    0.7792    1.6873 C   0  0  0  0  0  0  0  0  0  0  0  0
    2.5615    1.7484    1.3496 N   0  0  0  0  0  0  0  0  0  0  0  0
    3.2731    1.3581    0.2441 C   0  0  0  0  0  0  0  0  0  0  0  0
    4.2888    1.9632   -0.4756 C   0  0  0  0  0  0  0  0  0  0  0  0
    4.8583    3.1811   -0.1356 N   0  0  0  0  0  0  0  0  0  0  0  0
    4.7587    1.3219   -1.5560 N   0  0  0  0  0  0  0  0  0  0  0  0
    4.2194    0.1273   -1.8692 C   0  0  0  0  0  0  0  0  0  0  0  0
    3.2503   -0.5399   -1.2255 N   0  0  0  0  0  0  0  0  0  0  0  0
    2.7789    0.1224   -0.1468 C   0  0  0  0  0  0  0  0  0  0  0  0
   -1.3163   -2.3908    0.7265 C   0  0  0  0  0  0  0  0  0  0  0  0
   -2.5354   -2.1861   -0.1922 C   0  0  2  0  0  0  0  0  0  0  0  0
   -2.5569   -3.2050   -1.1982 O   0  0  0  0  0  0  0  0  0  0  0  0
   -4.7917    1.7544    1.6409 H   0  0  0  0  0  0  0  0  0  0  0  0
   -6.2020    2.0311    0.5997 H   0  0  0  0  0  0  0  0  0  0  0  0
   -4.6299    2.7160    0.1426 H   0  0  0  0  0  0  0  0  0  0  0  0
   -2.5615    1.2845   -0.5298 H   0  0  0  0  0  0  0  0  0  0  0  0
   -2.7139    0.3081    0.9432 H   0  0  0  0  0  0  0  0  0  0  0  0
   -2.6217   -0.8414   -1.9249 H   0  0  0  0  0  0  0  0  0  0  0  0
   -0.4256    0.2925   -0.9923 H   0  0  0  0  0  0  0  0  0  0  0  0
   -0.3215   -1.3820   -1.5841 H   0  0  0  0  0  0  0  0  0  0  0  0
    1.0923   -2.0226    1.6902 H   0  0  0  0  0  0  0  0  0  0  0  0
    1.3249   -2.1972   -0.0488 H   0  0  0  0  0  0  0  0  0  0  0  0
    0.9952    0.9038    2.5371 H   0  0  0  0  0  0  0  0  0  0  0  0
    2.6810    2.6324    1.8245 H   0  0  0  0  0  0  0  0  0  0  0  0
    5.6991    3.3154   -0.6898 H   0  0  0  0  0  0  0  0  0  0  0  0
    4.9902    3.3123    0.8573 H   0  0  0  0  0  0  0  0  0  0  0  0
    4.6239   -0.3571   -2.7526 H   0  0  0  0  0  0  0  0  0  0  0  0
   -0.7967   -3.3237    0.4751 H   0  0  0  0  0  0  0  0  0  0  0  0
   -1.6291   -2.4400    1.7748 H   0  0  0  0  0  0  0  0  0  0  0  0
   -3.4792   -2.2349    0.3586 H   0  0  0  0  0  0  0  0  0  0  0  0
   -2.8141   -4.0350   -0.7619 H   0  0  0  0  0  0  0  0  0  0  0  0
  1  2  1  0
  2  3  1  0
  3  4  1  0
  4  5  1  0
  5  6  1  0
  6  7  1  0
  7  8  1  0
  8  9  2  0
  9 10  1  0
 10 11  1  0
 11 12  2  0
 12 13  1  0
 12 14  1  0
 14 15  2  0
 15 16  1  0
 16 17  2  0
  6 18  1  0
 18 19  1  0
 19 20  1  0
 19  4  1  0
 17  8  1  0
 17 11  1  0
  1 21  1  0
  1 22  1  0
  1 23  1  0
  3 24  1  0
  3 25  1  0
  4 26  1  6
  5 27  1  0
  5 28  1  0
  7 29  1  0
  7 30  1  0
  9 31  1  0
 10 32  1  0
 13 33  1  0
 13 34  1  0
 15 35  1  0
 18 36  1  0
 18 37  1  0
 19 38  1  1
 20 39  1  0
M  END
$$$$
