
     RDKit          3D

 63 65  0  0  0  0  0  0  0  0999 V2000
   -4.9736    1.6228   -1.6072 C   0  0  0  0  0  0  0  0  0  0  0  0
   -5.4340    0.1692   -1.7401 C   0  0  0  0  0  0  0  0  0  0  0  0
   -6.9316    0.0681   -1.4187 C   0  0  0  0  0  0  0  0  0  0  0  0
   -4.6452   -0.7875   -0.8265 C   0  0  0  0  0  0  0  0  0  0  0  0
   -3.1993   -0.8367   -1.0956 N   0  0  0  0  0  0  0  0  0  0  0  0
   -2.7942   -1.4284   -2.2804 C   0  0  0  0  0  0  0  0  0  0  0  0
   -3.5652   -2.0465   -3.0172 O   0  0  0  0  0  0  0  0  0  0  0  0
   -1.3329   -1.3412   -2.6453 C   0  0  0  0  0  0  0  0  0  0  0  0
   -0.6553   -0.1228   -2.0622 C   0  0  0  0  0  0  0  0  0  0  0  0
   -0.8015   -0.1698   -0.5472 C   0  0  1  0  0  0  0  0  0  0  0  0
   -0.0410    0.9950    0.0737 C   0  0  0  0  0  0  0  0  0  0  0  0
   -0.5946    2.0286    0.4386 O   0  0  0  0  0  0  0  0  0  0  0  0
    1.3209    0.7964    0.1464 N   0  0  0  0  0  0  0  0  0  0  0  0
    2.2042    1.7322    0.8181 C   0  0  0  0  0  0  0  0  0  0  0  0
    3.3407    2.2153   -0.0791 C   0  0  0  0  0  0  0  0  0  0  0  0
    4.2474    1.1012   -0.6230 C   0  0  0  0  0  0  0  0  0  0  0  0
    4.8119    0.2187    0.4074 N   0  0  0  0  0  0  0  0  0  0  0  0
    5.6747    0.9567    1.3614 C   0  0  0  0  0  0  0  0  0  0  0  0
    6.7021    0.0347    2.0382 C   0  0  0  0  0  0  0  0  0  0  0  0
    7.6433   -0.5075    1.1032 O   0  0  0  0  0  0  0  0  0  0  0  0
    7.0852   -0.6943   -0.2061 C   0  0  0  0  0  0  0  0  0  0  0  0
    5.5627   -0.9074   -0.1921 C   0  0  0  0  0  0  0  0  0  0  0  0
   -2.2927   -0.1309   -0.1526 C   0  0  2  0  0  0  0  0  0  0  0  0
   -2.4372   -0.6738    1.2642 C   0  0  0  0  0  0  0  0  0  0  0  0
   -2.4592   -2.0479    1.5389 C   0  0  0  0  0  0  0  0  0  0  0  0
   -2.5741   -2.4886    2.8535 C   0  0  0  0  0  0  0  0  0  0  0  0
   -2.6624   -1.5403    3.8585 C   0  0  0  0  0  0  0  0  0  0  0  0
   -2.6352   -0.2085    3.6376 N   0  0  0  0  0  0  0  0  0  0  0  0
   -2.5222    0.1963    2.3512 C   0  0  0  0  0  0  0  0  0  0  0  0
   -5.6156    2.2864   -2.2071 H   0  0  0  0  0  0  0  0  0  0  0  0
   -5.0201    1.9619   -0.5652 H   0  0  0  0  0  0  0  0  0  0  0  0
   -3.9431    1.7508   -1.9745 H   0  0  0  0  0  0  0  0  0  0  0  0
   -5.2874   -0.1267   -2.7869 H   0  0  0  0  0  0  0  0  0  0  0  0
   -7.2871   -0.9596   -1.5463 H   0  0  0  0  0  0  0  0  0  0  0  0
   -7.5241    0.7081   -2.0820 H   0  0  0  0  0  0  0  0  0  0  0  0
   -7.1403    0.3662   -0.3896 H   0  0  0  0  0  0  0  0  0  0  0  0
   -5.0348   -1.8015   -0.9650 H   0  0  0  0  0  0  0  0  0  0  0  0
   -4.8245   -0.5222    0.2214 H   0  0  0  0  0  0  0  0  0  0  0  0
   -0.8351   -2.2591   -2.3112 H   0  0  0  0  0  0  0  0  0  0  0  0
   -1.2682   -1.2987   -3.7403 H   0  0  0  0  0  0  0  0  0  0  0  0
    0.3991   -0.1161   -2.3592 H   0  0  0  0  0  0  0  0  0  0  0  0
   -1.1020    0.7955   -2.4611 H   0  0  0  0  0  0  0  0  0  0  0  0
   -0.3444   -1.1009   -0.1793 H   0  0  0  0  0  0  0  0  0  0  0  0
    1.6875   -0.1379    0.0131 H   0  0  0  0  0  0  0  0  0  0  0  0
    2.5912    1.2236    1.7081 H   0  0  0  0  0  0  0  0  0  0  0  0
    1.6442    2.6036    1.1635 H   0  0  0  0  0  0  0  0  0  0  0  0
    2.9126    2.7601   -0.9311 H   0  0  0  0  0  0  0  0  0  0  0  0
    3.9382    2.9466    0.4794 H   0  0  0  0  0  0  0  0  0  0  0  0
    5.0464    1.5545   -1.2246 H   0  0  0  0  0  0  0  0  0  0  0  0
    3.6480    0.4901   -1.3133 H   0  0  0  0  0  0  0  0  0  0  0  0
    6.2203    1.7507    0.8359 H   0  0  0  0  0  0  0  0  0  0  0  0
    5.0460    1.4192    2.1284 H   0  0  0  0  0  0  0  0  0  0  0  0
    7.2674    0.5828    2.7945 H   0  0  0  0  0  0  0  0  0  0  0  0
    6.2041   -0.7958    2.5537 H   0  0  0  0  0  0  0  0  0  0  0  0
    7.5854   -1.5615   -0.6525 H   0  0  0  0  0  0  0  0  0  0  0  0
    7.3490    0.1769   -0.8191 H   0  0  0  0  0  0  0  0  0  0  0  0
    5.2062   -1.1408   -1.2019 H   0  0  0  0  0  0  0  0  0  0  0  0
    5.3413   -1.7862    0.4256 H   0  0  0  0  0  0  0  0  0  0  0  0
   -2.6512    0.9056   -0.1638 H   0  0  0  0  0  0  0  0  0  0  0  0
   -2.3936   -2.7762    0.7341 H   0  0  0  0  0  0  0  0  0  0  0  0
   -2.6011   -3.5453    3.0869 H   0  0  0  0  0  0  0  0  0  0  0  0
   -2.7611   -1.8341    4.9002 H   0  0  0  0  0  0  0  0  0  0  0  0
   -2.4953    1.2770    2.2190 H   0  0  0  0  0  0  0  0  0  0  0  0
  1  2  1  0
  2  3  1  0
  2  4  1  0
  4  5  1  0
  5  6  1  0
  6  7  2  0
  6  8  1  0
  8  9  1  0
  9 10  1  0
 10 11  1  0
 11 12  2  0
 11 13  1  0
 13 14  1  0
 14 15  1  0
 15 16  1  0
 16 17  1  0
 17 18  1  0
 18 19  1  0
 19 20  1  0
 20 21  1  0
 21 22  1  0
 10 23  1  0
 23 24  1  0
 24 25  2  0
 25 26  1  0
 26 27  2  0
 27 28  1  0
 28 29  2  0
 23  5  1  0
 29 24  1  0
 22 17  1  0
  1 30  1  0
  1 31  1  0
  1 32  1  0
  2 33  1  0
  3 34  1  0
  3 35  1  0
  3 36  1  0
  4 37  1  0
  4 38  1  0
  8 39  1  0
  8 40  1  0
  9 41  1  0
  9 42  1  0
 10 43  1  1
 13 44  1  0
 14 45  1  0
 14 46  1  0
 15 47  1  0
 15 48  1  0
 16 49  1  0
 16 50  1  0
 18 51  1  0
 18 52  1  0
 19 53  1  0
 19 54  1  0
 21 55  1  0
 21 56  1  0
 22 57  1  0
 22 58  1  0
 23 59  1  1
 25 60  1  0
 26 61  1  0
 27 62  1  0
 29 63  1  0
M  END
$$$$
