
     RDKit          3D

 57 60  0  0  0  0  0  0  0  0999 V2000
   11.4803    0.4430   -0.6639 F   0  0  0  0  0  0  0  0  0  0  0  0
   10.6414    1.4664   -1.0010 C   0  0  0  0  0  0  0  0  0  0  0  0
   10.8310    1.6870   -2.3331 F   0  0  0  0  0  0  0  0  0  0  0  0
   11.1329    2.5743   -0.3677 F   0  0  0  0  0  0  0  0  0  0  0  0
    9.1945    1.1917   -0.6666 C   0  0  0  0  0  0  0  0  0  0  0  0
    8.2604    2.2398   -0.6665 C   0  0  0  0  0  0  0  0  0  0  0  0
    6.9155    1.9935   -0.3735 C   0  0  0  0  0  0  0  0  0  0  0  0
    6.4707    0.6942   -0.0879 C   0  0  0  0  0  0  0  0  0  0  0  0
    5.0547    0.4900    0.2534 C   0  0  0  0  0  0  0  0  0  0  0  0
    4.3542   -0.6154   -0.0471 C   0  0  0  0  0  0  0  0  0  0  0  0
    2.9875   -0.7507    0.3287 C   0  0  0  0  0  0  0  0  0  0  0  0
    2.2223    0.1600    0.9196 N   0  0  0  0  0  0  0  0  0  0  0  0
    0.9909   -0.4437    1.1024 C   0  0  0  0  0  0  0  0  0  0  0  0
   -0.1335    0.2865    1.7514 C   0  0  0  0  0  0  0  0  0  0  0  0
   -1.2096   -0.5606    2.1801 O   0  0  0  0  0  0  0  0  0  0  0  0
   -2.2047   -0.8675    1.2943 C   0  0  0  0  0  0  0  0  0  0  0  0
   -3.2274   -1.6540    1.8310 C   0  0  0  0  0  0  0  0  0  0  0  0
   -4.3093   -2.0604    1.0449 C   0  0  0  0  0  0  0  0  0  0  0  0
   -4.3963   -1.6695   -0.2968 C   0  0  0  0  0  0  0  0  0  0  0  0
   -5.5362   -2.1175   -1.1830 C   0  0  0  0  0  0  0  0  0  0  0  0
   -6.9540   -1.8980   -0.6342 C   0  0  0  0  0  0  0  0  0  0  0  0
   -7.5284   -0.4871   -0.8267 C   0  0  0  0  0  0  0  0  0  0  0  0
   -6.9381    0.5971    0.0842 C   0  0  0  0  0  0  0  0  0  0  0  0
   -5.8796    1.4086   -0.4791 N   0  0  0  0  0  0  0  0  0  0  0  0
   -4.8666    2.0298    0.1962 C   0  0  0  0  0  0  0  0  0  0  0  0
   -4.2310    2.7707   -0.7723 C   0  0  0  0  0  0  0  0  0  0  0  0
   -4.8671    2.5990   -1.9697 N   0  0  0  0  0  0  0  0  0  0  0  0
   -5.8942    1.7795   -1.7746 N   0  0  0  0  0  0  0  0  0  0  0  0
   -3.3525   -0.9033   -0.8364 C   0  0  0  0  0  0  0  0  0  0  0  0
   -2.2670   -0.4994   -0.0483 C   0  0  0  0  0  0  0  0  0  0  0  0
    1.0458   -1.7206    0.6033 C   0  0  0  0  0  0  0  0  0  0  0  0
    2.2922   -1.9264    0.1020 O   0  0  0  0  0  0  0  0  0  0  0  0
    7.4054   -0.3508   -0.0798 C   0  0  0  0  0  0  0  0  0  0  0  0
    8.7520   -0.1061   -0.3742 C   0  0  0  0  0  0  0  0  0  0  0  0
    8.5777    3.2581   -0.8933 H   0  0  0  0  0  0  0  0  0  0  0  0
    6.2141    2.8282   -0.3783 H   0  0  0  0  0  0  0  0  0  0  0  0
    4.5704    1.3142    0.7755 H   0  0  0  0  0  0  0  0  0  0  0  0
    4.7969   -1.4476   -0.5808 H   0  0  0  0  0  0  0  0  0  0  0  0
   -0.4872    1.1189    1.1298 H   0  0  0  0  0  0  0  0  0  0  0  0
    0.2577    0.7522    2.6667 H   0  0  0  0  0  0  0  0  0  0  0  0
   -3.1753   -1.9651    2.8723 H   0  0  0  0  0  0  0  0  0  0  0  0
   -5.0699   -2.6956    1.4928 H   0  0  0  0  0  0  0  0  0  0  0  0
   -5.4593   -1.6421   -2.1716 H   0  0  0  0  0  0  0  0  0  0  0  0
   -5.3956   -3.1942   -1.3533 H   0  0  0  0  0  0  0  0  0  0  0  0
   -7.0340   -2.1937    0.4200 H   0  0  0  0  0  0  0  0  0  0  0  0
   -7.6191   -2.5797   -1.1846 H   0  0  0  0  0  0  0  0  0  0  0  0
   -7.4816   -0.2067   -1.8862 H   0  0  0  0  0  0  0  0  0  0  0  0
   -8.5997   -0.5573   -0.5858 H   0  0  0  0  0  0  0  0  0  0  0  0
   -7.7315    1.3127    0.3384 H   0  0  0  0  0  0  0  0  0  0  0  0
   -6.5738    0.1668    1.0236 H   0  0  0  0  0  0  0  0  0  0  0  0
   -4.6897    1.8910    1.2530 H   0  0  0  0  0  0  0  0  0  0  0  0
   -3.3648    3.4118   -0.6764 H   0  0  0  0  0  0  0  0  0  0  0  0
   -3.3826   -0.5973   -1.8825 H   0  0  0  0  0  0  0  0  0  0  0  0
   -1.4953    0.0943   -0.5275 H   0  0  0  0  0  0  0  0  0  0  0  0
    0.3461   -2.5429    0.5263 H   0  0  0  0  0  0  0  0  0  0  0  0
    7.1033   -1.3671    0.1663 H   0  0  0  0  0  0  0  0  0  0  0  0
    9.4568   -0.9390   -0.3633 H   0  0  0  0  0  0  0  0  0  0  0  0
  1  2  1  0
  2  3  1  0
  2  4  1  0
  2  5  1  0
  5  6  2  0
  6  7  1  0
  7  8  2  0
  8  9  1  0
  9 10  2  0
 10 11  1  0
 11 12  2  0
 12 13  1  0
 13 14  1  0
 14 15  1  0
 15 16  1  0
 16 17  2  0
 17 18  1  0
 18 19  2  0
 19 20  1  0
 20 21  1  0
 21 22  1  0
 22 23  1  0
 23 24  1  0
 24 25  1  0
 25 26  2  0
 26 27  1  0
 27 28  2  0
 19 29  1  0
 29 30  2  0
 13 31  2  0
 31 32  1  0
  8 33  1  0
 33 34  2  0
 34  5  1  0
 32 11  1  0
 30 16  1  0
 28 24  1  0
  6 35  1  0
  7 36  1  0
  9 37  1  0
 10 38  1  0
 14 39  1  0
 14 40  1  0
 17 41  1  0
 18 42  1  0
 20 43  1  0
 20 44  1  0
 21 45  1  0
 21 46  1  0
 22 47  1  0
 22 48  1  0
 23 49  1  0
 23 50  1  0
 25 51  1  0
 26 52  1  0
 29 53  1  0
 30 54  1  0
 31 55  1  0
 33 56  1  0
 34 57  1  0
M  END
$$$$
