
     RDKit          3D

 28 29  0  0  0  0  0  0  0  0999 V2000
   -4.8305    0.1358   -0.7662 N   0  0  0  0  0  0  0  0  0  0  0  0
   -3.5331   -0.0580   -0.3799 C   0  0  0  0  0  0  0  0  0  0  0  0
   -3.2394   -0.8869    0.8016 C   0  0  0  0  0  0  0  0  0  0  0  0
   -1.9498   -1.0405    1.0938 C   0  0  0  0  0  0  0  0  0  0  0  0
   -0.9632   -0.4538    0.3289 N   0  0  0  0  0  0  0  0  0  0  0  0
    0.4285   -0.6360    0.7161 C   0  0  1  0  0  0  0  0  0  0  0  0
    1.3562   -1.2379   -0.3296 C   0  0  0  0  0  0  0  0  0  0  0  0
    2.6992   -0.7295    0.1389 C   0  0  0  0  0  0  0  0  0  0  0  0
    2.3679    0.6543    0.6896 C   0  0  1  0  0  0  0  0  0  0  0  0
    2.5443    1.7710   -0.3436 C   0  0  0  0  0  0  0  0  0  0  0  0
    3.9237    1.9386   -0.6606 O   0  0  0  0  0  0  0  0  0  0  0  0
    0.9987    0.6114    1.1358 O   0  0  0  0  0  0  0  0  0  0  0  0
   -1.2874    0.3563   -0.7660 C   0  0  0  0  0  0  0  0  0  0  0  0
   -0.4276    0.9133   -1.4440 O   0  0  0  0  0  0  0  0  0  0  0  0
   -2.6157    0.5066   -1.0974 N   0  0  0  0  0  0  0  0  0  0  0  0
   -4.8882    0.5361   -1.6984 H   0  0  0  0  0  0  0  0  0  0  0  0
   -5.4701   -0.6361   -0.6279 H   0  0  0  0  0  0  0  0  0  0  0  0
   -4.0419   -1.3149    1.3835 H   0  0  0  0  0  0  0  0  0  0  0  0
   -1.6435   -1.6261    1.9550 H   0  0  0  0  0  0  0  0  0  0  0  0
    0.4658   -1.2839    1.6025 H   0  0  0  0  0  0  0  0  0  0  0  0
    1.1582   -0.8737   -1.3413 H   0  0  0  0  0  0  0  0  0  0  0  0
    1.2950   -2.3300   -0.3609 H   0  0  0  0  0  0  0  0  0  0  0  0
    3.0598   -1.3689    0.9544 H   0  0  0  0  0  0  0  0  0  0  0  0
    3.4615   -0.7305   -0.6451 H   0  0  0  0  0  0  0  0  0  0  0  0
    3.0073    0.8681    1.5539 H   0  0  0  0  0  0  0  0  0  0  0  0
    2.1569    2.7161    0.0516 H   0  0  0  0  0  0  0  0  0  0  0  0
    2.0030    1.5516   -1.2678 H   0  0  0  0  0  0  0  0  0  0  0  0
    3.9643    2.6479   -1.3259 H   0  0  0  0  0  0  0  0  0  0  0  0
  1  2  1  0
  2  3  1  0
  3  4  2  0
  4  5  1  0
  5  6  1  0
  6  7  1  0
  7  8  1  0
  8  9  1  0
  9 10  1  0
 10 11  1  0
  9 12  1  0
  5 13  1  0
 13 14  2  0
 13 15  1  0
 15  2  2  0
 12  6  1  0
  1 16  1  0
  1 17  1  0
  3 18  1  0
  4 19  1  0
  6 20  1  1
  7 21  1  0
  7 22  1  0
  8 23  1  0
  8 24  1  0
  9 25  1  1
 10 26  1  0
 10 27  1  0
 11 28  1  0
M  END
$$$$
