
     RDKit          3D

 34 36  0  0  0  0  0  0  0  0999 V2000
    0.6838    0.0000    0.0000 Cl  0  0  0  0  0  0  0  0  0  0  0  0
    0.2119   -3.2143   -1.6018 O   0  0  0  0  0  0  0  0  0  0  0  0
    0.2393   -2.0578   -1.0901 C   0  0  0  0  0  0  0  0  0  0  0  0
   -0.9250   -1.3823   -0.8791 N   0  0  0  0  0  0  0  0  0  0  0  0
   -0.9395   -0.1482   -0.3363 C   0  0  0  0  0  0  0  0  0  0  0  0
   -2.2196    0.5448   -0.1263 C   0  0  2  0  0  0  0  0  0  0  0  0
   -3.0585   -0.0363    0.9642 C   0  0  0  0  0  0  0  0  0  0  0  0
   -4.4622    0.4414    0.5669 C   0  0  0  0  0  0  0  0  0  0  0  0
   -4.2711    1.1627   -0.7580 C   0  0  0  0  0  0  0  0  0  0  0  0
   -3.1014    0.4405   -1.2832 N   0  0  0  0  0  0  0  0  0  0  0  0
    0.2397    0.3973   -0.0080 N   0  0  0  0  0  0  0  0  0  0  0  0
    1.4246   -0.1902   -0.1786 C   0  0  0  0  0  0  0  0  0  0  0  0
    1.4332   -1.4660   -0.7402 C   0  0  0  0  0  0  0  0  0  0  0  0
    2.6887   -1.8482   -0.8151 O   0  0  0  0  0  0  0  0  0  0  0  0
    3.5017   -0.9253   -0.3477 C   0  0  0  0  0  0  0  0  0  0  0  0
    4.8869   -0.8326   -0.2036 C   0  0  0  0  0  0  0  0  0  0  0  0
    5.4717    0.2968    0.3378 C   0  0  0  0  0  0  0  0  0  0  0  0
    4.7111    1.3751    0.7563 C   0  0  0  0  0  0  0  0  0  0  0  0
    5.4824    2.7917    1.4382 Cl  0  0  0  0  0  0  0  0  0  0  0  0
    3.3458    1.2618    0.6046 C   0  0  0  0  0  0  0  0  0  0  0  0
    2.7429    0.1459    0.0679 C   0  0  0  0  0  0  0  0  0  0  0  0
   -0.6838    0.0000    0.0000 H   0  0  0  0  0  0  0  0  0  0  0  0
   -1.8368   -1.8143   -1.1375 H   0  0  0  0  0  0  0  0  0  0  0  0
   -2.0863    1.6198    0.0716 H   0  0  0  0  0  0  0  0  0  0  0  0
   -3.0034   -1.1461    0.9425 H   0  0  0  0  0  0  0  0  0  0  0  0
   -2.7722    0.3850    1.9516 H   0  0  0  0  0  0  0  0  0  0  0  0
   -5.1065   -0.4190    0.3768 H   0  0  0  0  0  0  0  0  0  0  0  0
   -4.8667    1.1566    1.2973 H   0  0  0  0  0  0  0  0  0  0  0  0
   -3.9302    2.1890   -0.5240 H   0  0  0  0  0  0  0  0  0  0  0  0
   -5.1305    1.1006   -1.4172 H   0  0  0  0  0  0  0  0  0  0  0  0
   -3.4309   -0.5617   -1.3645 H   0  0  0  0  0  0  0  0  0  0  0  0
    5.4869   -1.6835   -0.5339 H   0  0  0  0  0  0  0  0  0  0  0  0
    6.5518    0.3331    0.4343 H   0  0  0  0  0  0  0  0  0  0  0  0
    2.7220    2.0835    0.9203 H   0  0  0  0  0  0  0  0  0  0  0  0
  2  3  2  0
  3  4  1  0
  4  5  1  0
  5  6  1  0
  6  7  1  0
  7  8  1  0
  8  9  1  0
  9 10  1  0
  5 11  2  0
 11 12  1  0
 12 13  2  0
 13 14  1  0
 14 15  1  0
 15 16  2  0
 16 17  1  0
 17 18  2  0
 18 19  1  0
 18 20  1  0
 20 21  2  0
 13  3  1  0
 21 15  1  0
 10  6  1  0
 21 12  1  0
  1 22  1  0
  4 23  1  0
  6 24  1  1
  7 25  1  0
  7 26  1  0
  8 27  1  0
  8 28  1  0
  9 29  1  0
  9 30  1  0
 10 31  1  0
 16 32  1  0
 17 33  1  0
 20 34  1  0
M  END
$$$$
