
     RDKit          3D

 19 17  0  0  0  0  0  0  0  0999 V2000
    0.7677    0.0000    0.0000 Br  0  0  0  0  0  0  0  0  0  0  0  0
    2.1808    0.8875   -0.2955 C   0  0  0  0  0  0  0  0  0  0  0  0
    0.8846    0.1088   -0.3226 C   0  0  0  0  0  0  0  0  0  0  0  0
    0.9621   -0.8952    0.8113 C   0  0  0  0  0  0  0  0  0  0  0  0
   -0.5182    1.2392   -0.1266 S   0  0  0  0  0  0  0  0  0  0  0  0
   -2.0492    0.3709   -0.1527 C   0  0  0  0  0  0  0  0  0  0  0  0
   -3.1495    1.0288   -0.0253 N   0  0  0  0  0  0  0  0  0  0  0  0
   -2.1584   -1.0419   -0.3088 N   0  0  0  0  0  0  0  0  0  0  0  0
   -0.7677    0.0000    0.0000 H   0  0  0  0  0  0  0  0  0  0  0  0
    2.0764    1.8886   -0.7589 H   0  0  0  0  0  0  0  0  0  0  0  0
    2.5410    0.9380    0.7522 H   0  0  0  0  0  0  0  0  0  0  0  0
    2.9400    0.3110   -0.8894 H   0  0  0  0  0  0  0  0  0  0  0  0
    0.8248   -0.3880   -1.3103 H   0  0  0  0  0  0  0  0  0  0  0  0
    0.0032   -1.4267    0.9357 H   0  0  0  0  0  0  0  0  0  0  0  0
    1.2603   -0.3363    1.7333 H   0  0  0  0  0  0  0  0  0  0  0  0
    1.8126   -1.5659    0.5758 H   0  0  0  0  0  0  0  0  0  0  0  0
   -3.2028    2.0645    0.0954 H   0  0  0  0  0  0  0  0  0  0  0  0
   -1.9917   -1.5159   -1.2156 H   0  0  0  0  0  0  0  0  0  0  0  0
   -2.4161   -1.6673    0.5021 H   0  0  0  0  0  0  0  0  0  0  0  0
  2  3  1  0
  3  4  1  0
  3  5  1  0
  5  6  1  0
  6  7  2  3
  6  8  1  0
  1  9  1  0
  2 10  1  0
  2 11  1  0
  2 12  1  0
  3 13  1  0
  4 14  1  0
  4 15  1  0
  4 16  1  0
  7 17  1  0
  8 18  1  0
  8 19  1  0
M  END
$$$$
