
     RDKit          3D

 51 53  0  0  0  0  0  0  0  0999 V2000
   -0.9155   -2.9324    2.3150 C   0  0  0  0  0  0  0  0  0  0  0  0
   -1.2579   -1.6648    2.8605 O   0  0  0  0  0  0  0  0  0  0  0  0
   -1.0149   -0.5979    1.9511 C   0  0  0  0  0  0  0  0  0  0  0  0
   -1.9658   -0.4936    0.7365 C   0  0  0  0  0  0  0  0  0  0  0  0
   -3.0407   -1.1019    0.7565 O   0  0  0  0  0  0  0  0  0  0  0  0
   -1.6106    0.3152   -0.3579 N   0  0  0  0  0  0  0  0  0  0  0  0
   -2.6068    0.4770   -1.4477 C   0  0  0  0  0  0  0  0  0  0  0  0
   -2.8195   -0.8100   -2.2602 C   0  0  0  0  0  0  0  0  0  0  0  0
   -4.2000   -0.8346   -2.9042 C   0  0  0  0  0  0  0  0  0  0  0  0
   -4.5614    0.4833   -3.3078 O   0  0  0  0  0  0  0  0  0  0  0  0
   -4.8489    1.3348   -2.1957 C   0  0  0  0  0  0  0  0  0  0  0  0
   -3.9394    1.0863   -0.9923 C   0  0  0  0  0  0  0  0  0  0  0  0
   -0.2364    0.7529   -0.6812 C   0  0  0  0  0  0  0  0  0  0  0  0
    0.3817    1.7811    0.2743 C   0  0  0  0  0  0  0  0  0  0  0  0
    1.8773    1.5518    0.1210 C   0  0  0  0  0  0  0  0  0  0  0  0
    1.9961    0.1290   -0.1555 N   0  0  0  0  0  0  0  0  0  0  0  0
    3.1764   -0.5941   -0.2431 C   0  0  0  0  0  0  0  0  0  0  0  0
    3.2362   -1.6645   -0.8423 O   0  0  0  0  0  0  0  0  0  0  0  0
    4.3522   -0.0262    0.3873 C   0  0  0  0  0  0  0  0  0  0  0  0
    5.6072    0.2627   -0.2208 C   0  0  0  0  0  0  0  0  0  0  0  0
    6.4182    0.7572    0.7717 C   0  0  0  0  0  0  0  0  0  0  0  0
    5.7622    0.7645    1.9590 O   0  0  0  0  0  0  0  0  0  0  0  0
    4.5163    0.2590    1.7328 C   0  0  0  0  0  0  0  0  0  0  0  0
    3.6599    0.1092    2.9289 C   0  0  0  0  0  0  0  0  0  0  0  0
    0.8048   -0.3706   -0.8202 C   0  0  0  0  0  0  0  0  0  0  0  0
   -1.1063   -3.6944    3.0756 H   0  0  0  0  0  0  0  0  0  0  0  0
    0.1468   -2.9620    2.0536 H   0  0  0  0  0  0  0  0  0  0  0  0
   -1.5240   -3.1627    1.4362 H   0  0  0  0  0  0  0  0  0  0  0  0
    0.0320   -0.6400    1.6572 H   0  0  0  0  0  0  0  0  0  0  0  0
   -1.1639    0.3211    2.5277 H   0  0  0  0  0  0  0  0  0  0  0  0
   -2.1960    1.2243   -2.1406 H   0  0  0  0  0  0  0  0  0  0  0  0
   -2.6796   -1.7219   -1.6705 H   0  0  0  0  0  0  0  0  0  0  0  0
   -2.0504   -0.8441   -3.0428 H   0  0  0  0  0  0  0  0  0  0  0  0
   -4.9584   -1.2344   -2.2202 H   0  0  0  0  0  0  0  0  0  0  0  0
   -4.1883   -1.4766   -3.7907 H   0  0  0  0  0  0  0  0  0  0  0  0
   -4.7287    2.3650   -2.5475 H   0  0  0  0  0  0  0  0  0  0  0  0
   -5.9009    1.2110   -1.9153 H   0  0  0  0  0  0  0  0  0  0  0  0
   -4.4678    0.4155   -0.3072 H   0  0  0  0  0  0  0  0  0  0  0  0
   -3.7843    2.0188   -0.4371 H   0  0  0  0  0  0  0  0  0  0  0  0
   -0.2667    1.2513   -1.6594 H   0  0  0  0  0  0  0  0  0  0  0  0
    0.0961    2.8062    0.0162 H   0  0  0  0  0  0  0  0  0  0  0  0
    0.0887    1.6289    1.3136 H   0  0  0  0  0  0  0  0  0  0  0  0
    2.2754    2.0952   -0.7437 H   0  0  0  0  0  0  0  0  0  0  0  0
    2.4324    1.8556    1.0093 H   0  0  0  0  0  0  0  0  0  0  0  0
    5.8763    0.1250   -1.2588 H   0  0  0  0  0  0  0  0  0  0  0  0
    7.4383    1.1146    0.7987 H   0  0  0  0  0  0  0  0  0  0  0  0
    4.2048   -0.4020    3.7286 H   0  0  0  0  0  0  0  0  0  0  0  0
    2.7624   -0.4759    2.7073 H   0  0  0  0  0  0  0  0  0  0  0  0
    3.3471    1.0904    3.2983 H   0  0  0  0  0  0  0  0  0  0  0  0
    0.5116   -1.3268   -0.3772 H   0  0  0  0  0  0  0  0  0  0  0  0
    1.0326   -0.5556   -1.8770 H   0  0  0  0  0  0  0  0  0  0  0  0
  1  2  1  0
  2  3  1  0
  3  4  1  0
  4  5  2  0
  4  6  1  0
  6  7  1  0
  7  8  1  0
  8  9  1  0
  9 10  1  0
 10 11  1  0
 11 12  1  0
  6 13  1  0
 13 14  1  0
 14 15  1  0
 15 16  1  0
 16 17  1  0
 17 18  2  0
 17 19  1  0
 19 20  1  0
 20 21  2  0
 21 22  1  0
 22 23  1  0
 23 24  1  0
 16 25  1  0
 12  7  1  0
 25 13  1  0
 23 19  2  0
  1 26  1  0
  1 27  1  0
  1 28  1  0
  3 29  1  0
  3 30  1  0
  7 31  1  0
  8 32  1  0
  8 33  1  0
  9 34  1  0
  9 35  1  0
 11 36  1  0
 11 37  1  0
 12 38  1  0
 12 39  1  0
 13 40  1  0
 14 41  1  0
 14 42  1  0
 15 43  1  0
 15 44  1  0
 20 45  1  0
 21 46  1  0
 24 47  1  0
 24 48  1  0
 24 49  1  0
 25 50  1  0
 25 51  1  0
M  END
$$$$
