
     RDKit          3D

 62 64  0  0  0  0  0  0  0  0999 V2000
    0.9307    6.2990   -1.0542 C   0  0  0  0  0  0  0  0  0  0  0  0
    0.4852    4.8525   -0.9124 C   0  0  0  0  0  0  0  0  0  0  0  0
   -0.0862    4.5774    0.4788 C   0  0  0  0  0  0  0  0  0  0  0  0
   -0.5342    3.1932    0.6154 N   0  0  0  0  0  0  0  0  0  0  0  0
   -1.8346    2.8558    0.2593 C   0  0  0  0  0  0  0  0  0  0  0  0
   -2.6549    3.6701   -0.1599 O   0  0  0  0  0  0  0  0  0  0  0  0
   -2.2506    1.4306    0.4066 C   0  0  0  0  0  0  0  0  0  0  0  0
   -3.5802    1.0890    0.1126 C   0  0  0  0  0  0  0  0  0  0  0  0
   -4.0198   -0.2285    0.2495 C   0  0  0  0  0  0  0  0  0  0  0  0
   -3.1294   -1.2140    0.6841 C   0  0  0  0  0  0  0  0  0  0  0  0
   -3.5470   -2.6338    0.8595 C   0  0  0  0  0  0  0  0  0  0  0  0
   -2.9366   -3.3519    1.6438 O   0  0  0  0  0  0  0  0  0  0  0  0
   -4.5951   -3.0714    0.0746 N   0  0  0  0  0  0  0  0  0  0  0  0
   -4.9956   -4.4734    0.0665 C   0  0  0  0  0  0  0  0  0  0  0  0
   -6.4510   -4.5983   -0.3733 C   0  0  0  0  0  0  0  0  0  0  0  0
   -4.0817   -5.2888   -0.8472 C   0  0  0  0  0  0  0  0  0  0  0  0
   -1.8018   -0.8716    0.9988 C   0  0  0  0  0  0  0  0  0  0  0  0
   -1.3521    0.4437    0.8419 C   0  0  0  0  0  0  0  0  0  0  0  0
   -0.0302    0.8630    1.1080 N   0  0  0  0  0  0  0  0  0  0  0  0
    1.1412    0.2260    1.4685 C   0  0  0  0  0  0  0  0  0  0  0  0
    1.4390   -1.4673    1.6408 S   0  0  0  0  0  0  0  0  0  0  0  0
    1.6445   -1.9664   -0.0919 C   0  0  0  0  0  0  0  0  0  0  0  0
    2.7154   -1.1977   -0.8515 C   0  0  0  0  0  0  0  0  0  0  0  0
    2.5589   -0.9364   -2.0426 O   0  0  0  0  0  0  0  0  0  0  0  0
    3.8596   -0.9084   -0.1408 N   0  0  0  0  0  0  0  0  0  0  0  0
    5.0024   -0.1420   -0.6640 C   0  0  0  0  0  0  0  0  0  0  0  0
    6.0666   -0.0677    0.4472 C   0  0  0  0  0  0  0  0  0  0  0  0
    4.5849    1.2878   -1.0399 C   0  0  0  0  0  0  0  0  0  0  0  0
    5.6287   -0.8453   -1.8795 C   0  0  0  0  0  0  0  0  0  0  0  0
    2.1018    1.1056    1.6419 N   0  0  0  0  0  0  0  0  0  0  0  0
    1.5995    2.3408    1.3459 N   0  0  0  0  0  0  0  0  0  0  0  0
    0.3371    2.1941    1.0116 C   0  0  0  0  0  0  0  0  0  0  0  0
    1.3492    6.4718   -2.0506 H   0  0  0  0  0  0  0  0  0  0  0  0
    0.0872    6.9832   -0.9156 H   0  0  0  0  0  0  0  0  0  0  0  0
    1.6998    6.5465   -0.3154 H   0  0  0  0  0  0  0  0  0  0  0  0
    1.3381    4.1904   -1.1053 H   0  0  0  0  0  0  0  0  0  0  0  0
   -0.2670    4.6293   -1.6784 H   0  0  0  0  0  0  0  0  0  0  0  0
    0.6607    4.7884    1.2535 H   0  0  0  0  0  0  0  0  0  0  0  0
   -0.9353    5.2453    0.6680 H   0  0  0  0  0  0  0  0  0  0  0  0
   -4.2843    1.8543   -0.2146 H   0  0  0  0  0  0  0  0  0  0  0  0
   -5.0633   -0.4565    0.0471 H   0  0  0  0  0  0  0  0  0  0  0  0
   -4.8756   -2.5090   -0.7180 H   0  0  0  0  0  0  0  0  0  0  0  0
   -4.9031   -4.8610    1.0885 H   0  0  0  0  0  0  0  0  0  0  0  0
   -6.5951   -4.2174   -1.3912 H   0  0  0  0  0  0  0  0  0  0  0  0
   -7.1069   -4.0226    0.2895 H   0  0  0  0  0  0  0  0  0  0  0  0
   -6.7769   -5.6430   -0.3499 H   0  0  0  0  0  0  0  0  0  0  0  0
   -3.0390   -5.2311   -0.5157 H   0  0  0  0  0  0  0  0  0  0  0  0
   -4.3757   -6.3443   -0.8515 H   0  0  0  0  0  0  0  0  0  0  0  0
   -4.1199   -4.9175   -1.8783 H   0  0  0  0  0  0  0  0  0  0  0  0
   -1.1694   -1.6665    1.3771 H   0  0  0  0  0  0  0  0  0  0  0  0
    1.9048   -3.0293   -0.1226 H   0  0  0  0  0  0  0  0  0  0  0  0
    0.6893   -1.8359   -0.6120 H   0  0  0  0  0  0  0  0  0  0  0  0
    3.7373   -0.8859    0.8680 H   0  0  0  0  0  0  0  0  0  0  0  0
    5.6733    0.4341    1.3390 H   0  0  0  0  0  0  0  0  0  0  0  0
    6.9544    0.4837    0.1167 H   0  0  0  0  0  0  0  0  0  0  0  0
    6.3871   -1.0704    0.7548 H   0  0  0  0  0  0  0  0  0  0  0  0
    3.8527    1.2998   -1.8543 H   0  0  0  0  0  0  0  0  0  0  0  0
    4.1318    1.8047   -0.1870 H   0  0  0  0  0  0  0  0  0  0  0  0
    5.4489    1.8778   -1.3666 H   0  0  0  0  0  0  0  0  0  0  0  0
    5.8741   -1.8883   -1.6470 H   0  0  0  0  0  0  0  0  0  0  0  0
    4.9560   -0.8519   -2.7429 H   0  0  0  0  0  0  0  0  0  0  0  0
    6.5524   -0.3446   -2.1931 H   0  0  0  0  0  0  0  0  0  0  0  0
  1  2  1  0
  2  3  1  0
  3  4  1  0
  4  5  1  0
  5  6  2  0
  5  7  1  0
  7  8  2  0
  8  9  1  0
  9 10  2  0
 10 11  1  0
 11 12  2  0
 11 13  1  0
 13 14  1  0
 14 15  1  0
 14 16  1  0
 10 17  1  0
 17 18  2  0
 18 19  1  0
 19 20  1  0
 20 21  1  0
 21 22  1  0
 22 23  1  0
 23 24  2  0
 23 25  1  0
 25 26  1  0
 26 27  1  0
 26 28  1  0
 26 29  1  0
 20 30  2  0
 30 31  1  0
 31 32  2  0
 32  4  1  0
 18  7  1  0
 32 19  1  0
  1 33  1  0
  1 34  1  0
  1 35  1  0
  2 36  1  0
  2 37  1  0
  3 38  1  0
  3 39  1  0
  8 40  1  0
  9 41  1  0
 13 42  1  0
 14 43  1  0
 15 44  1  0
 15 45  1  0
 15 46  1  0
 16 47  1  0
 16 48  1  0
 16 49  1  0
 17 50  1  0
 22 51  1  0
 22 52  1  0
 25 53  1  0
 27 54  1  0
 27 55  1  0
 27 56  1  0
 28 57  1  0
 28 58  1  0
 28 59  1  0
 29 60  1  0
 29 61  1  0
 29 62  1  0
M  END
$$$$
