
     RDKit          3D

 29 31  0  0  0  0  0  0  0  0999 V2000
    5.5341    0.8855   -0.1996 N   0  0  0  0  0  0  0  0  0  0  0  0
    4.1721    0.5831   -0.0949 C   0  0  0  0  0  0  0  0  0  0  0  0
    3.2106    1.5497   -0.3827 C   0  0  0  0  0  0  0  0  0  0  0  0
    1.8487    1.2227   -0.3933 C   0  0  0  0  0  0  0  0  0  0  0  0
    1.4056   -0.0918   -0.1663 C   0  0  0  0  0  0  0  0  0  0  0  0
   -0.0366   -0.4156   -0.1887 C   0  0  0  0  0  0  0  0  0  0  0  0
   -0.5301   -1.6399   -0.6310 C   0  0  0  0  0  0  0  0  0  0  0  0
   -1.9044   -1.8625   -0.6192 C   0  0  0  0  0  0  0  0  0  0  0  0
   -2.7659   -0.8590   -0.1680 C   0  0  0  0  0  0  0  0  0  0  0  0
   -4.1606   -1.0372   -0.1360 C   0  0  0  0  0  0  0  0  0  0  0  0
   -4.9898   -0.0139    0.3182 C   0  0  0  0  0  0  0  0  0  0  0  0
   -4.4301    1.1866    0.7401 C   0  0  0  0  0  0  0  0  0  0  0  0
   -3.0427    1.3580    0.7054 C   0  0  0  0  0  0  0  0  0  0  0  0
   -2.1930    0.3552    0.2576 C   0  0  0  0  0  0  0  0  0  0  0  0
   -0.8657    0.5704    0.2432 N   0  0  0  0  0  0  0  0  0  0  0  0
    2.3914   -1.0649    0.0696 C   0  0  0  0  0  0  0  0  0  0  0  0
    3.7539   -0.7350    0.0820 C   0  0  0  0  0  0  0  0  0  0  0  0
    6.1342    0.2548    0.3222 H   0  0  0  0  0  0  0  0  0  0  0  0
    5.7491    1.8605   -0.0156 H   0  0  0  0  0  0  0  0  0  0  0  0
    3.5062    2.5728   -0.5980 H   0  0  0  0  0  0  0  0  0  0  0  0
    1.1231    2.0088   -0.5978 H   0  0  0  0  0  0  0  0  0  0  0  0
    0.1331   -2.4144   -1.0007 H   0  0  0  0  0  0  0  0  0  0  0  0
   -2.2936   -2.8158   -0.9665 H   0  0  0  0  0  0  0  0  0  0  0  0
   -4.6053   -1.9734   -0.4649 H   0  0  0  0  0  0  0  0  0  0  0  0
   -6.0675   -0.1532    0.3425 H   0  0  0  0  0  0  0  0  0  0  0  0
   -5.0661    1.9925    1.0969 H   0  0  0  0  0  0  0  0  0  0  0  0
   -2.6113    2.2994    1.0373 H   0  0  0  0  0  0  0  0  0  0  0  0
    2.1155   -2.0999    0.2557 H   0  0  0  0  0  0  0  0  0  0  0  0
    4.4850   -1.5234    0.2397 H   0  0  0  0  0  0  0  0  0  0  0  0
  1  2  1  0
  2  3  2  0
  3  4  1  0
  4  5  2  0
  5  6  1  0
  6  7  2  0
  7  8  1  0
  8  9  2  0
  9 10  1  0
 10 11  2  0
 11 12  1  0
 12 13  2  0
 13 14  1  0
 14 15  2  0
  5 16  1  0
 16 17  2  0
 17  2  1  0
 15  6  1  0
 14  9  1  0
  1 18  1  0
  1 19  1  0
  3 20  1  0
  4 21  1  0
  7 22  1  0
  8 23  1  0
 10 24  1  0
 11 25  1  0
 12 26  1  0
 13 27  1  0
 16 28  1  0
 17 29  1  0
M  END
$$$$
