
     RDKit          3D

 62 65  0  0  0  0  0  0  0  0999 V2000
   -3.0173   -0.4206    1.8634 C   0  0  0  0  0  0  0  0  0  0  0  0
   -3.8715   -0.1648    0.6639 C   0  0  0  0  0  0  0  0  0  0  0  0
   -5.2580   -0.1820    0.7845 C   0  0  0  0  0  0  0  0  0  0  0  0
   -6.0929    0.0472   -0.2851 C   0  0  0  0  0  0  0  0  0  0  0  0
   -7.5465    0.0342   -0.1972 C   0  0  0  0  0  0  0  0  0  0  0  0
   -8.3318    1.0342   -0.7389 C   0  0  0  0  0  0  0  0  0  0  0  0
   -9.7151    1.0066   -0.6373 C   0  0  0  0  0  0  0  0  0  0  0  0
  -10.5038    2.0302   -1.1929 O   0  0  0  0  0  0  0  0  0  0  0  0
  -10.3429   -0.0312    0.0137 C   0  0  0  0  0  0  0  0  0  0  0  0
   -9.5732   -1.0322    0.5567 C   0  0  0  0  0  0  0  0  0  0  0  0
   -8.1926   -0.9928    0.4482 C   0  0  0  0  0  0  0  0  0  0  0  0
   -7.2414   -2.2906    1.1437 Cl  0  0  0  0  0  0  0  0  0  0  0  0
   -5.4629    0.3006   -1.5091 C   0  0  0  0  0  0  0  0  0  0  0  0
   -4.0924    0.3190   -1.6343 C   0  0  0  0  0  0  0  0  0  0  0  0
   -3.4601    0.5602   -2.7935 N   0  0  0  0  0  0  0  0  0  0  0  0
   -2.1538    0.5816   -2.9245 N   0  0  0  0  0  0  0  0  0  0  0  0
   -1.3068    0.3532   -1.8602 C   0  0  0  0  0  0  0  0  0  0  0  0
    0.0781    0.4091   -2.0818 N   0  0  0  0  0  0  0  0  0  0  0  0
    1.0237    0.1823   -1.0716 C   0  0  0  0  0  0  0  0  0  0  0  0
    0.7638   -0.3656    0.1398 C   0  0  0  0  0  0  0  0  0  0  0  0
    1.7573   -0.5474    1.1099 C   0  0  0  0  0  0  0  0  0  0  0  0
    3.0691   -0.1527    0.8284 C   0  0  0  0  0  0  0  0  0  0  0  0
    3.9843   -0.3432    1.7872 O   0  0  0  0  0  0  0  0  0  0  0  0
    5.3235   -0.0992    1.8162 C   0  0  0  0  0  0  0  0  0  0  0  0
    6.1615   -0.8914    0.8645 C   0  0  0  0  0  0  0  0  0  0  0  0
    7.5572   -0.5110    1.0203 N   0  0  0  0  0  0  0  0  0  0  0  0
    7.7159    0.8386    0.5560 C   0  0  0  0  0  0  0  0  0  0  0  0
    9.0142    0.9041   -0.1989 C   0  0  0  0  0  0  0  0  0  0  0  0
    9.3254   -0.5179   -0.5745 C   0  0  0  0  0  0  0  0  0  0  0  0
    8.4595   -1.3520    0.3071 C   0  0  0  0  0  0  0  0  0  0  0  0
    3.3374    0.4004   -0.3897 C   0  0  0  0  0  0  0  0  0  0  0  0
    2.3469    0.5736   -1.3383 C   0  0  0  0  0  0  0  0  0  0  0  0
   -1.9360    0.1140   -0.7110 N   0  0  0  0  0  0  0  0  0  0  0  0
   -3.2668    0.0861   -0.5478 C   0  0  0  0  0  0  0  0  0  0  0  0
    0.6832    0.0000    0.0000 Cl  0  0  0  0  0  0  0  0  0  0  0  0
   -2.6140    0.5568    2.2037 H   0  0  0  0  0  0  0  0  0  0  0  0
   -2.2331   -1.1388    1.6290 H   0  0  0  0  0  0  0  0  0  0  0  0
   -3.6343   -0.8542    2.6782 H   0  0  0  0  0  0  0  0  0  0  0  0
   -5.7072   -0.3763    1.7430 H   0  0  0  0  0  0  0  0  0  0  0  0
   -7.8324    1.8425   -1.2462 H   0  0  0  0  0  0  0  0  0  0  0  0
  -10.6946    2.8127   -0.5643 H   0  0  0  0  0  0  0  0  0  0  0  0
  -11.4190   -0.0597    0.0973 H   0  0  0  0  0  0  0  0  0  0  0  0
  -10.0020   -1.8748    1.0798 H   0  0  0  0  0  0  0  0  0  0  0  0
   -6.1009    0.4855   -2.3752 H   0  0  0  0  0  0  0  0  0  0  0  0
    0.4044    0.6357   -3.0789 H   0  0  0  0  0  0  0  0  0  0  0  0
   -0.2195   -0.6988    0.4119 H   0  0  0  0  0  0  0  0  0  0  0  0
    1.5014   -0.9889    2.0605 H   0  0  0  0  0  0  0  0  0  0  0  0
    5.5809    1.0052    1.7579 H   0  0  0  0  0  0  0  0  0  0  0  0
    5.6833   -0.3478    2.8726 H   0  0  0  0  0  0  0  0  0  0  0  0
    6.0714   -2.0015    1.0744 H   0  0  0  0  0  0  0  0  0  0  0  0
    5.8797   -0.7533   -0.1633 H   0  0  0  0  0  0  0  0  0  0  0  0
    6.8925    1.1257   -0.1281 H   0  0  0  0  0  0  0  0  0  0  0  0
    7.7499    1.4890    1.4621 H   0  0  0  0  0  0  0  0  0  0  0  0
    8.9541    1.5433   -1.0952 H   0  0  0  0  0  0  0  0  0  0  0  0
    9.7827    1.3402    0.4982 H   0  0  0  0  0  0  0  0  0  0  0  0
    9.1918   -0.7165   -1.6576 H   0  0  0  0  0  0  0  0  0  0  0  0
   10.4030   -0.6953   -0.3602 H   0  0  0  0  0  0  0  0  0  0  0  0
    9.0757   -1.9667    0.9937 H   0  0  0  0  0  0  0  0  0  0  0  0
    7.8342   -2.0114   -0.3632 H   0  0  0  0  0  0  0  0  0  0  0  0
    4.3145    0.7555   -0.6883 H   0  0  0  0  0  0  0  0  0  0  0  0
    2.5855    1.0114   -2.2927 H   0  0  0  0  0  0  0  0  0  0  0  0
   -0.6832    0.0000    0.0000 H   0  0  0  0  0  0  0  0  0  0  0  0
  1  2  1  0
  2  3  2  0
  3  4  1  0
  4  5  1  0
  5  6  2  0
  6  7  1  0
  7  8  1  0
  7  9  2  0
  9 10  1  0
 10 11  2  0
 11 12  1  0
  4 13  2  0
 13 14  1  0
 14 15  2  0
 15 16  1  0
 16 17  2  0
 17 18  1  0
 18 19  1  0
 19 20  2  0
 20 21  1  0
 21 22  2  0
 22 23  1  0
 23 24  1  0
 24 25  1  0
 25 26  1  0
 26 27  1  0
 27 28  1  0
 28 29  1  0
 29 30  1  0
 22 31  1  0
 31 32  2  0
 17 33  1  0
 33 34  2  0
 34  2  1  0
 11  5  1  0
 34 14  1  0
 32 19  1  0
 30 26  1  0
  1 36  1  0
  1 37  1  0
  1 38  1  0
  3 39  1  0
  6 40  1  0
  8 41  1  0
  9 42  1  0
 10 43  1  0
 13 44  1  0
 18 45  1  0
 20 46  1  0
 21 47  1  0
 24 48  1  0
 24 49  1  0
 25 50  1  0
 25 51  1  0
 27 52  1  0
 27 53  1  0
 28 54  1  0
 28 55  1  0
 29 56  1  0
 29 57  1  0
 30 58  1  0
 30 59  1  0
 31 60  1  0
 32 61  1  0
 35 62  1  0
M  END
$$$$
