
     RDKit          3D

 44 46  0  0  0  0  0  0  0  0999 V2000
    6.4682    0.2852    0.8132 C   0  0  0  0  0  0  0  0  0  0  0  0
    5.1656    0.2655    0.0004 C   0  0  0  0  0  0  0  0  0  0  0  0
    5.3662   -0.6622   -1.2098 C   0  0  0  0  0  0  0  0  0  0  0  0
    4.0071   -0.2166    0.9168 C   0  0  0  0  0  0  0  0  0  0  0  0
    2.6689    0.1846    0.3648 C   0  0  0  0  0  0  0  0  0  0  0  0
    2.6046    1.1667   -0.6043 C   0  0  0  0  0  0  0  0  0  0  0  0
    1.0105    1.5401   -1.0422 S   0  0  0  0  0  0  0  0  0  0  0  0
    0.3896    0.3227   -0.0239 C   0  0  0  0  0  0  0  0  0  0  0  0
   -0.9727    0.1812   -0.1762 N   0  0  0  0  0  0  0  0  0  0  0  0
   -1.7012   -0.9848   -0.1570 C   0  0  0  0  0  0  0  0  0  0  0  0
   -1.1546   -2.5689   -0.1353 S   0  0  0  0  0  0  0  0  0  0  0  0
   -3.0752   -0.8145   -0.2171 N   0  0  0  0  0  0  0  0  0  0  0  0
   -3.7942    0.3656   -0.3512 C   0  0  0  0  0  0  0  0  0  0  0  0
   -3.2759    1.4678   -0.5065 O   0  0  0  0  0  0  0  0  0  0  0  0
   -5.2757    0.2409   -0.3090 C   0  0  0  0  0  0  0  0  0  0  0  0
   -5.9450   -0.8874   -0.8016 C   0  0  0  0  0  0  0  0  0  0  0  0
   -7.3392   -0.9525   -0.7378 C   0  0  0  0  0  0  0  0  0  0  0  0
   -8.0661    0.1061   -0.1929 C   0  0  0  0  0  0  0  0  0  0  0  0
   -7.4045    1.2378    0.2818 C   0  0  0  0  0  0  0  0  0  0  0  0
   -6.0121    1.3087    0.2197 C   0  0  0  0  0  0  0  0  0  0  0  0
    1.3526   -0.2531    0.7886 C   0  0  0  0  0  0  0  0  0  0  0  0
    1.0513   -1.0904    1.9416 C   0  0  0  0  0  0  0  0  0  0  0  0
    0.0208   -1.0655    2.6015 O   0  0  0  0  0  0  0  0  0  0  0  0
    2.0461   -1.9283    2.3132 O   0  0  0  0  0  0  0  0  0  0  0  0
    3.7759    1.8527   -1.2247 C   0  0  0  0  0  0  0  0  0  0  0  0
    4.9457    1.6299   -0.4177 O   0  0  0  0  0  0  0  0  0  0  0  0
    6.3924    0.9815    1.6564 H   0  0  0  0  0  0  0  0  0  0  0  0
    6.7169   -0.7071    1.2038 H   0  0  0  0  0  0  0  0  0  0  0  0
    7.3052    0.6370    0.1989 H   0  0  0  0  0  0  0  0  0  0  0  0
    5.6795   -1.6637   -0.8956 H   0  0  0  0  0  0  0  0  0  0  0  0
    4.4518   -0.7753   -1.8008 H   0  0  0  0  0  0  0  0  0  0  0  0
    6.1272   -0.2561   -1.8858 H   0  0  0  0  0  0  0  0  0  0  0  0
    4.0738   -1.3015    1.0487 H   0  0  0  0  0  0  0  0  0  0  0  0
    4.0970    0.2494    1.9069 H   0  0  0  0  0  0  0  0  0  0  0  0
   -1.4484    0.9768   -0.6039 H   0  0  0  0  0  0  0  0  0  0  0  0
   -3.5820   -1.6798   -0.0968 H   0  0  0  0  0  0  0  0  0  0  0  0
   -5.4092   -1.7104   -1.2654 H   0  0  0  0  0  0  0  0  0  0  0  0
   -7.8621   -1.8252   -1.1228 H   0  0  0  0  0  0  0  0  0  0  0  0
   -9.1515    0.0536   -0.1472 H   0  0  0  0  0  0  0  0  0  0  0  0
   -7.9723    2.0670    0.6973 H   0  0  0  0  0  0  0  0  0  0  0  0
   -5.5025    2.1974    0.5877 H   0  0  0  0  0  0  0  0  0  0  0  0
    1.6459   -2.3991    3.0726 H   0  0  0  0  0  0  0  0  0  0  0  0
    3.9610    1.4891   -2.2407 H   0  0  0  0  0  0  0  0  0  0  0  0
    3.6206    2.9352   -1.2744 H   0  0  0  0  0  0  0  0  0  0  0  0
  1  2  1  0
  2  3  1  0
  2  4  1  0
  4  5  1  0
  5  6  2  0
  6  7  1  0
  7  8  1  0
  8  9  1  0
  9 10  1  0
 10 11  2  0
 10 12  1  0
 12 13  1  0
 13 14  2  0
 13 15  1  0
 15 16  2  0
 16 17  1  0
 17 18  2  0
 18 19  1  0
 19 20  2  0
  8 21  2  0
 21 22  1  0
 22 23  2  0
 22 24  1  0
  6 25  1  0
 25 26  1  0
 26  2  1  0
 21  5  1  0
 20 15  1  0
  1 27  1  0
  1 28  1  0
  1 29  1  0
  3 30  1  0
  3 31  1  0
  3 32  1  0
  4 33  1  0
  4 34  1  0
  9 35  1  0
 12 36  1  0
 16 37  1  0
 17 38  1  0
 18 39  1  0
 19 40  1  0
 20 41  1  0
 24 42  1  0
 25 43  1  0
 25 44  1  0
M  END
$$$$
