
     RDKit          3D

 50 53  0  0  0  0  0  0  0  0999 V2000
    7.8590    0.9075    1.9883 C   0  0  0  0  0  0  0  0  0  0  0  0
    7.3674    0.0327    0.9810 O   0  0  0  0  0  0  0  0  0  0  0  0
    6.0253    0.0798    0.7207 C   0  0  0  0  0  0  0  0  0  0  0  0
    5.0987    0.9131    1.3425 C   0  0  0  0  0  0  0  0  0  0  0  0
    3.7487    0.8584    0.9776 C   0  0  0  0  0  0  0  0  0  0  0  0
    3.3021   -0.0292   -0.0143 C   0  0  0  0  0  0  0  0  0  0  0  0
    1.9464   -0.0928   -0.3897 C   0  0  0  0  0  0  0  0  0  0  0  0
    1.5199   -0.9813   -1.3784 C   0  0  0  0  0  0  0  0  0  0  0  0
    0.2377   -1.1342   -1.8273 O   0  0  0  0  0  0  0  0  0  0  0  0
   -0.7551   -0.2577   -1.2936 C   0  0  0  0  0  0  0  0  0  0  0  0
   -2.0897   -0.5610   -1.9845 C   0  0  0  0  0  0  0  0  0  0  0  0
   -1.9989   -0.3564   -3.5252 C   0  0  0  0  0  0  0  0  0  0  0  0
   -1.9368   -1.1970   -4.4126 O   0  0  0  0  0  0  0  0  0  0  0  0
   -2.0169    0.9517   -3.8887 O   0  0  0  0  0  0  0  0  0  0  0  0
   -3.2801    0.1522   -1.3016 C   0  0  0  0  0  0  0  0  0  0  0  0
   -3.5857   -1.1121   -0.6431 N   0  0  0  0  0  0  0  0  0  0  0  0
   -3.8105   -1.3638    0.6939 C   0  0  0  0  0  0  0  0  0  0  0  0
   -3.4405   -2.3905    1.2549 O   0  0  0  0  0  0  0  0  0  0  0  0
   -4.5286   -0.3261    1.4795 C   0  0  0  0  0  0  0  0  0  0  0  0
   -5.5729    0.4263    0.9230 C   0  0  0  0  0  0  0  0  0  0  0  0
   -6.2296    1.3840    1.6989 C   0  0  0  0  0  0  0  0  0  0  0  0
   -5.8493    1.5746    3.0237 C   0  0  0  0  0  0  0  0  0  0  0  0
   -6.4818    2.4939    3.7640 F   0  0  0  0  0  0  0  0  0  0  0  0
   -4.8293    0.8204    3.5936 C   0  0  0  0  0  0  0  0  0  0  0  0
   -4.1700   -0.1383    2.8222 C   0  0  0  0  0  0  0  0  0  0  0  0
   -2.7180   -1.8941   -1.5226 C   0  0  0  0  0  0  0  0  0  0  0  0
    2.4517   -1.8163   -1.9941 C   0  0  0  0  0  0  0  0  0  0  0  0
    3.7997   -1.7657   -1.6341 C   0  0  0  0  0  0  0  0  0  0  0  0
    4.2395   -0.8752   -0.6451 C   0  0  0  0  0  0  0  0  0  0  0  0
    5.5909   -0.8078   -0.2678 C   0  0  0  0  0  0  0  0  0  0  0  0
    8.9373    0.7433    2.0765 H   0  0  0  0  0  0  0  0  0  0  0  0
    7.4076    0.6838    2.9605 H   0  0  0  0  0  0  0  0  0  0  0  0
    7.7035    1.9554    1.7111 H   0  0  0  0  0  0  0  0  0  0  0  0
    5.3893    1.6172    2.1148 H   0  0  0  0  0  0  0  0  0  0  0  0
    3.0454    1.5194    1.4795 H   0  0  0  0  0  0  0  0  0  0  0  0
    1.2421    0.5627    0.1115 H   0  0  0  0  0  0  0  0  0  0  0  0
   -0.8386   -0.4130   -0.2103 H   0  0  0  0  0  0  0  0  0  0  0  0
   -0.4748    0.7860   -1.4852 H   0  0  0  0  0  0  0  0  0  0  0  0
   -1.9334    0.9154   -4.8669 H   0  0  0  0  0  0  0  0  0  0  0  0
   -4.0894    0.4719   -1.9661 H   0  0  0  0  0  0  0  0  0  0  0  0
   -3.0136    0.9720   -0.6283 H   0  0  0  0  0  0  0  0  0  0  0  0
   -5.8959    0.2585   -0.1009 H   0  0  0  0  0  0  0  0  0  0  0  0
   -7.0413    1.9740    1.2844 H   0  0  0  0  0  0  0  0  0  0  0  0
   -4.5596    0.9770    4.6333 H   0  0  0  0  0  0  0  0  0  0  0  0
   -3.3802   -0.7410    3.2669 H   0  0  0  0  0  0  0  0  0  0  0  0
   -3.2955   -2.4402   -2.2754 H   0  0  0  0  0  0  0  0  0  0  0  0
   -2.0493   -2.5879   -1.0052 H   0  0  0  0  0  0  0  0  0  0  0  0
    2.1270   -2.5140   -2.7625 H   0  0  0  0  0  0  0  0  0  0  0  0
    4.5027   -2.4292   -2.1325 H   0  0  0  0  0  0  0  0  0  0  0  0
    6.3234   -1.4548   -0.7461 H   0  0  0  0  0  0  0  0  0  0  0  0
  1  2  1  0
  2  3  1  0
  3  4  2  0
  4  5  1  0
  5  6  2  0
  6  7  1  0
  7  8  2  0
  8  9  1  0
  9 10  1  0
 10 11  1  0
 11 12  1  0
 12 13  2  0
 12 14  1  0
 11 15  1  0
 15 16  1  0
 16 17  1  0
 17 18  2  0
 17 19  1  0
 19 20  2  0
 20 21  1  0
 21 22  2  0
 22 23  1  0
 22 24  1  0
 24 25  2  0
 16 26  1  0
  8 27  1  0
 27 28  2  0
 28 29  1  0
 29 30  2  0
 30  3  1  0
 29  6  1  0
 26 11  1  0
 25 19  1  0
  1 31  1  0
  1 32  1  0
  1 33  1  0
  4 34  1  0
  5 35  1  0
  7 36  1  0
 10 37  1  0
 10 38  1  0
 14 39  1  0
 15 40  1  0
 15 41  1  0
 20 42  1  0
 21 43  1  0
 24 44  1  0
 25 45  1  0
 26 46  1  0
 26 47  1  0
 27 48  1  0
 28 49  1  0
 30 50  1  0
M  END
$$$$
