
     RDKit          3D

 56 60  0  0  0  0  0  0  0  0999 V2000
   -2.4350   -5.0966    0.2164 C   0  0  0  0  0  0  0  0  0  0  0  0
   -2.5513   -3.6312    0.0645 C   0  0  0  0  0  0  0  0  0  0  0  0
   -3.6139   -3.0389   -0.4912 N   0  0  0  0  0  0  0  0  0  0  0  0
   -3.2745   -1.7423   -0.4159 N   0  0  0  0  0  0  0  0  0  0  0  0
   -2.0649   -1.5759    0.2073 C   0  0  0  0  0  0  0  0  0  0  0  0
   -1.4224   -0.2323    0.4717 C   0  0  1  0  0  0  0  0  0  0  0  0
   -0.3642   -0.3634    1.5900 C   0  0  0  0  0  0  0  0  0  0  0  0
    1.0044   -0.7196    1.0161 C   0  0  0  0  0  0  0  0  0  0  0  0
    1.4692    0.2944    0.0666 N   0  0  0  0  0  0  0  0  0  0  0  0
    2.8130    0.5250   -0.2294 C   0  0  0  0  0  0  0  0  0  0  0  0
    3.1587    1.4823   -0.9208 O   0  0  0  0  0  0  0  0  0  0  0  0
    3.8205   -0.4573    0.3597 C   0  0  0  0  0  0  0  0  0  0  0  0
    5.1884   -0.4020   -0.2825 C   0  0  0  0  0  0  0  0  0  0  0  0
    6.1776    0.4623    0.2197 C   0  0  0  0  0  0  0  0  0  0  0  0
    7.4387    0.5232   -0.3809 C   0  0  0  0  0  0  0  0  0  0  0  0
    7.7140   -0.2762   -1.4893 C   0  0  0  0  0  0  0  0  0  0  0  0
    9.2672   -0.2048   -2.2298 Cl  0  0  0  0  0  0  0  0  0  0  0  0
    6.7381   -1.1317   -2.0047 C   0  0  0  0  0  0  0  0  0  0  0  0
    5.4763   -1.1916   -1.4052 C   0  0  0  0  0  0  0  0  0  0  0  0
    0.4547    1.1266   -0.5836 C   0  0  0  0  0  0  0  0  0  0  0  0
   -0.8177    0.3225   -0.8467 C   0  0  2  0  0  0  0  0  0  0  0  0
   -1.9301    1.1678   -1.4708 C   0  0  0  0  0  0  0  0  0  0  0  0
   -2.9196    1.3644   -0.4244 N   0  0  0  0  0  0  0  0  0  0  0  0
   -4.0525    2.1097   -0.6591 C   0  0  0  0  0  0  0  0  0  0  0  0
   -4.3472    2.5518   -1.7637 O   0  0  0  0  0  0  0  0  0  0  0  0
   -4.9548    2.3237    0.5018 C   0  0  0  0  0  0  0  0  0  0  0  0
   -4.6317    3.3781    1.5368 C   0  0  0  0  0  0  0  0  0  0  0  0
   -5.7868    3.5833    0.5990 C   0  0  0  0  0  0  0  0  0  0  0  0
   -2.4748    0.8280    0.8510 C   0  0  0  0  0  0  0  0  0  0  0  0
   -1.5797   -2.7660    0.5048 N   0  0  0  0  0  0  0  0  0  0  0  0
   -1.3828   -5.4006    0.2296 H   0  0  0  0  0  0  0  0  0  0  0  0
   -2.9203   -5.6223   -0.6130 H   0  0  0  0  0  0  0  0  0  0  0  0
   -2.9012   -5.4196    1.1563 H   0  0  0  0  0  0  0  0  0  0  0  0
   -3.9055   -1.0340   -0.7800 H   0  0  0  0  0  0  0  0  0  0  0  0
   -0.6619   -1.1053    2.3414 H   0  0  0  0  0  0  0  0  0  0  0  0
   -0.2606    0.5862    2.1321 H   0  0  0  0  0  0  0  0  0  0  0  0
    1.7246   -0.8111    1.8332 H   0  0  0  0  0  0  0  0  0  0  0  0
    0.9786   -1.6758    0.4865 H   0  0  0  0  0  0  0  0  0  0  0  0
    3.9165   -0.2511    1.4311 H   0  0  0  0  0  0  0  0  0  0  0  0
    3.4362   -1.4767    0.2578 H   0  0  0  0  0  0  0  0  0  0  0  0
    5.9677    1.1043    1.0739 H   0  0  0  0  0  0  0  0  0  0  0  0
    8.1946    1.2021    0.0141 H   0  0  0  0  0  0  0  0  0  0  0  0
    6.9485   -1.7473   -2.8751 H   0  0  0  0  0  0  0  0  0  0  0  0
    4.7211   -1.8514   -1.8291 H   0  0  0  0  0  0  0  0  0  0  0  0
    0.2616    1.9808    0.0768 H   0  0  0  0  0  0  0  0  0  0  0  0
    0.8438    1.5276   -1.5259 H   0  0  0  0  0  0  0  0  0  0  0  0
   -0.5528   -0.4902   -1.5377 H   0  0  0  0  0  0  0  0  0  0  0  0
   -1.5846    2.1391   -1.8407 H   0  0  0  0  0  0  0  0  0  0  0  0
   -2.4155    0.6394   -2.2987 H   0  0  0  0  0  0  0  0  0  0  0  0
   -5.4533    1.4120    0.8432 H   0  0  0  0  0  0  0  0  0  0  0  0
   -4.8591    3.1499    2.5742 H   0  0  0  0  0  0  0  0  0  0  0  0
   -3.7570    4.0029    1.3936 H   0  0  0  0  0  0  0  0  0  0  0  0
   -5.6875    4.3273   -0.1902 H   0  0  0  0  0  0  0  0  0  0  0  0
   -6.7966    3.4982    0.9958 H   0  0  0  0  0  0  0  0  0  0  0  0
   -3.3152    0.4322    1.4324 H   0  0  0  0  0  0  0  0  0  0  0  0
   -2.0391    1.6697    1.4037 H   0  0  0  0  0  0  0  0  0  0  0  0
  1  2  1  0
  2  3  2  0
  3  4  1  0
  4  5  1  0
  6  5  1  6
  6  7  1  0
  7  8  1  0
  8  9  1  0
  9 10  1  0
 10 11  2  0
 10 12  1  0
 12 13  1  0
 13 14  2  0
 14 15  1  0
 15 16  2  0
 16 17  1  0
 16 18  1  0
 18 19  2  0
  9 20  1  0
 20 21  1  0
 21 22  1  0
 22 23  1  0
 23 24  1  0
 24 25  2  0
 24 26  1  0
 26 27  1  0
 27 28  1  0
 23 29  1  0
  5 30  2  0
 30  2  1  0
 21  6  1  0
 28 26  1  0
 29  6  1  0
 19 13  1  0
  1 31  1  0
  1 32  1  0
  1 33  1  0
  4 34  1  0
  7 35  1  0
  7 36  1  0
  8 37  1  0
  8 38  1  0
 12 39  1  0
 12 40  1  0
 14 41  1  0
 15 42  1  0
 18 43  1  0
 19 44  1  0
 20 45  1  0
 20 46  1  0
 21 47  1  6
 22 48  1  0
 22 49  1  0
 26 50  1  0
 27 51  1  0
 27 52  1  0
 28 53  1  0
 28 54  1  0
 29 55  1  0
 29 56  1  0
M  END
$$$$
