
     RDKit          3D

 61 64  0  0  0  0  0  0  0  0999 V2000
   -2.7861    0.3409   -1.0705 C   0  0  0  0  0  0  0  0  0  0  0  0
   -3.1898   -1.1132   -1.0966 C   0  0  0  0  0  0  0  0  0  0  0  0
   -2.2364   -2.1246   -1.3526 C   0  0  0  0  0  0  0  0  0  0  0  0
   -0.7883   -1.8373   -1.5100 C   0  0  0  0  0  0  0  0  0  0  0  0
   -0.2448   -2.1350   -2.5644 O   0  0  0  0  0  0  0  0  0  0  0  0
   -0.2082   -1.2942   -0.3802 N   0  0  0  0  0  0  0  0  0  0  0  0
    1.1466   -0.9464   -0.2050 C   0  0  0  0  0  0  0  0  0  0  0  0
    2.1300   -1.0895   -1.1701 C   0  0  0  0  0  0  0  0  0  0  0  0
    3.4474   -0.7198   -0.8755 C   0  0  0  0  0  0  0  0  0  0  0  0
    3.7768   -0.1945    0.3746 C   0  0  0  0  0  0  0  0  0  0  0  0
    5.0836    0.1558    0.6867 N   0  0  0  0  0  0  0  0  0  0  0  0
    5.9245    0.7820   -0.3458 C   0  0  0  0  0  0  0  0  0  0  0  0
    6.7624    1.9397    0.2418 C   0  0  2  0  0  0  0  0  0  0  0  0
    7.7057    2.5129   -0.8089 C   0  0  0  0  0  0  0  0  0  0  0  0
    7.5656    1.5230    1.3550 O   0  0  0  0  0  0  0  0  0  0  0  0
    6.8549    0.7265    2.3217 C   0  0  2  0  0  0  0  0  0  0  0  0
    7.5425   -0.6354    2.3914 C   0  0  0  0  0  0  0  0  0  0  0  0
    5.3353    0.5938    2.0656 C   0  0  0  0  0  0  0  0  0  0  0  0
    2.8240   -0.0608    1.3217 N   0  0  0  0  0  0  0  0  0  0  0  0
    1.5551   -0.4298    1.0184 C   0  0  0  0  0  0  0  0  0  0  0  0
   -2.6113   -3.4702   -1.4515 C   0  0  0  0  0  0  0  0  0  0  0  0
   -3.9357   -3.8365   -1.2509 C   0  0  0  0  0  0  0  0  0  0  0  0
   -4.8825   -2.8594   -0.9473 C   0  0  0  0  0  0  0  0  0  0  0  0
   -4.5332   -1.4963   -0.8610 C   0  0  0  0  0  0  0  0  0  0  0  0
   -5.5880   -0.5267   -0.5269 C   0  0  0  0  0  0  0  0  0  0  0  0
   -5.6540    0.0566    0.7467 C   0  0  0  0  0  0  0  0  0  0  0  0
   -6.6641    0.9714    1.0719 C   0  0  0  0  0  0  0  0  0  0  0  0
   -7.6304    1.3150    0.1274 C   0  0  0  0  0  0  0  0  0  0  0  0
   -8.6694    2.1828    0.3048 O   0  0  0  0  0  0  0  0  0  0  0  0
   -8.8060    2.7994    1.5727 C   0  0  0  0  0  0  0  0  0  0  0  0
   -9.8908    3.6053    1.5481 F   0  0  0  0  0  0  0  0  0  0  0  0
   -8.9878    1.8808    2.5457 F   0  0  0  0  0  0  0  0  0  0  0  0
   -7.7273    3.5575    1.8641 F   0  0  0  0  0  0  0  0  0  0  0  0
   -7.5724    0.7352   -1.1425 C   0  0  0  0  0  0  0  0  0  0  0  0
   -6.5643   -0.1768   -1.4682 C   0  0  0  0  0  0  0  0  0  0  0  0
   -2.5379    0.6439   -0.0487 H   0  0  0  0  0  0  0  0  0  0  0  0
   -3.5840    0.9871   -1.4504 H   0  0  0  0  0  0  0  0  0  0  0  0
   -1.9238    0.5317   -1.7172 H   0  0  0  0  0  0  0  0  0  0  0  0
   -0.8127   -1.1664    0.4225 H   0  0  0  0  0  0  0  0  0  0  0  0
    1.9189   -1.4953   -2.1536 H   0  0  0  0  0  0  0  0  0  0  0  0
    4.2108   -0.8743   -1.6304 H   0  0  0  0  0  0  0  0  0  0  0  0
    5.3252    1.1833   -1.1716 H   0  0  0  0  0  0  0  0  0  0  0  0
    6.5883    0.0096   -0.7510 H   0  0  0  0  0  0  0  0  0  0  0  0
    6.1002    2.7444    0.5867 H   0  0  0  0  0  0  0  0  0  0  0  0
    8.4344    1.7593   -1.1298 H   0  0  0  0  0  0  0  0  0  0  0  0
    7.1586    2.8694   -1.6873 H   0  0  0  0  0  0  0  0  0  0  0  0
    8.2805    3.3477   -0.3934 H   0  0  0  0  0  0  0  0  0  0  0  0
    6.9946    1.2188    3.2912 H   0  0  0  0  0  0  0  0  0  0  0  0
    7.5025   -1.1538    1.4279 H   0  0  0  0  0  0  0  0  0  0  0  0
    7.0848   -1.2745    3.1530 H   0  0  0  0  0  0  0  0  0  0  0  0
    8.6038   -0.5118    2.6351 H   0  0  0  0  0  0  0  0  0  0  0  0
    4.8572    1.5689    2.2299 H   0  0  0  0  0  0  0  0  0  0  0  0
    4.9150   -0.1142    2.7915 H   0  0  0  0  0  0  0  0  0  0  0  0
    0.8535   -0.2891    1.8348 H   0  0  0  0  0  0  0  0  0  0  0  0
   -1.8660   -4.2303   -1.6788 H   0  0  0  0  0  0  0  0  0  0  0  0
   -4.2313   -4.8802   -1.3204 H   0  0  0  0  0  0  0  0  0  0  0  0
   -5.9139   -3.1656   -0.7750 H   0  0  0  0  0  0  0  0  0  0  0  0
   -4.9176   -0.2068    1.5037 H   0  0  0  0  0  0  0  0  0  0  0  0
   -6.6599    1.3861    2.0765 H   0  0  0  0  0  0  0  0  0  0  0  0
   -8.3188    0.9927   -1.8907 H   0  0  0  0  0  0  0  0  0  0  0  0
   -6.5456   -0.6133   -2.4648 H   0  0  0  0  0  0  0  0  0  0  0  0
  1  2  1  0
  2  3  2  0
  3  4  1  0
  4  5  2  0
  4  6  1  0
  6  7  1  0
  7  8  2  0
  8  9  1  0
  9 10  2  0
 10 11  1  0
 11 12  1  0
 12 13  1  0
 13 14  1  0
 13 15  1  0
 15 16  1  0
 16 17  1  0
 16 18  1  0
 10 19  1  0
 19 20  2  0
  3 21  1  0
 21 22  2  0
 22 23  1  0
 23 24  2  0
 24 25  1  0
 25 26  2  0
 26 27  1  0
 27 28  2  0
 28 29  1  0
 29 30  1  0
 30 31  1  0
 30 32  1  0
 30 33  1  0
 28 34  1  0
 34 35  2  0
 24  2  1  0
 35 25  1  0
 20  7  1  0
 18 11  1  0
  1 36  1  0
  1 37  1  0
  1 38  1  0
  6 39  1  0
  8 40  1  0
  9 41  1  0
 12 42  1  0
 12 43  1  0
 13 44  1  1
 14 45  1  0
 14 46  1  0
 14 47  1  0
 16 48  1  1
 17 49  1  0
 17 50  1  0
 17 51  1  0
 18 52  1  0
 18 53  1  0
 20 54  1  0
 21 55  1  0
 22 56  1  0
 23 57  1  0
 26 58  1  0
 27 59  1  0
 34 60  1  0
 35 61  1  0
M  END
$$$$
