
     RDKit          3D

 54 58  0  0  0  0  0  0  0  0999 V2000
   -5.7193   -3.0358    1.9405 C   0  0  0  0  0  0  0  0  0  0  0  0
   -5.2201   -1.8038    1.3540 N   0  0  0  0  0  0  0  0  0  0  0  0
   -3.8982   -1.7585    0.9165 C   0  0  0  0  0  0  0  0  0  0  0  0
   -3.1384   -2.7188    0.9703 O   0  0  0  0  0  0  0  0  0  0  0  0
   -3.3953   -0.3981    0.3254 C   0  0  0  0  0  0  0  0  0  0  0  0
   -2.0604   -0.2393   -0.0820 N   0  0  0  0  0  0  0  0  0  0  0  0
   -0.9966   -1.1415    0.3637 C   0  0  0  0  0  0  0  0  0  0  0  0
    0.3774   -0.4906    0.2599 C   0  0  0  0  0  0  0  0  0  0  0  0
    0.6639   -0.0278   -1.1707 C   0  0  0  0  0  0  0  0  0  0  0  0
    1.8048    0.8903   -1.1914 N   0  0  0  0  0  0  0  0  0  0  0  0
    3.0948    0.3938   -1.0961 C   0  0  0  0  0  0  0  0  0  0  0  0
    3.3372   -0.8056   -1.0826 O   0  0  0  0  0  0  0  0  0  0  0  0
    4.0096    1.4233   -1.0412 N   0  0  0  0  0  0  0  0  0  0  0  0
    5.4048    1.3195   -0.8618 C   0  0  0  0  0  0  0  0  0  0  0  0
    6.1560    2.5107   -0.9865 C   0  0  0  0  0  0  0  0  0  0  0  0
    7.5462    2.5128   -0.8210 C   0  0  0  0  0  0  0  0  0  0  0  0
    8.1548    1.3140   -0.5270 C   0  0  0  0  0  0  0  0  0  0  0  0
    7.4312    0.1527   -0.3942 C   0  0  0  0  0  0  0  0  0  0  0  0
    6.0596    0.1222   -0.5553 C   0  0  0  0  0  0  0  0  0  0  0  0
    8.2185   -0.9151   -0.0923 O   0  0  0  0  0  0  0  0  0  0  0  0
    9.5200   -0.2949   -0.0635 C   0  0  0  0  0  0  0  0  0  0  0  0
    9.4862    1.1232   -0.3314 O   0  0  0  0  0  0  0  0  0  0  0  0
   -0.5630    0.6038   -1.8374 C   0  0  0  0  0  0  0  0  0  0  0  0
   -1.6599    0.9502   -0.8356 C   0  0  0  0  0  0  0  0  0  0  0  0
   -4.2223    0.6054    0.1970 N   0  0  0  0  0  0  0  0  0  0  0  0
   -5.5524    0.4817    0.6102 C   0  0  0  0  0  0  0  0  0  0  0  0
   -6.3846    1.5920    0.4230 C   0  0  0  0  0  0  0  0  0  0  0  0
   -7.7218    1.5614    0.8148 C   0  0  0  0  0  0  0  0  0  0  0  0
   -8.2394    0.4116    1.4002 C   0  0  0  0  0  0  0  0  0  0  0  0
   -7.4213   -0.7045    1.5875 C   0  0  0  0  0  0  0  0  0  0  0  0
   -6.0735   -0.6817    1.1923 C   0  0  0  0  0  0  0  0  0  0  0  0
   -4.9353   -3.7920    2.0283 H   0  0  0  0  0  0  0  0  0  0  0  0
   -6.5156   -3.4481    1.3104 H   0  0  0  0  0  0  0  0  0  0  0  0
   -6.0981   -2.8362    2.9489 H   0  0  0  0  0  0  0  0  0  0  0  0
   -1.1468   -1.4053    1.4151 H   0  0  0  0  0  0  0  0  0  0  0  0
   -1.0162   -2.0551   -0.2354 H   0  0  0  0  0  0  0  0  0  0  0  0
    1.1490   -1.1979    0.5914 H   0  0  0  0  0  0  0  0  0  0  0  0
    0.4301    0.3641    0.9506 H   0  0  0  0  0  0  0  0  0  0  0  0
    0.9485   -0.9041   -1.7694 H   0  0  0  0  0  0  0  0  0  0  0  0
    1.6618    1.7877   -0.7554 H   0  0  0  0  0  0  0  0  0  0  0  0
    3.6465    2.3409   -1.2550 H   0  0  0  0  0  0  0  0  0  0  0  0
    5.6648    3.4501   -1.2243 H   0  0  0  0  0  0  0  0  0  0  0  0
    8.1268    3.4236   -0.9238 H   0  0  0  0  0  0  0  0  0  0  0  0
    5.5380   -0.8199   -0.4364 H   0  0  0  0  0  0  0  0  0  0  0  0
   10.1552   -0.7775   -0.8136 H   0  0  0  0  0  0  0  0  0  0  0  0
    9.9636   -0.4533    0.9284 H   0  0  0  0  0  0  0  0  0  0  0  0
   -0.9737   -0.1169   -2.5577 H   0  0  0  0  0  0  0  0  0  0  0  0
   -0.2908    1.4948   -2.4157 H   0  0  0  0  0  0  0  0  0  0  0  0
   -1.3240    1.7318   -0.1433 H   0  0  0  0  0  0  0  0  0  0  0  0
   -2.5037    1.3613   -1.4028 H   0  0  0  0  0  0  0  0  0  0  0  0
   -5.9763    2.4890   -0.0347 H   0  0  0  0  0  0  0  0  0  0  0  0
   -8.3541    2.4320    0.6605 H   0  0  0  0  0  0  0  0  0  0  0  0
   -9.2820    0.3796    1.7074 H   0  0  0  0  0  0  0  0  0  0  0  0
   -7.8662   -1.5824    2.0419 H   0  0  0  0  0  0  0  0  0  0  0  0
  1  2  1  0
  2  3  1  0
  3  4  2  0
  3  5  1  0
  5  6  1  0
  6  7  1  0
  7  8  1  0
  8  9  1  0
  9 10  1  0
 10 11  1  0
 11 12  2  0
 11 13  1  0
 13 14  1  0
 14 15  2  0
 15 16  1  0
 16 17  2  0
 17 18  1  0
 18 19  2  0
 18 20  1  0
 20 21  1  0
 21 22  1  0
  9 23  1  0
 23 24  1  0
  5 25  2  0
 25 26  1  0
 26 27  2  0
 27 28  1  0
 28 29  2  0
 29 30  1  0
 30 31  2  0
 31  2  1  0
 24  6  1  0
 31 26  1  0
 19 14  1  0
 22 17  1  0
  1 32  1  0
  1 33  1  0
  1 34  1  0
  7 35  1  0
  7 36  1  0
  8 37  1  0
  8 38  1  0
  9 39  1  0
 10 40  1  0
 13 41  1  0
 15 42  1  0
 16 43  1  0
 19 44  1  0
 21 45  1  0
 21 46  1  0
 23 47  1  0
 23 48  1  0
 24 49  1  0
 24 50  1  0
 27 51  1  0
 28 52  1  0
 29 53  1  0
 30 54  1  0
M  END
$$$$
