
     RDKit          3D

 31 31  0  0  0  0  0  0  0  0999 V2000
   -0.5035    4.1253   -1.0238 N   0  0  0  0  0  0  0  0  0  0  0  0
    0.2494    3.0615   -1.3788 C   0  0  0  0  0  0  0  0  0  0  0  0
    0.9723    3.0413   -2.3613 O   0  0  0  0  0  0  0  0  0  0  0  0
    0.0632    2.0562   -0.4979 O   0  0  0  0  0  0  0  0  0  0  0  0
    0.7985    0.8592   -0.8027 C   0  0  0  0  0  0  0  0  0  0  0  0
    0.4022   -0.2465    0.1940 C   0  0  0  0  0  0  0  0  0  0  0  0
    1.2824   -1.4949    0.0111 C   0  0  0  0  0  0  0  0  0  0  0  0
    2.6769   -1.1947    0.1966 O   0  0  0  0  0  0  0  0  0  0  0  0
    3.0976   -1.1608    1.4804 C   0  0  0  0  0  0  0  0  0  0  0  0
    4.4182   -0.8829    1.5220 N   0  0  0  0  0  0  0  0  0  0  0  0
    2.4135   -1.3412    2.4735 O   0  0  0  0  0  0  0  0  0  0  0  0
   -1.0694   -0.6324    0.1099 C   0  0  0  0  0  0  0  0  0  0  0  0
   -1.6794   -0.9881   -1.1029 C   0  0  0  0  0  0  0  0  0  0  0  0
   -3.0272   -1.3524   -1.1415 C   0  0  0  0  0  0  0  0  0  0  0  0
   -3.7806   -1.3725    0.0298 C   0  0  0  0  0  0  0  0  0  0  0  0
   -3.1869   -1.0308    1.2421 C   0  0  0  0  0  0  0  0  0  0  0  0
   -1.8402   -0.6654    1.2829 C   0  0  0  0  0  0  0  0  0  0  0  0
   -1.1711    4.0231   -0.2751 H   0  0  0  0  0  0  0  0  0  0  0  0
   -0.5496    4.9152   -1.6487 H   0  0  0  0  0  0  0  0  0  0  0  0
    1.8668    1.0862   -0.7044 H   0  0  0  0  0  0  0  0  0  0  0  0
    0.6013    0.5528   -1.8368 H   0  0  0  0  0  0  0  0  0  0  0  0
    0.5843    0.1710    1.1935 H   0  0  0  0  0  0  0  0  0  0  0  0
    1.1824   -1.8898   -1.0070 H   0  0  0  0  0  0  0  0  0  0  0  0
    0.9789   -2.3073    0.6847 H   0  0  0  0  0  0  0  0  0  0  0  0
    4.9365   -0.7635    0.6658 H   0  0  0  0  0  0  0  0  0  0  0  0
    4.8824   -0.8412    2.4164 H   0  0  0  0  0  0  0  0  0  0  0  0
   -1.1164   -0.9892   -2.0330 H   0  0  0  0  0  0  0  0  0  0  0  0
   -3.4890   -1.6226   -2.0877 H   0  0  0  0  0  0  0  0  0  0  0  0
   -4.8287   -1.6574   -0.0016 H   0  0  0  0  0  0  0  0  0  0  0  0
   -3.7707   -1.0505    2.1586 H   0  0  0  0  0  0  0  0  0  0  0  0
   -1.3940   -0.4079    2.2420 H   0  0  0  0  0  0  0  0  0  0  0  0
  1  2  1  0
  2  3  2  0
  2  4  1  0
  4  5  1  0
  5  6  1  0
  6  7  1  0
  7  8  1  0
  8  9  1  0
  9 10  1  0
  9 11  2  0
  6 12  1  0
 12 13  2  0
 13 14  1  0
 14 15  2  0
 15 16  1  0
 16 17  2  0
 17 12  1  0
  1 18  1  0
  1 19  1  0
  5 20  1  0
  5 21  1  0
  6 22  1  0
  7 23  1  0
  7 24  1  0
 10 25  1  0
 10 26  1  0
 13 27  1  0
 14 28  1  0
 15 29  1  0
 16 30  1  0
 17 31  1  0
M  END
$$$$
