
     RDKit          3D

 46 48  0  0  0  0  0  0  0  0999 V2000
   -3.3409   -2.1083    3.1280 C   0  0  0  0  0  0  0  0  0  0  0  0
   -3.1125   -0.9051    2.2278 C   0  0  0  0  0  0  0  0  0  0  0  0
   -3.6962   -1.1340    0.8301 C   0  0  0  0  0  0  0  0  0  0  0  0
   -3.4890    0.0220   -0.0396 N   0  0  0  0  0  0  0  0  0  0  0  0
   -4.4661    1.0330    0.0207 C   0  0  0  0  0  0  0  0  0  0  0  0
   -5.4596    0.9583    0.7425 O   0  0  0  0  0  0  0  0  0  0  0  0
   -4.1874    2.1768   -0.8339 C   0  0  0  0  0  0  0  0  0  0  0  0
   -4.9926    3.2376   -0.9185 N   0  0  0  0  0  0  0  0  0  0  0  0
   -4.3116    4.3334   -1.9613 S   0  0  0  0  0  0  0  0  0  0  0  0
   -2.9310    3.3920   -2.3314 C   0  0  0  0  0  0  0  0  0  0  0  0
   -3.0103    2.2074   -1.6306 C   0  0  0  0  0  0  0  0  0  0  0  0
   -2.1003    1.1515   -1.6316 N   0  0  0  0  0  0  0  0  0  0  0  0
   -0.8769    1.1601   -2.4289 C   0  0  0  0  0  0  0  0  0  0  0  0
    0.2552    1.7557   -1.6014 C   0  0  0  0  0  0  0  0  0  0  0  0
    0.3708    2.9665   -1.4272 O   0  0  0  0  0  0  0  0  0  0  0  0
    1.0809    0.8195   -1.0172 N   0  0  0  0  0  0  0  0  0  0  0  0
    2.0949    1.2190   -0.0700 C   0  0  0  0  0  0  0  0  0  0  0  0
    3.1937    0.1942    0.0007 C   0  0  0  0  0  0  0  0  0  0  0  0
    3.0553   -0.9576    0.7890 C   0  0  0  0  0  0  0  0  0  0  0  0
    4.0871   -1.9001    0.8555 C   0  0  0  0  0  0  0  0  0  0  0  0
    5.2608   -1.7198    0.1154 C   0  0  0  0  0  0  0  0  0  0  0  0
    6.3854   -2.7093    0.2104 C   0  0  0  0  0  0  0  0  0  0  0  0
    5.3928   -0.5788   -0.6854 C   0  0  0  0  0  0  0  0  0  0  0  0
    4.3671    0.3681   -0.7441 C   0  0  0  0  0  0  0  0  0  0  0  0
   -2.2958    0.0653   -0.7744 C   0  0  0  0  0  0  0  0  0  0  0  0
   -1.4330   -0.8144   -0.6682 O   0  0  0  0  0  0  0  0  0  0  0  0
   -4.4132   -2.2979    3.2526 H   0  0  0  0  0  0  0  0  0  0  0  0
   -2.8802   -3.0111    2.7114 H   0  0  0  0  0  0  0  0  0  0  0  0
   -2.9073   -1.9303    4.1171 H   0  0  0  0  0  0  0  0  0  0  0  0
   -3.5722   -0.0217    2.6862 H   0  0  0  0  0  0  0  0  0  0  0  0
   -2.0362   -0.7017    2.1581 H   0  0  0  0  0  0  0  0  0  0  0  0
   -3.2343   -2.0196    0.3769 H   0  0  0  0  0  0  0  0  0  0  0  0
   -4.7697   -1.3451    0.9048 H   0  0  0  0  0  0  0  0  0  0  0  0
   -2.1658    3.7598   -3.0005 H   0  0  0  0  0  0  0  0  0  0  0  0
   -0.6229    0.1385   -2.7373 H   0  0  0  0  0  0  0  0  0  0  0  0
   -1.0033    1.7433   -3.3470 H   0  0  0  0  0  0  0  0  0  0  0  0
    0.7155   -0.1273   -0.9182 H   0  0  0  0  0  0  0  0  0  0  0  0
    1.6155    1.3372    0.9090 H   0  0  0  0  0  0  0  0  0  0  0  0
    2.4998    2.2005   -0.3436 H   0  0  0  0  0  0  0  0  0  0  0  0
    2.1500   -1.1256    1.3662 H   0  0  0  0  0  0  0  0  0  0  0  0
    3.9741   -2.7697    1.5023 H   0  0  0  0  0  0  0  0  0  0  0  0
    6.8518   -2.8580   -0.7692 H   0  0  0  0  0  0  0  0  0  0  0  0
    6.0260   -3.6865    0.5498 H   0  0  0  0  0  0  0  0  0  0  0  0
    7.1411   -2.3505    0.9146 H   0  0  0  0  0  0  0  0  0  0  0  0
    6.3010   -0.4140   -1.2616 H   0  0  0  0  0  0  0  0  0  0  0  0
    4.4895    1.2467   -1.3771 H   0  0  0  0  0  0  0  0  0  0  0  0
  1  2  1  0
  2  3  1  0
  3  4  1  0
  4  5  1  0
  5  6  2  0
  5  7  1  0
  7  8  2  0
  8  9  1  0
  9 10  1  0
 10 11  2  0
 11 12  1  0
 12 13  1  0
 13 14  1  0
 14 15  2  0
 14 16  1  0
 16 17  1  0
 17 18  1  0
 18 19  2  0
 19 20  1  0
 20 21  2  0
 21 22  1  0
 21 23  1  0
 23 24  2  0
 12 25  1  0
 25 26  2  0
 25  4  1  0
 11  7  1  0
 24 18  1  0
  1 27  1  0
  1 28  1  0
  1 29  1  0
  2 30  1  0
  2 31  1  0
  3 32  1  0
  3 33  1  0
 10 34  1  0
 13 35  1  0
 13 36  1  0
 16 37  1  0
 17 38  1  0
 17 39  1  0
 19 40  1  0
 20 41  1  0
 22 42  1  0
 22 43  1  0
 22 44  1  0
 23 45  1  0
 24 46  1  0
M  END
$$$$
