
     RDKit          3D

 41 43  0  0  0  0  0  0  0  0999 V2000
   -2.1334    1.8169   -1.7479 C   0  0  0  0  0  0  0  0  0  0  0  0
   -2.4391    1.7299   -0.2448 C   0  0  0  0  0  0  0  0  0  0  0  0
   -3.3570    2.9032    0.1312 C   0  0  0  0  0  0  0  0  0  0  0  0
   -1.1812    1.7894    0.6289 C   0  0  0  0  0  0  0  0  0  0  0  0
   -0.2858    0.5752    0.3883 C   0  0  0  0  0  0  0  0  0  0  0  0
    0.7491    0.5497    1.4269 N   0  0  0  0  0  0  0  0  0  0  0  0
    2.2337    1.2554    1.1521 S   0  0  0  0  0  6  0  0  0  0  0  0
    2.0410    2.4068    0.2991 O   0  0  0  0  0  0  0  0  0  0  0  0
    2.8805    1.3613    2.4410 O   0  0  0  0  0  0  0  0  0  0  0  0
    3.0702   -0.0078    0.2291 C   0  0  0  0  0  0  0  0  0  0  0  0
    3.6355   -1.0909    0.9097 C   0  0  0  0  0  0  0  0  0  0  0  0
    4.2977   -2.0840    0.1886 C   0  0  0  0  0  0  0  0  0  0  0  0
    4.3995   -1.9877   -1.2005 C   0  0  0  0  0  0  0  0  0  0  0  0
    3.8459   -0.8968   -1.8735 C   0  0  0  0  0  0  0  0  0  0  0  0
    3.1825    0.1012   -1.1597 C   0  0  0  0  0  0  0  0  0  0  0  0
   -1.1175   -0.6837    0.3909 C   0  0  0  0  0  0  0  0  0  0  0  0
   -0.5138   -1.9460    0.5299 C   0  0  0  0  0  0  0  0  0  0  0  0
   -1.2826   -3.1109    0.5206 C   0  0  0  0  0  0  0  0  0  0  0  0
   -2.6629   -3.0310    0.3624 C   0  0  0  0  0  0  0  0  0  0  0  0
   -3.2702   -1.7870    0.2012 C   0  0  0  0  0  0  0  0  0  0  0  0
   -2.5016   -0.6209    0.1993 C   0  0  0  0  0  0  0  0  0  0  0  0
   -3.2011    0.5393    0.0135 O   0  0  0  0  0  0  0  0  0  0  0  0
   -1.5632    2.7203   -1.9879 H   0  0  0  0  0  0  0  0  0  0  0  0
   -3.0623    1.8300   -2.3302 H   0  0  0  0  0  0  0  0  0  0  0  0
   -1.5709    0.9487   -2.1056 H   0  0  0  0  0  0  0  0  0  0  0  0
   -2.8721    3.8691   -0.0449 H   0  0  0  0  0  0  0  0  0  0  0  0
   -3.6483    2.8480    1.1866 H   0  0  0  0  0  0  0  0  0  0  0  0
   -4.2888    2.8720   -0.4455 H   0  0  0  0  0  0  0  0  0  0  0  0
   -1.4816    1.8070    1.6871 H   0  0  0  0  0  0  0  0  0  0  0  0
   -0.6269    2.7183    0.4482 H   0  0  0  0  0  0  0  0  0  0  0  0
    0.1809    0.6442   -0.6013 H   0  0  0  0  0  0  0  0  0  0  0  0
    0.4728    0.4558    2.4020 H   0  0  0  0  0  0  0  0  0  0  0  0
    3.5643   -1.1640    1.9926 H   0  0  0  0  0  0  0  0  0  0  0  0
    4.7401   -2.9306    0.7082 H   0  0  0  0  0  0  0  0  0  0  0  0
    4.9195   -2.7619   -1.7602 H   0  0  0  0  0  0  0  0  0  0  0  0
    3.9373   -0.8230   -2.9547 H   0  0  0  0  0  0  0  0  0  0  0  0
    2.7615    0.9528   -1.6892 H   0  0  0  0  0  0  0  0  0  0  0  0
    0.5643   -2.0300    0.6485 H   0  0  0  0  0  0  0  0  0  0  0  0
   -0.8030   -4.0797    0.6361 H   0  0  0  0  0  0  0  0  0  0  0  0
   -3.2660   -3.9349    0.3571 H   0  0  0  0  0  0  0  0  0  0  0  0
   -4.3471   -1.7238    0.0666 H   0  0  0  0  0  0  0  0  0  0  0  0
  1  2  1  0
  2  3  1  0
  2  4  1  0
  4  5  1  0
  5  6  1  0
  6  7  1  0
  7  8  2  0
  7  9  2  0
  7 10  1  0
 10 11  2  0
 11 12  1  0
 12 13  2  0
 13 14  1  0
 14 15  2  0
  5 16  1  0
 16 17  2  0
 17 18  1  0
 18 19  2  0
 19 20  1  0
 20 21  2  0
 21 22  1  0
 22  2  1  0
 15 10  1  0
 21 16  1  0
  1 23  1  0
  1 24  1  0
  1 25  1  0
  3 26  1  0
  3 27  1  0
  3 28  1  0
  4 29  1  0
  4 30  1  0
  5 31  1  0
  6 32  1  0
 11 33  1  0
 12 34  1  0
 13 35  1  0
 14 36  1  0
 15 37  1  0
 17 38  1  0
 18 39  1  0
 19 40  1  0
 20 41  1  0
M  END
$$$$
