
     RDKit          3D

 19 20  0  0  0  0  0  0  0  0999 V2000
    3.6233   -1.5544   -0.1769 O   0  0  0  0  0  0  0  0  0  0  0  0
    3.0772   -0.4714   -0.3161 C   0  0  0  0  0  0  0  0  0  0  0  0
    3.7823    0.6337   -0.6256 O   0  0  0  0  0  0  0  0  0  0  0  0
    1.6776   -0.1928   -0.1849 C   0  0  0  0  0  0  0  0  0  0  0  0
    0.9683    0.9876   -0.3214 C   0  0  0  0  0  0  0  0  0  0  0  0
   -0.4068    0.7152   -0.0858 C   0  0  0  0  0  0  0  0  0  0  0  0
   -1.5738    1.5008   -0.0845 C   0  0  0  0  0  0  0  0  0  0  0  0
   -2.7927    0.8847    0.1976 C   0  0  0  0  0  0  0  0  0  0  0  0
   -3.9109    1.6237    0.2015 F   0  0  0  0  0  0  0  0  0  0  0  0
   -2.8789   -0.4743    0.4746 C   0  0  0  0  0  0  0  0  0  0  0  0
   -1.7322   -1.2732    0.4786 C   0  0  0  0  0  0  0  0  0  0  0  0
   -0.5115   -0.6474    0.1944 C   0  0  0  0  0  0  0  0  0  0  0  0
    0.7592   -1.1696    0.1278 N   0  0  0  0  0  0  0  0  0  0  0  0
    4.7033    0.3095   -0.6844 H   0  0  0  0  0  0  0  0  0  0  0  0
    1.4004    1.9500   -0.5669 H   0  0  0  0  0  0  0  0  0  0  0  0
   -1.5401    2.5637   -0.2967 H   0  0  0  0  0  0  0  0  0  0  0  0
   -3.8501   -0.9109    0.6887 H   0  0  0  0  0  0  0  0  0  0  0  0
   -1.7926   -2.3351    0.6941 H   0  0  0  0  0  0  0  0  0  0  0  0
    0.9980   -2.1400    0.2858 H   0  0  0  0  0  0  0  0  0  0  0  0
  1  2  2  0
  2  3  1  0
  2  4  1  0
  4  5  2  0
  5  6  1  0
  6  7  2  0
  7  8  1  0
  8  9  1  0
  8 10  2  0
 10 11  1  0
 11 12  2  0
 12 13  1  0
 13  4  1  0
 12  6  1  0
  3 14  1  0
  5 15  1  0
  7 16  1  0
 10 17  1  0
 11 18  1  0
 13 19  1  0
M  END
$$$$
