
     RDKit          3D

 69 72  0  0  0  0  0  0  0  0999 V2000
   11.0859   -2.0521   -2.9367 N   0  0  0  0  0  0  0  0  0  0  0  0
   10.3091   -1.4023   -2.3702 C   0  0  0  0  0  0  0  0  0  0  0  0
    9.3474   -0.6057   -1.6658 C   0  0  0  0  0  0  0  0  0  0  0  0
    8.0673   -0.4189   -2.1955 C   0  0  0  0  0  0  0  0  0  0  0  0
    7.1306    0.3560   -1.5066 C   0  0  0  0  0  0  0  0  0  0  0  0
    7.4614    0.9525   -0.2799 C   0  0  0  0  0  0  0  0  0  0  0  0
    6.4411    1.7747    0.4642 C   0  0  0  0  0  0  0  0  0  0  0  0
    5.3770    0.9420    0.9729 N   0  0  0  0  0  0  0  0  0  0  0  0
    4.2845    1.5071    1.5909 C   0  0  0  0  0  0  0  0  0  0  0  0
    4.1222    2.7167    1.6920 O   0  0  0  0  0  0  0  0  0  0  0  0
    3.3062    0.4737    2.1195 C   0  0  0  0  0  0  0  0  0  0  0  0
    2.0762    1.1189    2.7602 C   0  0  0  0  0  0  0  0  0  0  0  0
    1.0378    0.0922    3.2255 C   0  0  0  0  0  0  0  0  0  0  0  0
   -0.1494   -0.0900    2.2690 C   0  0  0  0  0  0  0  0  0  0  0  0
    0.2449   -0.6523    0.8962 C   0  0  0  0  0  0  0  0  0  0  0  0
   -0.8541   -0.9814   -0.0131 N   0  0  0  0  0  0  0  0  0  0  0  0
   -1.7469   -2.0595    0.4538 C   0  0  0  0  0  0  0  0  0  0  0  0
   -3.1963   -1.6297    0.7795 C   0  0  0  0  0  0  0  0  0  0  0  0
   -3.8352   -0.8947   -0.3302 N   0  0  0  0  0  0  0  0  0  0  0  0
   -4.8920   -1.5064   -1.0323 C   0  0  0  0  0  0  0  0  0  0  0  0
   -4.8540   -2.8793   -1.3451 C   0  0  0  0  0  0  0  0  0  0  0  0
   -5.8752   -3.4948   -2.0714 C   0  0  0  0  0  0  0  0  0  0  0  0
   -6.9604   -2.7492   -2.5078 C   0  0  0  0  0  0  0  0  0  0  0  0
   -7.0221   -1.3875   -2.2175 C   0  0  0  0  0  0  0  0  0  0  0  0
   -6.0040   -0.7408   -1.4841 C   0  0  0  0  0  0  0  0  0  0  0  0
   -6.1607    0.7012   -1.1883 C   0  0  0  0  0  0  0  0  0  0  0  0
   -6.3169    1.6396   -2.2242 C   0  0  0  0  0  0  0  0  0  0  0  0
   -6.4731    3.0009   -1.9475 C   0  0  0  0  0  0  0  0  0  0  0  0
   -6.4783    3.4470   -0.6282 C   0  0  0  0  0  0  0  0  0  0  0  0
   -6.3295    2.5342    0.4127 C   0  0  0  0  0  0  0  0  0  0  0  0
   -6.1742    1.1738    0.1337 C   0  0  0  0  0  0  0  0  0  0  0  0
   -2.8993   -0.1886   -1.2376 C   0  0  0  0  0  0  0  0  0  0  0  0
   -1.6001    0.1964   -0.4957 C   0  0  0  0  0  0  0  0  0  0  0  0
    8.7464    0.7583    0.2460 C   0  0  0  0  0  0  0  0  0  0  0  0
    9.6848   -0.0144   -0.4439 C   0  0  0  0  0  0  0  0  0  0  0  0
    7.7905   -0.8727   -3.1458 H   0  0  0  0  0  0  0  0  0  0  0  0
    6.1360    0.4937   -1.9294 H   0  0  0  0  0  0  0  0  0  0  0  0
    6.0164    2.5378   -0.1982 H   0  0  0  0  0  0  0  0  0  0  0  0
    6.8959    2.3007    1.3109 H   0  0  0  0  0  0  0  0  0  0  0  0
    5.5653   -0.0418    1.1154 H   0  0  0  0  0  0  0  0  0  0  0  0
    3.8272   -0.1435    2.8615 H   0  0  0  0  0  0  0  0  0  0  0  0
    3.0162   -0.1731    1.2852 H   0  0  0  0  0  0  0  0  0  0  0  0
    1.6206    1.8483    2.0791 H   0  0  0  0  0  0  0  0  0  0  0  0
    2.4129    1.6905    3.6353 H   0  0  0  0  0  0  0  0  0  0  0  0
    1.5086   -0.8770    3.4296 H   0  0  0  0  0  0  0  0  0  0  0  0
    0.6255    0.4402    4.1815 H   0  0  0  0  0  0  0  0  0  0  0  0
   -0.6565    0.8747    2.1563 H   0  0  0  0  0  0  0  0  0  0  0  0
   -0.8629   -0.7645    2.7565 H   0  0  0  0  0  0  0  0  0  0  0  0
    0.8529   -1.5543    1.0410 H   0  0  0  0  0  0  0  0  0  0  0  0
    0.8996    0.0629    0.3841 H   0  0  0  0  0  0  0  0  0  0  0  0
   -1.3233   -2.5873    1.3173 H   0  0  0  0  0  0  0  0  0  0  0  0
   -1.7847   -2.8046   -0.3509 H   0  0  0  0  0  0  0  0  0  0  0  0
   -3.1762   -0.9566    1.6457 H   0  0  0  0  0  0  0  0  0  0  0  0
   -3.7848   -2.4985    1.0975 H   0  0  0  0  0  0  0  0  0  0  0  0
   -4.0081   -3.4882   -1.0426 H   0  0  0  0  0  0  0  0  0  0  0  0
   -5.8162   -4.5555   -2.2987 H   0  0  0  0  0  0  0  0  0  0  0  0
   -7.7613   -3.2230   -3.0683 H   0  0  0  0  0  0  0  0  0  0  0  0
   -7.8900   -0.8222   -2.5523 H   0  0  0  0  0  0  0  0  0  0  0  0
   -6.3046    1.3107   -3.2610 H   0  0  0  0  0  0  0  0  0  0  0  0
   -6.5864    3.7115   -2.7619 H   0  0  0  0  0  0  0  0  0  0  0  0
   -6.5979    4.5051   -0.4113 H   0  0  0  0  0  0  0  0  0  0  0  0
   -6.3309    2.8764    1.4436 H   0  0  0  0  0  0  0  0  0  0  0  0
   -6.0538    0.4724    0.9570 H   0  0  0  0  0  0  0  0  0  0  0  0
   -2.6450   -0.8176   -2.1012 H   0  0  0  0  0  0  0  0  0  0  0  0
   -3.3626    0.7274   -1.6188 H   0  0  0  0  0  0  0  0  0  0  0  0
   -0.9589    0.7679   -1.1765 H   0  0  0  0  0  0  0  0  0  0  0  0
   -1.8718    0.8610    0.3323 H   0  0  0  0  0  0  0  0  0  0  0  0
    9.0276    1.2106    1.1960 H   0  0  0  0  0  0  0  0  0  0  0  0
   10.6796   -0.1489   -0.0215 H   0  0  0  0  0  0  0  0  0  0  0  0
  1  2  3  0
  2  3  1  0
  3  4  2  0
  4  5  1  0
  5  6  2  0
  6  7  1  0
  7  8  1  0
  8  9  1  0
  9 10  2  0
  9 11  1  0
 11 12  1  0
 12 13  1  0
 13 14  1  0
 14 15  1  0
 15 16  1  0
 16 17  1  0
 17 18  1  0
 18 19  1  0
 19 20  1  0
 20 21  2  0
 21 22  1  0
 22 23  2  0
 23 24  1  0
 24 25  2  0
 25 26  1  0
 26 27  2  0
 27 28  1  0
 28 29  2  0
 29 30  1  0
 30 31  2  0
 19 32  1  0
 32 33  1  0
  6 34  1  0
 34 35  2  0
 35  3  1  0
 33 16  1  0
 25 20  1  0
 31 26  1  0
  4 36  1  0
  5 37  1  0
  7 38  1  0
  7 39  1  0
  8 40  1  0
 11 41  1  0
 11 42  1  0
 12 43  1  0
 12 44  1  0
 13 45  1  0
 13 46  1  0
 14 47  1  0
 14 48  1  0
 15 49  1  0
 15 50  1  0
 17 51  1  0
 17 52  1  0
 18 53  1  0
 18 54  1  0
 21 55  1  0
 22 56  1  0
 23 57  1  0
 24 58  1  0
 27 59  1  0
 28 60  1  0
 29 61  1  0
 30 62  1  0
 31 63  1  0
 32 64  1  0
 32 65  1  0
 33 66  1  0
 33 67  1  0
 34 68  1  0
 35 69  1  0
M  END
$$$$
