
     RDKit          3D

126128  0  0  0  0  0  0  0  0999 V2000
   -2.8564    5.6943    1.7261 C   0  0  0  0  0  0  0  0  0  0  0  0
   -2.4679    4.4028    1.0254 C   0  0  0  0  0  0  0  0  0  0  0  0
   -3.5783    3.3279    1.0001 C   0  0  2  0  0  0  0  0  0  0  0  0
   -4.1726    3.0868    2.3926 C   0  0  0  0  0  0  0  0  0  0  0  0
   -3.0319    2.0096    0.4073 C   0  0  2  0  0  0  0  0  0  0  0  0
   -2.4975    2.1829   -0.9432 N   0  0  0  0  0  0  0  0  0  0  0  0
   -1.1629    1.9627   -1.2080 C   0  0  0  0  0  0  0  0  0  0  0  0
   -0.3106    1.9952   -0.3244 O   0  0  0  0  0  0  0  0  0  0  0  0
   -0.8274    1.7110   -2.6961 C   0  0  2  0  0  0  0  0  0  0  0  0
   -1.5332    0.4410   -3.2100 C   0  0  0  0  0  0  0  0  0  0  0  0
   -1.3044    0.1587   -4.6763 C   0  0  0  0  0  0  0  0  0  0  0  0
   -0.5103   -0.9297   -5.0614 C   0  0  0  0  0  0  0  0  0  0  0  0
   -0.2951   -1.2019   -6.4118 C   0  0  0  0  0  0  0  0  0  0  0  0
   -0.8823   -0.3977   -7.3792 C   0  0  0  0  0  0  0  0  0  0  0  0
   -0.6457   -0.7035   -8.6872 O   0  0  0  0  0  0  0  0  0  0  0  0
   -1.6756    0.6855   -7.0179 C   0  0  0  0  0  0  0  0  0  0  0  0
   -1.8890    0.9638   -5.6651 C   0  0  0  0  0  0  0  0  0  0  0  0
    0.6267    1.7625   -2.8844 N   0  0  0  0  0  0  0  0  0  0  0  0
    1.4657    0.7599   -2.4399 C   0  0  0  0  0  0  0  0  0  0  0  0
    1.0816   -0.3304   -2.0215 O   0  0  0  0  0  0  0  0  0  0  0  0
    2.9658    1.1105   -2.5227 C   0  0  1  0  0  0  0  0  0  0  0  0
    3.6437    0.4302   -1.4198 N   0  0  0  0  0  0  0  0  0  0  0  0
    4.8905    0.8119   -0.9904 C   0  0  0  0  0  0  0  0  0  0  0  0
    5.4857    1.7904   -1.4526 O   0  0  0  0  0  0  0  0  0  0  0  0
    5.4899   -0.0286    0.1555 C   0  0  2  0  0  0  0  0  0  0  0  0
    4.8807    0.4127    1.4945 C   0  0  0  0  0  0  0  0  0  0  0  0
    5.5965   -0.1300    2.7410 C   0  0  0  0  0  0  0  0  0  0  0  0
    5.5700   -1.6541    2.8586 C   0  0  0  0  0  0  0  0  0  0  0  0
    6.3694   -2.0979    3.9946 N   0  0  0  0  0  0  0  0  0  0  0  0
    5.9172   -2.0072    5.2685 C   0  0  0  0  0  0  0  0  0  0  0  0
    4.8512   -1.3994    5.6416 N   0  0  0  0  0  0  0  0  0  0  0  0
    6.7449   -2.6337    6.1282 N   0  0  0  0  0  0  0  0  0  0  0  0
    6.9269    0.2334    0.1140 N   0  0  0  0  0  0  0  0  0  0  0  0
    7.8600   -0.7545   -0.1198 C   0  0  0  0  0  0  0  0  0  0  0  0
    7.5580   -1.9453   -0.1710 O   0  0  0  0  0  0  0  0  0  0  0  0
    9.3072   -0.2391   -0.3132 C   0  0  1  0  0  0  0  0  0  0  0  0
    9.5114    1.0449    0.4177 N   0  0  0  0  0  0  0  0  0  0  0  0
   10.2975   -1.2801    0.2110 C   0  0  0  0  0  0  0  0  0  0  0  0
   10.8925   -2.0924   -0.9090 C   0  0  0  0  0  0  0  0  0  0  0  0
   10.5984   -2.0704   -2.0919 O   0  0  0  0  0  0  0  0  0  0  0  0
   11.8858   -2.8968   -0.4630 O   0  0  0  0  0  0  0  0  0  0  0  0
    3.5975    0.7609   -3.8927 C   0  0  0  0  0  0  0  0  0  0  0  0
    2.9868    1.5659   -5.0411 C   0  0  0  0  0  0  0  0  0  0  0  0
    3.5456   -0.7352   -4.2134 C   0  0  0  0  0  0  0  0  0  0  0  0
   -4.1583    0.9766    0.2042 C   0  0  0  0  0  0  0  0  0  0  0  0
   -4.9943    1.1059   -0.6921 O   0  0  0  0  0  0  0  0  0  0  0  0
   -4.1284   -0.0983    1.0643 N   0  0  0  0  0  0  0  0  0  0  0  0
   -5.2738   -1.0179    1.1762 C   0  0  1  0  0  0  0  0  0  0  0  0
   -4.7884   -2.4575    1.3146 C   0  0  0  0  0  0  0  0  0  0  0  0
   -5.8880   -3.4554    1.2776 C   0  0  0  0  0  0  0  0  0  0  0  0
   -6.3706   -4.2479    2.2953 C   0  0  0  0  0  0  0  0  0  0  0  0
   -7.3588   -5.0030    1.7285 N   0  0  0  0  0  0  0  0  0  0  0  0
   -7.4434   -4.6458    0.4151 C   0  0  0  0  0  0  0  0  0  0  0  0
   -6.5809   -3.7019    0.1168 N   0  0  0  0  0  0  0  0  0  0  0  0
   -5.9865   -0.5657    2.4643 C   0  0  0  0  0  0  0  0  0  0  0  0
   -5.3125   -0.2055    3.4394 O   0  0  0  0  0  0  0  0  0  0  0  0
   -7.3568   -0.5814    2.5290 N   0  0  0  0  0  0  0  0  0  0  0  0
   -8.3012   -0.7994    1.4476 C   0  0  0  0  0  0  0  0  0  0  0  0
   -9.5100    0.0332    1.8497 C   0  0  0  0  0  0  0  0  0  0  0  0
   -9.5202   -0.0745    3.3672 C   0  0  0  0  0  0  0  0  0  0  0  0
   -8.0362   -0.1143    3.7390 C   0  0  1  0  0  0  0  0  0  0  0  0
   -7.8265   -1.0587    4.9217 C   0  0  0  0  0  0  0  0  0  0  0  0
   -7.6381   -2.2671    4.8843 O   0  0  0  0  0  0  0  0  0  0  0  0
   -7.9379   -0.4284    6.1118 O   0  0  0  0  0  0  0  0  0  0  0  0
   -2.9680    5.5517    2.8064 H   0  0  0  0  0  0  0  0  0  0  0  0
   -2.0754    6.4508    1.5789 H   0  0  0  0  0  0  0  0  0  0  0  0
   -3.7961    6.0913    1.3276 H   0  0  0  0  0  0  0  0  0  0  0  0
   -1.5665    4.0025    1.4965 H   0  0  0  0  0  0  0  0  0  0  0  0
   -2.2002    4.6599   -0.0033 H   0  0  0  0  0  0  0  0  0  0  0  0
   -4.3859    3.6992    0.3541 H   0  0  0  0  0  0  0  0  0  0  0  0
   -4.6267    3.9929    2.7970 H   0  0  0  0  0  0  0  0  0  0  0  0
   -4.9668    2.3378    2.3623 H   0  0  0  0  0  0  0  0  0  0  0  0
   -3.4065    2.7419    3.0939 H   0  0  0  0  0  0  0  0  0  0  0  0
   -2.2613    1.5840    1.0597 H   0  0  0  0  0  0  0  0  0  0  0  0
   -3.1861    2.1147   -1.6866 H   0  0  0  0  0  0  0  0  0  0  0  0
   -1.2125    2.5773   -3.2497 H   0  0  0  0  0  0  0  0  0  0  0  0
   -2.6188    0.5265   -3.0681 H   0  0  0  0  0  0  0  0  0  0  0  0
   -1.2560   -0.4315   -2.6077 H   0  0  0  0  0  0  0  0  0  0  0  0
   -0.0532   -1.5701   -4.3084 H   0  0  0  0  0  0  0  0  0  0  0  0
    0.3228   -2.0469   -6.7021 H   0  0  0  0  0  0  0  0  0  0  0  0
   -1.0966   -0.0479   -9.2474 H   0  0  0  0  0  0  0  0  0  0  0  0
   -2.1462    1.3108   -7.7680 H   0  0  0  0  0  0  0  0  0  0  0  0
   -2.5221    1.8048   -5.3898 H   0  0  0  0  0  0  0  0  0  0  0  0
    1.0153    2.6938   -2.8134 H   0  0  0  0  0  0  0  0  0  0  0  0
    3.0809    2.1872   -2.3428 H   0  0  0  0  0  0  0  0  0  0  0  0
    3.1929   -0.4056   -1.0514 H   0  0  0  0  0  0  0  0  0  0  0  0
    5.2896   -1.0882   -0.0368 H   0  0  0  0  0  0  0  0  0  0  0  0
    3.8243    0.1228    1.5309 H   0  0  0  0  0  0  0  0  0  0  0  0
    4.8967    1.5107    1.5566 H   0  0  0  0  0  0  0  0  0  0  0  0
    6.6321    0.2317    2.7671 H   0  0  0  0  0  0  0  0  0  0  0  0
    5.1098    0.3090    3.6175 H   0  0  0  0  0  0  0  0  0  0  0  0
    5.9976   -2.1110    1.9617 H   0  0  0  0  0  0  0  0  0  0  0  0
    4.5437   -2.0247    2.9430 H   0  0  0  0  0  0  0  0  0  0  0  0
    6.8262   -2.9877    3.8155 H   0  0  0  0  0  0  0  0  0  0  0  0
    4.7359   -1.4930    6.6495 H   0  0  0  0  0  0  0  0  0  0  0  0
    7.7213   -2.5388    5.8669 H   0  0  0  0  0  0  0  0  0  0  0  0
    6.6061   -2.3953    7.1026 H   0  0  0  0  0  0  0  0  0  0  0  0
    7.1738    1.1767   -0.1644 H   0  0  0  0  0  0  0  0  0  0  0  0
    9.4475   -0.0325   -1.3816 H   0  0  0  0  0  0  0  0  0  0  0  0
    9.0276    0.9979    1.3187 H   0  0  0  0  0  0  0  0  0  0  0  0
    9.0880    1.8065   -0.1131 H   0  0  0  0  0  0  0  0  0  0  0  0
    9.8333   -1.9703    0.9293 H   0  0  0  0  0  0  0  0  0  0  0  0
   11.1421   -0.7845    0.7187 H   0  0  0  0  0  0  0  0  0  0  0  0
   12.2395   -3.3336   -1.2708 H   0  0  0  0  0  0  0  0  0  0  0  0
    4.6605    1.0349   -3.8504 H   0  0  0  0  0  0  0  0  0  0  0  0
    1.9539    1.2702   -5.2476 H   0  0  0  0  0  0  0  0  0  0  0  0
    3.5585    1.4065   -5.9633 H   0  0  0  0  0  0  0  0  0  0  0  0
    3.0063    2.6386   -4.8220 H   0  0  0  0  0  0  0  0  0  0  0  0
    2.5216   -1.0975   -4.3158 H   0  0  0  0  0  0  0  0  0  0  0  0
    4.0687   -0.9443   -5.1546 H   0  0  0  0  0  0  0  0  0  0  0  0
    4.0386   -1.3255   -3.4317 H   0  0  0  0  0  0  0  0  0  0  0  0
   -3.5811   -0.0016    1.9164 H   0  0  0  0  0  0  0  0  0  0  0  0
   -5.9091   -0.9003    0.2964 H   0  0  0  0  0  0  0  0  0  0  0  0
   -4.2118   -2.5778    2.2387 H   0  0  0  0  0  0  0  0  0  0  0  0
   -4.0915   -2.6826    0.4968 H   0  0  0  0  0  0  0  0  0  0  0  0
   -6.1074   -4.3316    3.3410 H   0  0  0  0  0  0  0  0  0  0  0  0
   -7.9198   -5.6991    2.1955 H   0  0  0  0  0  0  0  0  0  0  0  0
   -8.1510   -5.1008   -0.2664 H   0  0  0  0  0  0  0  0  0  0  0  0
   -7.9109   -0.4915    0.4756 H   0  0  0  0  0  0  0  0  0  0  0  0
   -8.5510   -1.8653    1.4283 H   0  0  0  0  0  0  0  0  0  0  0  0
   -9.3602    1.0813    1.5533 H   0  0  0  0  0  0  0  0  0  0  0  0
  -10.4366   -0.3225    1.3921 H   0  0  0  0  0  0  0  0  0  0  0  0
  -10.0392    0.7655    3.8401 H   0  0  0  0  0  0  0  0  0  0  0  0
  -10.0346   -0.9962    3.6699 H   0  0  0  0  0  0  0  0  0  0  0  0
   -7.6489    0.8804    3.9838 H   0  0  0  0  0  0  0  0  0  0  0  0
   -7.7523   -1.1323    6.7704 H   0  0  0  0  0  0  0  0  0  0  0  0
  1  2  1  0
  2  3  1  0
  3  4  1  0
  3  5  1  0
  5  6  1  0
  6  7  1  0
  7  8  2  0
  7  9  1  0
  9 10  1  0
 10 11  1  0
 11 12  2  0
 12 13  1  0
 13 14  2  0
 14 15  1  0
 14 16  1  0
 16 17  2  0
  9 18  1  0
 18 19  1  0
 19 20  2  0
 19 21  1  0
 21 22  1  0
 22 23  1  0
 23 24  2  0
 23 25  1  0
 25 26  1  0
 26 27  1  0
 27 28  1  0
 28 29  1  0
 29 30  1  0
 30 31  2  3
 30 32  1  0
 25 33  1  0
 33 34  1  0
 34 35  2  0
 34 36  1  0
 36 37  1  0
 36 38  1  0
 38 39  1  0
 39 40  2  0
 39 41  1  0
 21 42  1  0
 42 43  1  0
 42 44  1  0
  5 45  1  0
 45 46  2  0
 45 47  1  0
 47 48  1  0
 48 49  1  0
 49 50  1  0
 50 51  2  0
 51 52  1  0
 52 53  1  0
 53 54  2  0
 48 55  1  0
 55 56  2  0
 55 57  1  0
 57 58  1  0
 58 59  1  0
 59 60  1  0
 60 61  1  0
 61 62  1  0
 62 63  2  0
 62 64  1  0
 17 11  1  0
 54 50  1  0
 61 57  1  0
  1 65  1  0
  1 66  1  0
  1 67  1  0
  2 68  1  0
  2 69  1  0
  3 70  1  6
  4 71  1  0
  4 72  1  0
  4 73  1  0
  5 74  1  1
  6 75  1  0
  9 76  1  6
 10 77  1  0
 10 78  1  0
 12 79  1  0
 13 80  1  0
 15 81  1  0
 16 82  1  0
 17 83  1  0
 18 84  1  0
 21 85  1  1
 22 86  1  0
 25 87  1  6
 26 88  1  0
 26 89  1  0
 27 90  1  0
 27 91  1  0
 28 92  1  0
 28 93  1  0
 29 94  1  0
 31 95  1  0
 32 96  1  0
 32 97  1  0
 33 98  1  0
 36 99  1  6
 37100  1  0
 37101  1  0
 38102  1  0
 38103  1  0
 41104  1  0
 42105  1  0
 43106  1  0
 43107  1  0
 43108  1  0
 44109  1  0
 44110  1  0
 44111  1  0
 47112  1  0
 48113  1  6
 49114  1  0
 49115  1  0
 51116  1  0
 52117  1  0
 53118  1  0
 58119  1  0
 58120  1  0
 59121  1  0
 59122  1  0
 60123  1  0
 60124  1  0
 61125  1  1
 64126  1  0
M  END
$$$$
