
     RDKit          3D

 36 39  0  0  0  0  0  0  0  0999 V2000
   -3.8242    2.0679   -1.9323 O   0  0  0  0  0  0  0  0  0  0  0  0
   -3.2728    1.9917   -0.5918 S   0  0  0  0  0  6  0  0  0  0  0  0
   -3.4231    3.1082    0.3231 O   0  0  0  0  0  0  0  0  0  0  0  0
   -1.7020    1.6282   -0.7068 N   0  0  0  0  0  0  0  0  0  0  0  0
   -1.2367    0.5712   -0.1393 C   0  0  0  0  0  0  0  0  0  0  0  0
    0.0948    0.2465   -0.1960 N   0  0  0  0  0  0  0  0  0  0  0  0
    1.0547    1.1555   -0.8029 C   0  0  0  0  0  0  0  0  0  0  0  0
    2.4247    0.5216   -0.7561 C   0  0  0  0  0  0  0  0  0  0  0  0
    2.7724   -0.4833   -1.6903 C   0  0  0  0  0  0  0  0  0  0  0  0
    4.0261   -1.1014   -1.6510 C   0  0  0  0  0  0  0  0  0  0  0  0
    4.9055   -0.7026   -0.6689 C   0  0  0  0  0  0  0  0  0  0  0  0
    4.5751    0.2664    0.2485 C   0  0  0  0  0  0  0  0  0  0  0  0
    3.3471    0.8943    0.2358 C   0  0  0  0  0  0  0  0  0  0  0  0
    5.5791    0.5072    1.1334 O   0  0  0  0  0  0  0  0  0  0  0  0
    6.5860   -0.4107    0.6575 C   0  0  0  0  0  0  0  0  0  0  0  0
    6.1594   -1.1922   -0.4777 O   0  0  0  0  0  0  0  0  0  0  0  0
   -1.9133   -0.3789    0.5703 N   0  0  0  0  0  0  0  0  0  0  0  0
   -3.3085   -0.4167    0.6454 C   0  0  0  0  0  0  0  0  0  0  0  0
   -3.9588   -1.4754    1.2902 C   0  0  0  0  0  0  0  0  0  0  0  0
   -5.3531   -1.4896    1.4135 C   0  0  0  0  0  0  0  0  0  0  0  0
   -6.1148   -0.4356    0.9095 C   0  0  0  0  0  0  0  0  0  0  0  0
   -5.4816    0.6378    0.2899 C   0  0  0  0  0  0  0  0  0  0  0  0
   -4.0872    0.6342    0.1790 C   0  0  0  0  0  0  0  0  0  0  0  0
    0.4572   -0.1677    0.6554 H   0  0  0  0  0  0  0  0  0  0  0  0
    1.0640    2.1128   -0.2679 H   0  0  0  0  0  0  0  0  0  0  0  0
    0.7879    1.3649   -1.8460 H   0  0  0  0  0  0  0  0  0  0  0  0
    2.0548   -0.7845   -2.4523 H   0  0  0  0  0  0  0  0  0  0  0  0
    4.2979   -1.8689   -2.3669 H   0  0  0  0  0  0  0  0  0  0  0  0
    3.1151    1.6546    0.9745 H   0  0  0  0  0  0  0  0  0  0  0  0
    7.4771    0.1617    0.3749 H   0  0  0  0  0  0  0  0  0  0  0  0
    6.8507   -1.0934    1.4731 H   0  0  0  0  0  0  0  0  0  0  0  0
   -1.4577   -1.2794    0.6480 H   0  0  0  0  0  0  0  0  0  0  0  0
   -3.3894   -2.3034    1.7060 H   0  0  0  0  0  0  0  0  0  0  0  0
   -5.8453   -2.3232    1.9096 H   0  0  0  0  0  0  0  0  0  0  0  0
   -7.1978   -0.4478    1.0070 H   0  0  0  0  0  0  0  0  0  0  0  0
   -6.0632    1.4709   -0.0985 H   0  0  0  0  0  0  0  0  0  0  0  0
  1  2  2  0
  2  3  2  0
  2  4  1  0
  4  5  2  0
  5  6  1  0
  6  7  1  0
  7  8  1  0
  8  9  2  0
  9 10  1  0
 10 11  2  0
 11 12  1  0
 12 13  2  0
 12 14  1  0
 14 15  1  0
 15 16  1  0
  5 17  1  0
 17 18  1  0
 18 19  2  0
 19 20  1  0
 20 21  2  0
 21 22  1  0
 22 23  2  0
 23  2  1  0
 13  8  1  0
 23 18  1  0
 16 11  1  0
  6 24  1  0
  7 25  1  0
  7 26  1  0
  9 27  1  0
 10 28  1  0
 13 29  1  0
 15 30  1  0
 15 31  1  0
 17 32  1  0
 19 33  1  0
 20 34  1  0
 21 35  1  0
 22 36  1  0
M  END
$$$$
