
     RDKit          3D

 40 41  0  0  0  0  0  0  0  0999 V2000
   -4.3399    3.4692    0.5765 C   0  0  0  0  0  0  0  0  0  0  0  0
   -3.0130    2.9719    0.4719 O   0  0  0  0  0  0  0  0  0  0  0  0
   -2.8648    1.6338    0.2186 C   0  0  0  0  0  0  0  0  0  0  0  0
   -3.8969    0.7725   -0.1687 C   0  0  0  0  0  0  0  0  0  0  0  0
   -3.6533   -0.5798   -0.4241 C   0  0  0  0  0  0  0  0  0  0  0  0
   -2.3734   -1.1352   -0.2981 C   0  0  0  0  0  0  0  0  0  0  0  0
   -2.0585   -2.4432   -0.5467 O   0  0  0  0  0  0  0  0  0  0  0  0
   -3.1323   -3.3278   -0.8401 C   0  0  0  0  0  0  0  0  0  0  0  0
   -1.3375   -0.2615    0.0933 C   0  0  0  0  0  0  0  0  0  0  0  0
   -1.5624    1.0971    0.3380 C   0  0  0  0  0  0  0  0  0  0  0  0
   -0.3065    1.6726    0.6756 C   0  0  0  0  0  0  0  0  0  0  0  0
    0.6705    0.6987    0.5887 C   0  0  0  0  0  0  0  0  0  0  0  0
    2.0914    0.8872    0.7825 C   0  0  0  0  0  0  0  0  0  0  0  0
    2.5669    1.5409    1.7038 O   0  0  0  0  0  0  0  0  0  0  0  0
    2.8657    0.3046   -0.1977 N   0  0  0  0  0  0  0  0  0  0  0  0
    4.3182    0.3636   -0.1778 C   0  0  0  0  0  0  0  0  0  0  0  0
    4.8719    0.2004   -1.5898 C   0  0  0  0  0  0  0  0  0  0  0  0
    4.8831   -0.7105    0.7492 C   0  0  0  0  0  0  0  0  0  0  0  0
    0.0107   -0.4892    0.3367 N   0  0  0  0  0  0  0  0  0  0  0  0
    0.6133   -1.8062    0.4028 C   0  0  0  0  0  0  0  0  0  0  0  0
   -4.8455    3.4422   -0.3941 H   0  0  0  0  0  0  0  0  0  0  0  0
   -4.9116    2.9257    1.3363 H   0  0  0  0  0  0  0  0  0  0  0  0
   -4.2809    4.5158    0.8906 H   0  0  0  0  0  0  0  0  0  0  0  0
   -4.9130    1.1325   -0.2944 H   0  0  0  0  0  0  0  0  0  0  0  0
   -4.5005   -1.1854   -0.7314 H   0  0  0  0  0  0  0  0  0  0  0  0
   -2.7146   -4.3328   -0.9542 H   0  0  0  0  0  0  0  0  0  0  0  0
   -3.6151   -3.0599   -1.7856 H   0  0  0  0  0  0  0  0  0  0  0  0
   -3.8561   -3.3600   -0.0190 H   0  0  0  0  0  0  0  0  0  0  0  0
   -0.1280    2.7142    0.9135 H   0  0  0  0  0  0  0  0  0  0  0  0
    2.3989   -0.1257   -0.9842 H   0  0  0  0  0  0  0  0  0  0  0  0
    4.6148    1.3475    0.2048 H   0  0  0  0  0  0  0  0  0  0  0  0
    4.5922   -0.7688   -2.0179 H   0  0  0  0  0  0  0  0  0  0  0  0
    5.9643    0.2733   -1.5931 H   0  0  0  0  0  0  0  0  0  0  0  0
    4.4780    0.9790   -2.2521 H   0  0  0  0  0  0  0  0  0  0  0  0
    5.9768   -0.6673    0.7766 H   0  0  0  0  0  0  0  0  0  0  0  0
    4.5878   -1.7129    0.4196 H   0  0  0  0  0  0  0  0  0  0  0  0
    4.5154   -0.5803    1.7727 H   0  0  0  0  0  0  0  0  0  0  0  0
    1.5712   -1.7568    0.9247 H   0  0  0  0  0  0  0  0  0  0  0  0
    0.7549   -2.1697   -0.6176 H   0  0  0  0  0  0  0  0  0  0  0  0
   -0.0419   -2.4699    0.9725 H   0  0  0  0  0  0  0  0  0  0  0  0
  1  2  1  0
  2  3  1  0
  3  4  2  0
  4  5  1  0
  5  6  2  0
  6  7  1  0
  7  8  1  0
  6  9  1  0
  9 10  2  0
 10 11  1  0
 11 12  2  0
 12 13  1  0
 13 14  2  0
 13 15  1  0
 15 16  1  0
 16 17  1  0
 16 18  1  0
 12 19  1  0
 19 20  1  0
 10  3  1  0
 19  9  1  0
  1 21  1  0
  1 22  1  0
  1 23  1  0
  4 24  1  0
  5 25  1  0
  8 26  1  0
  8 27  1  0
  8 28  1  0
 11 29  1  0
 15 30  1  0
 16 31  1  0
 17 32  1  0
 17 33  1  0
 17 34  1  0
 18 35  1  0
 18 36  1  0
 18 37  1  0
 20 38  1  0
 20 39  1  0
 20 40  1  0
M  END
$$$$
