
     RDKit          3D

 52 56  0  0  0  0  0  0  0  0999 V2000
    3.9513   -4.1701    0.3376 C   0  0  0  0  0  0  0  0  0  0  0  0
    3.7956   -2.9430    1.0809 N   0  0  0  0  0  0  0  0  0  0  0  0
    4.2649   -2.8651    2.3428 N   0  0  0  0  0  0  0  0  0  0  0  0
    3.9251   -1.6314    2.7234 C   0  0  0  0  0  0  0  0  0  0  0  0
    3.2628   -0.9082    1.7077 C   0  0  0  0  0  0  0  0  0  0  0  0
    2.7103    0.3792    1.5792 C   0  0  0  0  0  0  0  0  0  0  0  0
    2.1033    0.7646    0.3660 C   0  0  0  0  0  0  0  0  0  0  0  0
    1.5161    2.1114    0.2252 C   0  0  0  0  0  0  0  0  0  0  0  0
    2.3555    3.2255    0.3276 C   0  0  0  0  0  0  0  0  0  0  0  0
    1.9651    4.5146    0.2196 N   0  0  0  0  0  0  0  0  0  0  0  0
    0.6580    4.7347    0.0068 C   0  0  0  0  0  0  0  0  0  0  0  0
    0.2980    6.0846   -0.0220 N   0  0  0  0  0  0  0  0  0  0  0  0
   -0.2835    3.6975   -0.1132 C   0  0  0  0  0  0  0  0  0  0  0  0
   -1.9608    4.1179   -0.3039 Cl  0  0  0  0  0  0  0  0  0  0  0  0
    0.1400    2.3491   -0.0273 C   0  0  0  0  0  0  0  0  0  0  0  0
   -0.7384    1.2676   -0.1517 N   0  0  0  0  0  0  0  0  0  0  0  0
   -1.4807    1.0537   -1.3867 C   0  0  0  0  0  0  0  0  0  0  0  0
   -1.9046   -0.4112   -1.4694 C   0  0  0  0  0  0  0  0  0  0  0  0
   -2.7973   -0.8094   -0.2708 C   0  0  0  0  0  0  0  0  0  0  0  0
   -4.2903   -0.8783   -0.6633 C   0  0  0  0  0  0  0  0  0  0  0  0
   -4.4481   -2.2580   -1.2796 C   0  0  0  0  0  0  0  0  0  0  0  0
   -3.4788   -3.0413   -0.5779 N   0  0  0  0  0  0  0  0  0  0  0  0
   -2.5323   -2.2722    0.0679 C   0  0  0  0  0  0  0  0  0  0  0  0
   -1.6266   -2.7184    0.7500 O   0  0  0  0  0  0  0  0  0  0  0  0
   -2.5845    0.0924    0.9561 C   0  0  0  0  0  0  0  0  0  0  0  0
   -1.1363    0.5663    1.0709 C   0  0  0  0  0  0  0  0  0  0  0  0
    2.0758   -0.1512   -0.6984 C   0  0  0  0  0  0  0  0  0  0  0  0
    2.6136   -1.4402   -0.5887 C   0  0  0  0  0  0  0  0  0  0  0  0
    3.2003   -1.7883    0.6330 C   0  0  0  0  0  0  0  0  0  0  0  0
    4.6003   -3.9728   -0.5195 H   0  0  0  0  0  0  0  0  0  0  0  0
    4.4020   -4.9327    0.9787 H   0  0  0  0  0  0  0  0  0  0  0  0
    2.9640   -4.5024    0.0066 H   0  0  0  0  0  0  0  0  0  0  0  0
    4.1747   -1.3052    3.7244 H   0  0  0  0  0  0  0  0  0  0  0  0
    2.7415    1.0622    2.4241 H   0  0  0  0  0  0  0  0  0  0  0  0
    3.4228    3.0999    0.5020 H   0  0  0  0  0  0  0  0  0  0  0  0
    1.1530    6.6329    0.0018 H   0  0  0  0  0  0  0  0  0  0  0  0
   -0.2974    6.2991   -0.8134 H   0  0  0  0  0  0  0  0  0  0  0  0
   -2.3741    1.6840   -1.4366 H   0  0  0  0  0  0  0  0  0  0  0  0
   -0.8545    1.2932   -2.2550 H   0  0  0  0  0  0  0  0  0  0  0  0
   -2.4175   -0.5827   -2.4232 H   0  0  0  0  0  0  0  0  0  0  0  0
   -1.0019   -1.0372   -1.4944 H   0  0  0  0  0  0  0  0  0  0  0  0
   -4.6000   -0.0791   -1.3444 H   0  0  0  0  0  0  0  0  0  0  0  0
   -4.9212   -0.8122    0.2335 H   0  0  0  0  0  0  0  0  0  0  0  0
   -4.1986   -2.2718   -2.3449 H   0  0  0  0  0  0  0  0  0  0  0  0
   -5.4471   -2.6755   -1.1302 H   0  0  0  0  0  0  0  0  0  0  0  0
   -3.4629   -4.0517   -0.5094 H   0  0  0  0  0  0  0  0  0  0  0  0
   -3.2358    0.9744    0.8819 H   0  0  0  0  0  0  0  0  0  0  0  0
   -2.8682   -0.4291    1.8791 H   0  0  0  0  0  0  0  0  0  0  0  0
   -0.4738   -0.2903    1.2393 H   0  0  0  0  0  0  0  0  0  0  0  0
   -1.0511    1.2233    1.9461 H   0  0  0  0  0  0  0  0  0  0  0  0
    1.6090    0.1363   -1.6392 H   0  0  0  0  0  0  0  0  0  0  0  0
    2.5635   -2.1355   -1.4197 H   0  0  0  0  0  0  0  0  0  0  0  0
  1  2  1  0
  2  3  1  0
  3  4  2  0
  4  5  1  0
  5  6  2  0
  6  7  1  0
  7  8  1  0
  8  9  2  0
  9 10  1  0
 10 11  2  0
 11 12  1  0
 11 13  1  0
 13 14  1  0
 13 15  2  0
 15 16  1  0
 16 17  1  0
 17 18  1  0
 18 19  1  0
 19 20  1  0
 20 21  1  0
 21 22  1  0
 22 23  1  0
 23 24  2  0
 19 25  1  0
 25 26  1  0
  7 27  2  0
 27 28  1  0
 28 29  2  0
 29  2  1  0
 29  5  1  0
 15  8  1  0
 26 16  1  0
 23 19  1  0
  1 30  1  0
  1 31  1  0
  1 32  1  0
  4 33  1  0
  6 34  1  0
  9 35  1  0
 12 36  1  0
 12 37  1  0
 17 38  1  0
 17 39  1  0
 18 40  1  0
 18 41  1  0
 20 42  1  0
 20 43  1  0
 21 44  1  0
 21 45  1  0
 22 46  1  0
 25 47  1  0
 25 48  1  0
 26 49  1  0
 26 50  1  0
 27 51  1  0
 28 52  1  0
M  END
$$$$
