
     RDKit          3D

 21 21  0  0  0  0  0  0  0  0999 V2000
   -4.0765   -0.0819   -1.6056 O   0  0  0  0  0  0  0  0  0  0  0  0
   -3.6577   -0.5617   -0.5704 C   0  0  0  0  0  0  0  0  0  0  0  0
   -4.4440   -1.2502    0.2718 O   0  0  0  0  0  0  0  0  0  0  0  0
   -2.2881   -0.5025   -0.0451 C   0  0  0  0  0  0  0  0  0  0  0  0
   -1.3351    0.1288   -0.7469 C   0  0  0  0  0  0  0  0  0  0  0  0
    0.0597    0.2582   -0.3038 C   0  0  0  0  0  0  0  0  0  0  0  0
    0.7504    1.4435   -0.5961 C   0  0  0  0  0  0  0  0  0  0  0  0
    2.0863    1.6058   -0.2164 C   0  0  0  0  0  0  0  0  0  0  0  0
    2.7420    0.5740    0.4487 C   0  0  0  0  0  0  0  0  0  0  0  0
    4.0472    0.7144    0.8273 O   0  0  0  0  0  0  0  0  0  0  0  0
    2.0713   -0.6157    0.7290 C   0  0  0  0  0  0  0  0  0  0  0  0
    2.7366   -1.6222    1.3727 O   0  0  0  0  0  0  0  0  0  0  0  0
    0.7372   -0.7798    0.3523 C   0  0  0  0  0  0  0  0  0  0  0  0
   -5.3230   -1.2317   -0.1610 H   0  0  0  0  0  0  0  0  0  0  0  0
   -2.1086   -0.9694    0.9148 H   0  0  0  0  0  0  0  0  0  0  0  0
   -1.5795    0.6059   -1.6953 H   0  0  0  0  0  0  0  0  0  0  0  0
    0.2497    2.2579   -1.1165 H   0  0  0  0  0  0  0  0  0  0  0  0
    2.5935    2.5369   -0.4486 H   0  0  0  0  0  0  0  0  0  0  0  0
    4.3636    1.5899    0.5580 H   0  0  0  0  0  0  0  0  0  0  0  0
    2.1456   -2.3834    1.4733 H   0  0  0  0  0  0  0  0  0  0  0  0
    0.2293   -1.7168    0.5577 H   0  0  0  0  0  0  0  0  0  0  0  0
  1  2  2  0
  2  3  1  0
  2  4  1  0
  4  5  2  0
  5  6  1  0
  6  7  2  0
  7  8  1  0
  8  9  2  0
  9 10  1  0
  9 11  1  0
 11 12  1  0
 11 13  2  0
 13  6  1  0
  3 14  1  0
  4 15  1  0
  5 16  1  0
  7 17  1  0
  8 18  1  0
 10 19  1  0
 12 20  1  0
 13 21  1  0
M  END
$$$$
