
     RDKit          3D

 50 50  0  0  0  0  0  0  0  0999 V2000
   -0.5326    5.4277   -0.6015 C   0  0  0  0  0  0  0  0  0  0  0  0
   -0.2895    4.0501   -0.4404 O   0  0  0  0  0  0  0  0  0  0  0  0
   -1.2999    3.1337   -0.1953 C   0  0  0  0  0  0  0  0  0  0  0  0
   -2.5778    3.6519   -0.1163 C   0  0  0  0  0  0  0  0  0  0  0  0
   -3.6412    2.8424    0.1203 C   0  0  0  0  0  0  0  0  0  0  0  0
   -3.4463    1.5092    0.2810 C   0  0  0  0  0  0  0  0  0  0  0  0
   -2.1465    0.9857    0.2002 C   0  0  0  0  0  0  0  0  0  0  0  0
   -2.0415   -0.3834    0.3765 O   0  0  0  0  0  0  0  0  0  0  0  0
   -3.1603   -1.1930    0.6196 C   0  0  0  0  0  0  0  0  0  0  0  0
   -2.7751   -2.6303    0.7723 C   0  0  0  0  0  0  0  0  0  0  0  0
   -4.0383   -3.4348    1.0317 C   0  0  0  0  0  0  0  0  0  0  0  0
   -4.9624   -3.2910   -0.0765 N   0  0  0  0  0  0  0  0  0  0  0  0
   -1.0603    1.7888   -0.0382 C   0  0  0  0  0  0  0  0  0  0  0  0
    0.2791    1.2355   -0.1196 C   0  0  0  0  0  0  0  0  0  0  0  0
    0.6603   -0.0822    0.0171 C   0  0  0  0  0  0  0  0  0  0  0  0
    2.0507   -0.2149   -0.1282 C   0  0  0  0  0  0  0  0  0  0  0  0
    2.7973   -1.4190   -0.0503 N   0  0  0  0  0  0  0  0  0  0  0  0
    4.1849   -1.5511   -0.1952 C   0  0  0  0  0  0  0  0  0  0  0  0
    5.0128   -0.4974   -0.4374 C   0  0  0  0  0  0  0  0  0  0  0  0
    6.3646   -0.6691   -0.5726 N   0  0  0  0  0  0  0  0  0  0  0  0
    6.8987   -1.8974   -0.4663 C   0  0  0  0  0  0  0  0  0  0  0  0
    8.3006   -2.1439   -0.5970 C   0  0  0  0  0  0  0  0  0  0  0  0
    9.4549   -2.3523   -0.6848 N   0  0  0  0  0  0  0  0  0  0  0  0
    6.0671   -2.9689   -0.2211 C   0  0  0  0  0  0  0  0  0  0  0  0
    4.7635   -2.7632   -0.0963 N   0  0  0  0  0  0  0  0  0  0  0  0
    2.4707    1.0328   -0.3495 N   0  0  0  0  0  0  0  0  0  0  0  0
    1.4351    1.8896   -0.3457 N   0  0  0  0  0  0  0  0  0  0  0  0
    0.6898    0.0000    0.0000 Cl  0  0  0  0  0  0  0  0  0  0  0  0
    0.6896    0.0000    0.0000 Cl  0  0  0  0  0  0  0  0  0  0  0  0
    0.4295    5.9636   -0.6709 H   0  0  0  0  0  0  0  0  0  0  0  0
   -1.1884    5.6359   -1.4877 H   0  0  0  0  0  0  0  0  0  0  0  0
   -1.1083    5.8422    0.2772 H   0  0  0  0  0  0  0  0  0  0  0  0
   -2.7268    4.7161   -0.2454 H   0  0  0  0  0  0  0  0  0  0  0  0
   -4.6423    3.2678    0.1795 H   0  0  0  0  0  0  0  0  0  0  0  0
   -4.2922    0.8411    0.4726 H   0  0  0  0  0  0  0  0  0  0  0  0
   -3.6973   -0.8943    1.5530 H   0  0  0  0  0  0  0  0  0  0  0  0
   -3.9324   -1.0899   -0.1932 H   0  0  0  0  0  0  0  0  0  0  0  0
   -2.0425   -2.7528    1.5736 H   0  0  0  0  0  0  0  0  0  0  0  0
   -2.3228   -3.0453   -0.1624 H   0  0  0  0  0  0  0  0  0  0  0  0
   -3.8079   -4.5109    1.1675 H   0  0  0  0  0  0  0  0  0  0  0  0
   -4.5653   -3.0363    1.9304 H   0  0  0  0  0  0  0  0  0  0  0  0
   -4.4573   -2.9613   -0.9488 H   0  0  0  0  0  0  0  0  0  0  0  0
   -5.3738   -4.2154   -0.3154 H   0  0  0  0  0  0  0  0  0  0  0  0
    0.0420   -0.9387    0.2078 H   0  0  0  0  0  0  0  0  0  0  0  0
    2.2294   -2.3083    0.1389 H   0  0  0  0  0  0  0  0  0  0  0  0
    4.6724    0.4996   -0.5346 H   0  0  0  0  0  0  0  0  0  0  0  0
    6.4749   -3.9816   -0.1297 H   0  0  0  0  0  0  0  0  0  0  0  0
    1.5402    2.9135   -0.4990 H   0  0  0  0  0  0  0  0  0  0  0  0
   -0.6898    0.0000    0.0000 H   0  0  0  0  0  0  0  0  0  0  0  0
   -0.6896    0.0000    0.0000 H   0  0  0  0  0  0  0  0  0  0  0  0
  1  2  1  0
  2  3  1  0
  3  4  2  0
  4  5  1  0
  5  6  2  0
  6  7  1  0
  7  8  1  0
  8  9  1  0
  9 10  1  0
 10 11  1  0
 11 12  1  0
  7 13  2  0
 13 14  1  0
 14 15  2  0
 15 16  1  0
 16 17  1  0
 17 18  1  0
 18 19  2  0
 19 20  1  0
 20 21  2  0
 21 22  1  0
 22 23  3  0
 21 24  1  0
 24 25  2  0
 16 26  2  0
 26 27  1  0
 13  3  1  0
 27 14  1  0
 25 18  1  0
  1 30  1  0
  1 31  1  0
  1 32  1  0
  4 33  1  0
  5 34  1  0
  6 35  1  0
  9 36  1  0
  9 37  1  0
 10 38  1  0
 10 39  1  0
 11 40  1  0
 11 41  1  0
 12 42  1  0
 12 43  1  0
 15 44  1  0
 17 45  1  0
 19 46  1  0
 24 47  1  0
 27 48  1  0
 28 49  1  0
 29 50  1  0
M  END
$$$$
