
     RDKit          3D

 49 52  0  0  0  0  0  0  0  0999 V2000
   -7.0554    1.2045   -1.6379 C   0  0  0  0  0  0  0  0  0  0  0  0
   -5.6630    0.8123   -1.3672 C   0  0  0  0  0  0  0  0  0  0  0  0
   -4.5435    1.2945   -1.8579 N   0  0  0  0  0  0  0  0  0  0  0  0
   -3.5246    0.5767   -1.2672 N   0  0  0  0  0  0  0  0  0  0  0  0
   -4.0884   -0.2947   -0.4541 C   0  0  0  0  0  0  0  0  0  0  0  0
   -3.5210   -1.3290    0.4007 C   0  0  0  0  0  0  0  0  0  0  0  0
   -4.2240   -2.5372    0.5685 C   0  0  0  0  0  0  0  0  0  0  0  0
   -3.7225   -3.5394    1.3883 C   0  0  0  0  0  0  0  0  0  0  0  0
   -2.5251   -3.3032    2.0264 C   0  0  0  0  0  0  0  0  0  0  0  0
   -1.8214   -2.1590    1.8956 N   0  0  0  0  0  0  0  0  0  0  0  0
   -2.3031   -1.1739    1.0930 C   0  0  0  0  0  0  0  0  0  0  0  0
   -1.5484    0.0079    0.9987 N   0  0  0  0  0  0  0  0  0  0  0  0
   -0.7337    0.0662   -0.2415 C   0  0  0  0  0  0  0  0  0  0  0  0
    0.7707   -0.1006    0.0437 C   0  0  0  0  0  0  0  0  0  0  0  0
    1.2965    0.9463    0.9890 N   0  0  0  0  0  0  0  0  0  0  0  0
    2.1912    2.2070    0.2792 S   0  0  0  0  0  6  0  0  0  0  0  0
    2.6147    3.1102    1.3271 O   0  0  0  0  0  0  0  0  0  0  0  0
    1.4455    2.6751   -0.8693 O   0  0  0  0  0  0  0  0  0  0  0  0
    3.6428    1.3679   -0.2986 C   0  0  0  0  0  0  0  0  0  0  0  0
    3.9611    1.3646   -1.6598 C   0  0  0  0  0  0  0  0  0  0  0  0
    5.1081    0.6975   -2.0966 C   0  0  0  0  0  0  0  0  0  0  0  0
    5.9307    0.0298   -1.1787 C   0  0  0  0  0  0  0  0  0  0  0  0
    7.1817   -0.6614   -1.6303 C   0  0  0  0  0  0  0  0  0  0  0  0
    5.5975    0.0661    0.1801 C   0  0  0  0  0  0  0  0  0  0  0  0
    6.3854   -0.5469    1.0748 F   0  0  0  0  0  0  0  0  0  0  0  0
    4.4613    0.7254    0.6307 C   0  0  0  0  0  0  0  0  0  0  0  0
    0.2431    1.4390    1.9442 C   0  0  0  0  0  0  0  0  0  0  0  0
   -0.8000    0.3461    2.2306 C   0  0  0  0  0  0  0  0  0  0  0  0
   -5.4624   -0.2096   -0.4805 O   0  0  0  0  0  0  0  0  0  0  0  0
   -7.6142    0.3656   -2.0632 H   0  0  0  0  0  0  0  0  0  0  0  0
   -7.0922    2.0355   -2.3484 H   0  0  0  0  0  0  0  0  0  0  0  0
   -7.5514    1.5207   -0.7155 H   0  0  0  0  0  0  0  0  0  0  0  0
   -5.1689   -2.7011    0.0544 H   0  0  0  0  0  0  0  0  0  0  0  0
   -4.2534   -4.4745    1.5252 H   0  0  0  0  0  0  0  0  0  0  0  0
   -2.0813   -4.0463    2.6828 H   0  0  0  0  0  0  0  0  0  0  0  0
   -1.0397   -0.6905   -0.9752 H   0  0  0  0  0  0  0  0  0  0  0  0
   -0.9019    1.0457   -0.7050 H   0  0  0  0  0  0  0  0  0  0  0  0
    0.9649   -1.0793    0.4995 H   0  0  0  0  0  0  0  0  0  0  0  0
    1.3217   -0.0878   -0.9019 H   0  0  0  0  0  0  0  0  0  0  0  0
    3.3301    1.8804   -2.3811 H   0  0  0  0  0  0  0  0  0  0  0  0
    5.3577    0.7044   -3.1560 H   0  0  0  0  0  0  0  0  0  0  0  0
    7.3412   -1.5852   -1.0647 H   0  0  0  0  0  0  0  0  0  0  0  0
    7.1197   -0.9365   -2.6883 H   0  0  0  0  0  0  0  0  0  0  0  0
    8.0445   -0.0032   -1.4902 H   0  0  0  0  0  0  0  0  0  0  0  0
    4.2276    0.7367    1.6911 H   0  0  0  0  0  0  0  0  0  0  0  0
    0.7351    1.7217    2.8812 H   0  0  0  0  0  0  0  0  0  0  0  0
   -0.2566    2.3230    1.5297 H   0  0  0  0  0  0  0  0  0  0  0  0
   -1.5061    0.7081    2.9872 H   0  0  0  0  0  0  0  0  0  0  0  0
   -0.2706   -0.5197    2.6487 H   0  0  0  0  0  0  0  0  0  0  0  0
  1  2  1  0
  2  3  2  0
  3  4  1  0
  4  5  2  0
  5  6  1  0
  6  7  2  0
  7  8  1  0
  8  9  2  0
  9 10  1  0
 10 11  2  0
 11 12  1  0
 12 13  1  0
 13 14  1  0
 14 15  1  0
 15 16  1  0
 16 17  2  0
 16 18  2  0
 16 19  1  0
 19 20  2  0
 20 21  1  0
 21 22  2  0
 22 23  1  0
 22 24  1  0
 24 25  1  0
 24 26  2  0
 15 27  1  0
 27 28  1  0
  5 29  1  0
 29  2  1  0
 11  6  1  0
 28 12  1  0
 26 19  1  0
  1 30  1  0
  1 31  1  0
  1 32  1  0
  7 33  1  0
  8 34  1  0
  9 35  1  0
 13 36  1  0
 13 37  1  0
 14 38  1  0
 14 39  1  0
 20 40  1  0
 21 41  1  0
 23 42  1  0
 23 43  1  0
 23 44  1  0
 26 45  1  0
 27 46  1  0
 27 47  1  0
 28 48  1  0
 28 49  1  0
M  END
$$$$
