
     RDKit          3D

 48 50  0  0  0  0  0  0  0  0999 V2000
   -3.9384   -0.9749   -1.3343 C   0  0  0  0  0  0  0  0  0  0  0  0
   -3.1611   -0.8344   -0.0308 N   0  0  0  0  0  4  0  0  0  0  0  0
   -4.0623   -1.5166    1.0185 C   0  0  0  0  0  0  0  0  0  0  0  0
   -1.7204   -1.4313   -0.0108 C   0  0  1  0  0  0  0  0  0  0  0  0
   -1.0069   -0.9623   -1.2980 C   0  0  0  0  0  0  0  0  0  0  0  0
   -0.9967    0.5829   -1.4635 C   0  0  2  0  0  0  0  0  0  0  0  0
    0.1890    1.1133   -0.8259 O   0  0  0  0  0  0  0  0  0  0  0  0
    1.3596    1.0230   -1.5343 C   0  0  0  0  0  0  0  0  0  0  0  0
    1.4397    0.5557   -2.6616 O   0  0  0  0  0  0  0  0  0  0  0  0
    2.5202    1.5088   -0.6851 C   0  0  2  0  0  0  0  0  0  0  0  0
    3.7442    1.7992   -1.5615 C   0  0  0  0  0  0  0  0  0  0  0  0
    4.5992    2.7246   -0.8904 O   0  0  0  0  0  0  0  0  0  0  0  0
    2.8110    0.5190    0.4348 C   0  0  0  0  0  0  0  0  0  0  0  0
    2.7546    0.9391    1.7722 C   0  0  0  0  0  0  0  0  0  0  0  0
    2.9862    0.0350    2.8100 C   0  0  0  0  0  0  0  0  0  0  0  0
    3.2814   -1.2965    2.5248 C   0  0  0  0  0  0  0  0  0  0  0  0
    3.3518   -1.7254    1.2015 C   0  0  0  0  0  0  0  0  0  0  0  0
    3.1186   -0.8247    0.1609 C   0  0  0  0  0  0  0  0  0  0  0  0
   -2.1997    1.3330   -0.8337 C   0  0  0  0  0  0  0  0  0  0  0  0
   -2.7807    0.6148    0.4038 C   0  0  2  0  0  0  0  0  0  0  0  0
   -1.6691    0.4964    1.4386 C   0  0  1  0  0  0  0  0  0  0  0  0
   -1.7256   -0.5745    2.3825 O   0  0  0  0  0  0  0  0  0  0  0  0
   -0.9949   -0.8120    1.1762 C   0  0  1  0  0  0  0  0  0  0  0  0
    0.0000    0.0000    0.0000 Br  0  0  0  0  0 15  0  0  0  0  0  0
   -4.9052   -0.4771   -1.2093 H   0  0  0  0  0  0  0  0  0  0  0  0
   -3.4092   -0.5224   -2.1720 H   0  0  0  0  0  0  0  0  0  0  0  0
   -4.0768   -2.0422   -1.5338 H   0  0  0  0  0  0  0  0  0  0  0  0
   -3.6161   -1.5290    2.0080 H   0  0  0  0  0  0  0  0  0  0  0  0
   -5.0085   -0.9677    1.0543 H   0  0  0  0  0  0  0  0  0  0  0  0
   -4.2325   -2.5481    0.6938 H   0  0  0  0  0  0  0  0  0  0  0  0
   -1.7981   -2.5211    0.0526 H   0  0  0  0  0  0  0  0  0  0  0  0
   -1.4822   -1.4221   -2.1716 H   0  0  0  0  0  0  0  0  0  0  0  0
    0.0199   -1.3480   -1.2850 H   0  0  0  0  0  0  0  0  0  0  0  0
   -0.9596    0.8433   -2.5286 H   0  0  0  0  0  0  0  0  0  0  0  0
    2.2000    2.4648   -0.2467 H   0  0  0  0  0  0  0  0  0  0  0  0
    3.4491    2.2663   -2.5074 H   0  0  0  0  0  0  0  0  0  0  0  0
    4.3183    0.8956   -1.7920 H   0  0  0  0  0  0  0  0  0  0  0  0
    5.4068    2.8158   -1.4277 H   0  0  0  0  0  0  0  0  0  0  0  0
    2.5471    1.9792    2.0179 H   0  0  0  0  0  0  0  0  0  0  0  0
    2.9538    0.3737    3.8432 H   0  0  0  0  0  0  0  0  0  0  0  0
    3.4784   -1.9942    3.3355 H   0  0  0  0  0  0  0  0  0  0  0  0
    3.6066   -2.7595    0.9807 H   0  0  0  0  0  0  0  0  0  0  0  0
    3.1929   -1.1821   -0.8650 H   0  0  0  0  0  0  0  0  0  0  0  0
   -2.9861    1.4693   -1.5841 H   0  0  0  0  0  0  0  0  0  0  0  0
   -1.8881    2.3453   -0.5437 H   0  0  0  0  0  0  0  0  0  0  0  0
   -3.6783    1.1072    0.7908 H   0  0  0  0  0  0  0  0  0  0  0  0
   -1.1077    1.3865    1.6748 H   0  0  0  0  0  0  0  0  0  0  0  0
    0.0761   -0.9254    1.2215 H   0  0  0  0  0  0  0  0  0  0  0  0
  1  2  1  0
  2  3  1  0
  2  4  1  0
  4  5  1  0
  5  6  1  0
  6  7  1  0
  7  8  1  0
  8  9  2  0
  8 10  1  0
 10 11  1  0
 11 12  1  0
 10 13  1  0
 13 14  2  0
 14 15  1  0
 15 16  2  0
 16 17  1  0
 17 18  2  0
  6 19  1  0
 19 20  1  0
 20 21  1  0
 21 22  1  0
 22 23  1  0
 20  2  1  0
 23 21  1  0
 23  4  1  0
 18 13  1  0
  1 25  1  0
  1 26  1  0
  1 27  1  0
  3 28  1  0
  3 29  1  0
  3 30  1  0
  4 31  1  1
  5 32  1  0
  5 33  1  0
  6 34  1  6
 10 35  1  1
 11 36  1  0
 11 37  1  0
 12 38  1  0
 14 39  1  0
 15 40  1  0
 16 41  1  0
 17 42  1  0
 18 43  1  0
 19 44  1  0
 19 45  1  0
 20 46  1  1
 21 47  1  1
 23 48  1  1
M  CHG  2   2   1  24  -1
M  END
$$$$
