
     RDKit          3D

 48 49  0  0  0  0  0  0  0  0999 V2000
    7.1733   -0.6783   -1.5845 C   0  0  0  0  0  0  0  0  0  0  0  0
    6.4262    0.5405   -1.0722 C   0  0  0  0  0  0  0  0  0  0  0  0
    5.0102    0.1716   -0.8450 N   0  0  0  0  0  0  0  0  0  0  0  0
    4.0423    1.4412   -0.2621 S   0  0  0  0  0  6  0  0  0  0  0  0
    4.8248    2.2888    0.6069 O   0  0  0  0  0  0  0  0  0  0  0  0
    3.3764    1.9634   -1.4367 O   0  0  0  0  0  0  0  0  0  0  0  0
    2.8463    0.5601    0.7256 C   0  0  0  0  0  0  0  0  0  0  0  0
    1.5129    0.5433    0.2693 C   0  0  0  0  0  0  0  0  0  0  0  0
    0.4978   -0.1213    0.9791 C   0  0  0  0  0  0  0  0  0  0  0  0
   -0.9043   -0.1537    0.5142 C   0  0  0  0  0  0  0  0  0  0  0  0
   -1.3005    0.0062   -0.8034 C   0  0  0  0  0  0  0  0  0  0  0  0
   -2.6618   -0.0423   -1.1329 C   0  0  0  0  0  0  0  0  0  0  0  0
   -3.6283   -0.2503   -0.1578 C   0  0  0  0  0  0  0  0  0  0  0  0
   -4.9842   -0.3069   -0.4360 N   0  0  0  0  0  0  0  0  0  0  0  0
   -5.9050   -0.5491    0.6776 C   0  0  0  0  0  0  0  0  0  0  0  0
   -6.2510    0.7455    1.4000 C   0  0  0  0  0  0  0  0  0  0  0  0
   -5.5584    0.0270   -1.7346 C   0  0  0  0  0  0  0  0  0  0  0  0
   -5.6350   -1.2068   -2.6214 C   0  0  0  0  0  0  0  0  0  0  0  0
   -3.1958   -0.4157    1.1093 N   0  0  0  0  0  0  0  0  0  0  0  0
   -1.8465   -0.3670    1.4507 N   0  0  0  0  0  0  0  0  0  0  0  0
    0.8731   -0.7542    2.1766 C   0  0  0  0  0  0  0  0  0  0  0  0
    2.1934   -0.7329    2.6420 C   0  0  0  0  0  0  0  0  0  0  0  0
    3.2038   -0.0805    1.9237 C   0  0  0  0  0  0  0  0  0  0  0  0
    4.5955   -0.0690    2.4902 C   0  0  0  0  0  0  0  0  0  0  0  0
    8.2267   -0.4364   -1.7554 H   0  0  0  0  0  0  0  0  0  0  0  0
    6.7458   -1.0341   -2.5279 H   0  0  0  0  0  0  0  0  0  0  0  0
    7.1221   -1.5009   -0.8633 H   0  0  0  0  0  0  0  0  0  0  0  0
    6.8844    0.8715   -0.1352 H   0  0  0  0  0  0  0  0  0  0  0  0
    6.4858    1.3451   -1.8123 H   0  0  0  0  0  0  0  0  0  0  0  0
    4.5807   -0.1492   -1.7162 H   0  0  0  0  0  0  0  0  0  0  0  0
    1.2660    1.0800   -0.6448 H   0  0  0  0  0  0  0  0  0  0  0  0
   -0.5781    0.1536   -1.5985 H   0  0  0  0  0  0  0  0  0  0  0  0
   -2.9318    0.0762   -2.1754 H   0  0  0  0  0  0  0  0  0  0  0  0
   -5.5022   -1.2849    1.3845 H   0  0  0  0  0  0  0  0  0  0  0  0
   -6.8310   -0.9956    0.2935 H   0  0  0  0  0  0  0  0  0  0  0  0
   -6.7028    1.4712    0.7159 H   0  0  0  0  0  0  0  0  0  0  0  0
   -6.9648    0.5488    2.2060 H   0  0  0  0  0  0  0  0  0  0  0  0
   -5.3634    1.2106    1.8402 H   0  0  0  0  0  0  0  0  0  0  0  0
   -6.5739    0.4216   -1.6038 H   0  0  0  0  0  0  0  0  0  0  0  0
   -5.0017    0.8289   -2.2326 H   0  0  0  0  0  0  0  0  0  0  0  0
   -4.6433   -1.6278   -2.8138 H   0  0  0  0  0  0  0  0  0  0  0  0
   -6.2430   -1.9884   -2.1537 H   0  0  0  0  0  0  0  0  0  0  0  0
   -6.0890   -0.9534   -3.5844 H   0  0  0  0  0  0  0  0  0  0  0  0
    0.1248   -1.2772    2.7731 H   0  0  0  0  0  0  0  0  0  0  0  0
    2.4195   -1.2331    3.5826 H   0  0  0  0  0  0  0  0  0  0  0  0
    4.6807   -0.7481    3.3461 H   0  0  0  0  0  0  0  0  0  0  0  0
    5.3276   -0.4077    1.7532 H   0  0  0  0  0  0  0  0  0  0  0  0
    4.8559    0.9329    2.8436 H   0  0  0  0  0  0  0  0  0  0  0  0
  1  2  1  0
  2  3  1  0
  3  4  1  0
  4  5  2  0
  4  6  2  0
  4  7  1  0
  7  8  2  0
  8  9  1  0
  9 10  1  0
 10 11  2  0
 11 12  1  0
 12 13  2  0
 13 14  1  0
 14 15  1  0
 15 16  1  0
 14 17  1  0
 17 18  1  0
 13 19  1  0
 19 20  2  0
  9 21  2  0
 21 22  1  0
 22 23  2  0
 23 24  1  0
 23  7  1  0
 20 10  1  0
  1 25  1  0
  1 26  1  0
  1 27  1  0
  2 28  1  0
  2 29  1  0
  3 30  1  0
  8 31  1  0
 11 32  1  0
 12 33  1  0
 15 34  1  0
 15 35  1  0
 16 36  1  0
 16 37  1  0
 16 38  1  0
 17 39  1  0
 17 40  1  0
 18 41  1  0
 18 42  1  0
 18 43  1  0
 21 44  1  0
 22 45  1  0
 24 46  1  0
 24 47  1  0
 24 48  1  0
M  END
$$$$
