
     RDKit          3D

 60 64  0  0  0  0  0  0  0  0999 V2000
   -5.2689    5.6836    0.4584 C   0  0  0  0  0  0  0  0  0  0  0  0
   -5.0212    4.4149    1.1046 N   0  0  0  0  0  0  0  0  0  0  0  0
   -3.7256    3.9397    0.9756 C   0  0  0  0  0  0  0  0  0  0  0  0
   -2.6922    4.7882    0.9135 N   0  0  0  0  0  0  0  0  0  0  0  0
   -1.4639    4.2489    0.8031 C   0  0  0  0  0  0  0  0  0  0  0  0
   -1.2286    2.8951    0.7490 C   0  0  0  0  0  0  0  0  0  0  0  0
    0.0991    2.3196    0.6187 C   0  0  0  0  0  0  0  0  0  0  0  0
    0.2402    0.9865    0.5477 C   0  0  0  0  0  0  0  0  0  0  0  0
    1.5881    0.4165    0.3789 C   0  0  0  0  0  0  0  0  0  0  0  0
    2.4027    0.2595    1.5062 C   0  0  0  0  0  0  0  0  0  0  0  0
    3.6942   -0.2655    1.3806 C   0  0  0  0  0  0  0  0  0  0  0  0
    4.2211   -0.6472    0.1326 C   0  0  0  0  0  0  0  0  0  0  0  0
    5.5931   -1.1922    0.0292 C   0  0  0  0  0  0  0  0  0  0  0  0
    6.3877   -1.0497   -1.1078 C   0  0  0  0  0  0  0  0  0  0  0  0
    7.6687   -1.5960   -1.1182 C   0  0  0  0  0  0  0  0  0  0  0  0
    8.1312   -2.2702    0.0040 C   0  0  0  0  0  0  0  0  0  0  0  0
    7.2961   -2.3710    1.1089 C   0  0  0  0  0  0  0  0  0  0  0  0
    7.7585   -3.0906    2.3405 C   0  0  0  0  0  0  0  0  0  0  0  0
    6.0500   -1.8403    1.1323 N   0  0  0  0  0  0  0  0  0  0  0  0
    3.3860   -0.4959   -0.9888 C   0  0  0  0  0  0  0  0  0  0  0  0
    2.0916    0.0303   -0.8712 C   0  0  0  0  0  0  0  0  0  0  0  0
    1.1626    0.2064   -2.3215 Cl  0  0  0  0  0  0  0  0  0  0  0  0
   -0.9603    0.0847    0.6136 C   0  0  0  0  0  0  0  0  0  0  0  0
   -0.8090   -1.1355    0.5575 O   0  0  0  0  0  0  0  0  0  0  0  0
   -2.1986    0.6936    0.7654 N   0  0  0  0  0  0  0  0  0  0  0  0
   -3.4035   -0.1374    0.7499 C   0  0  0  0  0  0  0  0  0  0  0  0
   -4.0797   -0.2104   -0.6406 C   0  0  1  0  0  0  0  0  0  0  0  0
   -3.1479   -0.6459   -1.6371 O   0  0  0  0  0  0  0  0  0  0  0  0
   -3.5486   -1.8324   -2.3112 C   0  0  0  0  0  0  0  0  0  0  0  0
   -3.9563   -2.9201   -1.3127 C   0  0  2  0  0  0  0  0  0  0  0  0
   -4.3420   -4.1800   -1.9653 N   0  0  0  0  0  0  0  0  0  0  0  0
   -5.0780   -2.3674   -0.4160 C   0  0  0  0  0  0  0  0  0  0  0  0
   -5.2919   -0.9698   -0.6166 O   0  0  0  0  0  0  0  0  0  0  0  0
   -2.3564    2.1006    0.8130 C   0  0  0  0  0  0  0  0  0  0  0  0
   -3.6013    2.6091    0.9207 N   0  0  0  0  0  0  0  0  0  0  0  0
   -5.0314    5.6450   -0.6105 H   0  0  0  0  0  0  0  0  0  0  0  0
   -6.3305    5.9335    0.5539 H   0  0  0  0  0  0  0  0  0  0  0  0
   -4.7012    6.4944    0.9277 H   0  0  0  0  0  0  0  0  0  0  0  0
   -5.6372    3.6581    0.8297 H   0  0  0  0  0  0  0  0  0  0  0  0
   -0.6549    4.9720    0.7577 H   0  0  0  0  0  0  0  0  0  0  0  0
    0.9514    2.9893    0.5621 H   0  0  0  0  0  0  0  0  0  0  0  0
    2.0397    0.5307    2.4958 H   0  0  0  0  0  0  0  0  0  0  0  0
    4.3006   -0.3813    2.2792 H   0  0  0  0  0  0  0  0  0  0  0  0
    6.0359   -0.5091   -1.9796 H   0  0  0  0  0  0  0  0  0  0  0  0
    8.3007   -1.4934   -1.9956 H   0  0  0  0  0  0  0  0  0  0  0  0
    9.1252   -2.7050    0.0146 H   0  0  0  0  0  0  0  0  0  0  0  0
    7.9747   -4.1380    2.1072 H   0  0  0  0  0  0  0  0  0  0  0  0
    6.9883   -3.0664    3.1184 H   0  0  0  0  0  0  0  0  0  0  0  0
    8.6609   -2.6166    2.7400 H   0  0  0  0  0  0  0  0  0  0  0  0
    3.7307   -0.8060   -1.9727 H   0  0  0  0  0  0  0  0  0  0  0  0
   -4.1153    0.2161    1.5060 H   0  0  0  0  0  0  0  0  0  0  0  0
   -3.1251   -1.1473    1.0709 H   0  0  0  0  0  0  0  0  0  0  0  0
   -4.3729    0.8020   -0.9364 H   0  0  0  0  0  0  0  0  0  0  0  0
   -2.7005   -2.1681   -2.9181 H   0  0  0  0  0  0  0  0  0  0  0  0
   -4.3659   -1.5901   -3.0021 H   0  0  0  0  0  0  0  0  0  0  0  0
   -3.0968   -3.1330   -0.6647 H   0  0  0  0  0  0  0  0  0  0  0  0
   -3.5608   -4.5171   -2.5286 H   0  0  0  0  0  0  0  0  0  0  0  0
   -5.1053   -4.0055   -2.6197 H   0  0  0  0  0  0  0  0  0  0  0  0
   -4.8733   -2.5674    0.6421 H   0  0  0  0  0  0  0  0  0  0  0  0
   -6.0340   -2.8564   -0.6358 H   0  0  0  0  0  0  0  0  0  0  0  0
  1  2  1  0
  2  3  1  0
  3  4  2  0
  4  5  1  0
  5  6  2  0
  6  7  1  0
  7  8  2  0
  8  9  1  0
  9 10  2  0
 10 11  1  0
 11 12  2  0
 12 13  1  0
 13 14  2  0
 14 15  1  0
 15 16  2  0
 16 17  1  0
 17 18  1  0
 17 19  2  0
 12 20  1  0
 20 21  2  0
 21 22  1  0
  8 23  1  0
 23 24  2  0
 23 25  1  0
 25 26  1  0
 26 27  1  0
 27 28  1  0
 28 29  1  0
 29 30  1  0
 30 31  1  0
 30 32  1  0
 32 33  1  0
 25 34  1  0
 34 35  2  0
 35  3  1  0
 34  6  1  0
 21  9  1  0
 33 27  1  0
 19 13  1  0
  1 36  1  0
  1 37  1  0
  1 38  1  0
  2 39  1  0
  5 40  1  0
  7 41  1  0
 10 42  1  0
 11 43  1  0
 14 44  1  0
 15 45  1  0
 16 46  1  0
 18 47  1  0
 18 48  1  0
 18 49  1  0
 20 50  1  0
 26 51  1  0
 26 52  1  0
 27 53  1  6
 29 54  1  0
 29 55  1  0
 30 56  1  1
 31 57  1  0
 31 58  1  0
 32 59  1  0
 32 60  1  0
M  END
$$$$
