
     RDKit          3D

 46 49  0  0  0  0  0  0  0  0999 V2000
   -0.3834    4.4622    1.7892 C   0  0  0  0  0  0  0  0  0  0  0  0
   -1.0998    3.6320    0.7673 C   0  0  0  0  0  0  0  0  0  0  0  0
   -2.0749    4.2041   -0.0433 C   0  0  0  0  0  0  0  0  0  0  0  0
   -2.7148    3.4059   -0.9861 C   0  0  0  0  0  0  0  0  0  0  0  0
   -2.3640    2.0642   -1.0932 C   0  0  0  0  0  0  0  0  0  0  0  0
   -1.3781    1.5703   -0.2484 C   0  0  0  0  0  0  0  0  0  0  0  0
   -0.9568    0.1817   -0.2876 C   0  0  0  0  0  0  0  0  0  0  0  0
   -1.8569   -0.8562   -0.1966 N   0  0  0  0  0  0  0  0  0  0  0  0
   -1.1742   -2.0477   -0.2031 C   0  0  0  0  0  0  0  0  0  0  0  0
   -1.8597   -3.3925   -0.1049 C   0  0  0  0  0  0  0  0  0  0  0  0
   -2.8405   -3.5716   -1.2769 C   0  0  0  0  0  0  0  0  0  0  0  0
   -0.8161   -4.5246   -0.1633 C   0  0  0  0  0  0  0  0  0  0  0  0
   -2.6221   -3.4982    1.2273 C   0  0  0  0  0  0  0  0  0  0  0  0
    0.1189   -1.8224   -0.2902 N   0  0  0  0  0  0  0  0  0  0  0  0
    0.2762   -0.4502   -0.3354 C   0  0  0  0  0  0  0  0  0  0  0  0
    1.5986    0.1558   -0.4158 C   0  0  0  0  0  0  0  0  0  0  0  0
    1.8353    1.3522   -1.1301 C   0  0  0  0  0  0  0  0  0  0  0  0
    3.1176    1.9102   -1.2054 C   0  0  0  0  0  0  0  0  0  0  0  0
    4.1423    1.2481   -0.5676 C   0  0  0  0  0  0  0  0  0  0  0  0
    3.9283    0.0771    0.1192 C   0  0  0  0  0  0  0  0  0  0  0  0
    2.6763   -0.4940    0.2093 C   0  0  0  0  0  0  0  0  0  0  0  0
    5.0703   -0.4167    0.6696 O   0  0  0  0  0  0  0  0  0  0  0  0
    6.0249    0.5792    0.2511 C   0  0  0  0  0  0  0  0  0  0  0  0
    5.4442    1.6395   -0.5364 O   0  0  0  0  0  0  0  0  0  0  0  0
   -0.7517    2.3277    0.6763 N   0  0  0  0  0  0  0  0  0  0  0  0
    0.3477    3.8597    2.3380 H   0  0  0  0  0  0  0  0  0  0  0  0
   -1.0968    4.8729    2.5103 H   0  0  0  0  0  0  0  0  0  0  0  0
    0.1499    5.2842    1.3017 H   0  0  0  0  0  0  0  0  0  0  0  0
   -2.3310    5.2544    0.0529 H   0  0  0  0  0  0  0  0  0  0  0  0
   -3.4754    3.8288   -1.6362 H   0  0  0  0  0  0  0  0  0  0  0  0
   -2.8389    1.4319   -1.8350 H   0  0  0  0  0  0  0  0  0  0  0  0
   -2.8557   -0.7558   -0.0921 H   0  0  0  0  0  0  0  0  0  0  0  0
   -3.3205   -4.5565   -1.2440 H   0  0  0  0  0  0  0  0  0  0  0  0
   -3.6365   -2.8181   -1.2580 H   0  0  0  0  0  0  0  0  0  0  0  0
   -2.3273   -3.4815   -2.2417 H   0  0  0  0  0  0  0  0  0  0  0  0
   -1.2940   -5.5086   -0.0950 H   0  0  0  0  0  0  0  0  0  0  0  0
   -0.0963   -4.4480    0.6604 H   0  0  0  0  0  0  0  0  0  0  0  0
   -0.2476   -4.4963   -1.1005 H   0  0  0  0  0  0  0  0  0  0  0  0
   -1.9500   -3.3566    2.0819 H   0  0  0  0  0  0  0  0  0  0  0  0
   -3.4116   -2.7415    1.3032 H   0  0  0  0  0  0  0  0  0  0  0  0
   -3.0972   -4.4801    1.3343 H   0  0  0  0  0  0  0  0  0  0  0  0
    1.0210    1.8594   -1.6401 H   0  0  0  0  0  0  0  0  0  0  0  0
    3.2975    2.8302   -1.7487 H   0  0  0  0  0  0  0  0  0  0  0  0
    2.5305   -1.4223    0.7523 H   0  0  0  0  0  0  0  0  0  0  0  0
    6.4872    1.0183    1.1427 H   0  0  0  0  0  0  0  0  0  0  0  0
    6.8050    0.0892   -0.3430 H   0  0  0  0  0  0  0  0  0  0  0  0
  1  2  1  0
  2  3  2  0
  3  4  1  0
  4  5  2  0
  5  6  1  0
  6  7  1  0
  7  8  1  0
  8  9  1  0
  9 10  1  0
 10 11  1  0
 10 12  1  0
 10 13  1  0
  9 14  2  0
 14 15  1  0
 15 16  1  0
 16 17  2  0
 17 18  1  0
 18 19  2  0
 19 20  1  0
 20 21  2  0
 20 22  1  0
 22 23  1  0
 23 24  1  0
  6 25  2  0
 25  2  1  0
 15  7  2  0
 21 16  1  0
 24 19  1  0
  1 26  1  0
  1 27  1  0
  1 28  1  0
  3 29  1  0
  4 30  1  0
  5 31  1  0
  8 32  1  0
 11 33  1  0
 11 34  1  0
 11 35  1  0
 12 36  1  0
 12 37  1  0
 12 38  1  0
 13 39  1  0
 13 40  1  0
 13 41  1  0
 17 42  1  0
 18 43  1  0
 21 44  1  0
 23 45  1  0
 23 46  1  0
M  END
$$$$
