
     RDKit          3D

 54 57  0  0  0  0  0  0  0  0999 V2000
   -1.9255    2.6384   -2.9004 C   0  0  0  0  0  0  0  0  0  0  0  0
   -2.7186    1.7379   -2.0135 C   0  0  0  0  0  0  0  0  0  0  0  0
   -4.0905    1.8493   -1.9491 C   0  0  0  0  0  0  0  0  0  0  0  0
   -4.8809    1.0727   -1.1854 N   0  0  0  0  0  0  0  0  0  0  0  0
   -4.2850    0.1342   -0.4419 C   0  0  0  0  0  0  0  0  0  0  0  0
   -5.0069   -0.7260    0.3762 N   0  0  0  0  0  0  0  0  0  0  0  0
   -6.3655   -0.8946    0.6799 C   0  0  0  0  0  0  0  0  0  0  0  0
   -7.3794   -0.1090    0.1142 C   0  0  0  0  0  0  0  0  0  0  0  0
   -8.7235   -0.3138    0.4442 C   0  0  0  0  0  0  0  0  0  0  0  0
   -9.0678   -1.3109    1.3457 C   0  0  0  0  0  0  0  0  0  0  0  0
  -10.3556   -1.5028    1.6580 F   0  0  0  0  0  0  0  0  0  0  0  0
   -8.0972   -2.1107    1.9266 C   0  0  0  0  0  0  0  0  0  0  0  0
   -6.7578   -1.9013    1.5932 C   0  0  0  0  0  0  0  0  0  0  0  0
   -5.5720   -2.9226    2.3396 Cl  0  0  0  0  0  0  0  0  0  0  0  0
   -2.9599   -0.0500   -0.4229 N   0  0  0  0  0  0  0  0  0  0  0  0
   -2.1929    0.7576   -1.1921 C   0  0  0  0  0  0  0  0  0  0  0  0
   -0.7616    0.4993   -1.0768 C   0  0  0  0  0  0  0  0  0  0  0  0
   -0.2276   -0.7739   -1.0306 C   0  0  0  0  0  0  0  0  0  0  0  0
    1.1324   -0.6711   -0.9154 N   0  0  0  0  0  0  0  0  0  0  0  0
    1.5058    0.6532   -0.8441 C   0  0  0  0  0  0  0  0  0  0  0  0
    2.8565    1.1544   -0.7132 C   0  0  0  0  0  0  0  0  0  0  0  0
    3.1755    2.3061   -0.9906 O   0  0  0  0  0  0  0  0  0  0  0  0
    3.7653    0.2413   -0.2188 N   0  0  0  0  0  0  0  0  0  0  0  0
    5.1219    0.6676    0.1086 C   0  0  2  0  0  0  0  0  0  0  0  0
    5.9745    0.9884   -1.1459 C   0  0  0  0  0  0  0  0  0  0  0  0
    7.0730    1.8427   -0.8199 O   0  0  0  0  0  0  0  0  0  0  0  0
    5.7841   -0.3875    0.9846 C   0  0  0  0  0  0  0  0  0  0  0  0
    6.2245   -0.0565    2.2761 C   0  0  0  0  0  0  0  0  0  0  0  0
    6.8193   -1.0186    3.0961 C   0  0  0  0  0  0  0  0  0  0  0  0
    6.9800   -2.3254    2.6380 C   0  0  0  0  0  0  0  0  0  0  0  0
    6.5468   -2.6651    1.3593 C   0  0  0  0  0  0  0  0  0  0  0  0
    6.7365   -4.2784    0.7920 Cl  0  0  0  0  0  0  0  0  0  0  0  0
    5.9529   -1.7089    0.5348 C   0  0  0  0  0  0  0  0  0  0  0  0
    0.3376    1.3927   -0.9573 C   0  0  0  0  0  0  0  0  0  0  0  0
   -1.1500    2.0829   -3.4372 H   0  0  0  0  0  0  0  0  0  0  0  0
   -2.5618    3.1009   -3.6634 H   0  0  0  0  0  0  0  0  0  0  0  0
   -1.4662    3.4421   -2.3172 H   0  0  0  0  0  0  0  0  0  0  0  0
   -4.6256    2.5921   -2.5358 H   0  0  0  0  0  0  0  0  0  0  0  0
   -4.3666   -1.3457    0.8574 H   0  0  0  0  0  0  0  0  0  0  0  0
   -7.1464    0.6797   -0.5951 H   0  0  0  0  0  0  0  0  0  0  0  0
   -9.4991    0.3022   -0.0006 H   0  0  0  0  0  0  0  0  0  0  0  0
   -8.3903   -2.8842    2.6282 H   0  0  0  0  0  0  0  0  0  0  0  0
   -0.7075   -1.7434   -1.0792 H   0  0  0  0  0  0  0  0  0  0  0  0
    1.7701   -1.4559   -0.9062 H   0  0  0  0  0  0  0  0  0  0  0  0
    3.3853   -0.5043    0.3467 H   0  0  0  0  0  0  0  0  0  0  0  0
    5.0252    1.5905    0.6967 H   0  0  0  0  0  0  0  0  0  0  0  0
    6.3789    0.0818   -1.6078 H   0  0  0  0  0  0  0  0  0  0  0  0
    5.3902    1.4990   -1.9179 H   0  0  0  0  0  0  0  0  0  0  0  0
    6.7008    2.7291   -0.6619 H   0  0  0  0  0  0  0  0  0  0  0  0
    6.1142    0.9589    2.6534 H   0  0  0  0  0  0  0  0  0  0  0  0
    7.1610   -0.7466    4.0921 H   0  0  0  0  0  0  0  0  0  0  0  0
    7.4449   -3.0694    3.2793 H   0  0  0  0  0  0  0  0  0  0  0  0
    5.6255   -1.9936   -0.4625 H   0  0  0  0  0  0  0  0  0  0  0  0
    0.2991    2.4751   -0.9325 H   0  0  0  0  0  0  0  0  0  0  0  0
  1  2  1  0
  2  3  2  0
  3  4  1  0
  4  5  2  0
  5  6  1  0
  6  7  1  0
  7  8  2  0
  8  9  1  0
  9 10  2  0
 10 11  1  0
 10 12  1  0
 12 13  2  0
 13 14  1  0
  5 15  1  0
 15 16  2  0
 16 17  1  0
 17 18  2  0
 18 19  1  0
 19 20  1  0
 20 21  1  0
 21 22  2  0
 21 23  1  0
 23 24  1  0
 24 25  1  0
 25 26  1  0
 24 27  1  0
 27 28  2  0
 28 29  1  0
 29 30  2  0
 30 31  1  0
 31 32  1  0
 31 33  2  0
 20 34  2  0
 16  2  1  0
 34 17  1  0
 13  7  1  0
 33 27  1  0
  1 35  1  0
  1 36  1  0
  1 37  1  0
  3 38  1  0
  6 39  1  0
  8 40  1  0
  9 41  1  0
 12 42  1  0
 18 43  1  0
 19 44  1  0
 23 45  1  0
 24 46  1  1
 25 47  1  0
 25 48  1  0
 26 49  1  0
 28 50  1  0
 29 51  1  0
 30 52  1  0
 33 53  1  0
 34 54  1  0
M  END
$$$$
