
     RDKit          3D

 49 52  0  0  0  0  0  0  0  0999 V2000
   10.6361   -2.2950    0.4830 C   0  0  0  0  0  0  0  0  0  0  0  0
    9.4698   -2.0324    1.2523 O   0  0  0  0  0  0  0  0  0  0  0  0
    8.3291   -1.7290    0.5620 C   0  0  0  0  0  0  0  0  0  0  0  0
    8.2000   -1.6666   -0.8263 C   0  0  0  0  0  0  0  0  0  0  0  0
    6.9656   -1.3450   -1.4048 C   0  0  0  0  0  0  0  0  0  0  0  0
    5.8503   -1.0791   -0.5993 C   0  0  0  0  0  0  0  0  0  0  0  0
    4.5619   -0.7493   -1.2661 C   0  0  0  0  0  0  0  0  0  0  0  0
    4.3894   -0.8174   -2.4712 O   0  0  0  0  0  0  0  0  0  0  0  0
    3.6402   -0.3634   -0.3547 O   0  0  0  0  0  0  0  0  0  0  0  0
    2.3659   -0.0482   -0.9210 C   0  0  0  0  0  0  0  0  0  0  0  0
    1.4891    0.4413    0.1501 C   0  0  0  0  0  0  0  0  0  0  0  0
    0.7746    0.8339    1.0339 C   0  0  0  0  0  0  0  0  0  0  0  0
   -0.0770    1.3313    2.1212 C   0  0  0  0  0  0  0  0  0  0  0  0
   -1.6064    0.3766    2.3018 S   0  0  0  0  0  0  0  0  0  0  0  0
   -2.5683    1.0451    1.0217 C   0  0  0  0  0  0  0  0  0  0  0  0
   -2.2082    2.0303    0.2258 N   0  0  0  0  0  0  0  0  0  0  0  0
   -3.2627    2.2502   -0.6365 N   0  0  0  0  0  0  0  0  0  0  0  0
   -4.2187    1.4188   -0.2737 C   0  0  0  0  0  0  0  0  0  0  0  0
   -5.5278    1.1824   -0.8728 C   0  0  0  0  0  0  0  0  0  0  0  0
   -5.5941    1.2132   -2.2788 C   0  0  0  0  0  0  0  0  0  0  0  0
   -6.7911    0.9789   -2.9448 C   0  0  0  0  0  0  0  0  0  0  0  0
   -7.9450    0.7172   -2.2140 C   0  0  0  0  0  0  0  0  0  0  0  0
   -7.9252    0.7018   -0.8115 C   0  0  0  0  0  0  0  0  0  0  0  0
   -9.1161    0.4621   -0.1035 C   0  0  0  0  0  0  0  0  0  0  0  0
   -9.1411    0.4679    1.2894 C   0  0  0  0  0  0  0  0  0  0  0  0
   -7.9733    0.7159    1.9942 C   0  0  0  0  0  0  0  0  0  0  0  0
   -6.7800    0.9499    1.3050 C   0  0  0  0  0  0  0  0  0  0  0  0
   -6.7127    0.9415   -0.1124 C   0  0  0  0  0  0  0  0  0  0  0  0
   -3.8360    0.6015    0.7546 O   0  0  0  0  0  0  0  0  0  0  0  0
    5.9808   -1.1443    0.7926 C   0  0  0  0  0  0  0  0  0  0  0  0
    7.2152   -1.4685    1.3640 C   0  0  0  0  0  0  0  0  0  0  0  0
   11.4535   -2.5074    1.1779 H   0  0  0  0  0  0  0  0  0  0  0  0
   10.4996   -3.1769   -0.1505 H   0  0  0  0  0  0  0  0  0  0  0  0
   10.9231   -1.4212   -0.1114 H   0  0  0  0  0  0  0  0  0  0  0  0
    9.0357   -1.8631   -1.4887 H   0  0  0  0  0  0  0  0  0  0  0  0
    6.8799   -1.3034   -2.4906 H   0  0  0  0  0  0  0  0  0  0  0  0
    2.4760    0.7193   -1.6923 H   0  0  0  0  0  0  0  0  0  0  0  0
    1.9356   -0.9499   -1.3657 H   0  0  0  0  0  0  0  0  0  0  0  0
    0.4698    1.2431    3.0660 H   0  0  0  0  0  0  0  0  0  0  0  0
   -0.3016    2.3959    1.9934 H   0  0  0  0  0  0  0  0  0  0  0  0
   -4.6987    1.4162   -2.8632 H   0  0  0  0  0  0  0  0  0  0  0  0
   -6.8255    1.0000   -4.0311 H   0  0  0  0  0  0  0  0  0  0  0  0
   -8.8742    0.5383   -2.7530 H   0  0  0  0  0  0  0  0  0  0  0  0
  -10.0458    0.2773   -0.6375 H   0  0  0  0  0  0  0  0  0  0  0  0
  -10.0722    0.2929    1.8208 H   0  0  0  0  0  0  0  0  0  0  0  0
   -7.9853    0.7334    3.0812 H   0  0  0  0  0  0  0  0  0  0  0  0
   -5.8977    1.1565    1.9048 H   0  0  0  0  0  0  0  0  0  0  0  0
    5.1341   -0.9518    1.4471 H   0  0  0  0  0  0  0  0  0  0  0  0
    7.3094   -1.5209    2.4464 H   0  0  0  0  0  0  0  0  0  0  0  0
  1  2  1  0
  2  3  1  0
  3  4  2  0
  4  5  1  0
  5  6  2  0
  6  7  1  0
  7  8  2  0
  7  9  1  0
  9 10  1  0
 10 11  1  0
 11 12  3  0
 12 13  1  0
 13 14  1  0
 14 15  1  0
 15 16  2  0
 16 17  1  0
 17 18  2  0
 18 19  1  0
 19 20  2  0
 20 21  1  0
 21 22  2  0
 22 23  1  0
 23 24  2  0
 24 25  1  0
 25 26  2  0
 26 27  1  0
 27 28  2  0
 18 29  1  0
  6 30  1  0
 30 31  2  0
 31  3  1  0
 29 15  1  0
 28 19  1  0
 28 23  1  0
  1 32  1  0
  1 33  1  0
  1 34  1  0
  4 35  1  0
  5 36  1  0
 10 37  1  0
 10 38  1  0
 13 39  1  0
 13 40  1  0
 20 41  1  0
 21 42  1  0
 22 43  1  0
 24 44  1  0
 25 45  1  0
 26 46  1  0
 27 47  1  0
 30 48  1  0
 31 49  1  0
M  END
$$$$
