
     RDKit          3D

 51 55  0  0  0  0  0  0  0  0999 V2000
    6.0900   -0.9716    0.9578 O   0  0  0  0  0  0  0  0  0  0  0  0
    5.0059   -0.4097    0.8674 C   0  0  0  0  0  0  0  0  0  0  0  0
    3.7585   -0.9851    1.0434 N   0  0  0  0  0  0  0  0  0  0  0  0
    3.5314   -2.3224    1.3495 C   0  0  0  0  0  0  0  0  0  0  0  0
    4.4815   -3.3106    1.4686 C   0  0  0  0  0  0  0  0  0  0  0  0
    3.8293   -4.4329    1.8757 N   0  0  0  0  0  0  0  0  0  0  0  0
    2.5097   -4.2656    2.0049 N   0  0  0  0  0  0  0  0  0  0  0  0
    2.3000   -2.9927    1.6379 C   0  0  0  0  0  0  0  0  0  0  0  0
    0.8293   -2.4245    1.5504 C   0  0  0  0  0  0  0  0  0  0  0  0
   -0.2482   -3.0642    1.9668 N   0  0  0  0  0  0  0  0  0  0  0  0
   -1.3066   -2.2331    1.7065 C   0  0  0  0  0  0  0  0  0  0  0  0
   -2.6727   -2.4113    1.9581 C   0  0  0  0  0  0  0  0  0  0  0  0
   -3.5654   -1.3985    1.5784 C   0  0  0  0  0  0  0  0  0  0  0  0
   -3.1153   -0.2254    0.9484 C   0  0  0  0  0  0  0  0  0  0  0  0
   -4.1086    0.8578    0.5665 C   0  0  0  0  0  0  0  0  0  0  0  0
   -3.9585    1.3219   -0.8221 N   0  0  0  0  0  0  0  0  0  0  0  0
   -4.7051    2.5835   -1.0220 C   0  0  0  0  0  0  0  0  0  0  0  0
   -5.0439    2.8177   -2.5005 C   0  0  0  0  0  0  0  0  0  0  0  0
   -5.9299    1.8196   -3.0250 O   0  0  0  0  0  0  0  0  0  0  0  0
   -5.7870    0.5454   -2.3818 C   0  0  0  0  0  0  0  0  0  0  0  0
   -4.3783    0.3062   -1.8152 C   0  0  0  0  0  0  0  0  0  0  0  0
   -1.7407   -0.0391    0.7035 C   0  0  0  0  0  0  0  0  0  0  0  0
   -0.8772   -1.0635    1.0965 C   0  0  0  0  0  0  0  0  0  0  0  0
    0.4804   -1.2196    0.9963 N   0  0  0  0  0  0  0  0  0  0  0  0
    4.8819    0.9431    0.5747 N   0  0  0  0  0  0  0  0  0  0  0  0
    6.0371    1.7554    0.3286 C   0  0  0  0  0  0  0  0  0  0  0  0
    6.3964    2.1752   -1.0696 C   0  0  0  0  0  0  0  0  0  0  0  0
    5.8849    3.1920   -0.0918 C   0  0  0  0  0  0  0  0  0  0  0  0
    3.0131   -0.3410    1.2403 H   0  0  0  0  0  0  0  0  0  0  0  0
    5.5550   -3.3125    1.3422 H   0  0  0  0  0  0  0  0  0  0  0  0
    4.2218   -5.3443    2.0886 H   0  0  0  0  0  0  0  0  0  0  0  0
   -3.0216   -3.3198    2.4364 H   0  0  0  0  0  0  0  0  0  0  0  0
   -4.6254   -1.5417    1.7785 H   0  0  0  0  0  0  0  0  0  0  0  0
   -5.1366    0.5156    0.7448 H   0  0  0  0  0  0  0  0  0  0  0  0
   -3.9307    1.6924    1.2582 H   0  0  0  0  0  0  0  0  0  0  0  0
   -4.1021    3.4170   -0.6454 H   0  0  0  0  0  0  0  0  0  0  0  0
   -5.6463    2.5653   -0.4565 H   0  0  0  0  0  0  0  0  0  0  0  0
   -4.1360    2.8302   -3.1149 H   0  0  0  0  0  0  0  0  0  0  0  0
   -5.5341    3.7884   -2.6256 H   0  0  0  0  0  0  0  0  0  0  0  0
   -6.5401    0.4781   -1.5880 H   0  0  0  0  0  0  0  0  0  0  0  0
   -6.0284   -0.2228   -3.1235 H   0  0  0  0  0  0  0  0  0  0  0  0
   -4.3069   -0.7146   -1.4238 H   0  0  0  0  0  0  0  0  0  0  0  0
   -3.6625    0.3647   -2.6450 H   0  0  0  0  0  0  0  0  0  0  0  0
   -1.3779    0.8621    0.2191 H   0  0  0  0  0  0  0  0  0  0  0  0
    1.0989   -0.5906    0.5153 H   0  0  0  0  0  0  0  0  0  0  0  0
    4.0358    1.2142    0.0954 H   0  0  0  0  0  0  0  0  0  0  0  0
    6.8639    1.5377    1.0032 H   0  0  0  0  0  0  0  0  0  0  0  0
    5.7499    1.8737   -1.8845 H   0  0  0  0  0  0  0  0  0  0  0  0
    7.4492    2.1979   -1.3286 H   0  0  0  0  0  0  0  0  0  0  0  0
    6.5919    3.9103    0.3088 H   0  0  0  0  0  0  0  0  0  0  0  0
    4.8904    3.5915   -0.2465 H   0  0  0  0  0  0  0  0  0  0  0  0
  1  2  2  0
  2  3  1  0
  3  4  1  0
  4  5  2  0
  5  6  1  0
  6  7  1  0
  7  8  2  0
  8  9  1  0
  9 10  2  0
 10 11  1  0
 11 12  2  0
 12 13  1  0
 13 14  2  0
 14 15  1  0
 15 16  1  0
 16 17  1  0
 17 18  1  0
 18 19  1  0
 19 20  1  0
 20 21  1  0
 14 22  1  0
 22 23  2  0
 23 24  1  0
  2 25  1  0
 25 26  1  0
 26 27  1  0
 27 28  1  0
  8  4  1  0
 24  9  1  0
 28 26  1  0
 23 11  1  0
 21 16  1  0
  3 29  1  0
  5 30  1  0
  6 31  1  0
 12 32  1  0
 13 33  1  0
 15 34  1  0
 15 35  1  0
 17 36  1  0
 17 37  1  0
 18 38  1  0
 18 39  1  0
 20 40  1  0
 20 41  1  0
 21 42  1  0
 21 43  1  0
 22 44  1  0
 24 45  1  0
 25 46  1  0
 26 47  1  0
 27 48  1  0
 27 49  1  0
 28 50  1  0
 28 51  1  0
M  END
$$$$
