
     RDKit          3D

 52 54  0  0  0  0  0  0  0  0999 V2000
   -3.4988   -2.5878   -2.5396 C   0  0  0  0  0  0  0  0  0  0  0  0
   -3.9127   -2.9706   -1.1209 C   0  0  0  0  0  0  0  0  0  0  0  0
   -3.8036   -1.8332   -0.0845 C   0  0  1  0  0  0  0  0  0  0  0  0
   -2.3922   -1.4494    0.0566 N   0  0  0  0  0  0  0  0  0  0  0  0
   -1.6863   -1.5538    1.1630 C   0  0  0  0  0  0  0  0  0  0  0  0
   -0.4476   -1.1400    1.5988 C   0  0  0  0  0  0  0  0  0  0  0  0
    0.5386   -0.4714    1.0438 N   0  0  0  0  0  0  0  0  0  0  0  0
    1.7847    0.0205    1.5007 C   0  0  0  0  0  0  0  0  0  0  0  0
    2.2624   -0.0873    2.8064 C   0  0  0  0  0  0  0  0  0  0  0  0
    3.5050    0.4506    3.1657 C   0  0  0  0  0  0  0  0  0  0  0  0
    4.3028    1.0922    2.2178 C   0  0  0  0  0  0  0  0  0  0  0  0
    3.8650    1.1869    0.8940 C   0  0  0  0  0  0  0  0  0  0  0  0
    4.6736    1.8762   -0.1422 C   0  0  0  0  0  0  0  0  0  0  0  0
    4.0490    2.5305   -0.9768 O   0  0  0  0  0  0  0  0  0  0  0  0
    6.0673    1.7528   -0.1549 N   0  0  0  0  0  0  0  0  0  0  0  0
    6.7731    0.5619    0.3042 C   0  0  0  0  0  0  0  0  0  0  0  0
    6.8075    2.6066   -1.0667 C   0  0  0  0  0  0  0  0  0  0  0  0
    2.5990    0.6833    0.5574 C   0  0  0  0  0  0  0  0  0  0  0  0
    2.0776    0.8159   -0.7159 O   0  0  0  0  0  0  0  0  0  0  0  0
   -0.6585   -1.7587    2.9285 C   0  0  0  0  0  0  0  0  0  0  0  0
   -0.1065   -1.9142    3.9936 O   0  0  0  0  0  0  0  0  0  0  0  0
   -1.9829   -2.2138    2.4549 C   0  0  0  0  0  0  0  0  0  0  0  0
   -2.8633   -2.8557    2.9757 O   0  0  0  0  0  0  0  0  0  0  0  0
   -4.7097   -0.6877   -0.4337 C   0  0  0  0  0  0  0  0  0  0  0  0
   -6.0729   -0.5035   -0.3441 C   0  0  0  0  0  0  0  0  0  0  0  0
   -6.3369    0.7967   -0.8411 C   0  0  0  0  0  0  0  0  0  0  0  0
   -5.1178    1.3338   -1.1953 C   0  0  0  0  0  0  0  0  0  0  0  0
   -4.7035    2.6371   -1.7455 C   0  0  0  0  0  0  0  0  0  0  0  0
   -4.1249    0.4335   -0.9576 O   0  0  0  0  0  0  0  0  0  0  0  0
   -3.5466   -3.4662   -3.1905 H   0  0  0  0  0  0  0  0  0  0  0  0
   -4.1676   -1.8314   -2.9578 H   0  0  0  0  0  0  0  0  0  0  0  0
   -2.4770   -2.2033   -2.5732 H   0  0  0  0  0  0  0  0  0  0  0  0
   -3.2907   -3.8131   -0.7965 H   0  0  0  0  0  0  0  0  0  0  0  0
   -4.9453   -3.3388   -1.1506 H   0  0  0  0  0  0  0  0  0  0  0  0
   -4.1741   -2.2376    0.8656 H   0  0  0  0  0  0  0  0  0  0  0  0
   -2.1211   -0.7881   -0.6748 H   0  0  0  0  0  0  0  0  0  0  0  0
    0.4532   -0.2029    0.0566 H   0  0  0  0  0  0  0  0  0  0  0  0
    1.6854   -0.5652    3.5865 H   0  0  0  0  0  0  0  0  0  0  0  0
    3.8429    0.3772    4.1962 H   0  0  0  0  0  0  0  0  0  0  0  0
    5.2556    1.5195    2.5227 H   0  0  0  0  0  0  0  0  0  0  0  0
    7.5480    0.8616    1.0156 H   0  0  0  0  0  0  0  0  0  0  0  0
    6.1086   -0.1706    0.7645 H   0  0  0  0  0  0  0  0  0  0  0  0
    7.2457    0.0799   -0.5579 H   0  0  0  0  0  0  0  0  0  0  0  0
    6.9391    2.0808   -2.0160 H   0  0  0  0  0  0  0  0  0  0  0  0
    6.2722    3.5460   -1.2467 H   0  0  0  0  0  0  0  0  0  0  0  0
    7.7834    2.8397   -0.6324 H   0  0  0  0  0  0  0  0  0  0  0  0
    2.5647    1.5598   -1.1424 H   0  0  0  0  0  0  0  0  0  0  0  0
   -6.7874   -1.2196    0.0334 H   0  0  0  0  0  0  0  0  0  0  0  0
   -7.2963    1.2879   -0.9207 H   0  0  0  0  0  0  0  0  0  0  0  0
   -4.1559    3.2116   -0.9924 H   0  0  0  0  0  0  0  0  0  0  0  0
   -4.0525    2.4977   -2.6152 H   0  0  0  0  0  0  0  0  0  0  0  0
   -5.5719    3.2237   -2.0618 H   0  0  0  0  0  0  0  0  0  0  0  0
  1  2  1  0
  2  3  1  0
  3  4  1  0
  4  5  1  0
  5  6  2  0
  6  7  1  0
  7  8  1  0
  8  9  2  0
  9 10  1  0
 10 11  2  0
 11 12  1  0
 12 13  1  0
 13 14  2  0
 13 15  1  0
 15 16  1  0
 15 17  1  0
 12 18  2  0
 18 19  1  0
  6 20  1  0
 20 21  2  0
 20 22  1  0
 22 23  2  0
  3 24  1  0
 24 25  2  0
 25 26  1  0
 26 27  2  0
 27 28  1  0
 27 29  1  0
 22  5  1  0
 29 24  1  0
 18  8  1  0
  1 30  1  0
  1 31  1  0
  1 32  1  0
  2 33  1  0
  2 34  1  0
  3 35  1  1
  4 36  1  0
  7 37  1  0
  9 38  1  0
 10 39  1  0
 11 40  1  0
 16 41  1  0
 16 42  1  0
 16 43  1  0
 17 44  1  0
 17 45  1  0
 17 46  1  0
 19 47  1  0
 25 48  1  0
 26 49  1  0
 28 50  1  0
 28 51  1  0
 28 52  1  0
M  END
$$$$
