
     RDKit          3D

 55 58  0  0  0  0  0  0  0  0999 V2000
   -2.8857    0.3235   -2.6968 C   0  0  0  0  0  0  0  0  0  0  0  0
   -3.7811   -0.1496   -1.5419 C   0  0  0  0  0  0  0  0  0  0  0  0
   -4.0024   -1.6655   -1.6550 C   0  0  0  0  0  0  0  0  0  0  0  0
   -5.0509    0.4790   -1.7847 O   0  0  0  0  0  0  0  0  0  0  0  0
   -5.8225    0.6673   -0.6681 C   0  0  0  0  0  0  0  0  0  0  0  0
   -7.1342    0.8109   -0.9240 N   0  0  0  0  0  0  0  0  0  0  0  0
   -7.9050    1.0129    0.1512 C   0  0  0  0  0  0  0  0  0  0  0  0
   -7.4901    1.0865    1.4239 N   0  0  0  0  0  0  0  0  0  0  0  0
   -6.1717    0.9442    1.6279 C   0  0  0  0  0  0  0  0  0  0  0  0
   -5.7013    1.0363    2.9605 N   0  0  0  0  0  0  0  0  0  0  0  0
   -5.2606    0.7269    0.5950 C   0  0  0  0  0  0  0  0  0  0  0  0
   -3.8778    0.6066    0.8463 N   0  0  0  0  0  0  0  0  0  0  0  0
   -3.1583    0.2113   -0.1622 C   0  0  0  0  0  0  0  0  0  0  0  0
   -1.6948    0.1030    0.0348 C   0  0  0  0  0  0  0  0  0  0  0  0
   -1.0658   -1.1376    0.0993 C   0  0  0  0  0  0  0  0  0  0  0  0
    0.3187   -1.2000    0.2761 C   0  0  0  0  0  0  0  0  0  0  0  0
    1.0806   -0.0288    0.4090 C   0  0  0  0  0  0  0  0  0  0  0  0
    2.5896   -0.0721    0.5847 C   0  0  1  0  0  0  0  0  0  0  0  0
    3.0503   -1.0342    1.6882 C   0  0  0  0  0  0  0  0  0  0  0  0
    4.5570   -0.9188    1.9428 C   0  0  0  0  0  0  0  0  0  0  0  0
    5.4077   -0.7234    0.6679 C   0  0  2  0  0  0  0  0  0  0  0  0
    5.9574    0.7150    0.5892 C   0  0  0  0  0  0  0  0  0  0  0  0
    7.0180    0.8852   -0.4691 C   0  0  0  0  0  0  0  0  0  0  0  0
    7.6732    0.0132   -1.0138 O   0  0  0  0  0  0  0  0  0  0  0  0
    7.2262    2.1838   -0.7650 O   0  0  0  0  0  0  0  0  0  0  0  0
    4.6181   -1.1262   -0.5869 C   0  0  0  0  0  0  0  0  0  0  0  0
    3.2959   -0.3714   -0.7514 C   0  0  0  0  0  0  0  0  0  0  0  0
    0.4243    1.2107    0.3575 C   0  0  0  0  0  0  0  0  0  0  0  0
   -0.9586    1.2785    0.1800 C   0  0  0  0  0  0  0  0  0  0  0  0
   -2.7002    1.4036   -2.6247 H   0  0  0  0  0  0  0  0  0  0  0  0
   -1.9182   -0.1906   -2.7150 H   0  0  0  0  0  0  0  0  0  0  0  0
   -3.3718    0.1546   -3.6651 H   0  0  0  0  0  0  0  0  0  0  0  0
   -4.6057   -1.9059   -2.5376 H   0  0  0  0  0  0  0  0  0  0  0  0
   -4.5508   -2.0507   -0.7848 H   0  0  0  0  0  0  0  0  0  0  0  0
   -3.0608   -2.2181   -1.7297 H   0  0  0  0  0  0  0  0  0  0  0  0
   -8.9695    1.1289   -0.0230 H   0  0  0  0  0  0  0  0  0  0  0  0
   -5.0193    1.7896    2.9796 H   0  0  0  0  0  0  0  0  0  0  0  0
   -5.1538    0.1969    3.1369 H   0  0  0  0  0  0  0  0  0  0  0  0
   -1.6318   -2.0598    0.0282 H   0  0  0  0  0  0  0  0  0  0  0  0
    0.7971   -2.1750    0.3091 H   0  0  0  0  0  0  0  0  0  0  0  0
    2.9055    0.9306    0.9067 H   0  0  0  0  0  0  0  0  0  0  0  0
    2.8185   -2.0721    1.4149 H   0  0  0  0  0  0  0  0  0  0  0  0
    2.5124   -0.8372    2.6240 H   0  0  0  0  0  0  0  0  0  0  0  0
    4.7393   -0.1042    2.6548 H   0  0  0  0  0  0  0  0  0  0  0  0
    4.8842   -1.8341    2.4540 H   0  0  0  0  0  0  0  0  0  0  0  0
    6.2719   -1.3982    0.7465 H   0  0  0  0  0  0  0  0  0  0  0  0
    6.4253    0.9852    1.5435 H   0  0  0  0  0  0  0  0  0  0  0  0
    5.1495    1.4292    0.3934 H   0  0  0  0  0  0  0  0  0  0  0  0
    7.9367    2.1617   -1.4412 H   0  0  0  0  0  0  0  0  0  0  0  0
    4.3985   -2.2012   -0.5245 H   0  0  0  0  0  0  0  0  0  0  0  0
    5.2206   -1.0022   -1.4934 H   0  0  0  0  0  0  0  0  0  0  0  0
    3.4760    0.5777   -1.2738 H   0  0  0  0  0  0  0  0  0  0  0  0
    2.6555   -0.9564   -1.4238 H   0  0  0  0  0  0  0  0  0  0  0  0
    0.9871    2.1356    0.4593 H   0  0  0  0  0  0  0  0  0  0  0  0
   -1.4522    2.2449    0.1527 H   0  0  0  0  0  0  0  0  0  0  0  0
  1  2  1  0
  2  3  1  0
  2  4  1  0
  4  5  1  0
  5  6  2  0
  6  7  1  0
  7  8  2  0
  8  9  1  0
  9 10  1  0
  9 11  2  0
 11 12  1  0
 12 13  2  0
 13 14  1  0
 14 15  2  0
 15 16  1  0
 16 17  2  0
 17 18  1  0
 18 19  1  0
 19 20  1  0
 20 21  1  0
 21 22  1  0
 22 23  1  0
 23 24  2  0
 23 25  1  0
 21 26  1  0
 26 27  1  0
 17 28  1  0
 28 29  2  0
 13  2  1  0
 29 14  1  0
 11  5  1  0
 27 18  1  0
  1 30  1  0
  1 31  1  0
  1 32  1  0
  3 33  1  0
  3 34  1  0
  3 35  1  0
  7 36  1  0
 10 37  1  0
 10 38  1  0
 15 39  1  0
 16 40  1  0
 18 41  1  1
 19 42  1  0
 19 43  1  0
 20 44  1  0
 20 45  1  0
 21 46  1  1
 22 47  1  0
 22 48  1  0
 25 49  1  0
 26 50  1  0
 26 51  1  0
 27 52  1  0
 27 53  1  0
 28 54  1  0
 29 55  1  0
M  END
$$$$
