
     RDKit          3D

 27 29  0  0  0  0  0  0  0  0999 V2000
    5.5457   -1.7797    1.3114 N   0  0  0  0  0  0  0  0  0  0  0  0
    4.8878   -1.0371    0.7096 C   0  0  0  0  0  0  0  0  0  0  0  0
    4.0789   -0.1174   -0.0358 C   0  0  0  0  0  0  0  0  0  0  0  0
    4.6819    0.8383   -0.8580 C   0  0  0  0  0  0  0  0  0  0  0  0
    3.8938    1.7318   -1.5821 C   0  0  0  0  0  0  0  0  0  0  0  0
    2.5007    1.6729   -1.4867 C   0  0  0  0  0  0  0  0  0  0  0  0
    1.8763    0.7202   -0.6664 C   0  0  0  0  0  0  0  0  0  0  0  0
    0.4255    0.6341   -0.5463 C   0  0  0  0  0  0  0  0  0  0  0  0
   -0.3107   -0.1879    0.1679 N   0  0  0  0  0  0  0  0  0  0  0  0
   -1.5951    0.2162   -0.1289 C   0  0  0  0  0  0  0  0  0  0  0  0
   -2.7632   -0.4259    0.4485 C   0  0  0  0  0  0  0  0  0  0  0  0
   -4.0658   -0.0147    0.1464 C   0  0  0  0  0  0  0  0  0  0  0  0
   -5.1529   -0.6656    0.7286 C   0  0  0  0  0  0  0  0  0  0  0  0
   -4.9034   -1.7130    1.5995 C   0  0  0  0  0  0  0  0  0  0  0  0
   -3.6637   -2.1411    1.9179 N   0  0  0  0  0  0  0  0  0  0  0  0
   -2.6253   -1.4885    1.3359 C   0  0  0  0  0  0  0  0  0  0  0  0
   -1.6544    1.2452   -0.9907 N   0  0  0  0  0  0  0  0  0  0  0  0
   -0.3180    1.5227   -1.2678 O   0  0  0  0  0  0  0  0  0  0  0  0
    2.6827   -0.1738    0.0575 C   0  0  0  0  0  0  0  0  0  0  0  0
    5.7664    0.8928   -0.9395 H   0  0  0  0  0  0  0  0  0  0  0  0
    4.3633    2.4760   -2.2223 H   0  0  0  0  0  0  0  0  0  0  0  0
    1.9107    2.3835   -2.0639 H   0  0  0  0  0  0  0  0  0  0  0  0
   -4.2448    0.8100   -0.5399 H   0  0  0  0  0  0  0  0  0  0  0  0
   -6.1700   -0.3613    0.5068 H   0  0  0  0  0  0  0  0  0  0  0  0
   -5.7171   -2.2510    2.0779 H   0  0  0  0  0  0  0  0  0  0  0  0
   -1.6453   -1.8654    1.6199 H   0  0  0  0  0  0  0  0  0  0  0  0
    2.2159   -0.9212    0.7004 H   0  0  0  0  0  0  0  0  0  0  0  0
  1  2  3  0
  2  3  1  0
  3  4  2  0
  4  5  1  0
  5  6  2  0
  6  7  1  0
  7  8  1  0
  8  9  2  0
  9 10  1  0
 10 11  1  0
 11 12  2  0
 12 13  1  0
 13 14  2  0
 14 15  1  0
 15 16  2  0
 10 17  2  0
 17 18  1  0
  7 19  2  0
 19  3  1  0
 18  8  1  0
 16 11  1  0
  4 20  1  0
  5 21  1  0
  6 22  1  0
 12 23  1  0
 13 24  1  0
 14 25  1  0
 16 26  1  0
 19 27  1  0
M  END
$$$$
