
     RDKit          3D

 56 58  0  0  0  0  0  0  0  0999 V2000
    9.1133   -0.4818   -0.8349 C   0  0  0  0  0  0  0  0  0  0  0  0
    8.0538   -0.0249    0.1538 C   0  0  0  0  0  0  0  0  0  0  0  0
    6.6562   -0.4438   -0.2931 C   0  0  0  0  0  0  0  0  0  0  0  0
    5.5719    0.0176    0.6711 C   0  0  0  0  0  0  0  0  0  0  0  0
    5.8341    0.6171    1.7089 O   0  0  0  0  0  0  0  0  0  0  0  0
    4.3219   -0.3363    0.2106 N   0  0  0  0  0  0  0  0  0  0  0  0
    3.1009   -0.0245    0.8184 C   0  0  0  0  0  0  0  0  0  0  0  0
    2.9983    0.7012    1.9524 N   0  0  0  0  0  0  0  0  0  0  0  0
    1.7647    0.9537    2.4380 C   0  0  0  0  0  0  0  0  0  0  0  0
    0.5748    0.5653    1.9385 N   0  0  0  0  0  0  0  0  0  0  0  0
    0.7317   -0.1432    0.8095 C   0  0  0  0  0  0  0  0  0  0  0  0
    1.9280   -0.4810    0.2009 C   0  0  0  0  0  0  0  0  0  0  0  0
    1.7143   -1.2319   -0.9366 N   0  0  0  0  0  0  0  0  0  0  0  0
    0.4038   -1.3539   -1.0077 C   0  0  0  0  0  0  0  0  0  0  0  0
   -0.2345   -0.6841    0.0062 N   0  0  0  0  0  0  0  0  0  0  0  0
   -1.6655   -0.5566    0.2028 C   0  0  2  0  0  0  0  0  0  0  0  0
   -2.2629   -1.8767    0.0305 O   0  0  0  0  0  0  0  0  0  0  0  0
   -3.4080   -1.6711   -0.8109 C   0  0  2  0  0  0  0  0  0  0  0  0
   -3.8457   -2.8873   -1.6104 C   0  0  0  0  0  0  0  0  0  0  0  0
   -4.4314   -2.4992   -2.8470 O   0  0  0  0  0  0  0  0  0  0  0  0
   -5.2547   -1.0911   -2.8681 P   0  0  0  0  0  5  0  0  0  0  0  0
   -6.1696   -1.0749   -1.6721 O   0  0  0  0  0  0  0  0  0  0  0  0
   -5.7371   -0.8350   -4.2668 O   0  0  0  0  0  1  0  0  0  0  0  0
   -4.0228   -0.0660   -2.5598 O   0  0  0  0  0  0  0  0  0  0  0  0
   -2.9831   -0.5705   -1.7617 C   0  0  1  0  0  0  0  0  0  0  0  0
   -2.3486    0.4098   -0.7945 C   0  0  1  0  0  0  0  0  0  0  0  0
   -3.3944    1.1641   -0.1457 O   0  0  0  0  0  0  0  0  0  0  0  0
   -2.9917    2.2582    0.5435 C   0  0  0  0  0  0  0  0  0  0  0  0
   -1.8267    2.5976    0.6935 O   0  0  0  0  0  0  0  0  0  0  0  0
   -4.1737    2.9838    1.1316 C   0  0  0  0  0  0  0  0  0  0  0  0
   -4.5331    2.4633    2.5175 C   0  0  0  0  0  0  0  0  0  0  0  0
   -5.2738    1.1367    2.4702 C   0  0  0  0  0  0  0  0  0  0  0  0
    0.0000    0.0000    0.0000 Na  0  0  0  0  0 15  0  0  0  0  0  0
    9.1145   -1.5736   -0.9333 H   0  0  0  0  0  0  0  0  0  0  0  0
   10.1078   -0.1705   -0.5003 H   0  0  0  0  0  0  0  0  0  0  0  0
    8.9365   -0.0509   -1.8241 H   0  0  0  0  0  0  0  0  0  0  0  0
    8.2733   -0.4501    1.1409 H   0  0  0  0  0  0  0  0  0  0  0  0
    8.1034    1.0671    0.2603 H   0  0  0  0  0  0  0  0  0  0  0  0
    6.6035   -1.5359   -0.3720 H   0  0  0  0  0  0  0  0  0  0  0  0
    6.4412   -0.0188   -1.2811 H   0  0  0  0  0  0  0  0  0  0  0  0
    4.2326   -0.8640   -0.6521 H   0  0  0  0  0  0  0  0  0  0  0  0
    1.7275    1.5452    3.3476 H   0  0  0  0  0  0  0  0  0  0  0  0
   -0.1314   -1.9113   -1.7674 H   0  0  0  0  0  0  0  0  0  0  0  0
   -1.8447   -0.2649    1.2432 H   0  0  0  0  0  0  0  0  0  0  0  0
   -4.2357   -1.3501   -0.1658 H   0  0  0  0  0  0  0  0  0  0  0  0
   -4.5605   -3.4922   -1.0431 H   0  0  0  0  0  0  0  0  0  0  0  0
   -2.9883   -3.5329   -1.8323 H   0  0  0  0  0  0  0  0  0  0  0  0
   -2.2029   -0.9415   -2.4387 H   0  0  0  0  0  0  0  0  0  0  0  0
   -1.6675    1.0991   -1.3073 H   0  0  0  0  0  0  0  0  0  0  0  0
   -3.9015    4.0465    1.1894 H   0  0  0  0  0  0  0  0  0  0  0  0
   -5.0221    2.9256    0.4399 H   0  0  0  0  0  0  0  0  0  0  0  0
   -3.6328    2.3463    3.1310 H   0  0  0  0  0  0  0  0  0  0  0  0
   -5.1730    3.1997    3.0167 H   0  0  0  0  0  0  0  0  0  0  0  0
   -6.1569    1.1980    1.8332 H   0  0  0  0  0  0  0  0  0  0  0  0
   -5.6047    0.8539    3.4734 H   0  0  0  0  0  0  0  0  0  0  0  0
   -4.6283    0.3409    2.0964 H   0  0  0  0  0  0  0  0  0  0  0  0
  1  2  1  0
  2  3  1  0
  3  4  1  0
  4  5  2  0
  4  6  1  0
  6  7  1  0
  7  8  2  0
  8  9  1  0
  9 10  2  0
 10 11  1  0
 11 12  2  0
 12 13  1  0
 13 14  2  0
 14 15  1  0
 15 16  1  0
 16 17  1  0
 17 18  1  0
 18 19  1  0
 19 20  1  0
 20 21  1  0
 21 22  2  0
 21 23  1  0
 21 24  1  0
 24 25  1  0
 25 26  1  0
 26 27  1  0
 27 28  1  0
 28 29  2  0
 28 30  1  0
 30 31  1  0
 31 32  1  0
 12  7  1  0
 26 16  1  0
 15 11  1  0
 25 18  1  0
  1 34  1  0
  1 35  1  0
  1 36  1  0
  2 37  1  0
  2 38  1  0
  3 39  1  0
  3 40  1  0
  6 41  1  0
  9 42  1  0
 14 43  1  0
 16 44  1  1
 18 45  1  1
 19 46  1  0
 19 47  1  0
 25 48  1  6
 26 49  1  6
 30 50  1  0
 30 51  1  0
 31 52  1  0
 31 53  1  0
 32 54  1  0
 32 55  1  0
 32 56  1  0
M  CHG  2  23  -1  33   1
M  END
$$$$
