
     RDKit          3D

 71 73  0  0  0  0  0  0  0  0999 V2000
    4.6009    1.8845   -3.7584 C   0  0  0  0  0  0  0  0  0  0  0  0
    4.9640    1.7696   -2.2990 C   0  0  0  0  0  0  0  0  0  0  0  0
    6.0265    2.5320   -1.7894 C   0  0  0  0  0  0  0  0  0  0  0  0
    6.3770    2.4424   -0.4423 C   0  0  0  0  0  0  0  0  0  0  0  0
    5.6705    1.5905    0.4047 C   0  0  0  0  0  0  0  0  0  0  0  0
    4.6034    0.8305   -0.0908 C   0  0  0  0  0  0  0  0  0  0  0  0
    4.2427    0.9235   -1.4397 C   0  0  0  0  0  0  0  0  0  0  0  0
    3.2592    0.1829   -2.0318 O   0  0  0  0  0  0  0  0  0  0  0  0
    2.0764   -0.0415   -1.2699 C   0  0  0  0  0  0  0  0  0  0  0  0
    2.1319   -1.2562   -0.3558 C   0  0  0  0  0  0  0  0  0  0  0  0
    1.4778   -1.4071    0.8256 N   0  0  0  0  0  0  0  0  0  0  0  0
    0.3895   -0.5139    1.3047 C   0  0  0  0  0  0  0  0  0  0  0  0
   -0.8304   -0.5828    0.3894 C   0  0  0  0  0  0  0  0  0  0  0  0
   -0.8611   -1.2172   -0.6606 O   0  0  0  0  0  0  0  0  0  0  0  0
   -1.8315    0.1942    0.8862 O   0  0  0  0  0  0  0  0  0  0  0  0
   -3.0814    0.2352    0.1361 C   0  0  0  0  0  0  0  0  0  0  0  0
   -4.1680   -0.3188    1.0697 C   0  0  0  0  0  0  0  0  0  0  0  0
   -4.4764    0.6098    2.2520 C   0  0  0  0  0  0  0  0  0  0  0  0
   -5.6138    0.0382    3.1007 C   0  0  0  0  0  0  0  0  0  0  0  0
   -4.8225    2.0203    1.7687 C   0  0  0  0  0  0  0  0  0  0  0  0
   -3.7249    2.5977    0.8824 C   0  0  0  0  0  0  0  0  0  0  0  0
   -3.2990    1.7035   -0.3027 C   0  0  0  0  0  0  0  0  0  0  0  0
   -4.1789    1.9088   -1.5793 C   0  0  0  0  0  0  0  0  0  0  0  0
   -3.3867    1.5354   -2.8403 C   0  0  0  0  0  0  0  0  0  0  0  0
   -5.5173    1.1708   -1.6097 C   0  0  0  0  0  0  0  0  0  0  0  0
    1.8994   -2.5748    1.4560 C   0  0  0  0  0  0  0  0  0  0  0  0
    1.5647   -3.1432    2.6872 C   0  0  0  0  0  0  0  0  0  0  0  0
    2.1980   -4.3523    3.0020 C   0  0  0  0  0  0  0  0  0  0  0  0
    3.1162   -4.9607    2.1257 C   0  0  0  0  0  0  0  0  0  0  0  0
    3.4310   -4.3924    0.8852 C   0  0  0  0  0  0  0  0  0  0  0  0
    2.7995   -3.1888    0.5797 C   0  0  0  0  0  0  0  0  0  0  0  0
    2.8577   -2.3839   -0.5484 N   0  0  0  0  0  4  0  0  0  0  0  0
    3.6042   -2.6932   -1.7681 C   0  0  0  0  0  0  0  0  0  0  0  0
    0.0000    0.0000    0.0000 Cl  0  0  0  0  0 15  0  0  0  0  0  0
    5.2478    2.5973   -4.2801 H   0  0  0  0  0  0  0  0  0  0  0  0
    4.7047    0.9120   -4.2545 H   0  0  0  0  0  0  0  0  0  0  0  0
    3.5663    2.2363   -3.8548 H   0  0  0  0  0  0  0  0  0  0  0  0
    6.5903    3.1935   -2.4500 H   0  0  0  0  0  0  0  0  0  0  0  0
    7.2040    3.0315   -0.0538 H   0  0  0  0  0  0  0  0  0  0  0  0
    5.9604    1.5139    1.4536 H   0  0  0  0  0  0  0  0  0  0  0  0
    4.1050    0.1622    0.6049 H   0  0  0  0  0  0  0  0  0  0  0  0
    1.8142    0.8292   -0.6639 H   0  0  0  0  0  0  0  0  0  0  0  0
    1.2636   -0.2562   -1.9688 H   0  0  0  0  0  0  0  0  0  0  0  0
    0.7771    0.5073    1.3275 H   0  0  0  0  0  0  0  0  0  0  0  0
    0.0893   -0.8094    2.3108 H   0  0  0  0  0  0  0  0  0  0  0  0
   -3.0217   -0.4155   -0.7384 H   0  0  0  0  0  0  0  0  0  0  0  0
   -5.0904   -0.5081    0.5075 H   0  0  0  0  0  0  0  0  0  0  0  0
   -3.8373   -1.2884    1.4664 H   0  0  0  0  0  0  0  0  0  0  0  0
   -3.5848    0.6698    2.8917 H   0  0  0  0  0  0  0  0  0  0  0  0
   -5.8091    0.6741    3.9727 H   0  0  0  0  0  0  0  0  0  0  0  0
   -6.5451   -0.0374    2.5238 H   0  0  0  0  0  0  0  0  0  0  0  0
   -5.3587   -0.9644    3.4650 H   0  0  0  0  0  0  0  0  0  0  0  0
   -4.9607    2.6811    2.6320 H   0  0  0  0  0  0  0  0  0  0  0  0
   -5.7799    2.0201    1.2367 H   0  0  0  0  0  0  0  0  0  0  0  0
   -2.8406    2.7641    1.5134 H   0  0  0  0  0  0  0  0  0  0  0  0
   -4.0204    3.5895    0.5231 H   0  0  0  0  0  0  0  0  0  0  0  0
   -2.3091    2.0955   -0.5787 H   0  0  0  0  0  0  0  0  0  0  0  0
   -4.3999    2.9823   -1.6627 H   0  0  0  0  0  0  0  0  0  0  0  0
   -2.4291    2.0649   -2.8740 H   0  0  0  0  0  0  0  0  0  0  0  0
   -3.9406    1.8137   -3.7408 H   0  0  0  0  0  0  0  0  0  0  0  0
   -3.1808    0.4631   -2.8942 H   0  0  0  0  0  0  0  0  0  0  0  0
   -6.1605    1.4604   -0.7805 H   0  0  0  0  0  0  0  0  0  0  0  0
   -6.0651    1.4055   -2.5257 H   0  0  0  0  0  0  0  0  0  0  0  0
   -5.3807    0.0873   -1.5909 H   0  0  0  0  0  0  0  0  0  0  0  0
    0.8685   -2.6792    3.3725 H   0  0  0  0  0  0  0  0  0  0  0  0
    1.9685   -4.8458    3.9492 H   0  0  0  0  0  0  0  0  0  0  0  0
    3.5813   -5.9029    2.4173 H   0  0  0  0  0  0  0  0  0  0  0  0
    4.1253   -4.8626    0.2013 H   0  0  0  0  0  0  0  0  0  0  0  0
    3.6767   -3.7736   -1.8950 H   0  0  0  0  0  0  0  0  0  0  0  0
    3.0721   -2.2984   -2.6377 H   0  0  0  0  0  0  0  0  0  0  0  0
    4.6010   -2.2561   -1.7013 H   0  0  0  0  0  0  0  0  0  0  0  0
  1  2  1  0
  2  3  2  0
  3  4  1  0
  4  5  2  0
  5  6  1  0
  6  7  2  0
  7  8  1  0
  8  9  1  0
  9 10  1  0
 10 11  1  0
 11 12  1  0
 12 13  1  0
 13 14  2  0
 13 15  1  0
 15 16  1  0
 16 17  1  0
 17 18  1  0
 18 19  1  0
 18 20  1  0
 20 21  1  0
 21 22  1  0
 22 23  1  0
 23 24  1  0
 23 25  1  0
 11 26  1  0
 26 27  2  0
 27 28  1  0
 28 29  2  0
 29 30  1  0
 30 31  2  0
 31 32  1  0
 32 33  1  0
  7  2  1  0
 32 10  2  0
 22 16  1  0
 31 26  1  0
  1 35  1  0
  1 36  1  0
  1 37  1  0
  3 38  1  0
  4 39  1  0
  5 40  1  0
  6 41  1  0
  9 42  1  0
  9 43  1  0
 12 44  1  0
 12 45  1  0
 16 46  1  0
 17 47  1  0
 17 48  1  0
 18 49  1  0
 19 50  1  0
 19 51  1  0
 19 52  1  0
 20 53  1  0
 20 54  1  0
 21 55  1  0
 21 56  1  0
 22 57  1  0
 23 58  1  0
 24 59  1  0
 24 60  1  0
 24 61  1  0
 25 62  1  0
 25 63  1  0
 25 64  1  0
 27 65  1  0
 28 66  1  0
 29 67  1  0
 30 68  1  0
 33 69  1  0
 33 70  1  0
 33 71  1  0
M  CHG  2  32   1  34  -1
M  END
$$$$
