
     RDKit          3D

 37 38  0  0  0  0  0  0  0  0999 V2000
   -3.1600    0.0230    1.8601 C   0  0  0  0  0  0  0  0  0  0  0  0
   -3.5986    0.0443    0.3888 C   0  0  0  0  0  0  0  0  0  0  0  0
   -3.4657    1.4573   -0.1945 C   0  0  0  0  0  0  0  0  0  0  0  0
   -2.9384   -0.9271   -0.4548 O   0  0  0  0  0  0  0  0  0  0  0  0
   -1.5775   -0.9752   -0.3762 C   0  0  0  0  0  0  0  0  0  0  0  0
   -0.7974   -0.1808   -1.2138 C   0  0  0  0  0  0  0  0  0  0  0  0
    0.5957   -0.2804   -1.1697 C   0  0  0  0  0  0  0  0  0  0  0  0
    1.2033   -1.1892   -0.2943 C   0  0  0  0  0  0  0  0  0  0  0  0
    2.6788   -1.3385   -0.2262 C   0  0  0  0  0  0  0  0  0  0  0  0
    3.1618   -2.4523   -0.0405 O   0  0  0  0  0  0  0  0  0  0  0  0
    3.5877   -0.1731   -0.3734 C   0  0  0  0  0  0  0  0  0  0  0  0
    3.2495    1.0931    0.1220 C   0  0  0  0  0  0  0  0  0  0  0  0
    4.1431    2.1588   -0.0207 C   0  0  0  0  0  0  0  0  0  0  0  0
    5.3741    1.9555   -0.6448 C   0  0  0  0  0  0  0  0  0  0  0  0
    6.4695    3.2705   -0.8179 Cl  0  0  0  0  0  0  0  0  0  0  0  0
    5.7249    0.6938   -1.1226 C   0  0  0  0  0  0  0  0  0  0  0  0
    4.8341   -0.3730   -0.9812 C   0  0  0  0  0  0  0  0  0  0  0  0
    0.4109   -2.0286    0.4979 C   0  0  0  0  0  0  0  0  0  0  0  0
   -0.9803   -1.9260    0.4500 C   0  0  0  0  0  0  0  0  0  0  0  0
   -5.0811   -0.3598    0.3515 C   0  0  0  0  0  0  0  0  0  0  0  0
   -6.0314    0.3547    0.0672 O   0  0  0  0  0  0  0  0  0  0  0  0
   -5.3019   -1.6470    0.7011 O   0  0  0  0  0  0  0  0  0  0  0  0
   -2.1338    0.3875    1.9795 H   0  0  0  0  0  0  0  0  0  0  0  0
   -3.1934   -0.9915    2.2726 H   0  0  0  0  0  0  0  0  0  0  0  0
   -3.8105    0.6541    2.4763 H   0  0  0  0  0  0  0  0  0  0  0  0
   -2.4393    1.8305   -0.1133 H   0  0  0  0  0  0  0  0  0  0  0  0
   -4.1143    2.1719    0.3245 H   0  0  0  0  0  0  0  0  0  0  0  0
   -3.7298    1.4679   -1.2582 H   0  0  0  0  0  0  0  0  0  0  0  0
   -1.2681    0.4997   -1.9176 H   0  0  0  0  0  0  0  0  0  0  0  0
    1.1883    0.3321   -1.8445 H   0  0  0  0  0  0  0  0  0  0  0  0
    2.3077    1.2619    0.6381 H   0  0  0  0  0  0  0  0  0  0  0  0
    3.8789    3.1404    0.3648 H   0  0  0  0  0  0  0  0  0  0  0  0
    6.6887    0.5311   -1.5982 H   0  0  0  0  0  0  0  0  0  0  0  0
    5.1137   -1.3610   -1.3434 H   0  0  0  0  0  0  0  0  0  0  0  0
    0.8753   -2.7706    1.1447 H   0  0  0  0  0  0  0  0  0  0  0  0
   -1.5946   -2.5934    1.0487 H   0  0  0  0  0  0  0  0  0  0  0  0
   -6.2696   -1.7606    0.5984 H   0  0  0  0  0  0  0  0  0  0  0  0
  1  2  1  0
  2  3  1  0
  2  4  1  0
  4  5  1  0
  5  6  2  0
  6  7  1  0
  7  8  2  0
  8  9  1  0
  9 10  2  0
  9 11  1  0
 11 12  2  0
 12 13  1  0
 13 14  2  0
 14 15  1  0
 14 16  1  0
 16 17  2  0
  8 18  1  0
 18 19  2  0
  2 20  1  0
 20 21  2  0
 20 22  1  0
 19  5  1  0
 17 11  1  0
  1 23  1  0
  1 24  1  0
  1 25  1  0
  3 26  1  0
  3 27  1  0
  3 28  1  0
  6 29  1  0
  7 30  1  0
 12 31  1  0
 13 32  1  0
 16 33  1  0
 17 34  1  0
 18 35  1  0
 19 36  1  0
 22 37  1  0
M  END
$$$$
