
     RDKit          3D

 47 50  0  0  0  0  0  0  0  0999 V2000
    0.7841   -1.2677    3.4406 O   0  0  0  0  0  0  0  0  0  0  0  0
    0.7342   -1.4017    2.2161 C   0  0  0  0  0  0  0  0  0  0  0  0
    1.9827   -1.1894    1.3696 C   0  0  0  0  0  0  0  0  0  0  0  0
    2.9267   -0.1528    1.9840 C   0  0  0  0  0  0  0  0  0  0  0  0
    3.1120    1.0130    1.0464 C   0  0  0  0  0  0  0  0  0  0  0  0
    4.2280    1.1616    0.3973 N   0  0  0  0  0  0  0  0  0  0  0  0
    4.3531    2.2423   -0.4914 N   0  0  0  0  0  0  0  0  0  0  0  0
    3.3633    3.0512   -0.6243 C   0  0  0  0  0  0  0  0  0  0  0  0
    3.4565    4.0836   -1.4688 O   0  0  0  0  0  0  0  0  0  0  0  0
    2.1842    2.9880    0.0149 N   0  0  0  0  0  0  0  0  0  0  0  0
    1.9467    1.9624    0.8679 C   0  0  0  0  0  0  0  0  0  0  0  0
    0.8859    1.7672    1.4383 O   0  0  0  0  0  0  0  0  0  0  0  0
   -0.4413   -1.7880    1.5781 N   0  0  0  0  0  0  0  0  0  0  0  0
   -1.5975   -2.0839    2.4263 C   0  0  0  0  0  0  0  0  0  0  0  0
   -2.9215   -1.9659    1.6802 C   0  0  0  0  0  0  0  0  0  0  0  0
   -2.9781   -2.8665    0.4483 C   0  0  0  0  0  0  0  0  0  0  0  0
   -1.5941   -3.2568   -0.0722 C   0  0  0  0  0  0  0  0  0  0  0  0
   -0.5286   -2.1757    0.1560 C   0  0  0  0  0  0  0  0  0  0  0  0
   -0.7756   -0.9704   -0.7145 C   0  0  0  0  0  0  0  0  0  0  0  0
   -0.7882   -0.9509   -2.0349 N   0  0  0  0  0  0  0  0  0  0  0  0
   -1.0326    0.3543   -2.3904 C   0  0  0  0  0  0  0  0  0  0  0  0
   -1.1444    0.9369   -3.6607 C   0  0  0  0  0  0  0  0  0  0  0  0
   -1.3877    2.3155   -3.7498 C   0  0  0  0  0  0  0  0  0  0  0  0
   -1.5206    3.0952   -2.5964 C   0  0  0  0  0  0  0  0  0  0  0  0
   -1.4096    2.5304   -1.3205 C   0  0  0  0  0  0  0  0  0  0  0  0
   -1.1663    1.1563   -1.2643 C   0  0  0  0  0  0  0  0  0  0  0  0
   -0.9933    0.2929   -0.2142 N   0  0  0  0  0  0  0  0  0  0  0  0
    2.4894   -2.1597    1.3295 H   0  0  0  0  0  0  0  0  0  0  0  0
    1.7322   -0.9074    0.3472 H   0  0  0  0  0  0  0  0  0  0  0  0
    3.9083   -0.6131    2.1521 H   0  0  0  0  0  0  0  0  0  0  0  0
    2.5889    0.2367    2.9505 H   0  0  0  0  0  0  0  0  0  0  0  0
    4.3384    4.0355   -1.8782 H   0  0  0  0  0  0  0  0  0  0  0  0
    1.4563    3.6450   -0.2081 H   0  0  0  0  0  0  0  0  0  0  0  0
   -1.4647   -3.0995    2.8150 H   0  0  0  0  0  0  0  0  0  0  0  0
   -1.6043   -1.4061    3.2868 H   0  0  0  0  0  0  0  0  0  0  0  0
   -3.7591   -2.2003    2.3498 H   0  0  0  0  0  0  0  0  0  0  0  0
   -3.0639   -0.9209    1.3676 H   0  0  0  0  0  0  0  0  0  0  0  0
   -3.5340   -3.7824    0.6815 H   0  0  0  0  0  0  0  0  0  0  0  0
   -3.5486   -2.3571   -0.3388 H   0  0  0  0  0  0  0  0  0  0  0  0
   -1.2763   -4.1670    0.4550 H   0  0  0  0  0  0  0  0  0  0  0  0
   -1.6640   -3.5274   -1.1329 H   0  0  0  0  0  0  0  0  0  0  0  0
    0.4341   -2.6034   -0.1424 H   0  0  0  0  0  0  0  0  0  0  0  0
   -1.0378    0.3270   -4.5508 H   0  0  0  0  0  0  0  0  0  0  0  0
   -1.4811    2.7793   -4.7295 H   0  0  0  0  0  0  0  0  0  0  0  0
   -1.7136    4.1636   -2.6967 H   0  0  0  0  0  0  0  0  0  0  0  0
   -1.5179    3.1299   -0.4228 H   0  0  0  0  0  0  0  0  0  0  0  0
   -0.9603    0.5465    0.7669 H   0  0  0  0  0  0  0  0  0  0  0  0
  1  2  2  0
  2  3  1  0
  3  4  1  0
  4  5  1  0
  5  6  2  0
  6  7  1  0
  7  8  2  0
  8  9  1  0
  8 10  1  0
 10 11  1  0
 11 12  2  0
  2 13  1  0
 13 14  1  0
 14 15  1  0
 15 16  1  0
 16 17  1  0
 17 18  1  0
 18 19  1  0
 19 20  2  0
 20 21  1  0
 21 22  2  0
 22 23  1  0
 23 24  2  0
 24 25  1  0
 25 26  2  0
 26 27  1  0
 11  5  1  0
 18 13  1  0
 27 19  1  0
 26 21  1  0
  3 28  1  0
  3 29  1  0
  4 30  1  0
  4 31  1  0
  9 32  1  0
 10 33  1  0
 14 34  1  0
 14 35  1  0
 15 36  1  0
 15 37  1  0
 16 38  1  0
 16 39  1  0
 17 40  1  0
 17 41  1  0
 18 42  1  0
 22 43  1  0
 23 44  1  0
 24 45  1  0
 25 46  1  0
 27 47  1  0
M  END
$$$$
