
     RDKit          3D

 65 66  0  0  0  0  0  0  0  0999 V2000
   -6.4356    0.4433   -1.7057 C   0  0  0  0  0  0  0  0  0  0  0  0
   -6.2596   -0.1547   -0.4305 O   0  0  0  0  0  0  0  0  0  0  0  0
   -5.8317   -1.5092   -0.4921 C   0  0  0  0  0  0  0  0  0  0  0  0
   -4.3806   -1.7144   -0.9388 C   0  0  0  0  0  0  0  0  0  0  0  0
   -3.3414   -1.0112   -0.0502 C   0  0  0  0  0  0  0  0  0  0  0  0
   -3.1713    0.4190   -0.3438 N   0  0  0  0  0  0  0  0  0  0  0  0
   -2.6279    1.1623    0.8021 C   0  0  0  0  0  0  0  0  0  0  0  0
   -1.1442    0.9002    1.0545 C   0  0  0  0  0  0  0  0  0  0  0  0
   -0.3230    1.1979   -0.2023 C   0  0  0  0  0  0  0  0  0  0  0  0
    1.0790    0.8595   -0.0006 N   0  0  0  0  0  0  0  0  0  0  0  0
    1.9448    1.6890    0.6768 C   0  0  0  0  0  0  0  0  0  0  0  0
    1.6356    2.8162    1.0500 O   0  0  0  0  0  0  0  0  0  0  0  0
    3.3087    1.1594    0.9630 C   0  0  0  0  0  0  0  0  0  0  0  0
    4.2303    2.0044    1.5975 C   0  0  0  0  0  0  0  0  0  0  0  0
    5.5266    1.5538    1.8972 C   0  0  0  0  0  0  0  0  0  0  0  0
    6.6150    2.6562    2.6705 Cl  0  0  0  0  0  0  0  0  0  0  0  0
    5.9337    0.2340    1.6173 C   0  0  0  0  0  0  0  0  0  0  0  0
    7.2541   -0.1960    1.8139 N   0  0  0  0  0  0  0  0  0  0  0  0
    5.0256   -0.5671    0.9379 C   0  0  0  0  0  0  0  0  0  0  0  0
    3.7405   -0.1184    0.6308 C   0  0  0  0  0  0  0  0  0  0  0  0
    2.9862   -1.0780   -0.0088 O   0  0  0  0  0  0  0  0  0  0  0  0
    3.9589   -2.0611   -0.4307 C   0  0  0  0  0  0  0  0  0  0  0  0
    5.1698   -1.9743    0.4896 C   0  0  0  0  0  0  0  0  0  0  0  0
   -0.8882    0.4432   -1.4057 C   0  0  0  0  0  0  0  0  0  0  0  0
   -2.3897    0.6935   -1.5571 C   0  0  0  0  0  0  0  0  0  0  0  0
   -2.3344    1.0165    0.1617 O   0  0  0  0  0  0  0  0  0  0  0  0
   -1.8553   -0.1025    0.2139 C   0  0  0  0  0  0  0  0  0  0  0  0
   -2.6441   -1.1807    0.3870 O   0  0  0  0  0  0  0  0  0  0  0  0
   -0.4084   -0.4797    0.0928 C   0  0  0  0  0  0  0  0  0  0  0  0
    0.4709    0.7578    0.0085 C   0  0  0  0  0  0  0  0  0  0  0  0
    1.9218    0.3865    0.0268 C   0  0  0  0  0  0  0  0  0  0  0  0
    2.7449    0.7371    0.8552 O   0  0  0  0  0  0  0  0  0  0  0  0
    2.2806   -0.3866   -1.0143 O   0  0  0  0  0  0  0  0  0  0  0  0
   -7.1662   -0.1182   -2.2956 H   0  0  0  0  0  0  0  0  0  0  0  0
   -6.8173    1.4575   -1.5577 H   0  0  0  0  0  0  0  0  0  0  0  0
   -5.4892    0.5115   -2.2471 H   0  0  0  0  0  0  0  0  0  0  0  0
   -5.9520   -1.9227    0.5158 H   0  0  0  0  0  0  0  0  0  0  0  0
   -6.5083   -2.0778   -1.1417 H   0  0  0  0  0  0  0  0  0  0  0  0
   -4.2624   -1.4213   -1.9866 H   0  0  0  0  0  0  0  0  0  0  0  0
   -4.1776   -2.7928   -0.9052 H   0  0  0  0  0  0  0  0  0  0  0  0
   -2.3857   -1.5406   -0.1376 H   0  0  0  0  0  0  0  0  0  0  0  0
   -3.6608   -1.1468    0.9915 H   0  0  0  0  0  0  0  0  0  0  0  0
   -3.2046    0.9423    1.7087 H   0  0  0  0  0  0  0  0  0  0  0  0
   -2.7763    2.2350    0.6208 H   0  0  0  0  0  0  0  0  0  0  0  0
   -0.8014    1.5271    1.8866 H   0  0  0  0  0  0  0  0  0  0  0  0
   -0.9909   -0.1395    1.3708 H   0  0  0  0  0  0  0  0  0  0  0  0
   -0.3778    2.2753   -0.4067 H   0  0  0  0  0  0  0  0  0  0  0  0
    1.3743   -0.0996   -0.1583 H   0  0  0  0  0  0  0  0  0  0  0  0
    3.9419    3.0219    1.8558 H   0  0  0  0  0  0  0  0  0  0  0  0
    7.7515    0.3623    2.5064 H   0  0  0  0  0  0  0  0  0  0  0  0
    7.3617   -1.1928    1.9655 H   0  0  0  0  0  0  0  0  0  0  0  0
    4.2313   -1.8377   -1.4701 H   0  0  0  0  0  0  0  0  0  0  0  0
    3.5029   -3.0559   -0.4073 H   0  0  0  0  0  0  0  0  0  0  0  0
    6.0998   -2.1804   -0.0459 H   0  0  0  0  0  0  0  0  0  0  0  0
    5.0678   -2.6521    1.3430 H   0  0  0  0  0  0  0  0  0  0  0  0
   -0.3709    0.7634   -2.3186 H   0  0  0  0  0  0  0  0  0  0  0  0
   -0.6909   -0.6315   -1.3080 H   0  0  0  0  0  0  0  0  0  0  0  0
   -2.7697    0.1204   -2.4096 H   0  0  0  0  0  0  0  0  0  0  0  0
   -2.5450    1.7458   -1.8306 H   0  0  0  0  0  0  0  0  0  0  0  0
   -3.5501   -0.8104    0.4451 H   0  0  0  0  0  0  0  0  0  0  0  0
   -0.1298   -1.0770    0.9684 H   0  0  0  0  0  0  0  0  0  0  0  0
   -0.2878   -1.0975   -0.8038 H   0  0  0  0  0  0  0  0  0  0  0  0
    0.2819    1.4205    0.8619 H   0  0  0  0  0  0  0  0  0  0  0  0
    0.2662    1.3398   -0.8972 H   0  0  0  0  0  0  0  0  0  0  0  0
    3.2437   -0.5239   -0.8890 H   0  0  0  0  0  0  0  0  0  0  0  0
  1  2  1  0
  2  3  1  0
  3  4  1  0
  4  5  1  0
  5  6  1  0
  6  7  1  0
  7  8  1  0
  8  9  1  0
  9 10  1  0
 10 11  1  0
 11 12  2  0
 11 13  1  0
 13 14  2  0
 14 15  1  0
 15 16  1  0
 15 17  2  0
 17 18  1  0
 17 19  1  0
 19 20  2  0
 20 21  1  0
 21 22  1  0
 22 23  1  0
  9 24  1  0
 24 25  1  0
 26 27  2  0
 27 28  1  0
 27 29  1  0
 29 30  1  0
 30 31  1  0
 31 32  2  0
 31 33  1  0
 25  6  1  0
 20 13  1  0
 23 19  1  0
  1 34  1  0
  1 35  1  0
  1 36  1  0
  3 37  1  0
  3 38  1  0
  4 39  1  0
  4 40  1  0
  5 41  1  0
  5 42  1  0
  7 43  1  0
  7 44  1  0
  8 45  1  0
  8 46  1  0
  9 47  1  0
 10 48  1  0
 14 49  1  0
 18 50  1  0
 18 51  1  0
 22 52  1  0
 22 53  1  0
 23 54  1  0
 23 55  1  0
 24 56  1  0
 24 57  1  0
 25 58  1  0
 25 59  1  0
 28 60  1  0
 29 61  1  0
 29 62  1  0
 30 63  1  0
 30 64  1  0
 33 65  1  0
M  END
$$$$
