
     RDKit          3D

 66 69  0  0  0  0  0  0  0  0999 V2000
   -4.0380   -1.3378    0.9420 C   0  0  0  0  0  0  0  0  0  0  0  0
   -3.6498    0.1194    1.2219 C   0  0  1  0  0  0  0  0  0  0  0  0
   -2.2908    0.1518    1.9809 C   0  0  0  0  0  0  0  0  0  0  0  0
   -1.1592   -0.0348    1.0749 N   0  0  0  0  0  0  0  0  0  0  0  0
   -0.3499   -1.1544    1.2538 C   0  0  0  0  0  0  0  0  0  0  0  0
   -0.4651   -1.9398    2.1924 O   0  0  0  0  0  0  0  0  0  0  0  0
    0.7500   -1.4134    0.3098 C   0  0  0  0  0  0  0  0  0  0  0  0
    2.0382   -1.0207    0.7125 C   0  0  0  0  0  0  0  0  0  0  0  0
    3.1407   -1.2602   -0.1358 C   0  0  0  0  0  0  0  0  0  0  0  0
    4.5436   -0.9730   -0.0501 C   0  0  0  0  0  0  0  0  0  0  0  0
    5.2501   -0.2914    1.0343 C   0  0  0  0  0  0  0  0  0  0  0  0
    4.6824    0.0987    2.0531 O   0  0  0  0  0  0  0  0  0  0  0  0
    6.7511   -0.0008    0.9066 C   0  0  0  0  0  0  0  0  0  0  0  0
    7.5261   -0.9512    0.8384 O   0  0  0  0  0  0  0  0  0  0  0  0
    7.1495    1.3428    0.8580 N   0  0  0  0  0  0  0  0  0  0  0  0
    8.5664    1.6318    0.9743 C   0  0  0  0  0  0  0  0  0  0  0  0
    6.2335    2.4404    1.1234 C   0  0  0  0  0  0  0  0  0  0  0  0
    5.1167   -1.4667   -1.2092 C   0  0  0  0  0  0  0  0  0  0  0  0
    4.1374   -2.0443   -1.9702 N   0  0  0  0  0  0  0  0  0  0  0  0
    4.3644   -2.7086   -3.2363 C   0  0  0  0  0  0  0  0  0  0  0  0
    2.9147   -1.9201   -1.3479 C   0  0  0  0  0  0  0  0  0  0  0  0
    1.6358   -2.3517   -1.7414 C   0  0  0  0  0  0  0  0  0  0  0  0
    0.5542   -2.0959   -0.8891 C   0  0  0  0  0  0  0  0  0  0  0  0
   -0.9953   -2.6734   -1.3879 Cl  0  0  0  0  0  0  0  0  0  0  0  0
   -1.1152    0.9045   -0.0639 C   0  0  2  0  0  0  0  0  0  0  0  0
    0.0439    1.8968    0.0634 C   0  0  0  0  0  0  0  0  0  0  0  0
   -2.4414    1.7127   -0.1991 C   0  0  0  0  0  0  0  0  0  0  0  0
   -3.6515    0.8790   -0.0639 N   0  0  0  0  0  0  0  0  0  0  0  0
   -4.8540    1.7154   -0.2274 C   0  0  0  0  0  0  0  0  0  0  0  0
   -6.1134    0.9270   -0.5131 C   0  0  0  0  0  0  0  0  0  0  0  0
   -6.2128    0.1537   -1.6826 C   0  0  0  0  0  0  0  0  0  0  0  0
   -7.3739   -0.5688   -1.9577 C   0  0  0  0  0  0  0  0  0  0  0  0
   -8.4380   -0.5165   -1.0668 C   0  0  0  0  0  0  0  0  0  0  0  0
   -9.5540   -1.2090   -1.3304 F   0  0  0  0  0  0  0  0  0  0  0  0
   -8.3633    0.2439    0.0943 C   0  0  0  0  0  0  0  0  0  0  0  0
   -7.2019    0.9672    0.3723 C   0  0  0  0  0  0  0  0  0  0  0  0
   -3.3792   -1.7937    0.1978 H   0  0  0  0  0  0  0  0  0  0  0  0
   -5.0645   -1.4226    0.5754 H   0  0  0  0  0  0  0  0  0  0  0  0
   -3.9765   -1.9391    1.8557 H   0  0  0  0  0  0  0  0  0  0  0  0
   -4.3911    0.5340    1.9175 H   0  0  0  0  0  0  0  0  0  0  0  0
   -2.2861   -0.5867    2.7895 H   0  0  0  0  0  0  0  0  0  0  0  0
   -2.1550    1.1315    2.4568 H   0  0  0  0  0  0  0  0  0  0  0  0
    2.1793   -0.5322    1.6747 H   0  0  0  0  0  0  0  0  0  0  0  0
    9.1748    0.8045    0.5981 H   0  0  0  0  0  0  0  0  0  0  0  0
    8.8021    2.5313    0.3976 H   0  0  0  0  0  0  0  0  0  0  0  0
    8.8052    1.7963    2.0296 H   0  0  0  0  0  0  0  0  0  0  0  0
    6.6089    3.3505    0.6471 H   0  0  0  0  0  0  0  0  0  0  0  0
    6.1660    2.5901    2.2046 H   0  0  0  0  0  0  0  0  0  0  0  0
    5.2402    2.2310    0.7203 H   0  0  0  0  0  0  0  0  0  0  0  0
    6.1496   -1.4720   -1.5389 H   0  0  0  0  0  0  0  0  0  0  0  0
    3.8319   -2.1562   -4.0152 H   0  0  0  0  0  0  0  0  0  0  0  0
    3.9908   -3.7330   -3.1624 H   0  0  0  0  0  0  0  0  0  0  0  0
    5.4348   -2.7227   -3.4555 H   0  0  0  0  0  0  0  0  0  0  0  0
    1.4883   -2.8837   -2.6767 H   0  0  0  0  0  0  0  0  0  0  0  0
   -0.9782    0.3189   -0.9787 H   0  0  0  0  0  0  0  0  0  0  0  0
    0.0218    2.6263   -0.7533 H   0  0  0  0  0  0  0  0  0  0  0  0
   -0.0072    2.4440    1.0120 H   0  0  0  0  0  0  0  0  0  0  0  0
    1.0150    1.4006    0.0259 H   0  0  0  0  0  0  0  0  0  0  0  0
   -2.4374    2.1975   -1.1842 H   0  0  0  0  0  0  0  0  0  0  0  0
   -2.4645    2.5191    0.5477 H   0  0  0  0  0  0  0  0  0  0  0  0
   -4.7250    2.3898   -1.0856 H   0  0  0  0  0  0  0  0  0  0  0  0
   -4.9939    2.3700    0.6430 H   0  0  0  0  0  0  0  0  0  0  0  0
   -5.3724    0.1033   -2.3719 H   0  0  0  0  0  0  0  0  0  0  0  0
   -7.4508   -1.1733   -2.8549 H   0  0  0  0  0  0  0  0  0  0  0  0
   -9.2079    0.2668    0.7751 H   0  0  0  0  0  0  0  0  0  0  0  0
   -7.1498    1.5574    1.2839 H   0  0  0  0  0  0  0  0  0  0  0  0
  1  2  1  0
  2  3  1  0
  3  4  1  0
  4  5  1  0
  5  6  2  0
  5  7  1  0
  7  8  2  0
  8  9  1  0
  9 10  1  0
 10 11  1  0
 11 12  2  0
 11 13  1  0
 13 14  2  0
 13 15  1  0
 15 16  1  0
 15 17  1  0
 10 18  2  0
 18 19  1  0
 19 20  1  0
 19 21  1  0
 21 22  1  0
 22 23  2  0
 23 24  1  0
  4 25  1  0
 25 26  1  0
 25 27  1  0
 27 28  1  0
 28 29  1  0
 29 30  1  0
 30 31  2  0
 31 32  1  0
 32 33  2  0
 33 34  1  0
 33 35  1  0
 35 36  2  0
 28  2  1  0
 36 30  1  0
 23  7  1  0
 21  9  2  0
  1 37  1  0
  1 38  1  0
  1 39  1  0
  2 40  1  1
  3 41  1  0
  3 42  1  0
  8 43  1  0
 16 44  1  0
 16 45  1  0
 16 46  1  0
 17 47  1  0
 17 48  1  0
 17 49  1  0
 18 50  1  0
 20 51  1  0
 20 52  1  0
 20 53  1  0
 22 54  1  0
 25 55  1  6
 26 56  1  0
 26 57  1  0
 26 58  1  0
 27 59  1  0
 27 60  1  0
 29 61  1  0
 29 62  1  0
 31 63  1  0
 32 64  1  0
 35 65  1  0
 36 66  1  0
M  END
$$$$
