
     RDKit          3D

 31 28  0  0  0  0  0  0  0  0999 V2000
    0.6927    0.0000    0.0000 Cl  0  0  0  0  0  0  0  0  0  0  0  0
    3.6040   -0.1528    1.8982 N   0  0  0  0  0  0  0  0  0  0  0  0
    3.1452   -0.2649    0.6512 C   0  0  0  0  0  0  0  0  0  0  0  0
    4.2116   -0.4881   -0.2160 N   0  0  0  0  0  0  0  0  0  0  0  0
    1.8121   -0.1037    0.8178 N   0  0  0  0  0  0  0  0  0  0  0  0
    0.8925   -0.1412   -0.2212 C   0  0  0  0  0  0  0  0  0  0  0  0
    1.4189   -0.3381   -1.3212 O   0  0  0  0  0  0  0  0  0  0  0  0
   -0.5157    0.0413    0.0499 C   0  0  0  0  0  0  0  0  0  0  0  0
   -0.9901    0.2506    1.2866 N   0  0  0  0  0  0  0  0  0  0  0  0
   -2.3382    0.4096    1.4246 C   0  0  0  0  0  0  0  0  0  0  0  0
   -3.0458    0.6874    3.0010 Cl  0  0  0  0  0  0  0  0  0  0  0  0
   -3.1681    0.3546    0.3259 C   0  0  0  0  0  0  0  0  0  0  0  0
   -4.5680    0.5233    0.4978 N   0  0  0  0  0  0  0  0  0  0  0  0
   -2.6165    0.1405   -0.8851 N   0  0  0  0  0  0  0  0  0  0  0  0
   -1.3191   -0.0189   -1.0681 C   0  0  0  0  0  0  0  0  0  0  0  0
   -0.6787   -0.2494   -2.3307 N   0  0  0  0  0  0  0  0  0  0  0  0
   -0.0015    0.3585   -0.0000 O   0  0  0  0  0  0  0  0  0  0  0  0
   -0.0004    0.3865   -0.0000 O   0  0  0  0  0  0  0  0  0  0  0  0
   -0.6927    0.0000    0.0000 H   0  0  0  0  0  0  0  0  0  0  0  0
    4.6095   -0.2564    1.9118 H   0  0  0  0  0  0  0  0  0  0  0  0
    4.6824    0.3284   -0.6294 H   0  0  0  0  0  0  0  0  0  0  0  0
    4.4946   -1.4612   -0.3985 H   0  0  0  0  0  0  0  0  0  0  0  0
    1.3955    0.0631    1.7731 H   0  0  0  0  0  0  0  0  0  0  0  0
   -5.2415   -0.2432    0.6358 H   0  0  0  0  0  0  0  0  0  0  0  0
   -4.9129    1.5277    0.4771 H   0  0  0  0  0  0  0  0  0  0  0  0
   -0.3862    0.5785   -2.8860 H   0  0  0  0  0  0  0  0  0  0  0  0
   -0.4856   -1.1870   -2.7314 H   0  0  0  0  0  0  0  0  0  0  0  0
   -0.8220   -0.1798   -0.0000 H   0  0  0  0  0  0  0  0  0  0  0  0
    0.8235   -0.1788    0.0000 H   0  0  0  0  0  0  0  0  0  0  0  0
   -0.8000   -0.1934   -0.0000 H   0  0  0  0  0  0  0  0  0  0  0  0
    0.8005   -0.1930    0.0000 H   0  0  0  0  0  0  0  0  0  0  0  0
  2  3  2  3
  3  4  1  0
  3  5  1  0
  5  6  1  0
  6  7  2  0
  6  8  1  0
  8  9  2  0
  9 10  1  0
 10 11  1  0
 10 12  2  0
 12 13  1  0
 12 14  1  0
 14 15  2  0
 15 16  1  0
 15  8  1  0
  1 19  1  0
  2 20  1  0
  4 21  1  0
  4 22  1  0
  5 23  1  0
 13 24  1  0
 13 25  1  0
 16 26  1  0
 16 27  1  0
 17 28  1  0
 17 29  1  0
 18 30  1  0
 18 31  1  0
M  END
$$$$
