
     RDKit          3D

 49 53  0  0  0  0  0  0  0  0999 V2000
   -3.7197    1.2295   -2.3750 C   0  0  0  0  0  0  0  0  0  0  0  0
   -2.6558    0.3359   -1.7620 C   0  0  0  0  0  0  0  0  0  0  0  0
   -2.9107    0.0655   -0.3571 N   0  0  0  0  0  0  0  0  0  0  0  0
   -3.7310   -0.9348    0.1399 C   0  0  0  0  0  0  0  0  0  0  0  0
   -4.5153   -1.8979   -0.5149 C   0  0  0  0  0  0  0  0  0  0  0  0
   -5.2498   -2.7928    0.2695 C   0  0  0  0  0  0  0  0  0  0  0  0
   -5.2062   -2.7343    1.6591 C   0  0  0  0  0  0  0  0  0  0  0  0
   -4.4207   -1.7755    2.3055 C   0  0  0  0  0  0  0  0  0  0  0  0
   -3.6710   -0.8599    1.5389 C   0  0  0  0  0  0  0  0  0  0  0  0
   -2.7889    0.2031    1.8594 C   0  0  0  0  0  0  0  0  0  0  0  0
   -2.3588    0.6950    3.0494 N   0  0  0  0  0  0  0  0  0  0  0  0
   -1.4871    1.7006    2.9947 N   0  0  0  0  0  0  0  0  0  0  0  0
   -1.0896    2.2077    1.7966 C   0  0  0  0  0  0  0  0  0  0  0  0
    0.1887    3.4426    1.8128 S   0  0  0  0  0  0  0  0  0  0  0  0
    1.5720    2.3822    2.3425 C   0  0  0  0  0  0  0  0  0  0  0  0
    1.9013    1.1985    1.4293 C   0  0  0  0  0  0  0  0  0  0  0  0
    2.2070    1.5832   -0.0197 C   0  0  0  0  0  0  0  0  0  0  0  0
    2.6933    0.4539   -0.7762 N   0  0  0  0  0  0  0  0  0  0  0  0
    1.8880   -0.4571   -1.4923 C   0  0  0  0  0  0  0  0  0  0  0  0
    0.6792   -0.4333   -1.6508 O   0  0  0  0  0  0  0  0  0  0  0  0
    2.7551   -1.4374   -2.0030 N   0  0  0  0  0  0  0  0  0  0  0  0
    4.0516   -1.1544   -1.5913 C   0  0  0  0  0  0  0  0  0  0  0  0
    5.2117   -1.8517   -1.8381 C   0  0  0  0  0  0  0  0  0  0  0  0
    6.3858   -1.3372   -1.2798 C   0  0  0  0  0  0  0  0  0  0  0  0
    6.3653   -0.1596   -0.5020 C   0  0  0  0  0  0  0  0  0  0  0  0
    5.1702    0.5309   -0.2656 C   0  0  0  0  0  0  0  0  0  0  0  0
    4.0235    0.0114   -0.8255 C   0  0  0  0  0  0  0  0  0  0  0  0
   -1.4924    1.8019    0.5772 N   0  0  0  0  0  0  0  0  0  0  0  0
   -2.3446    0.7655    0.6763 C   0  0  0  0  0  0  0  0  0  0  0  0
   -4.7108    0.7675   -2.3153 H   0  0  0  0  0  0  0  0  0  0  0  0
   -3.4952    1.4188   -3.4291 H   0  0  0  0  0  0  0  0  0  0  0  0
   -3.7705    2.1937   -1.8579 H   0  0  0  0  0  0  0  0  0  0  0  0
   -1.6729    0.8100   -1.8491 H   0  0  0  0  0  0  0  0  0  0  0  0
   -2.6004   -0.6239   -2.2863 H   0  0  0  0  0  0  0  0  0  0  0  0
   -4.5549   -1.9585   -1.5976 H   0  0  0  0  0  0  0  0  0  0  0  0
   -5.8627   -3.5490   -0.2165 H   0  0  0  0  0  0  0  0  0  0  0  0
   -5.7836   -3.4416    2.2492 H   0  0  0  0  0  0  0  0  0  0  0  0
   -4.3850   -1.7362    3.3909 H   0  0  0  0  0  0  0  0  0  0  0  0
    2.4541    3.0273    2.4211 H   0  0  0  0  0  0  0  0  0  0  0  0
    1.3640    2.0145    3.3536 H   0  0  0  0  0  0  0  0  0  0  0  0
    1.0915    0.4587    1.4520 H   0  0  0  0  0  0  0  0  0  0  0  0
    2.7729    0.6859    1.8581 H   0  0  0  0  0  0  0  0  0  0  0  0
    1.2980    1.9416   -0.5144 H   0  0  0  0  0  0  0  0  0  0  0  0
    2.9478    2.3890   -0.0668 H   0  0  0  0  0  0  0  0  0  0  0  0
    2.4476   -2.2220   -2.5524 H   0  0  0  0  0  0  0  0  0  0  0  0
    5.2215   -2.7562   -2.4334 H   0  0  0  0  0  0  0  0  0  0  0  0
    7.3305   -1.8513   -1.4461 H   0  0  0  0  0  0  0  0  0  0  0  0
    7.2952    0.2167   -0.0797 H   0  0  0  0  0  0  0  0  0  0  0  0
    5.1619    1.4337    0.3320 H   0  0  0  0  0  0  0  0  0  0  0  0
  1  2  1  0
  2  3  1  0
  3  4  1  0
  4  5  2  0
  5  6  1  0
  6  7  2  0
  7  8  1  0
  8  9  2  0
  9 10  1  0
 10 11  2  0
 11 12  1  0
 12 13  2  0
 13 14  1  0
 14 15  1  0
 15 16  1  0
 16 17  1  0
 17 18  1  0
 18 19  1  0
 19 20  2  0
 19 21  1  0
 21 22  1  0
 22 23  2  0
 23 24  1  0
 24 25  2  0
 25 26  1  0
 26 27  2  0
 13 28  1  0
 28 29  2  0
 29  3  1  0
  9  4  1  0
 29 10  1  0
 27 18  1  0
 27 22  1  0
  1 30  1  0
  1 31  1  0
  1 32  1  0
  2 33  1  0
  2 34  1  0
  5 35  1  0
  6 36  1  0
  7 37  1  0
  8 38  1  0
 15 39  1  0
 15 40  1  0
 16 41  1  0
 16 42  1  0
 17 43  1  0
 17 44  1  0
 21 45  1  0
 23 46  1  0
 24 47  1  0
 25 48  1  0
 26 49  1  0
M  END
$$$$
