
     RDKit          3D

 47 49  0  0  0  0  0  0  0  0999 V2000
   -4.5540   -2.8465    0.1437 C   0  0  0  0  0  0  0  0  0  0  0  0
   -3.4590   -1.8164    0.1451 C   0  0  0  0  0  0  0  0  0  0  0  0
   -3.7535   -0.4990   -0.2263 C   0  0  0  0  0  0  0  0  0  0  0  0
   -2.7684    0.4955   -0.2478 C   0  0  0  0  0  0  0  0  0  0  0  0
   -3.1787    1.7809   -0.6503 N   0  0  0  0  0  0  0  0  0  0  0  0
   -2.2796    2.7114   -0.7442 C   0  0  0  0  0  0  0  0  0  0  0  0
   -2.6685    4.0980   -1.1795 C   0  0  0  0  0  0  0  0  0  0  0  0
   -3.7638    4.3658   -1.6435 O   0  0  0  0  0  0  0  0  0  0  0  0
   -1.6566    5.0011   -1.0599 N   0  0  0  0  0  0  0  0  0  0  0  0
   -0.3455    4.6300   -1.1198 C   0  0  0  0  0  0  0  0  0  0  0  0
    0.4633    5.3998   -1.6252 O   0  0  0  0  0  0  0  0  0  0  0  0
    0.0367    3.4120   -0.6259 N   0  0  0  0  0  0  0  0  0  0  0  0
   -0.8275    2.4627   -0.4175 C   0  0  0  0  0  0  0  0  0  0  0  0
   -0.4676    1.2206    0.0882 N   0  0  0  0  0  0  0  0  0  0  0  0
    0.9200    0.9590    0.5116 C   0  0  0  0  0  0  0  0  0  0  0  0
    1.7865    0.4578   -0.6603 C   0  0  0  0  0  0  0  0  0  0  0  0
    1.8773    1.4285   -1.7316 O   0  0  0  0  0  0  0  0  0  0  0  0
    3.2439    0.1559   -0.2502 C   0  0  0  0  0  0  0  0  0  0  0  0
    3.9373   -0.3146   -1.4222 O   0  0  0  0  0  0  0  0  0  0  0  0
    3.3928   -0.8482    0.9048 C   0  0  0  0  0  0  0  0  0  0  0  0
    2.4434   -1.9194    0.7855 O   0  0  0  0  0  0  0  0  0  0  0  0
    4.7988   -1.4508    0.9916 C   0  0  0  0  0  0  0  0  0  0  0  0
    4.8303   -2.3304    2.1225 O   0  0  0  0  0  0  0  0  0  0  0  0
   -1.4357    0.1912    0.1184 C   0  0  0  0  0  0  0  0  0  0  0  0
   -1.1515   -1.1362    0.4823 C   0  0  0  0  0  0  0  0  0  0  0  0
   -2.1411   -2.1390    0.5037 C   0  0  0  0  0  0  0  0  0  0  0  0
   -1.7564   -3.5421    0.8917 C   0  0  0  0  0  0  0  0  0  0  0  0
   -5.5098   -2.4176   -0.1760 H   0  0  0  0  0  0  0  0  0  0  0  0
   -4.6955   -3.2524    1.1504 H   0  0  0  0  0  0  0  0  0  0  0  0
   -4.3107   -3.6596   -0.5477 H   0  0  0  0  0  0  0  0  0  0  0  0
   -4.7674   -0.2258   -0.5138 H   0  0  0  0  0  0  0  0  0  0  0  0
   -1.8440    5.8931   -1.4947 H   0  0  0  0  0  0  0  0  0  0  0  0
    1.3547    1.8899    0.8994 H   0  0  0  0  0  0  0  0  0  0  0  0
    0.9397    0.2745    1.3649 H   0  0  0  0  0  0  0  0  0  0  0  0
    1.3388   -0.4316   -1.1176 H   0  0  0  0  0  0  0  0  0  0  0  0
    1.4829    2.2695   -1.4227 H   0  0  0  0  0  0  0  0  0  0  0  0
    3.7516    1.0890    0.0241 H   0  0  0  0  0  0  0  0  0  0  0  0
    3.5715    0.2162   -2.1615 H   0  0  0  0  0  0  0  0  0  0  0  0
    3.1552   -0.3525    1.8532 H   0  0  0  0  0  0  0  0  0  0  0  0
    2.7998   -2.6291    1.3598 H   0  0  0  0  0  0  0  0  0  0  0  0
    5.5585   -0.6753    1.1256 H   0  0  0  0  0  0  0  0  0  0  0  0
    5.0315   -2.0556    0.1096 H   0  0  0  0  0  0  0  0  0  0  0  0
    5.7246   -2.7170    2.1434 H   0  0  0  0  0  0  0  0  0  0  0  0
   -0.1409   -1.4356    0.7454 H   0  0  0  0  0  0  0  0  0  0  0  0
   -2.3616   -3.8842    1.7370 H   0  0  0  0  0  0  0  0  0  0  0  0
   -1.8955   -4.2201    0.0438 H   0  0  0  0  0  0  0  0  0  0  0  0
   -0.7064   -3.6034    1.1973 H   0  0  0  0  0  0  0  0  0  0  0  0
  1  2  1  0
  2  3  2  0
  3  4  1  0
  4  5  1  0
  5  6  2  0
  6  7  1  0
  7  8  2  0
  7  9  1  0
  9 10  1  0
 10 11  2  0
 10 12  1  0
 12 13  2  0
 13 14  1  0
 14 15  1  0
 15 16  1  0
 16 17  1  0
 16 18  1  0
 18 19  1  0
 18 20  1  0
 20 21  1  0
 20 22  1  0
 22 23  1  0
 14 24  1  0
 24 25  1  0
 25 26  2  0
 26 27  1  0
 26  2  1  0
 24  4  2  0
 13  6  1  0
  1 28  1  0
  1 29  1  0
  1 30  1  0
  3 31  1  0
  9 32  1  0
 15 33  1  0
 15 34  1  0
 16 35  1  0
 17 36  1  0
 18 37  1  0
 19 38  1  0
 20 39  1  0
 21 40  1  0
 22 41  1  0
 22 42  1  0
 23 43  1  0
 25 44  1  0
 27 45  1  0
 27 46  1  0
 27 47  1  0
M  END
$$$$
