
     RDKit          3D

 48 51  0  0  0  0  0  0  0  0999 V2000
   -8.2028    1.4490    0.8359 C   0  0  0  0  0  0  0  0  0  0  0  0
   -7.4093    0.2442    0.7384 N   0  0  0  0  0  0  0  0  0  0  0  0
   -7.9117   -1.0291    0.7939 C   0  0  0  0  0  0  0  0  0  0  0  0
   -6.8570   -1.9041    0.6665 C   0  0  0  0  0  0  0  0  0  0  0  0
   -5.6697   -1.1342    0.5286 C   0  0  0  0  0  0  0  0  0  0  0  0
   -4.3071   -1.4609    0.3665 C   0  0  0  0  0  0  0  0  0  0  0  0
   -3.3438   -0.4441    0.2557 C   0  0  0  0  0  0  0  0  0  0  0  0
   -2.0023   -0.8554    0.0956 N   0  0  0  0  0  0  0  0  0  0  0  0
   -0.8800   -0.0540   -0.0352 C   0  0  0  0  0  0  0  0  0  0  0  0
   -0.8505    1.1712   -0.0408 O   0  0  0  0  0  0  0  0  0  0  0  0
    0.3790   -0.8827   -0.1926 C   0  0  0  0  0  0  0  0  0  0  0  0
    1.6169   -0.0065   -0.2619 C   0  0  2  0  0  0  0  0  0  0  0  0
    1.8115    0.6274   -1.5424 N   0  0  0  0  0  0  0  0  0  0  0  0
    3.0679    0.3830   -2.0504 C   0  0  0  0  0  0  0  0  0  0  0  0
    3.5155    0.9199   -3.0495 O   0  0  0  0  0  0  0  0  0  0  0  0
    3.6813   -0.5328   -1.2523 N   0  0  0  0  0  0  0  0  0  0  0  0
    5.0146   -1.0411   -1.4688 C   0  0  0  0  0  0  0  0  0  0  0  0
    6.0534   -0.2012   -0.7636 C   0  0  0  0  0  0  0  0  0  0  0  0
    6.4485   -0.5081    0.5465 C   0  0  0  0  0  0  0  0  0  0  0  0
    7.3917    0.2826    1.2045 C   0  0  0  0  0  0  0  0  0  0  0  0
    7.9427    1.3908    0.5638 C   0  0  0  0  0  0  0  0  0  0  0  0
    7.5479    1.7129   -0.7333 C   0  0  0  0  0  0  0  0  0  0  0  0
    6.6051    0.9237   -1.3935 C   0  0  0  0  0  0  0  0  0  0  0  0
    2.8912   -0.8447   -0.1827 C   0  0  0  0  0  0  0  0  0  0  0  0
    3.1452   -1.6480    0.7053 O   0  0  0  0  0  0  0  0  0  0  0  0
   -3.7480    0.8888    0.3079 C   0  0  0  0  0  0  0  0  0  0  0  0
   -5.0960    1.2403    0.4683 C   0  0  0  0  0  0  0  0  0  0  0  0
   -6.0398    0.2104    0.5765 C   0  0  0  0  0  0  0  0  0  0  0  0
   -9.2563    1.1852    0.9593 H   0  0  0  0  0  0  0  0  0  0  0  0
   -7.8604    2.0192    1.7032 H   0  0  0  0  0  0  0  0  0  0  0  0
   -8.0712    2.0250   -0.0837 H   0  0  0  0  0  0  0  0  0  0  0  0
   -8.9707   -1.2134    0.9185 H   0  0  0  0  0  0  0  0  0  0  0  0
   -6.9311   -2.9834    0.6720 H   0  0  0  0  0  0  0  0  0  0  0  0
   -4.0249   -2.5082    0.3300 H   0  0  0  0  0  0  0  0  0  0  0  0
   -1.8546   -1.8572    0.0762 H   0  0  0  0  0  0  0  0  0  0  0  0
    0.4448   -1.5568    0.6704 H   0  0  0  0  0  0  0  0  0  0  0  0
    0.2840   -1.4986   -1.0954 H   0  0  0  0  0  0  0  0  0  0  0  0
    1.6531    0.7631    0.5165 H   0  0  0  0  0  0  0  0  0  0  0  0
    1.2701    1.4180   -1.8744 H   0  0  0  0  0  0  0  0  0  0  0  0
    5.2248   -1.0622   -2.5448 H   0  0  0  0  0  0  0  0  0  0  0  0
    5.0667   -2.0750   -1.1070 H   0  0  0  0  0  0  0  0  0  0  0  0
    6.0168   -1.3626    1.0652 H   0  0  0  0  0  0  0  0  0  0  0  0
    7.6925    0.0363    2.2196 H   0  0  0  0  0  0  0  0  0  0  0  0
    8.6752    2.0076    1.0778 H   0  0  0  0  0  0  0  0  0  0  0  0
    7.9699    2.5826   -1.2305 H   0  0  0  0  0  0  0  0  0  0  0  0
    6.2960    1.1960   -2.4018 H   0  0  0  0  0  0  0  0  0  0  0  0
   -3.0329    1.7018    0.2263 H   0  0  0  0  0  0  0  0  0  0  0  0
   -5.3863    2.2855    0.5061 H   0  0  0  0  0  0  0  0  0  0  0  0
  1  2  1  0
  2  3  1  0
  3  4  2  0
  4  5  1  0
  5  6  2  0
  6  7  1  0
  7  8  1  0
  8  9  1  0
  9 10  2  0
  9 11  1  0
 11 12  1  0
 12 13  1  0
 13 14  1  0
 14 15  2  0
 14 16  1  0
 16 17  1  0
 17 18  1  0
 18 19  2  0
 19 20  1  0
 20 21  2  0
 21 22  1  0
 22 23  2  0
 16 24  1  0
 24 25  2  0
  7 26  2  0
 26 27  1  0
 27 28  2  0
 28  2  1  0
 28  5  1  0
 24 12  1  0
 23 18  1  0
  1 29  1  0
  1 30  1  0
  1 31  1  0
  3 32  1  0
  4 33  1  0
  6 34  1  0
  8 35  1  0
 11 36  1  0
 11 37  1  0
 12 38  1  1
 13 39  1  0
 17 40  1  0
 17 41  1  0
 19 42  1  0
 20 43  1  0
 21 44  1  0
 22 45  1  0
 23 46  1  0
 26 47  1  0
 27 48  1  0
M  END
$$$$
