
     RDKit          3D

 45 45  0  0  0  0  0  0  0  0999 V2000
   -4.1927   -0.0435    1.1275 C   0  0  0  0  0  0  0  0  0  0  0  0
   -5.0478   -0.0645   -0.1028 C   0  0  0  0  0  0  0  0  0  0  0  0
   -6.4693    0.3788    0.1770 C   0  0  0  0  0  0  0  0  0  0  0  0
   -4.4730    0.8417   -1.1787 C   0  0  2  0  0  0  0  0  0  0  0  0
   -5.2800    0.8359   -2.3697 N   0  0  0  0  0  0  0  0  0  0  0  0
   -3.1297    0.3178   -1.5048 C   0  0  0  0  0  0  0  0  0  0  0  0
   -2.8867   -0.0352   -2.6815 O   0  0  0  0  0  0  0  0  0  0  0  0
   -2.1183    0.1962   -0.5687 O   0  0  0  0  0  0  0  0  0  0  0  0
   -0.8216   -0.3178   -0.9193 C   0  0  0  0  0  0  0  0  0  0  0  0
   -0.0117   -0.2989    0.3333 C   0  0  0  0  0  0  0  0  0  0  0  0
    1.2570   -0.7668    0.1478 O   0  0  0  0  0  0  0  0  0  0  0  0
    2.0351   -0.0781   -0.7593 C   0  0  0  0  0  0  0  0  0  0  0  0
    3.3217   -0.7222   -0.8017 N   0  0  0  0  0  0  0  0  0  0  0  0
    3.6833   -1.7216   -1.6126 C   0  0  0  0  0  0  0  0  0  0  0  0
    4.9836   -2.0496   -1.3400 N   0  0  0  0  0  0  0  0  0  0  0  0
    5.4388   -1.2579   -0.3595 C   0  0  0  0  0  0  0  0  0  0  0  0
    6.6261   -1.1244    0.3122 C   0  0  0  0  0  0  0  0  0  0  0  0
    7.5870   -1.8643    0.0278 O   0  0  0  0  0  0  0  0  0  0  0  0
    6.7990   -0.1991    1.2943 N   0  0  0  0  0  0  0  0  0  0  0  0
    5.7754    0.5904    1.5985 C   0  0  0  0  0  0  0  0  0  0  0  0
    5.8725    1.5927    2.6213 N   0  0  0  0  0  0  0  0  0  0  0  0
    4.6052    0.4751    0.9525 N   0  0  0  0  0  0  0  0  0  0  0  0
    4.3798   -0.4290   -0.0329 C   0  0  0  0  0  0  0  0  0  0  0  0
    0.6901    0.0000    0.0000 Cl  0  0  0  0  0  0  0  0  0  0  0  0
   -3.5835    0.8942    1.1440 H   0  0  0  0  0  0  0  0  0  0  0  0
   -3.4479   -0.8838    1.0895 H   0  0  0  0  0  0  0  0  0  0  0  0
   -4.7597   -0.1280    2.0658 H   0  0  0  0  0  0  0  0  0  0  0  0
   -5.1077   -1.1162   -0.4484 H   0  0  0  0  0  0  0  0  0  0  0  0
   -6.8841    0.7197   -0.8089 H   0  0  0  0  0  0  0  0  0  0  0  0
   -7.0728   -0.5012    0.4704 H   0  0  0  0  0  0  0  0  0  0  0  0
   -6.5258    1.2021    0.9114 H   0  0  0  0  0  0  0  0  0  0  0  0
   -4.3930    1.8820   -0.8106 H   0  0  0  0  0  0  0  0  0  0  0  0
   -5.8965    1.6778   -2.4449 H   0  0  0  0  0  0  0  0  0  0  0  0
   -4.6388    0.8816   -3.1925 H   0  0  0  0  0  0  0  0  0  0  0  0
   -0.4071    0.2179   -1.7728 H   0  0  0  0  0  0  0  0  0  0  0  0
   -1.0028   -1.3816   -1.1902 H   0  0  0  0  0  0  0  0  0  0  0  0
   -0.5108   -0.9867    1.0585 H   0  0  0  0  0  0  0  0  0  0  0  0
   -0.0595    0.7200    0.7690 H   0  0  0  0  0  0  0  0  0  0  0  0
    2.1979    0.9707   -0.3820 H   0  0  0  0  0  0  0  0  0  0  0  0
    1.6029   -0.0071   -1.7789 H   0  0  0  0  0  0  0  0  0  0  0  0
    3.0462   -2.1960   -2.3662 H   0  0  0  0  0  0  0  0  0  0  0  0
    7.6920   -0.0912    1.8068 H   0  0  0  0  0  0  0  0  0  0  0  0
    6.1193    1.2875    3.5817 H   0  0  0  0  0  0  0  0  0  0  0  0
    5.6981    2.5830    2.3877 H   0  0  0  0  0  0  0  0  0  0  0  0
   -0.6901    0.0000    0.0000 H   0  0  0  0  0  0  0  0  0  0  0  0
  1  2  1  0
  2  3  1  0
  2  4  1  0
  4  5  1  0
  4  6  1  0
  6  7  2  0
  6  8  1  0
  8  9  1  0
  9 10  1  0
 10 11  1  0
 11 12  1  0
 12 13  1  0
 13 14  1  0
 14 15  2  0
 15 16  1  0
 16 17  1  0
 17 18  2  0
 17 19  1  0
 19 20  1  0
 20 21  1  0
 20 22  2  0
 22 23  1  0
 23 13  1  0
 23 16  2  0
  1 25  1  0
  1 26  1  0
  1 27  1  0
  2 28  1  0
  3 29  1  0
  3 30  1  0
  3 31  1  0
  4 32  1  1
  5 33  1  0
  5 34  1  0
  9 35  1  0
  9 36  1  0
 10 37  1  0
 10 38  1  0
 12 39  1  0
 12 40  1  0
 14 41  1  0
 19 42  1  0
 21 43  1  0
 21 44  1  0
 24 45  1  0
M  END
$$$$
