
     RDKit          3D

 25 26  0  0  0  0  0  0  0  0999 V2000
    3.9147   -1.2937    0.4745 N   0  0  0  0  0  0  0  0  0  0  0  0
    2.9582   -1.3734   -0.9010 S   0  0  0  0  0  6  0  0  0  0  0  0
    3.6760   -0.7180   -1.9665 O   0  0  0  0  0  0  0  0  0  0  0  0
    2.5609   -2.7600   -0.9927 O   0  0  0  0  0  0  0  0  0  0  0  0
    1.5469   -0.4073   -0.4658 C   0  0  0  0  0  0  0  0  0  0  0  0
    0.3006   -1.0417   -0.4009 C   0  0  0  0  0  0  0  0  0  0  0  0
   -0.8356   -0.2909   -0.0801 C   0  0  0  0  0  0  0  0  0  0  0  0
   -0.7790    1.0832    0.1607 C   0  0  0  0  0  0  0  0  0  0  0  0
    0.4863    1.6865    0.1276 C   0  0  0  0  0  0  0  0  0  0  0  0
    1.6448    0.9591   -0.1973 C   0  0  0  0  0  0  0  0  0  0  0  0
    3.1293    1.8424   -0.2058 Cl  0  0  0  0  0  0  0  0  0  0  0  0
   -1.8811    1.8388    0.5803 N   0  0  0  0  0  0  0  0  0  0  0  0
   -3.1973    1.3313    0.2698 C   0  0  0  0  0  0  0  0  0  0  0  0
   -3.3227    0.0215    0.8436 N   0  0  0  0  0  0  0  0  0  0  0  0
   -2.3860   -1.1146    0.0542 S   0  0  0  0  0  6  0  0  0  0  0  0
   -2.2232   -2.2230    0.9670 O   0  0  0  0  0  0  0  0  0  0  0  0
   -2.8984   -1.2769   -1.2871 O   0  0  0  0  0  0  0  0  0  0  0  0
    4.0502   -2.2303    0.8577 H   0  0  0  0  0  0  0  0  0  0  0  0
    4.7868   -0.8051    0.2641 H   0  0  0  0  0  0  0  0  0  0  0  0
    0.2039   -2.1104   -0.5905 H   0  0  0  0  0  0  0  0  0  0  0  0
    0.5789    2.7454    0.3651 H   0  0  0  0  0  0  0  0  0  0  0  0
   -1.7886    2.8259    0.3463 H   0  0  0  0  0  0  0  0  0  0  0  0
   -3.9430    1.9852    0.7340 H   0  0  0  0  0  0  0  0  0  0  0  0
   -3.3968    1.3411   -0.8077 H   0  0  0  0  0  0  0  0  0  0  0  0
   -3.1858   -0.0152    1.8505 H   0  0  0  0  0  0  0  0  0  0  0  0
  1  2  1  0
  2  3  2  0
  2  4  2  0
  2  5  1  0
  5  6  2  0
  6  7  1  0
  7  8  2  0
  8  9  1  0
  9 10  2  0
 10 11  1  0
  8 12  1  0
 12 13  1  0
 13 14  1  0
 14 15  1  0
 15 16  2  0
 15 17  2  0
 10  5  1  0
 15  7  1  0
  1 18  1  0
  1 19  1  0
  6 20  1  0
  9 21  1  0
 12 22  1  0
 13 23  1  0
 13 24  1  0
 14 25  1  0
M  END
$$$$
