
     RDKit          3D

 64 67  0  0  0  0  0  0  0  0999 V2000
   11.4243   -0.3713    1.3113 C   0  0  0  0  0  0  0  0  0  0  0  0
   10.3475   -1.0472    1.9490 O   0  0  0  0  0  0  0  0  0  0  0  0
    9.1443   -1.0452    1.2979 C   0  0  0  0  0  0  0  0  0  0  0  0
    8.0956   -1.6407    2.0028 C   0  0  0  0  0  0  0  0  0  0  0  0
    6.8113   -1.7030    1.4560 C   0  0  0  0  0  0  0  0  0  0  0  0
    6.5604   -1.1758    0.1854 C   0  0  0  0  0  0  0  0  0  0  0  0
    5.1722   -1.2139   -0.4009 C   0  0  0  0  0  0  0  0  0  0  0  0
    4.3749    0.0439   -0.0588 C   0  0  0  0  0  0  0  0  0  0  0  0
    3.0819    0.0580   -0.7195 N   0  0  0  0  0  0  0  0  0  0  0  0
    2.1017    0.9416   -0.3072 C   0  0  0  0  0  0  0  0  0  0  0  0
    2.2003    1.6361    0.6968 O   0  0  0  0  0  0  0  0  0  0  0  0
    0.8655    0.9398   -1.2045 C   0  0  0  0  0  0  0  0  0  0  0  0
    0.1130   -0.3896   -1.0250 C   0  0  0  0  0  0  0  0  0  0  0  0
   -1.3804   -0.2557   -1.2995 C   0  0  0  0  0  0  0  0  0  0  0  0
   -2.0175    0.7836   -0.4913 N   0  0  0  0  0  0  0  0  0  0  0  0
   -3.3967    0.9477   -0.3641 C   0  0  0  0  0  0  0  0  0  0  0  0
   -3.8864    1.9033    0.2376 O   0  0  0  0  0  0  0  0  0  0  0  0
   -4.2910   -0.1199   -0.9866 C   0  0  0  0  0  0  0  0  0  0  0  0
   -4.3772   -1.3437   -0.0893 C   0  0  0  0  0  0  0  0  0  0  0  0
   -5.7284   -1.2474    0.5776 C   0  0  0  0  0  0  0  0  0  0  0  0
   -6.0586   -2.0037    1.4813 O   0  0  0  0  0  0  0  0  0  0  0  0
   -6.4717   -0.2490   -0.0550 N   0  0  0  0  0  0  0  0  0  0  0  0
   -7.8224    0.1112    0.2276 C   0  0  0  0  0  0  0  0  0  0  0  0
   -8.5287   -0.4364    1.3072 C   0  0  0  0  0  0  0  0  0  0  0  0
   -9.8572   -0.0726    1.5700 C   0  0  0  0  0  0  0  0  0  0  0  0
  -10.5061    0.8512    0.7582 C   0  0  0  0  0  0  0  0  0  0  0  0
   -9.8264    1.4110   -0.3176 C   0  0  0  0  0  0  0  0  0  0  0  0
   -8.4993    1.0442   -0.5784 C   0  0  0  0  0  0  0  0  0  0  0  0
   -5.7309    0.3414   -1.1459 C   0  0  0  0  0  0  0  0  0  0  0  0
   -1.1408    1.8244    0.0568 C   0  0  0  0  0  0  0  0  0  0  0  0
   -0.0277    2.1600   -0.9276 C   0  0  0  0  0  0  0  0  0  0  0  0
    7.6142   -0.5809   -0.5198 C   0  0  0  0  0  0  0  0  0  0  0  0
    8.8987   -0.5168    0.0317 C   0  0  0  0  0  0  0  0  0  0  0  0
   12.3011   -0.4472    1.9628 H   0  0  0  0  0  0  0  0  0  0  0  0
   11.6791   -0.8419    0.3541 H   0  0  0  0  0  0  0  0  0  0  0  0
   11.1973    0.6926    1.1779 H   0  0  0  0  0  0  0  0  0  0  0  0
    8.2800   -2.0552    2.9920 H   0  0  0  0  0  0  0  0  0  0  0  0
    6.0127   -2.1653    2.0326 H   0  0  0  0  0  0  0  0  0  0  0  0
    4.6390   -2.1028   -0.0415 H   0  0  0  0  0  0  0  0  0  0  0  0
    5.2427   -1.3343   -1.4895 H   0  0  0  0  0  0  0  0  0  0  0  0
    4.2225    0.1219    1.0248 H   0  0  0  0  0  0  0  0  0  0  0  0
    4.9075    0.9493   -0.3757 H   0  0  0  0  0  0  0  0  0  0  0  0
    3.0451   -0.2544   -1.6820 H   0  0  0  0  0  0  0  0  0  0  0  0
    1.2184    1.0242   -2.2418 H   0  0  0  0  0  0  0  0  0  0  0  0
    0.5410   -1.1482   -1.6901 H   0  0  0  0  0  0  0  0  0  0  0  0
    0.2507   -0.7673   -0.0032 H   0  0  0  0  0  0  0  0  0  0  0  0
   -1.8705   -1.2164   -1.1156 H   0  0  0  0  0  0  0  0  0  0  0  0
   -1.5471    0.0026   -2.3530 H   0  0  0  0  0  0  0  0  0  0  0  0
   -3.8862   -0.3655   -1.9747 H   0  0  0  0  0  0  0  0  0  0  0  0
   -4.3538   -2.2648   -0.6813 H   0  0  0  0  0  0  0  0  0  0  0  0
   -3.5966   -1.3771    0.6783 H   0  0  0  0  0  0  0  0  0  0  0  0
   -8.0713   -1.1518    1.9841 H   0  0  0  0  0  0  0  0  0  0  0  0
  -10.3767   -0.5143    2.4176 H   0  0  0  0  0  0  0  0  0  0  0  0
  -11.5352    1.1353    0.9653 H   0  0  0  0  0  0  0  0  0  0  0  0
  -10.3235    2.1374   -0.9564 H   0  0  0  0  0  0  0  0  0  0  0  0
   -8.0183    1.5109   -1.4330 H   0  0  0  0  0  0  0  0  0  0  0  0
   -6.1483   -0.0524   -2.0811 H   0  0  0  0  0  0  0  0  0  0  0  0
   -5.8266    1.4317   -1.1462 H   0  0  0  0  0  0  0  0  0  0  0  0
   -1.7072    2.7321    0.2880 H   0  0  0  0  0  0  0  0  0  0  0  0
   -0.7307    1.4444    0.9993 H   0  0  0  0  0  0  0  0  0  0  0  0
   -0.4834    2.4827   -1.8725 H   0  0  0  0  0  0  0  0  0  0  0  0
    0.5535    3.0133   -0.5616 H   0  0  0  0  0  0  0  0  0  0  0  0
    7.4457   -0.1594   -1.5077 H   0  0  0  0  0  0  0  0  0  0  0  0
    9.6808   -0.0448   -0.5540 H   0  0  0  0  0  0  0  0  0  0  0  0
  1  2  1  0
  2  3  1  0
  3  4  2  0
  4  5  1  0
  5  6  2  0
  6  7  1  0
  7  8  1  0
  8  9  1  0
  9 10  1  0
 10 11  2  0
 10 12  1  0
 12 13  1  0
 13 14  1  0
 14 15  1  0
 15 16  1  0
 16 17  2  0
 16 18  1  0
 18 19  1  0
 19 20  1  0
 20 21  2  0
 20 22  1  0
 22 23  1  0
 23 24  2  0
 24 25  1  0
 25 26  2  0
 26 27  1  0
 27 28  2  0
 22 29  1  0
 15 30  1  0
 30 31  1  0
  6 32  1  0
 32 33  2  0
 33  3  1  0
 31 12  1  0
 29 18  1  0
 28 23  1  0
  1 34  1  0
  1 35  1  0
  1 36  1  0
  4 37  1  0
  5 38  1  0
  7 39  1  0
  7 40  1  0
  8 41  1  0
  8 42  1  0
  9 43  1  0
 12 44  1  0
 13 45  1  0
 13 46  1  0
 14 47  1  0
 14 48  1  0
 18 49  1  0
 19 50  1  0
 19 51  1  0
 24 52  1  0
 25 53  1  0
 26 54  1  0
 27 55  1  0
 28 56  1  0
 29 57  1  0
 29 58  1  0
 30 59  1  0
 30 60  1  0
 31 61  1  0
 31 62  1  0
 32 63  1  0
 33 64  1  0
M  END
$$$$
