
     RDKit          3D

 54 58  0  0  0  0  0  0  0  0999 V2000
   -6.5961   -2.6682   -1.7680 C   0  0  0  0  0  0  0  0  0  0  0  0
   -6.4616   -1.9665   -0.5384 O   0  0  0  0  0  0  0  0  0  0  0  0
   -5.3995   -1.1127   -0.4264 C   0  0  0  0  0  0  0  0  0  0  0  0
   -4.4596   -0.8378   -1.4181 C   0  0  0  0  0  0  0  0  0  0  0  0
   -3.4118    0.0571   -1.1699 C   0  0  0  0  0  0  0  0  0  0  0  0
   -3.2862    0.6932    0.0771 C   0  0  0  0  0  0  0  0  0  0  0  0
   -2.1438    1.6705    0.3677 C   0  0  0  0  0  0  0  0  0  0  0  0
   -2.2246    2.8850   -0.5417 C   0  0  0  0  0  0  0  0  0  0  0  0
   -3.3077    3.7902   -0.3420 C   0  0  0  0  0  0  0  0  0  0  0  0
   -4.1865    4.5331   -0.1924 N   0  0  0  0  0  0  0  0  0  0  0  0
   -1.2911    3.1182   -1.4894 C   0  0  0  0  0  0  0  0  0  0  0  0
   -1.2830    4.1741   -2.3712 N   0  0  0  0  0  0  0  0  0  0  0  0
   -0.2087    2.2590   -1.6638 O   0  0  0  0  0  0  0  0  0  0  0  0
    0.0676    1.2870   -0.7139 C   0  0  0  0  0  0  0  0  0  0  0  0
   -0.8014    0.9917    0.2660 C   0  0  0  0  0  0  0  0  0  0  0  0
   -0.4298   -0.0160    1.2964 C   0  0  0  0  0  0  0  0  0  0  0  0
   -1.1236   -0.1627    2.3002 O   0  0  0  0  0  0  0  0  0  0  0  0
    0.7987   -0.8648    1.0541 C   0  0  0  0  0  0  0  0  0  0  0  0
    1.9074   -0.0187    0.4237 C   0  0  0  0  0  0  0  0  0  0  0  0
    3.1874   -0.8320    0.2338 C   0  0  0  0  0  0  0  0  0  0  0  0
    3.1932   -1.8506   -0.7430 C   0  0  0  0  0  0  0  0  0  0  0  0
    4.3266   -2.6182   -0.9820 C   0  0  0  0  0  0  0  0  0  0  0  0
    5.4804   -2.3923   -0.2437 C   0  0  0  0  0  0  0  0  0  0  0  0
    5.5144   -1.4098    0.7534 C   0  0  0  0  0  0  0  0  0  0  0  0
    6.6960   -1.2273    1.4917 C   0  0  0  0  0  0  0  0  0  0  0  0
    6.7723   -0.2775    2.5069 C   0  0  0  0  0  0  0  0  0  0  0  0
    5.6632    0.5027    2.7948 C   0  0  0  0  0  0  0  0  0  0  0  0
    4.4814    0.3364    2.0640 C   0  0  0  0  0  0  0  0  0  0  0  0
    4.3652   -0.6155    1.0188 C   0  0  0  0  0  0  0  0  0  0  0  0
    1.4116    0.6342   -0.8820 C   0  0  0  0  0  0  0  0  0  0  0  0
   -4.2386    0.4132    1.0662 C   0  0  0  0  0  0  0  0  0  0  0  0
   -5.2837   -0.4799    0.8123 C   0  0  0  0  0  0  0  0  0  0  0  0
   -7.4611   -3.3331   -1.6839 H   0  0  0  0  0  0  0  0  0  0  0  0
   -5.7175   -3.2924   -1.9663 H   0  0  0  0  0  0  0  0  0  0  0  0
   -6.7863   -1.9772   -2.5970 H   0  0  0  0  0  0  0  0  0  0  0  0
   -4.5099   -1.3038   -2.3966 H   0  0  0  0  0  0  0  0  0  0  0  0
   -2.6940    0.2481   -1.9654 H   0  0  0  0  0  0  0  0  0  0  0  0
   -2.2407    2.0416    1.3982 H   0  0  0  0  0  0  0  0  0  0  0  0
   -0.7504    3.9645   -3.2121 H   0  0  0  0  0  0  0  0  0  0  0  0
   -2.1940    4.5809   -2.5726 H   0  0  0  0  0  0  0  0  0  0  0  0
    1.1368   -1.2645    2.0180 H   0  0  0  0  0  0  0  0  0  0  0  0
    0.5085   -1.7122    0.4224 H   0  0  0  0  0  0  0  0  0  0  0  0
    2.0974    0.8188    1.1017 H   0  0  0  0  0  0  0  0  0  0  0  0
    2.3044   -2.0647   -1.3315 H   0  0  0  0  0  0  0  0  0  0  0  0
    4.3105   -3.3935   -1.7437 H   0  0  0  0  0  0  0  0  0  0  0  0
    6.3584   -3.0021   -0.4485 H   0  0  0  0  0  0  0  0  0  0  0  0
    7.5741   -1.8365    1.2851 H   0  0  0  0  0  0  0  0  0  0  0  0
    7.6928   -0.1543    3.0714 H   0  0  0  0  0  0  0  0  0  0  0  0
    5.7100    1.2423    3.5905 H   0  0  0  0  0  0  0  0  0  0  0  0
    3.6474    0.9709    2.3489 H   0  0  0  0  0  0  0  0  0  0  0  0
    1.3206   -0.0945   -1.6949 H   0  0  0  0  0  0  0  0  0  0  0  0
    2.1485    1.3772   -1.2111 H   0  0  0  0  0  0  0  0  0  0  0  0
   -4.1719    0.8772    2.0490 H   0  0  0  0  0  0  0  0  0  0  0  0
   -6.0117   -0.6878    1.5938 H   0  0  0  0  0  0  0  0  0  0  0  0
  1  2  1  0
  2  3  1  0
  3  4  2  0
  4  5  1  0
  5  6  2  0
  6  7  1  0
  7  8  1  0
  8  9  1  0
  9 10  3  0
  8 11  2  0
 11 12  1  0
 11 13  1  0
 13 14  1  0
 14 15  2  0
 15 16  1  0
 16 17  2  0
 16 18  1  0
 18 19  1  0
 19 20  1  0
 20 21  2  0
 21 22  1  0
 22 23  2  0
 23 24  1  0
 24 25  2  0
 25 26  1  0
 26 27  2  0
 27 28  1  0
 28 29  2  0
 19 30  1  0
  6 31  1  0
 31 32  2  0
 32  3  1  0
 15  7  1  0
 29 20  1  0
 30 14  1  0
 29 24  1  0
  1 33  1  0
  1 34  1  0
  1 35  1  0
  4 36  1  0
  5 37  1  0
  7 38  1  0
 12 39  1  0
 12 40  1  0
 18 41  1  0
 18 42  1  0
 19 43  1  0
 21 44  1  0
 22 45  1  0
 23 46  1  0
 25 47  1  0
 26 48  1  0
 27 49  1  0
 28 50  1  0
 30 51  1  0
 30 52  1  0
 31 53  1  0
 32 54  1  0
M  END
$$$$
