
     RDKit          3D

 54 57  0  0  0  0  0  0  0  0999 V2000
   -2.3441   -2.5645    0.1120 C   0  0  0  0  0  0  0  0  0  0  0  0
   -2.5728   -1.1573   -0.4488 C   0  0  0  0  0  0  0  0  0  0  0  0
   -4.0830   -0.8652   -0.3426 C   0  0  0  0  0  0  0  0  0  0  0  0
   -4.4467    0.4702   -0.9383 C   0  0  0  0  0  0  0  0  0  0  0  0
   -5.4504    0.6091   -1.6368 O   0  0  0  0  0  0  0  0  0  0  0  0
   -3.6027    1.6486   -0.5339 C   0  0  0  0  0  0  0  0  0  0  0  0
   -2.1158    1.3049   -0.6631 C   0  0  0  0  0  0  0  0  0  0  0  0
   -1.2772    2.5438   -0.3412 C   0  0  0  0  0  0  0  0  0  0  0  0
    0.1867    2.2884   -0.6529 C   0  0  0  0  0  0  0  0  0  0  0  0
    0.7213    1.0823    0.1254 C   0  0  0  0  0  0  0  0  0  0  0  0
    2.2269    0.8568   -0.1704 C   0  0  0  0  0  0  0  0  0  0  0  0
    2.5528    0.4578   -1.6244 C   0  0  0  0  0  0  0  0  0  0  0  0
    2.9605   -1.0066   -1.5908 C   0  0  0  0  0  0  0  0  0  0  0  0
    3.6515   -1.1542   -0.2449 C   0  0  0  0  0  0  0  0  0  0  0  0
    4.9963   -0.6992   -0.3850 O   0  0  0  0  0  0  0  0  0  0  0  0
    2.8508   -0.2498    0.7305 C   0  0  0  0  0  0  0  0  0  0  0  0
    3.7701    0.3834    1.7961 C   0  0  0  0  0  0  0  0  0  0  0  0
    1.7620   -1.0485    1.4845 C   0  0  0  0  0  0  0  0  0  0  0  0
    0.5097   -1.3887    0.6792 C   0  0  0  0  0  0  0  0  0  0  0  0
   -0.1265   -0.2056   -0.0963 C   0  0  0  0  0  0  0  0  0  0  0  0
   -1.6852    0.0183    0.1477 C   0  0  0  0  0  0  0  0  0  0  0  0
   -1.9630    0.2098    1.6615 C   0  0  0  0  0  0  0  0  0  0  0  0
   -1.3725   -2.9629   -0.1855 H   0  0  0  0  0  0  0  0  0  0  0  0
   -2.4313   -2.5944    1.2014 H   0  0  0  0  0  0  0  0  0  0  0  0
   -3.0849   -3.2660   -0.2902 H   0  0  0  0  0  0  0  0  0  0  0  0
   -2.3371   -1.2168   -1.5220 H   0  0  0  0  0  0  0  0  0  0  0  0
   -4.6459   -1.6332   -0.8876 H   0  0  0  0  0  0  0  0  0  0  0  0
   -4.4284   -0.8844    0.6964 H   0  0  0  0  0  0  0  0  0  0  0  0
   -3.8765    1.9486    0.4821 H   0  0  0  0  0  0  0  0  0  0  0  0
   -3.8491    2.4842   -1.2001 H   0  0  0  0  0  0  0  0  0  0  0  0
   -1.9420    1.0792   -1.7275 H   0  0  0  0  0  0  0  0  0  0  0  0
   -1.3981    2.8406    0.7067 H   0  0  0  0  0  0  0  0  0  0  0  0
   -1.6184    3.3940   -0.9450 H   0  0  0  0  0  0  0  0  0  0  0  0
    0.2968    2.1405   -1.7327 H   0  0  0  0  0  0  0  0  0  0  0  0
    0.7677    3.1833   -0.3987 H   0  0  0  0  0  0  0  0  0  0  0  0
    0.6513    1.3581    1.1868 H   0  0  0  0  0  0  0  0  0  0  0  0
    2.7344    1.8137    0.0169 H   0  0  0  0  0  0  0  0  0  0  0  0
    3.4023    1.0586   -1.9743 H   0  0  0  0  0  0  0  0  0  0  0  0
    1.7379    0.6223   -2.3334 H   0  0  0  0  0  0  0  0  0  0  0  0
    2.0801   -1.6495   -1.6614 H   0  0  0  0  0  0  0  0  0  0  0  0
    3.6166   -1.2453   -2.4343 H   0  0  0  0  0  0  0  0  0  0  0  0
    3.6889   -2.1979    0.0833 H   0  0  0  0  0  0  0  0  0  0  0  0
    5.4434   -1.2936   -1.0115 H   0  0  0  0  0  0  0  0  0  0  0  0
    3.1985    1.0192    2.4820 H   0  0  0  0  0  0  0  0  0  0  0  0
    4.5430    1.0170    1.3473 H   0  0  0  0  0  0  0  0  0  0  0  0
    4.2698   -0.3894    2.3909 H   0  0  0  0  0  0  0  0  0  0  0  0
    1.4348   -0.4801    2.3665 H   0  0  0  0  0  0  0  0  0  0  0  0
    2.1915   -1.9757    1.8861 H   0  0  0  0  0  0  0  0  0  0  0  0
    0.7544   -2.1879   -0.0292 H   0  0  0  0  0  0  0  0  0  0  0  0
   -0.1929   -1.8385    1.3829 H   0  0  0  0  0  0  0  0  0  0  0  0
   -0.0426   -0.4601   -1.1627 H   0  0  0  0  0  0  0  0  0  0  0  0
   -3.0091    0.4507    1.8678 H   0  0  0  0  0  0  0  0  0  0  0  0
   -1.3655    1.0199    2.0888 H   0  0  0  0  0  0  0  0  0  0  0  0
   -1.7383   -0.6879    2.2426 H   0  0  0  0  0  0  0  0  0  0  0  0
  1  2  1  0
  2  3  1  0
  3  4  1  0
  4  5  2  0
  4  6  1  0
  6  7  1  0
  7  8  1  0
  8  9  1  0
  9 10  1  0
 10 11  1  0
 11 12  1  0
 12 13  1  0
 13 14  1  0
 14 15  1  0
 14 16  1  0
 16 17  1  0
 16 18  1  0
 18 19  1  0
 19 20  1  0
 20 21  1  0
 21 22  1  0
 21  2  1  0
 21  7  1  0
 20 10  1  0
 16 11  1  0
  1 23  1  0
  1 24  1  0
  1 25  1  0
  2 26  1  0
  3 27  1  0
  3 28  1  0
  6 29  1  0
  6 30  1  0
  7 31  1  0
  8 32  1  0
  8 33  1  0
  9 34  1  0
  9 35  1  0
 10 36  1  0
 11 37  1  0
 12 38  1  0
 12 39  1  0
 13 40  1  0
 13 41  1  0
 14 42  1  0
 15 43  1  0
 17 44  1  0
 17 45  1  0
 17 46  1  0
 18 47  1  0
 18 48  1  0
 19 49  1  0
 19 50  1  0
 20 51  1  0
 22 52  1  0
 22 53  1  0
 22 54  1  0
M  END
$$$$
