
     RDKit          3D

 65 69  0  0  0  0  0  0  0  0999 V2000
    2.7657   -5.5114   -0.2266 C   0  0  0  0  0  0  0  0  0  0  0  0
    3.1274   -4.0502   -0.0285 C   0  0  0  0  0  0  0  0  0  0  0  0
    1.9196   -3.2929   -0.0593 O   0  0  0  0  0  0  0  0  0  0  0  0
    2.0162   -1.9323    0.1400 C   0  0  0  0  0  0  0  0  0  0  0  0
    3.2207   -1.2303    0.3057 C   0  0  0  0  0  0  0  0  0  0  0  0
    3.2517    0.1608    0.5045 C   0  0  0  0  0  0  0  0  0  0  0  0
    4.4557    0.8401    0.6705 N   0  0  0  0  0  0  0  0  0  0  0  0
    4.4830    2.1906    1.2460 C   0  0  0  0  0  0  0  0  0  0  0  0
    5.8688    2.4871    1.8124 C   0  0  0  0  0  0  0  0  0  0  0  0
    6.9506    2.3835    0.7399 C   0  0  0  0  0  0  0  0  0  0  0  0
    7.2974    3.6977    0.3005 O   0  0  0  0  0  0  0  0  0  0  0  0
    6.5244    1.5493   -0.4643 C   0  0  0  0  0  0  0  0  0  0  0  0
    5.6489    0.3741   -0.0473 C   0  0  0  0  0  0  0  0  0  0  0  0
    2.0133    0.8133    0.5449 C   0  0  0  0  0  0  0  0  0  0  0  0
    0.8032    0.1249    0.3772 C   0  0  0  0  0  0  0  0  0  0  0  0
    0.7812   -1.2514    0.1689 C   0  0  0  0  0  0  0  0  0  0  0  0
   -0.3963   -1.9941   -0.0005 N   0  0  0  0  0  0  0  0  0  0  0  0
   -1.7518   -1.7048    0.0061 C   0  0  0  0  0  0  0  0  0  0  0  0
   -2.5543   -2.7402   -0.2488 N   0  0  0  0  0  0  0  0  0  0  0  0
   -3.8799   -2.4975   -0.2412 C   0  0  0  0  0  0  0  0  0  0  0  0
   -4.4722   -1.2666   -0.0037 C   0  0  0  0  0  0  0  0  0  0  0  0
   -3.5575   -0.2459    0.2470 C   0  0  0  0  0  0  0  0  0  0  0  0
   -2.2177   -0.4771    0.2606 N   0  0  0  0  0  0  0  0  0  0  0  0
   -3.9996    1.0708    0.5393 N   0  0  0  0  0  0  0  0  0  0  0  0
   -2.9907    1.8584    1.2544 C   0  0  0  0  0  0  0  0  0  0  0  0
   -4.8113    1.7543   -0.3877 C   0  0  0  0  0  0  0  0  0  0  0  0
   -4.4108    2.9741   -0.9760 C   0  0  0  0  0  0  0  0  0  0  0  0
   -5.2043    3.6427   -1.9141 C   0  0  0  0  0  0  0  0  0  0  0  0
   -6.4286    3.1111   -2.2880 C   0  0  0  0  0  0  0  0  0  0  0  0
   -6.8511    1.9136   -1.7193 C   0  0  0  0  0  0  0  0  0  0  0  0
   -6.0484    1.2300   -0.7812 C   0  0  0  0  0  0  0  0  0  0  0  0
   -6.6451    0.0169   -0.1754 C   0  0  0  0  0  0  0  0  0  0  0  0
   -7.8695    0.0436   -0.0081 O   0  0  0  0  0  0  0  0  0  0  0  0
   -5.8971   -1.1394    0.0745 N   0  0  0  0  0  0  0  0  0  0  0  0
   -6.6643   -2.3380    0.4134 C   0  0  0  0  0  0  0  0  0  0  0  0
    3.6604   -6.1404   -0.2111 H   0  0  0  0  0  0  0  0  0  0  0  0
    2.0820   -5.8488    0.5598 H   0  0  0  0  0  0  0  0  0  0  0  0
    2.2488   -5.6545   -1.1815 H   0  0  0  0  0  0  0  0  0  0  0  0
    3.7945   -3.7346   -0.8389 H   0  0  0  0  0  0  0  0  0  0  0  0
    3.6259   -3.9350    0.9408 H   0  0  0  0  0  0  0  0  0  0  0  0
    4.1610   -1.7676    0.3076 H   0  0  0  0  0  0  0  0  0  0  0  0
    4.2105    2.9333    0.4859 H   0  0  0  0  0  0  0  0  0  0  0  0
    3.7663    2.2719    2.0729 H   0  0  0  0  0  0  0  0  0  0  0  0
    6.0819    1.7516    2.5990 H   0  0  0  0  0  0  0  0  0  0  0  0
    5.8735    3.4761    2.2839 H   0  0  0  0  0  0  0  0  0  0  0  0
    7.8517    1.9554    1.1942 H   0  0  0  0  0  0  0  0  0  0  0  0
    8.0134    3.6116   -0.3521 H   0  0  0  0  0  0  0  0  0  0  0  0
    7.4143    1.1902   -0.9947 H   0  0  0  0  0  0  0  0  0  0  0  0
    5.9850    2.1776   -1.1855 H   0  0  0  0  0  0  0  0  0  0  0  0
    6.2154   -0.3079    0.5984 H   0  0  0  0  0  0  0  0  0  0  0  0
    5.3786   -0.1744   -0.9586 H   0  0  0  0  0  0  0  0  0  0  0  0
    1.9565    1.8891    0.6825 H   0  0  0  0  0  0  0  0  0  0  0  0
   -0.1166    0.6973    0.4042 H   0  0  0  0  0  0  0  0  0  0  0  0
   -0.2386   -2.9774   -0.1842 H   0  0  0  0  0  0  0  0  0  0  0  0
   -4.4689   -3.3828   -0.4609 H   0  0  0  0  0  0  0  0  0  0  0  0
   -2.1405    2.1277    0.6167 H   0  0  0  0  0  0  0  0  0  0  0  0
   -2.6117    1.3106    2.1266 H   0  0  0  0  0  0  0  0  0  0  0  0
   -3.4310    2.7799    1.6546 H   0  0  0  0  0  0  0  0  0  0  0  0
   -3.4508    3.4223   -0.7344 H   0  0  0  0  0  0  0  0  0  0  0  0
   -4.8586    4.5770   -2.3498 H   0  0  0  0  0  0  0  0  0  0  0  0
   -7.0571    3.6264   -3.0094 H   0  0  0  0  0  0  0  0  0  0  0  0
   -7.8236    1.5103   -1.9978 H   0  0  0  0  0  0  0  0  0  0  0  0
   -7.6572   -2.0929    0.8018 H   0  0  0  0  0  0  0  0  0  0  0  0
   -6.1498   -2.9132    1.1904 H   0  0  0  0  0  0  0  0  0  0  0  0
   -6.7926   -2.9434   -0.4895 H   0  0  0  0  0  0  0  0  0  0  0  0
  1  2  1  0
  2  3  1  0
  3  4  1  0
  4  5  2  0
  5  6  1  0
  6  7  1  0
  7  8  1  0
  8  9  1  0
  9 10  1  0
 10 11  1  0
 10 12  1  0
 12 13  1  0
  6 14  2  0
 14 15  1  0
 15 16  2  0
 16 17  1  0
 17 18  1  0
 18 19  2  0
 19 20  1  0
 20 21  2  0
 21 22  1  0
 22 23  2  0
 22 24  1  0
 24 25  1  0
 24 26  1  0
 26 27  2  0
 27 28  1  0
 28 29  2  0
 29 30  1  0
 30 31  2  0
 31 32  1  0
 32 33  2  0
 32 34  1  0
 34 35  1  0
 16  4  1  0
 23 18  1  0
 31 26  1  0
 13  7  1  0
 34 21  1  0
  1 36  1  0
  1 37  1  0
  1 38  1  0
  2 39  1  0
  2 40  1  0
  5 41  1  0
  8 42  1  0
  8 43  1  0
  9 44  1  0
  9 45  1  0
 10 46  1  0
 11 47  1  0
 12 48  1  0
 12 49  1  0
 13 50  1  0
 13 51  1  0
 14 52  1  0
 15 53  1  0
 17 54  1  0
 20 55  1  0
 25 56  1  0
 25 57  1  0
 25 58  1  0
 27 59  1  0
 28 60  1  0
 29 61  1  0
 30 62  1  0
 35 63  1  0
 35 64  1  0
 35 65  1  0
M  END
$$$$
