
     RDKit          3D

 52 54  0  0  0  0  0  0  0  0999 V2000
   -3.1690    4.3489   -3.2612 C   0  0  0  0  0  0  0  0  0  0  0  0
   -3.1741    3.2712   -2.2530 C   0  0  0  0  0  0  0  0  0  0  0  0
   -4.2886    2.6465   -1.8601 N   0  0  0  0  0  0  0  0  0  0  0  0
   -3.8030    1.7695   -0.9659 N   0  0  0  0  0  0  0  0  0  0  0  0
   -2.4472    1.8933   -0.8247 C   0  0  0  0  0  0  0  0  0  0  0  0
   -1.6653    1.0654    0.1412 C   0  0  2  0  0  0  0  0  0  0  0  0
   -0.1785    1.4473    0.1568 C   0  0  0  0  0  0  0  0  0  0  0  0
    0.5026    0.1424    0.5529 C   0  0  2  0  0  0  0  0  0  0  0  0
    1.9158    0.1160    0.2314 N   0  0  0  0  0  0  0  0  0  0  0  0
    2.8400    0.6947    1.0798 C   0  0  0  0  0  0  0  0  0  0  0  0
    2.5399    1.1761    2.1653 O   0  0  0  0  0  0  0  0  0  0  0  0
    4.2498    0.6784    0.5127 C   0  0  0  0  0  0  0  0  0  0  0  0
    5.3287    1.0944    1.5232 C   0  0  0  0  0  0  0  0  0  0  0  0
    6.6575    1.3330    0.8016 C   0  0  0  0  0  0  0  0  0  0  0  0
    5.5200    0.0349    2.6111 C   0  0  0  0  0  0  0  0  0  0  0  0
   -0.3230   -0.8974   -0.2077 C   0  0  0  0  0  0  0  0  0  0  0  0
   -1.6773   -0.3550   -0.2256 N   0  0  0  0  0  0  0  0  0  0  0  0
   -2.8247   -1.1211   -0.0704 C   0  0  0  0  0  0  0  0  0  0  0  0
   -3.8614   -0.6098    0.3556 O   0  0  0  0  0  0  0  0  0  0  0  0
   -2.7532   -2.5234   -0.4331 C   0  0  0  0  0  0  0  0  0  0  0  0
   -2.1266   -3.1190   -1.5205 C   0  0  0  0  0  0  0  0  0  0  0  0
   -2.3394   -4.5146   -1.4512 C   0  0  0  0  0  0  0  0  0  0  0  0
   -3.1074   -4.7506   -0.3367 C   0  0  0  0  0  0  0  0  0  0  0  0
   -3.3858   -3.5434    0.2517 N   0  0  0  0  0  0  0  0  0  0  0  0
   -4.1882   -3.3887    1.4483 C   0  0  0  0  0  0  0  0  0  0  0  0
   -2.0263    2.8500   -1.6311 N   0  0  0  0  0  0  0  0  0  0  0  0
   -2.8779    5.2991   -2.8017 H   0  0  0  0  0  0  0  0  0  0  0  0
   -4.1559    4.4768   -3.7199 H   0  0  0  0  0  0  0  0  0  0  0  0
   -2.4537    4.1163   -4.0562 H   0  0  0  0  0  0  0  0  0  0  0  0
   -4.4200    1.1035   -0.5055 H   0  0  0  0  0  0  0  0  0  0  0  0
   -2.0868    1.1611    1.1500 H   0  0  0  0  0  0  0  0  0  0  0  0
    0.1769    1.7639   -0.8322 H   0  0  0  0  0  0  0  0  0  0  0  0
    0.0306    2.2644    0.8552 H   0  0  0  0  0  0  0  0  0  0  0  0
    0.3785   -0.0135    1.6334 H   0  0  0  0  0  0  0  0  0  0  0  0
    2.1884   -0.0093   -0.7363 H   0  0  0  0  0  0  0  0  0  0  0  0
    4.2544    1.3754   -0.3341 H   0  0  0  0  0  0  0  0  0  0  0  0
    4.4640   -0.3234    0.1215 H   0  0  0  0  0  0  0  0  0  0  0  0
    5.0330    2.0352    2.0044 H   0  0  0  0  0  0  0  0  0  0  0  0
    7.0064    0.4197    0.3067 H   0  0  0  0  0  0  0  0  0  0  0  0
    6.5560    2.1163    0.0403 H   0  0  0  0  0  0  0  0  0  0  0  0
    7.4307    1.6538    1.5093 H   0  0  0  0  0  0  0  0  0  0  0  0
    4.6078   -0.0965    3.2024 H   0  0  0  0  0  0  0  0  0  0  0  0
    6.3171    0.3292    3.3021 H   0  0  0  0  0  0  0  0  0  0  0  0
    5.7866   -0.9376    2.1807 H   0  0  0  0  0  0  0  0  0  0  0  0
    0.0111   -0.9926   -1.2470 H   0  0  0  0  0  0  0  0  0  0  0  0
   -0.2703   -1.8770    0.2789 H   0  0  0  0  0  0  0  0  0  0  0  0
   -1.5812   -2.5951   -2.2941 H   0  0  0  0  0  0  0  0  0  0  0  0
   -1.9773   -5.2667   -2.1424 H   0  0  0  0  0  0  0  0  0  0  0  0
   -3.4883   -5.6770    0.0720 H   0  0  0  0  0  0  0  0  0  0  0  0
   -3.7035   -2.6683    2.1140 H   0  0  0  0  0  0  0  0  0  0  0  0
   -4.2612   -4.3531    1.9572 H   0  0  0  0  0  0  0  0  0  0  0  0
   -5.1810   -3.0435    1.1510 H   0  0  0  0  0  0  0  0  0  0  0  0
  1  2  1  0
  2  3  2  0
  3  4  1  0
  4  5  1  0
  5  6  1  0
  6  7  1  0
  7  8  1  0
  8  9  1  0
  9 10  1  0
 10 11  2  0
 10 12  1  0
 12 13  1  0
 13 14  1  0
 13 15  1  0
  8 16  1  0
 16 17  1  0
 17 18  1  0
 18 19  2  0
 18 20  1  0
 20 21  2  0
 21 22  1  0
 22 23  2  0
 23 24  1  0
 24 25  1  0
  5 26  2  0
 26  2  1  0
 17  6  1  0
 24 20  1  0
  1 27  1  0
  1 28  1  0
  1 29  1  0
  4 30  1  0
  6 31  1  1
  7 32  1  0
  7 33  1  0
  8 34  1  1
  9 35  1  0
 12 36  1  0
 12 37  1  0
 13 38  1  0
 14 39  1  0
 14 40  1  0
 14 41  1  0
 15 42  1  0
 15 43  1  0
 15 44  1  0
 16 45  1  0
 16 46  1  0
 21 47  1  0
 22 48  1  0
 23 49  1  0
 25 50  1  0
 25 51  1  0
 25 52  1  0
M  END
$$$$
