
     RDKit          3D

 41 44  0  0  0  0  0  0  0  0999 V2000
    4.4187   -1.1039    1.9479 C   0  0  0  0  0  0  0  0  0  0  0  0
    4.5418   -0.6687    0.5352 C   0  0  0  0  0  0  0  0  0  0  0  0
    5.7335   -0.7008   -0.0807 N   0  0  0  0  0  0  0  0  0  0  0  0
    5.4672   -0.2301   -1.3167 N   0  0  0  0  0  0  0  0  0  0  0  0
    4.1561    0.0880   -1.5157 C   0  0  0  0  0  0  0  0  0  0  0  0
    3.6175    0.5810   -2.6480 N   0  0  0  0  0  0  0  0  0  0  0  0
    2.2837    0.8099   -2.5297 C   0  0  0  0  0  0  0  0  0  0  0  0
    1.5161    0.5436   -1.3991 C   0  0  0  0  0  0  0  0  0  0  0  0
    0.0773    0.8537   -1.4344 C   0  0  0  0  0  0  0  0  0  0  0  0
   -0.2545    1.9801   -1.7918 O   0  0  0  0  0  0  0  0  0  0  0  0
   -0.8242   -0.1394   -1.0850 N   0  0  0  0  0  0  0  0  0  0  0  0
   -0.5545   -1.5729   -1.0810 C   0  0  0  0  0  0  0  0  0  0  0  0
   -1.8943   -2.2206   -0.7694 C   0  0  0  0  0  0  0  0  0  0  0  0
   -2.8925   -1.2515   -1.3899 C   0  0  0  0  0  0  0  0  0  0  0  0
   -2.2620    0.1279   -1.1495 C   0  0  1  0  0  0  0  0  0  0  0  0
   -2.8072    0.7938    0.1052 C   0  0  0  0  0  0  0  0  0  0  0  0
   -3.9325    1.6296   -0.0023 C   0  0  0  0  0  0  0  0  0  0  0  0
   -4.4795    2.2445    1.1269 C   0  0  0  0  0  0  0  0  0  0  0  0
   -3.9089    2.0256    2.3773 C   0  0  0  0  0  0  0  0  0  0  0  0
   -4.5829    2.7786    3.7699 Cl  0  0  0  0  0  0  0  0  0  0  0  0
   -2.7968    1.1986    2.5079 C   0  0  0  0  0  0  0  0  0  0  0  0
   -2.2499    0.5847    1.3774 C   0  0  0  0  0  0  0  0  0  0  0  0
    2.1331    0.0547   -0.2422 C   0  0  0  0  0  0  0  0  0  0  0  0
    3.5126   -0.1896   -0.3185 C   0  0  0  0  0  0  0  0  0  0  0  0
    3.6049   -1.8280    2.0567 H   0  0  0  0  0  0  0  0  0  0  0  0
    5.3392   -1.5765    2.3058 H   0  0  0  0  0  0  0  0  0  0  0  0
    4.2046   -0.2448    2.5915 H   0  0  0  0  0  0  0  0  0  0  0  0
    6.2207   -0.1414   -1.9864 H   0  0  0  0  0  0  0  0  0  0  0  0
    1.8201    1.2327   -3.4194 H   0  0  0  0  0  0  0  0  0  0  0  0
    0.2033   -1.8361   -0.3404 H   0  0  0  0  0  0  0  0  0  0  0  0
   -0.1962   -1.8559   -2.0770 H   0  0  0  0  0  0  0  0  0  0  0  0
   -2.0480   -2.2771    0.3143 H   0  0  0  0  0  0  0  0  0  0  0  0
   -1.9744   -3.2325   -1.1761 H   0  0  0  0  0  0  0  0  0  0  0  0
   -3.9005   -1.3640   -0.9790 H   0  0  0  0  0  0  0  0  0  0  0  0
   -2.9459   -1.4440   -2.4691 H   0  0  0  0  0  0  0  0  0  0  0  0
   -2.4598    0.7808   -2.0091 H   0  0  0  0  0  0  0  0  0  0  0  0
   -4.3872    1.8140   -0.9738 H   0  0  0  0  0  0  0  0  0  0  0  0
   -5.3455    2.8923    1.0222 H   0  0  0  0  0  0  0  0  0  0  0  0
   -2.3490    1.0296    3.4831 H   0  0  0  0  0  0  0  0  0  0  0  0
   -1.3796   -0.0542    1.5011 H   0  0  0  0  0  0  0  0  0  0  0  0
    1.5753   -0.1118    0.6723 H   0  0  0  0  0  0  0  0  0  0  0  0
  1  2  1  0
  2  3  2  0
  3  4  1  0
  4  5  1  0
  5  6  2  0
  6  7  1  0
  7  8  2  0
  8  9  1  0
  9 10  2  0
  9 11  1  0
 11 12  1  0
 12 13  1  0
 13 14  1  0
 14 15  1  0
 15 16  1  0
 16 17  2  0
 17 18  1  0
 18 19  2  0
 19 20  1  0
 19 21  1  0
 21 22  2  0
  8 23  1  0
 23 24  2  0
 24  2  1  0
 24  5  1  0
 15 11  1  0
 22 16  1  0
  1 25  1  0
  1 26  1  0
  1 27  1  0
  4 28  1  0
  7 29  1  0
 12 30  1  0
 12 31  1  0
 13 32  1  0
 13 33  1  0
 14 34  1  0
 14 35  1  0
 15 36  1  6
 17 37  1  0
 18 38  1  0
 21 39  1  0
 22 40  1  0
 23 41  1  0
M  END
$$$$
