
     RDKit          3D

 52 54  0  0  0  0  0  0  0  0999 V2000
    8.0231   -0.3343    0.3397 C   0  0  0  0  0  0  0  0  0  0  0  0
    7.5445    0.4869    1.5186 C   0  0  0  0  0  0  0  0  0  0  0  0
    5.9236    0.0276    2.0948 S   0  0  0  0  0  6  0  0  0  0  0  0
    5.5385    0.9595    3.1387 O   0  0  0  0  0  0  0  0  0  0  0  0
    5.9135   -1.4013    2.3464 O   0  0  0  0  0  0  0  0  0  0  0  0
    4.8494    0.3435    0.7140 C   0  0  0  0  0  0  0  0  0  0  0  0
    4.4806    1.6587    0.4240 C   0  0  0  0  0  0  0  0  0  0  0  0
    3.6254    1.9127   -0.6493 C   0  0  0  0  0  0  0  0  0  0  0  0
    3.1265    0.8562   -1.4253 C   0  0  0  0  0  0  0  0  0  0  0  0
    2.1924    1.1322   -2.5828 C   0  0  0  0  0  0  0  0  0  0  0  0
    0.8353    0.4476   -2.4772 C   0  0  0  0  0  0  0  0  0  0  0  0
    0.3756   -0.1662   -3.4362 O   0  0  0  0  0  0  0  0  0  0  0  0
    0.2060    0.6434   -1.2578 N   0  0  0  0  0  0  0  0  0  0  0  0
   -1.0640    0.1760   -0.8593 C   0  0  0  0  0  0  0  0  0  0  0  0
   -1.9433   -0.5105   -1.6930 C   0  0  0  0  0  0  0  0  0  0  0  0
   -3.1921   -0.9384   -1.2170 C   0  0  0  0  0  0  0  0  0  0  0  0
   -4.2163   -1.7779   -2.3380 Cl  0  0  0  0  0  0  0  0  0  0  0  0
   -3.5982   -0.6942    0.1088 C   0  0  0  0  0  0  0  0  0  0  0  0
   -4.9161   -1.1390    0.6069 C   0  0  0  0  0  0  0  0  0  0  0  0
   -5.0623   -2.4508    1.0934 C   0  0  0  0  0  0  0  0  0  0  0  0
   -6.2923   -2.9037    1.5657 C   0  0  0  0  0  0  0  0  0  0  0  0
   -7.3908   -2.0512    1.5606 C   0  0  0  0  0  0  0  0  0  0  0  0
   -7.2656   -0.7429    1.0863 C   0  0  0  0  0  0  0  0  0  0  0  0
   -6.0364   -0.2762    0.6066 C   0  0  0  0  0  0  0  0  0  0  0  0
   -5.8102    0.9819    0.1119 O   0  0  0  0  0  0  0  0  0  0  0  0
   -6.8671    1.9218    0.1572 C   0  0  0  0  0  0  0  0  0  0  0  0
   -6.4177    3.1003   -0.3299 F   0  0  0  0  0  0  0  0  0  0  0  0
   -7.9084    1.5241   -0.6045 F   0  0  0  0  0  0  0  0  0  0  0  0
   -7.2877    2.1273    1.4237 F   0  0  0  0  0  0  0  0  0  0  0  0
   -2.6977    0.0027    0.9353 C   0  0  0  0  0  0  0  0  0  0  0  0
   -3.0725    0.3690    2.5878 Cl  0  0  0  0  0  0  0  0  0  0  0  0
   -1.4517    0.4317    0.4579 C   0  0  0  0  0  0  0  0  0  0  0  0
    3.5040   -0.4596   -1.1171 C   0  0  0  0  0  0  0  0  0  0  0  0
    4.3565   -0.7195   -0.0433 C   0  0  0  0  0  0  0  0  0  0  0  0
    9.0453   -0.0484    0.0724 H   0  0  0  0  0  0  0  0  0  0  0  0
    8.0193   -1.4040    0.5710 H   0  0  0  0  0  0  0  0  0  0  0  0
    7.3920   -0.1791   -0.5400 H   0  0  0  0  0  0  0  0  0  0  0  0
    7.5217    1.5524    1.2712 H   0  0  0  0  0  0  0  0  0  0  0  0
    8.2224    0.3525    2.3681 H   0  0  0  0  0  0  0  0  0  0  0  0
    4.8450    2.4857    1.0294 H   0  0  0  0  0  0  0  0  0  0  0  0
    3.3488    2.9424   -0.8705 H   0  0  0  0  0  0  0  0  0  0  0  0
    2.0089    2.2081   -2.6896 H   0  0  0  0  0  0  0  0  0  0  0  0
    2.6818    0.7991   -3.5063 H   0  0  0  0  0  0  0  0  0  0  0  0
    0.7437    1.1303   -0.5492 H   0  0  0  0  0  0  0  0  0  0  0  0
   -1.6898   -0.7243   -2.7267 H   0  0  0  0  0  0  0  0  0  0  0  0
   -4.2110   -3.1290    1.1021 H   0  0  0  0  0  0  0  0  0  0  0  0
   -6.3926   -3.9210    1.9337 H   0  0  0  0  0  0  0  0  0  0  0  0
   -8.3521   -2.4044    1.9271 H   0  0  0  0  0  0  0  0  0  0  0  0
   -8.1566   -0.1218    1.1037 H   0  0  0  0  0  0  0  0  0  0  0  0
   -0.7868    0.9663    1.1325 H   0  0  0  0  0  0  0  0  0  0  0  0
    3.1291   -1.2945   -1.7082 H   0  0  0  0  0  0  0  0  0  0  0  0
    4.6265   -1.7473    0.1913 H   0  0  0  0  0  0  0  0  0  0  0  0
  1  2  1  0
  2  3  1  0
  3  4  2  0
  3  5  2  0
  3  6  1  0
  6  7  2  0
  7  8  1  0
  8  9  2  0
  9 10  1  0
 10 11  1  0
 11 12  2  0
 11 13  1  0
 13 14  1  0
 14 15  2  0
 15 16  1  0
 16 17  1  0
 16 18  2  0
 18 19  1  0
 19 20  2  0
 20 21  1  0
 21 22  2  0
 22 23  1  0
 23 24  2  0
 24 25  1  0
 25 26  1  0
 26 27  1  0
 26 28  1  0
 26 29  1  0
 18 30  1  0
 30 31  1  0
 30 32  2  0
  9 33  1  0
 33 34  2  0
 34  6  1  0
 32 14  1  0
 24 19  1  0
  1 35  1  0
  1 36  1  0
  1 37  1  0
  2 38  1  0
  2 39  1  0
  7 40  1  0
  8 41  1  0
 10 42  1  0
 10 43  1  0
 13 44  1  0
 15 45  1  0
 20 46  1  0
 21 47  1  0
 22 48  1  0
 23 49  1  0
 32 50  1  0
 33 51  1  0
 34 52  1  0
M  END
$$$$
