
     RDKit          3D

 53 57  0  0  0  0  0  0  0  0999 V2000
    3.4558   -1.7245   -1.1425 C   0  0  0  0  0  0  0  0  0  0  0  0
    2.7979   -1.2468    0.0483 N   0  0  0  0  0  0  0  0  0  0  0  0
    3.3624   -1.0258    1.2857 C   0  0  0  0  0  0  0  0  0  0  0  0
    4.6807   -1.1932    1.5420 N   0  0  0  0  0  0  0  0  0  0  0  0
    5.7190   -0.3936    0.9936 C   0  0  0  0  0  0  0  0  0  0  0  0
    5.4975    0.7175    0.1702 C   0  0  0  0  0  0  0  0  0  0  0  0
    6.5718    1.4498   -0.3498 C   0  0  0  0  0  0  0  0  0  0  0  0
    7.8957    1.0882   -0.0601 C   0  0  0  0  0  0  0  0  0  0  0  0
    9.0371    1.9111   -0.6008 C   0  0  0  0  0  0  0  0  0  0  0  0
    8.9308    2.1359   -1.9403 F   0  0  0  0  0  0  0  0  0  0  0  0
    9.1084    3.1406   -0.0201 F   0  0  0  0  0  0  0  0  0  0  0  0
   10.2584    1.3388   -0.4151 F   0  0  0  0  0  0  0  0  0  0  0  0
    8.1223   -0.0248    0.7601 C   0  0  0  0  0  0  0  0  0  0  0  0
    7.0455   -0.7562    1.2751 C   0  0  0  0  0  0  0  0  0  0  0  0
    2.4439   -0.7255    2.1772 N   0  0  0  0  0  0  0  0  0  0  0  0
    1.2616   -0.6587    1.4861 C   0  0  0  0  0  0  0  0  0  0  0  0
   -0.0238   -0.3433    1.9499 C   0  0  0  0  0  0  0  0  0  0  0  0
   -1.0884   -0.3524    1.0391 C   0  0  0  0  0  0  0  0  0  0  0  0
   -2.3180   -0.0135    1.5662 O   0  0  0  0  0  0  0  0  0  0  0  0
   -3.4513   -0.5580    1.0069 C   0  0  0  0  0  0  0  0  0  0  0  0
   -3.5877   -1.9152    0.7322 C   0  0  0  0  0  0  0  0  0  0  0  0
   -4.7575   -2.3336    0.1232 C   0  0  0  0  0  0  0  0  0  0  0  0
   -5.7825   -1.5078   -0.1915 N   0  0  0  0  0  0  0  0  0  0  0  0
   -5.6418   -0.2009    0.1508 C   0  0  0  0  0  0  0  0  0  0  0  0
   -6.7722    0.6554   -0.1985 C   0  0  0  0  0  0  0  0  0  0  0  0
   -6.9519    1.9297    0.1045 N   0  0  0  0  0  0  0  0  0  0  0  0
   -8.1323    2.2999   -0.4881 C   0  0  0  0  0  0  0  0  0  0  0  0
   -8.6778    1.2462   -1.1875 C   0  0  0  0  0  0  0  0  0  0  0  0
   -9.8886    1.1233   -2.0102 C   0  0  0  0  0  0  0  0  0  0  0  0
   -9.6252    0.4948   -3.1843 F   0  0  0  0  0  0  0  0  0  0  0  0
  -10.4303    2.3262   -2.3164 F   0  0  0  0  0  0  0  0  0  0  0  0
  -10.8489    0.3975   -1.3846 F   0  0  0  0  0  0  0  0  0  0  0  0
   -7.8191    0.2021   -0.9690 N   0  0  0  0  0  0  0  0  0  0  0  0
   -4.5053    0.3115    0.7540 C   0  0  0  0  0  0  0  0  0  0  0  0
   -0.8656   -0.6279   -0.3183 C   0  0  0  0  0  0  0  0  0  0  0  0
    0.4094   -0.9633   -0.7937 C   0  0  0  0  0  0  0  0  0  0  0  0
    1.4517   -0.9697    0.1412 C   0  0  0  0  0  0  0  0  0  0  0  0
    3.5649   -0.8839   -1.8310 H   0  0  0  0  0  0  0  0  0  0  0  0
    4.4320   -2.1463   -0.9035 H   0  0  0  0  0  0  0  0  0  0  0  0
    2.8391   -2.5050   -1.5982 H   0  0  0  0  0  0  0  0  0  0  0  0
    4.8522   -1.2699    2.5456 H   0  0  0  0  0  0  0  0  0  0  0  0
    4.4887    1.0577   -0.0558 H   0  0  0  0  0  0  0  0  0  0  0  0
    6.3673    2.3187   -0.9756 H   0  0  0  0  0  0  0  0  0  0  0  0
    9.1385   -0.3299    1.0084 H   0  0  0  0  0  0  0  0  0  0  0  0
    7.2496   -1.6236    1.9022 H   0  0  0  0  0  0  0  0  0  0  0  0
   -0.1816   -0.0965    2.9962 H   0  0  0  0  0  0  0  0  0  0  0  0
   -2.7978   -2.6226    0.9595 H   0  0  0  0  0  0  0  0  0  0  0  0
   -4.9019   -3.3712   -0.1643 H   0  0  0  0  0  0  0  0  0  0  0  0
   -8.5166    3.3101   -0.3958 H   0  0  0  0  0  0  0  0  0  0  0  0
   -7.8755   -0.7392   -1.3418 H   0  0  0  0  0  0  0  0  0  0  0  0
   -4.4305    1.3665    0.9945 H   0  0  0  0  0  0  0  0  0  0  0  0
   -1.6847   -0.5844   -1.0337 H   0  0  0  0  0  0  0  0  0  0  0  0
    0.5745   -1.2004   -1.8420 H   0  0  0  0  0  0  0  0  0  0  0  0
  1  2  1  0
  2  3  1  0
  3  4  1  0
  4  5  1  0
  5  6  2  0
  6  7  1  0
  7  8  2  0
  8  9  1  0
  9 10  1  0
  9 11  1  0
  9 12  1  0
  8 13  1  0
 13 14  2  0
  3 15  2  0
 15 16  1  0
 16 17  2  0
 17 18  1  0
 18 19  1  0
 19 20  1  0
 20 21  2  0
 21 22  1  0
 22 23  2  0
 23 24  1  0
 24 25  1  0
 25 26  2  0
 26 27  1  0
 27 28  2  0
 28 29  1  0
 29 30  1  0
 29 31  1  0
 29 32  1  0
 28 33  1  0
 24 34  2  0
 18 35  2  0
 35 36  1  0
 36 37  2  0
 37  2  1  0
 14  5  1  0
 37 16  1  0
 34 20  1  0
 33 25  1  0
  1 38  1  0
  1 39  1  0
  1 40  1  0
  4 41  1  0
  6 42  1  0
  7 43  1  0
 13 44  1  0
 14 45  1  0
 17 46  1  0
 21 47  1  0
 22 48  1  0
 27 49  1  0
 33 50  1  0
 34 51  1  0
 35 52  1  0
 36 53  1  0
M  END
$$$$
