
     RDKit          3D

 59 59  0  0  0  0  0  0  0  0999 V2000
    7.5583   -1.3057   -2.5793 C   0  0  0  0  0  0  0  0  0  0  0  0
    6.6336   -1.3131   -1.3714 C   0  0  0  0  0  0  0  0  0  0  0  0
    5.2290   -0.8361   -1.7432 C   0  0  0  0  0  0  0  0  0  0  0  0
    4.2332   -0.9088   -0.5798 C   0  0  0  0  0  0  0  0  0  0  0  0
    4.5231    0.1154    0.5260 C   0  0  0  0  0  0  0  0  0  0  0  0
    3.5293    0.1011    1.6988 C   0  0  2  0  0  0  0  0  0  0  0  0
    3.5466   -1.1681    2.3417 O   0  0  0  0  0  0  0  0  0  0  0  0
    2.1107    0.4185    1.3038 C   0  0  0  0  0  0  0  0  0  0  0  0
    1.4616    1.5320    1.6870 C   0  0  0  0  0  0  0  0  0  0  0  0
    0.0338    1.9474    1.3680 C   0  0  1  0  0  0  0  0  0  0  0  0
    0.0379    3.0386    0.2805 C   0  0  2  0  0  0  0  0  0  0  0  0
   -1.0619    3.9328    0.4311 O   0  0  0  0  0  0  0  0  0  0  0  0
   -0.0159    2.3003   -1.0498 C   0  0  0  0  0  0  0  0  0  0  0  0
   -0.6724    0.9979   -0.6772 C   0  0  0  0  0  0  0  0  0  0  0  0
   -0.9942    0.1561   -1.5067 O   0  0  0  0  0  0  0  0  0  0  0  0
   -0.8940    0.8369    0.8151 C   0  0  2  0  0  0  0  0  0  0  0  0
   -2.3798    1.0476    1.1661 C   0  0  0  0  0  0  0  0  0  0  0  0
   -3.1005   -0.2516    1.5575 C   0  0  0  0  0  0  0  0  0  0  0  0
   -3.2754   -1.2807    0.4383 C   0  0  0  0  0  0  0  0  0  0  0  0
   -4.1442   -0.8300   -0.7411 C   0  0  0  0  0  0  0  0  0  0  0  0
   -5.5784   -0.4224   -0.3902 C   0  0  0  0  0  0  0  0  0  0  0  0
   -6.3993   -1.5571    0.2201 C   0  0  0  0  0  0  0  0  0  0  0  0
   -7.8279   -1.1431    0.4514 C   0  0  0  0  0  0  0  0  0  0  0  0
   -8.2978   -0.0202    0.3825 O   0  0  0  0  0  0  0  0  0  0  0  0
   -8.6049   -2.1918    0.7869 O   0  0  0  0  0  0  0  0  0  0  0  0
    7.1903   -1.9790   -3.3609 H   0  0  0  0  0  0  0  0  0  0  0  0
    7.6432   -0.2993   -3.0022 H   0  0  0  0  0  0  0  0  0  0  0  0
    8.5605   -1.6378   -2.2902 H   0  0  0  0  0  0  0  0  0  0  0  0
    7.0641   -0.6696   -0.5973 H   0  0  0  0  0  0  0  0  0  0  0  0
    6.5859   -2.3291   -0.9629 H   0  0  0  0  0  0  0  0  0  0  0  0
    5.2736    0.1893   -2.1278 H   0  0  0  0  0  0  0  0  0  0  0  0
    4.8454   -1.4610   -2.5587 H   0  0  0  0  0  0  0  0  0  0  0  0
    4.2315   -1.9244   -0.1670 H   0  0  0  0  0  0  0  0  0  0  0  0
    3.2321   -0.7288   -0.9893 H   0  0  0  0  0  0  0  0  0  0  0  0
    4.5527    1.1222    0.0906 H   0  0  0  0  0  0  0  0  0  0  0  0
    5.5189   -0.0886    0.9363 H   0  0  0  0  0  0  0  0  0  0  0  0
    3.8801    0.8270    2.4430 H   0  0  0  0  0  0  0  0  0  0  0  0
    3.0523   -1.7972    1.7923 H   0  0  0  0  0  0  0  0  0  0  0  0
    1.6179   -0.3171    0.6753 H   0  0  0  0  0  0  0  0  0  0  0  0
    1.9982    2.2475    2.3134 H   0  0  0  0  0  0  0  0  0  0  0  0
   -0.3828    2.3398    2.3045 H   0  0  0  0  0  0  0  0  0  0  0  0
    0.9356    3.6651    0.3296 H   0  0  0  0  0  0  0  0  0  0  0  0
   -1.8977    3.4867    0.2164 H   0  0  0  0  0  0  0  0  0  0  0  0
   -0.6091    2.8249   -1.8020 H   0  0  0  0  0  0  0  0  0  0  0  0
    0.9888    2.0776   -1.4211 H   0  0  0  0  0  0  0  0  0  0  0  0
   -0.5607   -0.1540    1.1367 H   0  0  0  0  0  0  0  0  0  0  0  0
   -2.9227    1.5339    0.3480 H   0  0  0  0  0  0  0  0  0  0  0  0
   -2.4627    1.7167    2.0309 H   0  0  0  0  0  0  0  0  0  0  0  0
   -4.0816    0.0045    1.9729 H   0  0  0  0  0  0  0  0  0  0  0  0
   -2.5478   -0.7244    2.3785 H   0  0  0  0  0  0  0  0  0  0  0  0
   -3.7048   -2.1913    0.8718 H   0  0  0  0  0  0  0  0  0  0  0  0
   -2.2913   -1.5783    0.0577 H   0  0  0  0  0  0  0  0  0  0  0  0
   -4.1783   -1.6472   -1.4730 H   0  0  0  0  0  0  0  0  0  0  0  0
   -3.6646    0.0117   -1.2521 H   0  0  0  0  0  0  0  0  0  0  0  0
   -6.0701   -0.0812   -1.3106 H   0  0  0  0  0  0  0  0  0  0  0  0
   -5.5735    0.4433    0.2822 H   0  0  0  0  0  0  0  0  0  0  0  0
   -5.9822   -1.8639    1.1846 H   0  0  0  0  0  0  0  0  0  0  0  0
   -6.3982   -2.4155   -0.4613 H   0  0  0  0  0  0  0  0  0  0  0  0
   -9.4936   -1.7989    0.9118 H   0  0  0  0  0  0  0  0  0  0  0  0
  1  2  1  0
  2  3  1  0
  3  4  1  0
  4  5  1  0
  5  6  1  0
  6  7  1  0
  6  8  1  0
  8  9  2  0
  9 10  1  0
 10 11  1  0
 11 12  1  0
 11 13  1  0
 13 14  1  0
 14 15  2  0
 14 16  1  0
 16 17  1  0
 17 18  1  0
 18 19  1  0
 19 20  1  0
 20 21  1  0
 21 22  1  0
 22 23  1  0
 23 24  2  0
 23 25  1  0
 16 10  1  0
  1 26  1  0
  1 27  1  0
  1 28  1  0
  2 29  1  0
  2 30  1  0
  3 31  1  0
  3 32  1  0
  4 33  1  0
  4 34  1  0
  5 35  1  0
  5 36  1  0
  6 37  1  1
  7 38  1  0
  8 39  1  0
  9 40  1  0
 10 41  1  1
 11 42  1  6
 12 43  1  0
 13 44  1  0
 13 45  1  0
 16 46  1  1
 17 47  1  0
 17 48  1  0
 18 49  1  0
 18 50  1  0
 19 51  1  0
 19 52  1  0
 20 53  1  0
 20 54  1  0
 21 55  1  0
 21 56  1  0
 22 57  1  0
 22 58  1  0
 25 59  1  0
M  END
$$$$
