
     RDKit          3D

 27 25  0  0  0  0  0  0  0  0999 V2000
    4.0674    0.2978    0.4999 C   0  0  0  0  0  0  0  0  0  0  0  0
    2.5942    0.0446    0.5696 C   0  0  0  0  0  0  0  0  0  0  0  0
    1.8408    0.4760    1.4322 O   0  0  0  0  0  0  0  0  0  0  0  0
    2.1820   -0.7152   -0.4853 O   0  0  0  0  0  0  0  0  0  0  0  0
    0.7930   -1.0872   -0.4421 C   0  0  0  0  0  0  0  0  0  0  0  0
   -0.1194    0.0920   -0.8284 C   0  0  0  0  0  0  0  0  0  0  0  0
   -1.4842    0.1175   -0.1057 N   0  0  0  0  0  4  0  0  0  0  0  0
   -1.2958    0.4061    1.3862 C   0  0  0  0  0  0  0  0  0  0  0  0
   -2.3131    1.2577   -0.7022 C   0  0  0  0  0  0  0  0  0  0  0  0
   -2.2459   -1.1851   -0.2928 C   0  0  0  0  0  0  0  0  0  0  0  0
    0.0000    0.0000    0.0000 Cl  0  0  0  0  0 15  0  0  0  0  0  0
    4.3828    0.8454    1.3925 H   0  0  0  0  0  0  0  0  0  0  0  0
    4.2978    0.8988   -0.3830 H   0  0  0  0  0  0  0  0  0  0  0  0
    4.6061   -0.6527    0.4700 H   0  0  0  0  0  0  0  0  0  0  0  0
    0.6594   -1.8995   -1.1654 H   0  0  0  0  0  0  0  0  0  0  0  0
    0.5732   -1.5139    0.5414 H   0  0  0  0  0  0  0  0  0  0  0  0
    0.3548    1.0624   -0.6430 H   0  0  0  0  0  0  0  0  0  0  0  0
   -0.3342    0.0394   -1.9032 H   0  0  0  0  0  0  0  0  0  0  0  0
   -2.2862    0.5066    1.8408 H   0  0  0  0  0  0  0  0  0  0  0  0
   -0.7357    1.3394    1.4905 H   0  0  0  0  0  0  0  0  0  0  0  0
   -0.7638   -0.4276    1.8485 H   0  0  0  0  0  0  0  0  0  0  0  0
   -1.7651    2.1943   -0.5628 H   0  0  0  0  0  0  0  0  0  0  0  0
   -2.4632    1.0550   -1.7668 H   0  0  0  0  0  0  0  0  0  0  0  0
   -3.2754    1.2968   -0.1830 H   0  0  0  0  0  0  0  0  0  0  0  0
   -2.3351   -1.3811   -1.3652 H   0  0  0  0  0  0  0  0  0  0  0  0
   -1.6986   -1.9917    0.2014 H   0  0  0  0  0  0  0  0  0  0  0  0
   -3.2359   -1.0757    0.1602 H   0  0  0  0  0  0  0  0  0  0  0  0
  1  2  1  0
  2  3  2  0
  2  4  1  0
  4  5  1  0
  5  6  1  0
  6  7  1  0
  7  8  1  0
  7  9  1  0
  7 10  1  0
  1 12  1  0
  1 13  1  0
  1 14  1  0
  5 15  1  0
  5 16  1  0
  6 17  1  0
  6 18  1  0
  8 19  1  0
  8 20  1  0
  8 21  1  0
  9 22  1  0
  9 23  1  0
  9 24  1  0
 10 25  1  0
 10 26  1  0
 10 27  1  0
M  CHG  2   7   1  11  -1
M  END
$$$$
