
     RDKit          3D

 24 23  0  0  0  0  0  0  0  0999 V2000
   -4.0349    0.1450    0.0507 N   0  0  0  0  0  0  0  0  0  0  0  0
   -2.8545    0.4693    0.8436 C   0  0  0  0  0  0  0  0  0  0  0  0
   -1.5903   -0.1181    0.2143 C   0  0  0  0  0  0  0  0  0  0  0  0
   -0.3518    0.2243    1.0466 C   0  0  0  0  0  0  0  0  0  0  0  0
    0.9323   -0.4367    0.5341 C   0  0  0  0  0  0  0  0  0  0  0  0
    1.3858    0.0935   -0.8300 C   0  0  0  0  0  0  0  0  0  0  0  0
    2.6749   -0.5590   -1.3385 C   0  0  0  0  0  0  0  0  0  0  0  0
    3.8403   -0.2427   -0.5219 N   0  0  0  0  0  0  0  0  0  0  0  0
   -3.9173    0.4969   -0.8988 H   0  0  0  0  0  0  0  0  0  0  0  0
   -4.1221   -0.8671   -0.0353 H   0  0  0  0  0  0  0  0  0  0  0  0
   -2.7677    1.5584    0.9223 H   0  0  0  0  0  0  0  0  0  0  0  0
   -2.9908    0.0784    1.8578 H   0  0  0  0  0  0  0  0  0  0  0  0
   -1.4779    0.2738   -0.8031 H   0  0  0  0  0  0  0  0  0  0  0  0
   -1.6875   -1.2080    0.1346 H   0  0  0  0  0  0  0  0  0  0  0  0
   -0.5150   -0.1068    2.0799 H   0  0  0  0  0  0  0  0  0  0  0  0
   -0.2171    1.3122    1.0816 H   0  0  0  0  0  0  0  0  0  0  0  0
    1.7170   -0.2554    1.2776 H   0  0  0  0  0  0  0  0  0  0  0  0
    0.7908   -1.5229    0.4811 H   0  0  0  0  0  0  0  0  0  0  0  0
    1.5169    1.1816   -0.7788 H   0  0  0  0  0  0  0  0  0  0  0  0
    0.6048   -0.0943   -1.5754 H   0  0  0  0  0  0  0  0  0  0  0  0
    2.5538   -1.6466   -1.3880 H   0  0  0  0  0  0  0  0  0  0  0  0
    2.8684   -0.2135   -2.3600 H   0  0  0  0  0  0  0  0  0  0  0  0
    3.7238   -0.6232    0.4157 H   0  0  0  0  0  0  0  0  0  0  0  0
    3.9180    0.7674   -0.4101 H   0  0  0  0  0  0  0  0  0  0  0  0
  1  2  1  0
  2  3  1  0
  3  4  1  0
  4  5  1  0
  5  6  1  0
  6  7  1  0
  7  8  1  0
  1  9  1  0
  1 10  1  0
  2 11  1  0
  2 12  1  0
  3 13  1  0
  3 14  1  0
  4 15  1  0
  4 16  1  0
  5 17  1  0
  5 18  1  0
  6 19  1  0
  6 20  1  0
  7 21  1  0
  7 22  1  0
  8 23  1  0
  8 24  1  0
M  END
$$$$
