
     RDKit          3D

 53 56  0  0  0  0  0  0  0  0999 V2000
    8.6558    0.5101   -0.4433 C   0  0  0  0  0  0  0  0  0  0  0  0
    7.7392   -0.5146   -0.8054 O   0  0  0  0  0  0  0  0  0  0  0  0
    6.4978   -0.4262   -0.1011 C   0  0  0  0  0  0  0  0  0  0  0  0
    5.5308    0.5181   -0.8086 C   0  0  0  0  0  0  0  0  0  0  0  0
    4.2391    0.5784   -0.1478 N   0  0  0  0  0  0  0  0  0  0  0  0
    3.8845    1.5449    0.7562 C   0  0  0  0  0  0  0  0  0  0  0  0
    2.6047    1.2757    1.1804 C   0  0  0  0  0  0  0  0  0  0  0  0
    2.1543    0.1030    0.5077 C   0  0  0  0  0  0  0  0  0  0  0  0
    0.9551   -0.6456    0.5120 C   0  0  0  0  0  0  0  0  0  0  0  0
   -0.1785   -0.2222    1.3714 C   0  0  0  0  0  0  0  0  0  0  0  0
    0.0344    0.0764    2.5395 O   0  0  0  0  0  0  0  0  0  0  0  0
   -1.3990   -0.1923    0.7114 N   0  0  0  0  0  0  0  0  0  0  0  0
   -2.5862    0.1487    1.3422 C   0  0  0  0  0  0  0  0  0  0  0  0
   -2.8580    0.4495    2.6602 C   0  0  0  0  0  0  0  0  0  0  0  0
   -4.2474    0.6821    2.7264 C   0  0  0  0  0  0  0  0  0  0  0  0
   -5.0596    1.0313    3.9156 C   0  0  0  0  0  0  0  0  0  0  0  0
   -4.8247    0.5387    1.5297 N   0  0  0  0  0  0  0  0  0  0  0  0
   -3.8033    0.2436    0.7021 N   0  0  0  0  0  0  0  0  0  0  0  0
   -4.1029    0.0211   -0.6969 C   0  0  0  0  0  0  0  0  0  0  0  0
   -5.0360    1.0745   -1.3210 C   0  0  0  0  0  0  0  0  0  0  0  0
   -5.3549    0.5710   -2.7226 C   0  0  0  0  0  0  0  0  0  0  0  0
   -5.3663   -1.2127   -2.5972 S   0  0  0  0  0  6  0  0  0  0  0  0
   -4.3196   -1.7303   -3.4557 O   0  0  0  0  0  0  0  0  0  0  0  0
   -6.7297   -1.6906   -2.6604 O   0  0  0  0  0  0  0  0  0  0  0  0
   -4.7882   -1.3203   -0.9207 C   0  0  0  0  0  0  0  0  0  0  0  0
    0.8453   -1.7933   -0.2929 C   0  0  0  0  0  0  0  0  0  0  0  0
    1.9013   -2.1834   -1.1110 C   0  0  0  0  0  0  0  0  0  0  0  0
    3.0901   -1.4494   -1.1476 C   0  0  0  0  0  0  0  0  0  0  0  0
    3.1987   -0.3119   -0.3292 C   0  0  0  0  0  0  0  0  0  0  0  0
    8.9056    0.4398    0.6196 H   0  0  0  0  0  0  0  0  0  0  0  0
    8.2487    1.4988   -0.6699 H   0  0  0  0  0  0  0  0  0  0  0  0
    9.5715    0.3709   -1.0243 H   0  0  0  0  0  0  0  0  0  0  0  0
    6.0764   -1.4375   -0.0804 H   0  0  0  0  0  0  0  0  0  0  0  0
    6.6636   -0.1326    0.9430 H   0  0  0  0  0  0  0  0  0  0  0  0
    5.3738    0.2127   -1.8494 H   0  0  0  0  0  0  0  0  0  0  0  0
    5.9344    1.5361   -0.8498 H   0  0  0  0  0  0  0  0  0  0  0  0
    4.5653    2.3395    1.0329 H   0  0  0  0  0  0  0  0  0  0  0  0
    2.0455    1.8531    1.9070 H   0  0  0  0  0  0  0  0  0  0  0  0
   -1.3936   -0.3797   -0.2816 H   0  0  0  0  0  0  0  0  0  0  0  0
   -2.1533    0.4863    3.4798 H   0  0  0  0  0  0  0  0  0  0  0  0
   -5.7531    0.2193    4.1568 H   0  0  0  0  0  0  0  0  0  0  0  0
   -4.4244    1.2072    4.7898 H   0  0  0  0  0  0  0  0  0  0  0  0
   -5.6407    1.9410    3.7323 H   0  0  0  0  0  0  0  0  0  0  0  0
   -3.1578    0.0487   -1.2519 H   0  0  0  0  0  0  0  0  0  0  0  0
   -4.5767    2.0683   -1.3469 H   0  0  0  0  0  0  0  0  0  0  0  0
   -5.9685    1.1613   -0.7494 H   0  0  0  0  0  0  0  0  0  0  0  0
   -6.3239    0.9241   -3.0814 H   0  0  0  0  0  0  0  0  0  0  0  0
   -4.5688    0.8515   -3.4298 H   0  0  0  0  0  0  0  0  0  0  0  0
   -5.6567   -1.4650   -0.2706 H   0  0  0  0  0  0  0  0  0  0  0  0
   -4.1063   -2.1682   -0.8187 H   0  0  0  0  0  0  0  0  0  0  0  0
   -0.0539   -2.4038   -0.2640 H   0  0  0  0  0  0  0  0  0  0  0  0
    1.8080   -3.0778   -1.7243 H   0  0  0  0  0  0  0  0  0  0  0  0
    3.9082   -1.7683   -1.7874 H   0  0  0  0  0  0  0  0  0  0  0  0
  1  2  1  0
  2  3  1  0
  3  4  1  0
  4  5  1  0
  5  6  1  0
  6  7  2  0
  7  8  1  0
  8  9  2  0
  9 10  1  0
 10 11  2  0
 10 12  1  0
 12 13  1  0
 13 14  2  0
 14 15  1  0
 15 16  1  0
 15 17  2  0
 17 18  1  0
 18 19  1  0
 19 20  1  0
 20 21  1  0
 21 22  1  0
 22 23  2  0
 22 24  2  0
 22 25  1  0
  9 26  1  0
 26 27  2  0
 27 28  1  0
 28 29  2  0
 29  5  1  0
 29  8  1  0
 18 13  1  0
 25 19  1  0
  1 30  1  0
  1 31  1  0
  1 32  1  0
  3 33  1  0
  3 34  1  0
  4 35  1  0
  4 36  1  0
  6 37  1  0
  7 38  1  0
 12 39  1  0
 14 40  1  0
 16 41  1  0
 16 42  1  0
 16 43  1  0
 19 44  1  0
 20 45  1  0
 20 46  1  0
 21 47  1  0
 21 48  1  0
 25 49  1  0
 25 50  1  0
 26 51  1  0
 27 52  1  0
 28 53  1  0
M  END
$$$$
