
     RDKit          3D

 17 18  0  0  0  0  0  0  0  0999 V2000
    2.0467    2.2218    0.0325 O   0  0  0  0  0  0  0  0  0  0  0  0
    1.6295    1.0803    0.0188 C   0  0  0  0  0  0  0  0  0  0  0  0
    2.4861   -0.1531    0.0103 C   0  0  0  0  0  0  0  0  0  0  0  0
    1.4847   -1.2721   -0.0059 C   0  0  0  0  0  0  0  0  0  0  0  0
    1.7588   -2.4561   -0.0167 O   0  0  0  0  0  0  0  0  0  0  0  0
    0.1264   -0.7064   -0.0066 C   0  0  0  0  0  0  0  0  0  0  0  0
   -1.1006   -1.3584   -0.0191 C   0  0  0  0  0  0  0  0  0  0  0  0
   -1.1834   -3.0847   -0.0372 Cl  0  0  0  0  0  0  0  0  0  0  0  0
   -2.2691   -0.5709   -0.0167 C   0  0  0  0  0  0  0  0  0  0  0  0
   -3.8304   -1.3447   -0.0321 Cl  0  0  0  0  0  0  0  0  0  0  0  0
   -2.1820    0.8451   -0.0018 C   0  0  0  0  0  0  0  0  0  0  0  0
   -3.6366    1.8045    0.0010 Cl  0  0  0  0  0  0  0  0  0  0  0  0
   -0.9257    1.4832    0.0107 C   0  0  0  0  0  0  0  0  0  0  0  0
   -0.7962    3.2067    0.0289 Cl  0  0  0  0  0  0  0  0  0  0  0  0
    0.2121    0.6856    0.0080 C   0  0  0  0  0  0  0  0  0  0  0  0
    3.0855   -0.1996    0.9219 H   0  0  0  0  0  0  0  0  0  0  0  0
    3.0942   -0.1810   -0.8962 H   0  0  0  0  0  0  0  0  0  0  0  0
  1  2  2  0
  2  3  1  0
  3  4  1  0
  4  5  2  0
  4  6  1  0
  6  7  2  0
  7  8  1  0
  7  9  1  0
  9 10  1  0
  9 11  2  0
 11 12  1  0
 11 13  1  0
 13 14  1  0
 13 15  2  0
 15  2  1  0
 15  6  1  0
  3 16  1  0
  3 17  1  0
M  END
$$$$
