
     RDKit          3D

 51 55  0  0  0  0  0  0  0  0999 V2000
    6.8738   -0.4992    1.6647 C   0  0  0  0  0  0  0  0  0  0  0  0
    6.5587   -0.3215    0.3692 C   0  0  0  0  0  0  0  0  0  0  0  0
    7.6491   -0.0763   -0.6438 C   0  0  0  0  0  0  0  0  0  0  0  0
    5.1533   -0.3833   -0.2060 C   0  0  1  0  0  0  0  0  0  0  0  0
    3.9718   -0.4936    0.7802 C   0  0  0  0  0  0  0  0  0  0  0  0
    2.9369    0.2168   -0.0106 C   0  0  0  0  0  0  0  0  0  0  0  0
    3.5615    0.9566   -1.0029 C   0  0  0  0  0  0  0  0  0  0  0  0
    2.8586    1.7829   -1.8543 C   0  0  0  0  0  0  0  0  0  0  0  0
    1.4732    1.8540   -1.6942 C   0  0  0  0  0  0  0  0  0  0  0  0
    0.8334    1.1038   -0.6858 C   0  0  0  0  0  0  0  0  0  0  0  0
    1.5655    0.2715    0.1602 C   0  0  0  0  0  0  0  0  0  0  0  0
    1.0284   -0.4747    1.1621 O   0  0  0  0  0  0  0  0  0  0  0  0
   -0.3740   -0.7318    1.0534 C   0  0  2  0  0  0  0  0  0  0  0  0
   -0.6745   -1.8749    0.0835 C   0  0  0  0  0  0  0  0  0  0  0  0
   -2.0398   -2.2902    0.1393 O   0  0  0  0  0  0  0  0  0  0  0  0
   -2.9624   -1.2794    0.1931 C   0  0  0  0  0  0  0  0  0  0  0  0
   -4.2903   -1.6723    0.0070 C   0  0  0  0  0  0  0  0  0  0  0  0
   -5.3242   -0.7328    0.0566 C   0  0  0  0  0  0  0  0  0  0  0  0
   -6.6535   -1.0290   -0.1178 O   0  0  0  0  0  0  0  0  0  0  0  0
   -6.9973   -2.3827   -0.3752 C   0  0  0  0  0  0  0  0  0  0  0  0
   -5.0164    0.6200    0.2920 C   0  0  0  0  0  0  0  0  0  0  0  0
   -6.0779    1.4906    0.3270 O   0  0  0  0  0  0  0  0  0  0  0  0
   -5.7817    2.8707    0.1592 C   0  0  0  0  0  0  0  0  0  0  0  0
   -3.6858    1.0013    0.5032 C   0  0  0  0  0  0  0  0  0  0  0  0
   -2.6472    0.0559    0.4592 C   0  0  0  0  0  0  0  0  0  0  0  0
   -1.2175    0.4889    0.7007 C   0  0  2  0  0  0  0  0  0  0  0  0
   -0.6233    1.2256   -0.4874 C   0  0  0  0  0  0  0  0  0  0  0  0
   -1.2728    1.9565   -1.2309 O   0  0  0  0  0  0  0  0  0  0  0  0
    4.9220    0.7978   -1.0299 O   0  0  0  0  0  0  0  0  0  0  0  0
    7.9051   -0.4498    2.0047 H   0  0  0  0  0  0  0  0  0  0  0  0
    6.1334   -0.7005    2.4309 H   0  0  0  0  0  0  0  0  0  0  0  0
    8.6480   -0.1385   -0.1988 H   0  0  0  0  0  0  0  0  0  0  0  0
    7.5477    0.9194   -1.0871 H   0  0  0  0  0  0  0  0  0  0  0  0
    7.5989   -0.8227   -1.4434 H   0  0  0  0  0  0  0  0  0  0  0  0
    5.1193   -1.2448   -0.8911 H   0  0  0  0  0  0  0  0  0  0  0  0
    4.1366    0.0549    1.7130 H   0  0  0  0  0  0  0  0  0  0  0  0
    3.7203   -1.5362    0.9937 H   0  0  0  0  0  0  0  0  0  0  0  0
    3.3676    2.3606   -2.6185 H   0  0  0  0  0  0  0  0  0  0  0  0
    0.8913    2.5045   -2.3452 H   0  0  0  0  0  0  0  0  0  0  0  0
   -0.6864   -1.0683    2.0522 H   0  0  0  0  0  0  0  0  0  0  0  0
   -0.4218   -1.6205   -0.9533 H   0  0  0  0  0  0  0  0  0  0  0  0
   -0.0550   -2.7430    0.3373 H   0  0  0  0  0  0  0  0  0  0  0  0
   -4.4852   -2.7231   -0.1778 H   0  0  0  0  0  0  0  0  0  0  0  0
   -6.5467   -2.7346   -1.3091 H   0  0  0  0  0  0  0  0  0  0  0  0
   -6.7219   -3.0272    0.4660 H   0  0  0  0  0  0  0  0  0  0  0  0
   -8.0842   -2.4353   -0.4912 H   0  0  0  0  0  0  0  0  0  0  0  0
   -5.3082    3.2789    1.0578 H   0  0  0  0  0  0  0  0  0  0  0  0
   -5.1637    3.0456   -0.7282 H   0  0  0  0  0  0  0  0  0  0  0  0
   -6.7284    3.4001    0.0144 H   0  0  0  0  0  0  0  0  0  0  0  0
   -3.4308    2.0380    0.7031 H   0  0  0  0  0  0  0  0  0  0  0  0
   -1.1835    1.1914    1.5449 H   0  0  0  0  0  0  0  0  0  0  0  0
  1  2  2  3
  2  3  1  0
  2  4  1  0
  4  5  1  0
  5  6  1  0
  6  7  2  0
  7  8  1  0
  8  9  2  0
  9 10  1  0
 10 11  2  0
 11 12  1  0
 12 13  1  0
 13 14  1  0
 14 15  1  0
 15 16  1  0
 16 17  2  0
 17 18  1  0
 18 19  1  0
 19 20  1  0
 18 21  2  0
 21 22  1  0
 22 23  1  0
 21 24  1  0
 24 25  2  0
 25 26  1  0
 26 27  1  0
 27 28  2  0
  7 29  1  0
 29  4  1  0
 11  6  1  0
 26 13  1  0
 27 10  1  0
 25 16  1  0
  1 30  1  0
  1 31  1  0
  3 32  1  0
  3 33  1  0
  3 34  1  0
  4 35  1  6
  5 36  1  0
  5 37  1  0
  8 38  1  0
  9 39  1  0
 13 40  1  1
 14 41  1  0
 14 42  1  0
 17 43  1  0
 20 44  1  0
 20 45  1  0
 20 46  1  0
 23 47  1  0
 23 48  1  0
 23 49  1  0
 24 50  1  0
 26 51  1  1
M  END
$$$$
