
     RDKit          3D

 33 34  0  0  0  0  0  0  0  0999 V2000
   -4.5203    0.6861    1.1477 C   0  0  0  0  0  0  0  0  0  0  0  0
   -4.4116   -0.8232    0.9866 C   0  0  0  0  0  0  0  0  0  0  0  0
   -4.0233   -1.2482   -0.4290 C   0  0  0  0  0  0  0  0  0  0  0  0
   -2.6886   -0.8372   -0.7954 N   0  0  0  0  0  0  0  0  0  0  0  0
   -1.5559   -1.4200   -0.2630 N   0  0  0  0  0  0  0  0  0  0  0  0
   -0.5868   -0.7000   -0.7501 C   0  0  0  0  0  0  0  0  0  0  0  0
    0.8819   -0.9146   -0.4837 C   0  0  0  0  0  0  0  0  0  0  0  0
    1.5374    0.3879   -0.3017 N   0  0  0  0  0  0  0  0  0  0  0  0
    2.9211    0.4284   -0.0819 C   0  0  0  0  0  0  0  0  0  0  0  0
    3.8046   -0.5845   -0.4791 C   0  0  0  0  0  0  0  0  0  0  0  0
    5.1858   -0.4483   -0.2996 C   0  0  0  0  0  0  0  0  0  0  0  0
    5.6956    0.7176    0.2524 C   0  0  0  0  0  0  0  0  0  0  0  0
    7.0177    0.8484    0.4200 F   0  0  0  0  0  0  0  0  0  0  0  0
    4.8515    1.7545    0.6179 C   0  0  0  0  0  0  0  0  0  0  0  0
    3.4730    1.6126    0.4372 C   0  0  0  0  0  0  0  0  0  0  0  0
   -0.9814    0.2971   -1.5661 N   0  0  0  0  0  0  0  0  0  0  0  0
   -2.3437    0.2660   -1.5781 C   0  0  0  0  0  0  0  0  0  0  0  0
   -3.0770    1.0618   -2.1378 O   0  0  0  0  0  0  0  0  0  0  0  0
   -4.8724    0.9322    2.1546 H   0  0  0  0  0  0  0  0  0  0  0  0
   -5.2292    1.1082    0.4283 H   0  0  0  0  0  0  0  0  0  0  0  0
   -3.5512    1.1737    1.0056 H   0  0  0  0  0  0  0  0  0  0  0  0
   -5.3813   -1.2714    1.2328 H   0  0  0  0  0  0  0  0  0  0  0  0
   -3.6854   -1.2107    1.7106 H   0  0  0  0  0  0  0  0  0  0  0  0
   -4.7313   -0.8317   -1.1542 H   0  0  0  0  0  0  0  0  0  0  0  0
   -4.0637   -2.3400   -0.5116 H   0  0  0  0  0  0  0  0  0  0  0  0
    0.9983   -1.5367    0.4102 H   0  0  0  0  0  0  0  0  0  0  0  0
    1.2829   -1.4427   -1.3554 H   0  0  0  0  0  0  0  0  0  0  0  0
    1.0540    0.9539    0.3968 H   0  0  0  0  0  0  0  0  0  0  0  0
    3.4462   -1.5010   -0.9367 H   0  0  0  0  0  0  0  0  0  0  0  0
    5.8633   -1.2420   -0.5977 H   0  0  0  0  0  0  0  0  0  0  0  0
    5.2663    2.6682    1.0304 H   0  0  0  0  0  0  0  0  0  0  0  0
    2.8262    2.4446    0.7063 H   0  0  0  0  0  0  0  0  0  0  0  0
   -0.4027    1.0110   -1.9765 H   0  0  0  0  0  0  0  0  0  0  0  0
  1  2  1  0
  2  3  1  0
  3  4  1  0
  4  5  1  0
  5  6  2  0
  6  7  1  0
  7  8  1  0
  8  9  1  0
  9 10  2  0
 10 11  1  0
 11 12  2  0
 12 13  1  0
 12 14  1  0
 14 15  2  0
  6 16  1  0
 16 17  1  0
 17 18  2  0
 17  4  1  0
 15  9  1  0
  1 19  1  0
  1 20  1  0
  1 21  1  0
  2 22  1  0
  2 23  1  0
  3 24  1  0
  3 25  1  0
  7 26  1  0
  7 27  1  0
  8 28  1  0
 10 29  1  0
 11 30  1  0
 14 31  1  0
 15 32  1  0
 16 33  1  0
M  END
$$$$
