
     RDKit          3D

 46 49  0  0  0  0  0  0  0  0999 V2000
    6.6538   -0.5303    2.4125 C   0  0  0  0  0  0  0  0  0  0  0  0
    6.0100    0.6044    1.8473 O   0  0  0  0  0  0  0  0  0  0  0  0
    5.2246    0.3848    0.7491 C   0  0  0  0  0  0  0  0  0  0  0  0
    4.6155    1.5284    0.2283 C   0  0  0  0  0  0  0  0  0  0  0  0
    3.7864    1.4478   -0.8929 C   0  0  0  0  0  0  0  0  0  0  0  0
    3.5604    0.2160   -1.5183 C   0  0  0  0  0  0  0  0  0  0  0  0
    2.6498    0.1217   -2.7181 C   0  0  0  0  0  0  0  0  0  0  0  0
    1.2656   -0.0042   -2.3359 N   0  0  0  0  0  0  0  0  0  0  0  0
    0.4520    1.0816   -2.0774 N   0  0  0  0  0  0  0  0  0  0  0  0
   -0.6466    0.5384   -1.6460 C   0  0  0  0  0  0  0  0  0  0  0  0
   -1.7369    1.2699   -1.2777 N   0  0  0  0  0  0  0  0  0  0  0  0
   -2.7747    0.6120   -0.8327 C   0  0  0  0  0  0  0  0  0  0  0  0
   -3.8708    1.3624   -0.4699 N   0  0  0  0  0  0  0  0  0  0  0  0
   -4.6196    1.1895    0.7162 C   0  0  0  0  0  0  0  0  0  0  0  0
   -4.1077    0.5681    1.8621 C   0  0  0  0  0  0  0  0  0  0  0  0
   -4.8836    0.4547    3.0193 C   0  0  0  0  0  0  0  0  0  0  0  0
   -6.1761    0.9729    3.0482 C   0  0  0  0  0  0  0  0  0  0  0  0
   -6.6909    1.6124    1.9236 C   0  0  0  0  0  0  0  0  0  0  0  0
   -5.9135    1.7259    0.7687 C   0  0  0  0  0  0  0  0  0  0  0  0
   -2.8076   -0.8868   -0.7642 C   0  0  0  0  0  0  0  0  0  0  0  0
   -1.7080   -1.5532   -1.1458 C   0  0  0  0  0  0  0  0  0  0  0  0
   -1.6155   -3.0472   -1.1209 C   0  0  0  0  0  0  0  0  0  0  0  0
   -0.6393   -0.8170   -1.5812 N   0  0  0  0  0  0  0  0  0  0  0  0
    0.6094   -1.1993   -2.0151 C   0  0  0  0  0  0  0  0  0  0  0  0
    1.0709   -2.3280   -2.1054 O   0  0  0  0  0  0  0  0  0  0  0  0
    4.1611   -0.9320   -0.9841 C   0  0  0  0  0  0  0  0  0  0  0  0
    4.9912   -0.8479    0.1396 C   0  0  0  0  0  0  0  0  0  0  0  0
    5.9220   -1.2576    2.7791 H   0  0  0  0  0  0  0  0  0  0  0  0
    7.3449   -0.9894    1.6978 H   0  0  0  0  0  0  0  0  0  0  0  0
    7.2411   -0.1886    3.2702 H   0  0  0  0  0  0  0  0  0  0  0  0
    4.7829    2.4917    0.7038 H   0  0  0  0  0  0  0  0  0  0  0  0
    3.3080    2.3498   -1.2697 H   0  0  0  0  0  0  0  0  0  0  0  0
    2.9256   -0.7489   -3.3248 H   0  0  0  0  0  0  0  0  0  0  0  0
    2.7611    1.0065   -3.3557 H   0  0  0  0  0  0  0  0  0  0  0  0
   -3.6906    2.3529   -0.6215 H   0  0  0  0  0  0  0  0  0  0  0  0
   -3.0911    0.1844    1.8831 H   0  0  0  0  0  0  0  0  0  0  0  0
   -4.4729   -0.0294    3.9020 H   0  0  0  0  0  0  0  0  0  0  0  0
   -6.7780    0.8864    3.9493 H   0  0  0  0  0  0  0  0  0  0  0  0
   -7.6963    2.0250    1.9443 H   0  0  0  0  0  0  0  0  0  0  0  0
   -6.3306    2.2270   -0.1021 H   0  0  0  0  0  0  0  0  0  0  0  0
   -3.7142   -1.3695   -0.4234 H   0  0  0  0  0  0  0  0  0  0  0  0
   -2.5453   -3.5032   -0.7632 H   0  0  0  0  0  0  0  0  0  0  0  0
   -0.8133   -3.3745   -0.4515 H   0  0  0  0  0  0  0  0  0  0  0  0
   -1.4243   -3.4407   -2.1246 H   0  0  0  0  0  0  0  0  0  0  0  0
    3.9783   -1.9055   -1.4366 H   0  0  0  0  0  0  0  0  0  0  0  0
    5.4331   -1.7649    0.5140 H   0  0  0  0  0  0  0  0  0  0  0  0
  1  2  1  0
  2  3  1  0
  3  4  2  0
  4  5  1  0
  5  6  2  0
  6  7  1  0
  7  8  1  0
  8  9  1  0
  9 10  2  0
 10 11  1  0
 11 12  2  0
 12 13  1  0
 13 14  1  0
 14 15  2  0
 15 16  1  0
 16 17  2  0
 17 18  1  0
 18 19  2  0
 12 20  1  0
 20 21  2  0
 21 22  1  0
 21 23  1  0
 23 24  1  0
 24 25  2  0
  6 26  1  0
 26 27  2  0
 27  3  1  0
 24  8  1  0
 23 10  1  0
 19 14  1  0
  1 28  1  0
  1 29  1  0
  1 30  1  0
  4 31  1  0
  5 32  1  0
  7 33  1  0
  7 34  1  0
 13 35  1  0
 15 36  1  0
 16 37  1  0
 17 38  1  0
 18 39  1  0
 19 40  1  0
 20 41  1  0
 22 42  1  0
 22 43  1  0
 22 44  1  0
 26 45  1  0
 27 46  1  0
M  END
$$$$
