
     RDKit          3D

 51 53  0  0  0  0  0  0  0  0999 V2000
    2.0463    4.2337   -2.2508 C   0  0  0  0  0  0  0  0  0  0  0  0
    1.7728    2.8285   -2.0883 N   0  0  0  0  0  0  0  0  0  0  0  0
    2.5118    1.8963   -2.8007 C   0  0  0  0  0  0  0  0  0  0  0  0
    3.3267    2.2189   -3.6589 O   0  0  0  0  0  0  0  0  0  0  0  0
    2.2555    0.5085   -2.4339 C   0  0  0  0  0  0  0  0  0  0  0  0
    1.1085   -0.0341   -1.8877 C   0  0  0  0  0  0  0  0  0  0  0  0
    1.4179   -1.3423   -1.6911 N   0  0  0  0  0  0  0  0  0  0  0  0
    0.6152   -2.3613   -1.0447 C   0  0  0  0  0  0  0  0  0  0  0  0
    1.2098   -2.7774    0.3143 C   0  0  2  0  0  0  0  0  0  0  0  0
    1.7231   -4.2267    0.2561 C   0  0  0  0  0  0  0  0  0  0  0  0
    1.6138   -4.6897    1.6920 C   0  0  0  0  0  0  0  0  0  0  0  0
    1.5798   -6.0312    1.7775 F   0  0  0  0  0  0  0  0  0  0  0  0
    2.6734   -4.2488    2.4066 F   0  0  0  0  0  0  0  0  0  0  0  0
    0.3283   -4.0426    2.1775 C   0  0  0  0  0  0  0  0  0  0  0  0
    0.2427   -2.7804    1.4365 N   0  0  0  0  0  0  0  0  0  0  0  0
   -0.3626   -1.6965    2.0465 C   0  0  0  0  0  0  0  0  0  0  0  0
   -1.0307   -1.8195    3.0718 O   0  0  0  0  0  0  0  0  0  0  0  0
   -0.2195   -0.3511    1.3747 C   0  0  0  0  0  0  0  0  0  0  0  0
   -0.5354    0.7969    2.3197 C   0  0  0  0  0  0  0  0  0  0  0  0
   -0.6104    2.3534    1.4553 S   0  0  0  0  0  6  0  0  0  0  0  0
   -0.6912    3.4208    2.4311 O   0  0  0  0  0  0  0  0  0  0  0  0
    0.4338    2.3541    0.4415 O   0  0  0  0  0  0  0  0  0  0  0  0
   -2.1725    2.3181    0.6071 C   0  0  0  0  0  0  0  0  0  0  0  0
   -3.3530    2.2605    1.3540 C   0  0  0  0  0  0  0  0  0  0  0  0
   -4.5801    2.2145    0.6939 C   0  0  0  0  0  0  0  0  0  0  0  0
   -4.6241    2.2368   -0.7003 C   0  0  0  0  0  0  0  0  0  0  0  0
   -3.4434    2.3167   -1.4403 C   0  0  0  0  0  0  0  0  0  0  0  0
   -2.2118    2.3634   -0.7886 C   0  0  0  0  0  0  0  0  0  0  0  0
    2.6506   -1.6277   -2.1240 N   0  0  0  0  0  0  0  0  0  0  0  0
    3.1720   -0.5028   -2.6003 N   0  0  0  0  0  0  0  0  0  0  0  0
    1.3481    4.7963   -1.6307 H   0  0  0  0  0  0  0  0  0  0  0  0
    1.9196    4.5114   -3.3012 H   0  0  0  0  0  0  0  0  0  0  0  0
    3.0739    4.4436   -1.9435 H   0  0  0  0  0  0  0  0  0  0  0  0
    1.3769    2.5394   -1.1954 H   0  0  0  0  0  0  0  0  0  0  0  0
    0.1562    0.3964   -1.6290 H   0  0  0  0  0  0  0  0  0  0  0  0
    0.5558   -3.1968   -1.7528 H   0  0  0  0  0  0  0  0  0  0  0  0
   -0.4003   -1.9650   -0.9447 H   0  0  0  0  0  0  0  0  0  0  0  0
    2.0286   -2.1137    0.6241 H   0  0  0  0  0  0  0  0  0  0  0  0
    1.0895   -4.8601   -0.3756 H   0  0  0  0  0  0  0  0  0  0  0  0
    2.7478   -4.2749   -0.1239 H   0  0  0  0  0  0  0  0  0  0  0  0
    0.3411   -3.8726    3.2579 H   0  0  0  0  0  0  0  0  0  0  0  0
   -0.5488   -4.6434    1.9143 H   0  0  0  0  0  0  0  0  0  0  0  0
   -0.9069   -0.3358    0.5247 H   0  0  0  0  0  0  0  0  0  0  0  0
    0.8026   -0.2273    1.0105 H   0  0  0  0  0  0  0  0  0  0  0  0
   -1.4784    0.6624    2.8588 H   0  0  0  0  0  0  0  0  0  0  0  0
    0.2571    0.8921    3.0711 H   0  0  0  0  0  0  0  0  0  0  0  0
   -3.3315    2.2670    2.4411 H   0  0  0  0  0  0  0  0  0  0  0  0
   -5.5059    2.1736    1.2651 H   0  0  0  0  0  0  0  0  0  0  0  0
   -5.5835    2.2100   -1.2110 H   0  0  0  0  0  0  0  0  0  0  0  0
   -3.4864    2.3564   -2.5259 H   0  0  0  0  0  0  0  0  0  0  0  0
   -1.3027    2.4519   -1.3783 H   0  0  0  0  0  0  0  0  0  0  0  0
  1  2  1  0
  2  3  1  0
  3  4  2  0
  3  5  1  0
  5  6  2  0
  6  7  1  0
  7  8  1  0
  8  9  1  0
  9 10  1  0
 10 11  1  0
 11 12  1  0
 11 13  1  0
 11 14  1  0
 14 15  1  0
 15 16  1  0
 16 17  2  0
 16 18  1  0
 18 19  1  0
 19 20  1  0
 20 21  2  0
 20 22  2  0
 20 23  1  0
 23 24  2  0
 24 25  1  0
 25 26  2  0
 26 27  1  0
 27 28  2  0
  7 29  1  0
 29 30  2  0
 30  5  1  0
 15  9  1  0
 28 23  1  0
  1 31  1  0
  1 32  1  0
  1 33  1  0
  2 34  1  0
  6 35  1  0
  8 36  1  0
  8 37  1  0
  9 38  1  1
 10 39  1  0
 10 40  1  0
 14 41  1  0
 14 42  1  0
 18 43  1  0
 18 44  1  0
 19 45  1  0
 19 46  1  0
 24 47  1  0
 25 48  1  0
 26 49  1  0
 27 50  1  0
 28 51  1  0
M  END
$$$$
