
     RDKit          3D

 40 42  0  0  0  0  0  0  0  0999 V2000
    7.5043   -2.4858    1.1932 O   0  0  0  0  0  0  0  0  0  0  0  0
    7.0740   -1.3518    1.2943 C   0  0  0  0  0  0  0  0  0  0  0  0
    7.7500   -0.4059    1.9697 O   0  0  0  0  0  0  0  0  0  0  0  0
    5.8019   -0.8515    0.7195 C   0  0  0  0  0  0  0  0  0  0  0  0
    5.0055   -1.7442   -0.0077 C   0  0  0  0  0  0  0  0  0  0  0  0
    3.7981   -1.3152   -0.5669 C   0  0  0  0  0  0  0  0  0  0  0  0
    3.3725    0.0072   -0.3988 C   0  0  0  0  0  0  0  0  0  0  0  0
    2.1097    0.4372   -1.0067 C   0  0  0  0  0  0  0  0  0  0  0  0
    1.0113    0.8298   -0.3473 C   0  0  0  0  0  0  0  0  0  0  0  0
    0.7709    0.9293    1.3478 S   0  0  0  0  0  0  0  0  0  0  0  0
   -0.8890    1.4898    1.1753 C   0  0  0  0  0  0  0  0  0  0  0  0
   -1.8249    1.8699    2.5030 S   0  0  0  0  0  0  0  0  0  0  0  0
   -1.2225    1.5619   -0.1610 N   0  0  0  0  0  0  0  0  0  0  0  0
   -2.5308    1.9623   -0.6749 C   0  0  0  0  0  0  0  0  0  0  0  0
   -3.4825    0.7901   -0.8043 C   0  0  0  0  0  0  0  0  0  0  0  0
   -3.3450   -0.1249   -1.8580 C   0  0  0  0  0  0  0  0  0  0  0  0
   -4.2068   -1.2158   -1.9716 C   0  0  0  0  0  0  0  0  0  0  0  0
   -5.2218   -1.4057   -1.0355 C   0  0  0  0  0  0  0  0  0  0  0  0
   -5.3923   -0.4992    0.0201 C   0  0  0  0  0  0  0  0  0  0  0  0
   -6.4796   -0.7124    1.0455 C   0  0  0  0  0  0  0  0  0  0  0  0
   -6.0539   -1.4508    2.1066 F   0  0  0  0  0  0  0  0  0  0  0  0
   -6.9572    0.4528    1.5659 F   0  0  0  0  0  0  0  0  0  0  0  0
   -7.5657   -1.3663    0.5458 F   0  0  0  0  0  0  0  0  0  0  0  0
   -4.5123    0.5917    0.1291 C   0  0  0  0  0  0  0  0  0  0  0  0
   -0.2265    1.2344   -1.0639 C   0  0  0  0  0  0  0  0  0  0  0  0
   -0.3140    1.2723   -2.2842 O   0  0  0  0  0  0  0  0  0  0  0  0
    4.1750    0.9014    0.3199 C   0  0  0  0  0  0  0  0  0  0  0  0
    5.3832    0.4743    0.8804 C   0  0  0  0  0  0  0  0  0  0  0  0
    8.5508   -0.8728    2.2887 H   0  0  0  0  0  0  0  0  0  0  0  0
    5.3217   -2.7772   -0.1415 H   0  0  0  0  0  0  0  0  0  0  0  0
    3.1932   -2.0247   -1.1279 H   0  0  0  0  0  0  0  0  0  0  0  0
    2.0988    0.3997   -2.0954 H   0  0  0  0  0  0  0  0  0  0  0  0
   -2.4139    2.4303   -1.6604 H   0  0  0  0  0  0  0  0  0  0  0  0
   -2.9650    2.7319   -0.0273 H   0  0  0  0  0  0  0  0  0  0  0  0
   -2.5639    0.0061   -2.6057 H   0  0  0  0  0  0  0  0  0  0  0  0
   -4.0855   -1.9187   -2.7929 H   0  0  0  0  0  0  0  0  0  0  0  0
   -5.8852   -2.2639   -1.1347 H   0  0  0  0  0  0  0  0  0  0  0  0
   -4.6418    1.2923    0.9546 H   0  0  0  0  0  0  0  0  0  0  0  0
    3.8702    1.9375    0.4505 H   0  0  0  0  0  0  0  0  0  0  0  0
    5.9888    1.1841    1.4389 H   0  0  0  0  0  0  0  0  0  0  0  0
  1  2  2  0
  2  3  1  0
  2  4  1  0
  4  5  2  0
  5  6  1  0
  6  7  2  0
  7  8  1  0
  8  9  2  0
  9 10  1  0
 10 11  1  0
 11 12  2  0
 11 13  1  0
 13 14  1  0
 14 15  1  0
 15 16  2  0
 16 17  1  0
 17 18  2  0
 18 19  1  0
 19 20  1  0
 20 21  1  0
 20 22  1  0
 20 23  1  0
 19 24  2  0
 13 25  1  0
 25 26  2  0
  7 27  1  0
 27 28  2  0
 28  4  1  0
 25  9  1  0
 24 15  1  0
  3 29  1  0
  5 30  1  0
  6 31  1  0
  8 32  1  0
 14 33  1  0
 14 34  1  0
 16 35  1  0
 17 36  1  0
 18 37  1  0
 24 38  1  0
 27 39  1  0
 28 40  1  0
M  END
$$$$
