
     RDKit          3D

 50 52  0  0  0  0  0  0  0  0999 V2000
   -8.2287    0.3934   -2.3827 C   0  0  0  0  0  0  0  0  0  0  0  0
   -7.6661    0.7292   -1.1229 O   0  0  0  0  0  0  0  0  0  0  0  0
   -6.5615    0.0250   -0.7108 C   0  0  0  0  0  0  0  0  0  0  0  0
   -5.9443   -0.9845   -1.4562 C   0  0  0  0  0  0  0  0  0  0  0  0
   -4.8214   -1.6483   -0.9556 C   0  0  0  0  0  0  0  0  0  0  0  0
   -4.3041   -1.3211    0.3015 C   0  0  0  0  0  0  0  0  0  0  0  0
   -3.0808   -2.0207    0.8280 C   0  0  0  0  0  0  0  0  0  0  0  0
   -1.8823   -1.3478    0.4121 N   0  0  0  0  0  0  0  0  0  0  0  0
   -0.6355   -1.8305    0.7197 C   0  0  0  0  0  0  0  0  0  0  0  0
   -0.4349   -2.8836    1.3151 O   0  0  0  0  0  0  0  0  0  0  0  0
    0.4381   -0.9472    0.2662 C   0  0  0  0  0  0  0  0  0  0  0  0
    1.7958   -1.1576    0.4106 C   0  0  0  0  0  0  0  0  0  0  0  0
    2.4163   -0.0712   -0.1601 N   0  0  0  0  0  0  0  0  0  0  0  0
    3.8059    0.2055   -0.2790 C   0  0  0  0  0  0  0  0  0  0  0  0
    4.7502   -0.6884    0.2157 C   0  0  0  0  0  0  0  0  0  0  0  0
    6.1093   -0.3816    0.0803 C   0  0  0  0  0  0  0  0  0  0  0  0
    6.5020    0.8001   -0.5395 C   0  0  0  0  0  0  0  0  0  0  0  0
    7.8422    1.2037   -0.7255 N   0  0  0  0  0  0  0  0  0  0  0  0
    8.9800    0.5177   -0.3430 C   0  0  0  0  0  0  0  0  0  0  0  0
   10.2565    1.2441   -0.6915 C   0  0  0  0  0  0  0  0  0  0  0  0
    9.0207   -0.5658    0.2298 O   0  0  0  0  0  0  0  0  0  0  0  0
    5.4830    1.6296   -1.0017 C   0  0  0  0  0  0  0  0  0  0  0  0
    4.1581    1.3655   -0.8891 N   0  0  0  0  0  0  0  0  0  0  0  0
    1.4058    0.7449   -0.6205 C   0  0  0  0  0  0  0  0  0  0  0  0
    0.2088    0.2533   -0.3821 N   0  0  0  0  0  0  0  0  0  0  0  0
   -4.9141   -0.2984    1.0442 C   0  0  0  0  0  0  0  0  0  0  0  0
   -6.0383    0.3753    0.5500 C   0  0  0  0  0  0  0  0  0  0  0  0
   -6.6957    1.3797    1.2176 O   0  0  0  0  0  0  0  0  0  0  0  0
   -6.1472    1.8215    2.4508 C   0  0  0  0  0  0  0  0  0  0  0  0
   -9.0984    1.0379   -2.5432 H   0  0  0  0  0  0  0  0  0  0  0  0
   -7.5201    0.5838   -3.1955 H   0  0  0  0  0  0  0  0  0  0  0  0
   -8.5784   -0.6442   -2.3965 H   0  0  0  0  0  0  0  0  0  0  0  0
   -6.3099   -1.2776   -2.4345 H   0  0  0  0  0  0  0  0  0  0  0  0
   -4.3507   -2.4244   -1.5564 H   0  0  0  0  0  0  0  0  0  0  0  0
   -3.0962   -2.0595    1.9238 H   0  0  0  0  0  0  0  0  0  0  0  0
   -3.0450   -3.0595    0.4785 H   0  0  0  0  0  0  0  0  0  0  0  0
   -1.9212   -0.4386   -0.0407 H   0  0  0  0  0  0  0  0  0  0  0  0
    2.3260   -1.9804    0.8664 H   0  0  0  0  0  0  0  0  0  0  0  0
    4.4800   -1.6179    0.7040 H   0  0  0  0  0  0  0  0  0  0  0  0
    6.8313   -1.0914    0.4730 H   0  0  0  0  0  0  0  0  0  0  0  0
    7.9783    2.0930   -1.1906 H   0  0  0  0  0  0  0  0  0  0  0  0
   10.7569    1.5462    0.2324 H   0  0  0  0  0  0  0  0  0  0  0  0
   10.9050    0.5708   -1.2593 H   0  0  0  0  0  0  0  0  0  0  0  0
   10.0744    2.1352   -1.2983 H   0  0  0  0  0  0  0  0  0  0  0  0
    5.7024    2.5710   -1.4981 H   0  0  0  0  0  0  0  0  0  0  0  0
    1.6118    1.6828   -1.1207 H   0  0  0  0  0  0  0  0  0  0  0  0
   -4.4906   -0.0465    2.0114 H   0  0  0  0  0  0  0  0  0  0  0  0
   -6.7670    2.6461    2.8164 H   0  0  0  0  0  0  0  0  0  0  0  0
   -6.1765    1.0262    3.2025 H   0  0  0  0  0  0  0  0  0  0  0  0
   -5.1301    2.2051    2.3178 H   0  0  0  0  0  0  0  0  0  0  0  0
  1  2  1  0
  2  3  1  0
  3  4  2  0
  4  5  1  0
  5  6  2  0
  6  7  1  0
  7  8  1  0
  8  9  1  0
  9 10  2  0
  9 11  1  0
 11 12  2  0
 12 13  1  0
 13 14  1  0
 14 15  2  0
 15 16  1  0
 16 17  2  0
 17 18  1  0
 18 19  1  0
 19 20  1  0
 19 21  2  0
 17 22  1  0
 22 23  2  0
 13 24  1  0
 24 25  2  0
  6 26  1  0
 26 27  2  0
 27 28  1  0
 28 29  1  0
 27  3  1  0
 25 11  1  0
 23 14  1  0
  1 30  1  0
  1 31  1  0
  1 32  1  0
  4 33  1  0
  5 34  1  0
  7 35  1  0
  7 36  1  0
  8 37  1  0
 12 38  1  0
 15 39  1  0
 16 40  1  0
 18 41  1  0
 20 42  1  0
 20 43  1  0
 20 44  1  0
 22 45  1  0
 24 46  1  0
 26 47  1  0
 29 48  1  0
 29 49  1  0
 29 50  1  0
M  END
$$$$
