
     RDKit          3D

 43 45  0  0  0  0  0  0  0  0999 V2000
   -5.1125   -1.1387    0.8292 C   0  0  0  0  0  0  0  0  0  0  0  0
   -4.3275   -0.2309   -0.1419 C   0  0  0  0  0  0  0  0  0  0  0  0
   -4.7712    1.2342    0.0606 C   0  0  0  0  0  0  0  0  0  0  0  0
   -4.7345   -0.6355   -1.5769 C   0  0  0  0  0  0  0  0  0  0  0  0
   -2.8181   -0.3585    0.1369 C   0  0  0  0  0  0  0  0  0  0  0  0
   -1.9069   -0.8297   -0.8259 C   0  0  0  0  0  0  0  0  0  0  0  0
   -0.5405   -0.9353   -0.5433 C   0  0  0  0  0  0  0  0  0  0  0  0
   -0.0595   -0.5549    0.7095 C   0  0  0  0  0  0  0  0  0  0  0  0
    1.3822   -0.6691    1.0299 C   0  0  0  0  0  0  0  0  0  0  0  0
    1.6597   -1.4379    1.9471 O   0  0  0  0  0  0  0  0  0  0  0  0
    2.2875    0.1137    0.2930 N   0  0  0  0  0  0  0  0  0  0  0  0
    1.8044    1.2580   -0.4926 C   0  0  0  0  0  0  0  0  0  0  0  0
    2.7908    2.3536   -0.8563 C   0  0  0  0  0  0  0  0  0  0  0  0
    2.4318    3.4264   -1.3409 O   0  0  0  0  0  0  0  0  0  0  0  0
    4.1131    2.0666   -0.7175 N   0  0  0  0  0  0  0  0  0  0  0  0
    4.5871    0.8674   -0.1827 C   0  0  0  0  0  0  0  0  0  0  0  0
    5.9756    0.6825   -0.1514 C   0  0  0  0  0  0  0  0  0  0  0  0
    6.5128   -0.4874    0.3758 C   0  0  0  0  0  0  0  0  0  0  0  0
    5.6627   -1.4694    0.8690 C   0  0  0  0  0  0  0  0  0  0  0  0
    4.2757   -1.2803    0.8426 C   0  0  0  0  0  0  0  0  0  0  0  0
    3.7073   -0.1058    0.3276 C   0  0  0  0  0  0  0  0  0  0  0  0
   -0.9408   -0.1121    1.6933 C   0  0  0  0  0  0  0  0  0  0  0  0
   -2.3040   -0.0090    1.4036 C   0  0  0  0  0  0  0  0  0  0  0  0
   -4.7993   -2.1849    0.7314 H   0  0  0  0  0  0  0  0  0  0  0  0
   -6.1896   -1.0928    0.6297 H   0  0  0  0  0  0  0  0  0  0  0  0
   -4.9682   -0.8489    1.8757 H   0  0  0  0  0  0  0  0  0  0  0  0
   -4.2078    1.9108   -0.5930 H   0  0  0  0  0  0  0  0  0  0  0  0
   -5.8361    1.3599   -0.1677 H   0  0  0  0  0  0  0  0  0  0  0  0
   -4.6233    1.5741    1.0914 H   0  0  0  0  0  0  0  0  0  0  0  0
   -4.4911   -1.6839   -1.7853 H   0  0  0  0  0  0  0  0  0  0  0  0
   -4.2355   -0.0126   -2.3284 H   0  0  0  0  0  0  0  0  0  0  0  0
   -5.8145   -0.5205   -1.7284 H   0  0  0  0  0  0  0  0  0  0  0  0
   -2.2367   -1.1349   -1.8156 H   0  0  0  0  0  0  0  0  0  0  0  0
    0.1365   -1.3256   -1.2991 H   0  0  0  0  0  0  0  0  0  0  0  0
    0.9911    1.7436    0.0586 H   0  0  0  0  0  0  0  0  0  0  0  0
    1.4084    0.8646   -1.4356 H   0  0  0  0  0  0  0  0  0  0  0  0
    4.7577    2.7835   -1.0229 H   0  0  0  0  0  0  0  0  0  0  0  0
    6.6485    1.4437   -0.5370 H   0  0  0  0  0  0  0  0  0  0  0  0
    7.5894   -0.6346    0.4005 H   0  0  0  0  0  0  0  0  0  0  0  0
    6.0712   -2.3905    1.2783 H   0  0  0  0  0  0  0  0  0  0  0  0
    3.6633   -2.0922    1.2237 H   0  0  0  0  0  0  0  0  0  0  0  0
   -0.5724    0.1490    2.6826 H   0  0  0  0  0  0  0  0  0  0  0  0
   -2.9668    0.3443    2.1913 H   0  0  0  0  0  0  0  0  0  0  0  0
  1  2  1  0
  2  3  1  0
  2  4  1  0
  2  5  1  0
  5  6  2  0
  6  7  1  0
  7  8  2  0
  8  9  1  0
  9 10  2  0
  9 11  1  0
 11 12  1  0
 12 13  1  0
 13 14  2  0
 13 15  1  0
 15 16  1  0
 16 17  2  0
 17 18  1  0
 18 19  2  0
 19 20  1  0
 20 21  2  0
  8 22  1  0
 22 23  2  0
 23  5  1  0
 21 11  1  0
 21 16  1  0
  1 24  1  0
  1 25  1  0
  1 26  1  0
  3 27  1  0
  3 28  1  0
  3 29  1  0
  4 30  1  0
  4 31  1  0
  4 32  1  0
  6 33  1  0
  7 34  1  0
 12 35  1  0
 12 36  1  0
 15 37  1  0
 17 38  1  0
 18 39  1  0
 19 40  1  0
 20 41  1  0
 22 42  1  0
 23 43  1  0
M  END
$$$$
