
     RDKit          3D

 31 32  0  0  0  0  0  0  0  0999 V2000
   -3.2856    1.7874    0.9524 C   0  0  0  0  0  0  0  0  0  0  0  0
   -2.3465    1.2360   -0.0528 C   0  0  0  0  0  0  0  0  0  0  0  0
   -1.4604    2.0381   -0.6545 N   0  0  0  0  0  0  0  0  0  0  0  0
   -0.7591    1.2301   -1.5270 O   0  0  0  0  0  0  0  0  0  0  0  0
   -1.2048   -0.0485   -1.4229 C   0  0  0  0  0  0  0  0  0  0  0  0
   -0.6702   -1.1439   -2.2109 N   0  0  0  0  0  0  0  0  0  0  0  0
    0.3637   -2.1900   -1.3758 S   0  0  0  0  0  6  0  0  0  0  0  0
   -0.4243   -2.9887   -0.4611 O   0  0  0  0  0  0  0  0  0  0  0  0
    1.1995   -2.8115   -2.3822 O   0  0  0  0  0  0  0  0  0  0  0  0
    1.4089   -1.1161   -0.4184 C   0  0  0  0  0  0  0  0  0  0  0  0
    1.1711   -0.9455    0.9468 C   0  0  0  0  0  0  0  0  0  0  0  0
    2.0072   -0.1081    1.6894 C   0  0  0  0  0  0  0  0  0  0  0  0
    3.0584    0.5813    1.0763 C   0  0  0  0  0  0  0  0  0  0  0  0
    3.9584    1.3225    1.8500 N   0  0  0  0  0  0  0  0  0  0  0  0
    3.3296    0.3357   -0.2738 C   0  0  0  0  0  0  0  0  0  0  0  0
    2.5016   -0.4979   -1.0300 C   0  0  0  0  0  0  0  0  0  0  0  0
   -2.2419   -0.1047   -0.5191 C   0  0  0  0  0  0  0  0  0  0  0  0
   -3.0626   -1.2695   -0.1168 C   0  0  0  0  0  0  0  0  0  0  0  0
   -3.2880    1.1686    1.8554 H   0  0  0  0  0  0  0  0  0  0  0  0
   -3.0109    2.8061    1.2451 H   0  0  0  0  0  0  0  0  0  0  0  0
   -4.3024    1.8120    0.5479 H   0  0  0  0  0  0  0  0  0  0  0  0
   -0.2309   -0.8519   -3.0833 H   0  0  0  0  0  0  0  0  0  0  0  0
    0.3519   -1.4615    1.4418 H   0  0  0  0  0  0  0  0  0  0  0  0
    1.8318    0.0019    2.7567 H   0  0  0  0  0  0  0  0  0  0  0  0
    4.4768    2.0190    1.3234 H   0  0  0  0  0  0  0  0  0  0  0  0
    3.5515    1.7088    2.6963 H   0  0  0  0  0  0  0  0  0  0  0  0
    4.1947    0.7929   -0.7479 H   0  0  0  0  0  0  0  0  0  0  0  0
    2.7276   -0.6689   -2.0795 H   0  0  0  0  0  0  0  0  0  0  0  0
   -4.0948   -0.9669    0.0873 H   0  0  0  0  0  0  0  0  0  0  0  0
   -3.0943   -2.0290   -0.9041 H   0  0  0  0  0  0  0  0  0  0  0  0
   -2.6562   -1.7255    0.7912 H   0  0  0  0  0  0  0  0  0  0  0  0
  1  2  1  0
  2  3  2  0
  3  4  1  0
  4  5  1  0
  5  6  1  0
  6  7  1  0
  7  8  2  0
  7  9  2  0
  7 10  1  0
 10 11  2  0
 11 12  1  0
 12 13  2  0
 13 14  1  0
 13 15  1  0
 15 16  2  0
  5 17  2  0
 17 18  1  0
 17  2  1  0
 16 10  1  0
  1 19  1  0
  1 20  1  0
  1 21  1  0
  6 22  1  0
 11 23  1  0
 12 24  1  0
 14 25  1  0
 14 26  1  0
 15 27  1  0
 16 28  1  0
 18 29  1  0
 18 30  1  0
 18 31  1  0
M  END
$$$$
