
     RDKit          3D

 41 42  0  0  0  0  0  0  0  0999 V2000
    3.9092   -2.8999   -0.8214 C   0  0  0  0  0  0  0  0  0  0  0  0
    3.5930   -1.3606   -1.7204 S   0  0  0  0  0  0  0  0  0  0  0  0
    3.4675   -0.2352   -0.2898 C   0  0  0  0  0  0  0  0  0  0  0  0
    3.2748    1.2247   -0.7051 C   0  0  0  0  0  0  0  0  0  0  0  0
    1.8314    1.7021   -0.9693 C   0  0  1  0  0  0  0  0  0  0  0  0
    1.1953    1.1581   -2.2605 C   0  0  0  0  0  0  0  0  0  0  0  0
    0.7494   -0.1905   -2.1064 O   0  0  0  0  0  0  0  0  0  0  0  0
    0.9505    1.4285    0.1559 N   0  0  0  0  0  0  0  0  0  0  0  0
    0.9682    2.1015    1.3542 C   0  0  0  0  0  0  0  0  0  0  0  0
    1.7531    3.0176    1.5908 O   0  0  0  0  0  0  0  0  0  0  0  0
    0.0204    1.5394    2.4185 C   0  0  0  0  0  0  0  0  0  0  0  0
   -1.0226    0.6903    1.8365 N   0  0  0  0  0  0  0  0  0  0  0  0
   -0.6685   -0.6173    1.5601 N   0  0  0  0  0  0  0  0  0  0  0  0
   -1.5425   -1.3781    0.9782 C   0  0  0  0  0  0  0  0  0  0  0  0
   -2.8754   -0.9415    0.5851 C   0  0  0  0  0  0  0  0  0  0  0  0
   -3.7664   -1.8204   -0.0330 C   0  0  0  0  0  0  0  0  0  0  0  0
   -5.0328   -1.3597   -0.3973 C   0  0  0  0  0  0  0  0  0  0  0  0
   -5.3971   -0.0345   -0.1450 C   0  0  0  0  0  0  0  0  0  0  0  0
   -4.4956    0.8359    0.4728 C   0  0  0  0  0  0  0  0  0  0  0  0
   -3.2272    0.3749    0.8393 C   0  0  0  0  0  0  0  0  0  0  0  0
   -2.2468    1.2637    1.4883 C   0  0  0  0  0  0  0  0  0  0  0  0
   -2.5395    2.4394    1.6876 O   0  0  0  0  0  0  0  0  0  0  0  0
    4.0122   -3.7197   -1.5372 H   0  0  0  0  0  0  0  0  0  0  0  0
    4.8353   -2.8218   -0.2463 H   0  0  0  0  0  0  0  0  0  0  0  0
    3.0759   -3.1260   -0.1511 H   0  0  0  0  0  0  0  0  0  0  0  0
    2.6671   -0.5748    0.3739 H   0  0  0  0  0  0  0  0  0  0  0  0
    4.4120   -0.3150    0.2598 H   0  0  0  0  0  0  0  0  0  0  0  0
    3.9081    1.4708   -1.5671 H   0  0  0  0  0  0  0  0  0  0  0  0
    3.6657    1.8335    0.1220 H   0  0  0  0  0  0  0  0  0  0  0  0
    1.8867    2.7940   -1.0727 H   0  0  0  0  0  0  0  0  0  0  0  0
    1.8801    1.2215   -3.1125 H   0  0  0  0  0  0  0  0  0  0  0  0
    0.3065    1.7503   -2.5043 H   0  0  0  0  0  0  0  0  0  0  0  0
    1.5506   -0.7497   -2.1570 H   0  0  0  0  0  0  0  0  0  0  0  0
    0.3862    0.5789    0.1201 H   0  0  0  0  0  0  0  0  0  0  0  0
    0.6037    0.9419    3.1269 H   0  0  0  0  0  0  0  0  0  0  0  0
   -0.4370    2.3801    2.9495 H   0  0  0  0  0  0  0  0  0  0  0  0
   -1.2588   -2.4216    0.7619 H   0  0  0  0  0  0  0  0  0  0  0  0
   -3.4888   -2.8511   -0.2362 H   0  0  0  0  0  0  0  0  0  0  0  0
   -5.7386   -2.0315   -0.8815 H   0  0  0  0  0  0  0  0  0  0  0  0
   -6.3838    0.3230   -0.4320 H   0  0  0  0  0  0  0  0  0  0  0  0
   -4.7817    1.8682    0.6649 H   0  0  0  0  0  0  0  0  0  0  0  0
  1  2  1  0
  2  3  1  0
  3  4  1  0
  4  5  1  0
  5  6  1  0
  6  7  1  0
  5  8  1  0
  8  9  1  0
  9 10  2  0
  9 11  1  0
 11 12  1  0
 12 13  1  0
 13 14  2  0
 14 15  1  0
 15 16  2  0
 16 17  1  0
 17 18  2  0
 18 19  1  0
 19 20  2  0
 20 21  1  0
 21 22  2  0
 21 12  1  0
 20 15  1  0
  1 23  1  0
  1 24  1  0
  1 25  1  0
  3 26  1  0
  3 27  1  0
  4 28  1  0
  4 29  1  0
  5 30  1  6
  6 31  1  0
  6 32  1  0
  7 33  1  0
  8 34  1  0
 11 35  1  0
 11 36  1  0
 14 37  1  0
 16 38  1  0
 17 39  1  0
 18 40  1  0
 19 41  1  0
M  END
$$$$
