
     RDKit          3D

 48 50  0  0  0  0  0  0  0  0999 V2000
    8.3440   -0.9037    1.3023 C   0  0  0  0  0  0  0  0  0  0  0  0
    7.4806   -1.4514    0.3134 O   0  0  0  0  0  0  0  0  0  0  0  0
    6.1944   -0.9896    0.2952 C   0  0  0  0  0  0  0  0  0  0  0  0
    5.3829   -1.5558   -0.6874 C   0  0  0  0  0  0  0  0  0  0  0  0
    4.0444   -1.1718   -0.8156 C   0  0  0  0  0  0  0  0  0  0  0  0
    3.4940   -0.2108    0.0398 C   0  0  0  0  0  0  0  0  0  0  0  0
    2.1352    0.1201   -0.1539 N   0  0  0  0  0  0  0  0  0  0  0  0
    1.3857    1.0483    0.5482 C   0  0  0  0  0  0  0  0  0  0  0  0
    1.7955    1.7549    1.4648 O   0  0  0  0  0  0  0  0  0  0  0  0
   -0.0734    1.1527    0.1080 C   0  0  0  0  0  0  0  0  0  0  0  0
   -0.2098    1.5486   -1.3659 C   0  0  0  0  0  0  0  0  0  0  0  0
   -1.6794    1.6169   -1.7714 C   0  0  0  0  0  0  0  0  0  0  0  0
   -2.4167    0.3232   -1.4402 C   0  0  0  0  0  0  0  0  0  0  0  0
   -2.2435   -0.0739   -0.0199 N   0  0  0  0  0  0  0  0  0  0  0  0
   -3.3198    0.5861    1.1296 S   0  0  0  0  0  6  0  0  0  0  0  0
   -3.0370   -0.0181    2.4135 O   0  0  0  0  0  0  0  0  0  0  0  0
   -3.3195    2.0229    0.9586 O   0  0  0  0  0  0  0  0  0  0  0  0
   -4.8923   -0.0439    0.5967 C   0  0  0  0  0  0  0  0  0  0  0  0
   -5.1228   -1.4220    0.6533 C   0  0  0  0  0  0  0  0  0  0  0  0
   -6.3539   -1.9281    0.2381 C   0  0  0  0  0  0  0  0  0  0  0  0
   -7.3451   -1.0601   -0.2244 C   0  0  0  0  0  0  0  0  0  0  0  0
   -7.1119    0.3162   -0.2701 C   0  0  0  0  0  0  0  0  0  0  0  0
   -5.8833    0.8311    0.1435 C   0  0  0  0  0  0  0  0  0  0  0  0
   -0.8166   -0.1483    0.4004 C   0  0  0  0  0  0  0  0  0  0  0  0
    4.3083    0.3529    1.0222 C   0  0  0  0  0  0  0  0  0  0  0  0
    5.6510   -0.0333    1.1499 C   0  0  0  0  0  0  0  0  0  0  0  0
    7.9841   -1.1318    2.3110 H   0  0  0  0  0  0  0  0  0  0  0  0
    8.4715    0.1748    1.1615 H   0  0  0  0  0  0  0  0  0  0  0  0
    9.3257   -1.3727    1.1854 H   0  0  0  0  0  0  0  0  0  0  0  0
    5.7967   -2.3035   -1.3598 H   0  0  0  0  0  0  0  0  0  0  0  0
    3.4479   -1.6383   -1.5946 H   0  0  0  0  0  0  0  0  0  0  0  0
    1.6806   -0.3757   -0.9083 H   0  0  0  0  0  0  0  0  0  0  0  0
   -0.5219    1.9540    0.7113 H   0  0  0  0  0  0  0  0  0  0  0  0
    0.3021    0.8303   -2.0170 H   0  0  0  0  0  0  0  0  0  0  0  0
    0.2696    2.5193   -1.5400 H   0  0  0  0  0  0  0  0  0  0  0  0
   -2.1545    2.4658   -1.2684 H   0  0  0  0  0  0  0  0  0  0  0  0
   -1.7524    1.8128   -2.8474 H   0  0  0  0  0  0  0  0  0  0  0  0
   -3.4757    0.4190   -1.6962 H   0  0  0  0  0  0  0  0  0  0  0  0
   -2.0312   -0.4934   -2.0635 H   0  0  0  0  0  0  0  0  0  0  0  0
   -4.3524   -2.0954    1.0224 H   0  0  0  0  0  0  0  0  0  0  0  0
   -6.5449   -2.9977    0.2808 H   0  0  0  0  0  0  0  0  0  0  0  0
   -8.3064   -1.4569   -0.5429 H   0  0  0  0  0  0  0  0  0  0  0  0
   -7.8916    0.9874   -0.6225 H   0  0  0  0  0  0  0  0  0  0  0  0
   -5.7100    1.9043    0.1136 H   0  0  0  0  0  0  0  0  0  0  0  0
   -0.7353   -0.4124    1.4606 H   0  0  0  0  0  0  0  0  0  0  0  0
   -0.3655   -0.9916   -0.1383 H   0  0  0  0  0  0  0  0  0  0  0  0
    3.9346    1.1005    1.7150 H   0  0  0  0  0  0  0  0  0  0  0  0
    6.2381    0.4378    1.9315 H   0  0  0  0  0  0  0  0  0  0  0  0
  1  2  1  0
  2  3  1  0
  3  4  2  0
  4  5  1  0
  5  6  2  0
  6  7  1  0
  7  8  1  0
  8  9  2  0
  8 10  1  0
 10 11  1  0
 11 12  1  0
 12 13  1  0
 13 14  1  0
 14 15  1  0
 15 16  2  0
 15 17  2  0
 15 18  1  0
 18 19  2  0
 19 20  1  0
 20 21  2  0
 21 22  1  0
 22 23  2  0
 14 24  1  0
  6 25  1  0
 25 26  2  0
 26  3  1  0
 24 10  1  0
 23 18  1  0
  1 27  1  0
  1 28  1  0
  1 29  1  0
  4 30  1  0
  5 31  1  0
  7 32  1  0
 10 33  1  0
 11 34  1  0
 11 35  1  0
 12 36  1  0
 12 37  1  0
 13 38  1  0
 13 39  1  0
 19 40  1  0
 20 41  1  0
 21 42  1  0
 22 43  1  0
 23 44  1  0
 24 45  1  0
 24 46  1  0
 25 47  1  0
 26 48  1  0
M  END
$$$$
