
     RDKit          3D

 35 36  0  0  0  0  0  0  0  0999 V2000
    5.3925    1.7922    0.3369 C   0  0  0  0  0  0  0  0  0  0  0  0
    5.5044    0.0517    0.8310 S   0  0  0  0  0  0  0  0  0  0  0  0
    3.8665   -0.5074    0.3986 C   0  0  0  0  0  0  0  0  0  0  0  0
    3.3507   -0.3492   -0.8934 C   0  0  0  0  0  0  0  0  0  0  0  0
    2.0695   -0.8118   -1.2060 C   0  0  0  0  0  0  0  0  0  0  0  0
    1.3036   -1.4360   -0.2185 C   0  0  0  0  0  0  0  0  0  0  0  0
   -0.3214   -2.0419   -0.6025 S   0  0  0  0  0  6  0  0  0  0  0  0
   -0.5167   -3.2741    0.1278 O   0  0  0  0  0  0  0  0  0  0  0  0
   -0.5061   -1.9633   -2.0347 O   0  0  0  0  0  0  0  0  0  0  0  0
   -1.3144   -0.8987    0.1044 N   0  0  0  0  0  0  0  0  0  0  0  0
   -1.2317    0.5062   -0.3194 C   0  0  0  0  0  0  0  0  0  0  0  0
   -2.4910    1.2684    0.1208 C   0  0  0  0  0  0  0  0  0  0  0  0
   -3.7847    0.7758   -0.5201 C   0  0  0  0  0  0  0  0  0  0  0  0
   -4.4611    0.0032    0.5855 C   0  0  0  0  0  0  0  0  0  0  0  0
   -3.9973    0.7408    1.8188 C   0  0  0  0  0  0  0  0  0  0  0  0
   -2.6477    1.1446    1.5528 O   0  0  0  0  0  0  0  0  0  0  0  0
    1.8171   -1.6264    1.0667 C   0  0  0  0  0  0  0  0  0  0  0  0
    3.0986   -1.1607    1.3704 C   0  0  0  0  0  0  0  0  0  0  0  0
    5.3103    1.8858   -0.7489 H   0  0  0  0  0  0  0  0  0  0  0  0
    4.5319    2.2718    0.8113 H   0  0  0  0  0  0  0  0  0  0  0  0
    6.2993    2.3120    0.6577 H   0  0  0  0  0  0  0  0  0  0  0  0
    3.9468    0.1156   -1.6749 H   0  0  0  0  0  0  0  0  0  0  0  0
    1.6858   -0.6915   -2.2170 H   0  0  0  0  0  0  0  0  0  0  0  0
   -1.5164   -1.0570    1.0925 H   0  0  0  0  0  0  0  0  0  0  0  0
   -0.3617    0.9567    0.1709 H   0  0  0  0  0  0  0  0  0  0  0  0
   -1.1117    0.5835   -1.4043 H   0  0  0  0  0  0  0  0  0  0  0  0
   -2.3468    2.3308   -0.1082 H   0  0  0  0  0  0  0  0  0  0  0  0
   -3.6343    0.1886   -1.4308 H   0  0  0  0  0  0  0  0  0  0  0  0
   -4.4052    1.6396   -0.7896 H   0  0  0  0  0  0  0  0  0  0  0  0
   -4.0901   -1.0276    0.6012 H   0  0  0  0  0  0  0  0  0  0  0  0
   -5.5498   -0.0287    0.4918 H   0  0  0  0  0  0  0  0  0  0  0  0
   -4.5940    1.6428    1.9931 H   0  0  0  0  0  0  0  0  0  0  0  0
   -4.0258    0.1202    2.7184 H   0  0  0  0  0  0  0  0  0  0  0  0
    1.2350   -2.1402    1.8285 H   0  0  0  0  0  0  0  0  0  0  0  0
    3.4960   -1.3157    2.3717 H   0  0  0  0  0  0  0  0  0  0  0  0
  1  2  1  0
  2  3  1  0
  3  4  2  0
  4  5  1  0
  5  6  2  0
  6  7  1  0
  7  8  2  0
  7  9  2  0
  7 10  1  0
 10 11  1  0
 11 12  1  0
 12 13  1  0
 13 14  1  0
 14 15  1  0
 15 16  1  0
  6 17  1  0
 17 18  2  0
 18  3  1  0
 16 12  1  0
  1 19  1  0
  1 20  1  0
  1 21  1  0
  4 22  1  0
  5 23  1  0
 10 24  1  0
 11 25  1  0
 11 26  1  0
 12 27  1  0
 13 28  1  0
 13 29  1  0
 14 30  1  0
 14 31  1  0
 15 32  1  0
 15 33  1  0
 17 34  1  0
 18 35  1  0
M  END
$$$$
