
     RDKit          3D

 32 35  0  0  0  0  0  0  0  0999 V2000
   -5.1553   -0.0922    0.7732 C   0  0  0  0  0  0  0  0  0  0  0  0
   -3.6926   -0.0461    0.5631 C   0  0  0  0  0  0  0  0  0  0  0  0
   -2.9624    0.5160    1.5655 O   0  0  0  0  0  0  0  0  0  0  0  0
   -1.6578    0.4640    1.1906 C   0  0  0  0  0  0  0  0  0  0  0  0
   -0.5860    0.9328    1.9357 C   0  0  0  0  0  0  0  0  0  0  0  0
    0.6741    0.7712    1.3468 C   0  0  0  0  0  0  0  0  0  0  0  0
    1.7572    1.2533    2.1172 O   0  0  0  0  0  0  0  0  0  0  0  0
    3.0777    1.1824    1.7028 C   0  0  0  0  0  0  0  0  0  0  0  0
    3.9916    1.6110    2.3975 O   0  0  0  0  0  0  0  0  0  0  0  0
    3.3267    0.5629    0.3788 C   0  0  0  0  0  0  0  0  0  0  0  0
    4.6597    0.4801   -0.0625 C   0  0  0  0  0  0  0  0  0  0  0  0
    4.9583   -0.0902   -1.2955 C   0  0  0  0  0  0  0  0  0  0  0  0
    3.9282   -0.5783   -2.0889 C   0  0  0  0  0  0  0  0  0  0  0  0
    2.6015   -0.4961   -1.6501 C   0  0  0  0  0  0  0  0  0  0  0  0
    2.2685    0.0760   -0.4065 C   0  0  0  0  0  0  0  0  0  0  0  0
    0.8896    0.1829    0.0940 C   0  0  0  0  0  0  0  0  0  0  0  0
   -0.2453   -0.2726   -0.6115 C   0  0  0  0  0  0  0  0  0  0  0  0
   -1.5375   -0.1305   -0.0569 C   0  0  0  0  0  0  0  0  0  0  0  0
   -2.8664   -0.4614   -0.4682 C   0  0  0  0  0  0  0  0  0  0  0  0
   -3.2681   -1.1183   -1.7361 C   0  0  0  0  0  0  0  0  0  0  0  0
   -5.5315   -1.1092    0.6260 H   0  0  0  0  0  0  0  0  0  0  0  0
   -5.4234    0.2240    1.7862 H   0  0  0  0  0  0  0  0  0  0  0  0
   -5.6617    0.5699    0.0643 H   0  0  0  0  0  0  0  0  0  0  0  0
   -0.7213    1.3914    2.9065 H   0  0  0  0  0  0  0  0  0  0  0  0
    5.4687    0.8624    0.5584 H   0  0  0  0  0  0  0  0  0  0  0  0
    5.9897   -0.1526   -1.6336 H   0  0  0  0  0  0  0  0  0  0  0  0
    4.1529   -1.0259   -3.0546 H   0  0  0  0  0  0  0  0  0  0  0  0
    1.8379   -0.8941   -2.3126 H   0  0  0  0  0  0  0  0  0  0  0  0
   -0.1630   -0.7389   -1.5864 H   0  0  0  0  0  0  0  0  0  0  0  0
   -2.9393   -2.1624   -1.7428 H   0  0  0  0  0  0  0  0  0  0  0  0
   -2.8166   -0.6084   -2.5932 H   0  0  0  0  0  0  0  0  0  0  0  0
   -4.3540   -1.1029   -1.8719 H   0  0  0  0  0  0  0  0  0  0  0  0
  1  2  1  0
  2  3  1  0
  3  4  1  0
  4  5  2  0
  5  6  1  0
  6  7  1  0
  7  8  1  0
  8  9  2  0
  8 10  1  0
 10 11  2  0
 11 12  1  0
 12 13  2  0
 13 14  1  0
 14 15  2  0
 15 16  1  0
 16 17  1  0
 17 18  2  0
 18 19  1  0
 19 20  1  0
 19  2  2  0
 18  4  1  0
 16  6  2  0
 15 10  1  0
  1 21  1  0
  1 22  1  0
  1 23  1  0
  5 24  1  0
 11 25  1  0
 12 26  1  0
 13 27  1  0
 14 28  1  0
 17 29  1  0
 20 30  1  0
 20 31  1  0
 20 32  1  0
M  END
$$$$
