
     RDKit          3D

 63 66  0  0  0  0  0  0  0  0999 V2000
   -7.0094   -0.1250   -0.4030 C   0  0  0  0  0  0  0  0  0  0  0  0
   -6.7899    1.3685   -0.1480 C   0  0  0  0  0  0  0  0  0  0  0  0
   -8.0920    2.1229   -0.4524 C   0  0  0  0  0  0  0  0  0  0  0  0
   -6.4778    1.5378    1.2441 O   0  0  0  0  0  0  0  0  0  0  0  0
   -5.6468    1.9470   -0.9980 C   0  0  0  0  0  0  0  0  0  0  0  0
   -4.3087    1.2453   -0.8535 C   0  0  0  0  0  0  0  0  0  0  0  0
   -3.6198    0.9600   -1.8251 O   0  0  0  0  0  0  0  0  0  0  0  0
   -3.9067    1.0422    0.4436 N   0  0  0  0  0  0  0  0  0  0  0  0
   -2.6491    0.4067    0.7877 C   0  0  0  0  0  0  0  0  0  0  0  0
   -2.7646   -1.1144    0.9484 C   0  0  0  0  0  0  0  0  0  0  0  0
   -2.6074   -1.8737   -0.2836 N   0  0  0  0  0  0  0  0  0  0  0  0
   -3.6533   -2.5281   -0.8953 C   0  0  0  0  0  0  0  0  0  0  0  0
   -3.1852   -3.0827   -2.0627 C   0  0  0  0  0  0  0  0  0  0  0  0
   -1.8058   -2.7950   -2.1377 C   0  0  0  0  0  0  0  0  0  0  0  0
   -0.9426   -3.1413   -3.1116 N   0  0  0  0  0  0  0  0  0  0  0  0
    0.2995   -2.7135   -2.8862 C   0  0  0  0  0  0  0  0  0  0  0  0
    0.7578   -2.0380   -1.8204 N   0  0  0  0  0  0  0  0  0  0  0  0
   -0.0965   -1.7051   -0.8250 C   0  0  0  0  0  0  0  0  0  0  0  0
    0.3699   -1.0674    0.3377 N   0  0  0  0  0  0  0  0  0  0  0  0
    1.6111   -0.4503    0.5973 C   0  0  0  0  0  0  0  0  0  0  0  0
    2.4568    0.0250   -0.4151 C   0  0  0  0  0  0  0  0  0  0  0  0
    3.6577    0.6793   -0.1122 C   0  0  0  0  0  0  0  0  0  0  0  0
    4.0230    0.8807    1.2195 C   0  0  0  0  0  0  0  0  0  0  0  0
    5.1814    1.5571    1.5206 O   0  0  0  0  0  0  0  0  0  0  0  0
    6.3690    0.9461    1.1824 C   0  0  0  0  0  0  0  0  0  0  0  0
    6.5878   -0.4287    1.2761 C   0  0  0  0  0  0  0  0  0  0  0  0
    7.8358   -0.9584    0.9508 C   0  0  0  0  0  0  0  0  0  0  0  0
    8.8705   -0.1139    0.5435 C   0  0  0  0  0  0  0  0  0  0  0  0
    8.6669    1.2718    0.4555 C   0  0  0  0  0  0  0  0  0  0  0  0
    9.7833    2.2003    0.0445 C   0  0  0  0  0  0  0  0  0  0  0  0
   10.3821    2.7988    1.1126 F   0  0  0  0  0  0  0  0  0  0  0  0
    9.3583    3.2139   -0.7626 F   0  0  0  0  0  0  0  0  0  0  0  0
   10.7813    1.5734   -0.6416 F   0  0  0  0  0  0  0  0  0  0  0  0
    7.4086    1.7930    0.7919 C   0  0  0  0  0  0  0  0  0  0  0  0
    3.1655    0.4683    2.2427 C   0  0  0  0  0  0  0  0  0  0  0  0
    3.5521    0.7370    3.9050 Cl  0  0  0  0  0  0  0  0  0  0  0  0
    1.9706   -0.1903    1.9318 C   0  0  0  0  0  0  0  0  0  0  0  0
   -1.4381   -2.0812   -0.9979 C   0  0  0  0  0  0  0  0  0  0  0  0
   -7.2260   -0.3236   -1.4575 H   0  0  0  0  0  0  0  0  0  0  0  0
   -6.1419   -0.7185   -0.0995 H   0  0  0  0  0  0  0  0  0  0  0  0
   -7.8505   -0.4987    0.1921 H   0  0  0  0  0  0  0  0  0  0  0  0
   -7.9748    3.1976   -0.2696 H   0  0  0  0  0  0  0  0  0  0  0  0
   -8.4026    1.9829   -1.4928 H   0  0  0  0  0  0  0  0  0  0  0  0
   -8.9027    1.7835    0.2019 H   0  0  0  0  0  0  0  0  0  0  0  0
   -6.8549    2.3870    1.5389 H   0  0  0  0  0  0  0  0  0  0  0  0
   -5.9209    1.9050   -2.0594 H   0  0  0  0  0  0  0  0  0  0  0  0
   -5.4788    3.0011   -0.7401 H   0  0  0  0  0  0  0  0  0  0  0  0
   -4.6105    1.1860    1.1693 H   0  0  0  0  0  0  0  0  0  0  0  0
   -1.8914    0.6855    0.0472 H   0  0  0  0  0  0  0  0  0  0  0  0
   -2.3557    0.8445    1.7489 H   0  0  0  0  0  0  0  0  0  0  0  0
   -2.0081   -1.4887    1.6461 H   0  0  0  0  0  0  0  0  0  0  0  0
   -3.7372   -1.3796    1.3855 H   0  0  0  0  0  0  0  0  0  0  0  0
   -4.6483   -2.5185   -0.4726 H   0  0  0  0  0  0  0  0  0  0  0  0
   -3.7664   -3.6316   -2.7899 H   0  0  0  0  0  0  0  0  0  0  0  0
    1.0303   -2.9460   -3.6529 H   0  0  0  0  0  0  0  0  0  0  0  0
   -0.0362   -1.4898    1.1591 H   0  0  0  0  0  0  0  0  0  0  0  0
    2.1886   -0.0961   -1.4628 H   0  0  0  0  0  0  0  0  0  0  0  0
    4.2928    1.0384   -0.9210 H   0  0  0  0  0  0  0  0  0  0  0  0
    5.8028   -1.0989    1.6144 H   0  0  0  0  0  0  0  0  0  0  0  0
    8.0052   -2.0298    1.0240 H   0  0  0  0  0  0  0  0  0  0  0  0
    9.8416   -0.5439    0.2987 H   0  0  0  0  0  0  0  0  0  0  0  0
    7.2342    2.8657    0.7453 H   0  0  0  0  0  0  0  0  0  0  0  0
    1.3161   -0.5021    2.7429 H   0  0  0  0  0  0  0  0  0  0  0  0
  1  2  1  0
  2  3  1  0
  2  4  1  0
  2  5  1  0
  5  6  1  0
  6  7  2  0
  6  8  1  0
  8  9  1  0
  9 10  1  0
 10 11  1  0
 11 12  1  0
 12 13  2  0
 13 14  1  0
 14 15  2  0
 15 16  1  0
 16 17  2  0
 17 18  1  0
 18 19  1  0
 19 20  1  0
 20 21  2  0
 21 22  1  0
 22 23  2  0
 23 24  1  0
 24 25  1  0
 25 26  2  0
 26 27  1  0
 27 28  2  0
 28 29  1  0
 29 30  1  0
 30 31  1  0
 30 32  1  0
 30 33  1  0
 29 34  2  0
 23 35  1  0
 35 36  1  0
 35 37  2  0
 18 38  2  0
 38 11  1  0
 38 14  1  0
 37 20  1  0
 34 25  1  0
  1 39  1  0
  1 40  1  0
  1 41  1  0
  3 42  1  0
  3 43  1  0
  3 44  1  0
  4 45  1  0
  5 46  1  0
  5 47  1  0
  8 48  1  0
  9 49  1  0
  9 50  1  0
 10 51  1  0
 10 52  1  0
 12 53  1  0
 13 54  1  0
 16 55  1  0
 19 56  1  0
 21 57  1  0
 22 58  1  0
 26 59  1  0
 27 60  1  0
 28 61  1  0
 34 62  1  0
 37 63  1  0
M  END
$$$$
