
     RDKit          3D

 48 51  0  0  0  0  0  0  0  0999 V2000
    5.5631   -1.3778    1.0292 C   0  0  0  0  0  0  0  0  0  0  0  0
    5.0620   -0.3529    2.0308 C   0  0  0  0  0  0  0  0  0  0  0  0
    4.4449    0.7888    1.3827 N   0  0  0  0  0  0  0  0  0  0  0  0
    5.0266    1.9944    1.1347 C   0  0  0  0  0  0  0  0  0  0  0  0
    4.0613    2.7536    0.5206 C   0  0  0  0  0  0  0  0  0  0  0  0
    2.9090    1.9213    0.4331 C   0  0  0  0  0  0  0  0  0  0  0  0
    1.6138    2.3191   -0.1544 C   0  0  0  0  0  0  0  0  0  0  0  0
    1.4433    3.4505   -0.6129 O   0  0  0  0  0  0  0  0  0  0  0  0
    0.5921    1.3899   -0.1704 N   0  0  0  0  0  0  0  0  0  0  0  0
   -0.6138    1.4624   -0.9805 C   0  0  0  0  0  0  0  0  0  0  0  0
   -0.8713   -0.0058   -0.5703 C   0  0  0  0  0  0  0  0  0  0  0  0
   -1.2120   -0.9860   -1.6882 C   0  0  0  0  0  0  0  0  0  0  0  0
   -1.7751   -2.1103   -0.9548 N   0  0  0  0  0  0  0  0  0  0  0  0
   -2.0582   -3.3586   -1.4665 C   0  0  0  0  0  0  0  0  0  0  0  0
   -1.8115   -3.5522   -2.9401 C   0  0  0  0  0  0  0  0  0  0  0  0
   -2.4785   -4.2768   -0.7649 O   0  0  0  0  0  0  0  0  0  0  0  0
   -2.0126   -1.8163    0.4529 C   0  0  0  0  0  0  0  0  0  0  0  0
   -1.8360   -0.3075    0.5857 C   0  0  0  0  0  0  0  0  0  0  0  0
   -3.1336    0.4110    0.4731 C   0  0  0  0  0  0  0  0  0  0  0  0
   -3.6675    1.2783    1.3031 N   0  0  0  0  0  0  0  0  0  0  0  0
   -4.8296    1.6162    0.6591 C   0  0  0  0  0  0  0  0  0  0  0  0
   -5.7945    2.5832    1.2131 C   0  0  0  0  0  0  0  0  0  0  0  0
   -5.0199    1.0062   -0.5174 N   0  0  0  0  0  0  0  0  0  0  0  0
   -3.8918    0.1965   -0.6426 O   0  0  0  0  0  0  0  0  0  0  0  0
    0.6213   -0.0620   -0.1456 C   0  0  0  0  0  0  0  0  0  0  0  0
    3.1672    0.7109    0.9687 N   0  0  0  0  0  0  0  0  0  0  0  0
    6.0289   -2.2208    1.5487 H   0  0  0  0  0  0  0  0  0  0  0  0
    4.7430   -1.7657    0.4157 H   0  0  0  0  0  0  0  0  0  0  0  0
    6.3055   -0.9387    0.3544 H   0  0  0  0  0  0  0  0  0  0  0  0
    5.8893    0.0181    2.6455 H   0  0  0  0  0  0  0  0  0  0  0  0
    4.3168   -0.7947    2.7015 H   0  0  0  0  0  0  0  0  0  0  0  0
    6.0499    2.2099    1.4085 H   0  0  0  0  0  0  0  0  0  0  0  0
    4.1512    3.7750    0.1756 H   0  0  0  0  0  0  0  0  0  0  0  0
   -0.4002    1.6276   -2.0417 H   0  0  0  0  0  0  0  0  0  0  0  0
   -1.3287    2.2081   -0.6252 H   0  0  0  0  0  0  0  0  0  0  0  0
   -0.3513   -1.3010   -2.2849 H   0  0  0  0  0  0  0  0  0  0  0  0
   -1.9865   -0.5951   -2.3562 H   0  0  0  0  0  0  0  0  0  0  0  0
   -2.2151   -4.5206   -3.2506 H   0  0  0  0  0  0  0  0  0  0  0  0
   -0.7374   -3.5400   -3.1422 H   0  0  0  0  0  0  0  0  0  0  0  0
   -2.3155   -2.7740   -3.5189 H   0  0  0  0  0  0  0  0  0  0  0  0
   -2.9914   -2.1911    0.7713 H   0  0  0  0  0  0  0  0  0  0  0  0
   -1.2389   -2.3488    1.0192 H   0  0  0  0  0  0  0  0  0  0  0  0
   -1.4045   -0.0601    1.5632 H   0  0  0  0  0  0  0  0  0  0  0  0
   -5.4634    2.9494    2.1898 H   0  0  0  0  0  0  0  0  0  0  0  0
   -5.9020    3.4444    0.5464 H   0  0  0  0  0  0  0  0  0  0  0  0
   -6.7767    2.1178    1.3407 H   0  0  0  0  0  0  0  0  0  0  0  0
    0.8120   -0.4934    0.8405 H   0  0  0  0  0  0  0  0  0  0  0  0
    1.3164   -0.4824   -0.8797 H   0  0  0  0  0  0  0  0  0  0  0  0
  1  2  1  0
  2  3  1  0
  3  4  1  0
  4  5  2  0
  5  6  1  0
  6  7  1  0
  7  8  2  0
  7  9  1  0
  9 10  1  0
 10 11  1  0
 11 12  1  0
 12 13  1  0
 13 14  1  0
 14 15  1  0
 14 16  2  0
 13 17  1  0
 17 18  1  0
 18 19  1  0
 19 20  2  0
 20 21  1  0
 21 22  1  0
 21 23  2  0
 23 24  1  0
 11 25  1  0
  6 26  2  0
 26  3  1  0
 25  9  1  0
 18 11  1  0
 24 19  1  0
  1 27  1  0
  1 28  1  0
  1 29  1  0
  2 30  1  0
  2 31  1  0
  4 32  1  0
  5 33  1  0
 10 34  1  0
 10 35  1  0
 12 36  1  0
 12 37  1  0
 15 38  1  0
 15 39  1  0
 15 40  1  0
 17 41  1  0
 17 42  1  0
 18 43  1  0
 22 44  1  0
 22 45  1  0
 22 46  1  0
 25 47  1  0
 25 48  1  0
M  END
$$$$
