
     RDKit          3D

 40 42  0  0  0  0  0  0  0  0999 V2000
    7.3721    0.6532    0.8275 C   0  0  0  0  0  0  0  0  0  0  0  0
    5.9636    0.3139    0.4455 C   0  0  0  0  0  0  0  0  0  0  0  0
    5.4344   -0.9587    0.6826 C   0  0  0  0  0  0  0  0  0  0  0  0
    4.1160   -1.2514    0.3199 C   0  0  0  0  0  0  0  0  0  0  0  0
    3.3094   -0.2688   -0.2703 C   0  0  0  0  0  0  0  0  0  0  0  0
    1.9166   -0.6281   -0.6456 C   0  0  0  0  0  0  0  0  0  0  0  0
    1.6399   -1.7841   -0.9397 O   0  0  0  0  0  0  0  0  0  0  0  0
    0.9882    0.3912   -0.5998 N   0  0  0  0  0  0  0  0  0  0  0  0
   -0.4131    0.1554   -0.9127 C   0  0  0  0  0  0  0  0  0  0  0  0
   -1.1514   -0.5892    0.2017 C   0  0  0  0  0  0  0  0  0  0  0  0
   -2.6295   -0.5636   -0.0239 C   0  0  0  0  0  0  0  0  0  0  0  0
   -3.2849   -1.3526   -0.8580 N   0  0  0  0  0  0  0  0  0  0  0  0
   -4.6036   -0.9945   -0.7479 C   0  0  0  0  0  0  0  0  0  0  0  0
   -5.7489   -1.4850   -1.3843 C   0  0  0  0  0  0  0  0  0  0  0  0
   -6.9682   -0.8927   -1.0467 C   0  0  0  0  0  0  0  0  0  0  0  0
   -6.9861    0.1373   -0.1096 C   0  0  0  0  0  0  0  0  0  0  0  0
   -5.9067    0.6467    0.5339 N   0  0  0  0  0  0  0  0  0  0  0  0
   -4.7608    0.0380    0.1674 C   0  0  0  0  0  0  0  0  0  0  0  0
   -3.4948    0.3020    0.6138 N   0  0  0  0  0  0  0  0  0  0  0  0
   -3.1481    1.3179    1.5742 C   0  0  0  0  0  0  0  0  0  0  0  0
    3.8333    1.0026   -0.5138 C   0  0  0  0  0  0  0  0  0  0  0  0
    5.1478    1.2798   -0.1504 C   0  0  0  0  0  0  0  0  0  0  0  0
    5.6359    2.5045   -0.3923 F   0  0  0  0  0  0  0  0  0  0  0  0
    7.9212   -0.2345    1.1590 H   0  0  0  0  0  0  0  0  0  0  0  0
    7.9082    1.0709   -0.0312 H   0  0  0  0  0  0  0  0  0  0  0  0
    7.3757    1.3820    1.6448 H   0  0  0  0  0  0  0  0  0  0  0  0
    6.0425   -1.7351    1.1430 H   0  0  0  0  0  0  0  0  0  0  0  0
    3.7173   -2.2495    0.4950 H   0  0  0  0  0  0  0  0  0  0  0  0
    1.2420    1.2802   -0.1907 H   0  0  0  0  0  0  0  0  0  0  0  0
   -0.8603    1.1414   -1.0857 H   0  0  0  0  0  0  0  0  0  0  0  0
   -0.4725   -0.4077   -1.8521 H   0  0  0  0  0  0  0  0  0  0  0  0
   -0.8160   -1.6329    0.2399 H   0  0  0  0  0  0  0  0  0  0  0  0
   -0.8999   -0.1569    1.1771 H   0  0  0  0  0  0  0  0  0  0  0  0
   -5.6807   -2.2910   -2.1043 H   0  0  0  0  0  0  0  0  0  0  0  0
   -7.8899   -1.2318   -1.5068 H   0  0  0  0  0  0  0  0  0  0  0  0
   -7.9303    0.6052    0.1619 H   0  0  0  0  0  0  0  0  0  0  0  0
   -4.0099    1.9578    1.7780 H   0  0  0  0  0  0  0  0  0  0  0  0
   -2.8274    0.8249    2.4947 H   0  0  0  0  0  0  0  0  0  0  0  0
   -2.3391    1.9277    1.1623 H   0  0  0  0  0  0  0  0  0  0  0  0
    3.2578    1.7757   -1.0091 H   0  0  0  0  0  0  0  0  0  0  0  0
  1  2  1  0
  2  3  2  0
  3  4  1  0
  4  5  2  0
  5  6  1  0
  6  7  2  0
  6  8  1  0
  8  9  1  0
  9 10  1  0
 10 11  1  0
 11 12  2  0
 12 13  1  0
 13 14  2  0
 14 15  1  0
 15 16  2  0
 16 17  1  0
 17 18  2  0
 18 19  1  0
 19 20  1  0
  5 21  1  0
 21 22  2  0
 22 23  1  0
 22  2  1  0
 19 11  1  0
 18 13  1  0
  1 24  1  0
  1 25  1  0
  1 26  1  0
  3 27  1  0
  4 28  1  0
  8 29  1  0
  9 30  1  0
  9 31  1  0
 10 32  1  0
 10 33  1  0
 14 34  1  0
 15 35  1  0
 16 36  1  0
 20 37  1  0
 20 38  1  0
 20 39  1  0
 21 40  1  0
M  END
$$$$
