
     RDKit          3D

 46 48  0  0  0  0  0  0  0  0999 V2000
    5.1562    0.7676   -0.3119 C   0  0  0  0  0  0  0  0  0  0  0  0
    3.8559    0.4021    0.1901 N   0  0  0  0  0  0  0  0  0  0  0  0
    3.4859   -0.9552   -0.2254 C   0  0  0  0  0  0  0  0  0  0  0  0
    2.0907   -1.1849    0.3856 C   0  0  0  0  0  0  0  0  0  0  0  0
    1.1982   -0.1481   -0.1768 C   0  0  0  0  0  0  0  0  0  0  0  0
   -0.2073   -0.1205    0.2250 C   0  0  0  0  0  0  0  0  0  0  0  0
   -0.3633    0.0289    1.7484 C   0  0  0  0  0  0  0  0  0  0  0  0
   -1.7708    0.1675    2.1858 C   0  0  0  0  0  0  0  0  0  0  0  0
   -2.7003    0.2672    1.0020 C   0  0  0  0  0  0  0  0  0  0  0  0
   -2.4547   -0.9834    0.1932 C   0  0  0  0  0  0  0  0  0  0  0  0
   -3.4528   -1.8437   -0.1211 C   0  0  0  0  0  0  0  0  0  0  0  0
   -3.1938   -2.9533   -0.8832 C   0  0  0  0  0  0  0  0  0  0  0  0
   -1.8989   -3.1402   -1.3007 C   0  0  0  0  0  0  0  0  0  0  0  0
   -0.8686   -2.2539   -0.9773 C   0  0  0  0  0  0  0  0  0  0  0  0
   -1.1241   -1.1570   -0.2223 C   0  0  0  0  0  0  0  0  0  0  0  0
   -2.1429    1.3612    0.1295 C   0  0  0  0  0  0  0  0  0  0  0  0
   -2.8203    2.4673   -0.2529 C   0  0  0  0  0  0  0  0  0  0  0  0
   -2.1863    3.3902   -1.0631 C   0  0  0  0  0  0  0  0  0  0  0  0
   -0.8850    3.2022   -1.4838 C   0  0  0  0  0  0  0  0  0  0  0  0
   -0.1957    2.0537   -1.0809 C   0  0  0  0  0  0  0  0  0  0  0  0
   -0.8450    1.1702   -0.2877 C   0  0  0  0  0  0  0  0  0  0  0  0
    0.6912    0.0000    0.0000 Cl  0  0  0  0  0  0  0  0  0  0  0  0
    5.4348    0.1288   -1.1868 H   0  0  0  0  0  0  0  0  0  0  0  0
    5.1991    1.8237   -0.6669 H   0  0  0  0  0  0  0  0  0  0  0  0
    5.9415    0.6493    0.4669 H   0  0  0  0  0  0  0  0  0  0  0  0
    3.8165    0.3890    1.2483 H   0  0  0  0  0  0  0  0  0  0  0  0
    4.2013   -1.7081    0.0987 H   0  0  0  0  0  0  0  0  0  0  0  0
    3.3255   -0.9006   -1.3192 H   0  0  0  0  0  0  0  0  0  0  0  0
    2.2718   -1.0767    1.4826 H   0  0  0  0  0  0  0  0  0  0  0  0
    1.8459   -2.2194    0.1373 H   0  0  0  0  0  0  0  0  0  0  0  0
    1.2996   -0.1857   -1.2950 H   0  0  0  0  0  0  0  0  0  0  0  0
    1.6453    0.8477    0.1359 H   0  0  0  0  0  0  0  0  0  0  0  0
    0.2111    0.9320    2.0305 H   0  0  0  0  0  0  0  0  0  0  0  0
    0.0733   -0.8712    2.2592 H   0  0  0  0  0  0  0  0  0  0  0  0
   -1.9464    1.0437    2.8556 H   0  0  0  0  0  0  0  0  0  0  0  0
   -2.1261   -0.7177    2.7854 H   0  0  0  0  0  0  0  0  0  0  0  0
   -3.7410    0.4103    1.2491 H   0  0  0  0  0  0  0  0  0  0  0  0
   -4.4679   -1.6591    0.2299 H   0  0  0  0  0  0  0  0  0  0  0  0
   -3.9997   -3.6401   -1.1316 H   0  0  0  0  0  0  0  0  0  0  0  0
   -1.6886   -4.0113   -1.9012 H   0  0  0  0  0  0  0  0  0  0  0  0
    0.1321   -2.4112   -1.3293 H   0  0  0  0  0  0  0  0  0  0  0  0
   -3.8462    2.5896    0.0941 H   0  0  0  0  0  0  0  0  0  0  0  0
   -2.7283    4.2853   -1.3751 H   0  0  0  0  0  0  0  0  0  0  0  0
   -0.3508    3.8944   -2.1156 H   0  0  0  0  0  0  0  0  0  0  0  0
    0.8199    1.8692   -1.3899 H   0  0  0  0  0  0  0  0  0  0  0  0
   -0.6912    0.0000    0.0000 H   0  0  0  0  0  0  0  0  0  0  0  0
  1  2  1  0
  2  3  1  0
  3  4  1  0
  4  5  1  0
  5  6  1  0
  6  7  1  0
  7  8  1  0
  8  9  1  0
  9 10  1  0
 10 11  2  0
 11 12  1  0
 12 13  2  0
 13 14  1  0
 14 15  2  0
  9 16  1  0
 16 17  2  0
 17 18  1  0
 18 19  2  0
 19 20  1  0
 20 21  2  0
 15  6  1  0
 21 16  1  0
 21  6  1  0
 15 10  1  0
  1 23  1  0
  1 24  1  0
  1 25  1  0
  2 26  1  0
  3 27  1  0
  3 28  1  0
  4 29  1  0
  4 30  1  0
  5 31  1  0
  5 32  1  0
  7 33  1  0
  7 34  1  0
  8 35  1  0
  8 36  1  0
  9 37  1  0
 11 38  1  0
 12 39  1  0
 13 40  1  0
 14 41  1  0
 17 42  1  0
 18 43  1  0
 19 44  1  0
 20 45  1  0
 22 46  1  0
M  END
$$$$
