
     RDKit          3D

 44 47  0  0  0  0  0  0  0  0999 V2000
   -2.4965    0.6013    1.2165 C   0  0  0  0  0  0  0  0  0  0  0  0
   -2.2872   -0.3188   -0.0135 C   0  0  2  0  0  0  0  0  0  0  0  0
   -1.7236   -1.6666    0.4528 C   0  0  0  0  0  0  0  0  0  0  0  0
   -0.2716   -1.5387    0.9527 C   0  0  0  0  0  0  0  0  0  0  0  0
    0.6716   -0.8273   -0.0544 C   0  0  2  0  0  0  0  0  0  0  0  0
    2.1092   -0.6390    0.4259 C   0  0  0  0  0  0  0  0  0  0  0  0
    2.7227   -1.5826    1.2697 C   0  0  0  0  0  0  0  0  0  0  0  0
    4.0504   -1.4359    1.6763 C   0  0  0  0  0  0  0  0  0  0  0  0
    4.7880   -0.3509    1.2343 C   0  0  0  0  0  0  0  0  0  0  0  0
    6.0792   -0.2419    1.6572 O   0  0  0  0  0  0  0  0  0  0  0  0
    4.2202    0.5883    0.3827 C   0  0  0  0  0  0  0  0  0  0  0  0
    2.8857    0.4457   -0.0407 C   0  0  0  0  0  0  0  0  0  0  0  0
    2.3191    1.5104   -0.9497 C   0  0  0  0  0  0  0  0  0  0  0  0
    0.9887    1.1341   -1.5948 C   0  0  0  0  0  0  0  0  0  0  0  0
    0.0594    0.5191   -0.5468 C   0  0  1  0  0  0  0  0  0  0  0  0
   -1.3428    0.2487   -1.0921 C   0  0  2  0  0  0  0  0  0  0  0  0
   -2.1443    1.3978   -1.6973 C   0  0  0  0  0  0  0  0  0  0  0  0
   -3.6010    0.9010   -1.6516 C   0  0  0  0  0  0  0  0  0  0  0  0
   -3.5840   -0.4096   -0.8408 C   0  0  2  0  0  0  0  0  0  0  0  0
   -4.7418   -0.5471   -0.0405 O   0  0  0  0  0  0  0  0  0  0  0  0
   -1.5673    0.8066    1.7544 H   0  0  0  0  0  0  0  0  0  0  0  0
   -2.9282    1.5700    0.9460 H   0  0  0  0  0  0  0  0  0  0  0  0
   -3.1801    0.1343    1.9351 H   0  0  0  0  0  0  0  0  0  0  0  0
   -1.7407   -2.3859   -0.3765 H   0  0  0  0  0  0  0  0  0  0  0  0
   -2.3494   -2.0959    1.2444 H   0  0  0  0  0  0  0  0  0  0  0  0
   -0.2519   -1.0121    1.9145 H   0  0  0  0  0  0  0  0  0  0  0  0
    0.0872   -2.5545    1.1547 H   0  0  0  0  0  0  0  0  0  0  0  0
    0.7500   -1.4949   -0.9267 H   0  0  0  0  0  0  0  0  0  0  0  0
    2.1834   -2.4562    1.6240 H   0  0  0  0  0  0  0  0  0  0  0  0
    4.5049   -2.1713    2.3337 H   0  0  0  0  0  0  0  0  0  0  0  0
    6.4617    0.5634    1.2729 H   0  0  0  0  0  0  0  0  0  0  0  0
    4.8019    1.4377    0.0362 H   0  0  0  0  0  0  0  0  0  0  0  0
    2.1819    2.4219   -0.3538 H   0  0  0  0  0  0  0  0  0  0  0  0
    3.0395    1.7422   -1.7436 H   0  0  0  0  0  0  0  0  0  0  0  0
    0.5461    2.0317   -2.0408 H   0  0  0  0  0  0  0  0  0  0  0  0
    1.1579    0.4216   -2.4124 H   0  0  0  0  0  0  0  0  0  0  0  0
   -0.0030    1.2239    0.2923 H   0  0  0  0  0  0  0  0  0  0  0  0
   -1.2346   -0.5013   -1.8937 H   0  0  0  0  0  0  0  0  0  0  0  0
   -1.8326    1.6198   -2.7230 H   0  0  0  0  0  0  0  0  0  0  0  0
   -2.0351    2.3169   -1.1110 H   0  0  0  0  0  0  0  0  0  0  0  0
   -3.9804    0.7120   -2.6620 H   0  0  0  0  0  0  0  0  0  0  0  0
   -4.2557    1.6559   -1.2019 H   0  0  0  0  0  0  0  0  0  0  0  0
   -3.5442   -1.2648   -1.5273 H   0  0  0  0  0  0  0  0  0  0  0  0
   -5.5127   -0.5092   -0.6320 H   0  0  0  0  0  0  0  0  0  0  0  0
  2  1  1  1
  2  3  1  0
  3  4  1  0
  4  5  1  0
  5  6  1  0
  6  7  2  0
  7  8  1  0
  8  9  2  0
  9 10  1  0
  9 11  1  0
 11 12  2  0
 12 13  1  0
 13 14  1  0
 14 15  1  0
 15 16  1  0
 16 17  1  0
 17 18  1  0
 18 19  1  0
 19 20  1  0
 16  2  1  0
 19  2  1  0
 15  5  1  0
 12  6  1  0
  1 21  1  0
  1 22  1  0
  1 23  1  0
  3 24  1  0
  3 25  1  0
  4 26  1  0
  4 27  1  0
  5 28  1  6
  7 29  1  0
  8 30  1  0
 10 31  1  0
 11 32  1  0
 13 33  1  0
 13 34  1  0
 14 35  1  0
 14 36  1  0
 15 37  1  1
 16 38  1  6
 17 39  1  0
 17 40  1  0
 18 41  1  0
 18 42  1  0
 19 43  1  6
 20 44  1  0
M  END
$$$$
