
     RDKit          3D

 65 69  0  0  0  0  0  0  0  0999 V2000
    5.8259   -2.9584   -2.6998 N   0  0  0  0  0  0  0  0  0  0  0  0
    5.3106   -1.9261   -2.5707 C   0  0  0  0  0  0  0  0  0  0  0  0
    4.6958   -0.6386   -2.4658 C   0  0  0  0  0  0  0  0  0  0  0  0
    4.7117    0.2036   -3.5580 C   0  0  0  0  0  0  0  0  0  0  0  0
    4.1369    1.4268   -3.5750 N   0  0  0  0  0  0  0  0  0  0  0  0
    3.5266    1.8891   -2.4596 C   0  0  0  0  0  0  0  0  0  0  0  0
    2.9317    3.1583   -2.4285 C   0  0  0  0  0  0  0  0  0  0  0  0
    2.9425    4.1797   -3.8348 Cl  0  0  0  0  0  0  0  0  0  0  0  0
    2.2967    3.6614   -1.2848 C   0  0  0  0  0  0  0  0  0  0  0  0
    2.2141    2.9020   -0.1223 C   0  0  0  0  0  0  0  0  0  0  0  0
    1.6131    3.4544    1.0090 N   0  0  0  0  0  0  0  0  0  0  0  0
    1.1551    2.5942    2.1089 C   0  0  0  0  0  0  0  0  0  0  0  0
    0.1858    1.5080    1.7704 C   0  0  0  0  0  0  0  0  0  0  0  0
   -1.0507    1.5839    1.1681 C   0  0  0  0  0  0  0  0  0  0  0  0
   -1.4433    0.2834    1.0579 N   0  0  0  0  0  0  0  0  0  0  0  0
   -2.6607   -0.2198    0.4553 C   0  0  0  0  0  0  0  0  0  0  0  0
   -3.7981   -0.3176    1.4807 C   0  0  0  0  0  0  0  0  0  0  0  0
   -5.1553   -0.5343    0.9469 N   0  0  0  0  0  0  0  0  0  0  0  0
   -5.3190   -1.7984    0.2275 C   0  0  0  0  0  0  0  0  0  0  0  0
   -5.2511   -1.7606   -1.3051 C   0  0  0  0  0  0  0  0  0  0  0  0
   -6.3268   -0.9389   -2.0300 C   0  0  0  0  0  0  0  0  0  0  0  0
   -7.5144   -0.5179   -1.1704 C   0  0  0  0  0  0  0  0  0  0  0  0
   -7.1894    0.5310   -0.0996 C   0  0  0  0  0  0  0  0  0  0  0  0
   -5.7190    0.6589    0.3163 C   0  0  0  0  0  0  0  0  0  0  0  0
   -0.5175   -0.5520    1.5543 N   0  0  0  0  0  0  0  0  0  0  0  0
    0.4875    0.1879    2.0006 N   0  0  0  0  0  0  0  0  0  0  0  0
    2.8518    1.6582   -0.1279 C   0  0  0  0  0  0  0  0  0  0  0  0
    3.4703    1.1124   -1.2817 C   0  0  0  0  0  0  0  0  0  0  0  0
    4.0441   -0.1935   -1.3074 C   0  0  0  0  0  0  0  0  0  0  0  0
    3.9888   -1.0376   -0.1595 N   0  0  0  0  0  0  0  0  0  0  0  0
    5.0053   -1.1799    0.8196 C   0  0  0  0  0  0  0  0  0  0  0  0
    4.7745   -2.0479    1.8991 C   0  0  0  0  0  0  0  0  0  0  0  0
    5.7655   -2.2847    2.8547 C   0  0  0  0  0  0  0  0  0  0  0  0
    7.0016   -1.6575    2.7327 C   0  0  0  0  0  0  0  0  0  0  0  0
    7.9412   -1.9058    3.6547 F   0  0  0  0  0  0  0  0  0  0  0  0
    7.2565   -0.8064    1.6623 C   0  0  0  0  0  0  0  0  0  0  0  0
    8.7823   -0.0150    1.5049 Cl  0  0  0  0  0  0  0  0  0  0  0  0
    6.2673   -0.5788    0.7006 C   0  0  0  0  0  0  0  0  0  0  0  0
    5.1899   -0.0815   -4.4934 H   0  0  0  0  0  0  0  0  0  0  0  0
    1.8549    4.6550   -1.3191 H   0  0  0  0  0  0  0  0  0  0  0  0
    0.9319    4.1759    0.7819 H   0  0  0  0  0  0  0  0  0  0  0  0
    0.6751    3.2464    2.8489 H   0  0  0  0  0  0  0  0  0  0  0  0
    2.0273    2.1703    2.6212 H   0  0  0  0  0  0  0  0  0  0  0  0
   -1.6417    2.4119    0.8077 H   0  0  0  0  0  0  0  0  0  0  0  0
   -2.9085    0.4674   -0.3608 H   0  0  0  0  0  0  0  0  0  0  0  0
   -2.4353   -1.1975    0.0155 H   0  0  0  0  0  0  0  0  0  0  0  0
   -3.8105    0.5872    2.1055 H   0  0  0  0  0  0  0  0  0  0  0  0
   -3.5705   -1.1303    2.1868 H   0  0  0  0  0  0  0  0  0  0  0  0
   -4.5832   -2.5333    0.5844 H   0  0  0  0  0  0  0  0  0  0  0  0
   -6.2817   -2.2308    0.5286 H   0  0  0  0  0  0  0  0  0  0  0  0
   -4.2634   -1.4157   -1.6313 H   0  0  0  0  0  0  0  0  0  0  0  0
   -5.3266   -2.7979   -1.6590 H   0  0  0  0  0  0  0  0  0  0  0  0
   -5.8671   -0.0493   -2.4757 H   0  0  0  0  0  0  0  0  0  0  0  0
   -6.6974   -1.5275   -2.8771 H   0  0  0  0  0  0  0  0  0  0  0  0
   -7.9661   -1.4030   -0.7042 H   0  0  0  0  0  0  0  0  0  0  0  0
   -8.2970   -0.1082   -1.8220 H   0  0  0  0  0  0  0  0  0  0  0  0
   -7.5091    1.5110   -0.4785 H   0  0  0  0  0  0  0  0  0  0  0  0
   -7.8114    0.3425    0.7847 H   0  0  0  0  0  0  0  0  0  0  0  0
   -5.1174    0.9762   -0.5440 H   0  0  0  0  0  0  0  0  0  0  0  0
   -5.6701    1.4899    1.0343 H   0  0  0  0  0  0  0  0  0  0  0  0
    2.8744    1.0800    0.7928 H   0  0  0  0  0  0  0  0  0  0  0  0
    3.0666   -1.0165    0.2776 H   0  0  0  0  0  0  0  0  0  0  0  0
    3.8218   -2.5679    1.9940 H   0  0  0  0  0  0  0  0  0  0  0  0
    5.5860   -2.9599    3.6863 H   0  0  0  0  0  0  0  0  0  0  0  0
    6.4912    0.0852   -0.1288 H   0  0  0  0  0  0  0  0  0  0  0  0
  1  2  3  0
  2  3  1  0
  3  4  2  0
  4  5  1  0
  5  6  2  0
  6  7  1  0
  7  8  1  0
  7  9  2  0
  9 10  1  0
 10 11  1  0
 11 12  1  0
 12 13  1  0
 13 14  2  0
 14 15  1  0
 15 16  1  0
 16 17  1  0
 17 18  1  0
 18 19  1  0
 19 20  1  0
 20 21  1  0
 21 22  1  0
 22 23  1  0
 23 24  1  0
 15 25  1  0
 25 26  2  0
 10 27  2  0
 27 28  1  0
 28 29  2  0
 29 30  1  0
 30 31  1  0
 31 32  2  0
 32 33  1  0
 33 34  2  0
 34 35  1  0
 34 36  1  0
 36 37  1  0
 36 38  2  0
 29  3  1  0
 38 31  1  0
 28  6  1  0
 26 13  1  0
 24 18  1  0
  4 39  1  0
  9 40  1  0
 11 41  1  0
 12 42  1  0
 12 43  1  0
 14 44  1  0
 16 45  1  0
 16 46  1  0
 17 47  1  0
 17 48  1  0
 19 49  1  0
 19 50  1  0
 20 51  1  0
 20 52  1  0
 21 53  1  0
 21 54  1  0
 22 55  1  0
 22 56  1  0
 23 57  1  0
 23 58  1  0
 24 59  1  0
 24 60  1  0
 27 61  1  0
 30 62  1  0
 32 63  1  0
 33 64  1  0
 38 65  1  0
M  END
$$$$
