
     RDKit          3D

 28 29  0  0  0  0  0  0  0  0999 V2000
    4.3152    0.9494    0.1770 N   0  0  0  0  0  0  0  0  0  0  0  0
    3.1877    0.1279    0.0978 C   0  0  0  0  0  0  0  0  0  0  0  0
    3.2888   -1.2330    0.3803 C   0  0  0  0  0  0  0  0  0  0  0  0
    2.1968   -2.0809    0.1869 C   0  0  0  0  0  0  0  0  0  0  0  0
    0.9992   -1.5819   -0.3316 C   0  0  0  0  0  0  0  0  0  0  0  0
   -0.2997   -2.7040   -0.5404 Cl  0  0  0  0  0  0  0  0  0  0  0  0
    0.8842   -0.2265   -0.6798 C   0  0  0  0  0  0  0  0  0  0  0  0
   -0.3770    0.3884   -1.2621 C   0  0  0  0  0  0  0  0  0  0  0  0
   -0.6818   -0.2962   -2.4791 O   0  0  0  0  0  0  0  0  0  0  0  0
   -1.5842    0.4480   -0.3323 C   0  0  0  0  0  0  0  0  0  0  0  0
   -2.8887    0.3932   -0.8552 C   0  0  0  0  0  0  0  0  0  0  0  0
   -4.0044    0.4814   -0.0196 C   0  0  0  0  0  0  0  0  0  0  0  0
   -3.8367    0.6435    1.3525 C   0  0  0  0  0  0  0  0  0  0  0  0
   -2.5545    0.7276    1.8881 C   0  0  0  0  0  0  0  0  0  0  0  0
   -1.4378    0.6404    1.0527 C   0  0  0  0  0  0  0  0  0  0  0  0
    2.0057    0.6070   -0.4761 C   0  0  0  0  0  0  0  0  0  0  0  0
    5.0085    0.6449    0.8533 H   0  0  0  0  0  0  0  0  0  0  0  0
    4.1098    1.9405    0.2529 H   0  0  0  0  0  0  0  0  0  0  0  0
    4.2213   -1.6487    0.7528 H   0  0  0  0  0  0  0  0  0  0  0  0
    2.2934   -3.1361    0.4303 H   0  0  0  0  0  0  0  0  0  0  0  0
   -0.1701    1.4251   -1.5557 H   0  0  0  0  0  0  0  0  0  0  0  0
   -1.0013   -1.1776   -2.2137 H   0  0  0  0  0  0  0  0  0  0  0  0
   -3.0467    0.2863   -1.9272 H   0  0  0  0  0  0  0  0  0  0  0  0
   -5.0040    0.4285   -0.4431 H   0  0  0  0  0  0  0  0  0  0  0  0
   -4.7046    0.7122    2.0028 H   0  0  0  0  0  0  0  0  0  0  0  0
   -2.4216    0.8646    2.9582 H   0  0  0  0  0  0  0  0  0  0  0  0
   -0.4509    0.7228    1.5029 H   0  0  0  0  0  0  0  0  0  0  0  0
    1.9532    1.6532   -0.7727 H   0  0  0  0  0  0  0  0  0  0  0  0
  1  2  1  0
  2  3  2  0
  3  4  1  0
  4  5  2  0
  5  6  1  0
  5  7  1  0
  7  8  1  0
  8  9  1  0
  8 10  1  0
 10 11  2  0
 11 12  1  0
 12 13  2  0
 13 14  1  0
 14 15  2  0
  7 16  2  0
 16  2  1  0
 15 10  1  0
  1 17  1  0
  1 18  1  0
  3 19  1  0
  4 20  1  0
  8 21  1  0
  9 22  1  0
 11 23  1  0
 12 24  1  0
 13 25  1  0
 14 26  1  0
 15 27  1  0
 16 28  1  0
M  END
$$$$
