
     RDKit          3D

 38 40  0  0  0  0  0  0  0  0999 V2000
   -1.7620   -1.0454   -2.0448 O   0  0  0  0  0  0  0  0  0  0  0  0
   -2.0128    0.1507   -1.9205 C   0  0  0  0  0  0  0  0  0  0  0  0
   -1.8455    1.0910   -3.1020 C   0  0  0  0  0  0  0  0  0  0  0  0
   -0.5344    2.3148   -2.8369 S   0  0  0  0  0  0  0  0  0  0  0  0
    0.7400    1.2460   -2.3419 C   0  0  0  0  0  0  0  0  0  0  0  0
    0.9959    1.0613   -1.0946 N   0  0  0  0  0  0  0  0  0  0  0  0
    2.0183    0.1874   -0.7930 C   0  0  0  0  0  0  0  0  0  0  0  0
    2.2995   -0.0541    0.6444 C   0  0  0  0  0  0  0  0  0  0  0  0
    1.2338   -0.1361    1.5548 C   0  0  0  0  0  0  0  0  0  0  0  0
    1.4638   -0.3533    2.9151 C   0  0  0  0  0  0  0  0  0  0  0  0
    2.7665   -0.4790    3.3891 C   0  0  0  0  0  0  0  0  0  0  0  0
    3.8382   -0.3846    2.5042 C   0  0  0  0  0  0  0  0  0  0  0  0
    3.6071   -0.1688    1.1418 C   0  0  0  0  0  0  0  0  0  0  0  0
    2.7233   -0.4715   -1.7265 C   0  0  0  0  0  0  0  0  0  0  0  0
    2.4178   -0.2122   -3.1403 C   0  0  0  0  0  0  0  0  0  0  0  0
    3.0466   -0.7520   -4.0430 O   0  0  0  0  0  0  0  0  0  0  0  0
    1.4032    0.6621   -3.3688 N   0  0  0  0  0  0  0  0  0  0  0  0
   -2.4830    0.7726   -0.7888 N   0  0  0  0  0  0  0  0  0  0  0  0
   -2.7588    0.2114    0.4571 C   0  0  0  0  0  0  0  0  0  0  0  0
   -2.6537   -1.1415    0.7475 C   0  0  0  0  0  0  0  0  0  0  0  0
   -2.9449   -1.5765    2.0396 C   0  0  0  0  0  0  0  0  0  0  0  0
   -3.3309   -0.6520    3.0004 C   0  0  0  0  0  0  0  0  0  0  0  0
   -3.4124    0.6759    2.6237 C   0  0  0  0  0  0  0  0  0  0  0  0
   -3.1416    1.1228    1.3775 N   0  0  0  0  0  0  0  0  0  0  0  0
   -2.7937    1.6048   -3.2885 H   0  0  0  0  0  0  0  0  0  0  0  0
   -1.6116    0.5011   -3.9956 H   0  0  0  0  0  0  0  0  0  0  0  0
    0.2104   -0.0284    1.2043 H   0  0  0  0  0  0  0  0  0  0  0  0
    0.6217   -0.4141    3.6001 H   0  0  0  0  0  0  0  0  0  0  0  0
    2.9453   -0.6409    4.4481 H   0  0  0  0  0  0  0  0  0  0  0  0
    4.8570   -0.4692    2.8741 H   0  0  0  0  0  0  0  0  0  0  0  0
    4.4640   -0.0755    0.4789 H   0  0  0  0  0  0  0  0  0  0  0  0
    3.5048   -1.1882   -1.5171 H   0  0  0  0  0  0  0  0  0  0  0  0
    1.1699    0.8766   -4.3247 H   0  0  0  0  0  0  0  0  0  0  0  0
   -2.5634    1.7819   -0.7756 H   0  0  0  0  0  0  0  0  0  0  0  0
   -2.3448   -1.8701    0.0077 H   0  0  0  0  0  0  0  0  0  0  0  0
   -2.8663   -2.6311    2.2883 H   0  0  0  0  0  0  0  0  0  0  0  0
   -3.5604   -0.9578    4.0148 H   0  0  0  0  0  0  0  0  0  0  0  0
   -3.7072    1.4421    3.3356 H   0  0  0  0  0  0  0  0  0  0  0  0
  1  2  2  0
  2  3  1  0
  3  4  1  0
  4  5  1  0
  5  6  2  0
  6  7  1  0
  7  8  1  0
  8  9  2  0
  9 10  1  0
 10 11  2  0
 11 12  1  0
 12 13  2  0
  7 14  2  0
 14 15  1  0
 15 16  2  0
 15 17  1  0
  2 18  1  0
 18 19  1  0
 19 20  2  0
 20 21  1  0
 21 22  2  0
 22 23  1  0
 23 24  2  0
 17  5  1  0
 24 19  1  0
 13  8  1  0
  3 25  1  0
  3 26  1  0
  9 27  1  0
 10 28  1  0
 11 29  1  0
 12 30  1  0
 13 31  1  0
 14 32  1  0
 17 33  1  0
 18 34  1  0
 20 35  1  0
 21 36  1  0
 22 37  1  0
 23 38  1  0
M  END
$$$$
