
     RDKit          3D

 58 61  0  0  0  0  0  0  0  0999 V2000
    8.1694    1.2149    2.0246 C   0  0  0  0  0  0  0  0  0  0  0  0
    8.0277    1.1241    0.6140 O   0  0  0  0  0  0  0  0  0  0  0  0
    7.3466   -0.0545    0.1860 C   0  0  0  0  0  0  0  0  0  0  0  0
    5.8335    0.0972    0.3079 C   0  0  0  0  0  0  0  0  0  0  0  0
    5.1152   -1.1431   -0.2133 C   0  0  0  0  0  0  0  0  0  0  0  0
    3.6759   -1.0285   -0.0928 N   0  0  0  0  0  0  0  0  0  0  0  0
    2.9413   -0.3298   -1.0196 C   0  0  0  0  0  0  0  0  0  0  0  0
    3.4231    0.1653   -2.0319 O   0  0  0  0  0  0  0  0  0  0  0  0
    1.6075   -0.2459   -0.7055 N   0  0  0  0  0  0  0  0  0  0  0  0
    0.7741   -1.2247   -0.0220 C   0  0  0  0  0  0  0  0  0  0  0  0
   -0.4446   -0.4600   -0.6127 C   0  0  0  0  0  0  0  0  0  0  0  0
   -1.5405   -1.3919   -1.1423 C   0  0  0  0  0  0  0  0  0  0  0  0
   -2.7483   -1.0705   -0.3723 N   0  0  0  0  0  0  0  0  0  0  0  0
   -3.6170   -2.2279   -0.1501 C   0  0  0  0  0  0  0  0  0  0  0  0
   -4.9451   -1.8631    0.4773 C   0  0  0  0  0  0  0  0  0  0  0  0
   -5.7772   -0.9044   -0.1214 C   0  0  0  0  0  0  0  0  0  0  0  0
   -7.0079   -0.5760    0.4483 C   0  0  0  0  0  0  0  0  0  0  0  0
   -7.4241   -1.2063    1.6190 C   0  0  0  0  0  0  0  0  0  0  0  0
   -6.6104   -2.1648    2.2206 C   0  0  0  0  0  0  0  0  0  0  0  0
   -5.3778   -2.4936    1.6527 C   0  0  0  0  0  0  0  0  0  0  0  0
   -2.3077   -0.4035    0.8600 C   0  0  0  0  0  0  0  0  0  0  0  0
   -1.1300    0.4623    0.4026 C   0  0  0  0  0  0  0  0  0  0  0  0
   -1.5838    1.7681   -0.1472 C   0  0  0  0  0  0  0  0  0  0  0  0
   -1.3813    2.9745    0.3355 N   0  0  0  0  0  0  0  0  0  0  0  0
   -1.9960    3.7643   -0.6015 C   0  0  0  0  0  0  0  0  0  0  0  0
   -2.0302    5.2344   -0.5001 C   0  0  0  0  0  0  0  0  0  0  0  0
   -2.5507    3.1026   -1.6244 N   0  0  0  0  0  0  0  0  0  0  0  0
   -2.2814    1.7669   -1.3221 O   0  0  0  0  0  0  0  0  0  0  0  0
    0.5532    0.1276   -1.6443 C   0  0  0  0  0  0  0  0  0  0  0  0
    7.1954    1.2911    2.5141 H   0  0  0  0  0  0  0  0  0  0  0  0
    8.7203    0.3525    2.4116 H   0  0  0  0  0  0  0  0  0  0  0  0
    8.7394    2.1196    2.2530 H   0  0  0  0  0  0  0  0  0  0  0  0
    7.7112   -0.9276    0.7399 H   0  0  0  0  0  0  0  0  0  0  0  0
    7.6110   -0.2053   -0.8665 H   0  0  0  0  0  0  0  0  0  0  0  0
    5.5117    0.9920   -0.2391 H   0  0  0  0  0  0  0  0  0  0  0  0
    5.5496    0.2751    1.3515 H   0  0  0  0  0  0  0  0  0  0  0  0
    5.3703   -1.3221   -1.2638 H   0  0  0  0  0  0  0  0  0  0  0  0
    5.4109   -2.0253    0.3643 H   0  0  0  0  0  0  0  0  0  0  0  0
    3.2793   -1.0597    0.8342 H   0  0  0  0  0  0  0  0  0  0  0  0
    0.9398   -2.2420   -0.3929 H   0  0  0  0  0  0  0  0  0  0  0  0
    0.8764   -1.2100    1.0664 H   0  0  0  0  0  0  0  0  0  0  0  0
   -1.7385   -1.2109   -2.2043 H   0  0  0  0  0  0  0  0  0  0  0  0
   -1.2511   -2.4434   -1.0276 H   0  0  0  0  0  0  0  0  0  0  0  0
   -3.1024   -2.9793    0.4629 H   0  0  0  0  0  0  0  0  0  0  0  0
   -3.8402   -2.7098   -1.1112 H   0  0  0  0  0  0  0  0  0  0  0  0
   -5.4580   -0.4019   -1.0329 H   0  0  0  0  0  0  0  0  0  0  0  0
   -7.6391    0.1732   -0.0224 H   0  0  0  0  0  0  0  0  0  0  0  0
   -8.3828   -0.9502    2.0620 H   0  0  0  0  0  0  0  0  0  0  0  0
   -6.9372   -2.6573    3.1326 H   0  0  0  0  0  0  0  0  0  0  0  0
   -4.7585   -3.2457    2.1352 H   0  0  0  0  0  0  0  0  0  0  0  0
   -1.9540   -1.1433    1.5904 H   0  0  0  0  0  0  0  0  0  0  0  0
   -3.1061    0.1880    1.3207 H   0  0  0  0  0  0  0  0  0  0  0  0
   -0.4764    0.6751    1.2577 H   0  0  0  0  0  0  0  0  0  0  0  0
   -1.8151    5.5588    0.5229 H   0  0  0  0  0  0  0  0  0  0  0  0
   -3.0153    5.6235   -0.7767 H   0  0  0  0  0  0  0  0  0  0  0  0
   -1.2830    5.6792   -1.1644 H   0  0  0  0  0  0  0  0  0  0  0  0
    0.5045    1.2026   -1.8303 H   0  0  0  0  0  0  0  0  0  0  0  0
    0.6246   -0.4106   -2.5955 H   0  0  0  0  0  0  0  0  0  0  0  0
  1  2  1  0
  2  3  1  0
  3  4  1  0
  4  5  1  0
  5  6  1  0
  6  7  1  0
  7  8  2  0
  7  9  1  0
  9 10  1  0
 10 11  1  0
 11 12  1  0
 12 13  1  0
 13 14  1  0
 14 15  1  0
 15 16  2  0
 16 17  1  0
 17 18  2  0
 18 19  1  0
 19 20  2  0
 13 21  1  0
 21 22  1  0
 22 23  1  0
 23 24  2  0
 24 25  1  0
 25 26  1  0
 25 27  2  0
 27 28  1  0
 11 29  1  0
 29  9  1  0
 22 11  1  0
 28 23  1  0
 20 15  1  0
  1 30  1  0
  1 31  1  0
  1 32  1  0
  3 33  1  0
  3 34  1  0
  4 35  1  0
  4 36  1  0
  5 37  1  0
  5 38  1  0
  6 39  1  0
 10 40  1  0
 10 41  1  0
 12 42  1  0
 12 43  1  0
 14 44  1  0
 14 45  1  0
 16 46  1  0
 17 47  1  0
 18 48  1  0
 19 49  1  0
 20 50  1  0
 21 51  1  0
 21 52  1  0
 22 53  1  0
 26 54  1  0
 26 55  1  0
 26 56  1  0
 29 57  1  0
 29 58  1  0
M  END
$$$$
