
     RDKit          3D

 51 53  0  0  0  0  0  0  0  0999 V2000
    0.6926    0.0000    0.0000 Cl  0  0  0  0  0  0  0  0  0  0  0  0
   -7.7558    4.0474   -0.1376 N   0  0  0  0  0  0  0  0  0  0  0  0
   -6.9911    3.1649   -0.1431 C   0  0  0  0  0  0  0  0  0  0  0  0
   -6.0357    2.0917   -0.1337 C   0  0  0  0  0  0  0  0  0  0  0  0
   -6.3036    0.9347    0.5607 C   0  0  0  0  0  0  0  0  0  0  0  0
   -5.3732   -0.0823    0.5608 C   0  0  0  0  0  0  0  0  0  0  0  0
   -4.1706    0.0632   -0.1385 C   0  0  0  0  0  0  0  0  0  0  0  0
   -3.2532   -1.1169   -0.0622 C   0  0  0  0  0  0  0  0  0  0  0  0
   -2.4601   -1.0841    1.1677 N   0  0  0  0  0  0  0  0  0  0  0  0
   -2.9648   -1.6310    2.3150 C   0  0  0  0  0  0  0  0  0  0  0  0
   -2.0247   -1.4266    3.2462 N   0  0  0  0  0  0  0  0  0  0  0  0
   -0.9706   -0.7802    2.7187 C   0  0  0  0  0  0  0  0  0  0  0  0
   -1.2582   -0.5604    1.3671 C   0  0  0  0  0  0  0  0  0  0  0  0
   -0.3787    0.1135    0.3692 C   0  0  0  0  0  0  0  0  0  0  0  0
    0.5169   -0.8402   -0.2014 N   0  0  0  0  0  0  0  0  0  0  0  0
    1.4246   -1.4801    0.6710 C   0  0  0  0  0  0  0  0  0  0  0  0
    2.7945   -1.7615    0.0927 C   0  0  0  0  0  0  0  0  0  0  0  0
    3.2411   -0.6140   -0.6793 N   0  0  0  0  0  0  0  0  0  0  0  0
    4.5051    0.0007   -0.5509 C   0  0  0  0  0  0  0  0  0  0  0  0
    4.6618    1.3630   -0.3802 C   0  0  0  0  0  0  0  0  0  0  0  0
    5.9223    1.9032   -0.2617 C   0  0  0  0  0  0  0  0  0  0  0  0
    7.0350    1.1132   -0.3097 C   0  0  0  0  0  0  0  0  0  0  0  0
    6.9081   -0.2452   -0.4785 C   0  0  0  0  0  0  0  0  0  0  0  0
    8.3347   -1.2743   -0.5414 Cl  0  0  0  0  0  0  0  0  0  0  0  0
    5.6305   -0.7926   -0.5985 C   0  0  0  0  0  0  0  0  0  0  0  0
    2.3101   -0.1066   -1.6193 C   0  0  0  0  0  0  0  0  0  0  0  0
    2.6978    0.7357   -2.4571 O   0  0  0  0  0  0  0  0  0  0  0  0
    0.9201   -0.6161   -1.5422 C   0  0  0  0  0  0  0  0  0  0  0  0
   -3.8956    1.2089   -0.8318 C   0  0  0  0  0  0  0  0  0  0  0  0
   -4.8414    2.2405   -0.8302 C   0  0  0  0  0  0  0  0  0  0  0  0
   -0.6926    0.0000    0.0000 H   0  0  0  0  0  0  0  0  0  0  0  0
   -7.2488    0.8104    1.1135 H   0  0  0  0  0  0  0  0  0  0  0  0
   -5.5766   -0.9899    1.1011 H   0  0  0  0  0  0  0  0  0  0  0  0
   -2.5518   -1.0650   -0.9404 H   0  0  0  0  0  0  0  0  0  0  0  0
   -3.8138   -2.0692   -0.1174 H   0  0  0  0  0  0  0  0  0  0  0  0
   -3.9187   -2.1251    2.4483 H   0  0  0  0  0  0  0  0  0  0  0  0
   -0.0567   -0.4680    3.2067 H   0  0  0  0  0  0  0  0  0  0  0  0
    0.1385    0.9636    0.8661 H   0  0  0  0  0  0  0  0  0  0  0  0
   -0.9847    0.5276   -0.4587 H   0  0  0  0  0  0  0  0  0  0  0  0
    1.0410   -2.4342    1.0958 H   0  0  0  0  0  0  0  0  0  0  0  0
    1.6153   -0.8016    1.5474 H   0  0  0  0  0  0  0  0  0  0  0  0
    2.8248   -2.7047   -0.4850 H   0  0  0  0  0  0  0  0  0  0  0  0
    3.5042   -1.8955    0.9567 H   0  0  0  0  0  0  0  0  0  0  0  0
    3.7899    1.9936   -0.3418 H   0  0  0  0  0  0  0  0  0  0  0  0
    6.0453    2.9573   -0.1296 H   0  0  0  0  0  0  0  0  0  0  0  0
    8.0116    1.5672   -0.2154 H   0  0  0  0  0  0  0  0  0  0  0  0
    5.5953   -1.8651   -0.7286 H   0  0  0  0  0  0  0  0  0  0  0  0
    0.2099    0.1250   -1.9939 H   0  0  0  0  0  0  0  0  0  0  0  0
    0.7916   -1.5561   -2.1250 H   0  0  0  0  0  0  0  0  0  0  0  0
   -2.9894    1.3210   -1.3673 H   0  0  0  0  0  0  0  0  0  0  0  0
   -4.6526    3.1405   -1.3614 H   0  0  0  0  0  0  0  0  0  0  0  0
  2  3  3  0
  3  4  1  0
  4  5  2  0
  5  6  1  0
  6  7  2  0
  7  8  1  0
  8  9  1  0
  9 10  1  0
 10 11  2  0
 11 12  1  0
 12 13  2  0
 13 14  1  0
 14 15  1  0
 15 16  1  0
 16 17  1  0
 17 18  1  0
 18 19  1  0
 19 20  2  0
 20 21  1  0
 21 22  2  0
 22 23  1  0
 23 24  1  0
 23 25  2  0
 18 26  1  0
 26 27  2  0
 26 28  1  0
  7 29  1  0
 29 30  2  0
 30  4  1  0
 13  9  1  0
 28 15  1  0
 25 19  1  0
  1 31  1  0
  5 32  1  0
  6 33  1  0
  8 34  1  0
  8 35  1  0
 10 36  1  0
 12 37  1  0
 14 38  1  0
 14 39  1  0
 16 40  1  0
 16 41  1  0
 17 42  1  0
 17 43  1  0
 20 44  1  0
 21 45  1  0
 22 46  1  0
 25 47  1  0
 28 48  1  0
 28 49  1  0
 29 50  1  0
 30 51  1  0
M  END
$$$$
