
     RDKit          3D

 40 42  0  0  0  0  0  0  0  0999 V2000
    4.7273   -2.4816    1.1980 C   0  0  0  0  0  0  0  0  0  0  0  0
    5.1109   -1.7404   -0.0558 C   0  0  0  0  0  0  0  0  0  0  0  0
    6.1725   -1.9745   -0.6300 O   0  0  0  0  0  0  0  0  0  0  0  0
    4.1816   -0.7050   -0.6007 C   0  0  0  0  0  0  0  0  0  0  0  0
    4.5515   -0.0301   -1.7692 C   0  0  0  0  0  0  0  0  0  0  0  0
    3.7171    0.9483   -2.3064 C   0  0  0  0  0  0  0  0  0  0  0  0
    2.5084    1.2625   -1.6803 C   0  0  0  0  0  0  0  0  0  0  0  0
    2.1245    0.6003   -0.5132 C   0  0  0  0  0  0  0  0  0  0  0  0
    0.9275    0.8641    0.1807 N   0  0  0  0  0  0  0  0  0  0  0  0
   -0.0627    1.7790   -0.1433 C   0  0  0  0  0  0  0  0  0  0  0  0
   -0.0800    2.5310   -1.1130 O   0  0  0  0  0  0  0  0  0  0  0  0
   -1.2150    1.7780    0.8639 C   0  0  0  0  0  0  0  0  0  0  0  0
   -2.0360    0.5776    0.7270 N   0  0  0  0  0  0  0  0  0  0  0  0
   -1.6406   -0.5667    1.4028 C   0  0  0  0  0  0  0  0  0  0  0  0
   -0.5939   -0.6203    2.0548 O   0  0  0  0  0  0  0  0  0  0  0  0
   -2.5182   -1.7932    1.1869 C   0  0  0  0  0  0  0  0  0  0  0  0
   -3.8755   -1.5978    0.8421 O   0  0  0  0  0  0  0  0  0  0  0  0
   -4.0679   -0.5448   -0.0094 C   0  0  0  0  0  0  0  0  0  0  0  0
   -5.2468   -0.5884   -0.7584 C   0  0  0  0  0  0  0  0  0  0  0  0
   -5.5544    0.4490   -1.6339 C   0  0  0  0  0  0  0  0  0  0  0  0
   -4.6833    1.5282   -1.7474 C   0  0  0  0  0  0  0  0  0  0  0  0
   -5.0577    2.8087   -2.8350 Cl  0  0  0  0  0  0  0  0  0  0  0  0
   -3.5115    1.5863   -0.9862 C   0  0  0  0  0  0  0  0  0  0  0  0
   -3.1936    0.5501   -0.0977 C   0  0  0  0  0  0  0  0  0  0  0  0
    2.9663   -0.3870    0.0219 C   0  0  0  0  0  0  0  0  0  0  0  0
    3.7997   -3.0395    1.0429 H   0  0  0  0  0  0  0  0  0  0  0  0
    5.5157   -3.2002    1.4451 H   0  0  0  0  0  0  0  0  0  0  0  0
    4.6306   -1.7852    2.0350 H   0  0  0  0  0  0  0  0  0  0  0  0
    5.4926   -0.2611   -2.2659 H   0  0  0  0  0  0  0  0  0  0  0  0
    4.0085    1.4734   -3.2133 H   0  0  0  0  0  0  0  0  0  0  0  0
    1.8907    2.0329   -2.1321 H   0  0  0  0  0  0  0  0  0  0  0  0
    0.7499    0.2976    1.0120 H   0  0  0  0  0  0  0  0  0  0  0  0
   -0.7884    1.8194    1.8744 H   0  0  0  0  0  0  0  0  0  0  0  0
   -1.8130    2.6887    0.7592 H   0  0  0  0  0  0  0  0  0  0  0  0
   -2.5092   -2.3660    2.1211 H   0  0  0  0  0  0  0  0  0  0  0  0
   -2.0450   -2.4121    0.4153 H   0  0  0  0  0  0  0  0  0  0  0  0
   -5.9223   -1.4347   -0.6591 H   0  0  0  0  0  0  0  0  0  0  0  0
   -6.4678    0.4098   -2.2210 H   0  0  0  0  0  0  0  0  0  0  0  0
   -2.8578    2.4424   -1.1250 H   0  0  0  0  0  0  0  0  0  0  0  0
    2.6653   -0.8986    0.9317 H   0  0  0  0  0  0  0  0  0  0  0  0
  1  2  1  0
  2  3  2  0
  2  4  1  0
  4  5  2  0
  5  6  1  0
  6  7  2  0
  7  8  1  0
  8  9  1  0
  9 10  1  0
 10 11  2  0
 10 12  1  0
 12 13  1  0
 13 14  1  0
 14 15  2  0
 14 16  1  0
 16 17  1  0
 17 18  1  0
 18 19  2  0
 19 20  1  0
 20 21  2  0
 21 22  1  0
 21 23  1  0
 23 24  2  0
  8 25  2  0
 25  4  1  0
 24 13  1  0
 24 18  1  0
  1 26  1  0
  1 27  1  0
  1 28  1  0
  5 29  1  0
  6 30  1  0
  7 31  1  0
  9 32  1  0
 12 33  1  0
 12 34  1  0
 16 35  1  0
 16 36  1  0
 19 37  1  0
 20 38  1  0
 23 39  1  0
 25 40  1  0
M  END
$$$$
