
     RDKit          3D

 71 70  0  0  0  0  0  0  0  0999 V2000
    5.9022    2.6190    0.2304 C   0  0  0  0  0  0  0  0  0  0  0  0
    7.2778    2.0622    0.4907 C   0  0  0  0  0  0  0  0  0  0  0  0
    7.4620    1.6695    1.9140 C   0  0  0  0  0  0  0  0  0  0  0  0
    6.5173    0.6261    2.4103 C   0  0  0  0  0  0  0  0  0  0  0  0
    6.6089   -0.9055    1.5162 S   0  0  0  0  0  6  0  0  0  0  0  0
    7.9642   -1.4859    1.6602 O   0  0  0  0  0  0  0  0  0  0  0  0
    6.2543   -0.6209    0.0831 O   0  0  0  0  0  0  0  0  0  0  0  0
    5.4621   -1.9733    2.2413 N   0  0  0  0  0  0  0  0  0  0  0  0
    4.0992   -1.4600    2.1407 C   0  0  1  0  0  0  0  0  0  0  0  0
    3.2589   -2.3272    1.2497 C   0  0  0  0  0  0  0  0  0  0  0  0
    1.8785   -1.8032    1.1509 C   0  0  0  0  0  0  0  0  0  0  0  0
    0.8616   -2.2297    1.9805 C   0  0  0  0  0  0  0  0  0  0  0  0
   -0.4158   -1.7497    1.8994 C   0  0  0  0  0  0  0  0  0  0  0  0
   -0.7742   -0.7724    0.9448 C   0  0  0  0  0  0  0  0  0  0  0  0
   -2.0564   -0.3416    0.9261 O   0  0  0  0  0  0  0  0  0  0  0  0
   -2.6726    0.5584    0.0945 C   0  0  0  0  0  0  0  0  0  0  0  0
   -2.7409    0.0713   -1.3106 C   0  0  0  0  0  0  0  0  0  0  0  0
   -3.4098    1.0644   -2.2428 C   0  0  0  0  0  0  0  0  0  0  0  0
   -4.8163    1.3722   -1.8351 C   0  0  0  0  0  0  0  0  0  0  0  0
   -5.7315    0.2019   -1.7977 C   0  0  0  0  0  0  0  0  0  0  0  0
   -5.9025   -0.5151   -3.0931 C   0  0  0  0  0  0  0  0  0  0  0  0
   -7.2368   -1.2693   -3.0042 C   0  0  0  0  0  0  0  0  0  0  0  0
   -8.2690   -0.2807   -3.2583 N   0  0  0  0  0  0  0  0  0  0  0  0
   -7.8987    0.9715   -2.6537 C   0  0  0  0  0  0  0  0  0  0  0  0
   -7.1110    0.7273   -1.3801 C   0  0  0  0  0  0  0  0  0  0  0  0
    0.2403   -0.3488    0.1207 C   0  0  0  0  0  0  0  0  0  0  0  0
    1.5177   -0.8482    0.2224 C   0  0  0  0  0  0  0  0  0  0  0  0
    3.5244   -1.1719    3.4492 C   0  0  0  0  0  0  0  0  0  0  0  0
    4.1789   -1.4164    4.5063 O   0  0  0  0  0  0  0  0  0  0  0  0
    2.2697   -0.6293    3.6104 O   0  0  0  0  0  0  0  0  0  0  0  0
    0.6850    0.0000    0.0000 Cl  0  0  0  0  0  0  0  0  0  0  0  0
   -0.0014    0.3769   -0.0000 O   0  0  0  0  0  0  0  0  0  0  0  0
    5.1036    1.9948    0.6704 H   0  0  0  0  0  0  0  0  0  0  0  0
    5.8748    3.6337    0.7069 H   0  0  0  0  0  0  0  0  0  0  0  0
    5.7006    2.7041   -0.8700 H   0  0  0  0  0  0  0  0  0  0  0  0
    7.9865    2.9238    0.3053 H   0  0  0  0  0  0  0  0  0  0  0  0
    7.5553    1.2658   -0.2360 H   0  0  0  0  0  0  0  0  0  0  0  0
    8.5126    1.3595    2.0962 H   0  0  0  0  0  0  0  0  0  0  0  0
    7.3044    2.5759    2.5378 H   0  0  0  0  0  0  0  0  0  0  0  0
    5.4780    1.0363    2.4083 H   0  0  0  0  0  0  0  0  0  0  0  0
    6.7538    0.4704    3.4954 H   0  0  0  0  0  0  0  0  0  0  0  0
    5.4933   -2.8669    1.7073 H   0  0  0  0  0  0  0  0  0  0  0  0
    4.1926   -0.4730    1.5975 H   0  0  0  0  0  0  0  0  0  0  0  0
    3.2126   -3.3359    1.7491 H   0  0  0  0  0  0  0  0  0  0  0  0
    3.7408   -2.4046    0.2518 H   0  0  0  0  0  0  0  0  0  0  0  0
    1.1163   -2.9878    2.7289 H   0  0  0  0  0  0  0  0  0  0  0  0
   -1.2076   -2.1033    2.5692 H   0  0  0  0  0  0  0  0  0  0  0  0
   -2.0645    1.5209    0.1469 H   0  0  0  0  0  0  0  0  0  0  0  0
   -3.6671    0.8923    0.4846 H   0  0  0  0  0  0  0  0  0  0  0  0
   -1.7572   -0.1527   -1.7162 H   0  0  0  0  0  0  0  0  0  0  0  0
   -3.3159   -0.9067   -1.3749 H   0  0  0  0  0  0  0  0  0  0  0  0
   -2.8251    2.0050   -2.1653 H   0  0  0  0  0  0  0  0  0  0  0  0
   -3.3150    0.6887   -3.2588 H   0  0  0  0  0  0  0  0  0  0  0  0
   -4.8415    1.8752   -0.8542 H   0  0  0  0  0  0  0  0  0  0  0  0
   -5.2197    2.1353   -2.5595 H   0  0  0  0  0  0  0  0  0  0  0  0
   -5.4341   -0.5429   -1.0326 H   0  0  0  0  0  0  0  0  0  0  0  0
   -5.9800    0.1320   -3.9792 H   0  0  0  0  0  0  0  0  0  0  0  0
   -5.0976   -1.2738   -3.1756 H   0  0  0  0  0  0  0  0  0  0  0  0
   -7.3342   -1.6981   -1.9690 H   0  0  0  0  0  0  0  0  0  0  0  0
   -7.3088   -2.0757   -3.7314 H   0  0  0  0  0  0  0  0  0  0  0  0
   -8.2958   -0.1381   -4.2929 H   0  0  0  0  0  0  0  0  0  0  0  0
   -7.2439    1.5905   -3.3156 H   0  0  0  0  0  0  0  0  0  0  0  0
   -8.7904    1.6280   -2.4561 H   0  0  0  0  0  0  0  0  0  0  0  0
   -7.0240    1.6715   -0.8020 H   0  0  0  0  0  0  0  0  0  0  0  0
   -7.6238   -0.0148   -0.7253 H   0  0  0  0  0  0  0  0  0  0  0  0
    0.0951    0.4117   -0.6284 H   0  0  0  0  0  0  0  0  0  0  0  0
    2.3247   -0.5060   -0.4408 H   0  0  0  0  0  0  0  0  0  0  0  0
    1.6587   -0.8297    4.3906 H   0  0  0  0  0  0  0  0  0  0  0  0
   -0.6850    0.0000    0.0000 H   0  0  0  0  0  0  0  0  0  0  0  0
   -0.8130   -0.1890   -0.0000 H   0  0  0  0  0  0  0  0  0  0  0  0
    0.8144   -0.1879    0.0000 H   0  0  0  0  0  0  0  0  0  0  0  0
  1  2  1  0
  2  3  1  0
  3  4  1  0
  4  5  1  0
  5  6  2  0
  5  7  2  0
  5  8  1  0
  8  9  1  0
  9 10  1  0
 10 11  1  0
 11 12  2  0
 12 13  1  0
 13 14  2  0
 14 15  1  0
 15 16  1  0
 16 17  1  0
 17 18  1  0
 18 19  1  0
 19 20  1  0
 20 21  1  0
 21 22  1  0
 22 23  1  0
 23 24  1  0
 24 25  1  0
 14 26  1  0
 26 27  2  0
  9 28  1  0
 28 29  2  0
 28 30  1  0
 27 11  1  0
 25 20  1  0
  1 33  1  0
  1 34  1  0
  1 35  1  0
  2 36  1  0
  2 37  1  0
  3 38  1  0
  3 39  1  0
  4 40  1  0
  4 41  1  0
  8 42  1  0
  9 43  1  6
 10 44  1  0
 10 45  1  0
 12 46  1  0
 13 47  1  0
 16 48  1  0
 16 49  1  0
 17 50  1  0
 17 51  1  0
 18 52  1  0
 18 53  1  0
 19 54  1  0
 19 55  1  0
 20 56  1  0
 21 57  1  0
 21 58  1  0
 22 59  1  0
 22 60  1  0
 23 61  1  0
 24 62  1  0
 24 63  1  0
 25 64  1  0
 25 65  1  0
 26 66  1  0
 27 67  1  0
 30 68  1  0
 31 69  1  0
 32 70  1  0
 32 71  1  0
M  END
$$$$
