
     RDKit          3D

 42 44  0  0  0  0  0  0  0  0999 V2000
   -2.9960    3.6523    0.1426 C   0  0  0  0  0  0  0  0  0  0  0  0
   -2.1736    2.4917    0.6782 C   0  0  0  0  0  0  0  0  0  0  0  0
   -2.6434    1.1472    0.1774 C   0  0  0  0  0  0  0  0  0  0  0  0
   -3.6480    1.0012   -0.6344 N   0  0  0  0  0  0  0  0  0  0  0  0
   -4.0086   -0.2817   -1.0346 N   0  0  0  0  0  0  0  0  0  0  0  0
   -5.1226   -0.3559   -1.9621 C   0  0  0  0  0  0  0  0  0  0  0  0
   -3.3385   -1.4542   -0.6495 C   0  0  0  0  0  0  0  0  0  0  0  0
   -3.6448   -2.5751   -1.0460 O   0  0  0  0  0  0  0  0  0  0  0  0
   -2.2420   -1.2273    0.2563 C   0  0  0  0  0  0  0  0  0  0  0  0
   -1.3770   -2.1132    0.8687 C   0  0  0  0  0  0  0  0  0  0  0  0
   -0.4865   -1.3433    1.6527 C   0  0  0  0  0  0  0  0  0  0  0  0
    0.8202   -1.9483    2.6147 S   0  0  0  0  0  6  0  0  0  0  0  0
    0.7192   -3.3855    2.5227 O   0  0  0  0  0  0  0  0  0  0  0  0
    0.6893   -1.2207    3.8553 O   0  0  0  0  0  0  0  0  0  0  0  0
    2.2422   -1.4507    1.8825 N   0  0  0  0  0  0  0  0  0  0  0  0
    2.5445   -2.0759    0.5905 C   0  0  0  0  0  0  0  0  0  0  0  0
    3.6491   -1.3036   -0.0331 C   0  0  0  0  0  0  0  0  0  0  0  0
    4.9565   -1.6002   -0.3544 C   0  0  0  0  0  0  0  0  0  0  0  0
    5.5027   -0.4268   -0.9278 C   0  0  0  0  0  0  0  0  0  0  0  0
    4.4971    0.5152   -0.9195 C   0  0  0  0  0  0  0  0  0  0  0  0
    4.4165    1.9198   -1.3659 C   0  0  0  0  0  0  0  0  0  0  0  0
    3.3654   -0.0106   -0.3728 O   0  0  0  0  0  0  0  0  0  0  0  0
   -0.8302   -0.0131    1.4918 C   0  0  0  0  0  0  0  0  0  0  0  0
   -1.9162    0.0487    0.6456 N   0  0  0  0  0  0  0  0  0  0  0  0
   -2.6156    4.6003    0.5355 H   0  0  0  0  0  0  0  0  0  0  0  0
   -4.0471    3.5597    0.4356 H   0  0  0  0  0  0  0  0  0  0  0  0
   -2.9527    3.6954   -0.9508 H   0  0  0  0  0  0  0  0  0  0  0  0
   -2.2234    2.4976    1.7731 H   0  0  0  0  0  0  0  0  0  0  0  0
   -1.1275    2.6324    0.3829 H   0  0  0  0  0  0  0  0  0  0  0  0
   -5.9345    0.2802   -1.5974 H   0  0  0  0  0  0  0  0  0  0  0  0
   -4.7844    0.0051   -2.9377 H   0  0  0  0  0  0  0  0  0  0  0  0
   -5.4917   -1.3792   -2.0673 H   0  0  0  0  0  0  0  0  0  0  0  0
   -1.3939   -3.1923    0.7594 H   0  0  0  0  0  0  0  0  0  0  0  0
    2.3255   -0.4340    1.8688 H   0  0  0  0  0  0  0  0  0  0  0  0
    1.6786   -2.0436   -0.0781 H   0  0  0  0  0  0  0  0  0  0  0  0
    2.8411   -3.1187    0.7398 H   0  0  0  0  0  0  0  0  0  0  0  0
    5.4544   -2.5462   -0.1909 H   0  0  0  0  0  0  0  0  0  0  0  0
    6.5079   -0.2837   -1.2998 H   0  0  0  0  0  0  0  0  0  0  0  0
    4.2323    2.5811   -0.5138 H   0  0  0  0  0  0  0  0  0  0  0  0
    5.3480    2.2335   -1.8468 H   0  0  0  0  0  0  0  0  0  0  0  0
    3.6020    2.0471   -2.0855 H   0  0  0  0  0  0  0  0  0  0  0  0
   -0.3942    0.8750    1.9299 H   0  0  0  0  0  0  0  0  0  0  0  0
  1  2  1  0
  2  3  1  0
  3  4  2  0
  4  5  1  0
  5  6  1  0
  5  7  1  0
  7  8  2  0
  7  9  1  0
  9 10  2  0
 10 11  1  0
 11 12  1  0
 12 13  2  0
 12 14  2  0
 12 15  1  0
 15 16  1  0
 16 17  1  0
 17 18  2  0
 18 19  1  0
 19 20  2  0
 20 21  1  0
 20 22  1  0
 11 23  2  0
 23 24  1  0
 24  3  1  0
 24  9  1  0
 22 17  1  0
  1 25  1  0
  1 26  1  0
  1 27  1  0
  2 28  1  0
  2 29  1  0
  6 30  1  0
  6 31  1  0
  6 32  1  0
 10 33  1  0
 15 34  1  0
 16 35  1  0
 16 36  1  0
 18 37  1  0
 19 38  1  0
 21 39  1  0
 21 40  1  0
 21 41  1  0
 23 42  1  0
M  END
$$$$
