
     RDKit          3D

 38 40  0  0  0  0  0  0  0  0999 V2000
    2.0897    1.4092   -3.7889 C   0  0  0  0  0  0  0  0  0  0  0  0
    1.9432    1.0839   -2.4124 O   0  0  0  0  0  0  0  0  0  0  0  0
    3.0319    1.2879   -1.5976 C   0  0  0  0  0  0  0  0  0  0  0  0
    4.2693    1.7772   -2.0252 C   0  0  0  0  0  0  0  0  0  0  0  0
    5.3085    1.9479   -1.1079 C   0  0  0  0  0  0  0  0  0  0  0  0
    5.1117    1.6281    0.2332 C   0  0  0  0  0  0  0  0  0  0  0  0
    6.4030    1.8370    1.3523 Cl  0  0  0  0  0  0  0  0  0  0  0  0
    3.8832    1.1389    0.6754 C   0  0  0  0  0  0  0  0  0  0  0  0
    2.8377    0.9659   -0.2352 C   0  0  0  0  0  0  0  0  0  0  0  0
    1.5676    0.4792    0.1321 N   0  0  0  0  0  0  0  0  0  0  0  0
    1.1053    0.1276    1.3783 C   0  0  0  0  0  0  0  0  0  0  0  0
    1.6972    0.1624    2.4459 O   0  0  0  0  0  0  0  0  0  0  0  0
   -0.3527   -0.3502    1.3403 C   0  0  0  0  0  0  0  0  0  0  0  0
   -0.9434   -0.7969    2.6405 C   0  0  0  0  0  0  0  0  0  0  0  0
   -2.2233   -1.2102    2.6029 C   0  0  0  0  0  0  0  0  0  0  0  0
   -2.9574   -1.6867    3.8170 C   0  0  0  0  0  0  0  0  0  0  0  0
   -2.9081   -1.1980    1.3786 N   0  0  0  0  0  0  0  0  0  0  0  0
   -4.1902   -1.5734    1.1320 N   0  0  0  0  0  0  0  0  0  0  0  0
   -4.3666   -1.3706   -0.1769 C   0  0  0  0  0  0  0  0  0  0  0  0
   -5.6705   -1.6806   -0.8113 C   0  0  0  0  0  0  0  0  0  0  0  0
   -3.2039   -0.8732   -0.7963 C   0  0  0  0  0  0  0  0  0  0  0  0
   -2.2712   -0.7639    0.2080 C   0  0  0  0  0  0  0  0  0  0  0  0
   -0.9723   -0.3359    0.1899 N   0  0  0  0  0  0  0  0  0  0  0  0
    2.8604    0.7901   -4.2596 H   0  0  0  0  0  0  0  0  0  0  0  0
    2.3000    2.4754   -3.9228 H   0  0  0  0  0  0  0  0  0  0  0  0
    1.1393    1.1926   -4.2863 H   0  0  0  0  0  0  0  0  0  0  0  0
    4.4594    2.0359   -3.0616 H   0  0  0  0  0  0  0  0  0  0  0  0
    6.2689    2.3289   -1.4455 H   0  0  0  0  0  0  0  0  0  0  0  0
    3.7659    0.8982    1.7264 H   0  0  0  0  0  0  0  0  0  0  0  0
    0.8912    0.3939   -0.6284 H   0  0  0  0  0  0  0  0  0  0  0  0
   -0.3367   -0.7732    3.5361 H   0  0  0  0  0  0  0  0  0  0  0  0
   -3.2870   -2.7232    3.6871 H   0  0  0  0  0  0  0  0  0  0  0  0
   -2.3276   -1.6502    4.7123 H   0  0  0  0  0  0  0  0  0  0  0  0
   -3.8367   -1.0621    4.0070 H   0  0  0  0  0  0  0  0  0  0  0  0
   -5.8321   -1.0564   -1.6964 H   0  0  0  0  0  0  0  0  0  0  0  0
   -5.7000   -2.7297   -1.1211 H   0  0  0  0  0  0  0  0  0  0  0  0
   -6.4990   -1.5026   -0.1182 H   0  0  0  0  0  0  0  0  0  0  0  0
   -3.0549   -0.6232   -1.8363 H   0  0  0  0  0  0  0  0  0  0  0  0
  1  2  1  0
  2  3  1  0
  3  4  2  0
  4  5  1  0
  5  6  2  0
  6  7  1  0
  6  8  1  0
  8  9  2  0
  9 10  1  0
 10 11  1  0
 11 12  2  0
 11 13  1  0
 13 14  1  0
 14 15  2  0
 15 16  1  0
 15 17  1  0
 17 18  1  0
 18 19  2  0
 19 20  1  0
 19 21  1  0
 21 22  2  0
 22 23  1  0
  9  3  1  0
 23 13  2  0
 22 17  1  0
  1 24  1  0
  1 25  1  0
  1 26  1  0
  4 27  1  0
  5 28  1  0
  8 29  1  0
 10 30  1  0
 14 31  1  0
 16 32  1  0
 16 33  1  0
 16 34  1  0
 20 35  1  0
 20 36  1  0
 20 37  1  0
 21 38  1  0
M  END
$$$$
