
     RDKit          3D

 53 56  0  0  0  0  0  0  0  0999 V2000
   -5.8940    0.5207   -0.4276 C   0  0  0  0  0  0  0  0  0  0  0  0
   -4.5034    0.3751   -0.9943 C   0  0  0  0  0  0  0  0  0  0  0  0
   -4.3398    0.2686   -2.2098 O   0  0  0  0  0  0  0  0  0  0  0  0
   -3.3334    0.4696   -0.0173 C   0  0  1  0  0  0  0  0  0  0  0  0
   -3.5604   -0.2842    1.3143 C   0  0  0  0  0  0  0  0  0  0  0  0
   -2.1705   -0.7198    1.8145 C   0  0  0  0  0  0  0  0  0  0  0  0
   -1.2035   -0.0364    0.8534 C   0  0  1  0  0  0  0  0  0  0  0  0
    0.2358   -0.5515    0.7323 C   0  0  2  0  0  0  0  0  0  0  0  0
    0.9736   -0.6941    2.0781 C   0  0  0  0  0  0  0  0  0  0  0  0
    2.1563    0.2548    2.2484 C   0  0  0  0  0  0  0  0  0  0  0  0
    3.1018    0.2884    1.0674 C   0  0  0  0  0  0  0  0  0  0  0  0
    4.3843    0.6448    1.2613 C   0  0  0  0  0  0  0  0  0  0  0  0
    5.3194    0.8438    0.1296 C   0  0  0  0  0  0  0  0  0  0  0  0
    6.5120    1.0285    0.3643 O   0  0  0  0  0  0  0  0  0  0  0  0
    4.7819    0.7990   -1.2805 C   0  0  0  0  0  0  0  0  0  0  0  0
    3.2618    0.9449   -1.3339 C   0  0  0  0  0  0  0  0  0  0  0  0
    2.5194    0.0292   -0.3259 C   0  0  1  0  0  0  0  0  0  0  0  0
    2.7549   -1.4487   -0.7191 C   0  0  0  0  0  0  0  0  0  0  0  0
    0.9935    0.3759   -0.2727 C   0  0  1  0  0  0  0  0  0  0  0  0
    0.2668    0.4235   -1.6380 C   0  0  0  0  0  0  0  0  0  0  0  0
   -1.2158    0.8248   -1.4977 C   0  0  0  0  0  0  0  0  0  0  0  0
   -1.9643   -0.0731   -0.5002 C   0  0  2  0  0  0  0  0  0  0  0  0
   -2.1068   -1.5014   -1.0949 C   0  0  0  0  0  0  0  0  0  0  0  0
   -5.9397    1.4031    0.2157 H   0  0  0  0  0  0  0  0  0  0  0  0
   -6.1665   -0.3752    0.1341 H   0  0  0  0  0  0  0  0  0  0  0  0
   -6.6095    0.6521   -1.2446 H   0  0  0  0  0  0  0  0  0  0  0  0
   -3.2347    1.5412    0.2109 H   0  0  0  0  0  0  0  0  0  0  0  0
   -4.2031   -1.1631    1.1927 H   0  0  0  0  0  0  0  0  0  0  0  0
   -4.0464    0.3731    2.0443 H   0  0  0  0  0  0  0  0  0  0  0  0
   -2.0136   -0.4060    2.8513 H   0  0  0  0  0  0  0  0  0  0  0  0
   -2.0718   -1.8104    1.7799 H   0  0  0  0  0  0  0  0  0  0  0  0
   -1.1324    1.0119    1.1886 H   0  0  0  0  0  0  0  0  0  0  0  0
    0.1873   -1.5637    0.3165 H   0  0  0  0  0  0  0  0  0  0  0  0
    0.2929   -0.5645    2.9258 H   0  0  0  0  0  0  0  0  0  0  0  0
    1.3467   -1.7240    2.1602 H   0  0  0  0  0  0  0  0  0  0  0  0
    1.7664    1.2696    2.4025 H   0  0  0  0  0  0  0  0  0  0  0  0
    2.6951   -0.0164    3.1650 H   0  0  0  0  0  0  0  0  0  0  0  0
    4.7964    0.8444    2.2445 H   0  0  0  0  0  0  0  0  0  0  0  0
    5.1020   -0.1423   -1.7387 H   0  0  0  0  0  0  0  0  0  0  0  0
    5.2364    1.6197   -1.8467 H   0  0  0  0  0  0  0  0  0  0  0  0
    3.0047    1.9939   -1.1297 H   0  0  0  0  0  0  0  0  0  0  0  0
    2.9379    0.7375   -2.3606 H   0  0  0  0  0  0  0  0  0  0  0  0
    2.2846   -2.1517   -0.0258 H   0  0  0  0  0  0  0  0  0  0  0  0
    3.8192   -1.7082   -0.7247 H   0  0  0  0  0  0  0  0  0  0  0  0
    2.3650   -1.6574   -1.7208 H   0  0  0  0  0  0  0  0  0  0  0  0
    0.9210    1.4050    0.1167 H   0  0  0  0  0  0  0  0  0  0  0  0
    0.7427    1.1606   -2.2937 H   0  0  0  0  0  0  0  0  0  0  0  0
    0.3456   -0.5429   -2.1464 H   0  0  0  0  0  0  0  0  0  0  0  0
   -1.6927    0.7932   -2.4842 H   0  0  0  0  0  0  0  0  0  0  0  0
   -1.2634    1.8703   -1.1663 H   0  0  0  0  0  0  0  0  0  0  0  0
   -2.7038   -2.1647   -0.4617 H   0  0  0  0  0  0  0  0  0  0  0  0
   -2.5924   -1.4743   -2.0758 H   0  0  0  0  0  0  0  0  0  0  0  0
   -1.1435   -1.9934   -1.2509 H   0  0  0  0  0  0  0  0  0  0  0  0
  1  2  1  0
  2  3  2  0
  2  4  1  0
  4  5  1  0
  5  6  1  0
  6  7  1  0
  7  8  1  0
  8  9  1  0
  9 10  1  0
 10 11  1  0
 11 12  2  0
 12 13  1  0
 13 14  2  0
 13 15  1  0
 15 16  1  0
 16 17  1  0
 17 18  1  6
 17 19  1  0
 19 20  1  0
 20 21  1  0
 21 22  1  0
 22 23  1  6
 22  4  1  0
 22  7  1  0
 19  8  1  0
 17 11  1  0
  1 24  1  0
  1 25  1  0
  1 26  1  0
  4 27  1  1
  5 28  1  0
  5 29  1  0
  6 30  1  0
  6 31  1  0
  7 32  1  1
  8 33  1  6
  9 34  1  0
  9 35  1  0
 10 36  1  0
 10 37  1  0
 12 38  1  0
 15 39  1  0
 15 40  1  0
 16 41  1  0
 16 42  1  0
 18 43  1  0
 18 44  1  0
 18 45  1  0
 19 46  1  1
 20 47  1  0
 20 48  1  0
 21 49  1  0
 21 50  1  0
 23 51  1  0
 23 52  1  0
 23 53  1  0
M  END
$$$$
