
     RDKit          3D

 33 36  0  0  0  0  0  0  0  0999 V2000
    5.2816    0.0914    0.2105 C   0  0  0  0  0  0  0  0  0  0  0  0
    3.8047    0.0313    0.1825 C   0  0  0  0  0  0  0  0  0  0  0  0
    3.2230   -0.7910    1.0983 O   0  0  0  0  0  0  0  0  0  0  0  0
    1.8787   -0.7124    0.9155 C   0  0  0  0  0  0  0  0  0  0  0  0
    0.9265   -1.4072    1.6533 C   0  0  0  0  0  0  0  0  0  0  0  0
   -0.4002   -1.1716    1.2876 C   0  0  0  0  0  0  0  0  0  0  0  0
   -1.3867   -1.8769    2.0276 O   0  0  0  0  0  0  0  0  0  0  0  0
   -2.7483   -1.7466    1.7651 C   0  0  0  0  0  0  0  0  0  0  0  0
   -3.6035   -2.3580    2.3927 O   0  0  0  0  0  0  0  0  0  0  0  0
   -3.0898   -0.8232    0.6817 C   0  0  0  0  0  0  0  0  0  0  0  0
   -2.1806   -0.1450   -0.0219 C   0  0  0  0  0  0  0  0  0  0  0  0
   -0.7655   -0.2987    0.2539 C   0  0  0  0  0  0  0  0  0  0  0  0
    0.2319    0.3786   -0.4633 C   0  0  0  0  0  0  0  0  0  0  0  0
    1.5847    0.1655   -0.1216 C   0  0  0  0  0  0  0  0  0  0  0  0
    2.8427    0.6519   -0.5969 C   0  0  0  0  0  0  0  0  0  0  0  0
    3.0631    1.6173   -1.7015 C   0  0  0  0  0  0  0  0  0  0  0  0
   -2.8131    0.7163   -1.0594 C   0  0  0  0  0  0  0  0  0  0  0  0
   -4.2902    0.6957   -0.6452 C   0  0  0  0  0  0  0  0  0  0  0  0
   -4.4804   -0.5402    0.2408 C   0  0  0  0  0  0  0  0  0  0  0  0
    5.6915   -0.0920   -0.7874 H   0  0  0  0  0  0  0  0  0  0  0  0
    5.6989   -0.6582    0.8901 H   0  0  0  0  0  0  0  0  0  0  0  0
    5.6152    1.0783    0.5454 H   0  0  0  0  0  0  0  0  0  0  0  0
    1.2026   -2.0824    2.4522 H   0  0  0  0  0  0  0  0  0  0  0  0
   -0.0165    1.0587   -1.2715 H   0  0  0  0  0  0  0  0  0  0  0  0
    2.8246    1.1531   -2.6637 H   0  0  0  0  0  0  0  0  0  0  0  0
    2.4258    2.4984   -1.5756 H   0  0  0  0  0  0  0  0  0  0  0  0
    4.1022    1.9590   -1.7368 H   0  0  0  0  0  0  0  0  0  0  0  0
   -2.4290    1.7409   -1.0564 H   0  0  0  0  0  0  0  0  0  0  0  0
   -2.6769    0.2847   -2.0568 H   0  0  0  0  0  0  0  0  0  0  0  0
   -4.5227    1.6008   -0.0684 H   0  0  0  0  0  0  0  0  0  0  0  0
   -4.9591    0.6865   -1.5120 H   0  0  0  0  0  0  0  0  0  0  0  0
   -5.1537   -0.3235    1.0755 H   0  0  0  0  0  0  0  0  0  0  0  0
   -4.8813   -1.3815   -0.3342 H   0  0  0  0  0  0  0  0  0  0  0  0
  1  2  1  0
  2  3  1  0
  3  4  1  0
  4  5  2  0
  5  6  1  0
  6  7  1  0
  7  8  1  0
  8  9  2  0
  8 10  1  0
 10 11  2  0
 11 12  1  0
 12 13  1  0
 13 14  2  0
 14 15  1  0
 15 16  1  0
 11 17  1  0
 17 18  1  0
 18 19  1  0
 15  2  2  0
 14  4  1  0
 12  6  2  0
 19 10  1  0
  1 20  1  0
  1 21  1  0
  1 22  1  0
  5 23  1  0
 13 24  1  0
 16 25  1  0
 16 26  1  0
 16 27  1  0
 17 28  1  0
 17 29  1  0
 18 30  1  0
 18 31  1  0
 19 32  1  0
 19 33  1  0
M  END
$$$$
