
     RDKit          3D

 38 40  0  0  0  0  0  0  0  0999 V2000
   -2.6872    3.7896   -0.3783 C   0  0  0  0  0  0  0  0  0  0  0  0
   -1.7335    2.8131    0.2565 C   0  0  0  0  0  0  0  0  0  0  0  0
   -0.9000    3.1664    1.0823 O   0  0  0  0  0  0  0  0  0  0  0  0
   -1.8984    1.5166   -0.1731 N   0  0  0  0  0  0  0  0  0  0  0  0
   -1.1732    0.4125    0.4543 C   0  0  0  0  0  0  0  0  0  0  0  0
   -1.8662   -0.9041    0.1097 C   0  0  0  0  0  0  0  0  0  0  0  0
   -2.0583   -1.3112   -1.2227 C   0  0  0  0  0  0  0  0  0  0  0  0
   -2.7006   -2.5160   -1.5139 C   0  0  0  0  0  0  0  0  0  0  0  0
   -3.1567   -3.3313   -0.4805 C   0  0  0  0  0  0  0  0  0  0  0  0
   -2.9681   -2.9456    0.8448 C   0  0  0  0  0  0  0  0  0  0  0  0
   -2.3264   -1.7412    1.1387 C   0  0  0  0  0  0  0  0  0  0  0  0
    0.3070    0.3836    0.1012 C   0  0  0  0  0  0  0  0  0  0  0  0
    0.7922    0.8668   -1.1203 C   0  0  0  0  0  0  0  0  0  0  0  0
    2.1577    0.8121   -1.4188 C   0  0  0  0  0  0  0  0  0  0  0  0
    2.6519    1.4383   -2.9573 Cl  0  0  0  0  0  0  0  0  0  0  0  0
    3.0882    0.2623   -0.5041 C   0  0  0  0  0  0  0  0  0  0  0  0
    4.4810    0.1676   -0.7222 C   0  0  0  0  0  0  0  0  0  0  0  0
    5.3120   -0.3946    0.2406 C   0  0  0  0  0  0  0  0  0  0  0  0
    4.7332   -0.8542    1.4052 C   0  0  0  0  0  0  0  0  0  0  0  0
    3.4091   -0.7881    1.6608 N   0  0  0  0  0  0  0  0  0  0  0  0
    2.6088   -0.2365    0.7216 C   0  0  0  0  0  0  0  0  0  0  0  0
    1.2407   -0.1664    0.9888 C   0  0  0  0  0  0  0  0  0  0  0  0
    0.8027   -0.6721    2.1958 O   0  0  0  0  0  0  0  0  0  0  0  0
   -3.1543    3.3709   -1.2742 H   0  0  0  0  0  0  0  0  0  0  0  0
   -2.1372    4.6888   -0.6697 H   0  0  0  0  0  0  0  0  0  0  0  0
   -3.4658    4.0503    0.3431 H   0  0  0  0  0  0  0  0  0  0  0  0
   -2.7860    1.2811   -0.5950 H   0  0  0  0  0  0  0  0  0  0  0  0
   -1.2665    0.5944    1.5335 H   0  0  0  0  0  0  0  0  0  0  0  0
   -1.7025   -0.6938   -2.0442 H   0  0  0  0  0  0  0  0  0  0  0  0
   -2.8398   -2.8219   -2.5477 H   0  0  0  0  0  0  0  0  0  0  0  0
   -3.6525   -4.2715   -0.7072 H   0  0  0  0  0  0  0  0  0  0  0  0
   -3.3145   -3.5857    1.6522 H   0  0  0  0  0  0  0  0  0  0  0  0
   -2.1750   -1.4625    2.1803 H   0  0  0  0  0  0  0  0  0  0  0  0
    0.1052    1.2968   -1.8454 H   0  0  0  0  0  0  0  0  0  0  0  0
    4.9277    0.5332   -1.6438 H   0  0  0  0  0  0  0  0  0  0  0  0
    6.3820   -0.4697    0.0826 H   0  0  0  0  0  0  0  0  0  0  0  0
    5.3361   -1.3021    2.1904 H   0  0  0  0  0  0  0  0  0  0  0  0
    1.6270   -0.9759    2.6361 H   0  0  0  0  0  0  0  0  0  0  0  0
  1  2  1  0
  2  3  2  0
  2  4  1  0
  4  5  1  0
  5  6  1  0
  6  7  2  0
  7  8  1  0
  8  9  2  0
  9 10  1  0
 10 11  2  0
  5 12  1  0
 12 13  2  0
 13 14  1  0
 14 15  1  0
 14 16  2  0
 16 17  1  0
 17 18  2  0
 18 19  1  0
 19 20  2  0
 20 21  1  0
 21 22  2  0
 22 23  1  0
 11  6  1  0
 22 12  1  0
 21 16  1  0
  1 24  1  0
  1 25  1  0
  1 26  1  0
  4 27  1  0
  5 28  1  0
  7 29  1  0
  8 30  1  0
  9 31  1  0
 10 32  1  0
 11 33  1  0
 13 34  1  0
 17 35  1  0
 18 36  1  0
 19 37  1  0
 23 38  1  0
M  END
$$$$
