
     RDKit          3D

 49 52  0  0  0  0  0  0  0  0999 V2000
   -2.1756    2.9000   -2.9611 N   0  0  0  0  0  0  0  0  0  0  0  0
   -1.7100    1.6444   -2.6747 C   0  0  0  0  0  0  0  0  0  0  0  0
   -0.7265    1.1955   -3.2500 O   0  0  0  0  0  0  0  0  0  0  0  0
   -2.5103    0.9476   -1.6795 C   0  0  0  0  0  0  0  0  0  0  0  0
   -3.7001    1.4912   -1.1926 N   0  0  0  0  0  0  0  0  0  0  0  0
   -4.1911    0.5489   -0.4157 C   0  0  0  0  0  0  0  0  0  0  0  0
   -5.4315    0.5207    0.3456 C   0  0  0  0  0  0  0  0  0  0  0  0
   -5.4603   -0.0799    1.6123 C   0  0  0  0  0  0  0  0  0  0  0  0
   -4.3496   -0.6218    2.1364 F   0  0  0  0  0  0  0  0  0  0  0  0
   -6.6213   -0.1211    2.3852 C   0  0  0  0  0  0  0  0  0  0  0  0
   -7.7941    0.4468    1.9020 C   0  0  0  0  0  0  0  0  0  0  0  0
   -7.7949    1.0522    0.6468 C   0  0  0  0  0  0  0  0  0  0  0  0
   -6.6245    1.0912   -0.1274 C   0  0  0  0  0  0  0  0  0  0  0  0
   -6.7562    1.8379   -1.6848 Cl  0  0  0  0  0  0  0  0  0  0  0  0
   -3.4129   -0.5727   -0.3451 O   0  0  0  0  0  0  0  0  0  0  0  0
   -2.3144   -0.3006   -1.1140 C   0  0  0  0  0  0  0  0  0  0  0  0
   -1.4029   -1.2939   -1.1493 N   0  0  0  0  0  0  0  0  0  0  0  0
    0.0014   -1.1776   -1.0478 C   0  0  0  0  0  0  0  0  0  0  0  0
    0.7775   -2.3133   -1.3379 C   0  0  0  0  0  0  0  0  0  0  0  0
    2.1738   -2.2727   -1.2793 C   0  0  0  0  0  0  0  0  0  0  0  0
    2.8176   -1.0878   -0.9221 C   0  0  0  0  0  0  0  0  0  0  0  0
    4.2989   -1.0638   -0.8809 C   0  0  0  0  0  0  0  0  0  0  0  0
    4.9125   -1.5284   -1.8389 O   0  0  0  0  0  0  0  0  0  0  0  0
    4.9346   -0.5280    0.2335 N   0  0  0  0  0  0  0  0  0  0  0  0
    4.3039   -0.2972    1.5388 C   0  0  0  0  0  0  0  0  0  0  0  0
    5.2911   -0.5651    2.6808 C   0  0  0  0  0  0  0  0  0  0  0  0
    6.4737    0.2427    2.6129 O   0  0  0  0  0  0  0  0  0  0  0  0
    6.8850    0.5651    1.2751 C   0  0  0  0  0  0  0  0  0  0  0  0
    6.3937   -0.4270    0.2186 C   0  0  0  0  0  0  0  0  0  0  0  0
    2.0665    0.0621   -0.6702 C   0  0  0  0  0  0  0  0  0  0  0  0
    0.6685    0.0114   -0.7277 C   0  0  0  0  0  0  0  0  0  0  0  0
   -1.7749    3.3848   -3.7498 H   0  0  0  0  0  0  0  0  0  0  0  0
   -3.0842    3.1744   -2.6045 H   0  0  0  0  0  0  0  0  0  0  0  0
   -6.5958   -0.5942    3.3629 H   0  0  0  0  0  0  0  0  0  0  0  0
   -8.7033    0.4197    2.4980 H   0  0  0  0  0  0  0  0  0  0  0  0
   -8.7159    1.4931    0.2694 H   0  0  0  0  0  0  0  0  0  0  0  0
   -1.7137   -2.1784   -0.7551 H   0  0  0  0  0  0  0  0  0  0  0  0
    0.2949   -3.2417   -1.6350 H   0  0  0  0  0  0  0  0  0  0  0  0
    2.7552   -3.1587   -1.5235 H   0  0  0  0  0  0  0  0  0  0  0  0
    3.4198   -0.9302    1.6548 H   0  0  0  0  0  0  0  0  0  0  0  0
    3.9973    0.7544    1.5574 H   0  0  0  0  0  0  0  0  0  0  0  0
    4.8139   -0.3701    3.6463 H   0  0  0  0  0  0  0  0  0  0  0  0
    5.6044   -1.6157    2.6765 H   0  0  0  0  0  0  0  0  0  0  0  0
    6.5083    1.5703    1.0530 H   0  0  0  0  0  0  0  0  0  0  0  0
    7.9783    0.6166    1.2694 H   0  0  0  0  0  0  0  0  0  0  0  0
    6.7332   -0.1285   -0.7790 H   0  0  0  0  0  0  0  0  0  0  0  0
    6.7852   -1.4299    0.4266 H   0  0  0  0  0  0  0  0  0  0  0  0
    2.5577    1.0058   -0.4501 H   0  0  0  0  0  0  0  0  0  0  0  0
    0.1174    0.9216   -0.5132 H   0  0  0  0  0  0  0  0  0  0  0  0
  1  2  1  0
  2  3  2  0
  2  4  1  0
  4  5  1  0
  5  6  2  0
  6  7  1  0
  7  8  2  0
  8  9  1  0
  8 10  1  0
 10 11  2  0
 11 12  1  0
 12 13  2  0
 13 14  1  0
  6 15  1  0
 15 16  1  0
 16 17  1  0
 17 18  1  0
 18 19  2  0
 19 20  1  0
 20 21  2  0
 21 22  1  0
 22 23  2  0
 22 24  1  0
 24 25  1  0
 25 26  1  0
 26 27  1  0
 27 28  1  0
 28 29  1  0
 21 30  1  0
 30 31  2  0
 16  4  2  0
 31 18  1  0
 13  7  1  0
 29 24  1  0
  1 32  1  0
  1 33  1  0
 10 34  1  0
 11 35  1  0
 12 36  1  0
 17 37  1  0
 19 38  1  0
 20 39  1  0
 25 40  1  0
 25 41  1  0
 26 42  1  0
 26 43  1  0
 28 44  1  0
 28 45  1  0
 29 46  1  0
 29 47  1  0
 30 48  1  0
 31 49  1  0
M  END
$$$$
