
     RDKit          3D

 40 43  0  0  0  0  0  0  0  0999 V2000
    4.4751   -4.3136   -0.8351 N   0  0  0  0  0  0  0  0  0  0  0  0
    3.7986   -3.1161   -0.7571 C   0  0  0  0  0  0  0  0  0  0  0  0
    4.4860   -2.0056   -1.0019 N   0  0  0  0  0  0  0  0  0  0  0  0
    3.8062   -0.8522   -0.9213 C   0  0  0  0  0  0  0  0  0  0  0  0
    4.5392    0.3005   -1.2474 N   0  0  0  0  0  0  0  0  0  0  0  0
    2.4509   -0.7666   -0.6198 C   0  0  0  0  0  0  0  0  0  0  0  0
    1.7694    0.4127   -0.5284 N   0  0  0  0  0  0  0  0  0  0  0  0
    0.4462    0.3422   -0.2379 C   0  0  0  0  0  0  0  0  0  0  0  0
   -0.2370    1.6454   -0.2194 C   0  0  0  0  0  0  0  0  0  0  0  0
   -1.3676    1.9002   -1.0166 C   0  0  0  0  0  0  0  0  0  0  0  0
   -2.0121    3.1407   -0.9792 C   0  0  0  0  0  0  0  0  0  0  0  0
   -1.5328    4.1534   -0.1511 C   0  0  0  0  0  0  0  0  0  0  0  0
   -0.4070    3.9171    0.6285 C   0  0  0  0  0  0  0  0  0  0  0  0
    0.1000    4.8780    1.4525 O   0  0  0  0  0  0  0  0  0  0  0  0
    0.2403    2.6852    0.5964 C   0  0  0  0  0  0  0  0  0  0  0  0
   -0.1632   -0.8972   -0.0055 C   0  0  0  0  0  0  0  0  0  0  0  0
   -1.5744   -1.0910    0.3792 C   0  0  0  0  0  0  0  0  0  0  0  0
   -2.3756   -2.0198   -0.3120 C   0  0  0  0  0  0  0  0  0  0  0  0
   -3.7173   -2.2143    0.0272 C   0  0  0  0  0  0  0  0  0  0  0  0
   -4.2812   -1.4873    1.0712 C   0  0  0  0  0  0  0  0  0  0  0  0
   -3.4991   -0.5815    1.7746 C   0  0  0  0  0  0  0  0  0  0  0  0
   -4.0880    0.1054    2.7954 O   0  0  0  0  0  0  0  0  0  0  0  0
   -2.1584   -0.3845    1.4469 C   0  0  0  0  0  0  0  0  0  0  0  0
    0.5454   -2.0588   -0.1053 N   0  0  0  0  0  0  0  0  0  0  0  0
    1.8459   -2.0063   -0.4048 C   0  0  0  0  0  0  0  0  0  0  0  0
    2.5017   -3.1596   -0.4781 N   0  0  0  0  0  0  0  0  0  0  0  0
    3.8329   -5.0711   -1.0241 H   0  0  0  0  0  0  0  0  0  0  0  0
    5.2839   -4.2274   -1.4343 H   0  0  0  0  0  0  0  0  0  0  0  0
    5.5255    0.0715   -1.3067 H   0  0  0  0  0  0  0  0  0  0  0  0
    4.3178    1.0743   -0.6278 H   0  0  0  0  0  0  0  0  0  0  0  0
   -1.7577    1.1314   -1.6819 H   0  0  0  0  0  0  0  0  0  0  0  0
   -2.8876    3.3136   -1.6004 H   0  0  0  0  0  0  0  0  0  0  0  0
   -2.0433    5.1110   -0.1312 H   0  0  0  0  0  0  0  0  0  0  0  0
   -0.4084    5.6961    1.3262 H   0  0  0  0  0  0  0  0  0  0  0  0
    1.1245    2.5355    1.2125 H   0  0  0  0  0  0  0  0  0  0  0  0
   -1.9478   -2.6054   -1.1251 H   0  0  0  0  0  0  0  0  0  0  0  0
   -4.3176   -2.9366   -0.5198 H   0  0  0  0  0  0  0  0  0  0  0  0
   -5.3230   -1.6330    1.3420 H   0  0  0  0  0  0  0  0  0  0  0  0
   -3.4296    0.6979    3.1946 H   0  0  0  0  0  0  0  0  0  0  0  0
   -1.5609    0.3155    2.0246 H   0  0  0  0  0  0  0  0  0  0  0  0
  1  2  1  0
  2  3  2  0
  3  4  1  0
  4  5  1  0
  4  6  2  0
  6  7  1  0
  7  8  2  0
  8  9  1  0
  9 10  2  0
 10 11  1  0
 11 12  2  0
 12 13  1  0
 13 14  1  0
 13 15  2  0
  8 16  1  0
 16 17  1  0
 17 18  2  0
 18 19  1  0
 19 20  2  0
 20 21  1  0
 21 22  1  0
 21 23  2  0
 16 24  2  0
 24 25  1  0
 25 26  2  0
 26  2  1  0
 25  6  1  0
 15  9  1  0
 23 17  1  0
  1 27  1  0
  1 28  1  0
  5 29  1  0
  5 30  1  0
 10 31  1  0
 11 32  1  0
 12 33  1  0
 14 34  1  0
 15 35  1  0
 18 36  1  0
 19 37  1  0
 20 38  1  0
 22 39  1  0
 23 40  1  0
M  END
$$$$
