
     RDKit          3D

 42 43  0  0  0  0  0  0  0  0999 V2000
    3.9511   -1.5166   -1.1967 C   0  0  0  0  0  0  0  0  0  0  0  0
    3.9165   -0.4657   -0.1936 N   0  0  0  0  0  0  0  0  0  0  0  0
    3.3965    0.7448   -0.7639 C   0  0  0  0  0  0  0  0  0  0  0  0
    1.9294    0.6549   -1.1255 C   0  0  0  0  0  0  0  0  0  0  0  0
    1.0800    0.3577    0.1106 C   0  0  2  0  0  0  0  0  0  0  0  0
   -0.2661    0.2700   -0.2164 O   0  0  0  0  0  0  0  0  0  0  0  0
   -1.1221   -0.7775   -0.1357 C   0  0  0  0  0  0  0  0  0  0  0  0
   -0.8230   -2.0431    0.3108 C   0  0  0  0  0  0  0  0  0  0  0  0
   -1.7706   -3.0590    0.3586 C   0  0  0  0  0  0  0  0  0  0  0  0
   -3.0551   -2.8324   -0.0434 C   0  0  0  0  0  0  0  0  0  0  0  0
   -3.3878   -1.5619   -0.5001 C   0  0  0  0  0  0  0  0  0  0  0  0
   -4.6806   -1.3091   -0.9119 C   0  0  0  0  0  0  0  0  0  0  0  0
   -5.0626   -0.0652   -1.3736 C   0  0  0  0  0  0  0  0  0  0  0  0
   -4.1195    0.9433   -1.4201 C   0  0  0  0  0  0  0  0  0  0  0  0
   -2.8239    0.6895   -1.0075 C   0  0  0  0  0  0  0  0  0  0  0  0
   -2.4410   -0.5553   -0.5454 C   0  0  0  0  0  0  0  0  0  0  0  0
    1.2469    1.3674    1.1490 C   0  0  0  0  0  0  0  0  0  0  0  0
    0.7933    2.6031    1.3499 C   0  0  0  0  0  0  0  0  0  0  0  0
    1.1144    3.3131    2.4211 C   0  0  0  0  0  0  0  0  0  0  0  0
    1.9767    2.6943    3.3637 C   0  0  0  0  0  0  0  0  0  0  0  0
    2.2782    1.1287    2.6604 S   0  0  0  0  0  0  0  0  0  0  0  0
    0.6841    0.0000    0.0000 Cl  0  0  0  0  0  0  0  0  0  0  0  0
    3.0620   -2.1744   -1.1335 H   0  0  0  0  0  0  0  0  0  0  0  0
    3.9470   -1.0306   -2.1842 H   0  0  0  0  0  0  0  0  0  0  0  0
    4.8974   -2.0805   -1.1186 H   0  0  0  0  0  0  0  0  0  0  0  0
    3.4502   -0.7643    0.6693 H   0  0  0  0  0  0  0  0  0  0  0  0
    3.4793    1.5493    0.0179 H   0  0  0  0  0  0  0  0  0  0  0  0
    4.0091    1.0328   -1.6182 H   0  0  0  0  0  0  0  0  0  0  0  0
    1.8100   -0.1738   -1.8536 H   0  0  0  0  0  0  0  0  0  0  0  0
    1.6498    1.6345   -1.5745 H   0  0  0  0  0  0  0  0  0  0  0  0
    1.4241   -0.6193    0.4940 H   0  0  0  0  0  0  0  0  0  0  0  0
    0.2040   -2.2162    0.6297 H   0  0  0  0  0  0  0  0  0  0  0  0
   -1.4536   -4.0416    0.7278 H   0  0  0  0  0  0  0  0  0  0  0  0
   -3.7969   -3.6213   -0.0084 H   0  0  0  0  0  0  0  0  0  0  0  0
   -5.4049   -2.1299   -0.8619 H   0  0  0  0  0  0  0  0  0  0  0  0
   -6.0946    0.1181   -1.6967 H   0  0  0  0  0  0  0  0  0  0  0  0
   -4.4341    1.9125   -1.7847 H   0  0  0  0  0  0  0  0  0  0  0  0
   -2.0760    1.4686   -1.0379 H   0  0  0  0  0  0  0  0  0  0  0  0
    0.1016    3.0451    0.5523 H   0  0  0  0  0  0  0  0  0  0  0  0
    0.7441    4.3616    2.6159 H   0  0  0  0  0  0  0  0  0  0  0  0
    2.3507    3.1483    4.3261 H   0  0  0  0  0  0  0  0  0  0  0  0
   -0.6841    0.0000    0.0000 H   0  0  0  0  0  0  0  0  0  0  0  0
  1  2  1  0
  2  3  1  0
  3  4  1  0
  4  5  1  0
  5  6  1  0
  6  7  1  0
  7  8  2  0
  8  9  1  0
  9 10  2  0
 10 11  1  0
 11 12  2  0
 12 13  1  0
 13 14  2  0
 14 15  1  0
 15 16  2  0
  5 17  1  0
 17 18  2  0
 18 19  1  0
 19 20  2  0
 20 21  1  0
 16  7  1  0
 21 17  1  0
 16 11  1  0
  1 23  1  0
  1 24  1  0
  1 25  1  0
  2 26  1  0
  3 27  1  0
  3 28  1  0
  4 29  1  0
  4 30  1  0
  5 31  1  1
  8 32  1  0
  9 33  1  0
 10 34  1  0
 12 35  1  0
 13 36  1  0
 14 37  1  0
 15 38  1  0
 18 39  1  0
 19 40  1  0
 20 41  1  0
 22 42  1  0
M  END
$$$$
