
     RDKit          3D

 36 38  0  0  0  0  0  0  0  0999 V2000
   -3.8892    2.0229    0.8844 N   0  0  0  0  0  0  0  0  0  0  0  0
   -4.3231    0.4197    1.1600 S   0  0  0  0  0  6  0  0  0  0  0  0
   -4.3883    0.2689    2.5949 O   0  0  0  0  0  0  0  0  0  0  0  0
   -5.4311    0.1051    0.2908 O   0  0  0  0  0  0  0  0  0  0  0  0
   -2.8847   -0.4404    0.5738 C   0  0  0  0  0  0  0  0  0  0  0  0
   -1.8018   -0.6384    1.4374 C   0  0  0  0  0  0  0  0  0  0  0  0
   -0.6708   -1.3136    0.9772 C   0  0  0  0  0  0  0  0  0  0  0  0
   -0.6352   -1.7828   -0.3412 C   0  0  0  0  0  0  0  0  0  0  0  0
    0.8071   -2.6346   -0.9418 S   0  0  0  0  0  6  0  0  0  0  0  0
    1.6777   -2.9170    0.1815 O   0  0  0  0  0  0  0  0  0  0  0  0
    0.3545   -3.6900   -1.8218 O   0  0  0  0  0  0  0  0  0  0  0  0
    1.5515   -1.4878   -1.9261 N   0  0  0  0  0  0  0  0  0  0  0  0
    1.7650   -0.1568   -1.4664 C   0  0  0  0  0  0  0  0  0  0  0  0
    1.2743    0.9023   -2.2418 C   0  0  0  0  0  0  0  0  0  0  0  0
    1.4431    2.2272   -1.8458 C   0  0  0  0  0  0  0  0  0  0  0  0
    2.1195    2.5330   -0.6617 C   0  0  0  0  0  0  0  0  0  0  0  0
    2.6433    1.4900    0.1307 C   0  0  0  0  0  0  0  0  0  0  0  0
    3.3724    1.4397    1.3526 C   0  0  0  0  0  0  0  0  0  0  0  0
    3.8410    2.7831    2.2819 Cl  0  0  0  0  0  0  0  0  0  0  0  0
    3.6222    0.1212    1.6446 C   0  0  0  0  0  0  0  0  0  0  0  0
    3.0830   -0.6359    0.6406 N   0  0  0  0  0  0  0  0  0  0  0  0
    2.4576    0.1686   -0.2909 C   0  0  0  0  0  0  0  0  0  0  0  0
   -1.7325   -1.6141   -1.1944 C   0  0  0  0  0  0  0  0  0  0  0  0
   -2.8625   -0.9363   -0.7348 C   0  0  0  0  0  0  0  0  0  0  0  0
   -3.0311    2.1258    0.3447 H   0  0  0  0  0  0  0  0  0  0  0  0
   -3.8365    2.5097    1.7813 H   0  0  0  0  0  0  0  0  0  0  0  0
   -1.8335   -0.2779    2.4642 H   0  0  0  0  0  0  0  0  0  0  0  0
    0.1714   -1.4672    1.6491 H   0  0  0  0  0  0  0  0  0  0  0  0
    1.3021   -1.6160   -2.9060 H   0  0  0  0  0  0  0  0  0  0  0  0
    0.7455    0.7020   -3.1707 H   0  0  0  0  0  0  0  0  0  0  0  0
    1.0529    3.0328   -2.4639 H   0  0  0  0  0  0  0  0  0  0  0  0
    2.2528    3.5694   -0.3613 H   0  0  0  0  0  0  0  0  0  0  0  0
    4.1374   -0.3440    2.4739 H   0  0  0  0  0  0  0  0  0  0  0  0
    3.0824   -1.6519    0.5987 H   0  0  0  0  0  0  0  0  0  0  0  0
   -1.7163   -2.0109   -2.2075 H   0  0  0  0  0  0  0  0  0  0  0  0
   -3.7200   -0.8058   -1.3933 H   0  0  0  0  0  0  0  0  0  0  0  0
  1  2  1  0
  2  3  2  0
  2  4  2  0
  2  5  1  0
  5  6  2  0
  6  7  1  0
  7  8  2  0
  8  9  1  0
  9 10  2  0
  9 11  2  0
  9 12  1  0
 12 13  1  0
 13 14  2  0
 14 15  1  0
 15 16  2  0
 16 17  1  0
 17 18  1  0
 18 19  1  0
 18 20  2  0
 20 21  1  0
 21 22  1  0
  8 23  1  0
 23 24  2  0
 24  5  1  0
 22 13  1  0
 22 17  2  0
  1 25  1  0
  1 26  1  0
  6 27  1  0
  7 28  1  0
 12 29  1  0
 14 30  1  0
 15 31  1  0
 16 32  1  0
 20 33  1  0
 21 34  1  0
 23 35  1  0
 24 36  1  0
M  END
$$$$
