
     RDKit          3D

 17 17  0  0  0  0  0  0  0  0999 V2000
    2.5458   -1.8100   -0.6551 O   0  0  0  0  0  0  0  0  0  0  0  0
    2.3377   -0.6119   -0.6504 C   0  0  0  0  0  0  0  0  0  0  0  0
    3.3017    0.2707   -0.9626 O   0  0  0  0  0  0  0  0  0  0  0  0
    1.0518    0.0399   -0.3165 C   0  0  0  0  0  0  0  0  0  0  0  0
    0.9010    1.4269   -0.3365 C   0  0  0  0  0  0  0  0  0  0  0  0
   -0.3360    1.9503   -0.0107 C   0  0  0  0  0  0  0  0  0  0  0  0
   -1.4014    1.1950    0.3244 N   0  0  0  0  0  0  0  0  0  0  0  0
   -1.2307   -0.1536    0.3371 C   0  0  0  0  0  0  0  0  0  0  0  0
   -2.3998   -1.0062    0.7058 C   0  0  0  0  0  0  0  0  0  0  0  0
   -2.3983   -2.2243    0.7604 O   0  0  0  0  0  0  0  0  0  0  0  0
   -3.5118   -0.3000    0.9881 O   0  0  0  0  0  0  0  0  0  0  0  0
   -0.0297   -0.7717    0.0256 C   0  0  0  0  0  0  0  0  0  0  0  0
    4.0826   -0.2902   -1.1579 H   0  0  0  0  0  0  0  0  0  0  0  0
    1.7200    2.0887   -0.5978 H   0  0  0  0  0  0  0  0  0  0  0  0
   -0.5095    3.0233   -0.0101 H   0  0  0  0  0  0  0  0  0  0  0  0
   -4.1861   -0.9728    1.2090 H   0  0  0  0  0  0  0  0  0  0  0  0
    0.0625   -1.8540    0.0485 H   0  0  0  0  0  0  0  0  0  0  0  0
  1  2  2  0
  2  3  1  0
  2  4  1  0
  4  5  2  0
  5  6  1  0
  6  7  2  0
  7  8  1  0
  8  9  1  0
  9 10  2  0
  9 11  1  0
  8 12  2  0
 12  4  1  0
  3 13  1  0
  5 14  1  0
  6 15  1  0
 11 16  1  0
 12 17  1  0
M  END
$$$$
