
     RDKit          3D

 29 31  0  0  0  0  0  0  0  0999 V2000
   -5.3467   -0.6599    0.0493 O   0  0  0  0  0  0  0  0  0  0  0  0
   -4.1666   -0.3259    0.0953 C   0  0  0  0  0  0  0  0  0  0  0  0
   -3.6592    0.9374   -0.5614 C   0  0  0  0  0  0  0  0  0  0  0  0
   -2.1965    0.8045   -0.9588 C   0  0  0  0  0  0  0  0  0  0  0  0
   -1.3726    0.4438    0.2743 C   0  0  0  0  0  0  0  0  0  0  0  0
    0.0556    0.3240    0.0251 N   0  0  0  0  0  0  0  0  0  0  0  0
    0.6201   -0.4446   -0.9566 C   0  0  0  0  0  0  0  0  0  0  0  0
    0.0789   -1.0760   -1.8437 O   0  0  0  0  0  0  0  0  0  0  0  0
    2.0653   -0.4031   -0.7430 C   0  0  0  0  0  0  0  0  0  0  0  0
    3.0941   -0.9829   -1.4591 C   0  0  0  0  0  0  0  0  0  0  0  0
    4.3955   -0.7679   -0.9940 C   0  0  0  0  0  0  0  0  0  0  0  0
    4.6327    0.0073    0.1608 C   0  0  0  0  0  0  0  0  0  0  0  0
    3.5725    0.5805    0.8704 C   0  0  0  0  0  0  0  0  0  0  0  0
    2.2978    0.3555    0.3892 C   0  0  0  0  0  0  0  0  0  0  0  0
    1.0010    0.8003    0.8939 C   0  0  0  0  0  0  0  0  0  0  0  0
    0.8468    1.4710    1.8967 O   0  0  0  0  0  0  0  0  0  0  0  0
   -1.8900   -0.8592    0.8928 C   0  0  0  0  0  0  0  0  0  0  0  0
   -1.1787   -1.6645    1.4908 O   0  0  0  0  0  0  0  0  0  0  0  0
   -3.2493   -1.0622    0.8033 N   0  0  0  0  0  0  0  0  0  0  0  0
   -4.2626    1.1307   -1.4549 H   0  0  0  0  0  0  0  0  0  0  0  0
   -3.8035    1.7688    0.1373 H   0  0  0  0  0  0  0  0  0  0  0  0
   -1.8390    1.7440   -1.3955 H   0  0  0  0  0  0  0  0  0  0  0  0
   -2.1128    0.0338   -1.7333 H   0  0  0  0  0  0  0  0  0  0  0  0
   -1.5161    1.2188    1.0390 H   0  0  0  0  0  0  0  0  0  0  0  0
    2.8968   -1.5823   -2.3419 H   0  0  0  0  0  0  0  0  0  0  0  0
    5.2377   -1.2072   -1.5261 H   0  0  0  0  0  0  0  0  0  0  0  0
    5.6549    0.1564    0.5048 H   0  0  0  0  0  0  0  0  0  0  0  0
    3.7398    1.1740    1.7633 H   0  0  0  0  0  0  0  0  0  0  0  0
   -3.5961   -1.9150    1.2217 H   0  0  0  0  0  0  0  0  0  0  0  0
  1  2  2  0
  2  3  1  0
  3  4  1  0
  4  5  1  0
  5  6  1  0
  6  7  1  0
  7  8  2  0
  7  9  1  0
  9 10  2  0
 10 11  1  0
 11 12  2  0
 12 13  1  0
 13 14  2  0
 14 15  1  0
 15 16  2  0
  5 17  1  0
 17 18  2  0
 17 19  1  0
 19  2  1  0
 15  6  1  0
 14  9  1  0
  3 20  1  0
  3 21  1  0
  4 22  1  0
  4 23  1  0
  5 24  1  0
 10 25  1  0
 11 26  1  0
 12 27  1  0
 13 28  1  0
 19 29  1  0
M  END
$$$$
