
     RDKit          3D

 27 26  0  0  0  0  0  0  0  0999 V2000
    3.1800    1.1599    0.0690 C   0  0  0  0  0  0  0  0  0  0  0  0
    2.0536    0.3912   -0.4446 N   0  0  0  0  0  0  0  0  0  0  0  0
    1.6763   -0.5642    0.5662 C   0  0  0  0  0  0  0  0  0  0  0  0
    0.5253   -1.4255    0.1709 C   0  0  2  0  0  0  0  0  0  0  0  0
    0.7876   -2.1851   -0.9737 O   0  0  0  0  0  0  0  0  0  0  0  0
   -0.7398   -0.6855    0.0478 C   0  0  0  0  0  0  0  0  0  0  0  0
   -1.8860   -1.2998   -0.4099 C   0  0  0  0  0  0  0  0  0  0  0  0
   -3.0797   -0.6177   -0.5337 C   0  0  0  0  0  0  0  0  0  0  0  0
   -3.1497    0.7122   -0.1966 C   0  0  0  0  0  0  0  0  0  0  0  0
   -2.0235    1.3481    0.2617 C   0  0  0  0  0  0  0  0  0  0  0  0
   -2.0818    2.6843    0.6035 O   0  0  0  0  0  0  0  0  0  0  0  0
   -0.8323    0.6357    0.3767 C   0  0  0  0  0  0  0  0  0  0  0  0
    0.6910    0.0000    0.0000 Cl  0  0  0  0  0  0  0  0  0  0  0  0
    2.8637    2.2377    0.0200 H   0  0  0  0  0  0  0  0  0  0  0  0
    4.1062    0.9889   -0.5232 H   0  0  0  0  0  0  0  0  0  0  0  0
    3.3526    0.9453    1.1412 H   0  0  0  0  0  0  0  0  0  0  0  0
    2.3772   -0.0585   -1.3145 H   0  0  0  0  0  0  0  0  0  0  0  0
    1.4326   -0.0592    1.5195 H   0  0  0  0  0  0  0  0  0  0  0  0
    2.5322   -1.2662    0.7886 H   0  0  0  0  0  0  0  0  0  0  0  0
    0.3874   -2.1781    1.0018 H   0  0  0  0  0  0  0  0  0  0  0  0
    0.2933   -3.0447   -0.9152 H   0  0  0  0  0  0  0  0  0  0  0  0
   -1.8606   -2.3473   -0.6830 H   0  0  0  0  0  0  0  0  0  0  0  0
   -3.9615   -1.1282   -0.8960 H   0  0  0  0  0  0  0  0  0  0  0  0
   -4.1019    1.2317   -0.3019 H   0  0  0  0  0  0  0  0  0  0  0  0
   -1.8886    3.3658   -0.1115 H   0  0  0  0  0  0  0  0  0  0  0  0
    0.0372    1.1591    0.7370 H   0  0  0  0  0  0  0  0  0  0  0  0
   -0.6910    0.0000    0.0000 H   0  0  0  0  0  0  0  0  0  0  0  0
  1  2  1  0
  2  3  1  0
  3  4  1  0
  4  5  1  0
  4  6  1  0
  6  7  2  0
  7  8  1  0
  8  9  2  0
  9 10  1  0
 10 11  1  0
 10 12  2  0
 12  6  1  0
  1 14  1  0
  1 15  1  0
  1 16  1  0
  2 17  1  0
  3 18  1  0
  3 19  1  0
  4 20  1  1
  5 21  1  0
  7 22  1  0
  8 23  1  0
  9 24  1  0
 11 25  1  0
 12 26  1  0
 13 27  1  0
M  END
$$$$
