
     RDKit          3D

 51 54  0  0  0  0  0  0  0  0999 V2000
   -5.7832   -2.6930    0.2286 O   0  0  0  0  0  0  0  0  0  0  0  0
   -5.0335   -1.7536   -0.0265 C   0  0  0  0  0  0  0  0  0  0  0  0
   -3.6897   -1.9796   -0.0711 N   0  0  0  0  0  0  0  0  0  0  0  0
   -2.6671   -0.9632    0.0891 C   0  0  0  0  0  0  0  0  0  0  0  0
   -1.3339   -1.6208    0.4719 C   0  0  0  0  0  0  0  0  0  0  0  0
   -0.2803   -0.6113    0.9410 C   0  0  0  0  0  0  0  0  0  0  0  0
    0.9702   -1.2970    1.4710 C   0  0  0  0  0  0  0  0  0  0  0  0
    1.0712   -2.5235    1.4781 O   0  0  0  0  0  0  0  0  0  0  0  0
    1.9701   -0.4709    1.9707 N   0  0  0  0  0  0  0  0  0  0  0  0
    3.2468   -1.0862    2.3523 C   0  0  0  0  0  0  0  0  0  0  0  0
    4.2772   -0.9352    1.2152 C   0  0  0  0  0  0  0  0  0  0  0  0
    4.4207    0.4991    0.8400 N   0  0  0  0  0  0  0  0  0  0  0  0
    5.4210    0.7055   -0.1332 C   0  0  0  0  0  0  0  0  0  0  0  0
    5.8190    1.9990   -0.5029 C   0  0  0  0  0  0  0  0  0  0  0  0
    6.7737    2.2782   -1.4295 N   0  0  0  0  0  0  0  0  0  0  0  0
    7.3559    1.1961   -1.9806 C   0  0  0  0  0  0  0  0  0  0  0  0
    7.0014   -0.0897   -1.6201 C   0  0  0  0  0  0  0  0  0  0  0  0
    6.0438   -0.3543   -0.6993 N   0  0  0  0  0  0  0  0  0  0  0  0
    3.1300    1.1460    0.4942 C   0  0  0  0  0  0  0  0  0  0  0  0
    2.1097    0.9515    1.6391 C   0  0  0  0  0  0  0  0  0  0  0  0
   -2.5780   -0.1610   -1.2134 C   0  0  0  0  0  0  0  0  0  0  0  0
   -1.5212    0.0158   -1.8238 O   0  0  0  0  0  0  0  0  0  0  0  0
   -3.6830    0.5205   -1.6414 N   0  0  0  0  0  0  0  0  0  0  0  0
   -4.9738    0.5782   -1.0889 C   0  0  0  0  0  0  0  0  0  0  0  0
   -5.7049    1.7348   -1.4185 C   0  0  0  0  0  0  0  0  0  0  0  0
   -6.9915    1.9486   -0.9205 C   0  0  0  0  0  0  0  0  0  0  0  0
   -7.5801    0.9973   -0.0994 C   0  0  0  0  0  0  0  0  0  0  0  0
   -6.8857   -0.1729    0.2036 C   0  0  0  0  0  0  0  0  0  0  0  0
   -5.5836   -0.3995   -0.2876 C   0  0  0  0  0  0  0  0  0  0  0  0
   -3.4587   -2.9349    0.1803 H   0  0  0  0  0  0  0  0  0  0  0  0
   -2.9816   -0.2836    0.8910 H   0  0  0  0  0  0  0  0  0  0  0  0
   -0.9390   -2.2046   -0.3702 H   0  0  0  0  0  0  0  0  0  0  0  0
   -1.5140   -2.3409    1.2818 H   0  0  0  0  0  0  0  0  0  0  0  0
    0.0112    0.0318    0.1064 H   0  0  0  0  0  0  0  0  0  0  0  0
   -0.6963    0.0077    1.7439 H   0  0  0  0  0  0  0  0  0  0  0  0
    3.1170   -2.1431    2.6056 H   0  0  0  0  0  0  0  0  0  0  0  0
    3.6008   -0.5706    3.2532 H   0  0  0  0  0  0  0  0  0  0  0  0
    5.2355   -1.3360    1.5680 H   0  0  0  0  0  0  0  0  0  0  0  0
    3.9446   -1.5228    0.3490 H   0  0  0  0  0  0  0  0  0  0  0  0
    5.3823    2.8733   -0.0336 H   0  0  0  0  0  0  0  0  0  0  0  0
    8.1231    1.3885   -2.7211 H   0  0  0  0  0  0  0  0  0  0  0  0
    7.4802   -0.9545   -2.0645 H   0  0  0  0  0  0  0  0  0  0  0  0
    2.7317    0.7075   -0.4303 H   0  0  0  0  0  0  0  0  0  0  0  0
    3.2515    2.2232    0.3370 H   0  0  0  0  0  0  0  0  0  0  0  0
    2.4654    1.4596    2.5438 H   0  0  0  0  0  0  0  0  0  0  0  0
    1.1523    1.4021    1.3699 H   0  0  0  0  0  0  0  0  0  0  0  0
   -3.4606    1.1625   -2.3937 H   0  0  0  0  0  0  0  0  0  0  0  0
   -5.2699    2.5028   -2.0555 H   0  0  0  0  0  0  0  0  0  0  0  0
   -7.5325    2.8562   -1.1779 H   0  0  0  0  0  0  0  0  0  0  0  0
   -8.5856    1.1491    0.2855 H   0  0  0  0  0  0  0  0  0  0  0  0
   -7.3787   -0.9320    0.8107 H   0  0  0  0  0  0  0  0  0  0  0  0
  1  2  2  0
  2  3  1  0
  3  4  1  0
  4  5  1  0
  5  6  1  0
  6  7  1  0
  7  8  2  0
  7  9  1  0
  9 10  1  0
 10 11  1  0
 11 12  1  0
 12 13  1  0
 13 14  2  0
 14 15  1  0
 15 16  2  0
 16 17  1  0
 17 18  2  0
 12 19  1  0
 19 20  1  0
  4 21  1  0
 21 22  2  0
 21 23  1  0
 23 24  1  0
 24 25  2  0
 25 26  1  0
 26 27  2  0
 27 28  1  0
 28 29  2  0
 29  2  1  0
 20  9  1  0
 29 24  1  0
 18 13  1  0
  3 30  1  0
  4 31  1  0
  5 32  1  0
  5 33  1  0
  6 34  1  0
  6 35  1  0
 10 36  1  0
 10 37  1  0
 11 38  1  0
 11 39  1  0
 14 40  1  0
 16 41  1  0
 17 42  1  0
 19 43  1  0
 19 44  1  0
 20 45  1  0
 20 46  1  0
 23 47  1  0
 25 48  1  0
 26 49  1  0
 27 50  1  0
 28 51  1  0
M  END
$$$$
