
     RDKit          3D

 61 65  0  0  0  0  0  0  0  0999 V2000
  -10.2424    0.5047    1.8078 C   0  0  0  0  0  0  0  0  0  0  0  0
   -8.9284   -0.0100    1.2438 C   0  0  0  0  0  0  0  0  0  0  0  0
   -7.7788    0.1854    2.2345 C   0  0  0  0  0  0  0  0  0  0  0  0
   -6.5178   -0.3077    1.6947 N   0  0  0  0  0  0  0  0  0  0  0  0
   -6.2019   -1.6617    1.9059 C   0  0  0  0  0  0  0  0  0  0  0  0
   -6.9291   -2.4379    2.5261 O   0  0  0  0  0  0  0  0  0  0  0  0
   -5.0168   -2.1186    1.3794 N   0  0  0  0  0  0  0  0  0  0  0  0
   -4.2072   -1.3000    0.6640 C   0  0  0  0  0  0  0  0  0  0  0  0
   -3.0281   -1.6262    0.0886 N   0  0  0  0  0  0  0  0  0  0  0  0
   -2.6097   -0.5106   -0.5020 C   0  0  0  0  0  0  0  0  0  0  0  0
   -1.3649   -0.3644   -1.2668 C   0  0  0  0  0  0  0  0  0  0  0  0
   -0.6401   -1.5175   -1.6135 C   0  0  0  0  0  0  0  0  0  0  0  0
    0.5506   -1.4325   -2.3399 C   0  0  0  0  0  0  0  0  0  0  0  0
    1.0408   -0.1793   -2.7083 C   0  0  0  0  0  0  0  0  0  0  0  0
    2.5424   -0.0625   -3.6594 S   0  0  0  0  0  6  0  0  0  0  0  0
    2.7131   -1.3187   -4.3578 O   0  0  0  0  0  0  0  0  0  0  0  0
    2.4991    1.1924   -4.3805 O   0  0  0  0  0  0  0  0  0  0  0  0
    3.7545    0.0532   -2.4832 N   0  0  0  0  0  0  0  0  0  0  0  0
    3.7887    1.3028   -1.6669 C   0  0  0  0  0  0  0  0  0  0  0  0
    5.1389    1.4216   -0.9319 C   0  0  0  0  0  0  0  0  0  0  0  0
    5.3748    0.2255   -0.0905 N   0  0  0  0  0  0  0  0  0  0  0  0
    6.4375    0.2686    0.8265 C   0  0  0  0  0  0  0  0  0  0  0  0
    6.4645   -0.6556    1.8866 C   0  0  0  0  0  0  0  0  0  0  0  0
    7.4907   -0.6562    2.8373 C   0  0  0  0  0  0  0  0  0  0  0  0
    8.5127    0.2800    2.7447 C   0  0  0  0  0  0  0  0  0  0  0  0
    9.7787    0.2880    3.9082 Cl  0  0  0  0  0  0  0  0  0  0  0  0
    8.5103    1.2140    1.7148 C   0  0  0  0  0  0  0  0  0  0  0  0
    7.4776    1.2084    0.7681 C   0  0  0  0  0  0  0  0  0  0  0  0
    5.3365   -1.0320   -0.8843 C   0  0  0  0  0  0  0  0  0  0  0  0
    3.9967   -1.1555   -1.6397 C   0  0  0  0  0  0  0  0  0  0  0  0
    0.3272    0.9797   -2.3930 C   0  0  0  0  0  0  0  0  0  0  0  0
   -0.8663    0.8854   -1.6680 C   0  0  0  0  0  0  0  0  0  0  0  0
   -3.5325    0.5035   -0.3048 N   0  0  0  0  0  0  0  0  0  0  0  0
   -4.5477   -0.0069    0.4469 C   0  0  0  0  0  0  0  0  0  0  0  0
   -5.7425    0.5832    0.9379 C   0  0  0  0  0  0  0  0  0  0  0  0
   -6.0412    1.7500    0.7047 O   0  0  0  0  0  0  0  0  0  0  0  0
  -11.0499    0.3556    1.0840 H   0  0  0  0  0  0  0  0  0  0  0  0
  -10.1806    1.5743    2.0324 H   0  0  0  0  0  0  0  0  0  0  0  0
  -10.5087   -0.0255    2.7278 H   0  0  0  0  0  0  0  0  0  0  0  0
   -9.0331   -1.0727    0.9949 H   0  0  0  0  0  0  0  0  0  0  0  0
   -8.7080    0.5126    0.3055 H   0  0  0  0  0  0  0  0  0  0  0  0
   -7.6759    1.2493    2.4788 H   0  0  0  0  0  0  0  0  0  0  0  0
   -8.0017   -0.3376    3.1720 H   0  0  0  0  0  0  0  0  0  0  0  0
   -4.7512   -3.0832    1.5118 H   0  0  0  0  0  0  0  0  0  0  0  0
   -1.0134   -2.4993   -1.3220 H   0  0  0  0  0  0  0  0  0  0  0  0
    1.0790   -2.3433   -2.6130 H   0  0  0  0  0  0  0  0  0  0  0  0
    2.9724    1.2867   -0.9359 H   0  0  0  0  0  0  0  0  0  0  0  0
    3.6677    2.1806   -2.3093 H   0  0  0  0  0  0  0  0  0  0  0  0
    5.9429    1.5293   -1.6715 H   0  0  0  0  0  0  0  0  0  0  0  0
    5.1098    2.3250   -0.3108 H   0  0  0  0  0  0  0  0  0  0  0  0
    5.6577   -1.3770    1.9953 H   0  0  0  0  0  0  0  0  0  0  0  0
    7.4767   -1.3826    3.6447 H   0  0  0  0  0  0  0  0  0  0  0  0
    9.3059    1.9499    1.6372 H   0  0  0  0  0  0  0  0  0  0  0  0
    7.5223    1.9488   -0.0247 H   0  0  0  0  0  0  0  0  0  0  0  0
    5.4438   -1.9176   -0.2479 H   0  0  0  0  0  0  0  0  0  0  0  0
    6.1669   -1.0342   -1.6028 H   0  0  0  0  0  0  0  0  0  0  0  0
    3.1812   -1.2658   -0.9160 H   0  0  0  0  0  0  0  0  0  0  0  0
    4.0351   -2.0532   -2.2647 H   0  0  0  0  0  0  0  0  0  0  0  0
    0.6893    1.9564   -2.7084 H   0  0  0  0  0  0  0  0  0  0  0  0
   -1.3870    1.8075   -1.4253 H   0  0  0  0  0  0  0  0  0  0  0  0
   -3.4811    1.4471   -0.6625 H   0  0  0  0  0  0  0  0  0  0  0  0
  1  2  1  0
  2  3  1  0
  3  4  1  0
  4  5  1  0
  5  6  2  0
  5  7  1  0
  7  8  1  0
  8  9  1  0
  9 10  2  0
 10 11  1  0
 11 12  2  0
 12 13  1  0
 13 14  2  0
 14 15  1  0
 15 16  2  0
 15 17  2  0
 15 18  1  0
 18 19  1  0
 19 20  1  0
 20 21  1  0
 21 22  1  0
 22 23  2  0
 23 24  1  0
 24 25  2  0
 25 26  1  0
 25 27  1  0
 27 28  2  0
 21 29  1  0
 29 30  1  0
 14 31  1  0
 31 32  2  0
 10 33  1  0
 33 34  1  0
 34 35  1  0
 35 36  2  0
 35  4  1  0
 34  8  2  0
 32 11  1  0
 30 18  1  0
 28 22  1  0
  1 37  1  0
  1 38  1  0
  1 39  1  0
  2 40  1  0
  2 41  1  0
  3 42  1  0
  3 43  1  0
  7 44  1  0
 12 45  1  0
 13 46  1  0
 19 47  1  0
 19 48  1  0
 20 49  1  0
 20 50  1  0
 23 51  1  0
 24 52  1  0
 27 53  1  0
 28 54  1  0
 29 55  1  0
 29 56  1  0
 30 57  1  0
 30 58  1  0
 31 59  1  0
 32 60  1  0
 33 61  1  0
M  END
$$$$
