
     RDKit          3D

 55 58  0  0  0  0  0  0  0  0999 V2000
   -7.6156    3.7339   -1.7440 O   0  0  0  0  0  0  0  0  0  0  0  0
   -7.2140    2.6049   -1.9600 C   0  0  0  0  0  0  0  0  0  0  0  0
   -7.5977    1.9288   -3.0563 O   0  0  0  0  0  0  0  0  0  0  0  0
   -6.2855    1.8325   -1.0996 C   0  0  0  0  0  0  0  0  0  0  0  0
   -5.8990    0.5242   -1.4092 C   0  0  0  0  0  0  0  0  0  0  0  0
   -5.0232   -0.1642   -0.5637 C   0  0  0  0  0  0  0  0  0  0  0  0
   -4.5189    0.4426    0.5967 C   0  0  0  0  0  0  0  0  0  0  0  0
   -3.6050   -0.3237    1.5331 C   0  0  0  0  0  0  0  0  0  0  0  0
   -2.4675   -0.9533    0.8503 N   0  0  0  0  0  0  0  0  0  0  0  0
   -1.4756    0.0213    0.3709 C   0  0  0  0  0  0  0  0  0  0  0  0
   -0.1093   -0.0902    1.0508 C   0  0  0  0  0  0  0  0  0  0  0  0
    0.4785   -1.5032    0.8989 C   0  0  0  0  0  0  0  0  0  0  0  0
    1.6274   -1.7624    1.8940 C   0  0  0  0  0  0  0  0  0  0  0  0
    2.7315   -0.7998    1.8309 N   0  0  0  0  0  0  0  0  0  0  0  0
    3.4156   -0.7614    0.5303 C   0  0  2  0  0  0  0  0  0  0  0  0
    4.2372   -1.9223    0.0582 C   0  0  0  0  0  0  0  0  0  0  0  0
    4.9285   -0.6473    0.4773 C   0  0  1  0  0  0  0  0  0  0  0  0
    5.5590    0.2662   -0.5472 C   0  0  0  0  0  0  0  0  0  0  0  0
    5.3251    1.6527   -0.5127 C   0  0  0  0  0  0  0  0  0  0  0  0
    5.9026    2.5132   -1.4496 C   0  0  0  0  0  0  0  0  0  0  0  0
    6.7365    1.9997   -2.4427 C   0  0  0  0  0  0  0  0  0  0  0  0
    6.9925    0.6322   -2.4946 C   0  0  0  0  0  0  0  0  0  0  0  0
    6.4143   -0.2230   -1.5517 C   0  0  0  0  0  0  0  0  0  0  0  0
   -0.6179   -2.5784    1.0429 C   0  0  0  0  0  0  0  0  0  0  0  0
   -1.8956   -2.0238    1.6705 C   0  0  0  0  0  0  0  0  0  0  0  0
   -4.9122    1.7540    0.9003 C   0  0  0  0  0  0  0  0  0  0  0  0
   -5.7864    2.4455    0.0548 C   0  0  0  0  0  0  0  0  0  0  0  0
   -8.1912    2.5539   -3.5246 H   0  0  0  0  0  0  0  0  0  0  0  0
   -6.2713    0.0284   -2.3042 H   0  0  0  0  0  0  0  0  0  0  0  0
   -4.7243   -1.1793   -0.8147 H   0  0  0  0  0  0  0  0  0  0  0  0
   -4.2335   -1.0926    2.0030 H   0  0  0  0  0  0  0  0  0  0  0  0
   -3.2497    0.3234    2.3456 H   0  0  0  0  0  0  0  0  0  0  0  0
   -1.8299    1.0569    0.4647 H   0  0  0  0  0  0  0  0  0  0  0  0
   -1.3434   -0.1513   -0.7059 H   0  0  0  0  0  0  0  0  0  0  0  0
    0.5734    0.6465    0.6105 H   0  0  0  0  0  0  0  0  0  0  0  0
   -0.2092    0.1748    2.1117 H   0  0  0  0  0  0  0  0  0  0  0  0
    0.8806   -1.6010   -0.1189 H   0  0  0  0  0  0  0  0  0  0  0  0
    2.0208   -2.7757    1.7486 H   0  0  0  0  0  0  0  0  0  0  0  0
    1.2218   -1.7349    2.9120 H   0  0  0  0  0  0  0  0  0  0  0  0
    3.3904   -1.0175    2.5761 H   0  0  0  0  0  0  0  0  0  0  0  0
    2.8669   -0.2251   -0.2373 H   0  0  0  0  0  0  0  0  0  0  0  0
    4.1731   -2.1694   -0.9951 H   0  0  0  0  0  0  0  0  0  0  0  0
    4.3485   -2.7881    0.7008 H   0  0  0  0  0  0  0  0  0  0  0  0
    5.4549   -0.6875    1.4252 H   0  0  0  0  0  0  0  0  0  0  0  0
    4.6774    2.0679    0.2588 H   0  0  0  0  0  0  0  0  0  0  0  0
    5.7026    3.5804   -1.4013 H   0  0  0  0  0  0  0  0  0  0  0  0
    7.1849    2.6652   -3.1737 H   0  0  0  0  0  0  0  0  0  0  0  0
    7.6427    0.2266   -3.2676 H   0  0  0  0  0  0  0  0  0  0  0  0
    6.6270   -1.2872   -1.6067 H   0  0  0  0  0  0  0  0  0  0  0  0
   -0.8553   -2.9753    0.0466 H   0  0  0  0  0  0  0  0  0  0  0  0
   -0.2629   -3.4350    1.6290 H   0  0  0  0  0  0  0  0  0  0  0  0
   -1.6830   -1.6757    2.6898 H   0  0  0  0  0  0  0  0  0  0  0  0
   -2.6234   -2.8405    1.7552 H   0  0  0  0  0  0  0  0  0  0  0  0
   -4.5359    2.2492    1.7937 H   0  0  0  0  0  0  0  0  0  0  0  0
   -6.0772    3.4643    0.3026 H   0  0  0  0  0  0  0  0  0  0  0  0
  1  2  2  0
  2  3  1  0
  2  4  1  0
  4  5  2  0
  5  6  1  0
  6  7  2  0
  7  8  1  0
  8  9  1  0
  9 10  1  0
 10 11  1  0
 11 12  1  0
 12 13  1  0
 13 14  1  0
 14 15  1  0
 15 16  1  0
 16 17  1  0
 17 18  1  0
 18 19  2  0
 19 20  1  0
 20 21  2  0
 21 22  1  0
 22 23  2  0
 12 24  1  0
 24 25  1  0
  7 26  1  0
 26 27  2  0
 27  4  1  0
 25  9  1  0
 17 15  1  0
 23 18  1  0
  3 28  1  0
  5 29  1  0
  6 30  1  0
  8 31  1  0
  8 32  1  0
 10 33  1  0
 10 34  1  0
 11 35  1  0
 11 36  1  0
 12 37  1  0
 13 38  1  0
 13 39  1  0
 14 40  1  0
 15 41  1  6
 16 42  1  0
 16 43  1  0
 17 44  1  1
 19 45  1  0
 20 46  1  0
 21 47  1  0
 22 48  1  0
 23 49  1  0
 24 50  1  0
 24 51  1  0
 25 52  1  0
 25 53  1  0
 26 54  1  0
 27 55  1  0
M  END
$$$$
