
     RDKit          3D

 39 40  0  0  0  0  0  0  0  0999 V2000
   -2.8127   -2.4002   -0.4506 C   0  0  0  0  0  0  0  0  0  0  0  0
   -2.4326   -0.9215   -0.5435 C   0  0  2  0  0  0  0  0  0  0  0  0
   -1.4085   -0.6097    0.4396 N   0  0  0  0  0  0  0  0  0  0  0  0
   -0.3008    0.1468    0.1282 C   0  0  0  0  0  0  0  0  0  0  0  0
   -0.0314    0.5299   -1.0097 O   0  0  0  0  0  0  0  0  0  0  0  0
    0.5610    0.5247    1.3357 C   0  0  0  0  0  0  0  0  0  0  0  0
    1.9424    0.6684    0.9124 N   0  0  0  0  0  0  0  0  0  0  0  0
    2.8152   -0.3916    1.0437 C   0  0  0  0  0  0  0  0  0  0  0  0
    2.5420   -1.4166    1.6581 O   0  0  0  0  0  0  0  0  0  0  0  0
    4.1315   -0.2558    0.3605 C   0  0  0  0  0  0  0  0  0  0  0  0
    4.8211   -1.4238    0.0055 C   0  0  0  0  0  0  0  0  0  0  0  0
    6.0600   -1.3450   -0.6329 C   0  0  0  0  0  0  0  0  0  0  0  0
    6.6189   -0.0982   -0.9114 C   0  0  0  0  0  0  0  0  0  0  0  0
    5.9396    1.0632   -0.5442 C   0  0  0  0  0  0  0  0  0  0  0  0
    6.6417    2.5997   -0.8749 Cl  0  0  0  0  0  0  0  0  0  0  0  0
    4.7009    0.9947    0.0930 C   0  0  0  0  0  0  0  0  0  0  0  0
   -3.5992    0.0360   -0.3657 C   0  0  0  0  0  0  0  0  0  0  0  0
   -3.6104    1.2374   -1.0955 C   0  0  0  0  0  0  0  0  0  0  0  0
   -4.6475    2.1595   -0.9442 C   0  0  0  0  0  0  0  0  0  0  0  0
   -5.6851    1.8997   -0.0532 C   0  0  0  0  0  0  0  0  0  0  0  0
   -5.6824    0.7218    0.6903 C   0  0  0  0  0  0  0  0  0  0  0  0
   -4.6444   -0.2017    0.5405 C   0  0  0  0  0  0  0  0  0  0  0  0
   -3.6198   -2.6459   -1.1491 H   0  0  0  0  0  0  0  0  0  0  0  0
   -3.1334   -2.6831    0.5579 H   0  0  0  0  0  0  0  0  0  0  0  0
   -1.9493   -3.0295   -0.6957 H   0  0  0  0  0  0  0  0  0  0  0  0
   -2.0191   -0.7717   -1.5492 H   0  0  0  0  0  0  0  0  0  0  0  0
   -1.6448   -0.7465    1.4131 H   0  0  0  0  0  0  0  0  0  0  0  0
    0.2219    1.4968    1.7054 H   0  0  0  0  0  0  0  0  0  0  0  0
    0.4701   -0.2208    2.1308 H   0  0  0  0  0  0  0  0  0  0  0  0
    2.0789    1.2860    0.1202 H   0  0  0  0  0  0  0  0  0  0  0  0
    4.3899   -2.3996    0.2242 H   0  0  0  0  0  0  0  0  0  0  0  0
    6.5876   -2.2546   -0.9098 H   0  0  0  0  0  0  0  0  0  0  0  0
    7.5845   -0.0386   -1.4072 H   0  0  0  0  0  0  0  0  0  0  0  0
    4.2049    1.9119    0.3951 H   0  0  0  0  0  0  0  0  0  0  0  0
   -2.7992    1.4626   -1.7873 H   0  0  0  0  0  0  0  0  0  0  0  0
   -4.6415    3.0810   -1.5204 H   0  0  0  0  0  0  0  0  0  0  0  0
   -6.4930    2.6169    0.0650 H   0  0  0  0  0  0  0  0  0  0  0  0
   -6.4894    0.5221    1.3908 H   0  0  0  0  0  0  0  0  0  0  0  0
   -4.6676   -1.1050    1.1441 H   0  0  0  0  0  0  0  0  0  0  0  0
  1  2  1  0
  2  3  1  0
  3  4  1  0
  4  5  2  0
  4  6  1  0
  6  7  1  0
  7  8  1  0
  8  9  2  0
  8 10  1  0
 10 11  2  0
 11 12  1  0
 12 13  2  0
 13 14  1  0
 14 15  1  0
 14 16  2  0
  2 17  1  0
 17 18  2  0
 18 19  1  0
 19 20  2  0
 20 21  1  0
 21 22  2  0
 16 10  1  0
 22 17  1  0
  1 23  1  0
  1 24  1  0
  1 25  1  0
  2 26  1  6
  3 27  1  0
  6 28  1  0
  6 29  1  0
  7 30  1  0
 11 31  1  0
 12 32  1  0
 13 33  1  0
 16 34  1  0
 18 35  1  0
 19 36  1  0
 20 37  1  0
 21 38  1  0
 22 39  1  0
M  END
$$$$
