
     RDKit          3D

 27 29  0  0  0  0  0  0  0  0999 V2000
    5.9787   -0.3039   -0.2961 O   0  0  0  0  0  0  0  0  0  0  0  0
    4.9829    0.2458    0.1354 C   0  0  0  0  0  0  0  0  0  0  0  0
    5.0679    1.3113    0.9504 O   0  0  0  0  0  0  0  0  0  0  0  0
    3.5807   -0.1474   -0.1508 C   0  0  0  0  0  0  0  0  0  0  0  0
    3.3688   -1.2535   -0.9955 C   0  0  0  0  0  0  0  0  0  0  0  0
    2.0726   -1.6899   -1.3160 C   0  0  0  0  0  0  0  0  0  0  0  0
    0.9899   -0.9910   -0.7693 C   0  0  0  0  0  0  0  0  0  0  0  0
   -0.3618   -1.1778   -0.8981 N   0  0  0  0  0  0  0  0  0  0  0  0
   -0.8860   -0.2176   -0.1572 C   0  0  0  0  0  0  0  0  0  0  0  0
   -2.2940    0.0830    0.0879 C   0  0  0  0  0  0  0  0  0  0  0  0
   -2.6936    1.1486    0.9080 C   0  0  0  0  0  0  0  0  0  0  0  0
   -4.0495    1.4056    1.1192 C   0  0  0  0  0  0  0  0  0  0  0  0
   -4.5185    2.7179    2.1291 Cl  0  0  0  0  0  0  0  0  0  0  0  0
   -5.0258    0.6135    0.5230 C   0  0  0  0  0  0  0  0  0  0  0  0
   -4.6351   -0.4446   -0.2913 C   0  0  0  0  0  0  0  0  0  0  0  0
   -5.8311   -1.4328   -1.0354 Cl  0  0  0  0  0  0  0  0  0  0  0  0
   -3.2834   -0.7123   -0.5106 C   0  0  0  0  0  0  0  0  0  0  0  0
    0.0348    0.5956    0.4557 O   0  0  0  0  0  0  0  0  0  0  0  0
    1.2381    0.0920    0.0573 C   0  0  0  0  0  0  0  0  0  0  0  0
    2.5003    0.5599    0.4023 C   0  0  0  0  0  0  0  0  0  0  0  0
    6.0325    1.4566    1.0514 H   0  0  0  0  0  0  0  0  0  0  0  0
    4.2216   -1.7882   -1.4140 H   0  0  0  0  0  0  0  0  0  0  0  0
    1.9097   -2.5422   -1.9669 H   0  0  0  0  0  0  0  0  0  0  0  0
   -1.9507    1.7837    1.3865 H   0  0  0  0  0  0  0  0  0  0  0  0
   -6.0794    0.8184    0.6911 H   0  0  0  0  0  0  0  0  0  0  0  0
   -2.9953   -1.5450   -1.1513 H   0  0  0  0  0  0  0  0  0  0  0  0
    2.6257    1.4145    1.0553 H   0  0  0  0  0  0  0  0  0  0  0  0
  1  2  2  0
  2  3  1  0
  2  4  1  0
  4  5  2  0
  5  6  1  0
  6  7  2  0
  7  8  1  0
  8  9  2  0
  9 10  1  0
 10 11  2  0
 11 12  1  0
 12 13  1  0
 12 14  2  0
 14 15  1  0
 15 16  1  0
 15 17  2  0
  9 18  1  0
 18 19  1  0
 19 20  2  0
 20  4  1  0
 19  7  1  0
 17 10  1  0
  3 21  1  0
  5 22  1  0
  6 23  1  0
 11 24  1  0
 14 25  1  0
 17 26  1  0
 20 27  1  0
M  END
$$$$
