
     RDKit          3D

 31 33  0  0  0  0  0  0  0  0999 V2000
   -0.0905   -1.0659    4.4534 N   0  0  0  0  0  0  0  0  0  0  0  0
    0.0658   -0.9614    3.3064 C   0  0  0  0  0  0  0  0  0  0  0  0
    0.2358   -0.8066    1.9002 C   0  0  0  0  0  0  0  0  0  0  0  0
    1.0890   -1.6223    1.1894 N   0  0  0  0  0  0  0  0  0  0  0  0
    0.9797   -1.1737   -0.0460 C   0  0  0  0  0  0  0  0  0  0  0  0
    1.6481   -1.6432   -1.2568 C   0  0  0  0  0  0  0  0  0  0  0  0
    2.5492   -2.7179   -1.1784 C   0  0  0  0  0  0  0  0  0  0  0  0
    3.2049   -3.1906   -2.3183 C   0  0  0  0  0  0  0  0  0  0  0  0
    2.9667   -2.5927   -3.5540 C   0  0  0  0  0  0  0  0  0  0  0  0
    2.0749   -1.5263   -3.6429 C   0  0  0  0  0  0  0  0  0  0  0  0
    1.7804   -0.7873   -5.1693 Cl  0  0  0  0  0  0  0  0  0  0  0  0
    1.4178   -1.0509   -2.5073 C   0  0  0  0  0  0  0  0  0  0  0  0
    0.1158   -0.1216   -0.1892 O   0  0  0  0  0  0  0  0  0  0  0  0
   -0.3683    0.1180    1.0704 C   0  0  0  0  0  0  0  0  0  0  0  0
   -1.2590    1.1241    1.2037 N   0  0  0  0  0  0  0  0  0  0  0  0
   -1.6405    1.9983    0.1032 C   0  0  0  0  0  0  0  0  0  0  0  0
   -2.3452    3.1622    0.7963 C   0  0  0  0  0  0  0  0  0  0  0  0
   -2.9619    2.5101    2.0238 C   0  0  0  0  0  0  0  0  0  0  0  0
   -1.8958    1.5048    2.4550 C   0  0  0  0  0  0  0  0  0  0  0  0
    2.7455   -3.1955   -0.2186 H   0  0  0  0  0  0  0  0  0  0  0  0
    3.8994   -4.0237   -2.2396 H   0  0  0  0  0  0  0  0  0  0  0  0
    3.4771   -2.9610   -4.4402 H   0  0  0  0  0  0  0  0  0  0  0  0
    0.7259   -0.2171   -2.6024 H   0  0  0  0  0  0  0  0  0  0  0  0
   -2.3289    1.4741   -0.5695 H   0  0  0  0  0  0  0  0  0  0  0  0
   -0.7799    2.3560   -0.4724 H   0  0  0  0  0  0  0  0  0  0  0  0
   -1.6107    3.9162    1.1044 H   0  0  0  0  0  0  0  0  0  0  0  0
   -3.0851    3.6468    0.1534 H   0  0  0  0  0  0  0  0  0  0  0  0
   -3.2037    3.2282    2.8122 H   0  0  0  0  0  0  0  0  0  0  0  0
   -3.8827    1.9844    1.7433 H   0  0  0  0  0  0  0  0  0  0  0  0
   -1.1666    1.9794    3.1212 H   0  0  0  0  0  0  0  0  0  0  0  0
   -2.3573    0.6552    2.9685 H   0  0  0  0  0  0  0  0  0  0  0  0
  1  2  3  0
  2  3  1  0
  3  4  1  0
  4  5  2  0
  5  6  1  0
  6  7  2  0
  7  8  1  0
  8  9  2  0
  9 10  1  0
 10 11  1  0
 10 12  2  0
  5 13  1  0
 13 14  1  0
 14 15  1  0
 15 16  1  0
 16 17  1  0
 17 18  1  0
 18 19  1  0
 14  3  2  0
 19 15  1  0
 12  6  1  0
  7 20  1  0
  8 21  1  0
  9 22  1  0
 12 23  1  0
 16 24  1  0
 16 25  1  0
 17 26  1  0
 17 27  1  0
 18 28  1  0
 18 29  1  0
 19 30  1  0
 19 31  1  0
M  END
$$$$
