
     RDKit          3D

 67 69  0  0  0  0  0  0  0  0999 V2000
   -1.2958    2.1042   -2.8861 C   0  0  0  0  0  0  0  0  0  0  0  0
   -0.5567    2.3182   -1.5508 C   0  0  0  0  0  0  0  0  0  0  0  0
    0.6710    3.1863   -1.8598 C   0  0  0  0  0  0  0  0  0  0  0  0
   -0.1851    1.0006   -0.9486 N   0  0  0  0  0  0  0  0  0  0  0  0
    0.7306    1.0390    0.2187 C   0  0  0  0  0  0  0  0  0  0  0  0
    2.1859    0.7824   -0.1954 C   0  0  0  0  0  0  0  0  0  0  0  0
    2.4155   -0.6307   -0.7434 C   0  0  0  0  0  0  0  0  0  0  0  0
    3.8620   -0.8584   -1.1746 C   0  0  0  0  0  0  0  0  0  0  0  0
    4.7301   -0.6584   -0.0628 O   0  0  0  0  0  0  0  0  0  0  0  0
    6.0847   -0.9376   -0.3844 C   0  0  0  0  0  0  0  0  0  0  0  0
    7.0671   -0.6569    0.7610 C   0  0  0  0  0  0  0  0  0  0  0  0
    6.7573   -0.1366    1.8233 O   0  0  0  0  0  0  0  0  0  0  0  0
    8.3978   -1.0085    0.4656 N   0  0  0  0  0  0  0  0  0  0  0  0
    9.6086   -1.1255    1.5898 S   0  0  0  0  0  6  0  0  0  0  0  0
    9.8110    0.5493    2.1688 C   0  0  0  0  0  0  0  0  0  0  0  0
    9.1624   -1.9741    2.6696 O   0  0  0  0  0  0  0  0  0  0  0  0
   10.7858   -1.4712    0.8181 O   0  0  0  0  0  0  0  0  0  0  0  0
   -1.3456    0.2595   -0.5672 C   0  0  0  0  0  0  0  0  0  0  0  0
   -1.2916   -1.1351   -0.5100 C   0  0  0  0  0  0  0  0  0  0  0  0
   -2.3318   -1.9253   -0.1500 N   0  0  0  0  0  0  0  0  0  0  0  0
   -3.4923   -1.2838    0.1592 C   0  0  0  0  0  0  0  0  0  0  0  0
   -4.5848   -2.1858    0.5750 C   0  0  0  0  0  0  0  0  0  0  0  0
   -4.8863   -3.3314   -0.1865 C   0  0  0  0  0  0  0  0  0  0  0  0
   -5.9258   -4.1924    0.1759 C   0  0  0  0  0  0  0  0  0  0  0  0
   -6.6842   -3.9265    1.3142 C   0  0  0  0  0  0  0  0  0  0  0  0
   -6.3930   -2.8108    2.0960 C   0  0  0  0  0  0  0  0  0  0  0  0
   -5.3480   -1.9545    1.7348 C   0  0  0  0  0  0  0  0  0  0  0  0
   -3.5834    0.1192    0.0733 C   0  0  0  0  0  0  0  0  0  0  0  0
   -4.8170    0.9036    0.2789 C   0  0  0  0  0  0  0  0  0  0  0  0
   -6.0112    0.5989   -0.3997 C   0  0  0  0  0  0  0  0  0  0  0  0
   -7.1734    1.3459   -0.1878 C   0  0  0  0  0  0  0  0  0  0  0  0
   -7.1596    2.4230    0.6956 C   0  0  0  0  0  0  0  0  0  0  0  0
   -5.9835    2.7585    1.3613 C   0  0  0  0  0  0  0  0  0  0  0  0
   -4.8228    2.0086    1.1503 C   0  0  0  0  0  0  0  0  0  0  0  0
   -2.5017    0.8864   -0.2630 N   0  0  0  0  0  0  0  0  0  0  0  0
   -0.7075    1.4796   -3.5682 H   0  0  0  0  0  0  0  0  0  0  0  0
   -1.4875    3.0616   -3.3837 H   0  0  0  0  0  0  0  0  0  0  0  0
   -2.2682    1.6191   -2.7490 H   0  0  0  0  0  0  0  0  0  0  0  0
   -1.1905    2.8942   -0.8641 H   0  0  0  0  0  0  0  0  0  0  0  0
    0.3710    4.1257   -2.3379 H   0  0  0  0  0  0  0  0  0  0  0  0
    1.3621    2.6745   -2.5401 H   0  0  0  0  0  0  0  0  0  0  0  0
    1.2174    3.4601   -0.9517 H   0  0  0  0  0  0  0  0  0  0  0  0
    0.6547    2.0098    0.7248 H   0  0  0  0  0  0  0  0  0  0  0  0
    0.4700    0.2928    0.9833 H   0  0  0  0  0  0  0  0  0  0  0  0
    2.8166    0.9341    0.6893 H   0  0  0  0  0  0  0  0  0  0  0  0
    2.5195    1.5109   -0.9392 H   0  0  0  0  0  0  0  0  0  0  0  0
    2.1543   -1.3577    0.0362 H   0  0  0  0  0  0  0  0  0  0  0  0
    1.7651   -0.8145   -1.6059 H   0  0  0  0  0  0  0  0  0  0  0  0
    4.1319   -0.1649   -1.9794 H   0  0  0  0  0  0  0  0  0  0  0  0
    3.9717   -1.8844   -1.5433 H   0  0  0  0  0  0  0  0  0  0  0  0
    6.3942   -0.3214   -1.2371 H   0  0  0  0  0  0  0  0  0  0  0  0
    6.1788   -1.9970   -0.6541 H   0  0  0  0  0  0  0  0  0  0  0  0
    8.6607   -1.3982   -0.4344 H   0  0  0  0  0  0  0  0  0  0  0  0
    9.9536    1.2047    1.3083 H   0  0  0  0  0  0  0  0  0  0  0  0
    8.9381    0.8437    2.7525 H   0  0  0  0  0  0  0  0  0  0  0  0
   10.7019    0.5768    2.8026 H   0  0  0  0  0  0  0  0  0  0  0  0
   -0.3831   -1.6657   -0.7685 H   0  0  0  0  0  0  0  0  0  0  0  0
   -4.2989   -3.5577   -1.0770 H   0  0  0  0  0  0  0  0  0  0  0  0
   -6.1392   -5.0680   -0.4313 H   0  0  0  0  0  0  0  0  0  0  0  0
   -7.4948   -4.5936    1.5959 H   0  0  0  0  0  0  0  0  0  0  0  0
   -6.9794   -2.6036    2.9891 H   0  0  0  0  0  0  0  0  0  0  0  0
   -5.1370   -1.0978    2.3737 H   0  0  0  0  0  0  0  0  0  0  0  0
   -6.0469   -0.2288   -1.1066 H   0  0  0  0  0  0  0  0  0  0  0  0
   -8.0871    1.0847   -0.7159 H   0  0  0  0  0  0  0  0  0  0  0  0
   -8.0629    3.0042    0.8599 H   0  0  0  0  0  0  0  0  0  0  0  0
   -5.9668    3.6073    2.0417 H   0  0  0  0  0  0  0  0  0  0  0  0
   -3.9080    2.2894    1.6709 H   0  0  0  0  0  0  0  0  0  0  0  0
  1  2  1  0
  2  3  1  0
  2  4  1  0
  4  5  1  0
  5  6  1  0
  6  7  1  0
  7  8  1  0
  8  9  1  0
  9 10  1  0
 10 11  1  0
 11 12  2  0
 11 13  1  0
 13 14  1  0
 14 15  1  0
 14 16  2  0
 14 17  2  0
  4 18  1  0
 18 19  2  0
 19 20  1  0
 20 21  2  0
 21 22  1  0
 22 23  2  0
 23 24  1  0
 24 25  2  0
 25 26  1  0
 26 27  2  0
 21 28  1  0
 28 29  1  0
 29 30  2  0
 30 31  1  0
 31 32  2  0
 32 33  1  0
 33 34  2  0
 28 35  2  0
 35 18  1  0
 27 22  1  0
 34 29  1  0
  1 36  1  0
  1 37  1  0
  1 38  1  0
  2 39  1  0
  3 40  1  0
  3 41  1  0
  3 42  1  0
  5 43  1  0
  5 44  1  0
  6 45  1  0
  6 46  1  0
  7 47  1  0
  7 48  1  0
  8 49  1  0
  8 50  1  0
 10 51  1  0
 10 52  1  0
 13 53  1  0
 15 54  1  0
 15 55  1  0
 15 56  1  0
 19 57  1  0
 23 58  1  0
 24 59  1  0
 25 60  1  0
 26 61  1  0
 27 62  1  0
 30 63  1  0
 31 64  1  0
 32 65  1  0
 33 66  1  0
 34 67  1  0
M  END
$$$$
