
     RDKit          3D

 47 50  0  0  0  0  0  0  0  0999 V2000
   -7.4158   -0.6707   -1.4804 C   0  0  0  0  0  0  0  0  0  0  0  0
   -6.3598    0.2053   -0.9798 N   0  0  0  0  0  0  0  0  0  0  0  0
   -6.3482    0.2666    0.4969 C   0  0  0  0  0  0  0  0  0  0  0  0
   -5.1620   -0.4415    1.1757 C   0  0  0  0  0  0  0  0  0  0  0  0
   -3.8730    0.0103    0.6514 N   0  0  0  0  0  0  0  0  0  0  0  0
   -2.7275   -0.2322    1.4146 C   0  0  0  0  0  0  0  0  0  0  0  0
   -2.8028   -0.8889    2.4543 O   0  0  0  0  0  0  0  0  0  0  0  0
   -1.4689    0.3320    0.9473 C   0  0  0  0  0  0  0  0  0  0  0  0
   -1.1928    1.5981    0.4690 C   0  0  0  0  0  0  0  0  0  0  0  0
    0.1819    1.7607    0.1274 C   0  0  0  0  0  0  0  0  0  0  0  0
    0.9306    0.6257    0.3783 C   0  0  0  0  0  0  0  0  0  0  0  0
    2.3648    0.4056    0.1511 C   0  0  0  0  0  0  0  0  0  0  0  0
    2.9564    0.8209   -1.0417 C   0  0  0  0  0  0  0  0  0  0  0  0
    4.3247    0.6260   -1.2696 C   0  0  0  0  0  0  0  0  0  0  0  0
    5.1665    0.0094   -0.3091 C   0  0  0  0  0  0  0  0  0  0  0  0
    6.5662   -0.2261   -0.4626 C   0  0  0  0  0  0  0  0  0  0  0  0
    7.2827    0.1700   -1.6989 C   0  0  0  0  0  0  0  0  0  0  0  0
    8.4896   -0.0261   -1.8273 O   0  0  0  0  0  0  0  0  0  0  0  0
    7.3022   -0.8443    0.5635 C   0  0  0  0  0  0  0  0  0  0  0  0
    8.6462   -1.1005    0.4867 O   0  0  0  0  0  0  0  0  0  0  0  0
    6.6831   -1.2369    1.7404 C   0  0  0  0  0  0  0  0  0  0  0  0
    5.3195   -1.0172    1.9077 C   0  0  0  0  0  0  0  0  0  0  0  0
    4.5553   -0.4028    0.9040 C   0  0  0  0  0  0  0  0  0  0  0  0
    3.1792   -0.1999    1.1155 C   0  0  0  0  0  0  0  0  0  0  0  0
   -0.0536   -0.6275    1.0149 S   0  0  0  0  0  0  0  0  0  0  0  0
   -3.8626    0.4141   -0.7602 C   0  0  0  0  0  0  0  0  0  0  0  0
   -5.0508   -0.1824   -1.5385 C   0  0  0  0  0  0  0  0  0  0  0  0
   -7.4298   -0.6711   -2.5760 H   0  0  0  0  0  0  0  0  0  0  0  0
   -7.2922   -1.7034   -1.1351 H   0  0  0  0  0  0  0  0  0  0  0  0
   -8.3986   -0.3123   -1.1546 H   0  0  0  0  0  0  0  0  0  0  0  0
   -7.2873   -0.1048    0.9255 H   0  0  0  0  0  0  0  0  0  0  0  0
   -6.3002    1.3305    0.7631 H   0  0  0  0  0  0  0  0  0  0  0  0
   -5.1955   -0.2659    2.2570 H   0  0  0  0  0  0  0  0  0  0  0  0
   -5.2222   -1.5251    1.0154 H   0  0  0  0  0  0  0  0  0  0  0  0
   -1.9377    2.3797    0.3809 H   0  0  0  0  0  0  0  0  0  0  0  0
    0.6044    2.6791   -0.2629 H   0  0  0  0  0  0  0  0  0  0  0  0
    2.3569    1.2919   -1.8184 H   0  0  0  0  0  0  0  0  0  0  0  0
    4.7076    0.9721   -2.2253 H   0  0  0  0  0  0  0  0  0  0  0  0
    6.7170    0.6464   -2.5105 H   0  0  0  0  0  0  0  0  0  0  0  0
    8.9727   -0.7795   -0.3844 H   0  0  0  0  0  0  0  0  0  0  0  0
    7.2618   -1.7145    2.5269 H   0  0  0  0  0  0  0  0  0  0  0  0
    4.8552   -1.3354    2.8401 H   0  0  0  0  0  0  0  0  0  0  0  0
    2.7366   -0.5136    2.0607 H   0  0  0  0  0  0  0  0  0  0  0  0
   -3.9115    1.5086   -0.7880 H   0  0  0  0  0  0  0  0  0  0  0  0
   -2.9286    0.0967   -1.2343 H   0  0  0  0  0  0  0  0  0  0  0  0
   -4.9961    0.1484   -2.5822 H   0  0  0  0  0  0  0  0  0  0  0  0
   -4.9434   -1.2758   -1.5368 H   0  0  0  0  0  0  0  0  0  0  0  0
  1  2  1  0
  2  3  1  0
  3  4  1  0
  4  5  1  0
  5  6  1  0
  6  7  2  0
  6  8  1  0
  8  9  2  0
  9 10  1  0
 10 11  2  0
 11 12  1  0
 12 13  2  0
 13 14  1  0
 14 15  2  0
 15 16  1  0
 16 17  1  0
 17 18  2  0
 16 19  2  0
 19 20  1  0
 19 21  1  0
 21 22  2  0
 22 23  1  0
 23 24  2  0
 11 25  1  0
  5 26  1  0
 26 27  1  0
 27  2  1  0
 25  8  1  0
 24 12  1  0
 23 15  1  0
  1 28  1  0
  1 29  1  0
  1 30  1  0
  3 31  1  0
  3 32  1  0
  4 33  1  0
  4 34  1  0
  9 35  1  0
 10 36  1  0
 13 37  1  0
 14 38  1  0
 17 39  1  0
 20 40  1  0
 21 41  1  0
 22 42  1  0
 24 43  1  0
 26 44  1  0
 26 45  1  0
 27 46  1  0
 27 47  1  0
M  END
$$$$
