
     RDKit          3D

 46 48  0  0  0  0  0  0  0  0999 V2000
    9.2536   -0.4303   -1.6181 C   0  0  0  0  0  0  0  0  0  0  0  0
    8.5026   -1.3983   -0.8963 O   0  0  0  0  0  0  0  0  0  0  0  0
    7.1846   -1.1154   -0.6692 C   0  0  0  0  0  0  0  0  0  0  0  0
    6.5066    0.0301   -1.0822 C   0  0  0  0  0  0  0  0  0  0  0  0
    5.1480    0.1921   -0.7800 C   0  0  0  0  0  0  0  0  0  0  0  0
    4.4521   -0.7809   -0.0519 C   0  0  0  0  0  0  0  0  0  0  0  0
    3.0216   -0.5789    0.2176 C   0  0  0  0  0  0  0  0  0  0  0  0
    2.4213   -0.9573    1.3573 C   0  0  0  0  0  0  0  0  0  0  0  0
    0.9660   -0.7853    1.6211 C   0  0  0  0  0  0  0  0  0  0  0  0
    0.3899   -1.6617    2.2525 O   0  0  0  0  0  0  0  0  0  0  0  0
    0.4612    0.4017    1.1632 N   0  0  0  0  0  0  0  0  0  0  0  0
   -0.8362    0.8341    1.2447 C   0  0  0  0  0  0  0  0  0  0  0  0
   -1.1741    2.0272    0.8137 N   0  0  0  0  0  0  0  0  0  0  0  0
   -2.5315    2.2127    0.9928 C   0  0  0  0  0  0  0  0  0  0  0  0
   -3.2108    1.1520    1.5586 C   0  0  0  0  0  0  0  0  0  0  0  0
   -4.6615    1.0206    1.8942 C   0  0  0  0  0  0  0  0  0  0  0  0
   -5.5425    0.9663    0.6651 C   0  0  0  0  0  0  0  0  0  0  0  0
   -6.2623    2.0954    0.2521 C   0  0  0  0  0  0  0  0  0  0  0  0
   -7.0583    2.0479   -0.8922 C   0  0  0  0  0  0  0  0  0  0  0  0
   -7.1433    0.8721   -1.6375 C   0  0  0  0  0  0  0  0  0  0  0  0
   -6.4369   -0.2733   -1.2428 C   0  0  0  0  0  0  0  0  0  0  0  0
   -6.5064   -1.5386   -2.0622 C   0  0  0  0  0  0  0  0  0  0  0  0
   -6.3785   -2.6690   -1.3126 F   0  0  0  0  0  0  0  0  0  0  0  0
   -5.5261   -1.6008   -3.0048 F   0  0  0  0  0  0  0  0  0  0  0  0
   -7.6825   -1.6748   -2.7375 F   0  0  0  0  0  0  0  0  0  0  0  0
   -5.6321   -0.2122   -0.0932 C   0  0  0  0  0  0  0  0  0  0  0  0
   -2.1007   -0.1170    1.8717 S   0  0  0  0  0  0  0  0  0  0  0  0
    5.1347   -1.9357    0.3446 C   0  0  0  0  0  0  0  0  0  0  0  0
    6.4906   -2.0958    0.0417 C   0  0  0  0  0  0  0  0  0  0  0  0
    8.8552   -0.2953   -2.6291 H   0  0  0  0  0  0  0  0  0  0  0  0
   10.2781   -0.8034   -1.7112 H   0  0  0  0  0  0  0  0  0  0  0  0
    9.2936    0.5214   -1.0779 H   0  0  0  0  0  0  0  0  0  0  0  0
    7.0011    0.8167   -1.6422 H   0  0  0  0  0  0  0  0  0  0  0  0
    4.6435    1.0955   -1.1165 H   0  0  0  0  0  0  0  0  0  0  0  0
    2.4627   -0.1002   -0.5828 H   0  0  0  0  0  0  0  0  0  0  0  0
    2.9497   -1.4800    2.1482 H   0  0  0  0  0  0  0  0  0  0  0  0
    1.0767    1.0913    0.7594 H   0  0  0  0  0  0  0  0  0  0  0  0
   -2.9806    3.1501    0.6865 H   0  0  0  0  0  0  0  0  0  0  0  0
   -4.9582    1.8692    2.5245 H   0  0  0  0  0  0  0  0  0  0  0  0
   -4.8534    0.1272    2.5027 H   0  0  0  0  0  0  0  0  0  0  0  0
   -6.2068    3.0230    0.8182 H   0  0  0  0  0  0  0  0  0  0  0  0
   -7.6116    2.9302   -1.2056 H   0  0  0  0  0  0  0  0  0  0  0  0
   -7.7653    0.8514   -2.5314 H   0  0  0  0  0  0  0  0  0  0  0  0
   -5.0673   -1.0938    0.2123 H   0  0  0  0  0  0  0  0  0  0  0  0
    4.6250   -2.7323    0.8811 H   0  0  0  0  0  0  0  0  0  0  0  0
    7.0085   -2.9980    0.3586 H   0  0  0  0  0  0  0  0  0  0  0  0
  1  2  1  0
  2  3  1  0
  3  4  2  0
  4  5  1  0
  5  6  2  0
  6  7  1  0
  7  8  2  0
  8  9  1  0
  9 10  2  0
  9 11  1  0
 11 12  1  0
 12 13  2  0
 13 14  1  0
 14 15  2  0
 15 16  1  0
 16 17  1  0
 17 18  2  0
 18 19  1  0
 19 20  2  0
 20 21  1  0
 21 22  1  0
 22 23  1  0
 22 24  1  0
 22 25  1  0
 21 26  2  0
 15 27  1  0
  6 28  1  0
 28 29  2  0
 29  3  1  0
 27 12  1  0
 26 17  1  0
  1 30  1  0
  1 31  1  0
  1 32  1  0
  4 33  1  0
  5 34  1  0
  7 35  1  0
  8 36  1  0
 11 37  1  0
 14 38  1  0
 16 39  1  0
 16 40  1  0
 18 41  1  0
 19 42  1  0
 20 43  1  0
 26 44  1  0
 28 45  1  0
 29 46  1  0
M  END
$$$$
