
     RDKit          3D

 48 49  0  0  0  0  0  0  0  0999 V2000
    4.5907    3.7832   -0.0408 N   0  0  0  0  0  0  0  0  0  0  0  0
    3.8128    3.1214    0.5042 C   0  0  0  0  0  0  0  0  0  0  0  0
    2.8535    2.4245    1.1218 N   0  0  0  0  0  0  0  0  0  0  0  0
    2.6297    1.1649    0.5402 C   0  0  0  0  0  0  0  0  0  0  0  0
    3.5045    0.2237    0.3771 N   0  0  0  0  0  0  0  0  0  0  0  0
    4.8112    0.3225    0.8725 C   0  0  0  0  0  0  0  0  0  0  0  0
    5.0714    0.2226    2.2373 C   0  0  0  0  0  0  0  0  0  0  0  0
    6.3868    0.2825    2.6626 C   0  0  0  0  0  0  0  0  0  0  0  0
    7.4394    0.4215    1.8293 N   0  0  0  0  0  0  0  0  0  0  0  0
    7.1603    0.4983    0.5101 C   0  0  0  0  0  0  0  0  0  0  0  0
    5.8794    0.4425   -0.0107 C   0  0  0  0  0  0  0  0  0  0  0  0
    1.3200    1.0201    0.1930 N   0  0  0  0  0  0  0  0  0  0  0  0
    0.8321   -0.1395   -0.5355 C   0  0  0  0  0  0  0  0  0  0  0  0
    0.5070   -1.2751    0.4345 C   0  0  0  0  0  0  0  0  0  0  0  0
    0.0921   -2.5741   -0.2625 C   0  0  0  0  0  0  0  0  0  0  0  0
   -1.1378   -2.4851   -1.1710 C   0  0  0  0  0  0  0  0  0  0  0  0
   -2.3947   -2.0037   -0.4486 C   0  0  0  0  0  0  0  0  0  0  0  0
   -3.6265   -2.0871   -1.3499 C   0  0  0  0  0  0  0  0  0  0  0  0
   -4.7827   -1.6100   -0.6618 O   0  0  0  0  0  0  0  0  0  0  0  0
   -5.0771   -0.2767   -0.7049 C   0  0  0  0  0  0  0  0  0  0  0  0
   -4.3225    0.7204   -1.3252 C   0  0  0  0  0  0  0  0  0  0  0  0
   -4.7484    2.0533   -1.2838 C   0  0  0  0  0  0  0  0  0  0  0  0
   -5.9265    2.3891   -0.6200 C   0  0  0  0  0  0  0  0  0  0  0  0
   -6.4421    4.0290   -0.5700 Cl  0  0  0  0  0  0  0  0  0  0  0  0
   -6.6846    1.4036    0.0040 C   0  0  0  0  0  0  0  0  0  0  0  0
   -6.2570    0.0746   -0.0404 C   0  0  0  0  0  0  0  0  0  0  0  0
    2.0228    2.9264    1.4259 H   0  0  0  0  0  0  0  0  0  0  0  0
    4.2654    0.0974    2.9498 H   0  0  0  0  0  0  0  0  0  0  0  0
    6.6370    0.2141    3.7171 H   0  0  0  0  0  0  0  0  0  0  0  0
    8.0229    0.6069   -0.1407 H   0  0  0  0  0  0  0  0  0  0  0  0
    5.7133    0.5007   -1.0795 H   0  0  0  0  0  0  0  0  0  0  0  0
    0.8042    1.8705    0.0183 H   0  0  0  0  0  0  0  0  0  0  0  0
    1.5578   -0.4597   -1.2922 H   0  0  0  0  0  0  0  0  0  0  0  0
   -0.0747    0.1574   -1.0735 H   0  0  0  0  0  0  0  0  0  0  0  0
    1.3849   -1.4932    1.0556 H   0  0  0  0  0  0  0  0  0  0  0  0
   -0.2754   -0.9536    1.1324 H   0  0  0  0  0  0  0  0  0  0  0  0
   -0.0923   -3.3340    0.5073 H   0  0  0  0  0  0  0  0  0  0  0  0
    0.9367   -2.9411   -0.8591 H   0  0  0  0  0  0  0  0  0  0  0  0
   -0.9273   -1.8291   -2.0237 H   0  0  0  0  0  0  0  0  0  0  0  0
   -1.3221   -3.4828   -1.5891 H   0  0  0  0  0  0  0  0  0  0  0  0
   -2.2615   -0.9744   -0.0993 H   0  0  0  0  0  0  0  0  0  0  0  0
   -2.5700   -2.6052    0.4520 H   0  0  0  0  0  0  0  0  0  0  0  0
   -3.4838   -1.5913   -2.3166 H   0  0  0  0  0  0  0  0  0  0  0  0
   -3.8211   -3.1408   -1.5832 H   0  0  0  0  0  0  0  0  0  0  0  0
   -3.3978    0.5013   -1.8468 H   0  0  0  0  0  0  0  0  0  0  0  0
   -4.1569    2.8231   -1.7723 H   0  0  0  0  0  0  0  0  0  0  0  0
   -7.6041    1.6574    0.5239 H   0  0  0  0  0  0  0  0  0  0  0  0
   -6.8494   -0.6966    0.4471 H   0  0  0  0  0  0  0  0  0  0  0  0
  1  2  3  0
  2  3  1  0
  3  4  1  0
  4  5  2  0
  5  6  1  0
  6  7  2  0
  7  8  1  0
  8  9  2  0
  9 10  1  0
 10 11  2  0
  4 12  1  0
 12 13  1  0
 13 14  1  0
 14 15  1  0
 15 16  1  0
 16 17  1  0
 17 18  1  0
 18 19  1  0
 19 20  1  0
 20 21  2  0
 21 22  1  0
 22 23  2  0
 23 24  1  0
 23 25  1  0
 25 26  2  0
 11  6  1  0
 26 20  1  0
  3 27  1  0
  7 28  1  0
  8 29  1  0
 10 30  1  0
 11 31  1  0
 12 32  1  0
 13 33  1  0
 13 34  1  0
 14 35  1  0
 14 36  1  0
 15 37  1  0
 15 38  1  0
 16 39  1  0
 16 40  1  0
 17 41  1  0
 17 42  1  0
 18 43  1  0
 18 44  1  0
 21 45  1  0
 22 46  1  0
 25 47  1  0
 26 48  1  0
M  END
$$$$
