
     RDKit          3D

 37 38  0  0  0  0  0  0  0  0999 V2000
    1.3966    0.5828   -3.0845 O   0  0  0  0  0  0  0  0  0  0  0  0
    1.6389   -0.3875   -2.3128 C   0  0  0  0  0  0  0  0  0  0  0  0
    1.4731   -1.6246   -2.5364 O   0  0  0  0  0  1  0  0  0  0  0  0
    2.2142   -0.0502   -0.9804 C   0  0  0  0  0  0  0  0  0  0  0  0
    3.6089    0.0876   -0.8525 C   0  0  0  0  0  0  0  0  0  0  0  0
    4.6367   -0.0878   -2.2495 Cl  0  0  0  0  0  0  0  0  0  0  0  0
    4.1803    0.3469    0.4052 C   0  0  0  0  0  0  0  0  0  0  0  0
    5.9118    0.5174    0.5651 Cl  0  0  0  0  0  0  0  0  0  0  0  0
    3.3595    0.4494    1.5416 C   0  0  0  0  0  0  0  0  0  0  0  0
    4.0749    0.7344    3.1099 Cl  0  0  0  0  0  0  0  0  0  0  0  0
    1.9647    0.3102    1.4182 C   0  0  0  0  0  0  0  0  0  0  0  0
    0.9593    0.3822    2.8453 Cl  0  0  0  0  0  0  0  0  0  0  0  0
    1.3752    0.0799    0.1533 C   0  0  0  0  0  0  0  0  0  0  0  0
   -0.1223   -0.0068    0.0343 C   0  0  0  0  0  0  0  0  0  0  0  0
   -0.7542   -1.2133    0.0319 C   0  0  0  0  0  0  0  0  0  0  0  0
   -0.0080   -2.4751    0.0556 C   0  0  0  0  0  0  0  0  0  0  0  0
   -0.6044   -3.6728   -0.0157 C   0  0  0  0  0  0  0  0  0  0  0  0
    0.5029   -5.4134   -0.0060 I   0  0  0  0  0  0  0  0  0  0  0  0
   -2.0942   -3.7643   -0.0895 C   0  0  0  0  0  0  0  0  0  0  0  0
   -2.6631   -4.8546   -0.1492 O   0  0  0  0  0  0  0  0  0  0  0  0
   -2.8626   -2.4761   -0.0404 C   0  0  0  0  0  0  0  0  0  0  0  0
   -4.9432   -2.6293   -0.0325 I   0  0  0  0  0  0  0  0  0  0  0  0
   -2.2230   -1.2915    0.0299 C   0  0  0  0  0  0  0  0  0  0  0  0
   -2.9655   -0.1254    0.1546 O   0  0  0  0  0  0  0  0  0  0  0  0
   -2.3568    1.1030    0.1645 C   0  0  0  0  0  0  0  0  0  0  0  0
   -3.1700    2.2596    0.3058 C   0  0  0  0  0  0  0  0  0  0  0  0
   -5.3120    1.9324    0.5275 I   0  0  0  0  0  0  0  0  0  0  0  0
   -2.6626    3.5935    0.3273 C   0  0  0  0  0  0  0  0  0  0  0  0
   -3.3916    4.6352    0.4981 O   0  0  0  0  0  1  0  0  0  0  0  0
   -1.2559    3.6415    0.1384 C   0  0  0  0  0  0  0  0  0  0  0  0
   -0.1946    5.5057    0.0816 I   0  0  0  0  0  0  0  0  0  0  0  0
   -0.4384    2.4999   -0.0053 C   0  0  0  0  0  0  0  0  0  0  0  0
   -0.9785    1.2138    0.0451 C   0  0  0  0  0  0  0  0  0  0  0  0
    0.0000    0.0000    0.0000 Na  0  0  0  0  0 15  0  0  0  0  0  0
    0.0000    0.0000    0.0000 Na  0  0  0  0  0 15  0  0  0  0  0  0
    1.0761   -2.4401    0.0767 H   0  0  0  0  0  0  0  0  0  0  0  0
    0.6276    2.6375   -0.1551 H   0  0  0  0  0  0  0  0  0  0  0  0
  1  2  2  0
  2  3  1  0
  2  4  1  0
  4  5  2  0
  5  6  1  0
  5  7  1  0
  7  8  1  0
  7  9  2  0
  9 10  1  0
  9 11  1  0
 11 12  1  0
 11 13  2  0
 13 14  1  0
 14 15  2  0
 15 16  1  0
 16 17  2  0
 17 18  1  0
 17 19  1  0
 19 20  2  0
 19 21  1  0
 21 22  1  0
 21 23  2  0
 23 24  1  0
 24 25  1  0
 25 26  2  0
 26 27  1  0
 26 28  1  0
 28 29  1  0
 28 30  2  0
 30 31  1  0
 30 32  1  0
 32 33  2  0
 13  4  1  0
 33 14  1  0
 23 15  1  0
 33 25  1  0
 16 36  1  0
 32 37  1  0
M  CHG  4   3  -1  29  -1  34   1  35   1
M  END
$$$$
