
     RDKit          3D

 60 62  0  0  0  0  0  0  0  0999 V2000
    1.2313   -4.2062    0.9283 C   0  0  0  0  0  0  0  0  0  0  0  0
    2.2671   -3.2300    0.8828 O   0  0  0  0  0  0  0  0  0  0  0  0
    1.8446   -1.9976    0.4215 C   0  0  0  0  0  0  0  0  0  0  0  0
    0.5501   -1.8532    0.0548 N   0  0  0  0  0  0  0  0  0  0  0  0
    0.1696   -0.6321   -0.3702 C   0  0  0  0  0  0  0  0  0  0  0  0
   -1.1356   -0.4124   -0.7583 O   0  0  0  0  0  0  0  0  0  0  0  0
   -1.9598   -1.5706   -0.6342 C   0  0  0  0  0  0  0  0  0  0  0  0
   -3.3751   -1.1990   -1.0367 C   0  0  0  0  0  0  0  0  0  0  0  0
   -3.9138   -1.7951   -2.1907 C   0  0  0  0  0  0  0  0  0  0  0  0
   -5.1990   -1.4857   -2.6219 C   0  0  0  0  0  0  0  0  0  0  0  0
   -5.9618   -0.5641   -1.9123 C   0  0  0  0  0  0  0  0  0  0  0  0
   -5.4601    0.0607   -0.7564 C   0  0  0  0  0  0  0  0  0  0  0  0
   -6.3099    1.0527   -0.0790 C   0  0  0  0  0  0  0  0  0  0  0  0
   -7.3786    0.6459    0.7347 C   0  0  0  0  0  0  0  0  0  0  0  0
   -8.1888    1.5879    1.3728 C   0  0  0  0  0  0  0  0  0  0  0  0
   -7.9425    2.9488    1.2028 C   0  0  0  0  0  0  0  0  0  0  0  0
   -6.8879    3.3693    0.3948 C   0  0  0  0  0  0  0  0  0  0  0  0
   -6.0780    2.4272   -0.2430 C   0  0  0  0  0  0  0  0  0  0  0  0
   -4.1597   -0.2754   -0.2972 C   0  0  0  0  0  0  0  0  0  0  0  0
   -3.5946    0.3969    0.9336 C   0  0  0  0  0  0  0  0  0  0  0  0
    1.0187    0.4568   -0.4440 C   0  0  0  0  0  0  0  0  0  0  0  0
    2.3447    0.2827   -0.0636 C   0  0  0  0  0  0  0  0  0  0  0  0
    2.7923   -0.9739    0.3666 C   0  0  0  0  0  0  0  0  0  0  0  0
    4.2167   -1.1753    0.8206 C   0  0  0  0  0  0  0  0  0  0  0  0
    5.1785   -0.5514   -0.1014 N   0  0  0  0  0  0  0  0  0  0  0  0
    6.5567   -0.7426    0.3881 C   0  0  0  0  0  0  0  0  0  0  0  0
    7.5648   -0.0456   -0.5407 C   0  0  0  0  0  0  0  0  0  0  0  0
    7.3007    1.3789   -0.6419 N   0  0  0  0  0  0  0  0  0  0  0  0
    7.7861    2.2501    0.3069 C   0  0  0  0  0  0  0  0  0  0  0  0
    7.2535    3.6518    0.1799 C   0  0  0  0  0  0  0  0  0  0  0  0
    8.5738    1.9284    1.1905 O   0  0  0  0  0  0  0  0  0  0  0  0
    0.8344   -4.4111   -0.0721 H   0  0  0  0  0  0  0  0  0  0  0  0
    0.4328   -3.9066    1.6160 H   0  0  0  0  0  0  0  0  0  0  0  0
    1.6665   -5.1351    1.3093 H   0  0  0  0  0  0  0  0  0  0  0  0
   -1.5827   -2.3643   -1.2926 H   0  0  0  0  0  0  0  0  0  0  0  0
   -1.9720   -1.9550    0.3938 H   0  0  0  0  0  0  0  0  0  0  0  0
   -3.3255   -2.5049   -2.7690 H   0  0  0  0  0  0  0  0  0  0  0  0
   -5.6021   -1.9515   -3.5169 H   0  0  0  0  0  0  0  0  0  0  0  0
   -6.9591   -0.3163   -2.2720 H   0  0  0  0  0  0  0  0  0  0  0  0
   -7.5794   -0.4138    0.8776 H   0  0  0  0  0  0  0  0  0  0  0  0
   -9.0109    1.2579    2.0024 H   0  0  0  0  0  0  0  0  0  0  0  0
   -8.5729    3.6818    1.6993 H   0  0  0  0  0  0  0  0  0  0  0  0
   -6.6952    4.4302    0.2590 H   0  0  0  0  0  0  0  0  0  0  0  0
   -5.2595    2.7673   -0.8743 H   0  0  0  0  0  0  0  0  0  0  0  0
   -4.3749    0.6238    1.6666 H   0  0  0  0  0  0  0  0  0  0  0  0
   -2.8834   -0.2444    1.4609 H   0  0  0  0  0  0  0  0  0  0  0  0
   -3.0902    1.3262    0.6511 H   0  0  0  0  0  0  0  0  0  0  0  0
    0.6549    1.4190   -0.7858 H   0  0  0  0  0  0  0  0  0  0  0  0
    3.0302    1.1261   -0.1008 H   0  0  0  0  0  0  0  0  0  0  0  0
    4.3119   -0.7372    1.8219 H   0  0  0  0  0  0  0  0  0  0  0  0
    4.4523   -2.2423    0.8998 H   0  0  0  0  0  0  0  0  0  0  0  0
    5.0835   -1.0059   -1.0103 H   0  0  0  0  0  0  0  0  0  0  0  0
    6.6499   -0.3258    1.3980 H   0  0  0  0  0  0  0  0  0  0  0  0
    6.7963   -1.8112    0.4357 H   0  0  0  0  0  0  0  0  0  0  0  0
    8.5836   -0.2040   -0.1710 H   0  0  0  0  0  0  0  0  0  0  0  0
    7.5011   -0.4575   -1.5538 H   0  0  0  0  0  0  0  0  0  0  0  0
    6.4269    1.6243   -1.0904 H   0  0  0  0  0  0  0  0  0  0  0  0
    6.5058    3.8225    0.9589 H   0  0  0  0  0  0  0  0  0  0  0  0
    6.7953    3.8199   -0.7988 H   0  0  0  0  0  0  0  0  0  0  0  0
    8.0781    4.3603    0.2970 H   0  0  0  0  0  0  0  0  0  0  0  0
  1  2  1  0
  2  3  1  0
  3  4  2  0
  4  5  1  0
  5  6  1  0
  6  7  1  0
  7  8  1  0
  8  9  2  0
  9 10  1  0
 10 11  2  0
 11 12  1  0
 12 13  1  0
 13 14  2  0
 14 15  1  0
 15 16  2  0
 16 17  1  0
 17 18  2  0
 12 19  2  0
 19 20  1  0
  5 21  2  0
 21 22  1  0
 22 23  2  0
 23 24  1  0
 24 25  1  0
 25 26  1  0
 26 27  1  0
 27 28  1  0
 28 29  1  0
 29 30  1  0
 29 31  2  0
 23  3  1  0
 19  8  1  0
 18 13  1  0
  1 32  1  0
  1 33  1  0
  1 34  1  0
  7 35  1  0
  7 36  1  0
  9 37  1  0
 10 38  1  0
 11 39  1  0
 14 40  1  0
 15 41  1  0
 16 42  1  0
 17 43  1  0
 18 44  1  0
 20 45  1  0
 20 46  1  0
 20 47  1  0
 21 48  1  0
 22 49  1  0
 24 50  1  0
 24 51  1  0
 25 52  1  0
 26 53  1  0
 26 54  1  0
 27 55  1  0
 27 56  1  0
 28 57  1  0
 30 58  1  0
 30 59  1  0
 30 60  1  0
M  END
$$$$
