
     RDKit          3D

 52 54  0  0  0  0  0  0  0  0999 V2000
    6.6812   -2.3747   -1.3235 C   0  0  0  0  0  0  0  0  0  0  0  0
    5.4291   -1.8336   -0.8318 N   0  0  0  0  0  0  0  0  0  0  0  0
    4.5580   -1.2761   -1.7599 C   0  0  0  0  0  0  0  0  0  0  0  0
    4.8237   -1.1658   -2.9581 O   0  0  0  0  0  0  0  0  0  0  0  0
    3.1984   -0.8647   -1.2528 C   0  0  0  0  0  0  0  0  0  0  0  0
    3.3188   -0.4217    0.1850 C   0  0  1  0  0  0  0  0  0  0  0  0
    1.9536   -0.1184    0.8265 C   0  0  0  0  0  0  0  0  0  0  0  0
    1.5433   -0.7210    1.8177 O   0  0  0  0  0  0  0  0  0  0  0  0
    1.2498    0.9175    0.2478 N   0  0  0  0  0  0  0  0  0  0  0  0
   -0.1715    1.1169    0.5825 C   0  0  1  0  0  0  0  0  0  0  0  0
   -0.5266    2.6112    0.5029 C   0  0  0  0  0  0  0  0  0  0  0  0
   -1.6566    2.9938    1.3953 C   0  0  0  0  0  0  0  0  0  0  0  0
   -3.0063    3.1509    1.1597 C   0  0  0  0  0  0  0  0  0  0  0  0
   -3.6631    3.4956    2.3130 N   0  0  0  0  0  0  0  0  0  0  0  0
   -2.7335    3.5777    3.2350 C   0  0  0  0  0  0  0  0  0  0  0  0
   -1.4996    3.2876    2.7283 N   0  0  0  0  0  0  0  0  0  0  0  0
   -0.9408    0.3308   -0.4993 C   0  0  0  0  0  0  0  0  0  0  0  0
   -0.4912    0.2715   -1.6516 O   0  0  0  0  0  0  0  0  0  0  0  0
   -2.1305   -0.2646   -0.1647 N   0  0  0  0  0  0  0  0  0  0  0  0
   -2.6434   -0.5201    1.1717 C   0  0  0  0  0  0  0  0  0  0  0  0
   -4.0274   -1.1061    0.9420 C   0  0  0  0  0  0  0  0  0  0  0  0
   -3.8702   -1.8495   -0.3814 C   0  0  0  0  0  0  0  0  0  0  0  0
   -2.9303   -0.9442   -1.1794 C   0  0  1  0  0  0  0  0  0  0  0  0
   -3.7223    0.0669   -2.0331 C   0  0  0  0  0  0  0  0  0  0  0  0
   -4.3118   -0.4528   -3.1548 N   0  0  0  0  0  0  0  0  0  0  0  0
   -3.8816    1.2505   -1.7488 O   0  0  0  0  0  0  0  0  0  0  0  0
    3.9659   -1.4753    0.9319 N   0  0  0  0  0  0  0  0  0  0  0  0
    5.0891   -2.0973    0.4843 C   0  0  0  0  0  0  0  0  0  0  0  0
    5.7126   -2.8460    1.2297 O   0  0  0  0  0  0  0  0  0  0  0  0
    6.4911   -3.3755   -1.7243 H   0  0  0  0  0  0  0  0  0  0  0  0
    7.4205   -2.4467   -0.5203 H   0  0  0  0  0  0  0  0  0  0  0  0
    7.0857   -1.7453   -2.1219 H   0  0  0  0  0  0  0  0  0  0  0  0
    2.8254   -0.0518   -1.8845 H   0  0  0  0  0  0  0  0  0  0  0  0
    2.5186   -1.7182   -1.3610 H   0  0  0  0  0  0  0  0  0  0  0  0
    3.9485    0.4721    0.2757 H   0  0  0  0  0  0  0  0  0  0  0  0
    1.4680    1.1452   -0.7174 H   0  0  0  0  0  0  0  0  0  0  0  0
   -0.3598    0.7053    1.5775 H   0  0  0  0  0  0  0  0  0  0  0  0
   -0.7650    2.9000   -0.5289 H   0  0  0  0  0  0  0  0  0  0  0  0
    0.3464    3.2133    0.7899 H   0  0  0  0  0  0  0  0  0  0  0  0
   -3.5410    3.0185    0.2256 H   0  0  0  0  0  0  0  0  0  0  0  0
   -2.8908    3.8402    4.2727 H   0  0  0  0  0  0  0  0  0  0  0  0
   -0.6334    3.2899    3.2501 H   0  0  0  0  0  0  0  0  0  0  0  0
   -2.6671    0.3829    1.7810 H   0  0  0  0  0  0  0  0  0  0  0  0
   -1.9782   -1.2485    1.6490 H   0  0  0  0  0  0  0  0  0  0  0  0
   -4.7637   -0.3009    0.8311 H   0  0  0  0  0  0  0  0  0  0  0  0
   -4.3504   -1.7555    1.7601 H   0  0  0  0  0  0  0  0  0  0  0  0
   -4.8329   -2.0357   -0.8662 H   0  0  0  0  0  0  0  0  0  0  0  0
   -3.3857   -2.8164   -0.1981 H   0  0  0  0  0  0  0  0  0  0  0  0
   -2.2814   -1.5256   -1.8447 H   0  0  0  0  0  0  0  0  0  0  0  0
   -4.7423    0.2306   -3.7663 H   0  0  0  0  0  0  0  0  0  0  0  0
   -3.9363   -1.2821   -3.5947 H   0  0  0  0  0  0  0  0  0  0  0  0
    3.7069   -1.6348    1.9019 H   0  0  0  0  0  0  0  0  0  0  0  0
  1  2  1  0
  2  3  1  0
  3  4  2  0
  3  5  1  0
  5  6  1  0
  6  7  1  0
  7  8  2  0
  7  9  1  0
  9 10  1  0
 10 11  1  0
 11 12  1  0
 12 13  2  0
 13 14  1  0
 14 15  2  0
 15 16  1  0
 10 17  1  0
 17 18  2  0
 17 19  1  0
 19 20  1  0
 20 21  1  0
 21 22  1  0
 22 23  1  0
 23 24  1  0
 24 25  1  0
 24 26  2  0
  6 27  1  0
 27 28  1  0
 28 29  2  0
 28  2  1  0
 16 12  1  0
 23 19  1  0
  1 30  1  0
  1 31  1  0
  1 32  1  0
  5 33  1  0
  5 34  1  0
  6 35  1  6
  9 36  1  0
 10 37  1  1
 11 38  1  0
 11 39  1  0
 13 40  1  0
 15 41  1  0
 16 42  1  0
 20 43  1  0
 20 44  1  0
 21 45  1  0
 21 46  1  0
 22 47  1  0
 22 48  1  0
 23 49  1  6
 25 50  1  0
 25 51  1  0
 27 52  1  0
M  END
$$$$
