
     RDKit          3D

 31 32  0  0  0  0  0  0  0  0999 V2000
    4.9599   -0.5190    1.4874 C   0  0  0  0  0  0  0  0  0  0  0  0
    3.6967   -0.3274    0.6999 C   0  0  0  0  0  0  0  0  0  0  0  0
    2.6398    0.4247    1.2284 C   0  0  0  0  0  0  0  0  0  0  0  0
    1.4751    0.6327    0.4847 C   0  0  0  0  0  0  0  0  0  0  0  0
    1.3594    0.0838   -0.7969 C   0  0  0  0  0  0  0  0  0  0  0  0
    0.1440    0.2841   -1.6238 C   0  0  0  0  0  0  0  0  0  0  0  0
    0.2563    0.4351   -2.8372 O   0  0  0  0  0  0  0  0  0  0  0  0
   -1.2156    0.3020   -1.0266 C   0  0  0  0  0  0  0  0  0  0  0  0
   -2.1878    1.1120   -1.6247 C   0  0  0  0  0  0  0  0  0  0  0  0
   -3.4818    1.1399   -1.1068 C   0  0  0  0  0  0  0  0  0  0  0  0
   -4.4289    1.9385   -1.6868 O   0  0  0  0  0  0  0  0  0  0  0  0
   -3.8340    0.3598    0.0010 C   0  0  0  0  0  0  0  0  0  0  0  0
   -5.1282    0.4592    0.4413 O   0  0  0  0  0  0  0  0  0  0  0  0
   -2.8605   -0.4643    0.5833 C   0  0  0  0  0  0  0  0  0  0  0  0
   -3.1770   -1.3035    1.7414 N   0  0  0  0  0  4  0  0  0  0  0  0
   -4.3629   -1.3635    2.1016 O   0  0  0  0  0  0  0  0  0  0  0  0
   -2.2441   -1.8989    2.2973 O   0  0  0  0  0  1  0  0  0  0  0  0
   -1.5517   -0.5022    0.0681 C   0  0  0  0  0  0  0  0  0  0  0  0
    2.4259   -0.6358   -1.3445 C   0  0  0  0  0  0  0  0  0  0  0  0
    3.5880   -0.8410   -0.5981 C   0  0  0  0  0  0  0  0  0  0  0  0
    5.4414   -1.4677    1.2281 H   0  0  0  0  0  0  0  0  0  0  0  0
    4.7498   -0.5448    2.5618 H   0  0  0  0  0  0  0  0  0  0  0  0
    5.6565    0.2997    1.2821 H   0  0  0  0  0  0  0  0  0  0  0  0
    2.7225    0.8602    2.2225 H   0  0  0  0  0  0  0  0  0  0  0  0
    0.6830    1.2410    0.9124 H   0  0  0  0  0  0  0  0  0  0  0  0
   -1.9226    1.7145   -2.4910 H   0  0  0  0  0  0  0  0  0  0  0  0
   -4.0625    2.3637   -2.4789 H   0  0  0  0  0  0  0  0  0  0  0  0
   -5.3003   -0.1787    1.1631 H   0  0  0  0  0  0  0  0  0  0  0  0
   -0.8071   -1.1663    0.5037 H   0  0  0  0  0  0  0  0  0  0  0  0
    2.3563   -1.0363   -2.3540 H   0  0  0  0  0  0  0  0  0  0  0  0
    4.4102   -1.4013   -1.0389 H   0  0  0  0  0  0  0  0  0  0  0  0
  1  2  1  0
  2  3  2  0
  3  4  1  0
  4  5  2  0
  5  6  1  0
  6  7  2  0
  6  8  1  0
  8  9  2  0
  9 10  1  0
 10 11  1  0
 10 12  2  0
 12 13  1  0
 12 14  1  0
 14 15  1  0
 15 16  2  0
 15 17  1  0
 14 18  2  0
  5 19  1  0
 19 20  2  0
 20  2  1  0
 18  8  1  0
  1 21  1  0
  1 22  1  0
  1 23  1  0
  3 24  1  0
  4 25  1  0
  9 26  1  0
 11 27  1  0
 13 28  1  0
 18 29  1  0
 19 30  1  0
 20 31  1  0
M  CHG  2  15   1  17  -1
M  END
$$$$
