
     RDKit          3D

 33 33  0  0  0  0  0  0  0  0999 V2000
   -3.9473   -0.9089   -1.7633 C   0  0  0  0  0  0  0  0  0  0  0  0
   -2.6724   -0.1271   -1.4636 C   0  0  0  0  0  0  0  0  0  0  0  0
   -2.9752    1.2676   -1.2350 N   0  0  0  0  0  0  0  0  0  0  0  0
   -2.9751    1.5656    0.1130 C   0  0  0  0  0  0  0  0  0  0  0  0
   -3.3243    2.6164    0.6151 O   0  0  0  0  0  0  0  0  0  0  0  0
   -2.5109    0.4557    0.7899 N   0  0  0  0  0  0  0  0  0  0  0  0
   -2.0343   -0.5615   -0.1222 C   0  0  0  0  0  0  0  0  0  0  0  0
   -0.4992   -0.5601   -0.2085 C   0  0  0  0  0  0  0  0  0  0  0  0
    0.1554   -1.0137    1.1015 C   0  0  0  0  0  0  0  0  0  0  0  0
    1.6739   -1.1857    0.9938 C   0  0  0  0  0  0  0  0  0  0  0  0
    2.4170    0.1245    0.7287 C   0  0  0  0  0  0  0  0  0  0  0  0
    3.9273   -0.0823    0.7535 C   0  0  0  0  0  0  0  0  0  0  0  0
    4.6427    1.1992    0.4396 C   0  0  0  0  0  0  0  0  0  0  0  0
    5.0810    1.5318   -0.6485 O   0  0  0  0  0  0  0  0  0  0  0  0
    4.7493    2.0117    1.5070 O   0  0  0  0  0  0  0  0  0  0  0  0
   -4.6762   -0.8252   -0.9494 H   0  0  0  0  0  0  0  0  0  0  0  0
   -4.4265   -0.5291   -2.6721 H   0  0  0  0  0  0  0  0  0  0  0  0
   -3.7232   -1.9698   -1.9140 H   0  0  0  0  0  0  0  0  0  0  0  0
   -1.9830   -0.2064   -2.3104 H   0  0  0  0  0  0  0  0  0  0  0  0
   -3.3907    1.9089   -1.8971 H   0  0  0  0  0  0  0  0  0  0  0  0
   -2.3481    0.4983    1.7868 H   0  0  0  0  0  0  0  0  0  0  0  0
   -2.3947   -1.5396    0.2141 H   0  0  0  0  0  0  0  0  0  0  0  0
   -0.1425    0.4426   -0.4723 H   0  0  0  0  0  0  0  0  0  0  0  0
   -0.1885   -1.2372   -1.0139 H   0  0  0  0  0  0  0  0  0  0  0  0
   -0.2760   -1.9764    1.4026 H   0  0  0  0  0  0  0  0  0  0  0  0
   -0.0716   -0.3008    1.9028 H   0  0  0  0  0  0  0  0  0  0  0  0
    2.0356   -1.6185    1.9349 H   0  0  0  0  0  0  0  0  0  0  0  0
    1.9067   -1.9099    0.2037 H   0  0  0  0  0  0  0  0  0  0  0  0
    2.1272    0.5349   -0.2456 H   0  0  0  0  0  0  0  0  0  0  0  0
    2.1338    0.8707    1.4812 H   0  0  0  0  0  0  0  0  0  0  0  0
    4.2321   -0.8297    0.0118 H   0  0  0  0  0  0  0  0  0  0  0  0
    4.2672   -0.4500    1.7284 H   0  0  0  0  0  0  0  0  0  0  0  0
    5.2104    2.8041    1.1600 H   0  0  0  0  0  0  0  0  0  0  0  0
  1  2  1  0
  2  3  1  0
  3  4  1  0
  4  5  2  0
  4  6  1  0
  6  7  1  0
  7  8  1  0
  8  9  1  0
  9 10  1  0
 10 11  1  0
 11 12  1  0
 12 13  1  0
 13 14  2  0
 13 15  1  0
  7  2  1  0
  1 16  1  0
  1 17  1  0
  1 18  1  0
  2 19  1  0
  3 20  1  0
  6 21  1  0
  7 22  1  0
  8 23  1  0
  8 24  1  0
  9 25  1  0
  9 26  1  0
 10 27  1  0
 10 28  1  0
 11 29  1  0
 11 30  1  0
 12 31  1  0
 12 32  1  0
 15 33  1  0
M  END
$$$$
