
     RDKit          3D

 51 55  0  0  0  0  0  0  0  0999 V2000
    0.9370   -3.1294    1.7953 F   0  0  0  0  0  0  0  0  0  0  0  0
    2.1161   -3.1450    1.1180 C   0  0  0  0  0  0  0  0  0  0  0  0
    1.8566   -3.5546   -0.1518 F   0  0  0  0  0  0  0  0  0  0  0  0
    2.8234   -1.8371    1.1635 C   0  0  0  0  0  0  0  0  0  0  0  0
    4.0389   -1.6839    1.6671 N   0  0  0  0  0  0  0  0  0  0  0  0
    4.3372   -0.3618    1.5353 C   0  0  0  0  0  0  0  0  0  0  0  0
    5.5122    0.3103    1.9073 C   0  0  0  0  0  0  0  0  0  0  0  0
    5.6173    1.6819    1.6628 C   0  0  0  0  0  0  0  0  0  0  0  0
    4.5719    2.3705    1.0541 C   0  0  0  0  0  0  0  0  0  0  0  0
    3.3932    1.7139    0.6799 C   0  0  0  0  0  0  0  0  0  0  0  0
    3.2899    0.3348    0.9405 C   0  0  0  0  0  0  0  0  0  0  0  0
    2.2986   -0.6262    0.7164 N   0  0  0  0  0  0  0  0  0  0  0  0
    1.0034   -0.3876    0.1473 C   0  0  0  0  0  0  0  0  0  0  0  0
    0.6480    0.8738   -0.0874 N   0  0  0  0  0  0  0  0  0  0  0  0
   -0.5545    1.0667   -0.6103 C   0  0  0  0  0  0  0  0  0  0  0  0
   -0.9569    2.3561   -0.8881 N   0  0  0  0  0  0  0  0  0  0  0  0
   -2.3178    2.5631   -1.3869 C   0  0  0  0  0  0  0  0  0  0  0  0
   -2.5103    4.0461   -1.7389 C   0  0  0  0  0  0  0  0  0  0  0  0
   -2.3149    4.9362   -0.6290 O   0  0  0  0  0  0  0  0  0  0  0  0
   -1.4377    4.4131    0.3789 C   0  0  0  0  0  0  0  0  0  0  0  0
   -0.3468    3.4749   -0.1651 C   0  0  0  0  0  0  0  0  0  0  0  0
   -1.3764    0.0662   -0.8979 N   0  0  0  0  0  0  0  0  0  0  0  0
   -0.9704   -1.1687   -0.6309 C   0  0  0  0  0  0  0  0  0  0  0  0
   -1.8094   -2.2208   -0.9354 N   0  0  0  0  0  0  0  0  0  0  0  0
   -3.2429   -1.9713   -1.1140 C   0  0  0  0  0  0  0  0  0  0  0  0
   -4.0572   -2.9245   -0.2234 C   0  0  0  0  0  0  0  0  0  0  0  0
   -3.8083   -4.3151   -0.4779 O   0  0  0  0  0  0  0  0  0  0  0  0
   -2.4791   -4.5810   -0.9530 C   0  0  0  0  0  0  0  0  0  0  0  0
   -1.4341   -3.5605   -0.4765 C   0  0  0  0  0  0  0  0  0  0  0  0
    0.2208   -1.4291   -0.1057 N   0  0  0  0  0  0  0  0  0  0  0  0
    2.7370   -3.9181    1.5805 H   0  0  0  0  0  0  0  0  0  0  0  0
    6.3249   -0.2371    2.3728 H   0  0  0  0  0  0  0  0  0  0  0  0
    6.5248    2.2103    1.9444 H   0  0  0  0  0  0  0  0  0  0  0  0
    4.6727    3.4368    0.8609 H   0  0  0  0  0  0  0  0  0  0  0  0
    2.5999    2.2711    0.1940 H   0  0  0  0  0  0  0  0  0  0  0  0
   -2.4994    1.9629   -2.2863 H   0  0  0  0  0  0  0  0  0  0  0  0
   -3.0438    2.2738   -0.6167 H   0  0  0  0  0  0  0  0  0  0  0  0
   -3.5215    4.2157   -2.1219 H   0  0  0  0  0  0  0  0  0  0  0  0
   -1.8077    4.3441   -2.5261 H   0  0  0  0  0  0  0  0  0  0  0  0
   -2.0565    3.8876    1.1160 H   0  0  0  0  0  0  0  0  0  0  0  0
   -0.9792    5.2661    0.8893 H   0  0  0  0  0  0  0  0  0  0  0  0
    0.2935    4.0239   -0.8653 H   0  0  0  0  0  0  0  0  0  0  0  0
    0.2736    3.1535    0.6787 H   0  0  0  0  0  0  0  0  0  0  0  0
   -3.4898   -2.1541   -2.1664 H   0  0  0  0  0  0  0  0  0  0  0  0
   -3.5402   -0.9438   -0.8771 H   0  0  0  0  0  0  0  0  0  0  0  0
   -3.8375   -2.7369    0.8344 H   0  0  0  0  0  0  0  0  0  0  0  0
   -5.1284   -2.7522   -0.3690 H   0  0  0  0  0  0  0  0  0  0  0  0
   -2.5193   -4.6013   -2.0486 H   0  0  0  0  0  0  0  0  0  0  0  0
   -2.2056   -5.5865   -0.6178 H   0  0  0  0  0  0  0  0  0  0  0  0
   -0.4588   -3.8487   -0.8824 H   0  0  0  0  0  0  0  0  0  0  0  0
   -1.3865   -3.5782    0.6193 H   0  0  0  0  0  0  0  0  0  0  0  0
  1  2  1  0
  2  3  1  0
  2  4  1  0
  4  5  2  0
  5  6  1  0
  6  7  2  0
  7  8  1  0
  8  9  2  0
  9 10  1  0
 10 11  2  0
 11 12  1  0
 12 13  1  0
 13 14  2  0
 14 15  1  0
 15 16  1  0
 16 17  1  0
 17 18  1  0
 18 19  1  0
 19 20  1  0
 20 21  1  0
 15 22  2  0
 22 23  1  0
 23 24  1  0
 24 25  1  0
 25 26  1  0
 26 27  1  0
 27 28  1  0
 28 29  1  0
 23 30  2  0
 12  4  1  0
 30 13  1  0
 11  6  1  0
 21 16  1  0
 29 24  1  0
  2 31  1  0
  7 32  1  0
  8 33  1  0
  9 34  1  0
 10 35  1  0
 17 36  1  0
 17 37  1  0
 18 38  1  0
 18 39  1  0
 20 40  1  0
 20 41  1  0
 21 42  1  0
 21 43  1  0
 25 44  1  0
 25 45  1  0
 26 46  1  0
 26 47  1  0
 28 48  1  0
 28 49  1  0
 29 50  1  0
 29 51  1  0
M  END
$$$$
