
     RDKit          3D

 44 46  0  0  0  0  0  0  0  0999 V2000
    7.9489   -0.0205   -1.0802 C   0  0  0  0  0  0  0  0  0  0  0  0
    6.9521   -0.2619   -2.0656 O   0  0  0  0  0  0  0  0  0  0  0  0
    5.6368   -0.3426   -1.5120 C   0  0  0  0  0  0  0  0  0  0  0  0
    5.0347    1.0451   -1.2735 C   0  0  0  0  0  0  0  0  0  0  0  0
    3.6519    0.9925   -0.8620 N   0  0  0  0  0  0  0  0  0  0  0  0
    3.2661    0.6413    0.4124 C   0  0  0  0  0  0  0  0  0  0  0  0
    4.0580    0.3959    1.3172 O   0  0  0  0  0  0  0  0  0  0  0  0
    1.8061    0.5745    0.5793 C   0  0  0  0  0  0  0  0  0  0  0  0
    1.0950    0.2582    1.7678 C   0  0  0  0  0  0  0  0  0  0  0  0
   -0.2387    0.3191    1.4295 C   0  0  0  0  0  0  0  0  0  0  0  0
   -0.2588    0.6564    0.1084 N   0  0  0  0  0  0  0  0  0  0  0  0
    0.9560    0.8158   -0.4434 N   0  0  0  0  0  0  0  0  0  0  0  0
   -1.4593    0.7901   -0.6891 C   0  0  0  0  0  0  0  0  0  0  0  0
   -2.6623    1.0019    0.2181 C   0  0  0  0  0  0  0  0  0  0  0  0
   -2.6538    0.0643    1.3507 N   0  0  0  0  0  0  0  0  0  0  0  0
   -3.8355   -0.3986    1.9541 C   0  0  0  0  0  0  0  0  0  0  0  0
   -3.8453   -0.7627    3.1296 O   0  0  0  0  0  0  0  0  0  0  0  0
   -5.0242   -0.4618    1.1206 C   0  0  0  0  0  0  0  0  0  0  0  0
   -6.3732    0.4971    1.5526 S   0  0  0  0  0  0  0  0  0  0  0  0
   -7.2760   -0.0636    0.2169 C   0  0  0  0  0  0  0  0  0  0  0  0
   -6.5745   -0.9833   -0.5295 C   0  0  0  0  0  0  0  0  0  0  0  0
   -5.2638   -1.2390   -0.0050 C   0  0  0  0  0  0  0  0  0  0  0  0
   -4.3068   -2.2214   -0.5968 C   0  0  0  0  0  0  0  0  0  0  0  0
   -1.4800    0.1104    2.2191 C   0  0  0  0  0  0  0  0  0  0  0  0
    8.9236   -0.0156   -1.5757 H   0  0  0  0  0  0  0  0  0  0  0  0
    7.8014    0.9521   -0.6033 H   0  0  0  0  0  0  0  0  0  0  0  0
    7.9470   -0.8152   -0.3281 H   0  0  0  0  0  0  0  0  0  0  0  0
    5.6391   -0.9501   -0.5991 H   0  0  0  0  0  0  0  0  0  0  0  0
    5.0195   -0.8772   -2.2430 H   0  0  0  0  0  0  0  0  0  0  0  0
    5.0874    1.6425   -2.1900 H   0  0  0  0  0  0  0  0  0  0  0  0
    5.6042    1.5818   -0.5073 H   0  0  0  0  0  0  0  0  0  0  0  0
    2.8965    1.1076   -1.5332 H   0  0  0  0  0  0  0  0  0  0  0  0
    1.5196    0.0216    2.7345 H   0  0  0  0  0  0  0  0  0  0  0  0
   -1.5557   -0.1382   -1.2624 H   0  0  0  0  0  0  0  0  0  0  0  0
   -1.3314    1.6310   -1.3776 H   0  0  0  0  0  0  0  0  0  0  0  0
   -3.5774    0.9294   -0.3729 H   0  0  0  0  0  0  0  0  0  0  0  0
   -2.6483    2.0122    0.6476 H   0  0  0  0  0  0  0  0  0  0  0  0
   -8.2822    0.2963    0.0500 H   0  0  0  0  0  0  0  0  0  0  0  0
   -6.9895   -1.4669   -1.4065 H   0  0  0  0  0  0  0  0  0  0  0  0
   -3.7211   -2.7217    0.1809 H   0  0  0  0  0  0  0  0  0  0  0  0
   -3.6190   -1.7143   -1.2803 H   0  0  0  0  0  0  0  0  0  0  0  0
   -4.8396   -2.9946   -1.1600 H   0  0  0  0  0  0  0  0  0  0  0  0
   -1.6169    0.9350    2.9288 H   0  0  0  0  0  0  0  0  0  0  0  0
   -1.4105   -0.8231    2.7893 H   0  0  0  0  0  0  0  0  0  0  0  0
  1  2  1  0
  2  3  1  0
  3  4  1  0
  4  5  1  0
  5  6  1  0
  6  7  2  0
  6  8  1  0
  8  9  1  0
  9 10  2  0
 10 11  1  0
 11 12  1  0
 11 13  1  0
 13 14  1  0
 14 15  1  0
 15 16  1  0
 16 17  2  0
 16 18  1  0
 18 19  1  0
 19 20  1  0
 20 21  2  0
 21 22  1  0
 22 23  1  0
 15 24  1  0
 12  8  2  0
 22 18  2  0
 24 10  1  0
  1 25  1  0
  1 26  1  0
  1 27  1  0
  3 28  1  0
  3 29  1  0
  4 30  1  0
  4 31  1  0
  5 32  1  0
  9 33  1  0
 13 34  1  0
 13 35  1  0
 14 36  1  0
 14 37  1  0
 20 38  1  0
 21 39  1  0
 23 40  1  0
 23 41  1  0
 23 42  1  0
 24 43  1  0
 24 44  1  0
M  END
$$$$
