
     RDKit          3D

 52 53  0  0  0  0  0  0  0  0999 V2000
   -3.4390   -3.0428    1.9030 O   0  0  0  0  0  0  0  0  0  0  0  0
   -2.6235   -2.2486    1.4671 C   0  0  0  0  0  0  0  0  0  0  0  0
   -2.9290   -1.2486    0.4203 C   0  0  0  0  0  0  0  0  0  0  0  0
   -1.9668   -0.7461   -0.3701 C   0  0  0  0  0  0  0  0  0  0  0  0
   -2.1576    0.2805   -1.4021 C   0  0  0  0  0  0  0  0  0  0  0  0
   -1.3247    0.2571   -2.5312 C   0  0  0  0  0  0  0  0  0  0  0  0
   -1.3964    1.2654   -3.4965 C   0  0  0  0  0  0  0  0  0  0  0  0
   -2.2970    2.3114   -3.3274 C   0  0  0  0  0  0  0  0  0  0  0  0
   -2.3590    3.3213   -4.2430 O   0  0  0  0  0  0  0  0  0  0  0  0
   -3.1293    2.3469   -2.2089 C   0  0  0  0  0  0  0  0  0  0  0  0
   -3.9935    3.3941   -2.0547 O   0  0  0  0  0  0  0  0  0  0  0  0
   -3.0631    1.3392   -1.2460 C   0  0  0  0  0  0  0  0  0  0  0  0
   -1.3469   -2.1054    1.8822 O   0  0  0  0  0  0  0  0  0  0  0  0
   -0.8520   -3.0790    2.8164 C   0  0  1  0  0  0  0  0  0  0  0  0
   -0.6207   -4.4510    2.1990 C   0  0  0  0  0  0  0  0  0  0  0  0
   -0.3753   -5.4756    2.8172 O   0  0  0  0  0  0  0  0  0  0  0  0
   -0.6605   -4.4706    0.8514 O   0  0  0  0  0  0  0  0  0  0  0  0
    0.4946   -2.5871    3.3708 C   0  0  1  0  0  0  0  0  0  0  0  0
    1.1486   -1.7970    2.3628 O   0  0  0  0  0  0  0  0  0  0  0  0
    2.4086   -1.3924    2.6320 C   0  0  0  0  0  0  0  0  0  0  0  0
    3.0826   -1.7452    3.5856 O   0  0  0  0  0  0  0  0  0  0  0  0
    2.8983   -0.4581    1.5916 C   0  0  0  0  0  0  0  0  0  0  0  0
    2.0828    0.1346    0.7036 C   0  0  0  0  0  0  0  0  0  0  0  0
    2.4901    1.0728   -0.3551 C   0  0  0  0  0  0  0  0  0  0  0  0
    3.7776    1.0698   -0.9156 C   0  0  0  0  0  0  0  0  0  0  0  0
    4.1064    1.9435   -1.9564 C   0  0  0  0  0  0  0  0  0  0  0  0
    3.1435    2.8107   -2.4444 C   0  0  0  0  0  0  0  0  0  0  0  0
    3.4652    3.6596   -3.4631 O   0  0  0  0  0  0  0  0  0  0  0  0
    1.8591    2.8183   -1.9117 C   0  0  0  0  0  0  0  0  0  0  0  0
    0.9546    3.6870   -2.4564 O   0  0  0  0  0  0  0  0  0  0  0  0
    1.5263    1.9578   -0.8704 C   0  0  0  0  0  0  0  0  0  0  0  0
    0.1982   -1.8330    4.6598 C   0  0  0  0  0  0  0  0  0  0  0  0
   -0.1512   -2.3392    5.7135 O   0  0  0  0  0  0  0  0  0  0  0  0
    0.2919   -0.4909    4.5549 O   0  0  0  0  0  0  0  0  0  0  0  0
   -3.9735   -0.9868    0.3221 H   0  0  0  0  0  0  0  0  0  0  0  0
   -0.9453   -1.1070   -0.2712 H   0  0  0  0  0  0  0  0  0  0  0  0
   -0.5994   -0.5446   -2.6672 H   0  0  0  0  0  0  0  0  0  0  0  0
   -0.7344    1.2240   -4.3565 H   0  0  0  0  0  0  0  0  0  0  0  0
   -1.7463    3.1365   -4.9717 H   0  0  0  0  0  0  0  0  0  0  0  0
   -4.5936    3.2140   -1.3162 H   0  0  0  0  0  0  0  0  0  0  0  0
   -3.6909    1.3954   -0.3626 H   0  0  0  0  0  0  0  0  0  0  0  0
   -1.5927   -3.2177    3.6154 H   0  0  0  0  0  0  0  0  0  0  0  0
   -0.5158   -5.4123    0.6150 H   0  0  0  0  0  0  0  0  0  0  0  0
    1.1508   -3.4236    3.6425 H   0  0  0  0  0  0  0  0  0  0  0  0
    3.9640   -0.2653    1.6326 H   0  0  0  0  0  0  0  0  0  0  0  0
    1.0132   -0.0586    0.7472 H   0  0  0  0  0  0  0  0  0  0  0  0
    4.5401    0.3818   -0.5635 H   0  0  0  0  0  0  0  0  0  0  0  0
    5.1038    1.9416   -2.3855 H   0  0  0  0  0  0  0  0  0  0  0  0
    2.6553    4.1895   -3.6052 H   0  0  0  0  0  0  0  0  0  0  0  0
    0.0935    3.5671   -2.0127 H   0  0  0  0  0  0  0  0  0  0  0  0
    0.5225    1.9695   -0.4557 H   0  0  0  0  0  0  0  0  0  0  0  0
    0.1059   -0.1631    5.4616 H   0  0  0  0  0  0  0  0  0  0  0  0
  1  2  2  0
  2  3  1  0
  3  4  2  0
  4  5  1  0
  5  6  2  0
  6  7  1  0
  7  8  2  0
  8  9  1  0
  8 10  1  0
 10 11  1  0
 10 12  2  0
  2 13  1  0
 13 14  1  0
 14 15  1  0
 15 16  2  0
 15 17  1  0
 14 18  1  0
 18 19  1  0
 19 20  1  0
 20 21  2  0
 20 22  1  0
 22 23  2  0
 23 24  1  0
 24 25  2  0
 25 26  1  0
 26 27  2  0
 27 28  1  0
 27 29  1  0
 29 30  1  0
 29 31  2  0
 18 32  1  0
 32 33  2  0
 32 34  1  0
 12  5  1  0
 31 24  1  0
  3 35  1  0
  4 36  1  0
  6 37  1  0
  7 38  1  0
  9 39  1  0
 11 40  1  0
 12 41  1  0
 14 42  1  1
 17 43  1  0
 18 44  1  1
 22 45  1  0
 23 46  1  0
 25 47  1  0
 26 48  1  0
 28 49  1  0
 30 50  1  0
 31 51  1  0
 34 52  1  0
M  END
$$$$
