
     RDKit          3D

 57 59  0  0  0  0  0  0  0  0999 V2000
    8.0856    0.8040    0.0985 C   0  0  0  0  0  0  0  0  0  0  0  0
    6.9660    1.6779    0.1711 O   0  0  0  0  0  0  0  0  0  0  0  0
    5.7620    1.1150    0.4951 C   0  0  0  0  0  0  0  0  0  0  0  0
    5.5396   -0.2317    0.7853 C   0  0  0  0  0  0  0  0  0  0  0  0
    4.2524   -0.6751    1.0967 C   0  0  0  0  0  0  0  0  0  0  0  0
    3.1854    0.2293    1.1077 C   0  0  0  0  0  0  0  0  0  0  0  0
    1.8426   -0.2945    1.4293 C   0  0  0  0  0  0  0  0  0  0  0  0
    1.5348   -0.3974    2.6127 O   0  0  0  0  0  0  0  0  0  0  0  0
    1.0057   -0.6415    0.3715 N   0  0  0  0  0  0  0  0  0  0  0  0
    1.4036   -0.6098   -1.0406 C   0  0  0  0  0  0  0  0  0  0  0  0
    0.5107   -1.4865   -1.9153 C   0  0  0  0  0  0  0  0  0  0  0  0
   -0.9675   -1.1044   -1.8066 C   0  0  0  0  0  0  0  0  0  0  0  0
   -1.3535   -0.6282   -0.3943 C   0  0  0  0  0  0  0  0  0  0  0  0
   -2.7909   -0.8422   -0.0936 N   0  0  0  0  0  0  0  0  0  0  0  0
   -3.3973   -2.0757    0.1546 C   0  0  0  0  0  0  0  0  0  0  0  0
   -2.5425   -3.3058    0.3058 C   0  0  0  0  0  0  0  0  0  0  0  0
   -4.6187   -2.1976    0.2790 O   0  0  0  0  0  0  0  0  0  0  0  0
   -3.6733    0.3428   -0.2525 C   0  0  0  0  0  0  0  0  0  0  0  0
   -4.4466    0.6969    1.0231 C   0  0  0  0  0  0  0  0  0  0  0  0
   -5.2492    1.9815    0.8209 C   0  0  0  0  0  0  0  0  0  0  0  0
   -5.6273    2.2136   -0.5393 O   0  0  0  0  0  0  0  0  0  0  0  0
   -5.9004    1.0064   -1.2458 C   0  0  0  0  0  0  0  0  0  0  0  0
   -4.6007    0.2474   -1.4776 C   0  0  0  0  0  0  0  0  0  0  0  0
   -0.3538   -1.0952    0.6818 C   0  0  0  0  0  0  0  0  0  0  0  0
    3.3907    1.5925    0.8485 C   0  0  0  0  0  0  0  0  0  0  0  0
    2.2683    2.5872    0.9079 C   0  0  0  0  0  0  0  0  0  0  0  0
    4.6905    2.0157    0.5321 C   0  0  0  0  0  0  0  0  0  0  0  0
    8.2927    0.3457    1.0719 H   0  0  0  0  0  0  0  0  0  0  0  0
    7.9422    0.0430   -0.6764 H   0  0  0  0  0  0  0  0  0  0  0  0
    8.9583    1.4022   -0.1804 H   0  0  0  0  0  0  0  0  0  0  0  0
    6.3441   -0.9601    0.7826 H   0  0  0  0  0  0  0  0  0  0  0  0
    4.0808   -1.7232    1.3319 H   0  0  0  0  0  0  0  0  0  0  0  0
    2.4428   -0.9368   -1.1390 H   0  0  0  0  0  0  0  0  0  0  0  0
    1.3489    0.4328   -1.3733 H   0  0  0  0  0  0  0  0  0  0  0  0
    0.6299   -2.5341   -1.6085 H   0  0  0  0  0  0  0  0  0  0  0  0
    0.8319   -1.4275   -2.9612 H   0  0  0  0  0  0  0  0  0  0  0  0
   -1.5795   -1.9500   -2.1383 H   0  0  0  0  0  0  0  0  0  0  0  0
   -1.1879   -0.2950   -2.5165 H   0  0  0  0  0  0  0  0  0  0  0  0
   -1.2072    0.4609   -0.4102 H   0  0  0  0  0  0  0  0  0  0  0  0
   -2.1056   -3.3263    1.3067 H   0  0  0  0  0  0  0  0  0  0  0  0
   -1.7719   -3.3758   -0.4609 H   0  0  0  0  0  0  0  0  0  0  0  0
   -3.1769   -4.1920    0.1968 H   0  0  0  0  0  0  0  0  0  0  0  0
   -3.0244    1.2097   -0.4365 H   0  0  0  0  0  0  0  0  0  0  0  0
   -5.1460   -0.1024    1.2900 H   0  0  0  0  0  0  0  0  0  0  0  0
   -3.7734    0.8028    1.8825 H   0  0  0  0  0  0  0  0  0  0  0  0
   -6.1507    1.9715    1.4424 H   0  0  0  0  0  0  0  0  0  0  0  0
   -4.6531    2.8455    1.1331 H   0  0  0  0  0  0  0  0  0  0  0  0
   -6.3586    1.2653   -2.2065 H   0  0  0  0  0  0  0  0  0  0  0  0
   -6.6276    0.4044   -0.6875 H   0  0  0  0  0  0  0  0  0  0  0  0
   -4.8296   -0.7813   -1.7747 H   0  0  0  0  0  0  0  0  0  0  0  0
   -4.0709    0.6884   -2.3326 H   0  0  0  0  0  0  0  0  0  0  0  0
   -0.2884   -2.1826    0.7506 H   0  0  0  0  0  0  0  0  0  0  0  0
   -0.6636   -0.7264    1.6658 H   0  0  0  0  0  0  0  0  0  0  0  0
    2.6372    3.6120    0.7984 H   0  0  0  0  0  0  0  0  0  0  0  0
    1.7552    2.5297    1.8733 H   0  0  0  0  0  0  0  0  0  0  0  0
    1.5507    2.4045    0.1030 H   0  0  0  0  0  0  0  0  0  0  0  0
    4.8845    3.0660    0.3170 H   0  0  0  0  0  0  0  0  0  0  0  0
  1  2  1  0
  2  3  1  0
  3  4  2  0
  4  5  1  0
  5  6  2  0
  6  7  1  0
  7  8  2  0
  7  9  1  0
  9 10  1  0
 10 11  1  0
 11 12  1  0
 12 13  1  0
 13 14  1  0
 14 15  1  0
 15 16  1  0
 15 17  2  0
 14 18  1  0
 18 19  1  0
 19 20  1  0
 20 21  1  0
 21 22  1  0
 22 23  1  0
 13 24  1  0
  6 25  1  0
 25 26  1  0
 25 27  2  0
 27  3  1  0
 24  9  1  0
 23 18  1  0
  1 28  1  0
  1 29  1  0
  1 30  1  0
  4 31  1  0
  5 32  1  0
 10 33  1  0
 10 34  1  0
 11 35  1  0
 11 36  1  0
 12 37  1  0
 12 38  1  0
 13 39  1  0
 16 40  1  0
 16 41  1  0
 16 42  1  0
 18 43  1  0
 19 44  1  0
 19 45  1  0
 20 46  1  0
 20 47  1  0
 22 48  1  0
 22 49  1  0
 23 50  1  0
 23 51  1  0
 24 52  1  0
 24 53  1  0
 26 54  1  0
 26 55  1  0
 26 56  1  0
 27 57  1  0
M  END
$$$$
