
     RDKit          3D

 31 32  0  0  0  0  0  0  0  0999 V2000
   -4.1647    0.9291    0.8899 O   0  0  0  0  0  0  0  0  0  0  0  0
   -4.1697    1.0221   -0.3277 C   0  0  0  0  0  0  0  0  0  0  0  0
   -5.1207    1.7495   -0.9512 O   0  0  0  0  0  0  0  0  0  0  0  0
   -3.1997    0.3862   -1.3055 C   0  0  0  0  0  0  0  0  0  0  0  0
   -2.1772   -0.3232   -0.5628 N   0  0  0  0  0  0  0  0  0  0  0  0
   -2.3244   -1.6042   -0.1293 C   0  0  0  0  0  0  0  0  0  0  0  0
   -3.2424   -2.3629   -0.3982 O   0  0  0  0  0  0  0  0  0  0  0  0
   -1.1846   -1.9334    0.7870 C   0  0  0  0  0  0  0  0  0  0  0  0
   -0.2070   -0.7664    0.6205 C   0  0  0  0  0  0  0  0  0  0  0  0
    1.0013   -1.1550   -0.2414 C   0  0  0  0  0  0  0  0  0  0  0  0
    2.2016   -0.2710    0.0093 C   0  0  0  0  0  0  0  0  0  0  0  0
    2.4109    0.8858   -0.7536 C   0  0  0  0  0  0  0  0  0  0  0  0
    3.5149    1.7059   -0.5089 C   0  0  0  0  0  0  0  0  0  0  0  0
    4.4146    1.3734    0.5005 C   0  0  0  0  0  0  0  0  0  0  0  0
    5.7754    2.3826    0.8013 Cl  0  0  0  0  0  0  0  0  0  0  0  0
    4.2182    0.2292    1.2700 C   0  0  0  0  0  0  0  0  0  0  0  0
    3.1132   -0.5899    1.0268 C   0  0  0  0  0  0  0  0  0  0  0  0
   -1.0486    0.2724   -0.0842 C   0  0  0  0  0  0  0  0  0  0  0  0
   -0.7438    1.4453   -0.2378 O   0  0  0  0  0  0  0  0  0  0  0  0
   -5.6723    2.0996   -0.2192 H   0  0  0  0  0  0  0  0  0  0  0  0
   -2.7332    1.1729   -1.9058 H   0  0  0  0  0  0  0  0  0  0  0  0
   -3.7469   -0.3168   -1.9404 H   0  0  0  0  0  0  0  0  0  0  0  0
   -0.7538   -2.9037    0.5263 H   0  0  0  0  0  0  0  0  0  0  0  0
   -1.5692   -1.9728    1.8119 H   0  0  0  0  0  0  0  0  0  0  0  0
    0.0918   -0.3949    1.6071 H   0  0  0  0  0  0  0  0  0  0  0  0
    1.3046   -2.1887   -0.0295 H   0  0  0  0  0  0  0  0  0  0  0  0
    0.7519   -1.1325   -1.3105 H   0  0  0  0  0  0  0  0  0  0  0  0
    1.7095    1.1667   -1.5370 H   0  0  0  0  0  0  0  0  0  0  0  0
    3.6611    2.6027   -1.1047 H   0  0  0  0  0  0  0  0  0  0  0  0
    4.9185   -0.0291    2.0596 H   0  0  0  0  0  0  0  0  0  0  0  0
    2.9708   -1.4789    1.6375 H   0  0  0  0  0  0  0  0  0  0  0  0
  1  2  2  0
  2  3  1  0
  2  4  1  0
  4  5  1  0
  5  6  1  0
  6  7  2  0
  6  8  1  0
  8  9  1  0
  9 10  1  0
 10 11  1  0
 11 12  2  0
 12 13  1  0
 13 14  2  0
 14 15  1  0
 14 16  1  0
 16 17  2  0
  9 18  1  0
 18 19  2  0
 18  5  1  0
 17 11  1  0
  3 20  1  0
  4 21  1  0
  4 22  1  0
  8 23  1  0
  8 24  1  0
  9 25  1  0
 10 26  1  0
 10 27  1  0
 12 28  1  0
 13 29  1  0
 16 30  1  0
 17 31  1  0
M  END
$$$$
