
     RDKit          3D

 35 36  0  0  0  0  0  0  0  0999 V2000
    6.1364    1.0899   -0.0570 C   0  0  0  0  0  0  0  0  0  0  0  0
    5.3985    0.9959    1.0574 C   0  0  0  0  0  0  0  0  0  0  0  0
    4.0788    0.3114    1.1576 C   0  0  0  0  0  0  0  0  0  0  0  0
    3.7805   -0.2219    2.2188 O   0  0  0  0  0  0  0  0  0  0  0  0
    3.3006    0.4242    0.0277 N   0  0  0  0  0  0  0  0  0  0  0  0
    2.0255   -0.1362   -0.1905 C   0  0  0  0  0  0  0  0  0  0  0  0
    1.3758    0.1981   -1.3874 C   0  0  0  0  0  0  0  0  0  0  0  0
    0.1089   -0.3150   -1.6806 C   0  0  0  0  0  0  0  0  0  0  0  0
   -0.5209   -1.1614   -0.7663 C   0  0  0  0  0  0  0  0  0  0  0  0
   -2.1195   -1.8504   -1.1499 S   0  0  0  0  0  6  0  0  0  0  0  0
   -2.2291   -3.1094   -0.4439 O   0  0  0  0  0  0  0  0  0  0  0  0
   -2.2840   -1.7789   -2.5871 O   0  0  0  0  0  0  0  0  0  0  0  0
   -3.1992   -0.7661   -0.4524 N   0  0  0  0  0  0  0  0  0  0  0  0
   -3.3283   -0.7058    1.0156 C   0  0  0  0  0  0  0  0  0  0  0  0
   -4.0403    0.6181    1.2584 C   0  0  0  0  0  0  0  0  0  0  0  0
   -3.4469    1.5089    0.1828 C   0  0  0  0  0  0  0  0  0  0  0  0
   -3.3633    0.5845   -1.0259 C   0  0  0  0  0  0  0  0  0  0  0  0
    0.1307   -1.5322    0.4111 C   0  0  0  0  0  0  0  0  0  0  0  0
    1.3964   -1.0103    0.7003 C   0  0  0  0  0  0  0  0  0  0  0  0
    5.8301    0.6649   -1.0066 H   0  0  0  0  0  0  0  0  0  0  0  0
    7.1096    1.5716   -0.0241 H   0  0  0  0  0  0  0  0  0  0  0  0
    5.7789    1.3651    2.0053 H   0  0  0  0  0  0  0  0  0  0  0  0
    3.6571    1.0148   -0.7109 H   0  0  0  0  0  0  0  0  0  0  0  0
    1.8474    0.8587   -2.1108 H   0  0  0  0  0  0  0  0  0  0  0  0
   -0.3717   -0.0572   -2.6219 H   0  0  0  0  0  0  0  0  0  0  0  0
   -3.9135   -1.5473    1.3956 H   0  0  0  0  0  0  0  0  0  0  0  0
   -2.3488   -0.6928    1.5007 H   0  0  0  0  0  0  0  0  0  0  0  0
   -3.8761    1.0032    2.2685 H   0  0  0  0  0  0  0  0  0  0  0  0
   -5.1198    0.5049    1.1018 H   0  0  0  0  0  0  0  0  0  0  0  0
   -4.0497    2.3999   -0.0132 H   0  0  0  0  0  0  0  0  0  0  0  0
   -2.4414    1.8331    0.4776 H   0  0  0  0  0  0  0  0  0  0  0  0
   -2.5472    0.8820   -1.6874 H   0  0  0  0  0  0  0  0  0  0  0  0
   -4.2980    0.6061   -1.5965 H   0  0  0  0  0  0  0  0  0  0  0  0
   -0.3305   -2.2292    1.1079 H   0  0  0  0  0  0  0  0  0  0  0  0
    1.8730   -1.3212    1.6256 H   0  0  0  0  0  0  0  0  0  0  0  0
  1  2  2  3
  2  3  1  0
  3  4  2  0
  3  5  1  0
  5  6  1  0
  6  7  2  0
  7  8  1  0
  8  9  2  0
  9 10  1  0
 10 11  2  0
 10 12  2  0
 10 13  1  0
 13 14  1  0
 14 15  1  0
 15 16  1  0
 16 17  1  0
  9 18  1  0
 18 19  2  0
 19  6  1  0
 17 13  1  0
  1 20  1  0
  1 21  1  0
  2 22  1  0
  5 23  1  0
  7 24  1  0
  8 25  1  0
 14 26  1  0
 14 27  1  0
 15 28  1  0
 15 29  1  0
 16 30  1  0
 16 31  1  0
 17 32  1  0
 17 33  1  0
 18 34  1  0
 19 35  1  0
M  END
$$$$
