
     RDKit          3D

 34 36  0  0  0  0  0  0  0  0999 V2000
    4.8023   -1.1719   -0.5784 C   0  0  0  0  0  0  0  0  0  0  0  0
    4.6459    0.3075   -0.2619 C   0  0  0  0  0  0  0  0  0  0  0  0
    3.1992    0.6908   -0.0814 C   0  0  0  0  0  0  0  0  0  0  0  0
    2.4327    1.1089   -1.1769 C   0  0  0  0  0  0  0  0  0  0  0  0
    1.0893    1.4535   -1.0089 C   0  0  0  0  0  0  0  0  0  0  0  0
    0.4887    1.3680    0.2483 C   0  0  0  0  0  0  0  0  0  0  0  0
   -0.8561    1.7146    0.4141 N   0  0  0  0  0  0  0  0  0  0  0  0
   -1.7750    0.8059    0.2908 C   0  0  0  0  0  0  0  0  0  0  0  0
   -1.5935   -0.6595   -0.0246 C   0  0  0  0  0  0  0  0  0  0  0  0
   -2.6569   -1.4833   -0.1203 C   0  0  0  0  0  0  0  0  0  0  0  0
   -2.4911   -2.9440   -0.4337 C   0  0  0  0  0  0  0  0  0  0  0  0
   -3.9452   -1.0196    0.0658 N   0  0  0  0  0  0  0  0  0  0  0  0
   -4.1949    0.2725    0.3502 C   0  0  0  0  0  0  0  0  0  0  0  0
   -5.3234    0.9014    0.5591 N   0  0  0  0  0  0  0  0  0  0  0  0
   -4.9058    2.1831    0.7946 C   0  0  0  0  0  0  0  0  0  0  0  0
   -3.5878    2.3921    0.7455 N   0  0  0  0  0  0  0  0  0  0  0  0
   -3.1314    1.1454    0.4560 N   0  0  0  0  0  0  0  0  0  0  0  0
    1.2542    0.9673    1.3449 C   0  0  0  0  0  0  0  0  0  0  0  0
    2.5980    0.6216    1.1820 C   0  0  0  0  0  0  0  0  0  0  0  0
    4.3996   -1.7954    0.2271 H   0  0  0  0  0  0  0  0  0  0  0  0
    5.8605   -1.4221   -0.7042 H   0  0  0  0  0  0  0  0  0  0  0  0
    4.2784   -1.4381   -1.5028 H   0  0  0  0  0  0  0  0  0  0  0  0
    5.2092    0.5540    0.6463 H   0  0  0  0  0  0  0  0  0  0  0  0
    5.0893    0.9076   -1.0658 H   0  0  0  0  0  0  0  0  0  0  0  0
    2.8787    1.1785   -2.1664 H   0  0  0  0  0  0  0  0  0  0  0  0
    0.5074    1.7957   -1.8603 H   0  0  0  0  0  0  0  0  0  0  0  0
   -0.5818   -1.0178   -0.1695 H   0  0  0  0  0  0  0  0  0  0  0  0
   -3.0212   -3.1963   -1.3580 H   0  0  0  0  0  0  0  0  0  0  0  0
   -2.8994   -3.5549    0.3782 H   0  0  0  0  0  0  0  0  0  0  0  0
   -1.4397   -3.2210   -0.5647 H   0  0  0  0  0  0  0  0  0  0  0  0
   -4.7154   -1.6766   -0.0160 H   0  0  0  0  0  0  0  0  0  0  0  0
   -5.5901    2.9944    1.0102 H   0  0  0  0  0  0  0  0  0  0  0  0
    0.8011    0.9298    2.3317 H   0  0  0  0  0  0  0  0  0  0  0  0
    3.1741    0.3077    2.0494 H   0  0  0  0  0  0  0  0  0  0  0  0
  1  2  1  0
  2  3  1  0
  3  4  2  0
  4  5  1  0
  5  6  2  0
  6  7  1  0
  7  8  2  0
  8  9  1  0
  9 10  2  0
 10 11  1  0
 10 12  1  0
 12 13  1  0
 13 14  2  0
 14 15  1  0
 15 16  2  0
 16 17  1  0
  6 18  1  0
 18 19  2  0
 19  3  1  0
 17  8  1  0
 17 13  1  0
  1 20  1  0
  1 21  1  0
  1 22  1  0
  2 23  1  0
  2 24  1  0
  4 25  1  0
  5 26  1  0
  9 27  1  0
 11 28  1  0
 11 29  1  0
 11 30  1  0
 12 31  1  0
 15 32  1  0
 18 33  1  0
 19 34  1  0
M  END
$$$$
