
     RDKit          3D

 67 69  0  0  0  0  0  0  0  0999 V2000
    1.3871   -1.2881   -4.3806 C   0  0  0  0  0  0  0  0  0  0  0  0
    0.6899   -0.7531   -3.1245 C   0  0  2  0  0  0  0  0  0  0  0  0
   -0.7995   -1.1840   -3.1645 C   0  0  0  0  0  0  0  0  0  0  0  0
   -1.5621   -0.8906   -1.8900 C   0  0  0  0  0  0  0  0  0  0  0  0
   -1.3244   -1.6319   -0.7311 C   0  0  0  0  0  0  0  0  0  0  0  0
   -2.0490   -1.3297    0.4160 C   0  0  0  0  0  0  0  0  0  0  0  0
   -3.0231   -0.3143    0.4726 C   0  0  0  0  0  0  0  0  0  0  0  0
   -3.2163    0.4632   -0.6710 C   0  0  0  0  0  0  0  0  0  0  0  0
   -4.0750    1.6689   -0.7180 C   0  0  0  0  0  0  0  0  0  0  0  0
   -4.9833    1.7112   -1.7420 N   0  0  0  0  0  0  0  0  0  0  0  0
   -3.9890    2.5817    0.0910 O   0  0  0  0  0  0  0  0  0  0  0  0
   -2.4960    0.1602   -1.8471 C   0  0  0  0  0  0  0  0  0  0  0  0
   -3.6121   -0.2490    1.7559 N   0  0  0  0  0  0  0  0  0  0  0  0
   -5.0272    0.1039    1.8983 C   0  0  0  0  0  0  0  0  0  0  0  0
   -5.3250    0.6228    3.3038 C   0  0  0  0  0  0  0  0  0  0  0  0
   -4.5548    1.8949    3.6323 C   0  0  0  0  0  0  0  0  0  0  0  0
   -4.9551    2.3635    4.9196 O   0  0  0  0  0  0  0  0  0  0  0  0
   -3.1759   -1.4927    2.4310 C   0  0  0  0  0  0  0  0  0  0  0  0
   -1.8860   -1.9575    1.7589 C   0  0  0  0  0  0  0  0  0  0  0  0
    0.7932    0.7166   -3.0516 N   0  0  0  0  0  0  0  0  0  0  0  0
    2.1334    1.2158   -2.6930 C   0  0  0  0  0  0  0  0  0  0  0  0
    2.4816    1.1458   -1.1949 C   0  0  0  0  0  0  0  0  0  0  0  0
    2.7984   -0.2026   -0.8301 O   0  0  0  0  0  0  0  0  0  0  0  0
    3.1909   -0.2572    0.4835 C   0  0  0  0  0  0  0  0  0  0  0  0
    2.2124   -0.4570    1.4585 C   0  0  0  0  0  0  0  0  0  0  0  0
    2.5853   -0.5490    2.7963 C   0  0  0  0  0  0  0  0  0  0  0  0
    3.9315   -0.4555    3.1491 C   0  0  0  0  0  0  0  0  0  0  0  0
    4.9121   -0.2741    2.1660 C   0  0  0  0  0  0  0  0  0  0  0  0
    4.5506   -0.1805    0.8201 C   0  0  0  0  0  0  0  0  0  0  0  0
    5.4178    0.0046   -0.2236 O   0  0  0  0  0  0  0  0  0  0  0  0
    6.8180   -0.0369    0.0622 C   0  0  0  0  0  0  0  0  0  0  0  0
    7.6256    0.1251   -1.2161 C   0  0  0  0  0  0  0  0  0  0  0  0
    7.3635   -0.8525   -2.1104 F   0  0  0  0  0  0  0  0  0  0  0  0
    8.9520    0.0707   -0.9383 F   0  0  0  0  0  0  0  0  0  0  0  0
    7.3899    1.3158   -1.8109 F   0  0  0  0  0  0  0  0  0  0  0  0
    0.9745   -0.8374   -5.2911 H   0  0  0  0  0  0  0  0  0  0  0  0
    1.2576   -2.3741   -4.4585 H   0  0  0  0  0  0  0  0  0  0  0  0
    2.4643   -1.0978   -4.3652 H   0  0  0  0  0  0  0  0  0  0  0  0
    1.1466   -1.2187   -2.2462 H   0  0  0  0  0  0  0  0  0  0  0  0
   -1.3043   -0.7113   -4.0183 H   0  0  0  0  0  0  0  0  0  0  0  0
   -0.8685   -2.2653   -3.3466 H   0  0  0  0  0  0  0  0  0  0  0  0
   -0.5817   -2.4251   -0.7175 H   0  0  0  0  0  0  0  0  0  0  0  0
   -5.6129    2.5015   -1.7750 H   0  0  0  0  0  0  0  0  0  0  0  0
   -5.1456    0.9310   -2.3627 H   0  0  0  0  0  0  0  0  0  0  0  0
   -2.6326    0.7805   -2.7322 H   0  0  0  0  0  0  0  0  0  0  0  0
   -5.6486   -0.7792    1.6998 H   0  0  0  0  0  0  0  0  0  0  0  0
   -5.3564    0.8653    1.1909 H   0  0  0  0  0  0  0  0  0  0  0  0
   -5.1048   -0.1422    4.0589 H   0  0  0  0  0  0  0  0  0  0  0  0
   -6.4009    0.8197    3.3920 H   0  0  0  0  0  0  0  0  0  0  0  0
   -4.7461    2.6868    2.9014 H   0  0  0  0  0  0  0  0  0  0  0  0
   -3.4771    1.7095    3.6680 H   0  0  0  0  0  0  0  0  0  0  0  0
   -5.8527    2.7254    4.8214 H   0  0  0  0  0  0  0  0  0  0  0  0
   -3.0259   -1.3312    3.5035 H   0  0  0  0  0  0  0  0  0  0  0  0
   -3.9442   -2.2693    2.3163 H   0  0  0  0  0  0  0  0  0  0  0  0
   -1.8153   -3.0463    1.7203 H   0  0  0  0  0  0  0  0  0  0  0  0
   -1.0087   -1.5397    2.2621 H   0  0  0  0  0  0  0  0  0  0  0  0
    0.1342    1.0569   -2.3497 H   0  0  0  0  0  0  0  0  0  0  0  0
    2.1446    2.2751   -2.9790 H   0  0  0  0  0  0  0  0  0  0  0  0
    2.9134    0.7289   -3.2881 H   0  0  0  0  0  0  0  0  0  0  0  0
    1.6421    1.5199   -0.5957 H   0  0  0  0  0  0  0  0  0  0  0  0
    3.3497    1.7925   -1.0151 H   0  0  0  0  0  0  0  0  0  0  0  0
    1.1673   -0.5329    1.1741 H   0  0  0  0  0  0  0  0  0  0  0  0
    1.8278   -0.6909    3.5626 H   0  0  0  0  0  0  0  0  0  0  0  0
    4.2210   -0.5183    4.1950 H   0  0  0  0  0  0  0  0  0  0  0  0
    5.9445   -0.2057    2.4911 H   0  0  0  0  0  0  0  0  0  0  0  0
    7.0819    0.7812    0.7419 H   0  0  0  0  0  0  0  0  0  0  0  0
    7.0775   -0.9975    0.5215 H   0  0  0  0  0  0  0  0  0  0  0  0
  1  2  1  0
  2  3  1  0
  3  4  1  0
  4  5  2  0
  5  6  1  0
  6  7  2  0
  7  8  1  0
  8  9  1  0
  9 10  1  0
  9 11  2  0
  8 12  2  0
  7 13  1  0
 13 14  1  0
 14 15  1  0
 15 16  1  0
 16 17  1  0
 13 18  1  0
 18 19  1  0
  2 20  1  0
 20 21  1  0
 21 22  1  0
 22 23  1  0
 23 24  1  0
 24 25  2  0
 25 26  1  0
 26 27  2  0
 27 28  1  0
 28 29  2  0
 29 30  1  0
 30 31  1  0
 31 32  1  0
 32 33  1  0
 32 34  1  0
 32 35  1  0
 12  4  1  0
 29 24  1  0
 19  6  1  0
  1 36  1  0
  1 37  1  0
  1 38  1  0
  2 39  1  1
  3 40  1  0
  3 41  1  0
  5 42  1  0
 10 43  1  0
 10 44  1  0
 12 45  1  0
 14 46  1  0
 14 47  1  0
 15 48  1  0
 15 49  1  0
 16 50  1  0
 16 51  1  0
 17 52  1  0
 18 53  1  0
 18 54  1  0
 19 55  1  0
 19 56  1  0
 20 57  1  0
 21 58  1  0
 21 59  1  0
 22 60  1  0
 22 61  1  0
 25 62  1  0
 26 63  1  0
 27 64  1  0
 28 65  1  0
 31 66  1  0
 31 67  1  0
M  END
$$$$
