
     RDKit          3D

 74 77  0  0  0  0  0  0  0  0999 V2000
    9.8945    0.6349    0.9085 C   0  0  0  0  0  0  0  0  0  0  0  0
    9.3570    1.2239   -0.3800 C   0  0  0  0  0  0  0  0  0  0  0  0
    7.8459    1.3655   -0.2467 C   0  0  0  0  0  0  0  0  0  0  0  0
    7.3453    0.0691   -0.0278 O   0  0  0  0  0  0  0  0  0  0  0  0
    5.9880   -0.1127    0.1439 C   0  0  0  0  0  0  0  0  0  0  0  0
    5.1515    0.9846    0.1002 C   0  0  0  0  0  0  0  0  0  0  0  0
    3.7836    0.8493    0.2681 C   0  0  0  0  0  0  0  0  0  0  0  0
    3.2022   -0.3770    0.4845 C   0  0  0  0  0  0  0  0  0  0  0  0
    1.7332   -0.5752    0.6790 C   0  0  0  0  0  0  0  0  0  0  0  0
    1.1436   -0.7916   -0.6936 C   0  0  0  0  0  0  0  0  0  0  0  0
   -0.3257   -1.0305   -0.6725 C   0  0  0  0  0  0  0  0  0  0  0  0
   -0.8355   -2.2839   -0.5020 N   0  0  0  0  0  0  0  0  0  0  0  0
   -2.1674   -2.1773   -0.5574 C   0  0  0  0  0  0  0  0  0  0  0  0
   -3.1704   -3.1388   -0.4427 C   0  0  0  0  0  0  0  0  0  0  0  0
   -4.5042   -2.8038   -0.5295 C   0  0  0  0  0  0  0  0  0  0  0  0
   -5.4985   -3.8544   -0.4001 C   0  0  0  0  0  0  0  0  0  0  0  0
   -5.8962   -4.7261   -1.4169 C   0  0  0  0  0  0  0  0  0  0  0  0
   -5.3655   -4.7164   -2.7981 C   0  0  0  0  0  0  0  0  0  0  0  0
   -6.8180   -5.5160   -0.8524 N   0  0  0  0  0  0  0  0  0  0  0  0
   -6.9893   -5.1819    0.3942 O   0  0  0  0  0  0  0  0  0  0  0  0
   -6.2265   -4.1912    0.7271 C   0  0  0  0  0  0  0  0  0  0  0  0
   -6.1355   -3.5276    2.0632 C   0  0  0  0  0  0  0  0  0  0  0  0
   -4.8024   -1.4760   -0.7351 C   0  0  0  0  0  0  0  0  0  0  0  0
   -3.8011   -0.5054   -0.8513 C   0  0  0  0  0  0  0  0  0  0  0  0
   -2.4837   -0.8735   -0.7599 C   0  0  0  0  0  0  0  0  0  0  0  0
   -1.3264   -0.1459   -0.8333 N   0  0  0  0  0  0  0  0  0  0  0  0
   -1.2521    1.2822   -1.0726 C   0  0  0  0  0  0  0  0  0  0  0  0
   -1.3542    2.0003    0.2237 C   0  0  0  0  0  0  0  0  0  0  0  0
   -1.2958    3.4413    0.0889 N   0  0  0  0  0  0  0  0  0  0  0  0
   -2.4620    3.9784   -0.5764 C   0  0  0  0  0  0  0  0  0  0  0  0
   -3.6705    4.0103    0.3298 C   0  0  0  0  0  0  0  0  0  0  0  0
   -3.4350    4.6937    1.5075 O   0  0  0  0  0  0  0  0  0  0  0  0
   -2.1346    5.1455    1.6317 C   0  0  0  0  0  0  0  0  0  0  0  0
   -1.1462    4.0354    1.4014 C   0  0  0  0  0  0  0  0  0  0  0  0
    4.0581   -1.4666    0.5250 C   0  0  0  0  0  0  0  0  0  0  0  0
    5.4127   -1.3357    0.3591 C   0  0  0  0  0  0  0  0  0  0  0  0
    0.6871    0.0000    0.0000 Cl  0  0  0  0  0  0  0  0  0  0  0  0
    9.0428    0.2534    1.5277 H   0  0  0  0  0  0  0  0  0  0  0  0
   10.6183   -0.1664    0.7435 H   0  0  0  0  0  0  0  0  0  0  0  0
   10.3465    1.4643    1.5190 H   0  0  0  0  0  0  0  0  0  0  0  0
    9.7613    2.2423   -0.5137 H   0  0  0  0  0  0  0  0  0  0  0  0
    9.6271    0.5973   -1.2574 H   0  0  0  0  0  0  0  0  0  0  0  0
    7.6443    2.0798    0.5712 H   0  0  0  0  0  0  0  0  0  0  0  0
    7.3978    1.7779   -1.1682 H   0  0  0  0  0  0  0  0  0  0  0  0
    5.5378    1.9983   -0.0679 H   0  0  0  0  0  0  0  0  0  0  0  0
    3.1284    1.7159    0.2336 H   0  0  0  0  0  0  0  0  0  0  0  0
    1.5354   -1.5054    1.2562 H   0  0  0  0  0  0  0  0  0  0  0  0
    1.3350    0.3203    1.1421 H   0  0  0  0  0  0  0  0  0  0  0  0
    1.3816    0.0722   -1.3572 H   0  0  0  0  0  0  0  0  0  0  0  0
    1.6086   -1.6680   -1.2001 H   0  0  0  0  0  0  0  0  0  0  0  0
   -2.9077   -4.1812   -0.2800 H   0  0  0  0  0  0  0  0  0  0  0  0
   -5.7600   -3.8245   -3.3054 H   0  0  0  0  0  0  0  0  0  0  0  0
   -4.2478   -4.6120   -2.7898 H   0  0  0  0  0  0  0  0  0  0  0  0
   -5.5935   -5.6590   -3.3196 H   0  0  0  0  0  0  0  0  0  0  0  0
   -7.1399   -3.2979    2.4675 H   0  0  0  0  0  0  0  0  0  0  0  0
   -5.6409   -4.2753    2.7327 H   0  0  0  0  0  0  0  0  0  0  0  0
   -5.4763   -2.6521    2.0119 H   0  0  0  0  0  0  0  0  0  0  0  0
   -5.8323   -1.1720   -0.8098 H   0  0  0  0  0  0  0  0  0  0  0  0
   -4.0367    0.5436   -1.0139 H   0  0  0  0  0  0  0  0  0  0  0  0
   -2.0528    1.5353   -1.7941 H   0  0  0  0  0  0  0  0  0  0  0  0
   -0.2447    1.4787   -1.4941 H   0  0  0  0  0  0  0  0  0  0  0  0
   -0.5093    1.7155    0.8705 H   0  0  0  0  0  0  0  0  0  0  0  0
   -2.2775    1.7013    0.8040 H   0  0  0  0  0  0  0  0  0  0  0  0
   -2.2262    5.0262   -0.8398 H   0  0  0  0  0  0  0  0  0  0  0  0
   -2.7274    3.4438   -1.4852 H   0  0  0  0  0  0  0  0  0  0  0  0
   -4.0407    3.0040    0.5714 H   0  0  0  0  0  0  0  0  0  0  0  0
   -4.4789    4.5385   -0.2174 H   0  0  0  0  0  0  0  0  0  0  0  0
   -1.9048    6.0283    1.0117 H   0  0  0  0  0  0  0  0  0  0  0  0
   -2.0167    5.4770    2.6933 H   0  0  0  0  0  0  0  0  0  0  0  0
   -1.2253    3.2828    2.2124 H   0  0  0  0  0  0  0  0  0  0  0  0
   -0.1255    4.4828    1.4487 H   0  0  0  0  0  0  0  0  0  0  0  0
    3.6341   -2.4678    0.6955 H   0  0  0  0  0  0  0  0  0  0  0  0
    6.0472   -2.2048    0.3958 H   0  0  0  0  0  0  0  0  0  0  0  0
   -0.6871    0.0000    0.0000 H   0  0  0  0  0  0  0  0  0  0  0  0
  1  2  1  0
  2  3  1  0
  3  4  1  0
  4  5  1  0
  5  6  2  0
  6  7  1  0
  7  8  2  0
  8  9  1  0
  9 10  1  0
 10 11  1  0
 11 12  2  0
 12 13  1  0
 13 14  2  0
 14 15  1  0
 15 16  1  0
 16 17  1  0
 17 18  1  0
 17 19  2  0
 19 20  1  0
 20 21  1  0
 21 22  1  0
 15 23  2  0
 23 24  1  0
 24 25  2  0
 25 26  1  0
 26 27  1  0
 27 28  1  0
 28 29  1  0
 29 30  1  0
 30 31  1  0
 31 32  1  0
 32 33  1  0
 33 34  1  0
  8 35  1  0
 35 36  2  0
 36  5  1  0
 26 11  1  0
 34 29  1  0
 25 13  1  0
 21 16  2  0
  1 38  1  0
  1 39  1  0
  1 40  1  0
  2 41  1  0
  2 42  1  0
  3 43  1  0
  3 44  1  0
  6 45  1  0
  7 46  1  0
  9 47  1  0
  9 48  1  0
 10 49  1  0
 10 50  1  0
 14 51  1  0
 18 52  1  0
 18 53  1  0
 18 54  1  0
 22 55  1  0
 22 56  1  0
 22 57  1  0
 23 58  1  0
 24 59  1  0
 27 60  1  0
 27 61  1  0
 28 62  1  0
 28 63  1  0
 30 64  1  0
 30 65  1  0
 31 66  1  0
 31 67  1  0
 33 68  1  0
 33 69  1  0
 34 70  1  0
 34 71  1  0
 35 72  1  0
 36 73  1  0
 37 74  1  0
M  END
$$$$
