
     RDKit          3D

 41 43  0  0  0  0  0  0  0  0999 V2000
   -1.1046    2.4549    2.9359 C   0  0  0  0  0  0  0  0  0  0  0  0
   -1.3544    1.5503    1.8687 O   0  0  0  0  0  0  0  0  0  0  0  0
   -0.2704    0.9394    1.2968 C   0  0  0  0  0  0  0  0  0  0  0  0
    1.0607    1.2688    1.5595 C   0  0  0  0  0  0  0  0  0  0  0  0
    2.1059    0.5661    0.9443 C   0  0  0  0  0  0  0  0  0  0  0  0
    1.8460   -0.4890    0.0584 C   0  0  0  0  0  0  0  0  0  0  0  0
    2.9525   -1.2847   -0.6156 C   0  0  0  0  0  0  0  0  0  0  0  0
    3.8309   -0.4300   -1.5322 C   0  0  0  0  0  0  0  0  0  0  0  0
    4.9731   -0.1039   -0.7310 N   0  0  0  0  0  0  0  0  0  0  0  0
    5.1307   -0.9633    0.3330 C   0  0  0  0  0  0  0  0  0  0  0  0
    6.0888   -0.9718    1.0854 O   0  0  0  0  0  0  0  0  0  0  0  0
    3.9522   -1.9033    0.3749 C   0  0  0  0  0  0  0  0  0  0  0  0
    0.5083   -0.8100   -0.2098 C   0  0  0  0  0  0  0  0  0  0  0  0
   -0.5342   -0.0893    0.3815 C   0  0  0  0  0  0  0  0  0  0  0  0
   -1.8041   -0.5086    0.0741 O   0  0  0  0  0  0  0  0  0  0  0  0
   -2.5608    0.4886   -0.6277 C   0  0  0  0  0  0  0  0  0  0  0  0
   -3.9461    0.5949    0.0019 C   0  0  0  0  0  0  0  0  0  0  0  0
   -4.7077   -0.6200   -0.5251 C   0  0  0  0  0  0  0  0  0  0  0  0
   -4.0051   -1.0370   -1.8163 C   0  0  0  0  0  0  0  0  0  0  0  0
   -2.8791   -0.0287   -2.0282 C   0  0  0  0  0  0  0  0  0  0  0  0
   -2.0718    2.7773    3.3334 H   0  0  0  0  0  0  0  0  0  0  0  0
   -0.5788    3.3463    2.5789 H   0  0  0  0  0  0  0  0  0  0  0  0
   -0.5555    1.9697    3.7497 H   0  0  0  0  0  0  0  0  0  0  0  0
    1.3267    2.0680    2.2437 H   0  0  0  0  0  0  0  0  0  0  0  0
    3.1274    0.8572    1.1814 H   0  0  0  0  0  0  0  0  0  0  0  0
    2.4852   -2.0847   -1.2038 H   0  0  0  0  0  0  0  0  0  0  0  0
    3.3561    0.4862   -1.8943 H   0  0  0  0  0  0  0  0  0  0  0  0
    4.1913   -1.0124   -2.3870 H   0  0  0  0  0  0  0  0  0  0  0  0
    5.7228    0.5232   -0.9966 H   0  0  0  0  0  0  0  0  0  0  0  0
    4.2939   -2.8818    0.0206 H   0  0  0  0  0  0  0  0  0  0  0  0
    3.5619   -1.9933    1.3922 H   0  0  0  0  0  0  0  0  0  0  0  0
    0.2564   -1.6252   -0.8844 H   0  0  0  0  0  0  0  0  0  0  0  0
   -2.0591    1.4627   -0.6751 H   0  0  0  0  0  0  0  0  0  0  0  0
   -4.4425    1.5118   -0.3371 H   0  0  0  0  0  0  0  0  0  0  0  0
   -3.9202    0.5975    1.0958 H   0  0  0  0  0  0  0  0  0  0  0  0
   -4.6707   -1.4407    0.2005 H   0  0  0  0  0  0  0  0  0  0  0  0
   -5.7626   -0.3816   -0.6951 H   0  0  0  0  0  0  0  0  0  0  0  0
   -3.5957   -2.0480   -1.7058 H   0  0  0  0  0  0  0  0  0  0  0  0
   -4.6919   -1.0536   -2.6685 H   0  0  0  0  0  0  0  0  0  0  0  0
   -3.2372    0.7929   -2.6599 H   0  0  0  0  0  0  0  0  0  0  0  0
   -2.0183   -0.4950   -2.5171 H   0  0  0  0  0  0  0  0  0  0  0  0
  1  2  1  0
  2  3  1  0
  3  4  2  0
  4  5  1  0
  5  6  2  0
  6  7  1  0
  7  8  1  0
  8  9  1  0
  9 10  1  0
 10 11  2  0
 10 12  1  0
  6 13  1  0
 13 14  2  0
 14 15  1  0
 15 16  1  0
 16 17  1  0
 17 18  1  0
 18 19  1  0
 19 20  1  0
 14  3  1  0
 20 16  1  0
 12  7  1  0
  1 21  1  0
  1 22  1  0
  1 23  1  0
  4 24  1  0
  5 25  1  0
  7 26  1  0
  8 27  1  0
  8 28  1  0
  9 29  1  0
 12 30  1  0
 12 31  1  0
 13 32  1  0
 16 33  1  0
 17 34  1  0
 17 35  1  0
 18 36  1  0
 18 37  1  0
 19 38  1  0
 19 39  1  0
 20 40  1  0
 20 41  1  0
M  END
$$$$
