
     RDKit          3D

 62 63  0  0  0  0  0  0  0  0999 V2000
    8.6752    0.6532   -0.4577 C   0  0  0  0  0  0  0  0  0  0  0  0
    7.5103    0.4473    0.3455 N   0  0  0  0  0  0  0  0  0  0  0  0
    7.6402    0.4596    1.7883 C   0  0  0  0  0  0  0  0  0  0  0  0
    6.2593    0.2375   -0.2776 C   0  0  0  0  0  0  0  0  0  0  0  0
    6.1651    0.2319   -1.5177 O   0  0  0  0  0  0  0  0  0  0  0  0
    5.1064    0.0325    0.5267 N   0  0  0  0  0  0  0  0  0  0  0  0
    3.7772   -0.1905   -0.0361 C   0  0  1  0  0  0  0  0  0  0  0  0
    3.2643   -1.5803    0.2645 C   0  0  0  0  0  0  0  0  0  0  0  0
    1.7971   -1.5944   -0.1220 C   0  0  0  0  0  0  0  0  0  0  0  0
    1.0602   -0.8273    0.9496 C   0  0  2  0  0  0  0  0  0  0  0  0
   -0.4032   -0.6271    0.6207 C   0  0  0  0  0  0  0  0  0  0  0  0
   -0.6087    0.1385   -0.6556 C   0  0  0  0  0  0  0  0  0  0  0  0
   -2.0055    0.2964   -0.9136 N   0  0  0  0  0  0  0  0  0  0  0  0
   -2.6771    1.1634    0.0278 C   0  0  0  0  0  0  0  0  0  0  0  0
   -4.0267    1.5472   -0.5196 C   0  0  0  0  0  0  0  0  0  0  0  0
   -4.7637    0.3519   -0.8375 N   0  0  0  0  0  0  0  0  0  0  0  0
   -6.1585    0.1889   -0.5132 C   0  0  0  0  0  0  0  0  0  0  0  0
   -7.0670   -0.0258   -1.5273 C   0  0  0  0  0  0  0  0  0  0  0  0
   -8.4152   -0.1900   -1.3035 C   0  0  0  0  0  0  0  0  0  0  0  0
   -8.8773   -0.1372   -0.0031 C   0  0  0  0  0  0  0  0  0  0  0  0
   -7.9798    0.0785    1.0397 C   0  0  0  0  0  0  0  0  0  0  0  0
   -8.5191    0.1532    2.7013 Cl  0  0  0  0  0  0  0  0  0  0  0  0
   -6.6208    0.2412    0.7818 C   0  0  0  0  0  0  0  0  0  0  0  0
   -5.5413    0.5099    2.1312 Cl  0  0  0  0  0  0  0  0  0  0  0  0
   -4.0871   -0.7245   -1.5219 C   0  0  0  0  0  0  0  0  0  0  0  0
   -2.7258   -0.9597   -0.9470 C   0  0  0  0  0  0  0  0  0  0  0  0
    1.7547    0.4565    1.3152 C   0  0  0  0  0  0  0  0  0  0  0  0
    2.8092    0.8819    0.3442 C   0  0  0  0  0  0  0  0  0  0  0  0
    0.6913    0.0000    0.0000 Cl  0  0  0  0  0  0  0  0  0  0  0  0
    9.6237    0.5597    0.1299 H   0  0  0  0  0  0  0  0  0  0  0  0
    8.5953    1.6479   -0.9375 H   0  0  0  0  0  0  0  0  0  0  0  0
    8.7705   -0.0801   -1.2977 H   0  0  0  0  0  0  0  0  0  0  0  0
    7.1138   -0.4328    2.2198 H   0  0  0  0  0  0  0  0  0  0  0  0
    8.7089    0.4072    2.0771 H   0  0  0  0  0  0  0  0  0  0  0  0
    7.1699    1.3905    2.1784 H   0  0  0  0  0  0  0  0  0  0  0  0
    5.2454    0.0472    1.5601 H   0  0  0  0  0  0  0  0  0  0  0  0
    3.9093   -0.1472   -1.1402 H   0  0  0  0  0  0  0  0  0  0  0  0
    3.7857   -2.2848   -0.4114 H   0  0  0  0  0  0  0  0  0  0  0  0
    3.4250   -1.8908    1.2956 H   0  0  0  0  0  0  0  0  0  0  0  0
    1.4135   -2.6279   -0.1206 H   0  0  0  0  0  0  0  0  0  0  0  0
    1.7175   -1.1530   -1.1192 H   0  0  0  0  0  0  0  0  0  0  0  0
    1.0794   -1.4796    1.8642 H   0  0  0  0  0  0  0  0  0  0  0  0
   -0.8534   -1.6265    0.5101 H   0  0  0  0  0  0  0  0  0  0  0  0
   -0.8390   -0.0471    1.4567 H   0  0  0  0  0  0  0  0  0  0  0  0
   -0.2009   -0.5057   -1.4802 H   0  0  0  0  0  0  0  0  0  0  0  0
   -0.0650    1.0805   -0.6926 H   0  0  0  0  0  0  0  0  0  0  0  0
   -2.8153    0.5693    0.9521 H   0  0  0  0  0  0  0  0  0  0  0  0
   -2.0654    2.0536    0.2872 H   0  0  0  0  0  0  0  0  0  0  0  0
   -4.5845    2.2172    0.1671 H   0  0  0  0  0  0  0  0  0  0  0  0
   -3.8521    2.0629   -1.5110 H   0  0  0  0  0  0  0  0  0  0  0  0
   -6.7393   -0.0738   -2.5645 H   0  0  0  0  0  0  0  0  0  0  0  0
   -9.1217   -0.3581   -2.1076 H   0  0  0  0  0  0  0  0  0  0  0  0
   -9.9243   -0.2580    0.2490 H   0  0  0  0  0  0  0  0  0  0  0  0
   -3.9472   -0.3683   -2.5846 H   0  0  0  0  0  0  0  0  0  0  0  0
   -4.6922   -1.6535   -1.5474 H   0  0  0  0  0  0  0  0  0  0  0  0
   -2.8284   -1.3362    0.0891 H   0  0  0  0  0  0  0  0  0  0  0  0
   -2.1670   -1.6817   -1.5959 H   0  0  0  0  0  0  0  0  0  0  0  0
    0.9677    1.2582    1.3154 H   0  0  0  0  0  0  0  0  0  0  0  0
    2.1289    0.4475    2.3814 H   0  0  0  0  0  0  0  0  0  0  0  0
    2.3093    1.3506   -0.5310 H   0  0  0  0  0  0  0  0  0  0  0  0
    3.3895    1.7003    0.8266 H   0  0  0  0  0  0  0  0  0  0  0  0
   -0.6913    0.0000    0.0000 H   0  0  0  0  0  0  0  0  0  0  0  0
  1  2  1  0
  2  3  1  0
  2  4  1  0
  4  5  2  0
  4  6  1  0
  6  7  1  0
  7  8  1  0
  8  9  1  0
  9 10  1  0
 10 11  1  0
 11 12  1  0
 12 13  1  0
 13 14  1  0
 14 15  1  0
 15 16  1  0
 16 17  1  0
 17 18  2  0
 18 19  1  0
 19 20  2  0
 20 21  1  0
 21 22  1  0
 21 23  2  0
 23 24  1  0
 16 25  1  0
 25 26  1  0
 10 27  1  0
 27 28  1  0
 28  7  1  0
 26 13  1  0
 23 17  1  0
  1 30  1  0
  1 31  1  0
  1 32  1  0
  3 33  1  0
  3 34  1  0
  3 35  1  0
  6 36  1  0
  7 37  1  6
  8 38  1  0
  8 39  1  0
  9 40  1  0
  9 41  1  0
 10 42  1  1
 11 43  1  0
 11 44  1  0
 12 45  1  0
 12 46  1  0
 14 47  1  0
 14 48  1  0
 15 49  1  0
 15 50  1  0
 18 51  1  0
 19 52  1  0
 20 53  1  0
 25 54  1  0
 25 55  1  0
 26 56  1  0
 26 57  1  0
 27 58  1  0
 27 59  1  0
 28 60  1  0
 28 61  1  0
 29 62  1  0
M  END
$$$$
