
     RDKit          3D

 50 52  0  0  0  0  0  0  0  0999 V2000
   -3.8315   -2.5409   -3.2030 C   0  0  0  0  0  0  0  0  0  0  0  0
   -3.1385   -1.8569   -2.0324 C   0  0  0  0  0  0  0  0  0  0  0  0
   -2.3570   -0.6156   -2.4744 C   0  0  0  0  0  0  0  0  0  0  0  0
   -3.2009    0.2234   -3.1454 F   0  0  0  0  0  0  0  0  0  0  0  0
   -1.4442   -1.0140   -3.4131 F   0  0  0  0  0  0  0  0  0  0  0  0
   -1.6914    0.0602   -1.2945 C   0  0  0  0  0  0  0  0  0  0  0  0
   -0.3290   -0.2029   -1.0428 C   0  0  0  0  0  0  0  0  0  0  0  0
    0.3338    0.3492    0.0527 C   0  0  0  0  0  0  0  0  0  0  0  0
    1.7078    0.0441    0.2356 N   0  0  0  0  0  0  0  0  0  0  0  0
    1.9050   -1.3750    0.5748 C   0  0  0  0  0  0  0  0  0  0  0  0
    3.3988   -1.6887    0.5556 C   0  0  0  0  0  0  0  0  0  0  0  0
    4.1644   -0.7458    1.4860 C   0  0  0  0  0  0  0  0  0  0  0  0
    5.9243   -1.0892    1.4973 S   0  0  0  0  0  6  0  0  0  0  0  0
    6.5133   -0.7434   -0.1469 C   0  0  0  0  0  0  0  0  0  0  0  0
    6.0906   -2.5139    1.7239 O   0  0  0  0  0  0  0  0  0  0  0  0
    6.5532   -0.1344    2.3913 O   0  0  0  0  0  0  0  0  0  0  0  0
    3.8625    0.7177    1.1637 C   0  0  0  0  0  0  0  0  0  0  0  0
    2.3572    0.9685    1.1813 C   0  0  0  0  0  0  0  0  0  0  0  0
   -0.2849    1.1682    0.9131 N   0  0  0  0  0  0  0  0  0  0  0  0
   -1.5830    1.4189    0.6649 C   0  0  0  0  0  0  0  0  0  0  0  0
   -2.4532    2.4288    1.7200 S   0  0  0  0  0  0  0  0  0  0  0  0
   -3.8943    2.2629    0.8106 C   0  0  0  0  0  0  0  0  0  0  0  0
   -5.1170    2.9496    1.1966 C   0  0  0  0  0  0  0  0  0  0  0  0
   -5.0899    3.6791    2.3546 N   0  0  0  0  0  0  0  0  0  0  0  0
   -6.1592    2.9243    0.5421 O   0  0  0  0  0  0  0  0  0  0  0  0
   -3.6907    1.4440   -0.2877 C   0  0  0  0  0  0  0  0  0  0  0  0
   -4.6720    1.1559   -1.1805 N   0  0  0  0  0  0  0  0  0  0  0  0
   -2.3483    0.9309   -0.3867 C   0  0  0  0  0  0  0  0  0  0  0  0
   -3.1083   -2.8531   -3.9625 H   0  0  0  0  0  0  0  0  0  0  0  0
   -4.3640   -3.4325   -2.8563 H   0  0  0  0  0  0  0  0  0  0  0  0
   -4.5594   -1.8724   -3.6738 H   0  0  0  0  0  0  0  0  0  0  0  0
   -3.8981   -1.5931   -1.2875 H   0  0  0  0  0  0  0  0  0  0  0  0
   -2.4573   -2.5765   -1.5628 H   0  0  0  0  0  0  0  0  0  0  0  0
    0.2265   -0.8364   -1.7320 H   0  0  0  0  0  0  0  0  0  0  0  0
    1.4148   -2.0393   -0.1454 H   0  0  0  0  0  0  0  0  0  0  0  0
    1.4857   -1.5950    1.5656 H   0  0  0  0  0  0  0  0  0  0  0  0
    3.5531   -2.7316    0.8545 H   0  0  0  0  0  0  0  0  0  0  0  0
    3.7700   -1.5949   -0.4711 H   0  0  0  0  0  0  0  0  0  0  0  0
    3.8447   -0.9480    2.5177 H   0  0  0  0  0  0  0  0  0  0  0  0
    5.9989   -1.3864   -0.8614 H   0  0  0  0  0  0  0  0  0  0  0  0
    7.5838   -0.9625   -0.1672 H   0  0  0  0  0  0  0  0  0  0  0  0
    6.3552    0.3107   -0.3761 H   0  0  0  0  0  0  0  0  0  0  0  0
    4.3512    1.3801    1.8870 H   0  0  0  0  0  0  0  0  0  0  0  0
    4.2565    0.9809    0.1743 H   0  0  0  0  0  0  0  0  0  0  0  0
    2.1822    2.0124    0.8882 H   0  0  0  0  0  0  0  0  0  0  0  0
    1.9716    0.8275    2.2002 H   0  0  0  0  0  0  0  0  0  0  0  0
   -4.2396    3.8114    2.8830 H   0  0  0  0  0  0  0  0  0  0  0  0
   -5.9134    4.2132    2.5939 H   0  0  0  0  0  0  0  0  0  0  0  0
   -4.4280    1.0001   -2.1608 H   0  0  0  0  0  0  0  0  0  0  0  0
   -5.5519    1.6804   -1.1145 H   0  0  0  0  0  0  0  0  0  0  0  0
  1  2  1  0
  2  3  1  0
  3  4  1  0
  3  5  1  0
  3  6  1  0
  6  7  2  0
  7  8  1  0
  8  9  1  0
  9 10  1  0
 10 11  1  0
 11 12  1  0
 12 13  1  0
 13 14  1  0
 13 15  2  0
 13 16  2  0
 12 17  1  0
 17 18  1  0
  8 19  2  0
 19 20  1  0
 20 21  1  0
 21 22  1  0
 22 23  1  0
 23 24  1  0
 23 25  2  0
 22 26  2  0
 26 27  1  0
 26 28  1  0
 28  6  1  0
 18  9  1  0
 28 20  2  0
  1 29  1  0
  1 30  1  0
  1 31  1  0
  2 32  1  0
  2 33  1  0
  7 34  1  0
 10 35  1  0
 10 36  1  0
 11 37  1  0
 11 38  1  0
 12 39  1  0
 14 40  1  0
 14 41  1  0
 14 42  1  0
 17 43  1  0
 17 44  1  0
 18 45  1  0
 18 46  1  0
 24 47  1  0
 24 48  1  0
 27 49  1  0
 27 50  1  0
M  END
$$$$
