
     RDKit          3D

 49 51  0  0  0  0  0  0  0  0999 V2000
    8.7603    0.4409   -0.6857 C   0  0  0  0  0  0  0  0  0  0  0  0
    7.3749   -0.1790   -0.7108 C   0  0  0  0  0  0  0  0  0  0  0  0
    6.4909    0.6903   -0.0050 O   0  0  0  0  0  0  0  0  0  0  0  0
    5.1777    0.3164    0.0677 C   0  0  0  0  0  0  0  0  0  0  0  0
    4.3516    1.2168    0.7438 C   0  0  0  0  0  0  0  0  0  0  0  0
    2.9853    0.9631    0.8910 C   0  0  0  0  0  0  0  0  0  0  0  0
    2.4213   -0.2045    0.3627 C   0  0  0  0  0  0  0  0  0  0  0  0
    0.9373   -0.4804    0.5196 C   0  0  0  0  0  0  0  0  0  0  0  0
    0.7830   -1.7522    1.1595 O   0  0  0  0  0  0  0  0  0  0  0  0
    0.1981   -0.4593   -0.8486 C   0  0  0  0  0  0  0  0  0  0  0  0
   -1.2741   -0.3334   -0.8647 N   0  0  0  0  0  0  0  0  0  0  0  0
   -1.9545   -1.3808   -0.0739 C   0  0  0  0  0  0  0  0  0  0  0  0
   -3.4947   -1.2832   -0.1860 C   0  0  0  0  0  0  0  0  0  0  0  0
   -3.9556    0.0605    0.2356 N   0  0  0  0  0  0  0  0  0  0  0  0
   -5.3607    0.1802    0.2298 C   0  0  0  0  0  0  0  0  0  0  0  0
   -5.9567    1.3070    0.8029 C   0  0  0  0  0  0  0  0  0  0  0  0
   -7.3451    1.4342    0.8175 C   0  0  0  0  0  0  0  0  0  0  0  0
   -8.1207    0.4267    0.2669 C   0  0  0  0  0  0  0  0  0  0  0  0
   -7.4675   -0.6673   -0.2666 C   0  0  0  0  0  0  0  0  0  0  0  0
   -6.1229   -0.8080   -0.2896 N   0  0  0  0  0  0  0  0  0  0  0  0
   -3.2875    1.1341   -0.5308 C   0  0  0  0  0  0  0  0  0  0  0  0
   -1.7474    0.9937   -0.4295 C   0  0  0  0  0  0  0  0  0  0  0  0
    3.2571   -1.1081   -0.3116 C   0  0  0  0  0  0  0  0  0  0  0  0
    4.6246   -0.8496   -0.4590 C   0  0  0  0  0  0  0  0  0  0  0  0
    8.7480    1.4314   -1.1527 H   0  0  0  0  0  0  0  0  0  0  0  0
    9.1023    0.5789    0.3454 H   0  0  0  0  0  0  0  0  0  0  0  0
    9.4797   -0.1907   -1.2146 H   0  0  0  0  0  0  0  0  0  0  0  0
    7.0511   -0.2886   -1.7524 H   0  0  0  0  0  0  0  0  0  0  0  0
    7.4134   -1.1595   -0.2223 H   0  0  0  0  0  0  0  0  0  0  0  0
    4.7780    2.1270    1.1599 H   0  0  0  0  0  0  0  0  0  0  0  0
    2.3706    1.6873    1.4211 H   0  0  0  0  0  0  0  0  0  0  0  0
    0.5055    0.2673    1.1933 H   0  0  0  0  0  0  0  0  0  0  0  0
    1.4848   -1.8178    1.8297 H   0  0  0  0  0  0  0  0  0  0  0  0
    0.4425   -1.3822   -1.3919 H   0  0  0  0  0  0  0  0  0  0  0  0
    0.6006    0.3566   -1.4640 H   0  0  0  0  0  0  0  0  0  0  0  0
   -1.6455   -2.3714   -0.4276 H   0  0  0  0  0  0  0  0  0  0  0  0
   -1.6874   -1.3012    0.9867 H   0  0  0  0  0  0  0  0  0  0  0  0
   -3.9312   -2.0547    0.4609 H   0  0  0  0  0  0  0  0  0  0  0  0
   -3.7908   -1.4901   -1.2236 H   0  0  0  0  0  0  0  0  0  0  0  0
   -5.3458    2.0760    1.2630 H   0  0  0  0  0  0  0  0  0  0  0  0
   -7.8096    2.3078    1.2639 H   0  0  0  0  0  0  0  0  0  0  0  0
   -9.2025    0.4863    0.2616 H   0  0  0  0  0  0  0  0  0  0  0  0
   -8.0224   -1.4918   -0.7036 H   0  0  0  0  0  0  0  0  0  0  0  0
   -3.5906    1.0919   -1.5857 H   0  0  0  0  0  0  0  0  0  0  0  0
   -3.5540    2.1248   -0.1454 H   0  0  0  0  0  0  0  0  0  0  0  0
   -1.2944    1.7702   -1.0573 H   0  0  0  0  0  0  0  0  0  0  0  0
   -1.4476    1.1922    0.6067 H   0  0  0  0  0  0  0  0  0  0  0  0
    2.8449   -2.0274   -0.7245 H   0  0  0  0  0  0  0  0  0  0  0  0
    5.2257   -1.5805   -0.9896 H   0  0  0  0  0  0  0  0  0  0  0  0
  1  2  1  0
  2  3  1  0
  3  4  1  0
  4  5  2  0
  5  6  1  0
  6  7  2  0
  7  8  1  0
  8  9  1  0
  8 10  1  0
 10 11  1  0
 11 12  1  0
 12 13  1  0
 13 14  1  0
 14 15  1  0
 15 16  2  0
 16 17  1  0
 17 18  2  0
 18 19  1  0
 19 20  2  0
 14 21  1  0
 21 22  1  0
  7 23  1  0
 23 24  2  0
 24  4  1  0
 22 11  1  0
 20 15  1  0
  1 25  1  0
  1 26  1  0
  1 27  1  0
  2 28  1  0
  2 29  1  0
  5 30  1  0
  6 31  1  0
  8 32  1  0
  9 33  1  0
 10 34  1  0
 10 35  1  0
 12 36  1  0
 12 37  1  0
 13 38  1  0
 13 39  1  0
 16 40  1  0
 17 41  1  0
 18 42  1  0
 19 43  1  0
 21 44  1  0
 21 45  1  0
 22 46  1  0
 22 47  1  0
 23 48  1  0
 24 49  1  0
M  END
$$$$
