
     RDKit          3D

 52 54  0  0  0  0  0  0  0  0999 V2000
   -6.3165    2.4752    1.4696 C   0  0  0  0  0  0  0  0  0  0  0  0
   -5.5456    1.3822    0.7911 C   0  0  0  0  0  0  0  0  0  0  0  0
   -4.4974    0.7368    1.4558 C   0  0  0  0  0  0  0  0  0  0  0  0
   -3.8013   -0.3043    0.8378 C   0  0  0  0  0  0  0  0  0  0  0  0
   -4.1480   -0.7278   -0.4521 C   0  0  0  0  0  0  0  0  0  0  0  0
   -3.3816   -1.8457   -1.1216 C   0  0  0  0  0  0  0  0  0  0  0  0
   -2.0565   -1.4258   -1.5787 N   0  0  0  0  0  0  0  0  0  0  0  0
   -2.0156   -0.4777   -2.6769 C   0  0  0  0  0  0  0  0  0  0  0  0
   -0.6700   -0.4867   -3.3503 C   0  0  0  0  0  0  0  0  0  0  0  0
    0.3576   -0.2213   -2.2756 C   0  0  0  0  0  0  0  0  0  0  0  0
    0.2840   -1.2065   -1.1987 N   0  0  0  0  0  0  0  0  0  0  0  0
    1.4984   -1.4991   -0.4761 C   0  0  0  0  0  0  0  0  0  0  0  0
    1.6840   -2.7311    0.1705 C   0  0  0  0  0  0  0  0  0  0  0  0
    2.8763   -3.0372    0.8360 C   0  0  0  0  0  0  0  0  0  0  0  0
    3.9101   -2.1085    0.8764 C   0  0  0  0  0  0  0  0  0  0  0  0
    3.7439   -0.8682    0.2594 C   0  0  0  0  0  0  0  0  0  0  0  0
    4.8568    0.1126    0.3331 C   0  0  0  0  0  0  0  0  0  0  0  0
    6.0226   -0.2651    0.3590 O   0  0  0  0  0  0  0  0  0  0  0  0
    4.4951    1.4388    0.4267 N   0  0  0  0  0  0  0  0  0  0  0  0
    5.4812    2.5059    0.5350 C   0  0  0  0  0  0  0  0  0  0  0  0
    6.2307    2.5047    1.8723 C   0  0  0  0  0  0  0  0  0  0  0  0
    7.3047    1.5697    1.8815 O   0  0  0  0  0  0  0  0  0  0  0  0
    2.5547   -0.5734   -0.4276 C   0  0  0  0  0  0  0  0  0  0  0  0
   -0.9544   -1.7252   -0.7785 C   0  0  0  0  0  0  0  0  0  0  0  0
   -1.0975   -2.4051    0.2392 O   0  0  0  0  0  0  0  0  0  0  0  0
   -5.2070   -0.0889   -1.1108 C   0  0  0  0  0  0  0  0  0  0  0  0
   -5.9029    0.9528   -0.4918 C   0  0  0  0  0  0  0  0  0  0  0  0
   -5.6782    3.0296    2.1657 H   0  0  0  0  0  0  0  0  0  0  0  0
   -7.1592    2.0504    2.0237 H   0  0  0  0  0  0  0  0  0  0  0  0
   -6.6999    3.1945    0.7382 H   0  0  0  0  0  0  0  0  0  0  0  0
   -4.2144    1.0383    2.4618 H   0  0  0  0  0  0  0  0  0  0  0  0
   -2.9854   -0.7911    1.3705 H   0  0  0  0  0  0  0  0  0  0  0  0
   -3.9311   -2.2198   -1.9944 H   0  0  0  0  0  0  0  0  0  0  0  0
   -3.3113   -2.6935   -0.4302 H   0  0  0  0  0  0  0  0  0  0  0  0
   -2.2450    0.5174   -2.2782 H   0  0  0  0  0  0  0  0  0  0  0  0
   -2.7895   -0.7426   -3.4059 H   0  0  0  0  0  0  0  0  0  0  0  0
   -0.6220    0.2782   -4.1320 H   0  0  0  0  0  0  0  0  0  0  0  0
   -0.4847   -1.4608   -3.8195 H   0  0  0  0  0  0  0  0  0  0  0  0
    0.2122    0.7727   -1.8350 H   0  0  0  0  0  0  0  0  0  0  0  0
    1.3449   -0.2568   -2.7501 H   0  0  0  0  0  0  0  0  0  0  0  0
    0.9174   -3.5022    0.1383 H   0  0  0  0  0  0  0  0  0  0  0  0
    2.9932   -4.0062    1.3153 H   0  0  0  0  0  0  0  0  0  0  0  0
    4.8373   -2.3493    1.3919 H   0  0  0  0  0  0  0  0  0  0  0  0
    3.5313    1.6654    0.6356 H   0  0  0  0  0  0  0  0  0  0  0  0
    4.9281    3.4433    0.4195 H   0  0  0  0  0  0  0  0  0  0  0  0
    6.1840    2.3987   -0.2983 H   0  0  0  0  0  0  0  0  0  0  0  0
    5.5609    2.2736    2.7066 H   0  0  0  0  0  0  0  0  0  0  0  0
    6.6705    3.4913    2.0474 H   0  0  0  0  0  0  0  0  0  0  0  0
    7.0021    0.7695    1.3964 H   0  0  0  0  0  0  0  0  0  0  0  0
    2.4638    0.3916   -0.9144 H   0  0  0  0  0  0  0  0  0  0  0  0
   -5.5019   -0.4003   -2.1101 H   0  0  0  0  0  0  0  0  0  0  0  0
   -6.7286    1.4269   -1.0178 H   0  0  0  0  0  0  0  0  0  0  0  0
  1  2  1  0
  2  3  2  0
  3  4  1  0
  4  5  2  0
  5  6  1  0
  6  7  1  0
  7  8  1  0
  8  9  1  0
  9 10  1  0
 10 11  1  0
 11 12  1  0
 12 13  2  0
 13 14  1  0
 14 15  2  0
 15 16  1  0
 16 17  1  0
 17 18  2  0
 17 19  1  0
 19 20  1  0
 20 21  1  0
 21 22  1  0
 16 23  2  0
 11 24  1  0
 24 25  2  0
  5 26  1  0
 26 27  2  0
 27  2  1  0
 24  7  1  0
 23 12  1  0
  1 28  1  0
  1 29  1  0
  1 30  1  0
  3 31  1  0
  4 32  1  0
  6 33  1  0
  6 34  1  0
  8 35  1  0
  8 36  1  0
  9 37  1  0
  9 38  1  0
 10 39  1  0
 10 40  1  0
 13 41  1  0
 14 42  1  0
 15 43  1  0
 19 44  1  0
 20 45  1  0
 20 46  1  0
 21 47  1  0
 21 48  1  0
 22 49  1  0
 23 50  1  0
 26 51  1  0
 27 52  1  0
M  END
$$$$
