
     RDKit          3D

 15 14  0  0  0  0  0  0  0  0999 V2000
    1.2196   -1.7255    0.8019 O   0  0  0  0  0  0  0  0  0  0  0  0
    1.3721   -0.5286   -0.0712 P   0  0  0  0  0  5  0  0  0  0  0  0
    2.6587    0.3301    0.3626 O   0  0  0  0  0  0  0  0  0  0  0  0
    1.7876   -0.9087   -1.5681 O   0  0  0  0  0  0  0  0  0  0  0  0
    0.0573    0.6501   -0.1802 C   0  0  0  0  0  0  0  0  0  0  0  0
   -1.5820    0.1204   -0.5912 P   0  0  0  0  0  5  0  0  0  0  0  0
   -1.7603   -0.7344   -1.7978 O   0  0  0  0  0  0  0  0  0  0  0  0
   -2.1923   -0.5367    0.7345 O   0  0  0  0  0  0  0  0  0  0  0  0
   -2.4662    1.4612   -0.6340 O   0  0  0  0  0  0  0  0  0  0  0  0
    3.4136   -0.2311    0.6222 H   0  0  0  0  0  0  0  0  0  0  0  0
    2.3621   -1.6949   -1.6271 H   0  0  0  0  0  0  0  0  0  0  0  0
    0.3546    1.4049   -0.9170 H   0  0  0  0  0  0  0  0  0  0  0  0
    0.0014    1.1743    0.7804 H   0  0  0  0  0  0  0  0  0  0  0  0
   -3.0506   -0.9667    0.5483 H   0  0  0  0  0  0  0  0  0  0  0  0
   -2.1757    2.1855   -0.0505 H   0  0  0  0  0  0  0  0  0  0  0  0
  1  2  2  0
  2  3  1  0
  2  4  1  0
  2  5  1  0
  5  6  1  0
  6  7  2  0
  6  8  1  0
  6  9  1  0
  3 10  1  0
  4 11  1  0
  5 12  1  0
  5 13  1  0
  8 14  1  0
  9 15  1  0
M  END
$$$$
