
     RDKit          3D

 72 75  0  0  0  0  0  0  0  0999 V2000
    5.0897   -3.9066   -0.5340 C   0  0  0  0  0  0  0  0  0  0  0  0
    5.7902   -2.5582   -0.3969 C   0  0  0  0  0  0  0  0  0  0  0  0
    4.9142   -1.3166   -0.4399 C   0  0  0  0  0  0  0  0  0  0  0  0
    3.5246   -1.3987   -0.2200 C   0  0  0  0  0  0  0  0  0  0  0  0
    2.7158   -0.2554   -0.2350 C   0  0  0  0  0  0  0  0  0  0  0  0
    1.2468   -0.3433    0.0059 C   0  0  0  0  0  0  0  0  0  0  0  0
    0.7433   -1.3849    0.9855 C   0  0  0  0  0  0  0  0  0  0  0  0
    0.4589    0.4743   -0.6322 N   0  0  0  0  0  0  0  0  0  0  0  0
   -0.8858    0.2575   -0.2939 O   0  0  0  0  0  0  0  0  0  0  0  0
   -1.7072    1.0995   -1.1062 C   0  0  0  0  0  0  0  0  0  0  0  0
   -3.1611    0.9832   -0.7095 C   0  0  0  0  0  0  0  0  0  0  0  0
   -4.0279    2.0495   -0.9422 C   0  0  0  0  0  0  0  0  0  0  0  0
   -5.3808    1.9450   -0.6157 C   0  0  0  0  0  0  0  0  0  0  0  0
   -5.9278    0.7703   -0.0529 C   0  0  0  0  0  0  0  0  0  0  0  0
   -7.4227    0.8095    0.2572 C   0  0  0  0  0  0  0  0  0  0  0  0
   -7.6992    1.0967    1.7475 C   0  0  0  0  0  0  0  0  0  0  0  0
   -9.0655    0.5871    2.2130 C   0  0  0  0  0  0  0  0  0  0  0  0
  -10.1175    0.7208    1.1185 C   0  0  0  0  0  0  0  0  0  0  0  0
   -9.7598   -0.0849   -0.1338 C   0  0  0  0  0  0  0  0  0  0  0  0
   -8.2585   -0.3623   -0.2765 C   0  0  0  0  0  0  0  0  0  0  0  0
   -5.0563   -0.3154    0.1992 C   0  0  0  0  0  0  0  0  0  0  0  0
   -5.4802   -1.6380    0.8060 C   0  0  0  0  0  0  0  0  0  0  0  0
   -4.4358   -2.3538    1.3216 F   0  0  0  0  0  0  0  0  0  0  0  0
   -6.3623   -1.5229    1.8364 F   0  0  0  0  0  0  0  0  0  0  0  0
   -6.0625   -2.4655   -0.1068 F   0  0  0  0  0  0  0  0  0  0  0  0
   -3.6905   -0.1915   -0.1588 C   0  0  0  0  0  0  0  0  0  0  0  0
    3.2841    0.9915   -0.4885 C   0  0  0  0  0  0  0  0  0  0  0  0
    4.6594    1.0993   -0.6869 C   0  0  0  0  0  0  0  0  0  0  0  0
    5.4902   -0.0378   -0.6560 C   0  0  0  0  0  0  0  0  0  0  0  0
    6.9861    0.1713   -0.8513 C   0  0  0  0  0  0  0  0  0  0  0  0
    7.7529   -0.1320    0.3618 N   0  0  0  0  0  0  0  0  0  0  0  0
    7.6428    0.9604    1.3637 C   0  0  0  0  0  0  0  0  0  0  0  0
    9.1553    0.7769    1.6339 C   0  0  0  0  0  0  0  0  0  0  0  0
    9.9698    2.0354    1.9612 C   0  0  0  0  0  0  0  0  0  0  0  0
    9.6493    2.9729    2.6818 O   0  0  0  0  0  0  0  0  0  0  0  0
   11.1843    2.0728    1.3599 O   0  0  0  0  0  0  0  0  0  0  0  0
    9.1828    0.2292    0.1868 C   0  0  0  0  0  0  0  0  0  0  0  0
    4.4895   -3.9527   -1.4490 H   0  0  0  0  0  0  0  0  0  0  0  0
    5.8322   -4.7105   -0.5763 H   0  0  0  0  0  0  0  0  0  0  0  0
    4.4374   -4.1092    0.3217 H   0  0  0  0  0  0  0  0  0  0  0  0
    6.5204   -2.5034   -1.2127 H   0  0  0  0  0  0  0  0  0  0  0  0
    6.3428   -2.5558    0.5501 H   0  0  0  0  0  0  0  0  0  0  0  0
    3.0602   -2.3646   -0.0479 H   0  0  0  0  0  0  0  0  0  0  0  0
    0.2738   -2.2040    0.4336 H   0  0  0  0  0  0  0  0  0  0  0  0
    0.0088   -0.9382    1.6626 H   0  0  0  0  0  0  0  0  0  0  0  0
    1.5492   -1.7843    1.6067 H   0  0  0  0  0  0  0  0  0  0  0  0
   -1.3734    2.1366   -0.9815 H   0  0  0  0  0  0  0  0  0  0  0  0
   -1.5990    0.8061   -2.1569 H   0  0  0  0  0  0  0  0  0  0  0  0
   -3.6597    2.9749   -1.3806 H   0  0  0  0  0  0  0  0  0  0  0  0
   -6.0179    2.8077   -0.8105 H   0  0  0  0  0  0  0  0  0  0  0  0
   -7.8216    1.6806   -0.2873 H   0  0  0  0  0  0  0  0  0  0  0  0
   -6.9253    0.6777    2.3995 H   0  0  0  0  0  0  0  0  0  0  0  0
   -7.6499    2.1827    1.9031 H   0  0  0  0  0  0  0  0  0  0  0  0
   -8.9818   -0.4658    2.5095 H   0  0  0  0  0  0  0  0  0  0  0  0
   -9.3772    1.1409    3.1060 H   0  0  0  0  0  0  0  0  0  0  0  0
  -10.2175    1.7801    0.8471 H   0  0  0  0  0  0  0  0  0  0  0  0
  -11.0980    0.4034    1.4928 H   0  0  0  0  0  0  0  0  0  0  0  0
  -10.2940   -1.0434   -0.1215 H   0  0  0  0  0  0  0  0  0  0  0  0
  -10.1234    0.4547   -1.0175 H   0  0  0  0  0  0  0  0  0  0  0  0
   -8.0435   -1.2814    0.2733 H   0  0  0  0  0  0  0  0  0  0  0  0
   -8.0226   -0.5657   -1.3279 H   0  0  0  0  0  0  0  0  0  0  0  0
   -3.0210   -1.0377    0.0085 H   0  0  0  0  0  0  0  0  0  0  0  0
    2.6654    1.8852   -0.5143 H   0  0  0  0  0  0  0  0  0  0  0  0
    5.0841    2.0862   -0.8606 H   0  0  0  0  0  0  0  0  0  0  0  0
    7.1730    1.1948   -1.2071 H   0  0  0  0  0  0  0  0  0  0  0  0
    7.3190   -0.4772   -1.6713 H   0  0  0  0  0  0  0  0  0  0  0  0
    6.9899    0.7324    2.2120 H   0  0  0  0  0  0  0  0  0  0  0  0
    7.3753    1.9502    0.9715 H   0  0  0  0  0  0  0  0  0  0  0  0
    9.3468   -0.0094    2.3796 H   0  0  0  0  0  0  0  0  0  0  0  0
   11.5752    2.9129    1.6812 H   0  0  0  0  0  0  0  0  0  0  0  0
    9.3966    0.9860   -0.5795 H   0  0  0  0  0  0  0  0  0  0  0  0
    9.8472   -0.6254    0.0285 H   0  0  0  0  0  0  0  0  0  0  0  0
  1  2  1  0
  2  3  1  0
  3  4  2  0
  4  5  1  0
  5  6  1  0
  6  7  1  0
  6  8  2  0
  8  9  1  0
  9 10  1  0
 10 11  1  0
 11 12  2  0
 12 13  1  0
 13 14  2  0
 14 15  1  0
 15 16  1  0
 16 17  1  0
 17 18  1  0
 18 19  1  0
 19 20  1  0
 14 21  1  0
 21 22  1  0
 22 23  1  0
 22 24  1  0
 22 25  1  0
 21 26  2  0
  5 27  2  0
 27 28  1  0
 28 29  2  0
 29 30  1  0
 30 31  1  0
 31 32  1  0
 32 33  1  0
 33 34  1  0
 34 35  2  0
 34 36  1  0
 33 37  1  0
 29  3  1  0
 37 31  1  0
 26 11  1  0
 20 15  1  0
  1 38  1  0
  1 39  1  0
  1 40  1  0
  2 41  1  0
  2 42  1  0
  4 43  1  0
  7 44  1  0
  7 45  1  0
  7 46  1  0
 10 47  1  0
 10 48  1  0
 12 49  1  0
 13 50  1  0
 15 51  1  0
 16 52  1  0
 16 53  1  0
 17 54  1  0
 17 55  1  0
 18 56  1  0
 18 57  1  0
 19 58  1  0
 19 59  1  0
 20 60  1  0
 20 61  1  0
 26 62  1  0
 27 63  1  0
 28 64  1  0
 30 65  1  0
 30 66  1  0
 32 67  1  0
 32 68  1  0
 33 69  1  0
 36 70  1  0
 37 71  1  0
 37 72  1  0
M  END
$$$$
