
     RDKit          3D

 48 51  0  0  0  0  0  0  0  0999 V2000
    3.7256    2.3449   -0.4046 O   0  0  0  0  0  0  0  0  0  0  0  0
    3.2124    1.4877    0.3115 C   0  0  0  0  0  0  0  0  0  0  0  0
    3.9739    0.5670    1.0100 N   0  0  0  0  0  0  0  0  0  0  0  0
    5.4027    0.4726    0.8190 C   0  0  0  0  0  0  0  0  0  0  0  0
    5.7452   -0.7250   -0.0302 C   0  0  0  0  0  0  0  0  0  0  0  0
    6.2383   -1.9016    0.5517 C   0  0  0  0  0  0  0  0  0  0  0  0
    6.5305   -3.0133   -0.2407 C   0  0  0  0  0  0  0  0  0  0  0  0
    6.3298   -2.9613   -1.6190 C   0  0  0  0  0  0  0  0  0  0  0  0
    5.8353   -1.7989   -2.2075 C   0  0  0  0  0  0  0  0  0  0  0  0
    5.5433   -0.6860   -1.4174 C   0  0  0  0  0  0  0  0  0  0  0  0
    1.7484    1.3486    0.4845 C   0  0  0  0  0  0  0  0  0  0  0  0
    1.0291    0.5228    1.4025 C   0  0  0  0  0  0  0  0  0  0  0  0
   -0.3068    0.7595    1.1579 C   0  0  0  0  0  0  0  0  0  0  0  0
   -0.3257    1.6795    0.1535 N   0  0  0  0  0  0  0  0  0  0  0  0
    0.8848    2.0575   -0.2696 N   0  0  0  0  0  0  0  0  0  0  0  0
   -1.5230    2.2047   -0.4681 C   0  0  0  0  0  0  0  0  0  0  0  0
   -2.7207    1.9605    0.4397 C   0  0  0  0  0  0  0  0  0  0  0  0
   -2.7167    0.5336    0.8923 N   0  0  0  0  0  0  0  0  0  0  0  0
   -4.1849   -0.0142    1.5711 S   0  0  0  0  0  6  0  0  0  0  0  0
   -4.0156   -1.3942    1.9683 O   0  0  0  0  0  0  0  0  0  0  0  0
   -4.6196    0.9966    2.5114 O   0  0  0  0  0  0  0  0  0  0  0  0
   -5.2817   -0.0010    0.1747 C   0  0  0  0  0  0  0  0  0  0  0  0
   -6.4073    0.8301    0.1710 C   0  0  0  0  0  0  0  0  0  0  0  0
   -7.2487    0.8328   -0.9422 C   0  0  0  0  0  0  0  0  0  0  0  0
   -6.9608    0.0065   -2.0256 C   0  0  0  0  0  0  0  0  0  0  0  0
   -7.7695    0.0173   -3.0927 F   0  0  0  0  0  0  0  0  0  0  0  0
   -5.8476   -0.8296   -2.0193 C   0  0  0  0  0  0  0  0  0  0  0  0
   -5.0001   -0.8383   -0.9120 C   0  0  0  0  0  0  0  0  0  0  0  0
   -1.5566    0.2401    1.7776 C   0  0  0  0  0  0  0  0  0  0  0  0
    3.5171   -0.2304    1.4241 H   0  0  0  0  0  0  0  0  0  0  0  0
    5.8517    0.3759    1.8139 H   0  0  0  0  0  0  0  0  0  0  0  0
    5.8094    1.3845    0.3681 H   0  0  0  0  0  0  0  0  0  0  0  0
    6.4016   -1.9604    1.6256 H   0  0  0  0  0  0  0  0  0  0  0  0
    6.9166   -3.9208    0.2166 H   0  0  0  0  0  0  0  0  0  0  0  0
    6.5585   -3.8270   -2.2355 H   0  0  0  0  0  0  0  0  0  0  0  0
    5.6728   -1.7581   -3.2817 H   0  0  0  0  0  0  0  0  0  0  0  0
    5.1533    0.2162   -1.8879 H   0  0  0  0  0  0  0  0  0  0  0  0
    1.4292   -0.1463    2.1505 H   0  0  0  0  0  0  0  0  0  0  0  0
   -1.6360    1.6808   -1.4235 H   0  0  0  0  0  0  0  0  0  0  0  0
   -1.3809    3.2741   -0.6529 H   0  0  0  0  0  0  0  0  0  0  0  0
   -2.6801    2.6224    1.3140 H   0  0  0  0  0  0  0  0  0  0  0  0
   -3.6321    2.1927   -0.1187 H   0  0  0  0  0  0  0  0  0  0  0  0
   -6.6318    1.4730    1.0196 H   0  0  0  0  0  0  0  0  0  0  0  0
   -8.1271    1.4711   -0.9734 H   0  0  0  0  0  0  0  0  0  0  0  0
   -5.6493   -1.4668   -2.8759 H   0  0  0  0  0  0  0  0  0  0  0  0
   -4.1307   -1.4929   -0.8965 H   0  0  0  0  0  0  0  0  0  0  0  0
   -1.6973    0.7055    2.7597 H   0  0  0  0  0  0  0  0  0  0  0  0
   -1.4589   -0.8436    1.9062 H   0  0  0  0  0  0  0  0  0  0  0  0
  1  2  2  0
  2  3  1  0
  3  4  1  0
  4  5  1  0
  5  6  2  0
  6  7  1  0
  7  8  2  0
  8  9  1  0
  9 10  2  0
  2 11  1  0
 11 12  1  0
 12 13  2  0
 13 14  1  0
 14 15  1  0
 14 16  1  0
 16 17  1  0
 17 18  1  0
 18 19  1  0
 19 20  2  0
 19 21  2  0
 19 22  1  0
 22 23  2  0
 23 24  1  0
 24 25  2  0
 25 26  1  0
 25 27  1  0
 27 28  2  0
 18 29  1  0
 10  5  1  0
 15 11  2  0
 28 22  1  0
 29 13  1  0
  3 30  1  0
  4 31  1  0
  4 32  1  0
  6 33  1  0
  7 34  1  0
  8 35  1  0
  9 36  1  0
 10 37  1  0
 12 38  1  0
 16 39  1  0
 16 40  1  0
 17 41  1  0
 17 42  1  0
 23 43  1  0
 24 44  1  0
 27 45  1  0
 28 46  1  0
 29 47  1  0
 29 48  1  0
M  END
$$$$
