
     RDKit          3D

 34 36  0  0  0  0  0  0  0  0999 V2000
   -0.2044   -3.3598   -1.2613 N   0  0  0  0  0  0  0  0  0  0  0  0
    0.3115   -2.3629   -0.9666 C   0  0  0  0  0  0  0  0  0  0  0  0
    0.9295   -1.1235   -0.5986 C   0  0  0  0  0  0  0  0  0  0  0  0
    0.2136   -0.0122   -0.1835 C   0  0  0  0  0  0  0  0  0  0  0  0
   -1.1679    0.0959   -0.0611 N   0  0  0  0  0  0  0  0  0  0  0  0
   -1.8887    1.2041    0.3530 C   0  0  0  0  0  0  0  0  0  0  0  0
   -1.4293    2.2914    0.6863 O   0  0  0  0  0  0  0  0  0  0  0  0
   -3.3779    1.0469    0.3939 C   0  0  0  0  0  0  0  0  0  0  0  0
   -4.1560    2.1407    0.8080 C   0  0  0  0  0  0  0  0  0  0  0  0
   -5.5501    2.0457    0.8636 C   0  0  0  0  0  0  0  0  0  0  0  0
   -6.1842    0.8571    0.5064 C   0  0  0  0  0  0  0  0  0  0  0  0
   -5.4244   -0.2354    0.0938 C   0  0  0  0  0  0  0  0  0  0  0  0
   -4.0343   -0.1346    0.0403 C   0  0  0  0  0  0  0  0  0  0  0  0
   -3.3440   -1.2125   -0.3631 F   0  0  0  0  0  0  0  0  0  0  0  0
    1.2509    1.2869    0.1862 S   0  0  0  0  0  0  0  0  0  0  0  0
    2.6402    0.3904   -0.1937 C   0  0  0  0  0  0  0  0  0  0  0  0
    2.3450   -0.8917   -0.6129 C   0  0  0  0  0  0  0  0  0  0  0  0
    3.4231   -1.8686   -0.9875 C   0  0  0  0  0  0  0  0  0  0  0  0
    4.7690   -1.1682   -1.2346 C   0  0  0  0  0  0  0  0  0  0  0  0
    5.0770   -0.1292   -0.1471 C   0  0  0  0  0  0  0  0  0  0  0  0
    4.0140    0.9795   -0.1025 C   0  0  0  0  0  0  0  0  0  0  0  0
   -1.6978   -0.7358   -0.3055 H   0  0  0  0  0  0  0  0  0  0  0  0
   -3.6779    3.0778    1.0911 H   0  0  0  0  0  0  0  0  0  0  0  0
   -6.1380    2.9022    1.1866 H   0  0  0  0  0  0  0  0  0  0  0  0
   -7.2684    0.7834    0.5497 H   0  0  0  0  0  0  0  0  0  0  0  0
   -5.9060   -1.1675   -0.1874 H   0  0  0  0  0  0  0  0  0  0  0  0
    3.5358   -2.5914   -0.1699 H   0  0  0  0  0  0  0  0  0  0  0  0
    3.1384   -2.4289   -1.8852 H   0  0  0  0  0  0  0  0  0  0  0  0
    5.5680   -1.9171   -1.2745 H   0  0  0  0  0  0  0  0  0  0  0  0
    4.7487   -0.6687   -2.2118 H   0  0  0  0  0  0  0  0  0  0  0  0
    6.0624    0.3168   -0.3228 H   0  0  0  0  0  0  0  0  0  0  0  0
    5.1229   -0.6335    0.8268 H   0  0  0  0  0  0  0  0  0  0  0  0
    4.1649    1.6604   -0.9493 H   0  0  0  0  0  0  0  0  0  0  0  0
    4.1342    1.5621    0.8178 H   0  0  0  0  0  0  0  0  0  0  0  0
  1  2  3  0
  2  3  1  0
  3  4  2  0
  4  5  1  0
  5  6  1  0
  6  7  2  0
  6  8  1  0
  8  9  2  0
  9 10  1  0
 10 11  2  0
 11 12  1  0
 12 13  2  0
 13 14  1  0
  4 15  1  0
 15 16  1  0
 16 17  2  0
 17 18  1  0
 18 19  1  0
 19 20  1  0
 20 21  1  0
 17  3  1  0
 13  8  1  0
 21 16  1  0
  5 22  1  0
  9 23  1  0
 10 24  1  0
 11 25  1  0
 12 26  1  0
 18 27  1  0
 18 28  1  0
 19 29  1  0
 19 30  1  0
 20 31  1  0
 20 32  1  0
 21 33  1  0
 21 34  1  0
M  END
$$$$
