
     RDKit          3D

 40 43  0  0  0  0  0  0  0  0999 V2000
    7.6639   -0.3641   -0.3045 O   0  0  0  0  0  0  0  0  0  0  0  0
    6.8734   -1.2901   -0.5370 N   0  0  0  0  0  4  0  0  0  0  0  0
    7.2105   -2.4442   -0.8358 O   0  0  0  0  0  1  0  0  0  0  0  0
    5.4374   -0.9961   -0.4531 C   0  0  0  0  0  0  0  0  0  0  0  0
    5.0101    0.2922   -0.1082 C   0  0  0  0  0  0  0  0  0  0  0  0
    3.6395    0.5724   -0.0285 C   0  0  0  0  0  0  0  0  0  0  0  0
    2.6858   -0.4238   -0.2917 C   0  0  0  0  0  0  0  0  0  0  0  0
    1.2402   -0.1781   -0.2205 C   0  0  0  0  0  0  0  0  0  0  0  0
    0.2994   -1.0975   -0.3202 N   0  0  0  0  0  0  0  0  0  0  0  0
   -0.9090   -0.4454   -0.2081 C   0  0  0  0  0  0  0  0  0  0  0  0
   -2.1719   -1.1635   -0.2741 C   0  0  0  0  0  0  0  0  0  0  0  0
   -3.3008   -0.6246   -0.9096 C   0  0  0  0  0  0  0  0  0  0  0  0
   -4.4974   -1.3451   -0.9565 C   0  0  0  0  0  0  0  0  0  0  0  0
   -4.5623   -2.6073   -0.3788 C   0  0  0  0  0  0  0  0  0  0  0  0
   -5.7099   -3.2961   -0.4257 F   0  0  0  0  0  0  0  0  0  0  0  0
   -3.4523   -3.1671    0.2408 C   0  0  0  0  0  0  0  0  0  0  0  0
   -2.2566   -2.4470    0.2887 C   0  0  0  0  0  0  0  0  0  0  0  0
   -0.7137    0.9123   -0.0119 C   0  0  0  0  0  0  0  0  0  0  0  0
   -1.6039    2.0369    0.2478 C   0  0  0  0  0  0  0  0  0  0  0  0
   -2.5322    1.9800    1.2880 C   0  0  0  0  0  0  0  0  0  0  0  0
   -3.3528    3.0746    1.5009 C   0  0  0  0  0  0  0  0  0  0  0  0
   -3.3069    4.2012    0.7589 N   0  0  0  0  0  0  0  0  0  0  0  0
   -2.4050    4.2331   -0.2437 C   0  0  0  0  0  0  0  0  0  0  0  0
   -1.5393    3.1913   -0.5341 C   0  0  0  0  0  0  0  0  0  0  0  0
    0.6569    1.0536   -0.0424 N   0  0  0  0  0  0  0  0  0  0  0  0
    3.1391   -1.7106   -0.6327 C   0  0  0  0  0  0  0  0  0  0  0  0
    4.5045   -2.0030   -0.7161 C   0  0  0  0  0  0  0  0  0  0  0  0
    5.7257    1.0847    0.1033 H   0  0  0  0  0  0  0  0  0  0  0  0
    3.3441    1.5797    0.2512 H   0  0  0  0  0  0  0  0  0  0  0  0
   -3.2595    0.3514   -1.3863 H   0  0  0  0  0  0  0  0  0  0  0  0
   -5.3738   -0.9320   -1.4455 H   0  0  0  0  0  0  0  0  0  0  0  0
   -3.5201   -4.1581    0.6774 H   0  0  0  0  0  0  0  0  0  0  0  0
   -1.3843   -2.8894    0.7668 H   0  0  0  0  0  0  0  0  0  0  0  0
   -2.6194    1.1057    1.9250 H   0  0  0  0  0  0  0  0  0  0  0  0
   -4.0905    3.0739    2.2985 H   0  0  0  0  0  0  0  0  0  0  0  0
   -2.3981    5.1479   -0.8299 H   0  0  0  0  0  0  0  0  0  0  0  0
   -0.8498    3.2801   -1.3663 H   0  0  0  0  0  0  0  0  0  0  0  0
    1.1494    1.9239    0.0848 H   0  0  0  0  0  0  0  0  0  0  0  0
    2.4158   -2.5005   -0.8385 H   0  0  0  0  0  0  0  0  0  0  0  0
    4.8139   -3.0111   -0.9842 H   0  0  0  0  0  0  0  0  0  0  0  0
  1  2  2  0
  2  3  1  0
  2  4  1  0
  4  5  2  0
  5  6  1  0
  6  7  2  0
  7  8  1  0
  8  9  2  0
  9 10  1  0
 10 11  1  0
 11 12  2  0
 12 13  1  0
 13 14  2  0
 14 15  1  0
 14 16  1  0
 16 17  2  0
 10 18  2  0
 18 19  1  0
 19 20  2  0
 20 21  1  0
 21 22  2  0
 22 23  1  0
 23 24  2  0
 18 25  1  0
  7 26  1  0
 26 27  2  0
 27  4  1  0
 25  8  1  0
 17 11  1  0
 24 19  1  0
  5 28  1  0
  6 29  1  0
 12 30  1  0
 13 31  1  0
 16 32  1  0
 17 33  1  0
 20 34  1  0
 21 35  1  0
 23 36  1  0
 24 37  1  0
 25 38  1  0
 26 39  1  0
 27 40  1  0
M  CHG  2   2   1   3  -1
M  END
$$$$
