
     RDKit          3D

 37 38  0  0  0  0  0  0  0  0999 V2000
    4.3398    0.0085    0.5044 C   0  0  0  0  0  0  0  0  0  0  0  0
    3.7875   -0.2207   -0.8520 C   0  0  0  0  0  0  0  0  0  0  0  0
    4.1295    0.5987   -1.8536 N   0  0  0  0  0  0  0  0  0  0  0  0
    3.4412    0.1500   -2.9621 O   0  0  0  0  0  0  0  0  0  0  0  0
    2.6965   -0.9340   -2.6260 C   0  0  0  0  0  0  0  0  0  0  0  0
    1.8815   -1.5248   -3.7039 C   0  0  0  0  0  0  0  0  0  0  0  0
    2.8781   -1.2232   -1.2896 C   0  0  0  0  0  0  0  0  0  0  0  0
    2.2494   -2.3123   -0.5019 C   0  0  0  0  0  0  0  0  0  0  0  0
    0.8640   -2.0394   -0.2418 O   0  0  0  0  0  0  0  0  0  0  0  0
    0.6076   -1.3814    0.9217 C   0  0  0  0  0  0  0  0  0  0  0  0
    1.4473   -1.0607    1.7500 O   0  0  0  0  0  0  0  0  0  0  0  0
   -0.8661   -1.1065    1.0280 C   0  0  0  0  0  0  0  0  0  0  0  0
   -1.1838   -0.3281    2.2962 C   0  0  0  0  0  0  0  0  0  0  0  0
   -2.5896   -0.0959    2.4013 O   0  0  0  0  0  0  0  0  0  0  0  0
   -3.1228    1.0080    1.7962 C   0  0  0  0  0  0  0  0  0  0  0  0
   -2.4334    1.9533    1.0360 C   0  0  0  0  0  0  0  0  0  0  0  0
   -3.1167    3.0354    0.4705 C   0  0  0  0  0  0  0  0  0  0  0  0
   -4.4899    3.1774    0.6607 C   0  0  0  0  0  0  0  0  0  0  0  0
   -5.1837    2.2370    1.4170 C   0  0  0  0  0  0  0  0  0  0  0  0
   -4.5006    1.1580    1.9807 C   0  0  0  0  0  0  0  0  0  0  0  0
    5.3021    0.5293    0.4583 H   0  0  0  0  0  0  0  0  0  0  0  0
    4.5020   -0.9377    1.0299 H   0  0  0  0  0  0  0  0  0  0  0  0
    3.6503    0.6195    1.0950 H   0  0  0  0  0  0  0  0  0  0  0  0
    0.8520   -1.1587   -3.6431 H   0  0  0  0  0  0  0  0  0  0  0  0
    2.2792   -1.2650   -4.6901 H   0  0  0  0  0  0  0  0  0  0  0  0
    1.8627   -2.6164   -3.6262 H   0  0  0  0  0  0  0  0  0  0  0  0
    2.2803   -3.2426   -1.0813 H   0  0  0  0  0  0  0  0  0  0  0  0
    2.7977   -2.5237    0.4235 H   0  0  0  0  0  0  0  0  0  0  0  0
   -1.4093   -2.0579    1.0334 H   0  0  0  0  0  0  0  0  0  0  0  0
   -1.1839   -0.5453    0.1430 H   0  0  0  0  0  0  0  0  0  0  0  0
   -0.6008    0.5946    2.3985 H   0  0  0  0  0  0  0  0  0  0  0  0
   -0.9099   -0.9387    3.1658 H   0  0  0  0  0  0  0  0  0  0  0  0
   -1.3664    1.8851    0.8572 H   0  0  0  0  0  0  0  0  0  0  0  0
   -2.5734    3.7696   -0.1193 H   0  0  0  0  0  0  0  0  0  0  0  0
   -5.0172    4.0198    0.2205 H   0  0  0  0  0  0  0  0  0  0  0  0
   -6.2544    2.3416    1.5703 H   0  0  0  0  0  0  0  0  0  0  0  0
   -5.0468    0.4272    2.5726 H   0  0  0  0  0  0  0  0  0  0  0  0
  1  2  1  0
  2  3  2  0
  3  4  1  0
  4  5  1  0
  5  6  1  0
  5  7  2  0
  7  8  1  0
  8  9  1  0
  9 10  1  0
 10 11  2  0
 10 12  1  0
 12 13  1  0
 13 14  1  0
 14 15  1  0
 15 16  2  0
 16 17  1  0
 17 18  2  0
 18 19  1  0
 19 20  2  0
  7  2  1  0
 20 15  1  0
  1 21  1  0
  1 22  1  0
  1 23  1  0
  6 24  1  0
  6 25  1  0
  6 26  1  0
  8 27  1  0
  8 28  1  0
 12 29  1  0
 12 30  1  0
 13 31  1  0
 13 32  1  0
 16 33  1  0
 17 34  1  0
 18 35  1  0
 19 36  1  0
 20 37  1  0
M  END
$$$$
