
     RDKit          3D

 50 52  0  0  0  0  0  0  0  0999 V2000
   -6.5753    0.0586   -1.6503 C   0  0  0  0  0  0  0  0  0  0  0  0
   -5.9939    0.9572   -0.8378 C   0  0  0  0  0  0  0  0  0  0  0  0
   -6.4194    2.3988   -0.8202 C   0  0  0  0  0  0  0  0  0  0  0  0
   -4.9146    0.5485    0.0884 C   0  0  0  0  0  0  0  0  0  0  0  0
   -4.9388    0.9436    1.4298 C   0  0  0  0  0  0  0  0  0  0  0  0
   -3.9142    0.5695    2.2964 C   0  0  0  0  0  0  0  0  0  0  0  0
   -2.8505   -0.2018    1.8290 C   0  0  0  0  0  0  0  0  0  0  0  0
   -2.7841   -0.6212    0.4854 C   0  0  0  0  0  0  0  0  0  0  0  0
   -1.5745   -1.4605    0.0114 C   0  0  0  0  0  0  0  0  0  0  0  0
   -1.6240   -1.8036   -1.4935 C   0  0  0  0  0  0  0  0  0  0  0  0
   -1.5686   -2.7869    0.8046 C   0  0  0  0  0  0  0  0  0  0  0  0
   -0.3732   -0.6503    0.2888 N   0  0  0  0  0  0  0  0  0  0  0  0
    0.9231   -1.0888    0.1152 C   0  0  0  0  0  0  0  0  0  0  0  0
    1.2093   -2.2220   -0.2411 O   0  0  0  0  0  0  0  0  0  0  0  0
    1.8117   -0.0782    0.4210 N   0  0  0  0  0  0  0  0  0  0  0  0
    3.2154   -0.0964    0.2952 C   0  0  0  0  0  0  0  0  0  0  0  0
    3.9283   -1.1276   -0.3228 C   0  0  0  0  0  0  0  0  0  0  0  0
    5.3228   -1.0662   -0.4251 C   0  0  0  0  0  0  0  0  0  0  0  0
    6.0116    0.0299    0.0836 C   0  0  0  0  0  0  0  0  0  0  0  0
    5.3097    1.0544    0.7218 C   0  0  0  0  0  0  0  0  0  0  0  0
    3.9181    1.0000    0.8123 C   0  0  0  0  0  0  0  0  0  0  0  0
    5.9199    2.1515    1.2763 O   0  0  0  0  0  0  0  0  0  0  0  0
    7.3284    1.9396    1.4314 C   0  0  0  0  0  0  0  0  0  0  0  0
    7.9224    1.3334    0.1707 C   0  0  0  0  0  0  0  0  0  0  0  0
    7.3734    0.0333   -0.0721 O   0  0  0  0  0  0  0  0  0  0  0  0
   -3.8307   -0.2253   -0.3691 C   0  0  0  0  0  0  0  0  0  0  0  0
   -6.2923   -0.9898   -1.6516 H   0  0  0  0  0  0  0  0  0  0  0  0
   -7.3730    0.3455   -2.3288 H   0  0  0  0  0  0  0  0  0  0  0  0
   -6.9450    2.6448    0.1079 H   0  0  0  0  0  0  0  0  0  0  0  0
   -5.5506    3.0590   -0.9175 H   0  0  0  0  0  0  0  0  0  0  0  0
   -7.0962    2.6306   -1.6502 H   0  0  0  0  0  0  0  0  0  0  0  0
   -5.7646    1.5325    1.8205 H   0  0  0  0  0  0  0  0  0  0  0  0
   -3.9463    0.8756    3.3389 H   0  0  0  0  0  0  0  0  0  0  0  0
   -2.0615   -0.4757    2.5279 H   0  0  0  0  0  0  0  0  0  0  0  0
   -1.6022   -0.8977   -2.1111 H   0  0  0  0  0  0  0  0  0  0  0  0
   -0.7688   -2.4146   -1.8016 H   0  0  0  0  0  0  0  0  0  0  0  0
   -2.5254   -2.3731   -1.7483 H   0  0  0  0  0  0  0  0  0  0  0  0
   -1.3631   -2.6284    1.8693 H   0  0  0  0  0  0  0  0  0  0  0  0
   -0.8073   -3.4824    0.4367 H   0  0  0  0  0  0  0  0  0  0  0  0
   -2.5355   -3.2982    0.7240 H   0  0  0  0  0  0  0  0  0  0  0  0
   -0.5016    0.3383    0.1335 H   0  0  0  0  0  0  0  0  0  0  0  0
    1.4155    0.7077    0.9138 H   0  0  0  0  0  0  0  0  0  0  0  0
    3.4270   -1.9933   -0.7450 H   0  0  0  0  0  0  0  0  0  0  0  0
    5.8644   -1.8716   -0.9136 H   0  0  0  0  0  0  0  0  0  0  0  0
    3.3970    1.8175    1.3017 H   0  0  0  0  0  0  0  0  0  0  0  0
    7.7886    2.9110    1.6374 H   0  0  0  0  0  0  0  0  0  0  0  0
    7.4897    1.2930    2.3029 H   0  0  0  0  0  0  0  0  0  0  0  0
    9.0057    1.2210    0.2788 H   0  0  0  0  0  0  0  0  0  0  0  0
    7.7296    1.9628   -0.7070 H   0  0  0  0  0  0  0  0  0  0  0  0
   -3.8165   -0.5040   -1.4198 H   0  0  0  0  0  0  0  0  0  0  0  0
  1  2  2  3
  2  3  1  0
  2  4  1  0
  4  5  2  0
  5  6  1  0
  6  7  2  0
  7  8  1  0
  8  9  1  0
  9 10  1  0
  9 11  1  0
  9 12  1  0
 12 13  1  0
 13 14  2  0
 13 15  1  0
 15 16  1  0
 16 17  2  0
 17 18  1  0
 18 19  2  0
 19 20  1  0
 20 21  2  0
 20 22  1  0
 22 23  1  0
 23 24  1  0
 24 25  1  0
  8 26  2  0
 26  4  1  0
 21 16  1  0
 25 19  1  0
  1 27  1  0
  1 28  1  0
  3 29  1  0
  3 30  1  0
  3 31  1  0
  5 32  1  0
  6 33  1  0
  7 34  1  0
 10 35  1  0
 10 36  1  0
 10 37  1  0
 11 38  1  0
 11 39  1  0
 11 40  1  0
 12 41  1  0
 15 42  1  0
 17 43  1  0
 18 44  1  0
 21 45  1  0
 23 46  1  0
 23 47  1  0
 24 48  1  0
 24 49  1  0
 26 50  1  0
M  END
$$$$
