
     RDKit          3D

 56 57  0  0  0  0  0  0  0  0999 V2000
   -1.4024   -3.6286    0.2142 C   0  0  0  0  0  0  0  0  0  0  0  0
   -2.6269   -2.7865    0.5302 C   0  0  0  0  0  0  0  0  0  0  0  0
   -3.0980   -2.0048   -0.6151 N   0  0  0  0  0  0  0  0  0  0  0  0
   -3.9700   -2.6760   -1.5821 C   0  0  0  0  0  0  0  0  0  0  0  0
   -3.2259   -3.1605   -2.8184 C   0  0  0  0  0  0  0  0  0  0  0  0
   -2.6922   -0.7016   -0.9105 C   0  0  0  0  0  0  0  0  0  0  0  0
   -3.1697   -0.0834   -1.8680 O   0  0  0  0  0  0  0  0  0  0  0  0
   -1.6813   -0.0271    0.0241 C   0  0  0  0  0  0  0  0  0  0  0  0
   -0.8503    1.0183   -0.6200 N   0  0  0  0  0  0  0  0  0  0  0  0
   -1.5870    2.2158   -1.0733 C   0  0  0  0  0  0  0  0  0  0  0  0
   -1.0316    3.4686   -0.4324 C   0  0  0  0  0  0  0  0  0  0  0  0
   -1.3013    3.7564    0.9142 C   0  0  0  0  0  0  0  0  0  0  0  0
   -0.7717    4.8995    1.5153 C   0  0  0  0  0  0  0  0  0  0  0  0
    0.0372    5.7631    0.7795 C   0  0  0  0  0  0  0  0  0  0  0  0
    0.3189    5.4837   -0.5562 C   0  0  0  0  0  0  0  0  0  0  0  0
   -0.2112    4.3419   -1.1592 C   0  0  0  0  0  0  0  0  0  0  0  0
    0.3843    0.4593   -1.6363 S   0  0  0  0  0  6  0  0  0  0  0  0
    0.9302    1.5529   -2.4090 O   0  0  0  0  0  0  0  0  0  0  0  0
   -0.0545   -0.7704   -2.2608 O   0  0  0  0  0  0  0  0  0  0  0  0
    1.6294    0.0288   -0.4357 C   0  0  0  0  0  0  0  0  0  0  0  0
    2.1355    1.0274    0.3977 C   0  0  0  0  0  0  0  0  0  0  0  0
    3.0980    0.7035    1.3565 C   0  0  0  0  0  0  0  0  0  0  0  0
    3.5578   -0.6128    1.4829 C   0  0  0  0  0  0  0  0  0  0  0  0
    4.4935   -1.0290    2.3943 O   0  0  0  0  0  0  0  0  0  0  0  0
    5.1003   -0.0336    3.2083 C   0  0  0  0  0  0  0  0  0  0  0  0
    3.0463   -1.6169    0.6358 C   0  0  0  0  0  0  0  0  0  0  0  0
    3.5315   -3.0366    0.7474 C   0  0  0  0  0  0  0  0  0  0  0  0
    2.0824   -1.2869   -0.3292 C   0  0  0  0  0  0  0  0  0  0  0  0
   -1.0237   -4.1017    1.1256 H   0  0  0  0  0  0  0  0  0  0  0  0
   -1.6443   -4.4245   -0.4959 H   0  0  0  0  0  0  0  0  0  0  0  0
   -0.6001   -3.0254   -0.2192 H   0  0  0  0  0  0  0  0  0  0  0  0
   -3.4461   -3.4266    0.8768 H   0  0  0  0  0  0  0  0  0  0  0  0
   -2.4016   -2.1104    1.3604 H   0  0  0  0  0  0  0  0  0  0  0  0
   -4.7519   -1.9722   -1.8910 H   0  0  0  0  0  0  0  0  0  0  0  0
   -4.4753   -3.5154   -1.0922 H   0  0  0  0  0  0  0  0  0  0  0  0
   -2.7368   -2.3332   -3.3421 H   0  0  0  0  0  0  0  0  0  0  0  0
   -2.4547   -3.8913   -2.5616 H   0  0  0  0  0  0  0  0  0  0  0  0
   -3.9233   -3.6364   -3.5148 H   0  0  0  0  0  0  0  0  0  0  0  0
   -1.0042   -0.7594    0.4692 H   0  0  0  0  0  0  0  0  0  0  0  0
   -2.2424    0.4226    0.8518 H   0  0  0  0  0  0  0  0  0  0  0  0
   -1.5788    2.2970   -2.1668 H   0  0  0  0  0  0  0  0  0  0  0  0
   -2.6479    2.1547   -0.8003 H   0  0  0  0  0  0  0  0  0  0  0  0
   -1.9256    3.0875    1.5013 H   0  0  0  0  0  0  0  0  0  0  0  0
   -0.9895    5.1159    2.5578 H   0  0  0  0  0  0  0  0  0  0  0  0
    0.4500    6.6533    1.2466 H   0  0  0  0  0  0  0  0  0  0  0  0
    0.9548    6.1523   -1.1310 H   0  0  0  0  0  0  0  0  0  0  0  0
    0.0297    4.1303   -2.1999 H   0  0  0  0  0  0  0  0  0  0  0  0
    1.7848    2.0537    0.3049 H   0  0  0  0  0  0  0  0  0  0  0  0
    3.4678    1.5038    1.9892 H   0  0  0  0  0  0  0  0  0  0  0  0
    5.8435   -0.5278    3.8415 H   0  0  0  0  0  0  0  0  0  0  0  0
    4.3641    0.4385    3.8669 H   0  0  0  0  0  0  0  0  0  0  0  0
    5.6244    0.7108    2.5998 H   0  0  0  0  0  0  0  0  0  0  0  0
    4.6048   -3.0875    0.5374 H   0  0  0  0  0  0  0  0  0  0  0  0
    3.3372   -3.4263    1.7519 H   0  0  0  0  0  0  0  0  0  0  0  0
    3.0211   -3.6929    0.0345 H   0  0  0  0  0  0  0  0  0  0  0  0
    1.6924   -2.0539   -0.9952 H   0  0  0  0  0  0  0  0  0  0  0  0
  1  2  1  0
  2  3  1  0
  3  4  1  0
  4  5  1  0
  3  6  1  0
  6  7  2  0
  6  8  1  0
  8  9  1  0
  9 10  1  0
 10 11  1  0
 11 12  2  0
 12 13  1  0
 13 14  2  0
 14 15  1  0
 15 16  2  0
  9 17  1  0
 17 18  2  0
 17 19  2  0
 17 20  1  0
 20 21  2  0
 21 22  1  0
 22 23  2  0
 23 24  1  0
 24 25  1  0
 23 26  1  0
 26 27  1  0
 26 28  2  0
 16 11  1  0
 28 20  1  0
  1 29  1  0
  1 30  1  0
  1 31  1  0
  2 32  1  0
  2 33  1  0
  4 34  1  0
  4 35  1  0
  5 36  1  0
  5 37  1  0
  5 38  1  0
  8 39  1  0
  8 40  1  0
 10 41  1  0
 10 42  1  0
 12 43  1  0
 13 44  1  0
 14 45  1  0
 15 46  1  0
 16 47  1  0
 21 48  1  0
 22 49  1  0
 25 50  1  0
 25 51  1  0
 25 52  1  0
 27 53  1  0
 27 54  1  0
 27 55  1  0
 28 56  1  0
M  END
$$$$
