
     RDKit          3D

 34 36  0  0  0  0  0  0  0  0999 V2000
   -0.5081   -2.9228    1.1240 C   0  0  0  0  0  0  0  0  0  0  0  0
   -1.3159   -1.7263    0.6878 C   0  0  0  0  0  0  0  0  0  0  0  0
   -2.6736   -1.9457    0.8264 N   0  0  0  0  0  0  0  0  0  0  0  0
   -3.4622   -1.0366    0.3752 C   0  0  0  0  0  0  0  0  0  0  0  0
   -5.2102   -1.1386    0.4665 S   0  0  0  0  0  0  0  0  0  0  0  0
   -5.3640    0.3904   -0.3417 C   0  0  0  0  0  0  0  0  0  0  0  0
   -4.1703    0.9228   -0.6488 C   0  0  0  0  0  0  0  0  0  0  0  0
   -3.9854    2.2301   -1.3445 C   0  0  0  0  0  0  0  0  0  0  0  0
   -3.0973    0.1325   -0.2472 N   0  0  0  0  0  0  0  0  0  0  0  0
   -1.7642    0.4010   -0.4318 C   0  0  0  0  0  0  0  0  0  0  0  0
   -1.2975    1.3801   -1.0210 O   0  0  0  0  0  0  0  0  0  0  0  0
   -0.7945   -0.6069    0.1402 C   0  0  0  0  0  0  0  0  0  0  0  0
    0.5319   -0.2393   -0.0293 N   0  0  0  0  0  0  0  0  0  0  0  0
    1.6250   -0.5693    0.7434 C   0  0  0  0  0  0  0  0  0  0  0  0
    1.5984   -1.2078    1.7876 O   0  0  0  0  0  0  0  0  0  0  0  0
    2.9277   -0.0077    0.2767 C   0  0  0  0  0  0  0  0  0  0  0  0
    3.1785    0.2580   -1.0788 C   0  0  0  0  0  0  0  0  0  0  0  0
    4.4151    0.7784   -1.4698 C   0  0  0  0  0  0  0  0  0  0  0  0
    5.3944    1.0223   -0.5125 C   0  0  0  0  0  0  0  0  0  0  0  0
    6.5777    1.5199   -0.8932 F   0  0  0  0  0  0  0  0  0  0  0  0
    5.1659    0.7503    0.8313 C   0  0  0  0  0  0  0  0  0  0  0  0
    3.9323    0.2298    1.2274 C   0  0  0  0  0  0  0  0  0  0  0  0
   -0.3085   -2.8818    2.1990 H   0  0  0  0  0  0  0  0  0  0  0  0
    0.4296   -3.0206    0.5701 H   0  0  0  0  0  0  0  0  0  0  0  0
   -1.0634   -3.8481    0.9273 H   0  0  0  0  0  0  0  0  0  0  0  0
   -6.3271    0.8339   -0.5575 H   0  0  0  0  0  0  0  0  0  0  0  0
   -3.4689    2.0936   -2.2998 H   0  0  0  0  0  0  0  0  0  0  0  0
   -4.9484    2.7056   -1.5612 H   0  0  0  0  0  0  0  0  0  0  0  0
   -3.4134    2.9254   -0.7220 H   0  0  0  0  0  0  0  0  0  0  0  0
    0.6322    0.5957   -0.6069 H   0  0  0  0  0  0  0  0  0  0  0  0
    2.4370    0.0439   -1.8440 H   0  0  0  0  0  0  0  0  0  0  0  0
    4.6252    0.9870   -2.5146 H   0  0  0  0  0  0  0  0  0  0  0  0
    5.9474    0.9403    1.5605 H   0  0  0  0  0  0  0  0  0  0  0  0
    3.7544    0.0106    2.2790 H   0  0  0  0  0  0  0  0  0  0  0  0
  1  2  1  0
  2  3  1  0
  3  4  2  0
  4  5  1  0
  5  6  1  0
  6  7  2  0
  7  8  1  0
  7  9  1  0
  9 10  1  0
 10 11  2  0
 10 12  1  0
 12 13  1  0
 13 14  1  0
 14 15  2  0
 14 16  1  0
 16 17  2  0
 17 18  1  0
 18 19  2  0
 19 20  1  0
 19 21  1  0
 21 22  2  0
 12  2  2  0
 22 16  1  0
  9  4  1  0
  1 23  1  0
  1 24  1  0
  1 25  1  0
  6 26  1  0
  8 27  1  0
  8 28  1  0
  8 29  1  0
 13 30  1  0
 17 31  1  0
 18 32  1  0
 21 33  1  0
 22 34  1  0
M  END
$$$$
