
     RDKit          3D

 49 52  0  0  0  0  0  0  0  0999 V2000
    6.7275    1.6179    0.1568 C   0  0  0  0  0  0  0  0  0  0  0  0
    6.8931    0.1839    0.1660 N   0  0  0  0  0  0  0  0  0  0  0  0
    8.1146   -0.3099    0.4824 N   0  0  0  0  0  0  0  0  0  0  0  0
    8.0063   -1.6138    0.2288 C   0  0  0  0  0  0  0  0  0  0  0  0
    6.7295   -1.9649   -0.2393 C   0  0  0  0  0  0  0  0  0  0  0  0
    6.0036   -0.7930   -0.2288 C   0  0  0  0  0  0  0  0  0  0  0  0
    4.7136   -0.5876   -0.5967 N   0  0  0  0  0  0  0  0  0  0  0  0
    3.7329    0.0573    0.1742 C   0  0  0  0  0  0  0  0  0  0  0  0
    4.0556    0.8541    1.2029 N   0  0  0  0  0  0  0  0  0  0  0  0
    3.0479    1.4059    1.8992 C   0  0  0  0  0  0  0  0  0  0  0  0
    1.7252    1.2026    1.6028 C   0  0  0  0  0  0  0  0  0  0  0  0
    1.4758    0.3774    0.5280 C   0  0  0  0  0  0  0  0  0  0  0  0
    0.0884    0.0717    0.1014 C   0  0  0  0  0  0  0  0  0  0  0  0
   -0.9804    1.0565    0.0796 C   0  0  0  0  0  0  0  0  0  0  0  0
   -2.2193    0.7209   -0.2976 C   0  0  0  0  0  0  0  0  0  0  0  0
   -2.5320   -0.5743   -0.6812 N   0  0  0  0  0  0  0  0  0  0  0  0
   -3.8948   -0.9289   -1.1464 C   0  0  2  0  0  0  0  0  0  0  0  0
   -4.0188   -0.7550   -2.6831 C   0  0  0  0  0  0  0  0  0  0  0  0
   -3.7067    0.5709   -3.1174 O   0  0  0  0  0  0  0  0  0  0  0  0
   -5.0028   -0.3030   -0.2964 C   0  0  0  0  0  0  0  0  0  0  0  0
   -5.1762   -0.7585    1.0264 C   0  0  0  0  0  0  0  0  0  0  0  0
   -6.1663   -0.2183    1.8532 C   0  0  0  0  0  0  0  0  0  0  0  0
   -6.9973    0.7892    1.3696 C   0  0  0  0  0  0  0  0  0  0  0  0
   -8.2095    1.4534    2.3947 Cl  0  0  0  0  0  0  0  0  0  0  0  0
   -6.8347    1.2498    0.0665 C   0  0  0  0  0  0  0  0  0  0  0  0
   -7.6197    2.2241   -0.4171 F   0  0  0  0  0  0  0  0  0  0  0  0
   -5.8495    0.7139   -0.7635 C   0  0  0  0  0  0  0  0  0  0  0  0
   -1.5508   -1.5619   -0.7614 C   0  0  0  0  0  0  0  0  0  0  0  0
   -1.7490   -2.7029   -1.1699 O   0  0  0  0  0  0  0  0  0  0  0  0
   -0.1876   -1.1771   -0.3171 C   0  0  0  0  0  0  0  0  0  0  0  0
    2.4667   -0.2038   -0.1830 N   0  0  0  0  0  0  0  0  0  0  0  0
    6.5140    1.9465    1.1762 H   0  0  0  0  0  0  0  0  0  0  0  0
    5.9237    1.8979   -0.5270 H   0  0  0  0  0  0  0  0  0  0  0  0
    7.6577    2.0759   -0.1922 H   0  0  0  0  0  0  0  0  0  0  0  0
    8.8648   -2.2525    0.3902 H   0  0  0  0  0  0  0  0  0  0  0  0
    6.3785   -2.9464   -0.5205 H   0  0  0  0  0  0  0  0  0  0  0  0
    4.2161   -1.3294   -1.0807 H   0  0  0  0  0  0  0  0  0  0  0  0
    3.3495    2.0343    2.7324 H   0  0  0  0  0  0  0  0  0  0  0  0
    0.9422    1.6557    2.1947 H   0  0  0  0  0  0  0  0  0  0  0  0
   -0.7582    2.0837    0.3522 H   0  0  0  0  0  0  0  0  0  0  0  0
   -3.0109    1.4647   -0.3244 H   0  0  0  0  0  0  0  0  0  0  0  0
   -4.0216   -2.0104   -0.9895 H   0  0  0  0  0  0  0  0  0  0  0  0
   -5.0334   -0.9909   -3.0211 H   0  0  0  0  0  0  0  0  0  0  0  0
   -3.3334   -1.4346   -3.2019 H   0  0  0  0  0  0  0  0  0  0  0  0
   -2.7532    0.6933   -2.9575 H   0  0  0  0  0  0  0  0  0  0  0  0
   -4.5310   -1.5436    1.4210 H   0  0  0  0  0  0  0  0  0  0  0  0
   -6.2809   -0.5875    2.8692 H   0  0  0  0  0  0  0  0  0  0  0  0
   -5.7609    1.1163   -1.7694 H   0  0  0  0  0  0  0  0  0  0  0  0
    0.5516   -1.9695   -0.3521 H   0  0  0  0  0  0  0  0  0  0  0  0
  1  2  1  0
  2  3  1  0
  3  4  2  0
  4  5  1  0
  5  6  2  0
  6  7  1  0
  7  8  1  0
  8  9  2  0
  9 10  1  0
 10 11  2  0
 11 12  1  0
 12 13  1  0
 13 14  1  0
 14 15  2  0
 15 16  1  0
 16 17  1  0
 17 18  1  0
 18 19  1  0
 17 20  1  0
 20 21  2  0
 21 22  1  0
 22 23  2  0
 23 24  1  0
 23 25  1  0
 25 26  1  0
 25 27  2  0
 16 28  1  0
 28 29  2  0
 28 30  1  0
 12 31  2  0
  6  2  1  0
 31  8  1  0
 30 13  2  0
 27 20  1  0
  1 32  1  0
  1 33  1  0
  1 34  1  0
  4 35  1  0
  5 36  1  0
  7 37  1  0
 10 38  1  0
 11 39  1  0
 14 40  1  0
 15 41  1  0
 17 42  1  6
 18 43  1  0
 18 44  1  0
 19 45  1  0
 21 46  1  0
 22 47  1  0
 27 48  1  0
 30 49  1  0
M  END
$$$$
