
     RDKit          3D

 50 52  0  0  0  0  0  0  0  0999 V2000
   -5.1639    2.0069   -2.9225 C   0  0  0  0  0  0  0  0  0  0  0  0
   -5.0934    1.6723   -1.5437 O   0  0  0  0  0  0  0  0  0  0  0  0
   -3.9303    1.0987   -1.0977 C   0  0  0  0  0  0  0  0  0  0  0  0
   -2.9386    0.5568   -1.9242 C   0  0  0  0  0  0  0  0  0  0  0  0
   -1.7841   -0.0481   -1.3943 C   0  0  0  0  0  0  0  0  0  0  0  0
   -0.8119   -0.5142   -2.2906 N   0  0  0  0  0  0  0  0  0  0  0  0
    0.2274   -1.4493   -1.8575 C   0  0  0  0  0  0  0  0  0  0  0  0
    1.4563   -0.7792   -1.2538 C   0  0  0  0  0  0  0  0  0  0  0  0
    1.6882    0.5801   -1.4835 C   0  0  0  0  0  0  0  0  0  0  0  0
    2.7901    1.2243   -0.9292 C   0  0  0  0  0  0  0  0  0  0  0  0
    3.7014    0.5650   -0.1287 C   0  0  0  0  0  0  0  0  0  0  0  0
    4.6944    1.3135    0.3546 N   0  0  0  0  0  0  0  0  0  0  0  0
    5.5975    0.7180    1.1212 C   0  0  0  0  0  0  0  0  0  0  0  0
    6.6211    1.4926    1.6266 N   0  0  0  0  0  0  0  0  0  0  0  0
    5.5559   -0.5558    1.4785 N   0  0  0  0  0  0  0  0  0  0  0  0
    4.5498   -1.3014    0.9965 C   0  0  0  0  0  0  0  0  0  0  0  0
    4.5992   -2.6297    1.4347 N   0  0  0  0  0  0  0  0  0  0  0  0
    3.5399   -0.8068    0.1268 C   0  0  0  0  0  0  0  0  0  0  0  0
    2.4125   -1.5008   -0.4878 C   0  0  0  0  0  0  0  0  0  0  0  0
    2.2450   -2.9927   -0.3114 C   0  0  0  0  0  0  0  0  0  0  0  0
   -1.6080   -0.0243   -0.0047 C   0  0  0  0  0  0  0  0  0  0  0  0
   -2.5770    0.5277    0.8399 C   0  0  0  0  0  0  0  0  0  0  0  0
   -2.4527    0.5406    2.2068 O   0  0  0  0  0  0  0  0  0  0  0  0
   -1.1490    0.8763    2.6736 C   0  0  0  0  0  0  0  0  0  0  0  0
   -3.7545    1.0469    0.2910 C   0  0  0  0  0  0  0  0  0  0  0  0
   -4.7001    1.6065    1.1196 O   0  0  0  0  0  0  0  0  0  0  0  0
   -5.6456    0.6118    1.5075 C   0  0  0  0  0  0  0  0  0  0  0  0
   -6.0847    2.5763   -3.0814 H   0  0  0  0  0  0  0  0  0  0  0  0
   -5.2203    1.1054   -3.5406 H   0  0  0  0  0  0  0  0  0  0  0  0
   -4.3240    2.6415   -3.2239 H   0  0  0  0  0  0  0  0  0  0  0  0
   -3.0499    0.5862   -3.0030 H   0  0  0  0  0  0  0  0  0  0  0  0
   -1.2205   -0.7879   -3.1807 H   0  0  0  0  0  0  0  0  0  0  0  0
    0.5658   -2.0046   -2.7409 H   0  0  0  0  0  0  0  0  0  0  0  0
   -0.2108   -2.1745   -1.1625 H   0  0  0  0  0  0  0  0  0  0  0  0
    1.0012    1.1668   -2.0920 H   0  0  0  0  0  0  0  0  0  0  0  0
    2.9292    2.2863   -1.1250 H   0  0  0  0  0  0  0  0  0  0  0  0
    6.9706    1.0683    2.4747 H   0  0  0  0  0  0  0  0  0  0  0  0
    6.3270    2.4575    1.6739 H   0  0  0  0  0  0  0  0  0  0  0  0
    4.7896   -3.2511    0.6576 H   0  0  0  0  0  0  0  0  0  0  0  0
    3.7346   -2.8906    1.8933 H   0  0  0  0  0  0  0  0  0  0  0  0
    1.9331   -3.2227    0.7113 H   0  0  0  0  0  0  0  0  0  0  0  0
    3.1719   -3.5149   -0.5620 H   0  0  0  0  0  0  0  0  0  0  0  0
    1.5030   -3.4274   -0.9854 H   0  0  0  0  0  0  0  0  0  0  0  0
   -0.7127   -0.4464    0.4346 H   0  0  0  0  0  0  0  0  0  0  0  0
   -1.2403    1.1953    3.7164 H   0  0  0  0  0  0  0  0  0  0  0  0
   -0.4947   -0.0007    2.6500 H   0  0  0  0  0  0  0  0  0  0  0  0
   -0.7107    1.7051    2.1067 H   0  0  0  0  0  0  0  0  0  0  0  0
   -6.3826    1.0879    2.1612 H   0  0  0  0  0  0  0  0  0  0  0  0
   -5.1675   -0.1968    2.0715 H   0  0  0  0  0  0  0  0  0  0  0  0
   -6.1770    0.2056    0.6396 H   0  0  0  0  0  0  0  0  0  0  0  0
  1  2  1  0
  2  3  1  0
  3  4  2  0
  4  5  1  0
  5  6  1  0
  6  7  1  0
  7  8  1  0
  8  9  2  0
  9 10  1  0
 10 11  2  0
 11 12  1  0
 12 13  2  0
 13 14  1  0
 13 15  1  0
 15 16  2  0
 16 17  1  0
 16 18  1  0
 18 19  2  0
 19 20  1  0
  5 21  2  0
 21 22  1  0
 22 23  1  0
 23 24  1  0
 22 25  2  0
 25 26  1  0
 26 27  1  0
 25  3  1  0
 19  8  1  0
 18 11  1  0
  1 28  1  0
  1 29  1  0
  1 30  1  0
  4 31  1  0
  6 32  1  0
  7 33  1  0
  7 34  1  0
  9 35  1  0
 10 36  1  0
 14 37  1  0
 14 38  1  0
 17 39  1  0
 17 40  1  0
 20 41  1  0
 20 42  1  0
 20 43  1  0
 21 44  1  0
 24 45  1  0
 24 46  1  0
 24 47  1  0
 27 48  1  0
 27 49  1  0
 27 50  1  0
M  END
$$$$
