
     RDKit          3D

 40 42  0  0  0  0  0  0  0  0999 V2000
   -5.5049    1.3830   -0.4975 C   0  0  0  0  0  0  0  0  0  0  0  0
   -5.0130    0.1874    0.3320 C   0  0  0  0  0  0  0  0  0  0  0  0
   -5.4767    0.3712    1.7810 C   0  0  0  0  0  0  0  0  0  0  0  0
   -5.5654   -1.1006   -0.2878 C   0  0  0  0  0  0  0  0  0  0  0  0
   -3.5652    0.2408    0.2319 O   0  0  0  0  0  0  0  0  0  0  0  0
   -2.7951   -0.6800    0.8551 C   0  0  0  0  0  0  0  0  0  0  0  0
   -3.1775   -1.6162    1.5358 O   0  0  0  0  0  0  0  0  0  0  0  0
   -1.3633   -0.4054    0.6007 C   0  0  0  0  0  0  0  0  0  0  0  0
   -0.3918   -1.2372    1.1560 C   0  0  0  0  0  0  0  0  0  0  0  0
    0.9617   -0.9791    0.9197 C   0  0  0  0  0  0  0  0  0  0  0  0
    1.3211    0.1106    0.1322 C   0  0  0  0  0  0  0  0  0  0  0  0
    2.6672    0.4040   -0.1414 N   0  0  0  0  0  0  0  0  0  0  0  0
    2.9859    1.5478   -0.8780 N   0  0  0  0  0  0  0  0  0  0  0  0
    4.3285    1.4715   -1.1350 C   0  0  0  0  0  0  0  0  0  0  0  0
    4.9417    0.4503   -0.5149 C   0  0  0  0  0  0  0  0  0  0  0  0
    6.2857    0.1267   -0.5539 N   0  0  0  0  0  0  0  0  0  0  0  0
    6.9174   -0.9370    0.0742 C   0  0  0  0  0  0  0  0  0  0  0  0
    8.2421   -0.8420   -0.2615 C   0  0  0  0  0  0  0  0  0  0  0  0
    8.4249    0.2350   -1.0646 N   0  0  0  0  0  0  0  0  0  0  0  0
    7.2487    0.8192   -1.2398 N   0  0  0  0  0  0  0  0  0  0  0  0
    3.8356   -0.2844    0.1701 C   0  0  0  0  0  0  0  0  0  0  0  0
    3.9818   -1.3044    0.8229 O   0  0  0  0  0  0  0  0  0  0  0  0
    0.3830    0.9249   -0.4250 N   0  0  0  0  0  0  0  0  0  0  0  0
   -0.9249    0.6551   -0.1765 C   0  0  0  0  0  0  0  0  0  0  0  0
   -5.1594    1.3059   -1.5351 H   0  0  0  0  0  0  0  0  0  0  0  0
   -6.5977    1.4540   -0.5012 H   0  0  0  0  0  0  0  0  0  0  0  0
   -5.0981    2.3227   -0.1059 H   0  0  0  0  0  0  0  0  0  0  0  0
   -5.2103   -0.4856    2.4071 H   0  0  0  0  0  0  0  0  0  0  0  0
   -6.5636    0.4940    1.8389 H   0  0  0  0  0  0  0  0  0  0  0  0
   -5.0021    1.2497    2.2326 H   0  0  0  0  0  0  0  0  0  0  0  0
   -5.1531   -1.2572   -1.2910 H   0  0  0  0  0  0  0  0  0  0  0  0
   -6.6579   -1.0709   -0.3608 H   0  0  0  0  0  0  0  0  0  0  0  0
   -5.3007   -1.9838    0.3013 H   0  0  0  0  0  0  0  0  0  0  0  0
   -0.6779   -2.0857    1.7747 H   0  0  0  0  0  0  0  0  0  0  0  0
    1.7030   -1.6343    1.3646 H   0  0  0  0  0  0  0  0  0  0  0  0
    2.3659    1.7169   -1.6729 H   0  0  0  0  0  0  0  0  0  0  0  0
    4.7818    2.2108   -1.7844 H   0  0  0  0  0  0  0  0  0  0  0  0
    6.3791   -1.6438    0.6874 H   0  0  0  0  0  0  0  0  0  0  0  0
    9.0611   -1.4838    0.0296 H   0  0  0  0  0  0  0  0  0  0  0  0
   -1.6173    1.3498   -0.6446 H   0  0  0  0  0  0  0  0  0  0  0  0
  1  2  1  0
  2  3  1  0
  2  4  1  0
  2  5  1  0
  5  6  1  0
  6  7  2  0
  6  8  1  0
  8  9  2  0
  9 10  1  0
 10 11  2  0
 11 12  1  0
 12 13  1  0
 13 14  1  0
 14 15  2  0
 15 16  1  0
 16 17  1  0
 17 18  2  0
 18 19  1  0
 19 20  2  0
 15 21  1  0
 21 22  2  0
 11 23  1  0
 23 24  2  0
 24  8  1  0
 21 12  1  0
 20 16  1  0
  1 25  1  0
  1 26  1  0
  1 27  1  0
  3 28  1  0
  3 29  1  0
  3 30  1  0
  4 31  1  0
  4 32  1  0
  4 33  1  0
  9 34  1  0
 10 35  1  0
 13 36  1  0
 14 37  1  0
 17 38  1  0
 18 39  1  0
 24 40  1  0
M  END
$$$$
