
     RDKit          3D

 42 45  0  0  0  0  0  0  0  0999 V2000
   -2.6117    0.7798   -1.3902 C   0  0  0  0  0  0  0  0  0  0  0  0
   -2.2678    1.0193    0.0916 C   0  0  2  0  0  0  0  0  0  0  0  0
   -1.3020    2.1886    0.2495 C   0  0  0  0  0  0  0  0  0  0  0  0
    0.1055    1.8250   -0.2623 C   0  0  0  0  0  0  0  0  0  0  0  0
    0.6685    0.5028    0.3280 C   0  0  2  0  0  0  0  0  0  0  0  0
    2.0280    0.0759   -0.2199 C   0  0  0  0  0  0  0  0  0  0  0  0
    2.9875    1.0279   -0.6115 C   0  0  0  0  0  0  0  0  0  0  0  0
    4.2490    0.6424   -1.0738 C   0  0  0  0  0  0  0  0  0  0  0  0
    4.5697   -0.7046   -1.1366 C   0  0  0  0  0  0  0  0  0  0  0  0
    5.7855   -1.1284   -1.5839 O   0  0  0  0  0  0  0  0  0  0  0  0
    3.6534   -1.6666   -0.7368 C   0  0  0  0  0  0  0  0  0  0  0  0
    2.3849   -1.2900   -0.2622 C   0  0  0  0  0  0  0  0  0  0  0  0
    1.4303   -2.3896    0.1360 C   0  0  0  0  0  0  0  0  0  0  0  0
    0.2030   -1.9015    0.9005 C   0  0  0  0  0  0  0  0  0  0  0  0
   -0.3711   -0.6567    0.2222 C   0  0  1  0  0  0  0  0  0  0  0  0
   -1.6795   -0.1857    0.8552 C   0  0  2  0  0  0  0  0  0  0  0  0
   -2.8532   -1.1488    0.9923 C   0  0  0  0  0  0  0  0  0  0  0  0
   -4.0057   -0.2216    1.4072 C   0  0  0  0  0  0  0  0  0  0  0  0
   -3.5895    1.1214    0.8311 C   0  0  0  0  0  0  0  0  0  0  0  0
   -4.2537    2.1441    0.9328 O   0  0  0  0  0  0  0  0  0  0  0  0
   -3.0679    1.6788   -1.8225 H   0  0  0  0  0  0  0  0  0  0  0  0
   -1.7347    0.5385   -1.9964 H   0  0  0  0  0  0  0  0  0  0  0  0
   -3.3378   -0.0288   -1.5258 H   0  0  0  0  0  0  0  0  0  0  0  0
   -1.6711    3.0724   -0.2850 H   0  0  0  0  0  0  0  0  0  0  0  0
   -1.2355    2.4829    1.3052 H   0  0  0  0  0  0  0  0  0  0  0  0
    0.0944    1.7628   -1.3575 H   0  0  0  0  0  0  0  0  0  0  0  0
    0.7660    2.6628   -0.0105 H   0  0  0  0  0  0  0  0  0  0  0  0
    0.8424    0.6953    1.3983 H   0  0  0  0  0  0  0  0  0  0  0  0
    2.7753    2.0921   -0.5576 H   0  0  0  0  0  0  0  0  0  0  0  0
    4.9599    1.4060   -1.3725 H   0  0  0  0  0  0  0  0  0  0  0  0
    6.3127   -0.3498   -1.8262 H   0  0  0  0  0  0  0  0  0  0  0  0
    3.9301   -2.7166   -0.7937 H   0  0  0  0  0  0  0  0  0  0  0  0
    1.1009   -2.8958   -0.7806 H   0  0  0  0  0  0  0  0  0  0  0  0
    1.9539   -3.1314    0.7511 H   0  0  0  0  0  0  0  0  0  0  0  0
   -0.5346   -2.7108    0.9358 H   0  0  0  0  0  0  0  0  0  0  0  0
    0.4761   -1.6724    1.9387 H   0  0  0  0  0  0  0  0  0  0  0  0
   -0.5418   -0.9045   -0.8334 H   0  0  0  0  0  0  0  0  0  0  0  0
   -1.4382    0.1316    1.8847 H   0  0  0  0  0  0  0  0  0  0  0  0
   -3.0750   -1.6547    0.0465 H   0  0  0  0  0  0  0  0  0  0  0  0
   -2.6797   -1.9196    1.7496 H   0  0  0  0  0  0  0  0  0  0  0  0
   -4.0683   -0.1347    2.4958 H   0  0  0  0  0  0  0  0  0  0  0  0
   -4.9583   -0.5509    0.9869 H   0  0  0  0  0  0  0  0  0  0  0  0
  2  1  1  6
  2  3  1  0
  3  4  1  0
  4  5  1  0
  5  6  1  0
  6  7  2  0
  7  8  1  0
  8  9  2  0
  9 10  1  0
  9 11  1  0
 11 12  2  0
 12 13  1  0
 13 14  1  0
 14 15  1  0
 15 16  1  0
 16 17  1  0
 17 18  1  0
 18 19  1  0
 19 20  2  0
 16  2  1  0
 19  2  1  0
 15  5  1  0
 12  6  1  0
  1 21  1  0
  1 22  1  0
  1 23  1  0
  3 24  1  0
  3 25  1  0
  4 26  1  0
  4 27  1  0
  5 28  1  1
  7 29  1  0
  8 30  1  0
 10 31  1  0
 11 32  1  0
 13 33  1  0
 13 34  1  0
 14 35  1  0
 14 36  1  0
 15 37  1  6
 16 38  1  1
 17 39  1  0
 17 40  1  0
 18 41  1  0
 18 42  1  0
M  END
$$$$
