
     RDKit          3D

 41 42  0  0  0  0  0  0  0  0999 V2000
   -6.8898   -1.2282   -0.4749 C   0  0  0  0  0  0  0  0  0  0  0  0
   -5.4822   -1.2302   -0.6659 O   0  0  0  0  0  0  0  0  0  0  0  0
   -4.7710   -0.1833   -0.1343 C   0  0  0  0  0  0  0  0  0  0  0  0
   -5.3304    0.8800    0.5704 C   0  0  0  0  0  0  0  0  0  0  0  0
   -4.4921    1.8857    1.0220 C   0  0  0  0  0  0  0  0  0  0  0  0
   -3.1600    1.9056    0.8232 N   0  0  0  0  0  0  0  0  0  0  0  0
   -2.6059    0.8571    0.1476 C   0  0  0  0  0  0  0  0  0  0  0  0
   -1.1068    0.8786   -0.0298 C   0  0  0  0  0  0  0  0  0  0  0  0
   -0.2697    0.3088    1.4762 S   0  0  0  0  0  4  0  0  0  0  0  0
   -0.5649   -1.1571    1.6761 O   0  0  0  0  0  0  0  0  0  0  0  0
    1.4348    0.4924    0.8766 C   0  0  0  0  0  0  0  0  0  0  0  0
    1.7954    0.9959   -0.3281 N   0  0  0  0  0  0  0  0  0  0  0  0
    3.1490    1.0033   -0.3800 C   0  0  0  0  0  0  0  0  0  0  0  0
    4.0397    1.3807   -1.3915 C   0  0  0  0  0  0  0  0  0  0  0  0
    5.4057    1.2467   -1.1318 C   0  0  0  0  0  0  0  0  0  0  0  0
    5.8590    0.7474    0.0981 C   0  0  0  0  0  0  0  0  0  0  0  0
    7.2122    0.6249    0.2940 O   0  0  0  0  0  0  0  0  0  0  0  0
    7.5987   -0.7212    0.0468 C   0  0  0  0  0  0  0  0  0  0  0  0
    7.8092   -0.8697   -1.2869 F   0  0  0  0  0  0  0  0  0  0  0  0
    8.8069   -0.9090    0.6435 F   0  0  0  0  0  0  0  0  0  0  0  0
    4.9859    0.4088    1.1346 C   0  0  0  0  0  0  0  0  0  0  0  0
    3.6182    0.5237    0.8697 C   0  0  0  0  0  0  0  0  0  0  0  0
    2.5318    0.2397    1.6257 N   0  0  0  0  0  2  0  0  0  0  0  0
   -3.3822   -0.2025   -0.3342 C   0  0  0  0  0  0  0  0  0  0  0  0
   -2.7890   -1.2036   -1.0599 O   0  0  0  0  0  0  0  0  0  0  0  0
   -2.7030   -2.4091   -0.2957 C   0  0  0  0  0  0  0  0  0  0  0  0
    0.0000    0.0000    0.0000 Na  0  0  0  0  0 15  0  0  0  0  0  0
   -7.3524   -0.3506   -0.9407 H   0  0  0  0  0  0  0  0  0  0  0  0
   -7.1436   -1.2928    0.5890 H   0  0  0  0  0  0  0  0  0  0  0  0
   -7.2955   -2.1175   -0.9679 H   0  0  0  0  0  0  0  0  0  0  0  0
   -6.3890    0.9586    0.7740 H   0  0  0  0  0  0  0  0  0  0  0  0
   -4.8844    2.7353    1.5750 H   0  0  0  0  0  0  0  0  0  0  0  0
   -0.8028    1.9144   -0.2273 H   0  0  0  0  0  0  0  0  0  0  0  0
   -0.8004    0.2659   -0.8843 H   0  0  0  0  0  0  0  0  0  0  0  0
    3.6472    1.7506   -2.3279 H   0  0  0  0  0  0  0  0  0  0  0  0
    6.1219    1.5227   -1.9008 H   0  0  0  0  0  0  0  0  0  0  0  0
    6.9018   -1.4842    0.4130 H   0  0  0  0  0  0  0  0  0  0  0  0
    5.3044    0.0552    2.1036 H   0  0  0  0  0  0  0  0  0  0  0  0
   -2.8172   -2.2563    0.7848 H   0  0  0  0  0  0  0  0  0  0  0  0
   -1.7217   -2.8571   -0.4799 H   0  0  0  0  0  0  0  0  0  0  0  0
   -3.4679   -3.1096   -0.6456 H   0  0  0  0  0  0  0  0  0  0  0  0
  1  2  1  0
  2  3  1  0
  3  4  2  0
  4  5  1  0
  5  6  2  0
  6  7  1  0
  7  8  1  0
  8  9  1  0
  9 10  2  0
  9 11  1  0
 11 12  2  0
 12 13  1  0
 13 14  2  0
 14 15  1  0
 15 16  2  0
 16 17  1  0
 17 18  1  0
 18 19  1  0
 18 20  1  0
 16 21  1  0
 21 22  2  0
 22 23  1  0
  7 24  2  0
 24 25  1  0
 25 26  1  0
 24  3  1  0
 23 11  1  0
 22 13  1  0
  1 28  1  0
  1 29  1  0
  1 30  1  0
  4 31  1  0
  5 32  1  0
  8 33  1  0
  8 34  1  0
 14 35  1  0
 15 36  1  0
 18 37  1  0
 21 38  1  0
 26 39  1  0
 26 40  1  0
 26 41  1  0
M  CHG  2  23  -1  27   1
M  END
$$$$
