
     RDKit          3D

 58 61  0  0  0  0  0  0  0  0999 V2000
    3.8450   -3.1133   -1.1096 C   0  0  0  0  0  0  0  0  0  0  0  0
    4.3558   -1.6913   -0.9595 C   0  0  0  0  0  0  0  0  0  0  0  0
    3.7662   -1.1354    0.2231 O   0  0  0  0  0  0  0  0  0  0  0  0
    4.3483    0.0661    0.5291 C   0  0  0  0  0  0  0  0  0  0  0  0
    5.3450    0.0756    1.5057 C   0  0  0  0  0  0  0  0  0  0  0  0
    5.9436    1.2810    1.8781 C   0  0  0  0  0  0  0  0  0  0  0  0
    5.5414    2.4783    1.2844 C   0  0  0  0  0  0  0  0  0  0  0  0
    4.5262    2.4767    0.3267 C   0  0  0  0  0  0  0  0  0  0  0  0
    3.9160    1.2706   -0.0331 C   0  0  0  0  0  0  0  0  0  0  0  0
    2.8490    1.3095   -1.0464 C   0  0  0  0  0  0  0  0  0  0  0  0
    3.1935    1.4482   -2.2183 O   0  0  0  0  0  0  0  0  0  0  0  0
    1.5197    1.2208   -0.6329 N   0  0  0  0  0  0  0  0  0  0  0  0
    0.4878    1.2818   -1.6634 C   0  0  0  0  0  0  0  0  0  0  0  0
   -0.8481    1.7910   -1.1465 C   0  0  0  0  0  0  0  0  0  0  0  0
   -1.3420    1.0943    0.1456 C   0  0  2  0  0  0  0  0  0  0  0  0
   -0.2323    0.3217    0.9010 C   0  0  1  0  0  0  0  0  0  0  0  0
   -0.0301   -1.1499    0.5183 C   0  0  0  0  0  0  0  0  0  0  0  0
   -1.1530   -1.9204    0.9312 O   0  0  0  0  0  0  0  0  0  0  0  0
   -2.1368   -2.1015   -0.0841 C   0  0  0  0  0  0  0  0  0  0  0  0
   -2.5442   -0.8232   -0.8379 C   0  0  0  0  0  0  0  0  0  0  0  0
   -2.6431    0.4307   -0.0730 N   0  0  0  0  0  0  0  0  0  0  0  0
   -3.4315    0.3115    1.1669 C   0  0  0  0  0  0  0  0  0  0  0  0
   -4.8779   -0.0490    0.9308 C   0  0  0  0  0  0  0  0  0  0  0  0
   -5.6854    0.6813    0.0519 C   0  0  0  0  0  0  0  0  0  0  0  0
   -7.0192    0.3240   -0.1224 C   0  0  0  0  0  0  0  0  0  0  0  0
   -7.5079   -0.7525    0.5984 C   0  0  0  0  0  0  0  0  0  0  0  0
   -6.7659   -1.4768    1.4625 N   0  0  0  0  0  0  0  0  0  0  0  0
   -5.4729   -1.1062    1.6114 C   0  0  0  0  0  0  0  0  0  0  0  0
    1.0898    1.0862    0.7605 C   0  0  0  0  0  0  0  0  0  0  0  0
    4.1340   -3.7175   -0.2438 H   0  0  0  0  0  0  0  0  0  0  0  0
    4.2475   -3.5781   -2.0139 H   0  0  0  0  0  0  0  0  0  0  0  0
    2.7507   -3.1271   -1.1596 H   0  0  0  0  0  0  0  0  0  0  0  0
    5.4509   -1.7039   -0.8817 H   0  0  0  0  0  0  0  0  0  0  0  0
    4.0628   -1.1101   -1.8407 H   0  0  0  0  0  0  0  0  0  0  0  0
    5.6570   -0.8536    1.9732 H   0  0  0  0  0  0  0  0  0  0  0  0
    6.7293    1.2848    2.6304 H   0  0  0  0  0  0  0  0  0  0  0  0
    6.0179    3.4131    1.5689 H   0  0  0  0  0  0  0  0  0  0  0  0
    4.2140    3.4064   -0.1406 H   0  0  0  0  0  0  0  0  0  0  0  0
    0.3818    0.2746   -2.0810 H   0  0  0  0  0  0  0  0  0  0  0  0
    0.8248    1.9233   -2.4864 H   0  0  0  0  0  0  0  0  0  0  0  0
   -1.5962    1.7380   -1.9488 H   0  0  0  0  0  0  0  0  0  0  0  0
   -0.7407    2.8642   -0.9294 H   0  0  0  0  0  0  0  0  0  0  0  0
   -1.5708    1.9525    0.7972 H   0  0  0  0  0  0  0  0  0  0  0  0
   -0.5120    0.3297    1.9644 H   0  0  0  0  0  0  0  0  0  0  0  0
    0.8259   -1.5460    1.0774 H   0  0  0  0  0  0  0  0  0  0  0  0
    0.1927   -1.3127   -0.5407 H   0  0  0  0  0  0  0  0  0  0  0  0
   -1.7693   -2.8492   -0.7964 H   0  0  0  0  0  0  0  0  0  0  0  0
   -3.0131   -2.5397    0.4043 H   0  0  0  0  0  0  0  0  0  0  0  0
   -3.5041   -1.0175   -1.3333 H   0  0  0  0  0  0  0  0  0  0  0  0
   -1.8514   -0.6800   -1.6755 H   0  0  0  0  0  0  0  0  0  0  0  0
   -3.4526    1.2820    1.6817 H   0  0  0  0  0  0  0  0  0  0  0  0
   -2.9709   -0.3881    1.8732 H   0  0  0  0  0  0  0  0  0  0  0  0
   -5.2710    1.5219   -0.4997 H   0  0  0  0  0  0  0  0  0  0  0  0
   -7.6596    0.8713   -0.8038 H   0  0  0  0  0  0  0  0  0  0  0  0
   -8.5414   -1.0703    0.4966 H   0  0  0  0  0  0  0  0  0  0  0  0
   -4.9102   -1.7103    2.3176 H   0  0  0  0  0  0  0  0  0  0  0  0
    1.8611    0.6076    1.3679 H   0  0  0  0  0  0  0  0  0  0  0  0
    0.9762    2.1051    1.1507 H   0  0  0  0  0  0  0  0  0  0  0  0
  1  2  1  0
  2  3  1  0
  3  4  1  0
  4  5  2  0
  5  6  1  0
  6  7  2  0
  7  8  1  0
  8  9  2  0
  9 10  1  0
 10 11  2  0
 10 12  1  0
 12 13  1  0
 13 14  1  0
 14 15  1  0
 15 16  1  0
 16 17  1  0
 17 18  1  0
 18 19  1  0
 19 20  1  0
 20 21  1  0
 21 22  1  0
 22 23  1  0
 23 24  2  0
 24 25  1  0
 25 26  2  0
 26 27  1  0
 27 28  2  0
 16 29  1  0
  9  4  1  0
 29 12  1  0
 21 15  1  0
 28 23  1  0
  1 30  1  0
  1 31  1  0
  1 32  1  0
  2 33  1  0
  2 34  1  0
  5 35  1  0
  6 36  1  0
  7 37  1  0
  8 38  1  0
 13 39  1  0
 13 40  1  0
 14 41  1  0
 14 42  1  0
 15 43  1  1
 16 44  1  1
 17 45  1  0
 17 46  1  0
 19 47  1  0
 19 48  1  0
 20 49  1  0
 20 50  1  0
 22 51  1  0
 22 52  1  0
 24 53  1  0
 25 54  1  0
 26 55  1  0
 28 56  1  0
 29 57  1  0
 29 58  1  0
M  END
$$$$
