
     RDKit          3D

 32 33  0  0  0  0  0  0  0  0999 V2000
   -5.6439   -0.0691    1.3903 C   0  0  0  0  0  0  0  0  0  0  0  0
   -4.5488   -0.7629    0.5998 C   0  0  0  0  0  0  0  0  0  0  0  0
   -4.0157    0.1229   -0.5233 C   0  0  0  0  0  0  0  0  0  0  0  0
   -3.0216   -0.5675   -1.2800 O   0  0  0  0  0  0  0  0  0  0  0  0
   -1.7144   -0.4723   -0.8934 C   0  0  0  0  0  0  0  0  0  0  0  0
   -0.8066   -1.0657   -1.7736 C   0  0  0  0  0  0  0  0  0  0  0  0
    0.5647   -1.0504   -1.5070 C   0  0  0  0  0  0  0  0  0  0  0  0
    1.0518   -0.4442   -0.3429 C   0  0  0  0  0  0  0  0  0  0  0  0
    2.5324   -0.4112   -0.0545 C   0  0  0  0  0  0  0  0  0  0  0  0
    3.3088    1.0725   -0.7659 S   0  0  0  0  0  0  0  0  0  0  0  0
    4.9359    0.8247   -0.2763 C   0  0  0  0  0  0  0  0  0  0  0  0
    5.4448   -0.1519    0.4334 N   0  0  0  0  0  0  0  0  0  0  0  0
    6.7963    0.0957    0.5603 N   0  0  0  0  0  0  0  0  0  0  0  0
    7.0580    1.2145   -0.0779 C   0  0  0  0  0  0  0  0  0  0  0  0
    5.9109    1.7076   -0.6203 N   0  0  0  0  0  0  0  0  0  0  0  0
    0.1385    0.1514    0.5378 C   0  0  0  0  0  0  0  0  0  0  0  0
   -1.2350    0.1339    0.2664 C   0  0  0  0  0  0  0  0  0  0  0  0
   -6.0134   -0.7260    2.1839 H   0  0  0  0  0  0  0  0  0  0  0  0
   -5.2696    0.8484    1.8555 H   0  0  0  0  0  0  0  0  0  0  0  0
   -6.4887    0.1920    0.7451 H   0  0  0  0  0  0  0  0  0  0  0  0
   -4.9330   -1.6980    0.1747 H   0  0  0  0  0  0  0  0  0  0  0  0
   -3.7376   -1.0541    1.2760 H   0  0  0  0  0  0  0  0  0  0  0  0
   -3.6659    1.0988   -0.1673 H   0  0  0  0  0  0  0  0  0  0  0  0
   -4.8346    0.3384   -1.2202 H   0  0  0  0  0  0  0  0  0  0  0  0
   -1.1716   -1.5430   -2.6800 H   0  0  0  0  0  0  0  0  0  0  0  0
    1.2476   -1.5143   -2.2153 H   0  0  0  0  0  0  0  0  0  0  0  0
    3.0070   -1.3098   -0.4660 H   0  0  0  0  0  0  0  0  0  0  0  0
    2.6954   -0.4301    1.0295 H   0  0  0  0  0  0  0  0  0  0  0  0
    8.0233    1.6904   -0.1728 H   0  0  0  0  0  0  0  0  0  0  0  0
    5.7915    2.5475   -1.1652 H   0  0  0  0  0  0  0  0  0  0  0  0
    0.4913    0.6346    1.4469 H   0  0  0  0  0  0  0  0  0  0  0  0
   -1.8980    0.5972    0.9884 H   0  0  0  0  0  0  0  0  0  0  0  0
  1  2  1  0
  2  3  1  0
  3  4  1  0
  4  5  1  0
  5  6  2  0
  6  7  1  0
  7  8  2  0
  8  9  1  0
  9 10  1  0
 10 11  1  0
 11 12  2  0
 12 13  1  0
 13 14  2  0
 14 15  1  0
  8 16  1  0
 16 17  2  0
 17  5  1  0
 15 11  1  0
  1 18  1  0
  1 19  1  0
  1 20  1  0
  2 21  1  0
  2 22  1  0
  3 23  1  0
  3 24  1  0
  6 25  1  0
  7 26  1  0
  9 27  1  0
  9 28  1  0
 14 29  1  0
 15 30  1  0
 16 31  1  0
 17 32  1  0
M  END
$$$$
