
     RDKit          3D

 57 58  0  0  0  0  0  0  0  0999 V2000
    5.8910   -0.1003   -2.3066 C   0  0  0  0  0  0  0  0  0  0  0  0
    5.9608   -0.1879   -0.9002 O   0  0  0  0  0  0  0  0  0  0  0  0
    4.7445   -0.2225   -0.1882 C   0  0  0  0  0  0  0  0  0  0  0  0
    4.7298   -0.3065    1.1858 C   0  0  0  0  0  0  0  0  0  0  0  0
    3.5301   -0.3394    1.8665 C   0  0  0  0  0  0  0  0  0  0  0  0
    2.3025   -0.2908    1.2260 C   0  0  0  0  0  0  0  0  0  0  0  0
    1.0159   -0.3200    1.9630 C   0  0  2  0  0  0  0  0  0  0  0  0
    0.1741   -1.9234    1.8703 S   0  0  0  0  0  0  0  0  0  0  0  0
   -0.5668   -2.2081    0.2817 C   0  0  0  0  0  0  0  0  0  0  0  0
   -0.4647   -3.5404   -0.0513 C   0  0  0  0  0  0  0  0  0  0  0  0
   -0.9794   -3.9774   -1.2473 C   0  0  0  0  0  0  0  0  0  0  0  0
   -1.5818   -3.0671   -2.0754 C   0  0  0  0  0  0  0  0  0  0  0  0
   -1.6757   -1.7288   -1.7234 C   0  0  0  0  0  0  0  0  0  0  0  0
   -1.1706   -1.2624   -0.5354 C   0  0  0  0  0  0  0  0  0  0  0  0
   -1.3787    0.1401   -0.4010 N   0  0  0  0  0  0  0  0  0  0  0  0
   -2.1552    0.8210   -1.3749 C   0  0  0  0  0  0  0  0  0  0  0  0
   -3.6119    0.9585   -1.1595 C   0  0  0  0  0  0  0  0  0  0  0  0
   -4.3864   -0.2521   -1.0094 N   0  0  0  0  0  0  0  0  0  0  0  0
   -5.7932    0.2254   -0.9466 C   0  0  0  0  0  0  0  0  0  0  0  0
   -4.1851   -0.8450    0.3144 C   0  0  0  0  0  0  0  0  0  0  0  0
   -0.8183    0.8982    0.6852 C   0  0  0  0  0  0  0  0  0  0  0  0
   -1.3965    2.0546    0.7030 O   0  0  0  0  0  0  0  0  0  0  0  0
    0.1390    0.8275    1.7383 C   0  0  2  0  0  0  0  0  0  0  0  0
    1.0052    1.9693    1.5793 O   0  0  0  0  0  0  0  0  0  0  0  0
    1.0198    2.9949    2.5047 C   0  0  0  0  0  0  0  0  0  0  0  0
    1.9199    4.1909    2.3494 C   0  0  0  0  0  0  0  0  0  0  0  0
    0.2504    2.9246    3.5155 O   0  0  0  0  0  0  0  0  0  0  0  0
    2.3550   -0.2069   -0.1473 C   0  0  0  0  0  0  0  0  0  0  0  0
    3.5462   -0.1733   -0.8452 C   0  0  0  0  0  0  0  0  0  0  0  0
    0.6922    0.0000    0.0000 Cl  0  0  0  0  0  0  0  0  0  0  0  0
    6.9231    0.0041   -2.7199 H   0  0  0  0  0  0  0  0  0  0  0  0
    5.2392    0.7300   -2.6362 H   0  0  0  0  0  0  0  0  0  0  0  0
    5.4761   -1.0349   -2.7747 H   0  0  0  0  0  0  0  0  0  0  0  0
    5.6759   -0.3445    1.7103 H   0  0  0  0  0  0  0  0  0  0  0  0
    3.5064   -0.4068    2.9672 H   0  0  0  0  0  0  0  0  0  0  0  0
    1.3218   -0.2843    3.0610 H   0  0  0  0  0  0  0  0  0  0  0  0
    0.0072   -4.2480    0.6008 H   0  0  0  0  0  0  0  0  0  0  0  0
   -0.9226   -5.0294   -1.5587 H   0  0  0  0  0  0  0  0  0  0  0  0
   -1.9932   -3.4191   -3.0326 H   0  0  0  0  0  0  0  0  0  0  0  0
   -2.1606   -1.1057   -2.4178 H   0  0  0  0  0  0  0  0  0  0  0  0
   -1.8247    0.7170   -2.4441 H   0  0  0  0  0  0  0  0  0  0  0  0
   -1.8054    1.9323   -1.2623 H   0  0  0  0  0  0  0  0  0  0  0  0
   -4.0572    1.6160   -1.9691 H   0  0  0  0  0  0  0  0  0  0  0  0
   -3.8609    1.5668   -0.2338 H   0  0  0  0  0  0  0  0  0  0  0  0
   -5.8560    1.0598   -0.2375 H   0  0  0  0  0  0  0  0  0  0  0  0
   -5.9581    0.6505   -1.9800 H   0  0  0  0  0  0  0  0  0  0  0  0
   -6.4831   -0.5907   -0.7178 H   0  0  0  0  0  0  0  0  0  0  0  0
   -3.4620   -0.2946    0.9263 H   0  0  0  0  0  0  0  0  0  0  0  0
   -3.9006   -1.9149    0.1178 H   0  0  0  0  0  0  0  0  0  0  0  0
   -5.1267   -0.9184    0.8939 H   0  0  0  0  0  0  0  0  0  0  0  0
   -0.4140    1.0399    2.7083 H   0  0  0  0  0  0  0  0  0  0  0  0
    2.9339    3.9067    2.0560 H   0  0  0  0  0  0  0  0  0  0  0  0
    1.4927    4.7670    1.4867 H   0  0  0  0  0  0  0  0  0  0  0  0
    1.8405    4.8174    3.2395 H   0  0  0  0  0  0  0  0  0  0  0  0
    1.4664   -0.1618   -0.7216 H   0  0  0  0  0  0  0  0  0  0  0  0
    3.5222   -0.1070   -1.9329 H   0  0  0  0  0  0  0  0  0  0  0  0
   -0.6922    0.0000    0.0000 H   0  0  0  0  0  0  0  0  0  0  0  0
  1  2  1  0
  2  3  1  0
  3  4  2  0
  4  5  1  0
  5  6  2  0
  6  7  1  0
  7  8  1  0
  8  9  1  0
  9 10  2  0
 10 11  1  0
 11 12  2  0
 12 13  1  0
 13 14  2  0
 14 15  1  0
 15 16  1  0
 16 17  1  0
 17 18  1  0
 18 19  1  0
 18 20  1  0
 15 21  1  0
 21 22  2  0
 21 23  1  0
 23 24  1  0
 24 25  1  0
 25 26  1  0
 25 27  2  0
  6 28  1  0
 28 29  2  0
 29  3  1  0
 23  7  1  0
 14  9  1  0
  1 31  1  0
  1 32  1  0
  1 33  1  0
  4 34  1  0
  5 35  1  0
  7 36  1  1
 10 37  1  0
 11 38  1  0
 12 39  1  0
 13 40  1  0
 16 41  1  0
 16 42  1  0
 17 43  1  0
 17 44  1  0
 19 45  1  0
 19 46  1  0
 19 47  1  0
 20 48  1  0
 20 49  1  0
 20 50  1  0
 23 51  1  1
 26 52  1  0
 26 53  1  0
 26 54  1  0
 28 55  1  0
 29 56  1  0
 30 57  1  0
M  END
$$$$
