
     RDKit          3D

 34 37  0  0  0  0  0  0  0  0999 V2000
   -3.6298    2.3594   -0.2718 C   0  0  0  0  0  0  0  0  0  0  0  0
   -2.7271    1.2307   -0.2686 N   0  0  0  0  0  0  0  0  0  0  0  0
   -1.3659    1.3250   -0.3886 C   0  0  0  0  0  0  0  0  0  0  0  0
   -0.8401    0.0568   -0.3002 C   0  0  0  0  0  0  0  0  0  0  0  0
    0.5388   -0.2970   -0.3910 C   0  0  0  0  0  0  0  0  0  0  0  0
    1.6184    0.3430    0.0828 C   0  0  0  0  0  0  0  0  0  0  0  0
    1.7398    1.6133    0.8906 C   0  0  0  0  0  0  0  0  0  0  0  0
    0.8708    2.3579    1.2989 O   0  0  0  0  0  0  0  0  0  0  0  0
    3.1051    1.7851    1.1070 N   0  0  0  0  0  0  0  0  0  0  0  0
    3.8330    0.7525    0.5329 C   0  0  0  0  0  0  0  0  0  0  0  0
    5.1922    0.5491    0.5297 C   0  0  0  0  0  0  0  0  0  0  0  0
    5.6492   -0.5927   -0.1323 C   0  0  0  0  0  0  0  0  0  0  0  0
    4.7243   -1.4513   -0.7430 C   0  0  0  0  0  0  0  0  0  0  0  0
    3.3822   -1.2595   -0.7446 N   0  0  0  0  0  0  0  0  0  0  0  0
    2.9890   -0.1507   -0.0979 C   0  0  0  0  0  0  0  0  0  0  0  0
   -1.9369   -0.8524   -0.1736 C   0  0  0  0  0  0  0  0  0  0  0  0
   -2.0457   -2.2566   -0.0663 C   0  0  0  0  0  0  0  0  0  0  0  0
   -3.3074   -2.8487    0.0549 C   0  0  0  0  0  0  0  0  0  0  0  0
   -4.4571   -2.0655    0.0730 C   0  0  0  0  0  0  0  0  0  0  0  0
   -4.3802   -0.6736   -0.0287 C   0  0  0  0  0  0  0  0  0  0  0  0
   -3.1092   -0.0890   -0.1520 C   0  0  0  0  0  0  0  0  0  0  0  0
   -4.3054    2.2592   -1.1250 H   0  0  0  0  0  0  0  0  0  0  0  0
   -3.0587    3.2872   -0.3593 H   0  0  0  0  0  0  0  0  0  0  0  0
   -4.1889    2.3582    0.6675 H   0  0  0  0  0  0  0  0  0  0  0  0
   -0.8879    2.2878   -0.5148 H   0  0  0  0  0  0  0  0  0  0  0  0
    0.7245   -1.2393   -0.9074 H   0  0  0  0  0  0  0  0  0  0  0  0
    3.4766    2.5610    1.6328 H   0  0  0  0  0  0  0  0  0  0  0  0
    5.8791    1.2330    1.0128 H   0  0  0  0  0  0  0  0  0  0  0  0
    6.7101   -0.8192   -0.1766 H   0  0  0  0  0  0  0  0  0  0  0  0
    5.0610   -2.3452   -1.2630 H   0  0  0  0  0  0  0  0  0  0  0  0
   -1.1548   -2.8775   -0.0734 H   0  0  0  0  0  0  0  0  0  0  0  0
   -3.3869   -3.9295    0.1378 H   0  0  0  0  0  0  0  0  0  0  0  0
   -5.4301   -2.5414    0.1694 H   0  0  0  0  0  0  0  0  0  0  0  0
   -5.2818   -0.0702   -0.0120 H   0  0  0  0  0  0  0  0  0  0  0  0
  1  2  1  0
  2  3  1  0
  3  4  2  0
  4  5  1  0
  5  6  2  0
  6  7  1  0
  7  8  2  0
  7  9  1  0
  9 10  1  0
 10 11  2  0
 11 12  1  0
 12 13  2  0
 13 14  1  0
 14 15  2  0
  4 16  1  0
 16 17  2  0
 17 18  1  0
 18 19  2  0
 19 20  1  0
 20 21  2  0
 21  2  1  0
 15  6  1  0
 21 16  1  0
 15 10  1  0
  1 22  1  0
  1 23  1  0
  1 24  1  0
  3 25  1  0
  5 26  1  0
  9 27  1  0
 11 28  1  0
 12 29  1  0
 13 30  1  0
 17 31  1  0
 18 32  1  0
 19 33  1  0
 20 34  1  0
M  END
$$$$
