
     RDKit          3D

 51 52  0  0  0  0  0  0  0  0999 V2000
   -3.2431    3.6899    2.8200 C   0  0  0  0  0  0  0  0  0  0  0  0
   -2.2566    2.6120    2.4013 C   0  0  0  0  0  0  0  0  0  0  0  0
   -2.2036    2.5737    0.9688 O   0  0  0  0  0  0  0  0  0  0  0  0
   -0.9198    2.6854    0.5031 C   0  0  0  0  0  0  0  0  0  0  0  0
   -0.3357    3.9523    0.4373 C   0  0  0  0  0  0  0  0  0  0  0  0
    0.9283    4.1055   -0.1345 C   0  0  0  0  0  0  0  0  0  0  0  0
    1.5950    2.9998   -0.6656 C   0  0  0  0  0  0  0  0  0  0  0  0
    1.0015    1.7364   -0.6202 C   0  0  0  0  0  0  0  0  0  0  0  0
   -0.2553    1.5688   -0.0250 C   0  0  0  0  0  0  0  0  0  0  0  0
   -0.8572    0.2686    0.0566 N   0  0  0  0  0  0  0  0  0  0  0  0
   -1.2509   -0.3876   -1.2057 C   0  0  0  0  0  0  0  0  0  0  0  0
   -2.6358   -1.0364   -1.0966 C   0  0  0  0  0  0  0  0  0  0  0  0
   -3.4998   -0.5745   -0.3426 O   0  0  0  0  0  0  0  0  0  0  0  0
   -2.8897   -2.1452   -1.9054 N   0  0  0  0  0  0  0  0  0  0  0  0
   -1.9494   -2.7164   -2.8552 C   0  0  0  0  0  0  0  0  0  0  0  0
   -4.0986   -2.9165   -1.6601 C   0  0  0  0  0  0  0  0  0  0  0  0
   -0.4532   -0.7184    1.3745 S   0  0  0  0  0  6  0  0  0  0  0  0
   -1.1769   -1.9710    1.2764 O   0  0  0  0  0  0  0  0  0  0  0  0
   -0.4628    0.0567    2.5977 O   0  0  0  0  0  0  0  0  0  0  0  0
    1.2621   -1.1388    1.0672 C   0  0  0  0  0  0  0  0  0  0  0  0
    2.2754   -0.4042    1.6897 C   0  0  0  0  0  0  0  0  0  0  0  0
    3.6106   -0.7581    1.4838 C   0  0  0  0  0  0  0  0  0  0  0  0
    3.9355   -1.8459    0.6665 C   0  0  0  0  0  0  0  0  0  0  0  0
    5.6474   -2.2874    0.4393 S   0  0  0  0  0  0  0  0  0  0  0  0
    5.7941   -2.0166   -1.3476 C   0  0  0  0  0  0  0  0  0  0  0  0
    2.9119   -2.5993    0.0794 C   0  0  0  0  0  0  0  0  0  0  0  0
    1.5740   -2.2538    0.2835 C   0  0  0  0  0  0  0  0  0  0  0  0
   -3.3376    3.7174    3.9110 H   0  0  0  0  0  0  0  0  0  0  0  0
   -4.2278    3.4978    2.3818 H   0  0  0  0  0  0  0  0  0  0  0  0
   -2.9174    4.6716    2.4626 H   0  0  0  0  0  0  0  0  0  0  0  0
   -2.6220    1.6365    2.7467 H   0  0  0  0  0  0  0  0  0  0  0  0
   -1.2779    2.7940    2.8693 H   0  0  0  0  0  0  0  0  0  0  0  0
   -0.8726    4.8200    0.8155 H   0  0  0  0  0  0  0  0  0  0  0  0
    1.3797    5.0945   -0.1814 H   0  0  0  0  0  0  0  0  0  0  0  0
    2.5751    3.1243   -1.1207 H   0  0  0  0  0  0  0  0  0  0  0  0
    1.5307    0.8914   -1.0516 H   0  0  0  0  0  0  0  0  0  0  0  0
   -0.4828   -1.1176   -1.4696 H   0  0  0  0  0  0  0  0  0  0  0  0
   -1.3116    0.3420   -2.0227 H   0  0  0  0  0  0  0  0  0  0  0  0
   -1.2942   -1.9501   -3.2718 H   0  0  0  0  0  0  0  0  0  0  0  0
   -2.4977   -3.1764   -3.6834 H   0  0  0  0  0  0  0  0  0  0  0  0
   -1.3519   -3.4755   -2.3418 H   0  0  0  0  0  0  0  0  0  0  0  0
   -3.8119   -3.9050   -1.2875 H   0  0  0  0  0  0  0  0  0  0  0  0
   -4.6429   -3.0257   -2.6023 H   0  0  0  0  0  0  0  0  0  0  0  0
   -4.7582   -2.4439   -0.9267 H   0  0  0  0  0  0  0  0  0  0  0  0
    2.0353    0.4382    2.3352 H   0  0  0  0  0  0  0  0  0  0  0  0
    4.3930   -0.1847    1.9758 H   0  0  0  0  0  0  0  0  0  0  0  0
    5.5624   -0.9750   -1.5963 H   0  0  0  0  0  0  0  0  0  0  0  0
    5.1247   -2.6811   -1.9024 H   0  0  0  0  0  0  0  0  0  0  0  0
    6.8215   -2.2275   -1.6584 H   0  0  0  0  0  0  0  0  0  0  0  0
    3.1488   -3.4768   -0.5182 H   0  0  0  0  0  0  0  0  0  0  0  0
    0.7877   -2.8678   -0.1498 H   0  0  0  0  0  0  0  0  0  0  0  0
  1  2  1  0
  2  3  1  0
  3  4  1  0
  4  5  2  0
  5  6  1  0
  6  7  2  0
  7  8  1  0
  8  9  2  0
  9 10  1  0
 10 11  1  0
 11 12  1  0
 12 13  2  0
 12 14  1  0
 14 15  1  0
 14 16  1  0
 10 17  1  0
 17 18  2  0
 17 19  2  0
 17 20  1  0
 20 21  2  0
 21 22  1  0
 22 23  2  0
 23 24  1  0
 24 25  1  0
 23 26  1  0
 26 27  2  0
  9  4  1  0
 27 20  1  0
  1 28  1  0
  1 29  1  0
  1 30  1  0
  2 31  1  0
  2 32  1  0
  5 33  1  0
  6 34  1  0
  7 35  1  0
  8 36  1  0
 11 37  1  0
 11 38  1  0
 15 39  1  0
 15 40  1  0
 15 41  1  0
 16 42  1  0
 16 43  1  0
 16 44  1  0
 21 45  1  0
 22 46  1  0
 25 47  1  0
 25 48  1  0
 25 49  1  0
 26 50  1  0
 27 51  1  0
M  END
$$$$
