
     RDKit          3D

 42 42  0  0  0  0  0  0  0  0999 V2000
    4.0661   -1.5725    0.0430 C   0  0  0  0  0  0  0  0  0  0  0  0
    4.3927   -0.1028    0.2319 C   0  0  0  0  0  0  0  0  0  0  0  0
    5.8039    0.1261   -0.2332 C   0  0  0  0  0  0  0  0  0  0  0  0
    3.4565    0.7767   -0.4013 N   0  0  0  0  0  0  0  0  0  0  0  0
    2.1222    0.6765    0.1260 C   0  0  0  0  0  0  0  0  0  0  0  0
    1.2661    1.6515   -0.6576 C   0  0  0  0  0  0  0  0  0  0  0  0
    1.2593    1.3460   -1.9943 O   0  0  0  0  0  0  0  0  0  0  0  0
   -0.1220    1.8049   -0.1177 C   0  0  0  0  0  0  0  0  0  0  0  0
   -0.9094    0.6293   -0.2554 O   0  0  0  0  0  0  0  0  0  0  0  0
   -2.2187    0.6476    0.2049 C   0  0  0  0  0  0  0  0  0  0  0  0
   -2.7848    1.7822    0.7959 C   0  0  0  0  0  0  0  0  0  0  0  0
   -4.0747    1.7926    1.2463 C   0  0  0  0  0  0  0  0  0  0  0  0
   -4.8684    0.6793    1.1337 C   0  0  0  0  0  0  0  0  0  0  0  0
   -4.3292   -0.4697    0.5472 C   0  0  0  0  0  0  0  0  0  0  0  0
   -5.1364   -1.5650    0.4463 C   0  0  0  0  0  0  0  0  0  0  0  0
   -4.6785   -2.7312   -0.1177 C   0  0  0  0  0  0  0  0  0  0  0  0
   -3.3752   -2.7408   -0.5725 C   0  0  0  0  0  0  0  0  0  0  0  0
   -2.5339   -1.6512   -0.4853 C   0  0  0  0  0  0  0  0  0  0  0  0
   -3.0068   -0.4747    0.0873 C   0  0  0  0  0  0  0  0  0  0  0  0
    0.6850    0.0000    0.0000 Cl  0  0  0  0  0  0  0  0  0  0  0  0
    3.8600   -2.0908    1.0015 H   0  0  0  0  0  0  0  0  0  0  0  0
    4.9075   -2.1074   -0.4640 H   0  0  0  0  0  0  0  0  0  0  0  0
    3.1771   -1.6969   -0.6122 H   0  0  0  0  0  0  0  0  0  0  0  0
    4.3035    0.1087    1.3399 H   0  0  0  0  0  0  0  0  0  0  0  0
    5.9044    0.9806   -0.9159 H   0  0  0  0  0  0  0  0  0  0  0  0
    6.2033   -0.7819   -0.7737 H   0  0  0  0  0  0  0  0  0  0  0  0
    6.4532    0.2314    0.6770 H   0  0  0  0  0  0  0  0  0  0  0  0
    3.5169    0.8227   -1.4269 H   0  0  0  0  0  0  0  0  0  0  0  0
    2.1576    0.9376    1.2019 H   0  0  0  0  0  0  0  0  0  0  0  0
    1.7672   -0.3648   -0.0220 H   0  0  0  0  0  0  0  0  0  0  0  0
    1.7514    2.6674   -0.5674 H   0  0  0  0  0  0  0  0  0  0  0  0
    0.9565    0.4157   -2.1422 H   0  0  0  0  0  0  0  0  0  0  0  0
   -0.1521    2.2142    0.9057 H   0  0  0  0  0  0  0  0  0  0  0  0
   -0.6293    2.5731   -0.7619 H   0  0  0  0  0  0  0  0  0  0  0  0
   -2.1405    2.6485    0.8741 H   0  0  0  0  0  0  0  0  0  0  0  0
   -4.4862    2.6753    1.6968 H   0  0  0  0  0  0  0  0  0  0  0  0
   -5.9073    0.6612    1.4875 H   0  0  0  0  0  0  0  0  0  0  0  0
   -6.1577   -1.5354    0.8111 H   0  0  0  0  0  0  0  0  0  0  0  0
   -5.2946   -3.6284   -0.2154 H   0  0  0  0  0  0  0  0  0  0  0  0
   -3.0149   -3.6550   -1.0143 H   0  0  0  0  0  0  0  0  0  0  0  0
   -1.5048   -1.6804   -0.8523 H   0  0  0  0  0  0  0  0  0  0  0  0
   -0.6850    0.0000    0.0000 H   0  0  0  0  0  0  0  0  0  0  0  0
  1  2  1  0
  2  3  1  0
  2  4  1  0
  4  5  1  0
  5  6  1  0
  6  7  1  0
  6  8  1  0
  8  9  1  0
  9 10  1  0
 10 11  2  0
 11 12  1  0
 12 13  2  0
 13 14  1  0
 14 15  2  0
 15 16  1  0
 16 17  2  0
 17 18  1  0
 18 19  2  0
 19 10  1  0
 19 14  1  0
  1 21  1  0
  1 22  1  0
  1 23  1  0
  2 24  1  0
  3 25  1  0
  3 26  1  0
  3 27  1  0
  4 28  1  0
  5 29  1  0
  5 30  1  0
  6 31  1  0
  7 32  1  0
  8 33  1  0
  8 34  1  0
 11 35  1  0
 12 36  1  0
 13 37  1  0
 15 38  1  0
 16 39  1  0
 17 40  1  0
 18 41  1  0
 20 42  1  0
M  END
$$$$
