
     RDKit          3D

 35 37  0  0  0  0  0  0  0  0999 V2000
   -0.7535    2.2764   -1.3849 O   0  0  0  0  0  0  0  0  0  0  0  0
   -0.7339    1.1606   -0.8708 C   0  0  0  0  0  0  0  0  0  0  0  0
    0.5852    0.5223   -0.6658 C   0  0  0  0  0  0  0  0  0  0  0  0
    0.8600   -0.7394   -1.2087 C   0  0  0  0  0  0  0  0  0  0  0  0
    2.1196   -1.3122   -1.0253 C   0  0  0  0  0  0  0  0  0  0  0  0
    3.1004   -0.6174   -0.3178 C   0  0  0  0  0  0  0  0  0  0  0  0
    2.8199    0.6419    0.2274 C   0  0  0  0  0  0  0  0  0  0  0  0
    1.5699    1.2249    0.0349 C   0  0  0  0  0  0  0  0  0  0  0  0
    3.7310    1.3648    0.9542 O   0  0  0  0  0  0  0  0  0  0  0  0
    4.8381    0.5541    1.3639 C   0  0  0  0  0  0  0  0  0  0  0  0
    5.3323   -0.3039    0.2112 C   0  0  0  0  0  0  0  0  0  0  0  0
    4.3204   -1.2326   -0.1960 O   0  0  0  0  0  0  0  0  0  0  0  0
   -1.8832    0.4725   -0.4835 N   0  0  0  0  0  0  0  0  0  0  0  0
   -3.1745    1.0759   -0.8057 C   0  0  0  0  0  0  0  0  0  0  0  0
   -4.2927    0.0417   -0.8144 C   0  0  0  0  0  0  0  0  0  0  0  0
   -4.4188   -0.6794    0.5280 C   0  0  0  0  0  0  0  0  0  0  0  0
   -3.1126   -0.6992    1.3219 C   0  0  0  0  0  0  0  0  0  0  0  0
   -1.8876   -0.6878    0.4133 C   0  0  0  0  0  0  0  0  0  0  0  0
    0.1057   -1.2655   -1.7877 H   0  0  0  0  0  0  0  0  0  0  0  0
    2.3441   -2.2871   -1.4493 H   0  0  0  0  0  0  0  0  0  0  0  0
    1.3595    2.2138    0.4334 H   0  0  0  0  0  0  0  0  0  0  0  0
    5.6327    1.2255    1.7040 H   0  0  0  0  0  0  0  0  0  0  0  0
    4.5224   -0.0612    2.2156 H   0  0  0  0  0  0  0  0  0  0  0  0
    6.2088   -0.8827    0.5188 H   0  0  0  0  0  0  0  0  0  0  0  0
    5.6133    0.3085   -0.6546 H   0  0  0  0  0  0  0  0  0  0  0  0
   -3.3725    1.8538   -0.0584 H   0  0  0  0  0  0  0  0  0  0  0  0
   -3.1129    1.5681   -1.7829 H   0  0  0  0  0  0  0  0  0  0  0  0
   -5.2473    0.5121   -1.0751 H   0  0  0  0  0  0  0  0  0  0  0  0
   -4.0841   -0.7005   -1.5959 H   0  0  0  0  0  0  0  0  0  0  0  0
   -5.1952   -0.2010    1.1372 H   0  0  0  0  0  0  0  0  0  0  0  0
   -4.7613   -1.7054    0.3472 H   0  0  0  0  0  0  0  0  0  0  0  0
   -3.0915   -1.5745    1.9805 H   0  0  0  0  0  0  0  0  0  0  0  0
   -3.0804    0.1845    1.9724 H   0  0  0  0  0  0  0  0  0  0  0  0
   -1.8789   -1.5855   -0.2153 H   0  0  0  0  0  0  0  0  0  0  0  0
   -0.9825   -0.6934    1.0283 H   0  0  0  0  0  0  0  0  0  0  0  0
  1  2  2  0
  2  3  1  0
  3  4  2  0
  4  5  1  0
  5  6  2  0
  6  7  1  0
  7  8  2  0
  7  9  1  0
  9 10  1  0
 10 11  1  0
 11 12  1  0
  2 13  1  0
 13 14  1  0
 14 15  1  0
 15 16  1  0
 16 17  1  0
 17 18  1  0
  8  3  1  0
 18 13  1  0
 12  6  1  0
  4 19  1  0
  5 20  1  0
  8 21  1  0
 10 22  1  0
 10 23  1  0
 11 24  1  0
 11 25  1  0
 14 26  1  0
 14 27  1  0
 15 28  1  0
 15 29  1  0
 16 30  1  0
 16 31  1  0
 17 32  1  0
 17 33  1  0
 18 34  1  0
 18 35  1  0
M  END
$$$$
