
     RDKit          3D

 49 52  0  0  0  0  0  0  0  0999 V2000
   -5.7475    1.1317    4.0845 C   0  0  0  0  0  0  0  0  0  0  0  0
   -6.0816    0.6099    2.8045 O   0  0  0  0  0  0  0  0  0  0  0  0
   -5.0562    0.4567    1.9127 C   0  0  0  0  0  0  0  0  0  0  0  0
   -3.7272    0.8328    2.1174 C   0  0  0  0  0  0  0  0  0  0  0  0
   -2.7717    0.6198    1.1165 C   0  0  0  0  0  0  0  0  0  0  0  0
   -3.1422    0.0102   -0.0847 C   0  0  0  0  0  0  0  0  0  0  0  0
   -2.1668   -0.1905   -1.1792 C   0  0  0  0  0  0  0  0  0  0  0  0
   -2.4354    0.2982   -2.3556 N   0  0  0  0  0  0  0  0  0  0  0  0
   -1.5182    0.1219   -3.3668 C   0  0  0  0  0  0  0  0  0  0  0  0
   -1.9029    0.7320   -4.6857 C   0  0  0  0  0  0  0  0  0  0  0  0
   -0.3580   -0.5347   -3.2227 C   0  0  0  0  0  0  0  0  0  0  0  0
   -0.0836   -1.1024   -1.9053 C   0  0  0  0  0  0  0  0  0  0  0  0
    0.9685   -1.7883   -1.5682 N   0  0  0  0  0  0  0  0  0  0  0  0
    0.7244   -2.1234   -0.2549 N   0  0  0  0  0  0  0  0  0  0  0  0
    1.6463   -2.8865    0.5633 C   0  0  0  0  0  0  0  0  0  0  0  0
    2.8333   -2.0451    1.0381 C   0  0  0  0  0  0  0  0  0  0  0  0
    3.4506   -2.3483    2.0559 O   0  0  0  0  0  0  0  0  0  0  0  0
    3.1847   -1.0491    0.1425 N   0  0  0  0  0  0  0  0  0  0  0  0
    4.2267   -0.1122    0.2422 C   0  0  0  0  0  0  0  0  0  0  0  0
    4.3987    0.7679   -0.8338 C   0  0  0  0  0  0  0  0  0  0  0  0
    5.4108    1.7336   -0.8119 C   0  0  0  0  0  0  0  0  0  0  0  0
    6.2624    1.8299    0.2911 C   0  0  0  0  0  0  0  0  0  0  0  0
    7.3006    2.8180    0.3176 C   0  0  0  0  0  0  0  0  0  0  0  0
    8.1387    3.6208    0.3336 N   0  0  0  0  0  0  0  0  0  0  0  0
    6.0932    0.9567    1.3680 C   0  0  0  0  0  0  0  0  0  0  0  0
    5.0793   -0.0090    1.3427 C   0  0  0  0  0  0  0  0  0  0  0  0
   -0.4955   -1.5802    0.1801 C   0  0  0  0  0  0  0  0  0  0  0  0
   -0.9683   -1.6955    1.2979 O   0  0  0  0  0  0  0  0  0  0  0  0
   -0.9983   -0.9037   -0.9291 N   0  0  0  0  0  0  0  0  0  0  0  0
   -4.4759   -0.3421   -0.3055 C   0  0  0  0  0  0  0  0  0  0  0  0
   -5.4246   -0.1241    0.6956 C   0  0  0  0  0  0  0  0  0  0  0  0
   -6.6628    1.1582    4.6837 H   0  0  0  0  0  0  0  0  0  0  0  0
   -5.0309    0.4846    4.6008 H   0  0  0  0  0  0  0  0  0  0  0  0
   -5.3716    2.1571    4.0058 H   0  0  0  0  0  0  0  0  0  0  0  0
   -3.4001    1.2967    3.0423 H   0  0  0  0  0  0  0  0  0  0  0  0
   -1.7461    0.9332    1.2907 H   0  0  0  0  0  0  0  0  0  0  0  0
   -2.8398    0.2948   -5.0464 H   0  0  0  0  0  0  0  0  0  0  0  0
   -2.0441    1.8123   -4.5765 H   0  0  0  0  0  0  0  0  0  0  0  0
   -1.1398    0.5699   -5.4542 H   0  0  0  0  0  0  0  0  0  0  0  0
    0.3622   -0.6781   -4.0155 H   0  0  0  0  0  0  0  0  0  0  0  0
    1.1142   -3.2593    1.4439 H   0  0  0  0  0  0  0  0  0  0  0  0
    2.0208   -3.7304   -0.0240 H   0  0  0  0  0  0  0  0  0  0  0  0
    2.6120   -1.0266   -0.7011 H   0  0  0  0  0  0  0  0  0  0  0  0
    3.7505    0.7120   -1.7051 H   0  0  0  0  0  0  0  0  0  0  0  0
    5.5278    2.4053   -1.6602 H   0  0  0  0  0  0  0  0  0  0  0  0
    6.7455    1.0163    2.2377 H   0  0  0  0  0  0  0  0  0  0  0  0
    4.9819   -0.6646    2.2032 H   0  0  0  0  0  0  0  0  0  0  0  0
   -4.7824   -0.7814   -1.2516 H   0  0  0  0  0  0  0  0  0  0  0  0
   -6.4613   -0.4053    0.5260 H   0  0  0  0  0  0  0  0  0  0  0  0
  1  2  1  0
  2  3  1  0
  3  4  2  0
  4  5  1  0
  5  6  2  0
  6  7  1  0
  7  8  2  0
  8  9  1  0
  9 10  1  0
  9 11  2  0
 11 12  1  0
 12 13  2  0
 13 14  1  0
 14 15  1  0
 15 16  1  0
 16 17  2  0
 16 18  1  0
 18 19  1  0
 19 20  2  0
 20 21  1  0
 21 22  2  0
 22 23  1  0
 23 24  3  0
 22 25  1  0
 25 26  2  0
 14 27  1  0
 27 28  2  0
 27 29  1  0
  6 30  1  0
 30 31  2  0
 31  3  1  0
 29  7  1  0
 29 12  1  0
 26 19  1  0
  1 32  1  0
  1 33  1  0
  1 34  1  0
  4 35  1  0
  5 36  1  0
 10 37  1  0
 10 38  1  0
 10 39  1  0
 11 40  1  0
 15 41  1  0
 15 42  1  0
 18 43  1  0
 20 44  1  0
 21 45  1  0
 25 46  1  0
 26 47  1  0
 30 48  1  0
 31 49  1  0
M  END
$$$$
