
     RDKit          3D

 29 30  0  0  0  0  0  0  0  0999 V2000
   -4.2101   -0.8316   -0.3614 C   0  0  0  0  0  0  0  0  0  0  0  0
   -3.2212    0.2147   -0.6131 N   0  0  0  0  0  0  0  0  0  0  0  0
   -3.7436    1.5771   -0.6871 C   0  0  0  0  0  0  0  0  0  0  0  0
   -1.8990    0.0092   -0.2029 C   0  0  0  0  0  0  0  0  0  0  0  0
   -0.9774    1.0639   -0.0800 C   0  0  0  0  0  0  0  0  0  0  0  0
    0.3534    0.8594    0.3185 C   0  0  0  0  0  0  0  0  0  0  0  0
    0.8216   -0.4236    0.5875 C   0  0  0  0  0  0  0  0  0  0  0  0
    2.1886   -0.6739    1.0516 C   0  0  0  0  0  0  0  0  0  0  0  0
    3.3297   -0.3887    0.4085 C   0  0  0  0  0  0  0  0  0  0  0  0
    4.8860   -0.7571    1.0870 S   0  0  0  0  0  0  0  0  0  0  0  0
    5.7396   -0.1345   -0.3068 C   0  0  0  0  0  0  0  0  0  0  0  0
    6.9530   -0.1238   -0.4218 O   0  0  0  0  0  0  0  0  0  0  0  0
    4.8495    0.3250   -1.2189 N   0  0  0  0  0  0  0  0  0  0  0  0
    3.5182    0.2332   -0.9345 C   0  0  0  0  0  0  0  0  0  0  0  0
    2.6447    0.6167   -1.6932 O   0  0  0  0  0  0  0  0  0  0  0  0
   -0.0662   -1.4908    0.4701 C   0  0  0  0  0  0  0  0  0  0  0  0
   -1.3952   -1.2739    0.0738 C   0  0  0  0  0  0  0  0  0  0  0  0
   -3.9748   -1.7423   -0.9223 H   0  0  0  0  0  0  0  0  0  0  0  0
   -4.2750   -1.0635    0.7074 H   0  0  0  0  0  0  0  0  0  0  0  0
   -5.2088   -0.5249   -0.6923 H   0  0  0  0  0  0  0  0  0  0  0  0
   -4.7764    1.5866   -1.0533 H   0  0  0  0  0  0  0  0  0  0  0  0
   -3.7374    2.0550    0.2987 H   0  0  0  0  0  0  0  0  0  0  0  0
   -3.1699    2.1847   -1.3953 H   0  0  0  0  0  0  0  0  0  0  0  0
   -1.2672    2.0880   -0.2934 H   0  0  0  0  0  0  0  0  0  0  0  0
    1.0115    1.7206    0.4010 H   0  0  0  0  0  0  0  0  0  0  0  0
    2.2309   -1.1631    2.0239 H   0  0  0  0  0  0  0  0  0  0  0  0
    5.1621    0.7180   -2.0910 H   0  0  0  0  0  0  0  0  0  0  0  0
    0.2595   -2.5079    0.6745 H   0  0  0  0  0  0  0  0  0  0  0  0
   -2.0261   -2.1523   -0.0194 H   0  0  0  0  0  0  0  0  0  0  0  0
  1  2  1  0
  2  3  1  0
  2  4  1  0
  4  5  2  0
  5  6  1  0
  6  7  2  0
  7  8  1  0
  8  9  2  0
  9 10  1  0
 10 11  1  0
 11 12  2  0
 11 13  1  0
 13 14  1  0
 14 15  2  0
  7 16  1  0
 16 17  2  0
 17  4  1  0
 14  9  1  0
  1 18  1  0
  1 19  1  0
  1 20  1  0
  3 21  1  0
  3 22  1  0
  3 23  1  0
  5 24  1  0
  6 25  1  0
  8 26  1  0
 13 27  1  0
 16 28  1  0
 17 29  1  0
M  END
$$$$
