
     RDKit          3D

 64 67  0  0  0  0  0  0  0  0999 V2000
   -2.6649    2.6044   -0.6455 O   0  0  0  0  0  0  0  0  0  0  0  0
   -3.1627    1.4947   -0.4774 C   0  0  0  0  0  0  0  0  0  0  0  0
   -2.5442    0.3445   -0.8988 O   0  0  0  0  0  0  0  0  0  0  0  0
   -1.2748    0.5174   -1.5606 C   0  0  1  0  0  0  0  0  0  0  0  0
   -0.1877    1.0344   -0.5886 C   0  0  0  0  0  0  0  0  0  0  0  0
    0.8225   -0.1183   -0.2426 N   0  0  0  0  0  4  0  0  0  0  0  0
    1.7698    0.4393    0.8407 C   0  0  0  0  0  0  0  0  0  0  0  0
    2.6123   -0.5658    1.6314 C   0  0  0  0  0  0  0  0  0  0  0  0
    3.6958   -1.3239    0.8737 C   0  0  0  0  0  0  0  0  0  0  0  0
    4.3032   -0.5131   -0.1264 O   0  0  0  0  0  0  0  0  0  0  0  0
    5.3990    0.2347    0.2037 C   0  0  0  0  0  0  0  0  0  0  0  0
    5.9387    0.3973    1.4794 C   0  0  0  0  0  0  0  0  0  0  0  0
    7.0654    1.2064    1.6664 C   0  0  0  0  0  0  0  0  0  0  0  0
    7.6549    1.8563    0.5833 C   0  0  0  0  0  0  0  0  0  0  0  0
    7.1188    1.7000   -0.6913 C   0  0  0  0  0  0  0  0  0  0  0  0
    5.9944    0.8932   -0.8777 C   0  0  0  0  0  0  0  0  0  0  0  0
    1.5788   -0.4713   -1.5390 C   0  0  0  0  0  0  0  0  0  0  0  0
    0.5676   -0.7467   -2.6573 C   0  0  0  0  0  0  0  0  0  0  0  0
   -0.8506   -0.8617   -2.0907 C   0  0  0  0  0  0  0  0  0  0  0  0
   -0.8282   -1.8655   -0.9275 C   0  0  0  0  0  0  0  0  0  0  0  0
    0.0182   -1.3349    0.2324 C   0  0  0  0  0  0  0  0  0  0  0  0
   -4.4658    1.1961    0.3270 C   0  0  0  0  0  0  0  0  0  0  0  0
   -5.0896    2.3969    0.7745 O   0  0  0  0  0  0  0  0  0  0  0  0
   -4.0125    0.3997    1.5550 C   0  0  0  0  0  0  0  0  0  0  0  0
   -4.0323   -0.9697    1.7772 C   0  0  0  0  0  0  0  0  0  0  0  0
   -3.4773   -1.3389    3.0350 C   0  0  0  0  0  0  0  0  0  0  0  0
   -3.0312   -0.2462    3.7406 C   0  0  0  0  0  0  0  0  0  0  0  0
   -3.2581    1.2096    2.8810 S   0  0  0  0  0  0  0  0  0  0  0  0
   -5.5014    0.5179   -0.5622 C   0  0  0  0  0  0  0  0  0  0  0  0
   -5.5271    0.3711   -1.9427 C   0  0  0  0  0  0  0  0  0  0  0  0
   -6.6847   -0.3174   -2.4123 C   0  0  0  0  0  0  0  0  0  0  0  0
   -7.5305   -0.6608   -1.3865 C   0  0  0  0  0  0  0  0  0  0  0  0
   -6.9563   -0.1203    0.1251 S   0  0  0  0  0  0  0  0  0  0  0  0
    0.0000    0.0000    0.0000 Br  0  0  0  0  0 15  0  0  0  0  0  0
   -1.4059    1.2173   -2.3958 H   0  0  0  0  0  0  0  0  0  0  0  0
    0.4076    1.8314   -1.0479 H   0  0  0  0  0  0  0  0  0  0  0  0
   -0.6063    1.3837    0.3599 H   0  0  0  0  0  0  0  0  0  0  0  0
    2.3907    1.2060    0.3636 H   0  0  0  0  0  0  0  0  0  0  0  0
    1.1258    0.9518    1.5664 H   0  0  0  0  0  0  0  0  0  0  0  0
    3.1121    0.0183    2.4154 H   0  0  0  0  0  0  0  0  0  0  0  0
    1.9788   -1.2748    2.1764 H   0  0  0  0  0  0  0  0  0  0  0  0
    4.4266   -1.7818    1.5507 H   0  0  0  0  0  0  0  0  0  0  0  0
    3.2353   -2.1710    0.3540 H   0  0  0  0  0  0  0  0  0  0  0  0
    5.5234   -0.0875    2.3559 H   0  0  0  0  0  0  0  0  0  0  0  0
    7.4908    1.3257    2.6605 H   0  0  0  0  0  0  0  0  0  0  0  0
    8.5360    2.4779    0.7332 H   0  0  0  0  0  0  0  0  0  0  0  0
    7.5815    2.1994   -1.5402 H   0  0  0  0  0  0  0  0  0  0  0  0
    5.5921    0.7706   -1.8799 H   0  0  0  0  0  0  0  0  0  0  0  0
    2.2387    0.3647   -1.7932 H   0  0  0  0  0  0  0  0  0  0  0  0
    2.1681   -1.3687   -1.3465 H   0  0  0  0  0  0  0  0  0  0  0  0
    0.8474   -1.6695   -3.1803 H   0  0  0  0  0  0  0  0  0  0  0  0
    0.6129    0.0542   -3.4057 H   0  0  0  0  0  0  0  0  0  0  0  0
   -1.5518   -1.2072   -2.8586 H   0  0  0  0  0  0  0  0  0  0  0  0
   -0.4181   -2.8223   -1.2748 H   0  0  0  0  0  0  0  0  0  0  0  0
   -1.8408   -2.0883   -0.5717 H   0  0  0  0  0  0  0  0  0  0  0  0
    0.7188   -2.1072    0.5616 H   0  0  0  0  0  0  0  0  0  0  0  0
   -0.5958   -1.0133    1.0807 H   0  0  0  0  0  0  0  0  0  0  0  0
   -4.4415    2.8740    1.3200 H   0  0  0  0  0  0  0  0  0  0  0  0
   -4.4454   -1.6858    1.0748 H   0  0  0  0  0  0  0  0  0  0  0  0
   -3.4290   -2.3538    3.4128 H   0  0  0  0  0  0  0  0  0  0  0  0
   -2.5850   -0.2339    4.7261 H   0  0  0  0  0  0  0  0  0  0  0  0
   -4.7589    0.7427   -2.6091 H   0  0  0  0  0  0  0  0  0  0  0  0
   -6.8892   -0.5446   -3.4529 H   0  0  0  0  0  0  0  0  0  0  0  0
   -8.4778   -1.1793   -1.4546 H   0  0  0  0  0  0  0  0  0  0  0  0
  1  2  2  0
  2  3  1  0
  3  4  1  0
  4  5  1  0
  5  6  1  0
  6  7  1  0
  7  8  1  0
  8  9  1  0
  9 10  1  0
 10 11  1  0
 11 12  2  0
 12 13  1  0
 13 14  2  0
 14 15  1  0
 15 16  2  0
  6 17  1  0
 17 18  1  0
 18 19  1  0
 19 20  1  0
 20 21  1  0
  2 22  1  0
 22 23  1  0
 22 24  1  0
 24 25  2  0
 25 26  1  0
 26 27  2  0
 27 28  1  0
 22 29  1  0
 29 30  2  0
 30 31  1  0
 31 32  2  0
 32 33  1  0
 19  4  1  0
 28 24  1  0
 33 29  1  0
 21  6  1  0
 16 11  1  0
  4 35  1  6
  5 36  1  0
  5 37  1  0
  7 38  1  0
  7 39  1  0
  8 40  1  0
  8 41  1  0
  9 42  1  0
  9 43  1  0
 12 44  1  0
 13 45  1  0
 14 46  1  0
 15 47  1  0
 16 48  1  0
 17 49  1  0
 17 50  1  0
 18 51  1  0
 18 52  1  0
 19 53  1  0
 20 54  1  0
 20 55  1  0
 21 56  1  0
 21 57  1  0
 23 58  1  0
 25 59  1  0
 26 60  1  0
 27 61  1  0
 30 62  1  0
 31 63  1  0
 32 64  1  0
M  CHG  2   6   1  34  -1
M  END
$$$$
