
     RDKit          3D

 45 48  0  0  0  0  0  0  0  0999 V2000
   -2.7523   -2.4454   -1.3745 C   0  0  0  0  0  0  0  0  0  0  0  0
   -2.9778   -1.1537   -0.6755 C   0  0  0  0  0  0  0  0  0  0  0  0
   -3.8029   -0.2003   -1.2186 N   0  0  0  0  0  0  0  0  0  0  0  0
   -3.9104    0.8841   -0.3842 C   0  0  0  0  0  0  0  0  0  0  0  0
   -4.6609    2.0578   -0.5260 C   0  0  0  0  0  0  0  0  0  0  0  0
   -4.5894    3.0018    0.5018 C   0  0  0  0  0  0  0  0  0  0  0  0
   -3.8002    2.7765    1.6258 C   0  0  0  0  0  0  0  0  0  0  0  0
   -3.0561    1.5973    1.7486 C   0  0  0  0  0  0  0  0  0  0  0  0
   -3.1033    0.6290    0.7223 C   0  0  0  0  0  0  0  0  0  0  0  0
   -2.4790   -0.6521    0.5220 C   0  0  0  0  0  0  0  0  0  0  0  0
   -1.5366   -1.3325    1.4760 C   0  0  0  0  0  0  0  0  0  0  0  0
   -0.1115   -1.0865    1.2262 N   0  0  0  0  0  0  0  0  0  0  0  0
    0.2932    0.3245    1.3744 C   0  0  0  0  0  0  0  0  0  0  0  0
    1.8258    0.5051    1.2571 C   0  0  0  0  0  0  0  0  0  0  0  0
    2.3172   -0.0475   -0.0249 N   0  0  0  0  0  0  0  0  0  0  0  0
    3.6992    0.1555   -0.2130 C   0  0  0  0  0  0  0  0  0  0  0  0
    4.2677   -0.1063   -1.4625 C   0  0  0  0  0  0  0  0  0  0  0  0
    5.6305    0.1028   -1.6700 C   0  0  0  0  0  0  0  0  0  0  0  0
    6.4062    0.5801   -0.6263 C   0  0  0  0  0  0  0  0  0  0  0  0
    5.7768    0.8343    0.5770 C   0  0  0  0  0  0  0  0  0  0  0  0
    4.4571    0.6385    0.7968 N   0  0  0  0  0  0  0  0  0  0  0  0
    1.9156   -1.4593   -0.2051 C   0  0  0  0  0  0  0  0  0  0  0  0
    0.3810   -1.6107   -0.0578 C   0  0  0  0  0  0  0  0  0  0  0  0
   -1.9878   -2.3299   -2.1491 H   0  0  0  0  0  0  0  0  0  0  0  0
   -3.6730   -2.7975   -1.8516 H   0  0  0  0  0  0  0  0  0  0  0  0
   -2.4232   -3.2231   -0.6793 H   0  0  0  0  0  0  0  0  0  0  0  0
   -4.2921   -0.2889   -2.0979 H   0  0  0  0  0  0  0  0  0  0  0  0
   -5.2801    2.2335   -1.3993 H   0  0  0  0  0  0  0  0  0  0  0  0
   -5.1604    3.9239    0.4221 H   0  0  0  0  0  0  0  0  0  0  0  0
   -3.7593    3.5214    2.4165 H   0  0  0  0  0  0  0  0  0  0  0  0
   -2.4464    1.4345    2.6320 H   0  0  0  0  0  0  0  0  0  0  0  0
   -1.7743   -1.0271    2.5030 H   0  0  0  0  0  0  0  0  0  0  0  0
   -1.7195   -2.4143    1.4611 H   0  0  0  0  0  0  0  0  0  0  0  0
   -0.0149    0.6972    2.3581 H   0  0  0  0  0  0  0  0  0  0  0  0
   -0.1860    0.9501    0.6113 H   0  0  0  0  0  0  0  0  0  0  0  0
    2.0464    1.5784    1.3177 H   0  0  0  0  0  0  0  0  0  0  0  0
    2.3074    0.0032    2.1078 H   0  0  0  0  0  0  0  0  0  0  0  0
    3.6482   -0.4468   -2.2850 H   0  0  0  0  0  0  0  0  0  0  0  0
    6.0726   -0.0967   -2.6411 H   0  0  0  0  0  0  0  0  0  0  0  0
    7.4678    0.7588   -0.7479 H   0  0  0  0  0  0  0  0  0  0  0  0
    6.3314    1.2175    1.4284 H   0  0  0  0  0  0  0  0  0  0  0  0
    2.4190   -2.0937    0.5373 H   0  0  0  0  0  0  0  0  0  0  0  0
    2.1894   -1.8277   -1.2004 H   0  0  0  0  0  0  0  0  0  0  0  0
   -0.0926   -1.0895   -0.8985 H   0  0  0  0  0  0  0  0  0  0  0  0
    0.1375   -2.6762   -0.1423 H   0  0  0  0  0  0  0  0  0  0  0  0
  1  2  1  0
  2  3  1  0
  3  4  1  0
  4  5  2  0
  5  6  1  0
  6  7  2  0
  7  8  1  0
  8  9  2  0
  9 10  1  0
 10 11  1  0
 11 12  1  0
 12 13  1  0
 13 14  1  0
 14 15  1  0
 15 16  1  0
 16 17  2  0
 17 18  1  0
 18 19  2  0
 19 20  1  0
 20 21  2  0
 15 22  1  0
 22 23  1  0
 10  2  2  0
 23 12  1  0
  9  4  1  0
 21 16  1  0
  1 24  1  0
  1 25  1  0
  1 26  1  0
  3 27  1  0
  5 28  1  0
  6 29  1  0
  7 30  1  0
  8 31  1  0
 11 32  1  0
 11 33  1  0
 13 34  1  0
 13 35  1  0
 14 36  1  0
 14 37  1  0
 17 38  1  0
 18 39  1  0
 19 40  1  0
 20 41  1  0
 22 42  1  0
 22 43  1  0
 23 44  1  0
 23 45  1  0
M  END
$$$$
