
     RDKit          3D

 28 28  0  0  0  0  0  0  0  0999 V2000
   -3.3853    0.3586    1.1856 N   0  0  0  0  0  0  0  0  0  0  0  0
   -3.0075   -0.3795    0.0962 C   0  0  0  0  0  0  0  0  0  0  0  0
   -3.7787   -1.1871   -0.4130 O   0  0  0  0  0  0  0  0  0  0  0  0
   -1.6445    0.0183   -0.4970 C   0  0  2  0  0  0  0  0  0  0  0  0
   -1.0397   -1.1026   -1.3741 C   0  0  0  0  0  0  0  0  0  0  0  0
    0.5053   -1.0858   -1.4691 C   0  0  0  0  0  0  0  0  0  0  0  0
    1.1992   -0.4842   -0.2197 C   0  0  2  0  0  0  0  0  0  0  0  0
    0.2384   -0.6056    0.9516 C   0  0  0  0  0  0  0  0  0  0  0  0
   -0.7408    0.4162    0.5954 N   0  0  0  0  0  0  0  0  0  0  0  0
    0.0801    1.5296    0.1848 C   0  0  0  0  0  0  0  0  0  0  0  0
   -0.2417    2.6993    0.3158 O   0  0  0  0  0  0  0  0  0  0  0  0
    1.2374    0.9745   -0.3965 N   0  0  0  0  0  0  0  0  0  0  0  0
    2.3962    1.7597   -0.1482 O   0  0  0  0  0  0  0  0  0  0  0  0
    3.6527    1.1237    0.7043 S   0  0  0  0  0  6  0  0  0  0  0  0
    4.2677    0.1796   -0.2284 O   0  0  0  0  0  0  0  0  0  0  0  0
    3.0291    0.4877    1.8650 O   0  0  0  0  0  0  0  0  0  0  0  0
    4.4838    2.2791    1.0260 O   0  0  0  0  0  1  0  0  0  0  0  0
    0.0000    0.0000    0.0000 Na  0  0  0  0  0 15  0  0  0  0  0  0
   -4.2315    0.1060    1.6728 H   0  0  0  0  0  0  0  0  0  0  0  0
   -2.6675    0.8893    1.6730 H   0  0  0  0  0  0  0  0  0  0  0  0
   -1.8344    0.8952   -1.1317 H   0  0  0  0  0  0  0  0  0  0  0  0
   -1.4787   -1.0749   -2.3788 H   0  0  0  0  0  0  0  0  0  0  0  0
   -1.3320   -2.0783   -0.9613 H   0  0  0  0  0  0  0  0  0  0  0  0
    0.8130   -0.5411   -2.3705 H   0  0  0  0  0  0  0  0  0  0  0  0
    0.8432   -2.1212   -1.6024 H   0  0  0  0  0  0  0  0  0  0  0  0
    2.1655   -0.9581   -0.0679 H   0  0  0  0  0  0  0  0  0  0  0  0
    0.6935   -0.3080    1.9017 H   0  0  0  0  0  0  0  0  0  0  0  0
   -0.2229   -1.5888    1.0862 H   0  0  0  0  0  0  0  0  0  0  0  0
  1  2  1  0
  2  3  2  0
  2  4  1  0
  4  5  1  0
  5  6  1  0
  6  7  1  0
  7  8  1  0
  8  9  1  0
  9 10  1  0
 10 11  2  0
 10 12  1  0
 12 13  1  0
 13 14  1  0
 14 15  2  0
 14 16  2  0
 14 17  1  0
  9  4  1  0
 12  7  1  0
  1 19  1  0
  1 20  1  0
  4 21  1  6
  5 22  1  0
  5 23  1  0
  6 24  1  0
  6 25  1  0
  7 26  1  1
  8 27  1  0
  8 28  1  0
M  CHG  2  17  -1  18   1
M  END
$$$$
