
     RDKit          3D

 34 36  0  0  0  0  0  0  0  0999 V2000
   -6.2627    1.2040    0.7630 N   0  0  0  0  0  0  0  0  0  0  0  0
   -4.9784    0.7007    0.5424 C   0  0  0  0  0  0  0  0  0  0  0  0
   -4.0973    1.3751   -0.2928 C   0  0  0  0  0  0  0  0  0  0  0  0
   -2.8199    0.8510   -0.5018 C   0  0  0  0  0  0  0  0  0  0  0  0
   -2.4357   -0.3397    0.1222 C   0  0  0  0  0  0  0  0  0  0  0  0
   -1.1057   -0.9277   -0.0714 C   0  0  0  0  0  0  0  0  0  0  0  0
   -0.9286   -2.2734   -0.3805 C   0  0  0  0  0  0  0  0  0  0  0  0
    0.2702   -2.8749   -0.5653 N   0  0  0  0  0  0  0  0  0  0  0  0
    1.3785   -2.1234   -0.4465 C   0  0  0  0  0  0  0  0  0  0  0  0
    2.5999   -2.7884   -0.6325 N   0  0  0  0  0  0  0  0  0  0  0  0
    1.3307   -0.7523   -0.1424 C   0  0  0  0  0  0  0  0  0  0  0  0
    2.5363    0.0742   -0.0100 C   0  0  0  0  0  0  0  0  0  0  0  0
    3.1381    0.6496   -1.1408 C   0  0  0  0  0  0  0  0  0  0  0  0
    4.2864    1.4364   -1.0147 C   0  0  0  0  0  0  0  0  0  0  0  0
    4.8399    1.6559    0.2445 C   0  0  0  0  0  0  0  0  0  0  0  0
    6.2525    2.6246    0.4002 Cl  0  0  0  0  0  0  0  0  0  0  0  0
    4.2551    1.0968    1.3783 C   0  0  0  0  0  0  0  0  0  0  0  0
    3.1069    0.3102    1.2511 C   0  0  0  0  0  0  0  0  0  0  0  0
    0.0651   -0.1694    0.0435 C   0  0  0  0  0  0  0  0  0  0  0  0
   -3.3967   -0.9319    0.9403 C   0  0  0  0  0  0  0  0  0  0  0  0
   -4.6415   -0.4412    1.1571 N   0  0  0  0  0  0  0  0  0  0  0  0
   -6.7624    1.2661   -0.1181 H   0  0  0  0  0  0  0  0  0  0  0  0
   -6.2032    2.1346    1.1630 H   0  0  0  0  0  0  0  0  0  0  0  0
   -4.3909    2.2962   -0.7842 H   0  0  0  0  0  0  0  0  0  0  0  0
   -2.1375    1.3749   -1.1669 H   0  0  0  0  0  0  0  0  0  0  0  0
   -1.7779   -2.9418   -0.5059 H   0  0  0  0  0  0  0  0  0  0  0  0
    3.1149   -2.3402   -1.3837 H   0  0  0  0  0  0  0  0  0  0  0  0
    3.1587   -2.6965    0.2106 H   0  0  0  0  0  0  0  0  0  0  0  0
    2.7111    0.4899   -2.1297 H   0  0  0  0  0  0  0  0  0  0  0  0
    4.7401    1.8751   -1.8997 H   0  0  0  0  0  0  0  0  0  0  0  0
    4.6846    1.2694    2.3618 H   0  0  0  0  0  0  0  0  0  0  0  0
    2.6572   -0.1196    2.1449 H   0  0  0  0  0  0  0  0  0  0  0  0
    0.0020    0.8885    0.2943 H   0  0  0  0  0  0  0  0  0  0  0  0
   -3.1896   -1.8527    1.4813 H   0  0  0  0  0  0  0  0  0  0  0  0
  1  2  1  0
  2  3  2  0
  3  4  1  0
  4  5  2  0
  5  6  1  0
  6  7  2  0
  7  8  1  0
  8  9  2  0
  9 10  1  0
  9 11  1  0
 11 12  1  0
 12 13  2  0
 13 14  1  0
 14 15  2  0
 15 16  1  0
 15 17  1  0
 17 18  2  0
 11 19  2  0
  5 20  1  0
 20 21  2  0
 21  2  1  0
 19  6  1  0
 18 12  1  0
  1 22  1  0
  1 23  1  0
  3 24  1  0
  4 25  1  0
  7 26  1  0
 10 27  1  0
 10 28  1  0
 13 29  1  0
 14 30  1  0
 17 31  1  0
 18 32  1  0
 19 33  1  0
 20 34  1  0
M  END
$$$$
