
     RDKit          3D

 54 57  0  0  0  0  0  0  0  0999 V2000
    7.5746    2.7581   -2.1241 C   0  0  0  0  0  0  0  0  0  0  0  0
    7.4496    1.7656   -0.9931 C   0  0  0  0  0  0  0  0  0  0  0  0
    8.4360    1.1776   -0.5503 O   0  0  0  0  0  0  0  0  0  0  0  0
    6.0985    1.4960   -0.4152 C   0  0  0  0  0  0  0  0  0  0  0  0
    4.9387    2.1033   -0.9090 C   0  0  0  0  0  0  0  0  0  0  0  0
    3.6954    1.8158   -0.3312 C   0  0  0  0  0  0  0  0  0  0  0  0
    3.5912    0.9214    0.7424 C   0  0  0  0  0  0  0  0  0  0  0  0
    2.3026    0.6978    1.2611 N   0  0  0  0  0  0  0  0  0  0  0  0
    1.9406   -0.1151    2.3238 C   0  0  0  0  0  0  0  0  0  0  0  0
    2.7087   -0.7362    3.0579 O   0  0  0  0  0  0  0  0  0  0  0  0
    0.4409   -0.0810    2.6388 C   0  0  0  0  0  0  0  0  0  0  0  0
   -0.4267   -0.2241    1.4638 N   0  0  0  0  0  0  0  0  0  0  0  0
   -0.8646    0.9361    0.8433 C   0  0  0  0  0  0  0  0  0  0  0  0
   -0.4322    2.0551    1.1230 O   0  0  0  0  0  0  0  0  0  0  0  0
   -1.8738    0.8119   -0.2203 C   0  0  0  0  0  0  0  0  0  0  0  0
   -2.2895   -0.3902   -0.6380 C   0  0  0  0  0  0  0  0  0  0  0  0
   -3.3146   -0.3724   -1.7136 C   0  0  0  0  0  0  0  0  0  0  0  0
   -2.9897   -0.5785   -2.8801 O   0  0  0  0  0  0  0  0  0  0  0  0
   -4.6074   -0.1241   -1.3122 N   0  0  0  0  0  0  0  0  0  0  0  0
   -5.6960   -0.0593   -2.2730 C   0  0  0  0  0  0  0  0  0  0  0  0
   -6.8837    0.4374   -1.4572 C   0  0  0  0  0  0  0  0  0  0  0  0
   -6.6216   -0.1675   -0.0823 C   0  0  0  0  0  0  0  0  0  0  0  0
   -5.1078   -0.0428    0.0565 C   0  0  0  0  0  0  0  0  0  0  0  0
   -1.7123   -1.6195   -0.0832 C   0  0  0  0  0  0  0  0  0  0  0  0
   -2.0791   -2.8840   -0.5748 C   0  0  0  0  0  0  0  0  0  0  0  0
   -1.5320   -4.0451   -0.0298 C   0  0  0  0  0  0  0  0  0  0  0  0
   -0.6094   -3.9531    1.0053 C   0  0  0  0  0  0  0  0  0  0  0  0
   -0.2348   -2.7010    1.5022 C   0  0  0  0  0  0  0  0  0  0  0  0
   -0.7852   -1.5214    0.9737 C   0  0  0  0  0  0  0  0  0  0  0  0
    4.7500    0.3112    1.2291 C   0  0  0  0  0  0  0  0  0  0  0  0
    5.9945    0.5970    0.6547 C   0  0  0  0  0  0  0  0  0  0  0  0
    7.0366    2.3963   -3.0079 H   0  0  0  0  0  0  0  0  0  0  0  0
    8.6310    2.8696   -2.3854 H   0  0  0  0  0  0  0  0  0  0  0  0
    7.2027    3.7410   -1.8123 H   0  0  0  0  0  0  0  0  0  0  0  0
    4.9670    2.8038   -1.7396 H   0  0  0  0  0  0  0  0  0  0  0  0
    2.8079    2.3005   -0.7373 H   0  0  0  0  0  0  0  0  0  0  0  0
    1.5508    1.2422    0.8409 H   0  0  0  0  0  0  0  0  0  0  0  0
    0.1980   -0.8492    3.3800 H   0  0  0  0  0  0  0  0  0  0  0  0
    0.2407    0.8795    3.1303 H   0  0  0  0  0  0  0  0  0  0  0  0
   -2.2507    1.7420   -0.6324 H   0  0  0  0  0  0  0  0  0  0  0  0
   -5.4427    0.6077   -3.1040 H   0  0  0  0  0  0  0  0  0  0  0  0
   -5.8668   -1.0711   -2.6603 H   0  0  0  0  0  0  0  0  0  0  0  0
   -6.8514    1.5313   -1.3923 H   0  0  0  0  0  0  0  0  0  0  0  0
   -7.8466    0.1430   -1.8809 H   0  0  0  0  0  0  0  0  0  0  0  0
   -7.1578    0.3469    0.7196 H   0  0  0  0  0  0  0  0  0  0  0  0
   -6.9137   -1.2250   -0.0791 H   0  0  0  0  0  0  0  0  0  0  0  0
   -4.6764   -0.8308    0.6845 H   0  0  0  0  0  0  0  0  0  0  0  0
   -4.8313    0.9389    0.4641 H   0  0  0  0  0  0  0  0  0  0  0  0
   -2.7871   -2.9822   -1.3965 H   0  0  0  0  0  0  0  0  0  0  0  0
   -1.8174   -5.0196   -0.4217 H   0  0  0  0  0  0  0  0  0  0  0  0
   -0.1695   -4.8575    1.4222 H   0  0  0  0  0  0  0  0  0  0  0  0
    0.5097   -2.6894    2.2930 H   0  0  0  0  0  0  0  0  0  0  0  0
    4.7237   -0.3956    2.0530 H   0  0  0  0  0  0  0  0  0  0  0  0
    6.8827    0.1086    1.0535 H   0  0  0  0  0  0  0  0  0  0  0  0
  1  2  1  0
  2  3  2  0
  2  4  1  0
  4  5  2  0
  5  6  1  0
  6  7  2  0
  7  8  1  0
  8  9  1  0
  9 10  2  0
  9 11  1  0
 11 12  1  0
 12 13  1  0
 13 14  2  0
 13 15  1  0
 15 16  2  0
 16 17  1  0
 17 18  2  0
 17 19  1  0
 19 20  1  0
 20 21  1  0
 21 22  1  0
 22 23  1  0
 16 24  1  0
 24 25  2  0
 25 26  1  0
 26 27  2  0
 27 28  1  0
 28 29  2  0
  7 30  1  0
 30 31  2  0
 31  4  1  0
 29 12  1  0
 23 19  1  0
 29 24  1  0
  1 32  1  0
  1 33  1  0
  1 34  1  0
  5 35  1  0
  6 36  1  0
  8 37  1  0
 11 38  1  0
 11 39  1  0
 15 40  1  0
 20 41  1  0
 20 42  1  0
 21 43  1  0
 21 44  1  0
 22 45  1  0
 22 46  1  0
 23 47  1  0
 23 48  1  0
 25 49  1  0
 26 50  1  0
 27 51  1  0
 28 52  1  0
 30 53  1  0
 31 54  1  0
M  END
$$$$
