
     RDKit          3D

 48 50  0  0  0  0  0  0  0  0999 V2000
   -5.3490   -0.7899   -2.4705 C   0  0  0  0  0  0  0  0  0  0  0  0
   -4.6647   -0.4075   -1.1859 C   0  0  0  0  0  0  0  0  0  0  0  0
   -3.3635    0.1215   -1.2230 C   0  0  0  0  0  0  0  0  0  0  0  0
   -2.7077    0.4872   -0.0456 C   0  0  0  0  0  0  0  0  0  0  0  0
   -1.0594    1.1615   -0.0748 S   0  0  0  0  0  0  0  0  0  0  0  0
   -0.1533   -0.2962   -0.6940 C   0  0  0  0  0  0  0  0  0  0  0  0
    1.3161   -0.0296   -0.7190 C   0  0  0  0  0  0  0  0  0  0  0  0
    2.3232   -0.5373    0.5719 S   0  0  0  0  0  0  0  0  0  0  0  0
    3.7036    0.1101   -0.2285 C   0  0  0  0  0  0  0  0  0  0  0  0
    5.0616    0.0389    0.3510 C   0  0  0  0  0  0  0  0  0  0  0  0
    6.1393    0.5684   -0.3833 C   0  0  0  0  0  0  0  0  0  0  0  0
    7.4495    0.5328    0.1093 C   0  0  0  0  0  0  0  0  0  0  0  0
    7.7168   -0.0371    1.3584 C   0  0  0  0  0  0  0  0  0  0  0  0
    9.1005   -0.0998    1.9304 C   0  0  0  0  0  0  0  0  0  0  0  0
   10.0420    0.4493    1.1093 F   0  0  0  0  0  0  0  0  0  0  0  0
    9.2175    0.5650    3.1125 F   0  0  0  0  0  0  0  0  0  0  0  0
    9.5212   -1.3732    2.1641 F   0  0  0  0  0  0  0  0  0  0  0  0
    6.6532   -0.5603    2.0864 C   0  0  0  0  0  0  0  0  0  0  0  0
    6.8764   -1.1129    3.2864 F   0  0  0  0  0  0  0  0  0  0  0  0
    5.3446   -0.5280    1.6013 C   0  0  0  0  0  0  0  0  0  0  0  0
    3.4373    0.6621   -1.3973 N   0  0  0  0  0  0  0  0  0  0  0  0
    2.0840    0.5974   -1.6849 C   0  0  0  0  0  0  0  0  0  0  0  0
    1.6059    1.1921   -2.9611 C   0  0  0  0  0  0  0  0  0  0  0  0
   -3.3677    0.3431    1.1743 C   0  0  0  0  0  0  0  0  0  0  0  0
   -4.6640   -0.1813    1.2242 C   0  0  0  0  0  0  0  0  0  0  0  0
   -5.3205   -0.5583    0.0498 C   0  0  0  0  0  0  0  0  0  0  0  0
   -6.5843   -1.0817   -0.0165 O   0  0  0  0  0  0  0  0  0  0  0  0
   -7.3616   -1.1363    1.1684 C   0  0  0  0  0  0  0  0  0  0  0  0
   -7.8726    0.2007    1.6780 C   0  0  0  0  0  0  0  0  0  0  0  0
   -7.8411    0.5810    2.8387 O   0  0  0  0  0  0  0  0  0  0  0  0
   -8.4261    0.9702    0.7199 O   0  0  0  0  0  0  0  0  0  0  0  0
   -4.6955   -0.6362   -3.3358 H   0  0  0  0  0  0  0  0  0  0  0  0
   -6.2456   -0.1791   -2.6176 H   0  0  0  0  0  0  0  0  0  0  0  0
   -5.6275   -1.8486   -2.4519 H   0  0  0  0  0  0  0  0  0  0  0  0
   -2.8697    0.2578   -2.1825 H   0  0  0  0  0  0  0  0  0  0  0  0
   -0.4994   -0.5357   -1.7053 H   0  0  0  0  0  0  0  0  0  0  0  0
   -0.3835   -1.1589   -0.0586 H   0  0  0  0  0  0  0  0  0  0  0  0
    5.9583    1.0196   -1.3598 H   0  0  0  0  0  0  0  0  0  0  0  0
    8.2546    0.9543   -0.4913 H   0  0  0  0  0  0  0  0  0  0  0  0
    4.5683   -0.9547    2.2293 H   0  0  0  0  0  0  0  0  0  0  0  0
    0.9368    2.0353   -2.7641 H   0  0  0  0  0  0  0  0  0  0  0  0
    2.4452    1.5582   -3.5608 H   0  0  0  0  0  0  0  0  0  0  0  0
    1.0663    0.4475   -3.5545 H   0  0  0  0  0  0  0  0  0  0  0  0
   -2.8801    0.6359    2.1019 H   0  0  0  0  0  0  0  0  0  0  0  0
   -5.1222   -0.2771    2.2033 H   0  0  0  0  0  0  0  0  0  0  0  0
   -6.8286   -1.6652    1.9670 H   0  0  0  0  0  0  0  0  0  0  0  0
   -8.2472   -1.7434    0.9479 H   0  0  0  0  0  0  0  0  0  0  0  0
   -8.6875    1.7927    1.1831 H   0  0  0  0  0  0  0  0  0  0  0  0
  1  2  1  0
  2  3  2  0
  3  4  1  0
  4  5  1  0
  5  6  1  0
  6  7  1  0
  7  8  1  0
  8  9  1  0
  9 10  1  0
 10 11  2  0
 11 12  1  0
 12 13  2  0
 13 14  1  0
 14 15  1  0
 14 16  1  0
 14 17  1  0
 13 18  1  0
 18 19  1  0
 18 20  2  0
  9 21  2  0
 21 22  1  0
 22 23  1  0
  4 24  2  0
 24 25  1  0
 25 26  2  0
 26 27  1  0
 27 28  1  0
 28 29  1  0
 29 30  2  0
 29 31  1  0
 26  2  1  0
 22  7  2  0
 20 10  1  0
  1 32  1  0
  1 33  1  0
  1 34  1  0
  3 35  1  0
  6 36  1  0
  6 37  1  0
 11 38  1  0
 12 39  1  0
 20 40  1  0
 23 41  1  0
 23 42  1  0
 23 43  1  0
 24 44  1  0
 25 45  1  0
 28 46  1  0
 28 47  1  0
 31 48  1  0
M  END
$$$$
