
     RDKit          3D

 52 55  0  0  0  0  0  0  0  0999 V2000
    5.3070   -4.1770   -0.7507 C   0  0  0  0  0  0  0  0  0  0  0  0
    5.4481   -3.1458    0.2185 O   0  0  0  0  0  0  0  0  0  0  0  0
    4.9625   -1.9114   -0.1131 C   0  0  0  0  0  0  0  0  0  0  0  0
    5.1492   -0.9315    0.8671 C   0  0  0  0  0  0  0  0  0  0  0  0
    4.6984    0.3741    0.6660 C   0  0  0  0  0  0  0  0  0  0  0  0
    4.0366    0.6951   -0.5206 C   0  0  0  0  0  0  0  0  0  0  0  0
    3.4667    2.3615   -0.7927 S   0  0  0  0  0  6  0  0  0  0  0  0
    3.3989    2.5675   -2.2243 O   0  0  0  0  0  0  0  0  0  0  0  0
    4.2502    3.2329    0.0565 O   0  0  0  0  0  0  0  0  0  0  0  0
    1.8828    2.3351   -0.1965 N   0  0  0  0  0  0  0  0  0  0  0  0
    0.8548    1.6467   -1.0217 C   0  0  0  0  0  0  0  0  0  0  0  0
   -0.5032    1.6383   -0.3064 C   0  0  0  0  0  0  0  0  0  0  0  0
   -0.4414    0.8773    0.9883 N   0  0  0  0  0  0  0  0  0  0  0  0
   -1.7097    1.2170    2.0834 S   0  0  0  0  0  6  0  0  0  0  0  0
   -1.7107    2.6480    2.3007 O   0  0  0  0  0  0  0  0  0  0  0  0
   -1.6031    0.2932    3.1914 O   0  0  0  0  0  0  0  0  0  0  0  0
   -3.1563    0.7769    1.1588 C   0  0  0  0  0  0  0  0  0  0  0  0
   -4.0534    1.7663    0.7435 C   0  0  0  0  0  0  0  0  0  0  0  0
   -5.1833    1.4017    0.0096 C   0  0  0  0  0  0  0  0  0  0  0  0
   -5.4110    0.0597   -0.2967 C   0  0  0  0  0  0  0  0  0  0  0  0
   -4.5261   -0.9270    0.1555 C   0  0  0  0  0  0  0  0  0  0  0  0
   -3.3876   -0.5719    0.8730 C   0  0  0  0  0  0  0  0  0  0  0  0
   -4.7141   -2.2653   -0.0777 O   0  0  0  0  0  0  0  0  0  0  0  0
   -6.0649   -2.5366   -0.4710 C   0  0  0  0  0  0  0  0  0  0  0  0
   -6.5124   -1.5578   -1.5441 C   0  0  0  0  0  0  0  0  0  0  0  0
   -6.5315   -0.2181   -1.0366 O   0  0  0  0  0  0  0  0  0  0  0  0
    0.9189    0.9239    1.6284 C   0  0  0  0  0  0  0  0  0  0  0  0
    1.6836    2.2060    1.2756 C   0  0  0  0  0  0  0  0  0  0  0  0
    3.8729   -0.2674   -1.5206 C   0  0  0  0  0  0  0  0  0  0  0  0
    4.3283   -1.5732   -1.3106 C   0  0  0  0  0  0  0  0  0  0  0  0
    5.8468   -3.9300   -1.6711 H   0  0  0  0  0  0  0  0  0  0  0  0
    4.2510   -4.3840   -0.9540 H   0  0  0  0  0  0  0  0  0  0  0  0
    5.7520   -5.0872   -0.3376 H   0  0  0  0  0  0  0  0  0  0  0  0
    5.6605   -1.1887    1.7924 H   0  0  0  0  0  0  0  0  0  0  0  0
    4.8757    1.1265    1.4310 H   0  0  0  0  0  0  0  0  0  0  0  0
    1.1604    0.6160   -1.2267 H   0  0  0  0  0  0  0  0  0  0  0  0
    0.7480    2.1762   -1.9744 H   0  0  0  0  0  0  0  0  0  0  0  0
   -0.8210    2.6718   -0.1280 H   0  0  0  0  0  0  0  0  0  0  0  0
   -1.2403    1.1563   -0.9569 H   0  0  0  0  0  0  0  0  0  0  0  0
   -3.8821    2.8138    0.9822 H   0  0  0  0  0  0  0  0  0  0  0  0
   -5.8840    2.1615   -0.3280 H   0  0  0  0  0  0  0  0  0  0  0  0
   -2.6971   -1.3381    1.2144 H   0  0  0  0  0  0  0  0  0  0  0  0
   -6.7064   -2.4810    0.4175 H   0  0  0  0  0  0  0  0  0  0  0  0
   -6.0993   -3.5616   -0.8537 H   0  0  0  0  0  0  0  0  0  0  0  0
   -5.8482   -1.5902   -2.4167 H   0  0  0  0  0  0  0  0  0  0  0  0
   -7.5262   -1.8001   -1.8777 H   0  0  0  0  0  0  0  0  0  0  0  0
    0.8484    0.8318    2.7171 H   0  0  0  0  0  0  0  0  0  0  0  0
    1.4698    0.0413    1.2817 H   0  0  0  0  0  0  0  0  0  0  0  0
    2.6382    2.2142    1.8098 H   0  0  0  0  0  0  0  0  0  0  0  0
    1.1274    3.0882    1.6145 H   0  0  0  0  0  0  0  0  0  0  0  0
    3.3969   -0.0114   -2.4650 H   0  0  0  0  0  0  0  0  0  0  0  0
    4.1796   -2.2998   -2.1032 H   0  0  0  0  0  0  0  0  0  0  0  0
  1  2  1  0
  2  3  1  0
  3  4  2  0
  4  5  1  0
  5  6  2  0
  6  7  1  0
  7  8  2  0
  7  9  2  0
  7 10  1  0
 10 11  1  0
 11 12  1  0
 12 13  1  0
 13 14  1  0
 14 15  2  0
 14 16  2  0
 14 17  1  0
 17 18  2  0
 18 19  1  0
 19 20  2  0
 20 21  1  0
 21 22  2  0
 21 23  1  0
 23 24  1  0
 24 25  1  0
 25 26  1  0
 13 27  1  0
 27 28  1  0
  6 29  1  0
 29 30  2  0
 30  3  1  0
 28 10  1  0
 22 17  1  0
 26 20  1  0
  1 31  1  0
  1 32  1  0
  1 33  1  0
  4 34  1  0
  5 35  1  0
 11 36  1  0
 11 37  1  0
 12 38  1  0
 12 39  1  0
 18 40  1  0
 19 41  1  0
 22 42  1  0
 24 43  1  0
 24 44  1  0
 25 45  1  0
 25 46  1  0
 27 47  1  0
 27 48  1  0
 28 49  1  0
 28 50  1  0
 29 51  1  0
 30 52  1  0
M  END
$$$$
