
     RDKit          3D

 71 75  0  0  0  0  0  0  0  0999 V2000
    3.5428    0.2441    3.6589 C   0  0  0  0  0  0  0  0  0  0  0  0
    2.6446    0.1899    2.5582 O   0  0  0  0  0  0  0  0  0  0  0  0
    3.1962    0.2388    1.2957 C   0  0  0  0  0  0  0  0  0  0  0  0
    4.5731    0.2424    1.0183 C   0  0  0  0  0  0  0  0  0  0  0  0
    5.0696    0.2913   -0.2956 C   0  0  0  0  0  0  0  0  0  0  0  0
    6.4285    0.2885   -0.5760 N   0  0  0  0  0  0  0  0  0  0  0  0
    7.4401    0.7243    0.3837 C   0  0  0  0  0  0  0  0  0  0  0  0
    8.2972   -0.4652    0.8029 C   0  0  0  0  0  0  0  0  0  0  0  0
    8.6255   -1.3859   -0.3776 C   0  0  0  0  0  0  0  0  0  0  0  0
    9.9917   -1.7871   -0.2831 O   0  0  0  0  0  0  0  0  0  0  0  0
    8.3755   -0.7152   -1.7255 C   0  0  0  0  0  0  0  0  0  0  0  0
    6.9165   -0.2719   -1.8415 C   0  0  0  0  0  0  0  0  0  0  0  0
    4.1152    0.3404   -1.3228 C   0  0  0  0  0  0  0  0  0  0  0  0
    2.7390    0.3361   -1.0630 C   0  0  0  0  0  0  0  0  0  0  0  0
    2.2602    0.2605    0.2430 C   0  0  0  0  0  0  0  0  0  0  0  0
    0.8784    0.3108    0.5534 N   0  0  0  0  0  0  0  0  0  0  0  0
   -0.2165   -0.1950   -0.1924 C   0  0  0  0  0  0  0  0  0  0  0  0
   -1.4969    0.1227    0.2857 C   0  0  0  0  0  0  0  0  0  0  0  0
   -2.6628   -0.3086   -0.3661 C   0  0  0  0  0  0  0  0  0  0  0  0
   -3.9639   -0.0112    0.0705 N   0  0  0  0  0  0  0  0  0  0  0  0
   -4.5252    0.9739    0.9043 C   0  0  0  0  0  0  0  0  0  0  0  0
   -3.8277    2.1487    1.2278 C   0  0  0  0  0  0  0  0  0  0  0  0
   -4.3284    3.0826    2.1428 C   0  0  0  0  0  0  0  0  0  0  0  0
   -5.5478    2.8624    2.7695 C   0  0  0  0  0  0  0  0  0  0  0  0
   -6.2827    1.7260    2.4516 C   0  0  0  0  0  0  0  0  0  0  0  0
   -5.7882    0.8064    1.5078 C   0  0  0  0  0  0  0  0  0  0  0  0
   -6.8673   -0.5534    1.0886 S   0  0  0  0  0  6  0  0  0  0  0  0
   -7.2434   -1.1789    2.3425 O   0  0  0  0  0  0  0  0  0  0  0  0
   -6.2415   -1.3278    0.0292 O   0  0  0  0  0  0  0  0  0  0  0  0
   -8.3278    0.2292    0.3834 C   0  0  0  0  0  0  0  0  0  0  0  0
   -7.9874    1.0545   -0.8541 C   0  0  0  0  0  0  0  0  0  0  0  0
   -9.3716   -0.8332    0.0442 C   0  0  0  0  0  0  0  0  0  0  0  0
   -2.4464   -1.1185   -1.5018 C   0  0  0  0  0  0  0  0  0  0  0  0
   -3.2756   -1.8012   -2.4419 C   0  0  0  0  0  0  0  0  0  0  0  0
   -2.4544   -2.4270   -3.3566 C   0  0  0  0  0  0  0  0  0  0  0  0
   -1.1585   -2.1480   -3.0084 N   0  0  0  0  0  0  0  0  0  0  0  0
   -1.1361   -1.3600   -1.8911 C   0  0  0  0  0  0  0  0  0  0  0  0
   -0.0119   -0.9231   -1.3062 N   0  0  0  0  0  0  0  0  0  0  0  0
    2.9459    0.2520    4.5760 H   0  0  0  0  0  0  0  0  0  0  0  0
    4.1373    1.1637    3.6421 H   0  0  0  0  0  0  0  0  0  0  0  0
    4.1830   -0.6436    3.6879 H   0  0  0  0  0  0  0  0  0  0  0  0
    5.2782    0.1693    1.8361 H   0  0  0  0  0  0  0  0  0  0  0  0
    8.0746    1.4789   -0.0997 H   0  0  0  0  0  0  0  0  0  0  0  0
    7.0277    1.2310    1.2625 H   0  0  0  0  0  0  0  0  0  0  0  0
    9.2085   -0.1033    1.2939 H   0  0  0  0  0  0  0  0  0  0  0  0
    7.7600   -1.0517    1.5591 H   0  0  0  0  0  0  0  0  0  0  0  0
    8.0156   -2.2946   -0.3019 H   0  0  0  0  0  0  0  0  0  0  0  0
   10.1501   -2.4487   -0.9782 H   0  0  0  0  0  0  0  0  0  0  0  0
    8.6320   -1.3928   -2.5486 H   0  0  0  0  0  0  0  0  0  0  0  0
    9.0474    0.1458   -1.8392 H   0  0  0  0  0  0  0  0  0  0  0  0
    6.3215   -1.1524   -2.1167 H   0  0  0  0  0  0  0  0  0  0  0  0
    6.8211    0.4656   -2.6467 H   0  0  0  0  0  0  0  0  0  0  0  0
    4.4248    0.4139   -2.3616 H   0  0  0  0  0  0  0  0  0  0  0  0
    2.0482    0.4055   -1.8985 H   0  0  0  0  0  0  0  0  0  0  0  0
    0.7585    0.1039    1.5433 H   0  0  0  0  0  0  0  0  0  0  0  0
   -1.5698    0.6863    1.2090 H   0  0  0  0  0  0  0  0  0  0  0  0
   -4.6625   -0.6143   -0.3776 H   0  0  0  0  0  0  0  0  0  0  0  0
   -2.8829    2.3803    0.7430 H   0  0  0  0  0  0  0  0  0  0  0  0
   -3.7533    3.9782    2.3669 H   0  0  0  0  0  0  0  0  0  0  0  0
   -5.9262    3.5771    3.4961 H   0  0  0  0  0  0  0  0  0  0  0  0
   -7.2365    1.5578    2.9472 H   0  0  0  0  0  0  0  0  0  0  0  0
   -8.7425    0.8832    1.1578 H   0  0  0  0  0  0  0  0  0  0  0  0
   -8.8892    1.5145   -1.2725 H   0  0  0  0  0  0  0  0  0  0  0  0
   -7.5302    0.4372   -1.6349 H   0  0  0  0  0  0  0  0  0  0  0  0
   -7.2874    1.8615   -0.6180 H   0  0  0  0  0  0  0  0  0  0  0  0
   -8.9983   -1.5332   -0.7110 H   0  0  0  0  0  0  0  0  0  0  0  0
  -10.2857   -0.3710   -0.3426 H   0  0  0  0  0  0  0  0  0  0  0  0
   -9.6408   -1.4161    0.9312 H   0  0  0  0  0  0  0  0  0  0  0  0
   -4.3577   -1.8344   -2.4436 H   0  0  0  0  0  0  0  0  0  0  0  0
   -2.6787   -3.0442   -4.2160 H   0  0  0  0  0  0  0  0  0  0  0  0
   -0.3253   -2.4676   -3.4798 H   0  0  0  0  0  0  0  0  0  0  0  0
  1  2  1  0
  2  3  1  0
  3  4  2  0
  4  5  1  0
  5  6  1  0
  6  7  1  0
  7  8  1  0
  8  9  1  0
  9 10  1  0
  9 11  1  0
 11 12  1  0
  5 13  2  0
 13 14  1  0
 14 15  2  0
 15 16  1  0
 16 17  1  0
 17 18  2  0
 18 19  1  0
 19 20  1  0
 20 21  1  0
 21 22  2  0
 22 23  1  0
 23 24  2  0
 24 25  1  0
 25 26  2  0
 26 27  1  0
 27 28  2  0
 27 29  2  0
 27 30  1  0
 30 31  1  0
 30 32  1  0
 19 33  2  0
 33 34  1  0
 34 35  2  0
 35 36  1  0
 36 37  1  0
 37 38  2  0
 15  3  1  0
 38 17  1  0
 12  6  1  0
 26 21  1  0
 37 33  1  0
  1 39  1  0
  1 40  1  0
  1 41  1  0
  4 42  1  0
  7 43  1  0
  7 44  1  0
  8 45  1  0
  8 46  1  0
  9 47  1  0
 10 48  1  0
 11 49  1  0
 11 50  1  0
 12 51  1  0
 12 52  1  0
 13 53  1  0
 14 54  1  0
 16 55  1  0
 18 56  1  0
 20 57  1  0
 22 58  1  0
 23 59  1  0
 24 60  1  0
 25 61  1  0
 30 62  1  0
 31 63  1  0
 31 64  1  0
 31 65  1  0
 32 66  1  0
 32 67  1  0
 32 68  1  0
 34 69  1  0
 35 70  1  0
 36 71  1  0
M  END
$$$$
