
     RDKit          3D

 60 63  0  0  0  0  0  0  0  0999 V2000
   -5.3655   -2.0835   -2.9835 C   0  0  0  0  0  0  0  0  0  0  0  0
   -5.7704   -0.9365   -2.2489 O   0  0  0  0  0  0  0  0  0  0  0  0
   -5.0575   -0.6280   -1.1194 C   0  0  0  0  0  0  0  0  0  0  0  0
   -3.8532   -1.2294   -0.7478 C   0  0  0  0  0  0  0  0  0  0  0  0
   -3.1924   -0.8505    0.4335 C   0  0  0  0  0  0  0  0  0  0  0  0
   -1.9251   -1.4867    0.8123 C   0  0  0  0  0  0  0  0  0  0  0  0
   -0.7102   -0.8436    0.5186 C   0  0  0  0  0  0  0  0  0  0  0  0
    0.5208   -1.4163    0.8620 C   0  0  0  0  0  0  0  0  0  0  0  0
    1.7986   -0.7542    0.5633 C   0  0  0  0  0  0  0  0  0  0  0  0
    2.7838   -0.5975    1.5457 C   0  0  0  0  0  0  0  0  0  0  0  0
    4.0018    0.0316    1.2538 C   0  0  0  0  0  0  0  0  0  0  0  0
    4.2947    0.5244   -0.0268 C   0  0  0  0  0  0  0  0  0  0  0  0
    5.5279    1.1520   -0.2606 N   0  0  0  0  0  0  0  0  0  0  0  0
    6.6985    0.2663   -0.0386 C   0  0  0  0  0  0  0  0  0  0  0  0
    8.0115    1.0840   -0.0608 C   0  0  0  0  0  0  0  0  0  0  0  0
    8.1869    1.8959   -1.2800 N   0  0  0  0  0  0  0  0  0  0  0  0
    7.0007    2.7549   -1.4580 C   0  0  0  0  0  0  0  0  0  0  0  0
    5.6740    1.9625   -1.4890 C   0  0  0  0  0  0  0  0  0  0  0  0
    3.2981    0.3809   -0.9994 C   0  0  0  0  0  0  0  0  0  0  0  0
    2.0770   -0.2495   -0.7137 C   0  0  0  0  0  0  0  0  0  0  0  0
    0.4611   -2.6506    1.5031 C   0  0  0  0  0  0  0  0  0  0  0  0
   -0.6815   -3.3092    1.8123 N   0  0  0  0  0  0  0  0  0  0  0  0
   -1.8570   -2.7243    1.4693 C   0  0  0  0  0  0  0  0  0  0  0  0
   -3.0961   -3.4891    1.8417 C   0  0  0  0  0  0  0  0  0  0  0  0
   -3.7534    0.1515    1.2439 C   0  0  0  0  0  0  0  0  0  0  0  0
   -4.9559    0.7680    0.8913 C   0  0  0  0  0  0  0  0  0  0  0  0
   -5.5750    1.7508    1.6197 O   0  0  0  0  0  0  0  0  0  0  0  0
   -5.0586    2.0285    2.9140 C   0  0  0  0  0  0  0  0  0  0  0  0
   -5.5890    0.3839   -0.3026 C   0  0  0  0  0  0  0  0  0  0  0  0
   -6.7974    0.9558   -0.6378 O   0  0  0  0  0  0  0  0  0  0  0  0
   -6.5774    2.1045   -1.4542 C   0  0  0  0  0  0  0  0  0  0  0  0
   -6.0940   -2.2418   -3.7844 H   0  0  0  0  0  0  0  0  0  0  0  0
   -4.3882   -1.9242   -3.4505 H   0  0  0  0  0  0  0  0  0  0  0  0
   -5.3626   -2.9798   -2.3541 H   0  0  0  0  0  0  0  0  0  0  0  0
   -3.3987   -1.9997   -1.3638 H   0  0  0  0  0  0  0  0  0  0  0  0
   -0.7309    0.1260    0.0225 H   0  0  0  0  0  0  0  0  0  0  0  0
    2.6111   -0.9443    2.5625 H   0  0  0  0  0  0  0  0  0  0  0  0
    4.7205    0.1619    2.0594 H   0  0  0  0  0  0  0  0  0  0  0  0
    6.6441   -0.2442    0.9291 H   0  0  0  0  0  0  0  0  0  0  0  0
    6.7307   -0.5041   -0.8201 H   0  0  0  0  0  0  0  0  0  0  0  0
    8.0420    1.7432    0.8159 H   0  0  0  0  0  0  0  0  0  0  0  0
    8.8601    0.3967    0.0253 H   0  0  0  0  0  0  0  0  0  0  0  0
    9.0098    2.4868   -1.1686 H   0  0  0  0  0  0  0  0  0  0  0  0
    6.9664    3.4957   -0.6490 H   0  0  0  0  0  0  0  0  0  0  0  0
    7.1079    3.3082   -2.3974 H   0  0  0  0  0  0  0  0  0  0  0  0
    5.6619    1.3178   -2.3773 H   0  0  0  0  0  0  0  0  0  0  0  0
    4.8509    2.6829   -1.5691 H   0  0  0  0  0  0  0  0  0  0  0  0
    3.4504    0.7362   -2.0138 H   0  0  0  0  0  0  0  0  0  0  0  0
    1.3483   -0.3524   -1.5155 H   0  0  0  0  0  0  0  0  0  0  0  0
    1.3682   -3.1762    1.7930 H   0  0  0  0  0  0  0  0  0  0  0  0
   -3.7425   -2.8853    2.4863 H   0  0  0  0  0  0  0  0  0  0  0  0
   -2.8372   -4.4001    2.3919 H   0  0  0  0  0  0  0  0  0  0  0  0
   -3.6471   -3.7872    0.9445 H   0  0  0  0  0  0  0  0  0  0  0  0
   -3.2249    0.4320    2.1504 H   0  0  0  0  0  0  0  0  0  0  0  0
   -5.7184    2.7624    3.3867 H   0  0  0  0  0  0  0  0  0  0  0  0
   -4.0600    2.4725    2.8504 H   0  0  0  0  0  0  0  0  0  0  0  0
   -5.0541    1.1315    3.5424 H   0  0  0  0  0  0  0  0  0  0  0  0
   -5.9957    2.8669   -0.9244 H   0  0  0  0  0  0  0  0  0  0  0  0
   -6.0838    1.8379   -2.3952 H   0  0  0  0  0  0  0  0  0  0  0  0
   -7.5540    2.5343   -1.6965 H   0  0  0  0  0  0  0  0  0  0  0  0
  1  2  1  0
  2  3  1  0
  3  4  2  0
  4  5  1  0
  5  6  1  0
  6  7  2  0
  7  8  1  0
  8  9  1  0
  9 10  2  0
 10 11  1  0
 11 12  2  0
 12 13  1  0
 13 14  1  0
 14 15  1  0
 15 16  1  0
 16 17  1  0
 17 18  1  0
 12 19  1  0
 19 20  2  0
  8 21  2  0
 21 22  1  0
 22 23  2  0
 23 24  1  0
  5 25  2  0
 25 26  1  0
 26 27  1  0
 27 28  1  0
 26 29  2  0
 29 30  1  0
 30 31  1  0
 29  3  1  0
 23  6  1  0
 20  9  1  0
 18 13  1  0
  1 32  1  0
  1 33  1  0
  1 34  1  0
  4 35  1  0
  7 36  1  0
 10 37  1  0
 11 38  1  0
 14 39  1  0
 14 40  1  0
 15 41  1  0
 15 42  1  0
 16 43  1  0
 17 44  1  0
 17 45  1  0
 18 46  1  0
 18 47  1  0
 19 48  1  0
 20 49  1  0
 21 50  1  0
 24 51  1  0
 24 52  1  0
 24 53  1  0
 25 54  1  0
 28 55  1  0
 28 56  1  0
 28 57  1  0
 31 58  1  0
 31 59  1  0
 31 60  1  0
M  END
$$$$
