
     RDKit          3D

 57 59  0  0  0  0  0  0  0  0999 V2000
   -4.3312    3.5681    0.2860 C   0  0  0  0  0  0  0  0  0  0  0  0
   -3.3831    2.5078    0.3362 O   0  0  0  0  0  0  0  0  0  0  0  0
   -4.0842    1.2992    0.4490 N   0  0  0  0  0  0  0  0  0  0  0  0
   -3.2628    0.2975    0.5169 C   0  0  0  0  0  0  0  0  0  0  0  0
   -1.7507    0.3905    0.5062 C   0  0  0  0  0  0  0  0  0  0  0  0
   -1.3459   -1.0134    0.6110 N   0  0  0  0  0  0  0  0  0  0  0  0
   -0.0341   -1.3130    0.2870 C   0  0  0  0  0  0  0  0  0  0  0  0
    0.8417   -0.2767    0.2460 N   0  0  0  0  0  0  0  0  0  0  0  0
    2.1544   -0.4941   -0.0281 C   0  0  0  0  0  0  0  0  0  0  0  0
    2.6360   -1.7769   -0.2839 C   0  0  0  0  0  0  0  0  0  0  0  0
    1.7580   -2.8551   -0.2419 C   0  0  0  0  0  0  0  0  0  0  0  0
    0.4222   -2.6166    0.0490 C   0  0  0  0  0  0  0  0  0  0  0  0
   -0.4071   -3.6708    0.0861 F   0  0  0  0  0  0  0  0  0  0  0  0
    4.0662   -1.9859   -0.6023 C   0  0  0  0  0  0  0  0  0  0  0  0
    4.4840   -3.1295   -0.7417 O   0  0  0  0  0  0  0  0  0  0  0  0
    4.9375   -0.7886   -0.7373 C   0  0  0  0  0  0  0  0  0  0  0  0
    6.3419   -0.8819   -1.1763 C   0  0  0  0  0  0  0  0  0  0  0  0
    6.8943   -1.8427   -1.6781 O   0  0  0  0  0  0  0  0  0  0  0  0
    7.0368    0.2575   -0.9807 O   0  0  0  0  0  0  0  0  0  0  0  0
    4.3706    0.3977   -0.4619 C   0  0  0  0  0  0  0  0  0  0  0  0
    3.0667    0.5966   -0.0543 N   0  0  0  0  0  0  0  0  0  0  0  0
    2.5595    1.9710    0.0967 C   0  0  0  0  0  0  0  0  0  0  0  0
    3.2621    3.0007    0.9472 C   0  0  0  0  0  0  0  0  0  0  0  0
    1.9437    2.4457    1.3888 C   0  0  0  0  0  0  0  0  0  0  0  0
   -2.4572   -1.8900    0.2573 C   0  0  0  0  0  0  0  0  0  0  0  0
   -3.7346   -1.1329    0.6620 C   0  0  0  0  0  0  0  0  0  0  0  0
   -4.9084   -1.5274   -0.2299 C   0  0  0  0  0  0  0  0  0  0  0  0
   -6.2018   -1.2011    0.3654 N   0  0  0  0  0  0  0  0  0  0  0  0
    1.0974   -0.0892   -0.2538 C   0  0  0  0  0  0  0  0  0  0  0  0
   -0.6057   -0.3944    0.1545 S   0  0  0  0  0  6  0  0  0  0  0  0
   -0.7506   -0.4800    1.5896 O   0  0  0  0  0  0  0  0  0  0  0  0
   -1.1520   -1.3823   -0.7450 O   0  0  0  0  0  0  0  0  0  0  0  0
   -1.1979    1.0485   -0.2611 O   0  0  0  0  0  0  0  0  0  0  0  0
   -3.7884    4.5127    0.1976 H   0  0  0  0  0  0  0  0  0  0  0  0
   -4.9830    3.4526   -0.5855 H   0  0  0  0  0  0  0  0  0  0  0  0
   -4.9268    3.5877    1.2039 H   0  0  0  0  0  0  0  0  0  0  0  0
   -1.4365    0.8483   -0.4387 H   0  0  0  0  0  0  0  0  0  0  0  0
   -1.4030    0.9724    1.3651 H   0  0  0  0  0  0  0  0  0  0  0  0
    2.0970   -3.8692   -0.4299 H   0  0  0  0  0  0  0  0  0  0  0  0
    7.9340    0.0288   -1.3066 H   0  0  0  0  0  0  0  0  0  0  0  0
    4.9353    1.3228   -0.5489 H   0  0  0  0  0  0  0  0  0  0  0  0
    2.0900    2.3274   -0.8178 H   0  0  0  0  0  0  0  0  0  0  0  0
    4.1386    2.7063    1.5118 H   0  0  0  0  0  0  0  0  0  0  0  0
    3.2873    4.0218    0.5854 H   0  0  0  0  0  0  0  0  0  0  0  0
    1.0663    3.0777    1.3207 H   0  0  0  0  0  0  0  0  0  0  0  0
    1.9302    1.7609    2.2287 H   0  0  0  0  0  0  0  0  0  0  0  0
   -2.4170   -2.8409    0.7993 H   0  0  0  0  0  0  0  0  0  0  0  0
   -2.4460   -2.0956   -0.8211 H   0  0  0  0  0  0  0  0  0  0  0  0
   -3.9449   -1.3136    1.7236 H   0  0  0  0  0  0  0  0  0  0  0  0
   -4.8358   -1.0302   -1.2038 H   0  0  0  0  0  0  0  0  0  0  0  0
   -4.8912   -2.6083   -0.4118 H   0  0  0  0  0  0  0  0  0  0  0  0
   -6.9549   -1.5045   -0.2499 H   0  0  0  0  0  0  0  0  0  0  0  0
   -6.3256   -1.6929    1.2486 H   0  0  0  0  0  0  0  0  0  0  0  0
    1.6691   -0.9871   -0.0104 H   0  0  0  0  0  0  0  0  0  0  0  0
    1.4565    0.7550    0.3376 H   0  0  0  0  0  0  0  0  0  0  0  0
    1.1709    0.1232   -1.3220 H   0  0  0  0  0  0  0  0  0  0  0  0
   -1.6878    1.4063    0.5107 H   0  0  0  0  0  0  0  0  0  0  0  0
  1  2  1  0
  2  3  1  0
  3  4  2  0
  4  5  1  0
  5  6  1  0
  6  7  1  0
  7  8  2  0
  8  9  1  0
  9 10  2  0
 10 11  1  0
 11 12  2  0
 12 13  1  0
 10 14  1  0
 14 15  2  0
 14 16  1  0
 16 17  1  0
 17 18  2  0
 17 19  1  0
 16 20  2  0
 20 21  1  0
 21 22  1  0
 22 23  1  0
 23 24  1  0
  6 25  1  0
 25 26  1  0
 26 27  1  0
 27 28  1  0
 29 30  1  0
 30 31  2  0
 30 32  2  0
 30 33  1  0
 26  4  1  0
 12  7  1  0
 24 22  1  0
 21  9  1  0
  1 34  1  0
  1 35  1  0
  1 36  1  0
  5 37  1  0
  5 38  1  0
 11 39  1  0
 19 40  1  0
 20 41  1  0
 22 42  1  0
 23 43  1  0
 23 44  1  0
 24 45  1  0
 24 46  1  0
 25 47  1  0
 25 48  1  0
 26 49  1  0
 27 50  1  0
 27 51  1  0
 28 52  1  0
 28 53  1  0
 29 54  1  0
 29 55  1  0
 29 56  1  0
 33 57  1  0
M  END
$$$$
