
     RDKit          3D

 33 36  0  0  0  0  0  0  0  0999 V2000
    3.5693    0.0301    2.2258 C   0  0  0  0  0  0  0  0  0  0  0  0
    4.0561   -0.9279    1.3458 C   0  0  0  0  0  0  0  0  0  0  0  0
    3.3474   -1.2041    0.1783 C   0  0  0  0  0  0  0  0  0  0  0  0
    2.1658   -0.5101   -0.0773 C   0  0  0  0  0  0  0  0  0  0  0  0
    1.3802   -0.7727   -1.2961 C   0  0  0  0  0  0  0  0  0  0  0  0
    1.8143   -1.6223   -2.2528 N   0  0  0  0  0  0  0  0  0  0  0  0
    0.8596   -1.5966   -3.1933 N   0  0  0  0  0  0  0  0  0  0  0  0
   -0.1841   -0.7791   -2.8966 C   0  0  0  0  0  0  0  0  0  0  0  0
    0.1096   -0.2280   -1.6692 C   0  0  0  0  0  0  0  0  0  0  0  0
   -0.7775    0.7063   -1.0005 C   0  0  0  0  0  0  0  0  0  0  0  0
   -0.6682    2.0575   -1.3277 C   0  0  0  0  0  0  0  0  0  0  0  0
   -1.5142    2.9461   -0.7001 C   0  0  0  0  0  0  0  0  0  0  0  0
   -2.4457    2.5857    0.2060 N   0  0  0  0  0  0  0  0  0  0  0  0
   -2.5460    1.2846    0.5297 C   0  0  0  0  0  0  0  0  0  0  0  0
   -3.4991    0.9151    1.4701 C   0  0  0  0  0  0  0  0  0  0  0  0
   -3.6743   -0.4127    1.8668 C   0  0  0  0  0  0  0  0  0  0  0  0
   -2.8790   -1.4052    1.3134 C   0  0  0  0  0  0  0  0  0  0  0  0
   -1.9157   -1.0627    0.3662 C   0  0  0  0  0  0  0  0  0  0  0  0
   -1.7323    0.2828   -0.0432 C   0  0  0  0  0  0  0  0  0  0  0  0
    1.6855    0.4314    0.7738 N   0  0  0  0  0  0  0  0  0  0  0  0
    2.3902    0.6766    1.8990 C   0  0  0  0  0  0  0  0  0  0  0  0
    4.0950    0.2674    3.1437 H   0  0  0  0  0  0  0  0  0  0  0  0
    4.9784   -1.4586    1.5633 H   0  0  0  0  0  0  0  0  0  0  0  0
    3.7137   -1.9513   -0.5188 H   0  0  0  0  0  0  0  0  0  0  0  0
    0.9872   -2.1704   -4.0204 H   0  0  0  0  0  0  0  0  0  0  0  0
   -1.0275   -0.6656   -3.5629 H   0  0  0  0  0  0  0  0  0  0  0  0
    0.0646    2.4101   -2.0447 H   0  0  0  0  0  0  0  0  0  0  0  0
   -1.4662    4.0096   -0.9147 H   0  0  0  0  0  0  0  0  0  0  0  0
   -4.1246    1.6886    1.9099 H   0  0  0  0  0  0  0  0  0  0  0  0
   -4.4289   -0.6625    2.6075 H   0  0  0  0  0  0  0  0  0  0  0  0
   -3.0016   -2.4412    1.6172 H   0  0  0  0  0  0  0  0  0  0  0  0
   -1.2972   -1.8542   -0.0510 H   0  0  0  0  0  0  0  0  0  0  0  0
    1.9653    1.4331    2.5528 H   0  0  0  0  0  0  0  0  0  0  0  0
  1  2  2  0
  2  3  1  0
  3  4  2  0
  4  5  1  0
  5  6  2  0
  6  7  1  0
  7  8  1  0
  8  9  2  0
  9 10  1  0
 10 11  2  0
 11 12  1  0
 12 13  2  0
 13 14  1  0
 14 15  2  0
 15 16  1  0
 16 17  2  0
 17 18  1  0
 18 19  2  0
  4 20  1  0
 20 21  2  0
 21  1  1  0
  9  5  1  0
 19 10  1  0
 19 14  1  0
  1 22  1  0
  2 23  1  0
  3 24  1  0
  7 25  1  0
  8 26  1  0
 11 27  1  0
 12 28  1  0
 15 29  1  0
 16 30  1  0
 17 31  1  0
 18 32  1  0
 21 33  1  0
M  END
$$$$
