
     RDKit          3D

 56 59  0  0  0  0  0  0  0  0999 V2000
    0.4484    2.5417    0.4572 O   0  0  0  0  0  0  0  0  0  0  0  0
    0.9160    1.5444   -0.0896 C   0  0  0  0  0  0  0  0  0  0  0  0
    2.3757    1.1536    0.0475 C   0  0  0  0  0  0  0  0  0  0  0  0
    3.1371    2.1197    0.9526 C   0  0  0  0  0  0  0  0  0  0  0  0
    4.5851    1.7173    1.0885 C   0  0  0  0  0  0  0  0  0  0  0  0
    5.5438    2.1995    0.1875 C   0  0  0  0  0  0  0  0  0  0  0  0
    6.8790    1.8092    0.3007 C   0  0  0  0  0  0  0  0  0  0  0  0
    7.2668    0.9315    1.3114 C   0  0  0  0  0  0  0  0  0  0  0  0
    6.3200    0.4429    2.2098 C   0  0  0  0  0  0  0  0  0  0  0  0
    4.9842    0.8319    2.0986 C   0  0  0  0  0  0  0  0  0  0  0  0
    0.1397    0.7088   -0.8622 N   0  0  0  0  0  0  0  0  0  0  0  0
    0.5602   -0.5099   -1.5308 C   0  0  0  0  0  0  0  0  0  0  0  0
   -0.6633   -0.9642   -2.3393 C   0  0  1  0  0  0  0  0  0  0  0  0
   -0.6490   -2.4738   -2.5745 C   0  0  0  0  0  0  0  0  0  0  0  0
   -1.9412   -3.0347   -3.1626 C   0  0  0  0  0  0  0  0  0  0  0  0
   -3.2213   -2.7343   -2.3866 C   0  0  0  0  0  0  0  0  0  0  0  0
   -3.0151   -2.5124   -0.8982 C   0  0  0  0  0  0  0  0  0  0  0  0
   -3.4279   -3.3437   -0.0905 O   0  0  0  0  0  0  0  0  0  0  0  0
   -2.3409   -1.3480   -0.5239 N   0  0  0  0  0  0  0  0  0  0  0  0
   -2.1220   -1.1164    0.9100 C   0  0  0  0  0  0  0  0  0  0  0  0
   -3.1367   -0.1889    1.5423 C   0  0  0  0  0  0  0  0  0  0  0  0
   -2.7126    0.9346    2.2695 C   0  0  0  0  0  0  0  0  0  0  0  0
   -3.6405    1.7869    2.8714 C   0  0  0  0  0  0  0  0  0  0  0  0
   -5.0033    1.5186    2.7693 C   0  0  0  0  0  0  0  0  0  0  0  0
   -5.4388    0.3957    2.0697 C   0  0  0  0  0  0  0  0  0  0  0  0
   -4.5117   -0.4551    1.4642 C   0  0  0  0  0  0  0  0  0  0  0  0
   -1.8556   -0.3872   -1.5385 C   0  0  1  0  0  0  0  0  0  0  0  0
   -1.2759    0.9586   -1.0696 C   0  0  0  0  0  0  0  0  0  0  0  0
    2.4288    0.1389    0.4591 H   0  0  0  0  0  0  0  0  0  0  0  0
    2.8284    1.1454   -0.9510 H   0  0  0  0  0  0  0  0  0  0  0  0
    3.0772    3.1425    0.5585 H   0  0  0  0  0  0  0  0  0  0  0  0
    2.6741    2.1585    1.9472 H   0  0  0  0  0  0  0  0  0  0  0  0
    5.2562    2.8856   -0.6060 H   0  0  0  0  0  0  0  0  0  0  0  0
    7.6174    2.1918   -0.3991 H   0  0  0  0  0  0  0  0  0  0  0  0
    8.3070    0.6298    1.4003 H   0  0  0  0  0  0  0  0  0  0  0  0
    6.6222   -0.2404    2.9992 H   0  0  0  0  0  0  0  0  0  0  0  0
    4.2568    0.4426    2.8074 H   0  0  0  0  0  0  0  0  0  0  0  0
    1.4258   -0.3153   -2.1711 H   0  0  0  0  0  0  0  0  0  0  0  0
    0.8458   -1.2341   -0.7601 H   0  0  0  0  0  0  0  0  0  0  0  0
   -0.6395   -0.4540   -3.3130 H   0  0  0  0  0  0  0  0  0  0  0  0
   -0.4245   -3.0039   -1.6395 H   0  0  0  0  0  0  0  0  0  0  0  0
    0.1794   -2.7176   -3.2522 H   0  0  0  0  0  0  0  0  0  0  0  0
   -2.0616   -2.6804   -4.1936 H   0  0  0  0  0  0  0  0  0  0  0  0
   -1.8272   -4.1242   -3.2329 H   0  0  0  0  0  0  0  0  0  0  0  0
   -3.9202   -3.5710   -2.5125 H   0  0  0  0  0  0  0  0  0  0  0  0
   -3.7441   -1.8711   -2.8116 H   0  0  0  0  0  0  0  0  0  0  0  0
   -2.1633   -2.0684    1.4533 H   0  0  0  0  0  0  0  0  0  0  0  0
   -1.1011   -0.7479    1.0502 H   0  0  0  0  0  0  0  0  0  0  0  0
   -1.6525    1.1662    2.3612 H   0  0  0  0  0  0  0  0  0  0  0  0
   -3.2971    2.6605    3.4196 H   0  0  0  0  0  0  0  0  0  0  0  0
   -5.7249    2.1803    3.2406 H   0  0  0  0  0  0  0  0  0  0  0  0
   -6.5009    0.1757    2.0002 H   0  0  0  0  0  0  0  0  0  0  0  0
   -4.8717   -1.3380    0.9403 H   0  0  0  0  0  0  0  0  0  0  0  0
   -2.7006   -0.1728   -2.2007 H   0  0  0  0  0  0  0  0  0  0  0  0
   -1.3402    1.6941   -1.8816 H   0  0  0  0  0  0  0  0  0  0  0  0
   -1.7502    1.4009   -0.1961 H   0  0  0  0  0  0  0  0  0  0  0  0
  1  2  2  0
  2  3  1  0
  3  4  1  0
  4  5  1  0
  5  6  2  0
  6  7  1  0
  7  8  2  0
  8  9  1  0
  9 10  2  0
  2 11  1  0
 11 12  1  0
 12 13  1  0
 13 14  1  0
 14 15  1  0
 15 16  1  0
 16 17  1  0
 17 18  2  0
 17 19  1  0
 19 20  1  0
 20 21  1  0
 21 22  2  0
 22 23  1  0
 23 24  2  0
 24 25  1  0
 25 26  2  0
 19 27  1  0
 27 28  1  0
 10  5  1  0
 28 11  1  0
 27 13  1  0
 26 21  1  0
  3 29  1  0
  3 30  1  0
  4 31  1  0
  4 32  1  0
  6 33  1  0
  7 34  1  0
  8 35  1  0
  9 36  1  0
 10 37  1  0
 12 38  1  0
 12 39  1  0
 13 40  1  6
 14 41  1  0
 14 42  1  0
 15 43  1  0
 15 44  1  0
 16 45  1  0
 16 46  1  0
 20 47  1  0
 20 48  1  0
 22 49  1  0
 23 50  1  0
 24 51  1  0
 25 52  1  0
 26 53  1  0
 27 54  1  6
 28 55  1  0
 28 56  1  0
M  END
$$$$
