
     RDKit          3D

 59 63  0  0  0  0  0  0  0  0999 V2000
    1.3700    0.8110    3.1571 C   0  0  0  0  0  0  0  0  0  0  0  0
    0.6228    0.4111    2.0159 O   0  0  0  0  0  0  0  0  0  0  0  0
    1.3310    0.1227    0.8675 C   0  0  0  0  0  0  0  0  0  0  0  0
    2.7322    0.1121    0.7733 C   0  0  0  0  0  0  0  0  0  0  0  0
    3.3983   -0.1860   -0.4283 C   0  0  0  0  0  0  0  0  0  0  0  0
    4.7818   -0.1889   -0.5102 N   0  0  0  0  0  0  0  0  0  0  0  0
    5.6168   -0.4506    0.6761 C   0  0  0  0  0  0  0  0  0  0  0  0
    6.9468   -1.1426    0.2921 C   0  0  0  0  0  0  0  0  0  0  0  0
    7.7636   -0.4496   -0.7271 N   0  0  0  0  0  0  0  0  0  0  0  0
    8.8268    0.3483   -0.1206 C   0  0  0  0  0  0  0  0  0  0  0  0
    6.9251    0.3893   -1.6131 C   0  0  0  0  0  0  0  0  0  0  0  0
    5.4842   -0.1383   -1.8051 C   0  0  0  0  0  0  0  0  0  0  0  0
    2.5872   -0.4640   -1.5361 C   0  0  0  0  0  0  0  0  0  0  0  0
    1.1867   -0.4627   -1.4565 C   0  0  0  0  0  0  0  0  0  0  0  0
    0.5359   -0.1752   -0.2592 C   0  0  0  0  0  0  0  0  0  0  0  0
   -0.8586   -0.1527   -0.1152 N   0  0  0  0  0  0  0  0  0  0  0  0
   -1.9393   -0.3460   -0.9627 C   0  0  0  0  0  0  0  0  0  0  0  0
   -1.7800   -0.6288   -2.2638 N   0  0  0  0  0  0  0  0  0  0  0  0
   -2.8910   -0.7854   -3.0026 C   0  0  0  0  0  0  0  0  0  0  0  0
   -4.1597   -0.6743   -2.4956 C   0  0  0  0  0  0  0  0  0  0  0  0
   -4.2402   -0.3880   -1.1508 C   0  0  0  0  0  0  0  0  0  0  0  0
   -5.5239   -0.2380   -0.4644 C   0  0  0  0  0  0  0  0  0  0  0  0
   -6.7214   -0.7549   -0.9323 C   0  0  0  0  0  0  0  0  0  0  0  0
   -7.7134   -0.4289   -0.0440 N   0  0  0  0  0  0  0  0  0  0  0  0
   -9.1072   -0.7880   -0.1977 C   0  0  0  0  0  0  0  0  0  0  0  0
   -7.1928    0.2832    1.0142 C   0  0  0  0  0  0  0  0  0  0  0  0
   -7.8012    0.8171    2.1490 C   0  0  0  0  0  0  0  0  0  0  0  0
   -7.0540    1.4849    3.0569 N   0  0  0  0  0  0  0  0  0  0  0  0
   -5.7294    1.6162    2.8383 C   0  0  0  0  0  0  0  0  0  0  0  0
   -5.0579    1.1146    1.7341 C   0  0  0  0  0  0  0  0  0  0  0  0
   -5.8206    0.4160    0.7812 C   0  0  0  0  0  0  0  0  0  0  0  0
   -3.1430   -0.2201   -0.3834 N   0  0  0  0  0  0  0  0  0  0  0  0
    0.6605    1.0387    3.9593 H   0  0  0  0  0  0  0  0  0  0  0  0
    2.0171   -0.0004    3.5067 H   0  0  0  0  0  0  0  0  0  0  0  0
    1.9445    1.7212    2.9541 H   0  0  0  0  0  0  0  0  0  0  0  0
    3.3285    0.3634    1.6419 H   0  0  0  0  0  0  0  0  0  0  0  0
    5.0993   -1.1135    1.3814 H   0  0  0  0  0  0  0  0  0  0  0  0
    5.8243    0.4978    1.1882 H   0  0  0  0  0  0  0  0  0  0  0  0
    7.5304   -1.3430    1.2006 H   0  0  0  0  0  0  0  0  0  0  0  0
    6.7029   -2.1325   -0.1202 H   0  0  0  0  0  0  0  0  0  0  0  0
    8.4360    1.1156    0.5586 H   0  0  0  0  0  0  0  0  0  0  0  0
    9.5128   -0.2939    0.4446 H   0  0  0  0  0  0  0  0  0  0  0  0
    9.4245    0.8439   -0.8950 H   0  0  0  0  0  0  0  0  0  0  0  0
    7.4136    0.4616   -2.5929 H   0  0  0  0  0  0  0  0  0  0  0  0
    6.8515    1.4120   -1.2130 H   0  0  0  0  0  0  0  0  0  0  0  0
    5.5028   -1.1374   -2.2606 H   0  0  0  0  0  0  0  0  0  0  0  0
    4.9741    0.5453   -2.4963 H   0  0  0  0  0  0  0  0  0  0  0  0
    3.0265   -0.7170   -2.4970 H   0  0  0  0  0  0  0  0  0  0  0  0
    0.6250   -0.6982   -2.3548 H   0  0  0  0  0  0  0  0  0  0  0  0
   -1.1711    0.0522    0.8255 H   0  0  0  0  0  0  0  0  0  0  0  0
   -2.7213   -1.0100   -4.0522 H   0  0  0  0  0  0  0  0  0  0  0  0
   -5.0249   -0.7970   -3.1310 H   0  0  0  0  0  0  0  0  0  0  0  0
   -6.9506   -1.3367   -1.8163 H   0  0  0  0  0  0  0  0  0  0  0  0
   -9.7144    0.1148   -0.0945 H   0  0  0  0  0  0  0  0  0  0  0  0
   -9.3594   -1.5165    0.5765 H   0  0  0  0  0  0  0  0  0  0  0  0
   -9.2674   -1.2278   -1.1868 H   0  0  0  0  0  0  0  0  0  0  0  0
   -8.8605    0.7316    2.3586 H   0  0  0  0  0  0  0  0  0  0  0  0
   -5.1900    2.1620    3.6077 H   0  0  0  0  0  0  0  0  0  0  0  0
   -3.9902    1.2560    1.6199 H   0  0  0  0  0  0  0  0  0  0  0  0
  1  2  1  0
  2  3  1  0
  3  4  2  0
  4  5  1  0
  5  6  1  0
  6  7  1  0
  7  8  1  0
  8  9  1  0
  9 10  1  0
  9 11  1  0
 11 12  1  0
  5 13  2  0
 13 14  1  0
 14 15  2  0
 15 16  1  0
 16 17  1  0
 17 18  2  0
 18 19  1  0
 19 20  2  0
 20 21  1  0
 21 22  1  0
 22 23  2  0
 23 24  1  0
 24 25  1  0
 24 26  1  0
 26 27  2  0
 27 28  1  0
 28 29  2  0
 29 30  1  0
 30 31  2  0
 21 32  2  0
 15  3  1  0
 32 17  1  0
 12  6  1  0
 31 22  1  0
 31 26  1  0
  1 33  1  0
  1 34  1  0
  1 35  1  0
  4 36  1  0
  7 37  1  0
  7 38  1  0
  8 39  1  0
  8 40  1  0
 10 41  1  0
 10 42  1  0
 10 43  1  0
 11 44  1  0
 11 45  1  0
 12 46  1  0
 12 47  1  0
 13 48  1  0
 14 49  1  0
 16 50  1  0
 19 51  1  0
 20 52  1  0
 23 53  1  0
 25 54  1  0
 25 55  1  0
 25 56  1  0
 27 57  1  0
 29 58  1  0
 30 59  1  0
M  END
$$$$
