
     RDKit          3D

 54 54  0  0  0  0  0  0  0  0999 V2000
   -2.4894   -1.1884    1.6288 N   0  0  0  0  0  0  0  0  0  0  0  0
   -1.9436    0.0730    1.1125 C   0  0  1  0  0  0  0  0  0  0  0  0
   -0.4056    0.1341    1.2020 C   0  0  0  0  0  0  0  0  0  0  0  0
    0.3456   -0.9076    0.3838 C   0  0  0  0  0  0  0  0  0  0  0  0
   -0.2396   -1.8379   -0.1689 O   0  0  0  0  0  0  0  0  0  0  0  0
    1.7299   -0.7643    0.2932 N   0  0  0  0  0  0  0  0  0  0  0  0
    2.5324    0.0515    1.2148 C   0  0  0  0  0  0  0  0  0  0  0  0
    3.7355    0.6757    0.5091 C   0  0  0  0  0  0  0  0  0  0  0  0
    4.4266   -0.3120   -0.2865 N   0  0  0  0  0  0  0  0  0  0  0  0
    3.8424   -1.4646   -0.7340 C   0  0  0  0  0  0  0  0  0  0  0  0
    4.7319   -2.1405   -1.4276 N   0  0  0  0  0  0  0  0  0  0  0  0
    5.9006   -1.4131   -1.4452 N   0  0  0  0  0  0  0  0  0  0  0  0
    5.7093   -0.3004   -0.7595 C   0  0  0  0  0  0  0  0  0  0  0  0
    6.6631    0.8036   -0.5037 C   0  0  0  0  0  0  0  0  0  0  0  0
    6.1201    2.0092   -0.8281 F   0  0  0  0  0  0  0  0  0  0  0  0
    6.9831    0.8828    0.8163 F   0  0  0  0  0  0  0  0  0  0  0  0
    7.8257    0.6963   -1.1900 F   0  0  0  0  0  0  0  0  0  0  0  0
    2.4374   -1.8408   -0.4207 C   0  0  0  0  0  0  0  0  0  0  0  0
   -2.4516    0.3796   -0.3180 C   0  0  0  0  0  0  0  0  0  0  0  0
   -3.9454    0.5984   -0.3897 C   0  0  0  0  0  0  0  0  0  0  0  0
   -4.5127    1.8129    0.0244 C   0  0  0  0  0  0  0  0  0  0  0  0
   -5.8938    1.9860   -0.0291 C   0  0  0  0  0  0  0  0  0  0  0  0
   -6.4228    3.1513    0.3683 F   0  0  0  0  0  0  0  0  0  0  0  0
   -6.7172    0.9642   -0.4898 C   0  0  0  0  0  0  0  0  0  0  0  0
   -8.0447    1.1407   -0.5397 F   0  0  0  0  0  0  0  0  0  0  0  0
   -6.1747   -0.2442   -0.9042 C   0  0  0  0  0  0  0  0  0  0  0  0
   -4.7951   -0.4180   -0.8500 C   0  0  0  0  0  0  0  0  0  0  0  0
   -4.2812   -1.5859   -1.2605 F   0  0  0  0  0  0  0  0  0  0  0  0
    0.0002    0.3978    0.0000 O   0  0  0  0  0  0  0  0  0  0  0  0
    0.1961   -0.0050    1.7399 O   0  0  0  0  0  0  0  0  0  0  0  0
    0.0221    0.0186    0.2646 P   0  0  0  0  0  5  0  0  0  0  0  0
   -0.9507   -1.1164   -0.2710 O   0  0  0  0  0  0  0  0  0  0  0  0
    1.3802   -0.1911   -0.5311 O   0  0  0  0  0  0  0  0  0  0  0  0
   -0.5763    1.3539   -0.3479 O   0  0  0  0  0  0  0  0  0  0  0  0
   -2.0590   -1.4358    2.5174 H   0  0  0  0  0  0  0  0  0  0  0  0
   -2.2329   -1.9417    0.9790 H   0  0  0  0  0  0  0  0  0  0  0  0
   -2.3196    0.8610    1.7781 H   0  0  0  0  0  0  0  0  0  0  0  0
   -0.1091    0.0112    2.2511 H   0  0  0  0  0  0  0  0  0  0  0  0
   -0.0843    1.1288    0.8701 H   0  0  0  0  0  0  0  0  0  0  0  0
    1.9399    0.8439    1.6765 H   0  0  0  0  0  0  0  0  0  0  0  0
    2.8610   -0.6157    2.0218 H   0  0  0  0  0  0  0  0  0  0  0  0
    3.4142    1.4635   -0.1814 H   0  0  0  0  0  0  0  0  0  0  0  0
    4.4320    1.0972    1.2396 H   0  0  0  0  0  0  0  0  0  0  0  0
    2.4263   -2.7285    0.2222 H   0  0  0  0  0  0  0  0  0  0  0  0
    1.9008   -2.0804   -1.3453 H   0  0  0  0  0  0  0  0  0  0  0  0
   -1.9602    1.2868   -0.6947 H   0  0  0  0  0  0  0  0  0  0  0  0
   -2.1663   -0.4159   -1.0164 H   0  0  0  0  0  0  0  0  0  0  0  0
   -3.8948    2.6260    0.3929 H   0  0  0  0  0  0  0  0  0  0  0  0
   -6.8140   -1.0419   -1.2633 H   0  0  0  0  0  0  0  0  0  0  0  0
   -0.7636   -0.1985    0.0000 H   0  0  0  0  0  0  0  0  0  0  0  0
    0.7634   -0.1993    0.0000 H   0  0  0  0  0  0  0  0  0  0  0  0
   -1.5561   -1.4051    0.4371 H   0  0  0  0  0  0  0  0  0  0  0  0
    2.1406    0.0624    0.0246 H   0  0  0  0  0  0  0  0  0  0  0  0
   -0.6560    1.2826   -1.3161 H   0  0  0  0  0  0  0  0  0  0  0  0
  1  2  1  0
  2  3  1  0
  3  4  1  0
  4  5  2  0
  4  6  1  0
  6  7  1  0
  7  8  1  0
  8  9  1  0
  9 10  1  0
 10 11  2  0
 11 12  1  0
 12 13  2  0
 13 14  1  0
 14 15  1  0
 14 16  1  0
 14 17  1  0
 10 18  1  0
  2 19  1  0
 19 20  1  0
 20 21  2  0
 21 22  1  0
 22 23  1  0
 22 24  2  0
 24 25  1  0
 24 26  1  0
 26 27  2  0
 27 28  1  0
 30 31  2  0
 31 32  1  0
 31 33  1  0
 31 34  1  0
 18  6  1  0
 27 20  1  0
 13  9  1  0
  1 35  1  0
  1 36  1  0
  2 37  1  1
  3 38  1  0
  3 39  1  0
  7 40  1  0
  7 41  1  0
  8 42  1  0
  8 43  1  0
 18 44  1  0
 18 45  1  0
 19 46  1  0
 19 47  1  0
 21 48  1  0
 26 49  1  0
 29 50  1  0
 29 51  1  0
 32 52  1  0
 33 53  1  0
 34 54  1  0
M  END
$$$$
