
     RDKit          3D

 44 46  0  0  0  0  0  0  0  0999 V2000
    6.8240    0.9371    0.8602 C   0  0  0  0  0  0  0  0  0  0  0  0
    6.2859    0.3415   -0.3417 N   0  0  0  0  0  0  0  0  0  0  0  0
    7.1243   -0.4503   -1.0478 N   0  0  0  0  0  0  0  0  0  0  0  0
    6.3146   -1.1174   -1.8671 C   0  0  0  0  0  0  0  0  0  0  0  0
    4.9692   -0.7430   -1.7121 C   0  0  0  0  0  0  0  0  0  0  0  0
    3.7139   -1.3877   -2.6554 Cl  0  0  0  0  0  0  0  0  0  0  0  0
    4.9714    0.2584   -0.7549 C   0  0  0  0  0  0  0  0  0  0  0  0
    3.7184    1.0855   -0.2442 C   0  0  0  0  0  0  0  0  0  0  0  0
    2.3680    0.5983   -0.3112 C   0  0  0  0  0  0  0  0  0  0  0  0
    1.4333    1.4707    0.2223 C   0  0  0  0  0  0  0  0  0  0  0  0
   -0.0114    1.3359    0.3668 C   0  0  0  0  0  0  0  0  0  0  0  0
   -0.7563    2.2464    0.7231 O   0  0  0  0  0  0  0  0  0  0  0  0
   -0.5093    0.0775    0.0915 N   0  0  0  0  0  0  0  0  0  0  0  0
   -1.9009   -0.2878    0.3746 C   0  0  2  0  0  0  0  0  0  0  0  0
   -2.0200   -1.8334    0.3408 C   0  0  0  0  0  0  0  0  0  0  0  0
   -0.9074   -2.4705    1.0684 N   0  0  0  0  0  0  0  0  0  0  0  0
   -2.8800    0.3715   -0.6207 C   0  0  0  0  0  0  0  0  0  0  0  0
   -4.3327    0.1471   -0.2727 C   0  0  0  0  0  0  0  0  0  0  0  0
   -5.1252   -0.7290   -1.0300 C   0  0  0  0  0  0  0  0  0  0  0  0
   -6.4657   -0.9426   -0.6970 C   0  0  0  0  0  0  0  0  0  0  0  0
   -7.0260   -0.2813    0.3942 C   0  0  0  0  0  0  0  0  0  0  0  0
   -6.2433    0.5905    1.1412 C   0  0  0  0  0  0  0  0  0  0  0  0
   -6.7828    1.2264    2.1894 F   0  0  0  0  0  0  0  0  0  0  0  0
   -4.9080    0.8114    0.8191 C   0  0  0  0  0  0  0  0  0  0  0  0
    2.1929    2.9086    0.7565 S   0  0  0  0  0  0  0  0  0  0  0  0
    3.7252    2.3607    0.2755 C   0  0  0  0  0  0  0  0  0  0  0  0
    5.0050    3.5079    0.3789 Cl  0  0  0  0  0  0  0  0  0  0  0  0
    7.5483    0.2443    1.3003 H   0  0  0  0  0  0  0  0  0  0  0  0
    6.0260    1.0999    1.5861 H   0  0  0  0  0  0  0  0  0  0  0  0
    7.3297    1.8654    0.5885 H   0  0  0  0  0  0  0  0  0  0  0  0
    6.7384   -1.8449   -2.5471 H   0  0  0  0  0  0  0  0  0  0  0  0
    2.0934   -0.3728   -0.6990 H   0  0  0  0  0  0  0  0  0  0  0  0
    0.1307   -0.7078    0.1469 H   0  0  0  0  0  0  0  0  0  0  0  0
   -2.1133    0.0583    1.3948 H   0  0  0  0  0  0  0  0  0  0  0  0
   -1.9839   -2.1891   -0.6954 H   0  0  0  0  0  0  0  0  0  0  0  0
   -2.9708   -2.1582    0.7759 H   0  0  0  0  0  0  0  0  0  0  0  0
   -0.9685   -2.2071    2.0541 H   0  0  0  0  0  0  0  0  0  0  0  0
   -1.0451   -3.4826    1.0502 H   0  0  0  0  0  0  0  0  0  0  0  0
   -2.7137    1.4545   -0.6720 H   0  0  0  0  0  0  0  0  0  0  0  0
   -2.6757    0.0062   -1.6361 H   0  0  0  0  0  0  0  0  0  0  0  0
   -4.7054   -1.2497   -1.8887 H   0  0  0  0  0  0  0  0  0  0  0  0
   -7.0727   -1.6211   -1.2912 H   0  0  0  0  0  0  0  0  0  0  0  0
   -8.0658   -0.4350    0.6640 H   0  0  0  0  0  0  0  0  0  0  0  0
   -4.3286    1.5073    1.4206 H   0  0  0  0  0  0  0  0  0  0  0  0
  1  2  1  0
  2  3  1  0
  3  4  2  0
  4  5  1  0
  5  6  1  0
  5  7  2  0
  7  8  1  0
  8  9  1  0
  9 10  2  0
 10 11  1  0
 11 12  2  0
 11 13  1  0
 13 14  1  0
 14 15  1  0
 15 16  1  0
 14 17  1  0
 17 18  1  0
 18 19  2  0
 19 20  1  0
 20 21  2  0
 21 22  1  0
 22 23  1  0
 22 24  2  0
 10 25  1  0
 25 26  1  0
 26 27  1  0
  7  2  1  0
 26  8  2  0
 24 18  1  0
  1 28  1  0
  1 29  1  0
  1 30  1  0
  4 31  1  0
  9 32  1  0
 13 33  1  0
 14 34  1  1
 15 35  1  0
 15 36  1  0
 16 37  1  0
 16 38  1  0
 17 39  1  0
 17 40  1  0
 19 41  1  0
 20 42  1  0
 21 43  1  0
 24 44  1  0
M  END
$$$$
