
     RDKit          3D

 39 40  0  0  0  0  0  0  0  0999 V2000
    4.0085   -2.1870   -1.1948 C   0  0  0  0  0  0  0  0  0  0  0  0
    2.3257   -1.6229   -1.0922 S   0  0  0  0  0  6  0  0  0  0  0  0
    1.4637   -2.7579   -1.3424 O   0  0  0  0  0  0  0  0  0  0  0  0
    2.2071   -0.3950   -1.8471 O   0  0  0  0  0  0  0  0  0  0  0  0
    2.2128   -1.3104    0.5754 N   0  0  0  0  0  0  0  0  0  0  0  0
    1.9565    0.0555    0.9305 C   0  0  0  0  0  0  0  0  0  0  0  0
    3.0104    0.9695    0.9647 C   0  0  0  0  0  0  0  0  0  0  0  0
    2.7524    2.3112    1.2489 C   0  0  0  0  0  0  0  0  0  0  0  0
    1.4342    2.7241    1.4941 C   0  0  0  0  0  0  0  0  0  0  0  0
    1.1645    4.1337    1.8078 N   0  0  0  0  0  4  0  0  0  0  0  0
   -0.0183    4.4766    1.9453 O   0  0  0  0  0  0  0  0  0  0  0  0
    2.1355    4.8949    1.9200 O   0  0  0  0  0  1  0  0  0  0  0  0
    0.3695    1.8101    1.4505 C   0  0  0  0  0  0  0  0  0  0  0  0
    0.6314    0.4753    1.1434 C   0  0  0  0  0  0  0  0  0  0  0  0
   -0.3270   -0.5045    1.0934 O   0  0  0  0  0  0  0  0  0  0  0  0
   -1.5680   -0.1702    0.4511 C   0  0  0  0  0  0  0  0  0  0  0  0
   -2.5419   -1.3153    0.7592 C   0  0  0  0  0  0  0  0  0  0  0  0
   -3.8787   -1.1337    0.0484 C   0  0  0  0  0  0  0  0  0  0  0  0
   -3.6941   -0.9669   -1.4568 C   0  0  0  0  0  0  0  0  0  0  0  0
   -2.7188    0.1604   -1.7820 C   0  0  0  0  0  0  0  0  0  0  0  0
   -1.3849   -0.0266   -1.0660 C   0  0  0  0  0  0  0  0  0  0  0  0
    4.6749   -1.3747   -0.8997 H   0  0  0  0  0  0  0  0  0  0  0  0
    4.2059   -2.4701   -2.2311 H   0  0  0  0  0  0  0  0  0  0  0  0
    4.1333   -3.0543   -0.5438 H   0  0  0  0  0  0  0  0  0  0  0  0
    1.4762   -1.9272    0.9389 H   0  0  0  0  0  0  0  0  0  0  0  0
    4.0286    0.6448    0.7709 H   0  0  0  0  0  0  0  0  0  0  0  0
    3.5810    3.0164    1.2743 H   0  0  0  0  0  0  0  0  0  0  0  0
   -0.6400    2.1409    1.6724 H   0  0  0  0  0  0  0  0  0  0  0  0
   -1.9969    0.7456    0.8730 H   0  0  0  0  0  0  0  0  0  0  0  0
   -2.0913   -2.2731    0.4667 H   0  0  0  0  0  0  0  0  0  0  0  0
   -2.7006   -1.3817    1.8425 H   0  0  0  0  0  0  0  0  0  0  0  0
   -4.5230   -1.9975    0.2473 H   0  0  0  0  0  0  0  0  0  0  0  0
   -4.3908   -0.2525    0.4537 H   0  0  0  0  0  0  0  0  0  0  0  0
   -3.3205   -1.9057   -1.8840 H   0  0  0  0  0  0  0  0  0  0  0  0
   -4.6627   -0.7648   -1.9277 H   0  0  0  0  0  0  0  0  0  0  0  0
   -2.5534    0.2031   -2.8644 H   0  0  0  0  0  0  0  0  0  0  0  0
   -3.1590    1.1210   -1.4875 H   0  0  0  0  0  0  0  0  0  0  0  0
   -0.8733   -0.9132   -1.4611 H   0  0  0  0  0  0  0  0  0  0  0  0
   -0.7290    0.8219   -1.2923 H   0  0  0  0  0  0  0  0  0  0  0  0
  1  2  1  0
  2  3  2  0
  2  4  2  0
  2  5  1  0
  5  6  1  0
  6  7  2  0
  7  8  1  0
  8  9  2  0
  9 10  1  0
 10 11  2  0
 10 12  1  0
  9 13  1  0
 13 14  2  0
 14 15  1  0
 15 16  1  0
 16 17  1  0
 17 18  1  0
 18 19  1  0
 19 20  1  0
 20 21  1  0
 14  6  1  0
 21 16  1  0
  1 22  1  0
  1 23  1  0
  1 24  1  0
  5 25  1  0
  7 26  1  0
  8 27  1  0
 13 28  1  0
 16 29  1  0
 17 30  1  0
 17 31  1  0
 18 32  1  0
 18 33  1  0
 19 34  1  0
 19 35  1  0
 20 36  1  0
 20 37  1  0
 21 38  1  0
 21 39  1  0
M  CHG  2  10   1  12  -1
M  END
$$$$
