
     RDKit          3D

 59 63  0  0  0  0  0  0  0  0999 V2000
    0.3158   -1.9099   -1.5217 O   0  0  0  0  0  0  0  0  0  0  0  0
    0.5723   -1.2161   -0.5352 C   0  0  0  0  0  0  0  0  0  0  0  0
   -0.5093   -0.8589    0.4983 C   0  0  0  0  0  0  0  0  0  0  0  0
   -1.8622   -1.0914   -0.0134 N   0  0  0  0  0  0  0  0  0  0  0  0
   -2.4835   -0.0204   -0.6479 C   0  0  0  0  0  0  0  0  0  0  0  0
   -1.9153    1.0696   -0.7571 O   0  0  0  0  0  0  0  0  0  0  0  0
   -3.7644   -0.2355   -1.1364 N   0  0  0  0  0  0  0  0  0  0  0  0
   -4.4573    0.8956   -1.7407 C   0  0  0  0  0  0  0  0  0  0  0  0
   -5.2286    1.7044   -0.7152 C   0  0  0  0  0  0  0  0  0  0  0  0
   -6.5379    1.3406   -0.3599 C   0  0  0  0  0  0  0  0  0  0  0  0
   -7.2405    2.0728    0.5983 C   0  0  0  0  0  0  0  0  0  0  0  0
   -6.6351    3.1659    1.2049 C   0  0  0  0  0  0  0  0  0  0  0  0
   -7.3090    3.8673    2.1259 F   0  0  0  0  0  0  0  0  0  0  0  0
   -5.3390    3.5407    0.8732 C   0  0  0  0  0  0  0  0  0  0  0  0
   -4.6343    2.8097   -0.0844 C   0  0  0  0  0  0  0  0  0  0  0  0
   -4.4422   -1.4521   -1.0969 C   0  0  0  0  0  0  0  0  0  0  0  0
   -5.5767   -1.6047   -1.5490 O   0  0  0  0  0  0  0  0  0  0  0  0
   -3.7257   -2.5923   -0.4797 C   0  0  0  0  0  0  0  0  0  0  0  0
   -4.3816   -3.7871   -0.4658 N   0  0  0  0  0  0  0  0  0  0  0  0
   -3.7305   -4.8340    0.0704 C   0  0  0  0  0  0  0  0  0  0  0  0
   -2.4561   -4.7426    0.5964 C   0  0  0  0  0  0  0  0  0  0  0  0
   -1.8125   -3.5034    0.5772 C   0  0  0  0  0  0  0  0  0  0  0  0
   -2.4524   -2.3828    0.0344 C   0  0  0  0  0  0  0  0  0  0  0  0
    1.8623   -0.7719   -0.2759 N   0  0  0  0  0  0  0  0  0  0  0  0
    2.2536    0.0310    0.8880 C   0  0  0  0  0  0  0  0  0  0  0  0
    3.7689    0.0092    1.1685 C   0  0  0  0  0  0  0  0  0  0  0  0
    4.5440    0.3961   -0.0180 N   0  0  0  0  0  0  0  0  0  0  0  0
    5.8235    0.9213    0.0911 C   0  0  0  0  0  0  0  0  0  0  0  0
    6.4223    1.6325   -0.9626 C   0  0  0  0  0  0  0  0  0  0  0  0
    7.7118    2.1698   -0.8605 C   0  0  0  0  0  0  0  0  0  0  0  0
    8.4433    2.0081    0.3088 C   0  0  0  0  0  0  0  0  0  0  0  0
    7.8819    1.3117    1.3714 C   0  0  0  0  0  0  0  0  0  0  0  0
    6.5906    0.7796    1.2597 C   0  0  0  0  0  0  0  0  0  0  0  0
    3.9594    0.0996   -1.3388 C   0  0  0  0  0  0  0  0  0  0  0  0
    2.9159   -1.0298   -1.2627 C   0  0  0  0  0  0  0  0  0  0  0  0
   -0.4058    0.1988    0.7635 H   0  0  0  0  0  0  0  0  0  0  0  0
   -0.3485   -1.4271    1.4192 H   0  0  0  0  0  0  0  0  0  0  0  0
   -5.1467    0.5487   -2.5205 H   0  0  0  0  0  0  0  0  0  0  0  0
   -3.7382    1.5462   -2.2539 H   0  0  0  0  0  0  0  0  0  0  0  0
   -7.0161    0.4807   -0.8274 H   0  0  0  0  0  0  0  0  0  0  0  0
   -8.2524    1.7944    0.8742 H   0  0  0  0  0  0  0  0  0  0  0  0
   -4.8848    4.3964    1.3619 H   0  0  0  0  0  0  0  0  0  0  0  0
   -3.6164    3.1043   -0.3351 H   0  0  0  0  0  0  0  0  0  0  0  0
   -4.2724   -5.7757    0.0611 H   0  0  0  0  0  0  0  0  0  0  0  0
   -1.9660   -5.6193    1.0070 H   0  0  0  0  0  0  0  0  0  0  0  0
   -0.8042   -3.4606    0.9740 H   0  0  0  0  0  0  0  0  0  0  0  0
    1.9288    1.0585    0.6836 H   0  0  0  0  0  0  0  0  0  0  0  0
    1.7135   -0.3203    1.7727 H   0  0  0  0  0  0  0  0  0  0  0  0
    3.9557    0.6964    2.0020 H   0  0  0  0  0  0  0  0  0  0  0  0
    4.0696   -0.9982    1.4802 H   0  0  0  0  0  0  0  0  0  0  0  0
    5.8814    1.8074   -1.8883 H   0  0  0  0  0  0  0  0  0  0  0  0
    8.1363    2.7172   -1.6975 H   0  0  0  0  0  0  0  0  0  0  0  0
    9.4438    2.4224    0.3916 H   0  0  0  0  0  0  0  0  0  0  0  0
    8.4455    1.1747    2.2903 H   0  0  0  0  0  0  0  0  0  0  0  0
    6.2066    0.2257    2.1111 H   0  0  0  0  0  0  0  0  0  0  0  0
    4.7322   -0.2159   -2.0501 H   0  0  0  0  0  0  0  0  0  0  0  0
    3.4852    1.0096   -1.7267 H   0  0  0  0  0  0  0  0  0  0  0  0
    2.4796   -1.1911   -2.2545 H   0  0  0  0  0  0  0  0  0  0  0  0
    3.4020   -1.9659   -0.9605 H   0  0  0  0  0  0  0  0  0  0  0  0
  1  2  2  0
  2  3  1  0
  3  4  1  0
  4  5  1  0
  5  6  2  0
  5  7  1  0
  7  8  1  0
  8  9  1  0
  9 10  2  0
 10 11  1  0
 11 12  2  0
 12 13  1  0
 12 14  1  0
 14 15  2  0
  7 16  1  0
 16 17  2  0
 16 18  1  0
 18 19  2  0
 19 20  1  0
 20 21  2  0
 21 22  1  0
 22 23  2  0
  2 24  1  0
 24 25  1  0
 25 26  1  0
 26 27  1  0
 27 28  1  0
 28 29  2  0
 29 30  1  0
 30 31  2  0
 31 32  1  0
 32 33  2  0
 27 34  1  0
 34 35  1  0
 23  4  1  0
 35 24  1  0
 15  9  1  0
 23 18  1  0
 33 28  1  0
  3 36  1  0
  3 37  1  0
  8 38  1  0
  8 39  1  0
 10 40  1  0
 11 41  1  0
 14 42  1  0
 15 43  1  0
 20 44  1  0
 21 45  1  0
 22 46  1  0
 25 47  1  0
 25 48  1  0
 26 49  1  0
 26 50  1  0
 29 51  1  0
 30 52  1  0
 31 53  1  0
 32 54  1  0
 33 55  1  0
 34 56  1  0
 34 57  1  0
 35 58  1  0
 35 59  1  0
M  END
$$$$
