
     RDKit          3D

 53 56  0  0  0  0  0  0  0  0999 V2000
    6.1761   -2.3384    0.7926 N   0  0  0  0  0  0  0  0  0  0  0  0
    6.4765   -1.0778    0.2418 C   0  0  0  0  0  0  0  0  0  0  0  0
    7.7785   -0.7352    0.2325 N   0  0  0  0  0  0  0  0  0  0  0  0
    8.0968    0.4644   -0.2776 C   0  0  0  0  0  0  0  0  0  0  0  0
    7.2353    1.3637   -0.7698 N   0  0  0  0  0  0  0  0  0  0  0  0
    5.9443    0.9910   -0.7305 C   0  0  0  0  0  0  0  0  0  0  0  0
    5.4948   -0.2111   -0.2179 C   0  0  0  0  0  0  0  0  0  0  0  0
    4.0588   -0.5508   -0.1792 C   0  0  0  0  0  0  0  0  0  0  0  0
    3.7628   -1.7158   -0.4523 O   0  0  0  0  0  0  0  0  0  0  0  0
    3.1529    0.4491    0.2411 N   0  0  0  0  0  0  0  0  0  0  0  0
    1.7302    0.2506    0.1710 C   0  0  0  0  0  0  0  0  0  0  0  0
    1.1660   -0.6047   -0.7843 C   0  0  0  0  0  0  0  0  0  0  0  0
   -0.2198   -0.7983   -0.8703 C   0  0  0  0  0  0  0  0  0  0  0  0
   -1.0909   -0.1446    0.0057 C   0  0  0  0  0  0  0  0  0  0  0  0
   -2.5946   -0.3350   -0.0637 C   0  0  1  0  0  0  0  0  0  0  0  0
   -3.1992    0.3799   -1.2888 C   0  0  0  0  0  0  0  0  0  0  0  0
   -4.4554   -0.3071   -1.8340 C   0  0  0  0  0  0  0  0  0  0  0  0
   -5.3384   -0.9262   -0.7397 C   0  0  2  0  0  0  0  0  0  0  0  0
   -5.9886    0.1314    0.1711 C   0  0  0  0  0  0  0  0  0  0  0  0
   -6.9166    1.0445   -0.5782 C   0  0  0  0  0  0  0  0  0  0  0  0
   -6.7010    2.2085   -0.8689 O   0  0  0  0  0  0  0  0  0  0  0  0
   -8.0710    0.4466   -0.9274 O   0  0  0  0  0  0  0  0  0  0  0  0
   -4.5414   -1.9544    0.0936 C   0  0  0  0  0  0  0  0  0  0  0  0
   -3.0180   -1.8095   -0.0114 C   0  0  0  0  0  0  0  0  0  0  0  0
   -0.5386    0.7169    0.9577 C   0  0  0  0  0  0  0  0  0  0  0  0
    0.8483    0.9100    1.0385 C   0  0  0  0  0  0  0  0  0  0  0  0
    3.6800    1.7305    0.7356 C   0  0  0  0  0  0  0  0  0  0  0  0
    4.2738    2.5744   -0.4016 C   0  0  0  0  0  0  0  0  0  0  0  0
    5.0784    1.8579   -1.3435 O   0  0  0  0  0  0  0  0  0  0  0  0
    5.5622   -2.8314    0.1344 H   0  0  0  0  0  0  0  0  0  0  0  0
    5.6166   -2.2318    1.6352 H   0  0  0  0  0  0  0  0  0  0  0  0
    9.1516    0.7260   -0.2935 H   0  0  0  0  0  0  0  0  0  0  0  0
    1.7858   -1.1225   -1.5121 H   0  0  0  0  0  0  0  0  0  0  0  0
   -0.6033   -1.4641   -1.6398 H   0  0  0  0  0  0  0  0  0  0  0  0
   -3.0214    0.1346    0.8339 H   0  0  0  0  0  0  0  0  0  0  0  0
   -2.4752    0.4601   -2.1098 H   0  0  0  0  0  0  0  0  0  0  0  0
   -3.4368    1.4143   -1.0082 H   0  0  0  0  0  0  0  0  0  0  0  0
   -5.0242    0.4011   -2.4476 H   0  0  0  0  0  0  0  0  0  0  0  0
   -4.1443   -1.1065   -2.5204 H   0  0  0  0  0  0  0  0  0  0  0  0
   -6.1523   -1.4683   -1.2414 H   0  0  0  0  0  0  0  0  0  0  0  0
   -6.5721   -0.3468    0.9670 H   0  0  0  0  0  0  0  0  0  0  0  0
   -5.2411    0.7513    0.6764 H   0  0  0  0  0  0  0  0  0  0  0  0
   -8.5714    1.1472   -1.3951 H   0  0  0  0  0  0  0  0  0  0  0  0
   -4.8072   -2.9661   -0.2382 H   0  0  0  0  0  0  0  0  0  0  0  0
   -4.8369   -1.9028    1.1491 H   0  0  0  0  0  0  0  0  0  0  0  0
   -2.6734   -2.3389   -0.9093 H   0  0  0  0  0  0  0  0  0  0  0  0
   -2.5494   -2.3187    0.8409 H   0  0  0  0  0  0  0  0  0  0  0  0
   -1.1822    1.2428    1.6611 H   0  0  0  0  0  0  0  0  0  0  0  0
    1.1995    1.5518    1.8384 H   0  0  0  0  0  0  0  0  0  0  0  0
    4.4533    1.5037    1.4814 H   0  0  0  0  0  0  0  0  0  0  0  0
    2.9364    2.3347    1.2566 H   0  0  0  0  0  0  0  0  0  0  0  0
    4.8531    3.4104    0.0075 H   0  0  0  0  0  0  0  0  0  0  0  0
    3.4529    3.0091   -0.9816 H   0  0  0  0  0  0  0  0  0  0  0  0
  1  2  1  0
  2  3  2  0
  3  4  1  0
  4  5  2  0
  5  6  1  0
  6  7  2  0
  7  8  1  0
  8  9  2  0
  8 10  1  0
 10 11  1  0
 11 12  2  0
 12 13  1  0
 13 14  2  0
 14 15  1  0
 15 16  1  0
 16 17  1  0
 17 18  1  0
 18 19  1  0
 19 20  1  0
 20 21  2  0
 20 22  1  0
 18 23  1  0
 23 24  1  0
 14 25  1  0
 25 26  2  0
 10 27  1  0
 27 28  1  0
 28 29  1  0
  7  2  1  0
 26 11  1  0
 29  6  1  0
 24 15  1  0
  1 30  1  0
  1 31  1  0
  4 32  1  0
 12 33  1  0
 13 34  1  0
 15 35  1  1
 16 36  1  0
 16 37  1  0
 17 38  1  0
 17 39  1  0
 18 40  1  6
 19 41  1  0
 19 42  1  0
 22 43  1  0
 23 44  1  0
 23 45  1  0
 24 46  1  0
 24 47  1  0
 25 48  1  0
 26 49  1  0
 27 50  1  0
 27 51  1  0
 28 52  1  0
 28 53  1  0
M  END
$$$$
