
     RDKit          3D

 49 52  0  0  0  0  0  0  0  0999 V2000
    5.5887   -2.5848   -0.5466 C   0  0  0  0  0  0  0  0  0  0  0  0
    5.1349   -1.2383   -0.0644 C   0  0  0  0  0  0  0  0  0  0  0  0
    5.4986   -0.7814    1.2082 C   0  0  0  0  0  0  0  0  0  0  0  0
    5.0988    0.4825    1.6469 C   0  0  0  0  0  0  0  0  0  0  0  0
    4.3481    1.3045    0.8094 C   0  0  0  0  0  0  0  0  0  0  0  0
    3.8851    2.5734    1.2705 N   0  0  0  0  0  0  0  0  0  0  0  0
    2.6229    2.5432    2.4066 S   0  0  0  0  0  6  0  0  0  0  0  0
    2.1102    3.8940    2.4919 O   0  0  0  0  0  0  0  0  0  0  0  0
    3.0226    1.7977    3.5801 O   0  0  0  0  0  0  0  0  0  0  0  0
    1.2838    1.5980    1.6750 C   0  0  0  0  0  0  0  0  0  0  0  0
    0.7507    0.3634    2.0111 C   0  0  0  0  0  0  0  0  0  0  0  0
   -0.2628    0.0677    1.0705 C   0  0  0  0  0  0  0  0  0  0  0  0
   -0.3262    1.1315    0.1919 C   0  0  0  0  0  0  0  0  0  0  0  0
   -1.1794    1.3468   -0.9325 C   0  0  0  0  0  0  0  0  0  0  0  0
   -1.1664    2.5361   -1.6124 N   0  0  0  0  0  0  0  0  0  0  0  0
   -2.0240    2.5857   -2.6466 N   0  0  0  0  0  0  0  0  0  0  0  0
   -2.5891    1.3773   -2.6342 C   0  0  0  0  0  0  0  0  0  0  0  0
   -2.1313    0.5686   -1.5686 C   0  0  0  0  0  0  0  0  0  0  0  0
   -2.5171   -0.7908   -1.2556 C   0  0  0  0  0  0  0  0  0  0  0  0
   -1.7069   -1.7071   -1.3632 O   0  0  0  0  0  0  0  0  0  0  0  0
   -3.8211   -0.9941   -0.8128 N   0  0  0  0  0  0  0  0  0  0  0  0
   -4.2348   -2.3406   -0.4099 C   0  0  0  0  0  0  0  0  0  0  0  0
   -4.9780   -2.2966    0.9286 C   0  0  0  0  0  0  0  0  0  0  0  0
   -6.1413   -1.4556    0.9211 O   0  0  0  0  0  0  0  0  0  0  0  0
   -6.1427   -0.4641   -0.1131 C   0  0  0  0  0  0  0  0  0  0  0  0
   -4.7460    0.0805   -0.4276 C   0  0  0  0  0  0  0  0  0  0  0  0
    0.6167    2.0546    0.5579 O   0  0  0  0  0  0  0  0  0  0  0  0
    3.9892    0.8644   -0.4645 C   0  0  0  0  0  0  0  0  0  0  0  0
    4.3875   -0.4009   -0.9017 C   0  0  0  0  0  0  0  0  0  0  0  0
    4.8586   -3.0175   -1.2385 H   0  0  0  0  0  0  0  0  0  0  0  0
    5.6967   -3.2836    0.2895 H   0  0  0  0  0  0  0  0  0  0  0  0
    6.5517   -2.4935   -1.0584 H   0  0  0  0  0  0  0  0  0  0  0  0
    6.0923   -1.4087    1.8699 H   0  0  0  0  0  0  0  0  0  0  0  0
    5.3814    0.8184    2.6417 H   0  0  0  0  0  0  0  0  0  0  0  0
    3.6636    3.2470    0.5382 H   0  0  0  0  0  0  0  0  0  0  0  0
    1.0822   -0.2486    2.8400 H   0  0  0  0  0  0  0  0  0  0  0  0
   -0.8687   -0.8275    1.0421 H   0  0  0  0  0  0  0  0  0  0  0  0
   -0.5959    3.3512   -1.4121 H   0  0  0  0  0  0  0  0  0  0  0  0
   -3.3163    1.1307   -3.3980 H   0  0  0  0  0  0  0  0  0  0  0  0
   -3.3792   -3.0189   -0.3440 H   0  0  0  0  0  0  0  0  0  0  0  0
   -4.9003   -2.7103   -1.1985 H   0  0  0  0  0  0  0  0  0  0  0  0
   -4.3130   -1.9245    1.7164 H   0  0  0  0  0  0  0  0  0  0  0  0
   -5.3001   -3.3018    1.2180 H   0  0  0  0  0  0  0  0  0  0  0  0
   -6.8018    0.3484    0.2081 H   0  0  0  0  0  0  0  0  0  0  0  0
   -6.5900   -0.9131   -1.0077 H   0  0  0  0  0  0  0  0  0  0  0  0
   -4.8105    0.8230   -1.2262 H   0  0  0  0  0  0  0  0  0  0  0  0
   -4.3208    0.5601    0.4619 H   0  0  0  0  0  0  0  0  0  0  0  0
    3.3943    1.4872   -1.1264 H   0  0  0  0  0  0  0  0  0  0  0  0
    4.1049   -0.7336   -1.8985 H   0  0  0  0  0  0  0  0  0  0  0  0
  1  2  1  0
  2  3  2  0
  3  4  1  0
  4  5  2  0
  5  6  1  0
  6  7  1  0
  7  8  2  0
  7  9  2  0
  7 10  1  0
 10 11  2  0
 11 12  1  0
 12 13  2  0
 13 14  1  0
 14 15  1  0
 15 16  1  0
 16 17  2  0
 17 18  1  0
 18 19  1  0
 19 20  2  0
 19 21  1  0
 21 22  1  0
 22 23  1  0
 23 24  1  0
 24 25  1  0
 25 26  1  0
 13 27  1  0
  5 28  1  0
 28 29  2  0
 29  2  1  0
 27 10  1  0
 18 14  2  0
 26 21  1  0
  1 30  1  0
  1 31  1  0
  1 32  1  0
  3 33  1  0
  4 34  1  0
  6 35  1  0
 11 36  1  0
 12 37  1  0
 15 38  1  0
 17 39  1  0
 22 40  1  0
 22 41  1  0
 23 42  1  0
 23 43  1  0
 25 44  1  0
 25 45  1  0
 26 46  1  0
 26 47  1  0
 28 48  1  0
 29 49  1  0
M  END
$$$$
