
     RDKit          3D

 55 58  0  0  0  0  0  0  0  0999 V2000
   -5.0637   -1.8369   -0.5459 C   0  0  0  0  0  0  0  0  0  0  0  0
   -4.8324   -0.4119   -0.1129 C   0  0  0  0  0  0  0  0  0  0  0  0
   -5.6068    0.1295    0.6763 O   0  0  0  0  0  0  0  0  0  0  0  0
   -3.5930    0.2916   -0.6622 C   0  0  1  0  0  0  0  0  0  0  0  0
   -3.6367    1.8313   -0.4837 C   0  0  0  0  0  0  0  0  0  0  0  0
   -2.1971    2.2826   -0.1903 C   0  0  0  0  0  0  0  0  0  0  0  0
   -1.3608    1.0489   -0.5023 C   0  0  1  0  0  0  0  0  0  0  0  0
    0.0758    0.9792    0.0292 C   0  0  2  0  0  0  0  0  0  0  0  0
    0.8997    2.1940   -0.4201 C   0  0  0  0  0  0  0  0  0  0  0  0
    2.3648    2.0861   -0.0074 C   0  0  0  0  0  0  0  0  0  0  0  0
    2.9888    0.7798   -0.5108 C   0  0  1  0  0  0  0  0  0  0  0  0
    4.4896    0.7409   -0.2097 C   0  0  0  0  0  0  0  0  0  0  0  0
    5.0989   -0.5299   -0.7551 C   0  0  0  0  0  0  0  0  0  0  0  0
    6.1761   -0.5202   -1.3502 O   0  0  0  0  0  0  0  0  0  0  0  0
    4.3956   -1.8247   -0.4249 C   0  0  0  0  0  0  0  0  0  0  0  0
    2.8908   -1.7241   -0.6645 C   0  0  0  0  0  0  0  0  0  0  0  0
    2.2252   -0.4851    0.0012 C   0  0  1  0  0  0  0  0  0  0  0  0
    2.3180   -0.6387    1.5397 C   0  0  0  0  0  0  0  0  0  0  0  0
    0.7252   -0.3536   -0.4616 C   0  0  1  0  0  0  0  0  0  0  0  0
   -0.1595   -1.5822   -0.1276 C   0  0  0  0  0  0  0  0  0  0  0  0
   -1.6273   -1.4187   -0.5631 C   0  0  0  0  0  0  0  0  0  0  0  0
   -2.2467   -0.1226   -0.0186 C   0  0  2  0  0  0  0  0  0  0  0  0
   -2.3848   -0.2126    1.5225 C   0  0  0  0  0  0  0  0  0  0  0  0
   -6.1288   -2.0718   -0.4649 H   0  0  0  0  0  0  0  0  0  0  0  0
   -4.7669   -1.9675   -1.5895 H   0  0  0  0  0  0  0  0  0  0  0  0
   -4.4956   -2.5140    0.0947 H   0  0  0  0  0  0  0  0  0  0  0  0
   -3.5708    0.0924   -1.7430 H   0  0  0  0  0  0  0  0  0  0  0  0
   -4.2994    2.1603    0.3233 H   0  0  0  0  0  0  0  0  0  0  0  0
   -4.0033    2.2984   -1.4054 H   0  0  0  0  0  0  0  0  0  0  0  0
   -1.9167    3.1405   -0.8099 H   0  0  0  0  0  0  0  0  0  0  0  0
   -2.0941    2.5834    0.8582 H   0  0  0  0  0  0  0  0  0  0  0  0
   -1.2923    0.9986   -1.6022 H   0  0  0  0  0  0  0  0  0  0  0  0
    0.0485    0.9955    1.1234 H   0  0  0  0  0  0  0  0  0  0  0  0
    0.4809    3.1126    0.0070 H   0  0  0  0  0  0  0  0  0  0  0  0
    0.8416    2.2992   -1.5111 H   0  0  0  0  0  0  0  0  0  0  0  0
    2.9101    2.9426   -0.4225 H   0  0  0  0  0  0  0  0  0  0  0  0
    2.4522    2.1630    1.0826 H   0  0  0  0  0  0  0  0  0  0  0  0
    2.8963    0.7888   -1.6086 H   0  0  0  0  0  0  0  0  0  0  0  0
    4.7022    0.8015    0.8620 H   0  0  0  0  0  0  0  0  0  0  0  0
    4.9857    1.5912   -0.6924 H   0  0  0  0  0  0  0  0  0  0  0  0
    4.6183   -2.0799    0.6159 H   0  0  0  0  0  0  0  0  0  0  0  0
    4.8095   -2.6199   -1.0551 H   0  0  0  0  0  0  0  0  0  0  0  0
    2.4290   -2.6512   -0.3059 H   0  0  0  0  0  0  0  0  0  0  0  0
    2.7147   -1.6860   -1.7480 H   0  0  0  0  0  0  0  0  0  0  0  0
    1.8136    0.1700    2.0743 H   0  0  0  0  0  0  0  0  0  0  0  0
    1.8692   -1.5805    1.8721 H   0  0  0  0  0  0  0  0  0  0  0  0
    3.3519   -0.6493    1.8960 H   0  0  0  0  0  0  0  0  0  0  0  0
    0.7449   -0.3010   -1.5620 H   0  0  0  0  0  0  0  0  0  0  0  0
    0.2350   -2.4726   -0.6294 H   0  0  0  0  0  0  0  0  0  0  0  0
   -0.1293   -1.7953    0.9452 H   0  0  0  0  0  0  0  0  0  0  0  0
   -2.1948   -2.2936   -0.2286 H   0  0  0  0  0  0  0  0  0  0  0  0
   -1.6696   -1.4233   -1.6600 H   0  0  0  0  0  0  0  0  0  0  0  0
   -1.4222   -0.3191    2.0292 H   0  0  0  0  0  0  0  0  0  0  0  0
   -2.9858   -1.0840    1.8067 H   0  0  0  0  0  0  0  0  0  0  0  0
   -2.8737    0.6685    1.9502 H   0  0  0  0  0  0  0  0  0  0  0  0
  1  2  1  0
  2  3  2  0
  2  4  1  0
  4  5  1  0
  5  6  1  0
  6  7  1  0
  7  8  1  0
  8  9  1  0
  9 10  1  0
 10 11  1  0
 11 12  1  0
 12 13  1  0
 13 14  2  0
 13 15  1  0
 15 16  1  0
 16 17  1  0
 17 18  1  1
 17 19  1  0
 19 20  1  0
 20 21  1  0
 21 22  1  0
 22 23  1  1
 22  4  1  0
 22  7  1  0
 19  8  1  0
 17 11  1  0
  1 24  1  0
  1 25  1  0
  1 26  1  0
  4 27  1  6
  5 28  1  0
  5 29  1  0
  6 30  1  0
  6 31  1  0
  7 32  1  6
  8 33  1  1
  9 34  1  0
  9 35  1  0
 10 36  1  0
 10 37  1  0
 11 38  1  6
 12 39  1  0
 12 40  1  0
 15 41  1  0
 15 42  1  0
 16 43  1  0
 16 44  1  0
 18 45  1  0
 18 46  1  0
 18 47  1  0
 19 48  1  6
 20 49  1  0
 20 50  1  0
 21 51  1  0
 21 52  1  0
 23 53  1  0
 23 54  1  0
 23 55  1  0
M  END
$$$$
