
     RDKit          3D

 84 87  0  0  0  0  0  0  0  0999 V2000
    4.7328   -1.8101   -3.5911 C   0  0  0  0  0  0  0  0  0  0  0  0
    5.4443   -1.1955   -2.5204 O   0  0  0  0  0  0  0  0  0  0  0  0
    5.0439   -1.5824   -1.2695 C   0  0  0  0  0  0  0  0  0  0  0  0
    4.7091   -2.9008   -0.9483 C   0  0  0  0  0  0  0  0  0  0  0  0
    4.3370   -3.2589    0.3630 C   0  0  0  0  0  0  0  0  0  0  0  0
    3.9978   -4.6981    0.6496 C   0  0  0  0  0  0  0  0  0  0  0  0
    4.2861   -2.2653    1.3625 C   0  0  0  0  0  0  0  0  0  0  0  0
    3.8392   -2.6342    3.0555 S   0  0  0  0  0  0  0  0  0  0  0  0
    2.1808   -2.0538    3.1011 C   0  0  0  0  0  0  0  0  0  0  0  0
    1.5443   -1.5656    4.2269 C   0  0  0  0  0  0  0  0  0  0  0  0
    0.2183   -1.2075    4.0669 N   0  0  0  0  0  0  0  0  0  0  0  0
   -0.1374   -1.4266    2.8225 C   0  0  0  0  0  0  0  0  0  0  0  0
   -1.4201   -1.1747    2.4105 N   0  0  0  0  0  0  0  0  0  0  0  0
   -1.9219   -1.2883    1.1351 C   0  0  0  0  0  0  0  0  0  0  0  0
   -1.3133   -1.5794    0.1140 O   0  0  0  0  0  0  0  0  0  0  0  0
   -3.3747   -0.9775    1.0241 C   0  0  0  0  0  0  0  0  0  0  0  0
   -3.8269   -0.2703   -0.0941 C   0  0  0  0  0  0  0  0  0  0  0  0
   -5.1821    0.0441   -0.2204 C   0  0  0  0  0  0  0  0  0  0  0  0
   -6.1080   -0.3658    0.7531 C   0  0  0  0  0  0  0  0  0  0  0  0
   -7.5744   -0.0032    0.6273 C   0  0  0  0  0  0  0  0  0  0  0  0
   -8.0946   -0.3567   -0.6925 N   0  0  0  0  0  0  0  0  0  0  0  0
   -9.4535    0.1130   -1.0178 C   0  0  0  0  0  0  0  0  0  0  0  0
  -10.4226    0.0576    0.1733 C   0  0  0  0  0  0  0  0  0  0  0  0
   -9.4598    1.4751   -1.8093 C   0  0  0  0  0  0  0  0  0  0  0  0
  -10.8989    1.8380   -2.2395 C   0  0  0  0  0  0  0  0  0  0  0  0
   -8.6139    1.3345   -3.0969 C   0  0  0  0  0  0  0  0  0  0  0  0
   -8.8988    2.6572   -0.9986 C   0  0  0  0  0  0  0  0  0  0  0  0
   -5.6457   -1.0854    1.8655 C   0  0  0  0  0  0  0  0  0  0  0  0
   -4.2884   -1.3955    1.9998 C   0  0  0  0  0  0  0  0  0  0  0  0
    1.0620   -2.0718    1.8033 S   0  0  0  0  0  0  0  0  0  0  0  0
    4.6500   -0.9506    1.0478 C   0  0  0  0  0  0  0  0  0  0  0  0
    5.0444   -0.6239   -0.2538 C   0  0  0  0  0  0  0  0  0  0  0  0
    5.4168    0.7766   -0.5248 C   0  0  0  0  0  0  0  0  0  0  0  0
    4.5109    1.5884   -0.6921 O   0  0  0  0  0  0  0  0  0  0  0  0
    6.7657    1.1123   -0.5078 N   0  0  0  0  0  0  0  0  0  0  0  0
    7.1481    2.5063   -0.7294 C   0  0  0  0  0  0  0  0  0  0  0  0
    8.3506    2.9207    0.1279 C   0  0  0  0  0  0  0  0  0  0  0  0
    9.4976    2.0130   -0.0043 N   0  0  0  0  0  0  0  0  0  0  0  0
   10.7866    2.3249    0.3929 C   0  0  0  0  0  0  0  0  0  0  0  0
   10.9894    3.6592    1.0639 C   0  0  0  0  0  0  0  0  0  0  0  0
   11.7396    1.5663    0.2152 O   0  0  0  0  0  0  0  0  0  0  0  0
    9.2395    0.7130   -0.6298 C   0  0  0  0  0  0  0  0  0  0  0  0
    7.8557    0.1546   -0.2718 C   0  0  0  0  0  0  0  0  0  0  0  0
    4.8912   -1.2053   -4.4888 H   0  0  0  0  0  0  0  0  0  0  0  0
    3.6548   -1.8459   -3.3972 H   0  0  0  0  0  0  0  0  0  0  0  0
    5.1286   -2.8106   -3.7904 H   0  0  0  0  0  0  0  0  0  0  0  0
    4.7504   -3.6733   -1.7107 H   0  0  0  0  0  0  0  0  0  0  0  0
    4.1327   -5.3265   -0.2377 H   0  0  0  0  0  0  0  0  0  0  0  0
    2.9524   -4.7922    0.9611 H   0  0  0  0  0  0  0  0  0  0  0  0
    4.6544   -5.0981    1.4297 H   0  0  0  0  0  0  0  0  0  0  0  0
    2.0027   -1.4568    5.2034 H   0  0  0  0  0  0  0  0  0  0  0  0
   -2.0001   -0.8034    3.1495 H   0  0  0  0  0  0  0  0  0  0  0  0
   -3.1267    0.0413   -0.8665 H   0  0  0  0  0  0  0  0  0  0  0  0
   -5.5229    0.6018   -1.0922 H   0  0  0  0  0  0  0  0  0  0  0  0
   -7.6656    1.0663    0.8374 H   0  0  0  0  0  0  0  0  0  0  0  0
   -8.1386   -0.5367    1.4012 H   0  0  0  0  0  0  0  0  0  0  0  0
   -8.0599   -1.3730   -0.7768 H   0  0  0  0  0  0  0  0  0  0  0  0
   -9.8374   -0.6330   -1.7294 H   0  0  0  0  0  0  0  0  0  0  0  0
  -10.3811   -0.9236    0.6602 H   0  0  0  0  0  0  0  0  0  0  0  0
  -11.4584    0.1946   -0.1528 H   0  0  0  0  0  0  0  0  0  0  0  0
  -10.2048    0.8213    0.9251 H   0  0  0  0  0  0  0  0  0  0  0  0
  -11.5242    2.0990   -1.3800 H   0  0  0  0  0  0  0  0  0  0  0  0
  -11.3766    1.0066   -2.7700 H   0  0  0  0  0  0  0  0  0  0  0  0
  -10.9045    2.7045   -2.9107 H   0  0  0  0  0  0  0  0  0  0  0  0
   -8.9838    0.5162   -3.7247 H   0  0  0  0  0  0  0  0  0  0  0  0
   -8.6485    2.2527   -3.6947 H   0  0  0  0  0  0  0  0  0  0  0  0
   -7.5609    1.1374   -2.8713 H   0  0  0  0  0  0  0  0  0  0  0  0
   -7.8291    2.5434   -0.7989 H   0  0  0  0  0  0  0  0  0  0  0  0
   -9.0155    3.5980   -1.5491 H   0  0  0  0  0  0  0  0  0  0  0  0
   -9.4184    2.7764   -0.0429 H   0  0  0  0  0  0  0  0  0  0  0  0
   -6.3434   -1.4175    2.6319 H   0  0  0  0  0  0  0  0  0  0  0  0
   -3.9662   -1.9839    2.8551 H   0  0  0  0  0  0  0  0  0  0  0  0
    4.6290   -0.1718    1.8070 H   0  0  0  0  0  0  0  0  0  0  0  0
    7.3996    2.5956   -1.7929 H   0  0  0  0  0  0  0  0  0  0  0  0
    6.3050    3.1771   -0.5330 H   0  0  0  0  0  0  0  0  0  0  0  0
    8.6571    3.9382   -0.1328 H   0  0  0  0  0  0  0  0  0  0  0  0
    8.0681    2.9145    1.1871 H   0  0  0  0  0  0  0  0  0  0  0  0
   12.0086    3.7140    1.4570 H   0  0  0  0  0  0  0  0  0  0  0  0
   10.2986    3.7769    1.9023 H   0  0  0  0  0  0  0  0  0  0  0  0
   10.8553    4.4667    0.3392 H   0  0  0  0  0  0  0  0  0  0  0  0
    9.3108    0.8685   -1.7136 H   0  0  0  0  0  0  0  0  0  0  0  0
   10.0133   -0.0106   -0.3511 H   0  0  0  0  0  0  0  0  0  0  0  0
    7.6748   -0.7627   -0.8392 H   0  0  0  0  0  0  0  0  0  0  0  0
    7.8240   -0.0986    0.7953 H   0  0  0  0  0  0  0  0  0  0  0  0
  1  2  1  0
  2  3  1  0
  3  4  2  0
  4  5  1  0
  5  6  1  0
  5  7  2  0
  7  8  1  0
  8  9  1  0
  9 10  2  0
 10 11  1  0
 11 12  2  0
 12 13  1  0
 13 14  1  0
 14 15  2  0
 14 16  1  0
 16 17  2  0
 17 18  1  0
 18 19  2  0
 19 20  1  0
 20 21  1  0
 21 22  1  0
 22 23  1  0
 22 24  1  0
 24 25  1  0
 24 26  1  0
 24 27  1  0
 19 28  1  0
 28 29  2  0
 12 30  1  0
  7 31  1  0
 31 32  2  0
 32 33  1  0
 33 34  2  0
 33 35  1  0
 35 36  1  0
 36 37  1  0
 37 38  1  0
 38 39  1  0
 39 40  1  0
 39 41  2  0
 38 42  1  0
 42 43  1  0
 32  3  1  0
 43 35  1  0
 30  9  1  0
 29 16  1  0
  1 44  1  0
  1 45  1  0
  1 46  1  0
  4 47  1  0
  6 48  1  0
  6 49  1  0
  6 50  1  0
 10 51  1  0
 13 52  1  0
 17 53  1  0
 18 54  1  0
 20 55  1  0
 20 56  1  0
 21 57  1  0
 22 58  1  0
 23 59  1  0
 23 60  1  0
 23 61  1  0
 25 62  1  0
 25 63  1  0
 25 64  1  0
 26 65  1  0
 26 66  1  0
 26 67  1  0
 27 68  1  0
 27 69  1  0
 27 70  1  0
 28 71  1  0
 29 72  1  0
 31 73  1  0
 36 74  1  0
 36 75  1  0
 37 76  1  0
 37 77  1  0
 40 78  1  0
 40 79  1  0
 40 80  1  0
 42 81  1  0
 42 82  1  0
 43 83  1  0
 43 84  1  0
M  END
$$$$
