
     RDKit          3D

 34 35  0  0  0  0  0  0  0  0999 V2000
   -3.6601    2.2642   -0.3043 C   0  0  0  0  0  0  0  0  0  0  0  0
   -3.9164    0.8921   -0.8990 C   0  0  0  0  0  0  0  0  0  0  0  0
   -3.1597   -0.1025   -0.1949 O   0  0  0  0  0  0  0  0  0  0  0  0
   -1.8776   -0.2898   -0.6192 C   0  0  0  0  0  0  0  0  0  0  0  0
   -1.3618    0.3176   -1.5479 O   0  0  0  0  0  0  0  0  0  0  0  0
   -1.2435   -1.3051    0.1833 C   0  0  0  0  0  0  0  0  0  0  0  0
   -1.8005   -2.1070    1.1653 C   0  0  0  0  0  0  0  0  0  0  0  0
   -0.8829   -2.9631    1.7062 N   0  0  0  0  0  0  0  0  0  0  0  0
    0.2384   -2.6928    1.0837 C   0  0  0  0  0  0  0  0  0  0  0  0
    0.0846   -1.7006    0.1496 N   0  0  0  0  0  0  0  0  0  0  0  0
    1.1502   -1.1624   -0.7023 C   0  0  2  0  0  0  0  0  0  0  0  0
    2.1960   -2.2041   -1.1280 C   0  0  0  0  0  0  0  0  0  0  0  0
    1.7940    0.0541   -0.0529 C   0  0  0  0  0  0  0  0  0  0  0  0
    2.5501   -0.0455    1.1271 C   0  0  0  0  0  0  0  0  0  0  0  0
    3.1308    1.0876    1.7012 C   0  0  0  0  0  0  0  0  0  0  0  0
    2.9660    2.3356    1.1060 C   0  0  0  0  0  0  0  0  0  0  0  0
    2.2197    2.4527   -0.0633 C   0  0  0  0  0  0  0  0  0  0  0  0
    1.6385    1.3213   -0.6390 C   0  0  0  0  0  0  0  0  0  0  0  0
   -4.2781    3.0212   -0.7952 H   0  0  0  0  0  0  0  0  0  0  0  0
   -3.8836    2.2662    0.7677 H   0  0  0  0  0  0  0  0  0  0  0  0
   -2.6086    2.5492   -0.4105 H   0  0  0  0  0  0  0  0  0  0  0  0
   -3.6990    0.8722   -1.9731 H   0  0  0  0  0  0  0  0  0  0  0  0
   -4.9735    0.6322   -0.7810 H   0  0  0  0  0  0  0  0  0  0  0  0
   -2.8289   -2.1090    1.5062 H   0  0  0  0  0  0  0  0  0  0  0  0
    1.1827   -3.1844    1.2778 H   0  0  0  0  0  0  0  0  0  0  0  0
    0.6632   -0.8625   -1.6361 H   0  0  0  0  0  0  0  0  0  0  0  0
    2.8972   -1.7701   -1.8501 H   0  0  0  0  0  0  0  0  0  0  0  0
    2.7892   -2.5770   -0.2865 H   0  0  0  0  0  0  0  0  0  0  0  0
    1.7141   -3.0657   -1.6035 H   0  0  0  0  0  0  0  0  0  0  0  0
    2.6931   -1.0045    1.6195 H   0  0  0  0  0  0  0  0  0  0  0  0
    3.7096    0.9958    2.6169 H   0  0  0  0  0  0  0  0  0  0  0  0
    3.4161    3.2169    1.5551 H   0  0  0  0  0  0  0  0  0  0  0  0
    2.0859    3.4263   -0.5281 H   0  0  0  0  0  0  0  0  0  0  0  0
    1.0548    1.4407   -1.5507 H   0  0  0  0  0  0  0  0  0  0  0  0
  1  2  1  0
  2  3  1  0
  3  4  1  0
  4  5  2  0
  4  6  1  0
  6  7  2  0
  7  8  1  0
  8  9  2  0
  9 10  1  0
 10 11  1  0
 11 12  1  0
 11 13  1  0
 13 14  2  0
 14 15  1  0
 15 16  2  0
 16 17  1  0
 17 18  2  0
 10  6  1  0
 18 13  1  0
  1 19  1  0
  1 20  1  0
  1 21  1  0
  2 22  1  0
  2 23  1  0
  7 24  1  0
  9 25  1  0
 11 26  1  6
 12 27  1  0
 12 28  1  0
 12 29  1  0
 14 30  1  0
 15 31  1  0
 16 32  1  0
 17 33  1  0
 18 34  1  0
M  END
$$$$
