
     RDKit          3D

 44 45  0  0  0  0  0  0  0  0999 V2000
   -2.4590    1.3353   -3.5597 C   0  0  0  0  0  0  0  0  0  0  0  0
   -2.2281    1.1135   -2.0615 C   0  0  0  0  0  0  0  0  0  0  0  0
   -3.1743    2.0058   -1.2607 C   0  0  0  0  0  0  0  0  0  0  0  0
   -2.3727   -0.3886   -1.7318 C   0  0  0  0  0  0  0  0  0  0  0  0
   -2.0740   -0.7615   -0.2591 C   0  0  0  0  0  0  0  0  0  0  0  0
   -3.3511   -0.8719    0.5866 C   0  0  0  0  0  0  0  0  0  0  0  0
   -1.2474   -2.0433   -0.1729 C   0  0  0  0  0  0  0  0  0  0  0  0
   -1.9533   -3.5316   -0.6928 S   0  0  0  0  0  0  0  0  0  0  0  0
   -0.5461   -4.4108   -0.3315 C   0  0  0  0  0  0  0  0  0  0  0  0
    0.4486   -3.6029    0.1662 C   0  0  0  0  0  0  0  0  0  0  0  0
    0.0617   -2.2288    0.2653 C   0  0  0  0  0  0  0  0  0  0  0  0
    0.8573   -1.1741    0.7202 N   0  0  0  0  0  0  0  0  0  0  0  0
    2.1386   -1.2965    1.2274 C   0  0  0  0  0  0  0  0  0  0  0  0
    2.7253   -2.3531    1.4319 O   0  0  0  0  0  0  0  0  0  0  0  0
    2.7836   -0.0327    1.5793 C   0  0  0  0  0  0  0  0  0  0  0  0
    3.7297    0.1033    2.5802 C   0  0  0  0  0  0  0  0  0  0  0  0
    4.1032    1.4086    2.5960 N   0  0  0  0  0  0  0  0  0  0  0  0
    5.0670    2.0274    3.4749 C   0  0  0  0  0  0  0  0  0  0  0  0
    3.4802    2.1517    1.6679 N   0  0  0  0  0  0  0  0  0  0  0  0
    2.6901    1.2772    1.0103 C   0  0  0  0  0  0  0  0  0  0  0  0
    1.8562    1.6838   -0.1708 C   0  0  0  0  0  0  0  0  0  0  0  0
    0.5364    1.4427    0.0789 F   0  0  0  0  0  0  0  0  0  0  0  0
    1.9542    2.9948   -0.5052 F   0  0  0  0  0  0  0  0  0  0  0  0
    2.1659    0.9646   -1.2812 F   0  0  0  0  0  0  0  0  0  0  0  0
   -1.7574    0.7411   -4.1548 H   0  0  0  0  0  0  0  0  0  0  0  0
   -2.3106    2.3873   -3.8258 H   0  0  0  0  0  0  0  0  0  0  0  0
   -3.4762    1.0520   -3.8509 H   0  0  0  0  0  0  0  0  0  0  0  0
   -1.1988    1.4202   -1.8376 H   0  0  0  0  0  0  0  0  0  0  0  0
   -3.1051    3.0465   -1.5962 H   0  0  0  0  0  0  0  0  0  0  0  0
   -4.2150    1.6841   -1.3733 H   0  0  0  0  0  0  0  0  0  0  0  0
   -2.9211    1.9969   -0.1965 H   0  0  0  0  0  0  0  0  0  0  0  0
   -1.6773   -0.9235   -2.3936 H   0  0  0  0  0  0  0  0  0  0  0  0
   -3.3778   -0.7319   -2.0107 H   0  0  0  0  0  0  0  0  0  0  0  0
   -1.4856    0.0468    0.1850 H   0  0  0  0  0  0  0  0  0  0  0  0
   -4.0538   -1.6059    0.1777 H   0  0  0  0  0  0  0  0  0  0  0  0
   -3.8787    0.0839    0.6408 H   0  0  0  0  0  0  0  0  0  0  0  0
   -3.1137   -1.1749    1.6129 H   0  0  0  0  0  0  0  0  0  0  0  0
   -0.5045   -5.4778   -0.5019 H   0  0  0  0  0  0  0  0  0  0  0  0
    1.4161   -4.0046    0.4402 H   0  0  0  0  0  0  0  0  0  0  0  0
    0.4165   -0.2649    0.7300 H   0  0  0  0  0  0  0  0  0  0  0  0
    4.1488   -0.6257    3.2620 H   0  0  0  0  0  0  0  0  0  0  0  0
    5.4593    1.2796    4.1683 H   0  0  0  0  0  0  0  0  0  0  0  0
    5.8775    2.4338    2.8649 H   0  0  0  0  0  0  0  0  0  0  0  0
    4.5651    2.8241    4.0296 H   0  0  0  0  0  0  0  0  0  0  0  0
  1  2  1  0
  2  3  1  0
  2  4  1  0
  4  5  1  0
  5  6  1  0
  5  7  1  0
  7  8  1  0
  8  9  1  0
  9 10  2  0
 10 11  1  0
 11 12  1  0
 12 13  1  0
 13 14  2  0
 13 15  1  0
 15 16  2  0
 16 17  1  0
 17 18  1  0
 17 19  1  0
 19 20  2  0
 20 21  1  0
 21 22  1  0
 21 23  1  0
 21 24  1  0
 11  7  2  0
 20 15  1  0
  1 25  1  0
  1 26  1  0
  1 27  1  0
  2 28  1  0
  3 29  1  0
  3 30  1  0
  3 31  1  0
  4 32  1  0
  4 33  1  0
  5 34  1  0
  6 35  1  0
  6 36  1  0
  6 37  1  0
  9 38  1  0
 10 39  1  0
 12 40  1  0
 16 41  1  0
 18 42  1  0
 18 43  1  0
 18 44  1  0
M  END
$$$$
