
     RDKit          3D

 51 53  0  0  0  0  0  0  0  0999 V2000
    6.4985    0.3003   -1.3970 C   0  0  0  0  0  0  0  0  0  0  0  0
    6.0676   -0.3574   -0.0949 C   0  0  0  0  0  0  0  0  0  0  0  0
    5.1596    0.5321    0.7583 C   0  0  0  0  0  0  0  0  0  0  0  0
    3.8628    0.7983    0.1352 N   0  0  0  0  0  0  0  0  0  0  0  0
    3.6609    2.1317   -0.4147 C   0  0  0  0  0  0  0  0  0  0  0  0
    2.8711   -0.1740    0.2411 C   0  0  0  0  0  0  0  0  0  0  0  0
    3.0781   -1.2637    0.7783 O   0  0  0  0  0  0  0  0  0  0  0  0
    1.5150    0.1603   -0.3490 C   0  0  0  0  0  0  0  0  0  0  0  0
    0.4972   -0.9375   -0.0486 C   0  0  0  0  0  0  0  0  0  0  0  0
   -0.7930   -0.6157   -0.6895 N   0  0  0  0  0  0  0  0  0  0  0  0
   -1.8879   -1.3651   -0.3288 C   0  0  0  0  0  0  0  0  0  0  0  0
   -3.1234   -0.9985    0.2043 C   0  0  0  0  0  0  0  0  0  0  0  0
   -3.5742    0.3565    0.4647 C   0  0  0  0  0  0  0  0  0  0  0  0
   -4.1548    0.6693    1.6974 C   0  0  0  0  0  0  0  0  0  0  0  0
   -4.5978    1.9681    1.9622 C   0  0  0  0  0  0  0  0  0  0  0  0
   -4.4682    2.9734    0.9966 C   0  0  0  0  0  0  0  0  0  0  0  0
   -4.9818    4.3556    1.2710 C   0  0  0  0  0  0  0  0  0  0  0  0
   -3.9172    2.6530   -0.2483 C   0  0  0  0  0  0  0  0  0  0  0  0
   -3.4724    1.3545   -0.5120 C   0  0  0  0  0  0  0  0  0  0  0  0
   -3.8819   -2.1015    0.5365 N   0  0  0  0  0  0  0  0  0  0  0  0
   -3.1656   -3.1172    0.1165 C   0  0  0  0  0  0  0  0  0  0  0  0
   -3.4956   -4.5144    0.1625 C   0  0  0  0  0  0  0  0  0  0  0  0
   -2.7158   -5.4273   -0.3554 N   0  0  0  0  0  0  0  0  0  0  0  0
   -1.5532   -4.9934   -0.9692 C   0  0  0  0  0  0  0  0  0  0  0  0
   -1.1687   -3.7063   -1.0360 C   0  0  0  0  0  0  0  0  0  0  0  0
   -1.9787   -2.7410   -0.4596 N   0  0  0  0  0  0  0  0  0  0  0  0
    7.2065   -0.3433   -1.9294 H   0  0  0  0  0  0  0  0  0  0  0  0
    5.6436    0.4701   -2.0585 H   0  0  0  0  0  0  0  0  0  0  0  0
    6.9893    1.2594   -1.2090 H   0  0  0  0  0  0  0  0  0  0  0  0
    6.9648   -0.5977    0.4867 H   0  0  0  0  0  0  0  0  0  0  0  0
    5.5709   -1.3067   -0.3205 H   0  0  0  0  0  0  0  0  0  0  0  0
    5.6534    1.4853    0.9827 H   0  0  0  0  0  0  0  0  0  0  0  0
    4.9830    0.0348    1.7196 H   0  0  0  0  0  0  0  0  0  0  0  0
    2.8118    2.1729   -1.0981 H   0  0  0  0  0  0  0  0  0  0  0  0
    4.5539    2.4409   -0.9645 H   0  0  0  0  0  0  0  0  0  0  0  0
    3.4882    2.8222    0.4156 H   0  0  0  0  0  0  0  0  0  0  0  0
    1.6234    0.2723   -1.4345 H   0  0  0  0  0  0  0  0  0  0  0  0
    1.1611    1.1078    0.0735 H   0  0  0  0  0  0  0  0  0  0  0  0
    0.8759   -1.8926   -0.4171 H   0  0  0  0  0  0  0  0  0  0  0  0
    0.3617   -1.0267    1.0351 H   0  0  0  0  0  0  0  0  0  0  0  0
   -0.9634    0.3883   -0.6013 H   0  0  0  0  0  0  0  0  0  0  0  0
   -4.2679   -0.1022    2.4563 H   0  0  0  0  0  0  0  0  0  0  0  0
   -5.0520    2.1864    2.9255 H   0  0  0  0  0  0  0  0  0  0  0  0
   -4.4716    5.0966    0.6472 H   0  0  0  0  0  0  0  0  0  0  0  0
   -6.0549    4.4030    1.0667 H   0  0  0  0  0  0  0  0  0  0  0  0
   -4.8053    4.6339    2.3144 H   0  0  0  0  0  0  0  0  0  0  0  0
   -3.8411    3.4087   -1.0265 H   0  0  0  0  0  0  0  0  0  0  0  0
   -3.0697    1.1222   -1.4947 H   0  0  0  0  0  0  0  0  0  0  0  0
   -4.4344   -4.8187    0.6506 H   0  0  0  0  0  0  0  0  0  0  0  0
   -0.9405   -5.7717   -1.4172 H   0  0  0  0  0  0  0  0  0  0  0  0
   -0.2671   -3.3856   -1.5347 H   0  0  0  0  0  0  0  0  0  0  0  0
  1  2  1  0
  2  3  1  0
  3  4  1  0
  4  5  1  0
  4  6  1  0
  6  7  2  0
  6  8  1  0
  8  9  1  0
  9 10  1  0
 10 11  1  0
 11 12  2  0
 12 13  1  0
 13 14  2  0
 14 15  1  0
 15 16  2  0
 16 17  1  0
 16 18  1  0
 18 19  2  0
 12 20  1  0
 20 21  2  0
 21 22  1  0
 22 23  2  0
 23 24  1  0
 24 25  2  0
 25 26  1  0
 26 11  1  0
 19 13  1  0
 26 21  1  0
  1 27  1  0
  1 28  1  0
  1 29  1  0
  2 30  1  0
  2 31  1  0
  3 32  1  0
  3 33  1  0
  5 34  1  0
  5 35  1  0
  5 36  1  0
  8 37  1  0
  8 38  1  0
  9 39  1  0
  9 40  1  0
 10 41  1  0
 14 42  1  0
 15 43  1  0
 17 44  1  0
 17 45  1  0
 17 46  1  0
 18 47  1  0
 19 48  1  0
 22 49  1  0
 24 50  1  0
 25 51  1  0
M  END
$$$$
