
     RDKit          3D

 54 57  0  0  0  0  0  0  0  0999 V2000
   -1.1304    4.8749   -1.3922 C   0  0  0  0  0  0  0  0  0  0  0  0
   -0.4943    3.5802   -0.9849 C   0  0  0  0  0  0  0  0  0  0  0  0
   -1.0381    2.8943    0.1650 C   0  0  0  0  0  0  0  0  0  0  0  0
   -0.5489    1.7156    0.5920 C   0  0  0  0  0  0  0  0  0  0  0  0
   -1.0750    0.9258    1.7728 C   0  0  1  0  0  0  0  0  0  0  0  0
   -1.8042    1.7094    2.8701 C   0  0  0  0  0  0  0  0  0  0  0  0
   -1.8442   -0.2625    1.3480 N   0  0  0  0  0  0  0  0  0  0  0  0
   -2.7839   -0.2509    0.3003 C   0  0  0  0  0  0  0  0  0  0  0  0
   -3.7976    0.7226    0.2525 C   0  0  0  0  0  0  0  0  0  0  0  0
   -4.7826    0.7230   -0.7421 C   0  0  0  0  0  0  0  0  0  0  0  0
   -4.7970   -0.2740   -1.7099 C   0  0  0  0  0  0  0  0  0  0  0  0
   -3.8247   -1.2716   -1.6802 C   0  0  0  0  0  0  0  0  0  0  0  0
   -2.8258   -1.2770   -0.6850 C   0  0  0  0  0  0  0  0  0  0  0  0
   -1.8444   -2.4000   -0.7922 C   0  0  0  0  0  0  0  0  0  0  0  0
   -1.8828   -3.3077   -1.6073 O   0  0  0  0  0  0  0  0  0  0  0  0
   -0.8358   -2.3308    0.0931 O   0  0  0  0  0  0  0  0  0  0  0  0
    0.6465    1.1377   -0.1305 C   0  0  0  0  0  0  0  0  0  0  0  0
    1.1900    0.0427    0.3054 N   0  0  0  0  0  0  0  0  0  0  0  0
    2.2661   -0.5102   -0.3416 C   0  0  0  0  0  0  0  0  0  0  0  0
    2.8283   -1.6903    0.1678 N   0  0  0  0  0  0  0  0  0  0  0  0
    2.4783   -2.1744    1.5238 C   0  0  0  0  0  0  0  0  0  0  0  0
    3.7095   -2.7844    2.2128 C   0  0  0  0  0  0  0  0  0  0  0  0
    4.2669   -3.9067    1.5130 O   0  0  0  0  0  0  0  0  0  0  0  0
    4.0155   -3.8741    0.1011 C   0  0  0  0  0  0  0  0  0  0  0  0
    3.9184   -2.4521   -0.4768 C   0  0  0  0  0  0  0  0  0  0  0  0
    2.7634    0.0807   -1.4402 C   0  0  0  0  0  0  0  0  0  0  0  0
    2.1854    1.3319   -1.9480 C   0  0  0  0  0  0  0  0  0  0  0  0
    2.6928    1.8524   -2.9431 O   0  0  0  0  0  0  0  0  0  0  0  0
    1.1094    1.8311   -1.2393 N   0  0  0  0  0  0  0  0  0  0  0  0
    0.5348    3.0288   -1.6419 C   0  0  0  0  0  0  0  0  0  0  0  0
   -1.0283    5.6197   -0.5965 H   0  0  0  0  0  0  0  0  0  0  0  0
   -0.6728    5.2864   -2.2959 H   0  0  0  0  0  0  0  0  0  0  0  0
   -2.1959    4.7319   -1.5974 H   0  0  0  0  0  0  0  0  0  0  0  0
   -1.8906    3.3547    0.6550 H   0  0  0  0  0  0  0  0  0  0  0  0
   -0.1998    0.5289    2.3058 H   0  0  0  0  0  0  0  0  0  0  0  0
   -2.1481    1.0346    3.6634 H   0  0  0  0  0  0  0  0  0  0  0  0
   -2.6743    2.2622    2.5147 H   0  0  0  0  0  0  0  0  0  0  0  0
   -1.1256    2.4381    3.3266 H   0  0  0  0  0  0  0  0  0  0  0  0
   -1.1592   -1.0077    1.1419 H   0  0  0  0  0  0  0  0  0  0  0  0
   -3.8642    1.4921    1.0126 H   0  0  0  0  0  0  0  0  0  0  0  0
   -5.5484    1.4962   -0.7440 H   0  0  0  0  0  0  0  0  0  0  0  0
   -5.5638   -0.2819   -2.4788 H   0  0  0  0  0  0  0  0  0  0  0  0
   -3.8468   -2.0552   -2.4392 H   0  0  0  0  0  0  0  0  0  0  0  0
   -0.2167   -3.0415   -0.1937 H   0  0  0  0  0  0  0  0  0  0  0  0
    1.6909   -2.9319    1.4269 H   0  0  0  0  0  0  0  0  0  0  0  0
    2.0985   -1.3637    2.1557 H   0  0  0  0  0  0  0  0  0  0  0  0
    4.5003   -2.0305    2.3151 H   0  0  0  0  0  0  0  0  0  0  0  0
    3.4487   -3.1276    3.2205 H   0  0  0  0  0  0  0  0  0  0  0  0
    4.8254   -4.4248   -0.3884 H   0  0  0  0  0  0  0  0  0  0  0  0
    3.0870   -4.4261   -0.0859 H   0  0  0  0  0  0  0  0  0  0  0  0
    3.7426   -2.5342   -1.5562 H   0  0  0  0  0  0  0  0  0  0  0  0
    4.8637   -1.9189   -0.3122 H   0  0  0  0  0  0  0  0  0  0  0  0
    3.6124   -0.2911   -1.9940 H   0  0  0  0  0  0  0  0  0  0  0  0
    0.9693    3.5059   -2.5184 H   0  0  0  0  0  0  0  0  0  0  0  0
  1  2  1  0
  2  3  1  0
  3  4  2  0
  4  5  1  0
  5  6  1  0
  5  7  1  0
  7  8  1  0
  8  9  2  0
  9 10  1  0
 10 11  2  0
 11 12  1  0
 12 13  2  0
 13 14  1  0
 14 15  2  0
 14 16  1  0
  4 17  1  0
 17 18  2  0
 18 19  1  0
 19 20  1  0
 20 21  1  0
 21 22  1  0
 22 23  1  0
 23 24  1  0
 24 25  1  0
 19 26  2  0
 26 27  1  0
 27 28  2  0
 27 29  1  0
 29 30  1  0
 30  2  2  0
 13  8  1  0
 29 17  1  0
 25 20  1  0
  1 31  1  0
  1 32  1  0
  1 33  1  0
  3 34  1  0
  5 35  1  1
  6 36  1  0
  6 37  1  0
  6 38  1  0
  7 39  1  0
  9 40  1  0
 10 41  1  0
 11 42  1  0
 12 43  1  0
 16 44  1  0
 21 45  1  0
 21 46  1  0
 22 47  1  0
 22 48  1  0
 24 49  1  0
 24 50  1  0
 25 51  1  0
 25 52  1  0
 26 53  1  0
 30 54  1  0
M  END
$$$$
