
     RDKit          3D

 41 44  0  0  0  0  0  0  0  0999 V2000
    2.7814   -2.2642    1.3107 O   0  0  0  0  0  0  0  0  0  0  0  0
    2.2109   -1.3955    0.6636 C   0  0  0  0  0  0  0  0  0  0  0  0
    2.7565   -0.5953   -0.3226 N   0  0  0  0  0  0  0  0  0  0  0  0
    4.1035   -0.5590   -0.7430 C   0  0  0  0  0  0  0  0  0  0  0  0
    4.4110    0.2678   -1.8320 C   0  0  0  0  0  0  0  0  0  0  0  0
    5.7214    0.3596   -2.3084 C   0  0  0  0  0  0  0  0  0  0  0  0
    6.7281   -0.3716   -1.6937 C   0  0  0  0  0  0  0  0  0  0  0  0
    7.9923   -0.2561   -2.1886 O   0  0  0  0  0  0  0  0  0  0  0  0
    6.4454   -1.1915   -0.6086 C   0  0  0  0  0  0  0  0  0  0  0  0
    5.1317   -1.2835   -0.1343 C   0  0  0  0  0  0  0  0  0  0  0  0
    0.7576   -1.1814    0.9194 C   0  0  0  0  0  0  0  0  0  0  0  0
   -0.0301   -2.3057    1.2771 C   0  0  0  0  0  0  0  0  0  0  0  0
   -1.3984   -2.1767    1.5450 C   0  0  0  0  0  0  0  0  0  0  0  0
   -1.9390   -0.9102    1.4545 C   0  0  0  0  0  0  0  0  0  0  0  0
   -1.1699    0.1904    1.1190 C   0  0  0  0  0  0  0  0  0  0  0  0
    0.1832    0.0960    0.8499 C   0  0  0  0  0  0  0  0  0  0  0  0
   -2.0441    1.3614    1.1344 C   0  0  0  0  0  0  0  0  0  0  0  0
   -1.6553    2.4908    0.9085 O   0  0  0  0  0  0  0  0  0  0  0  0
   -3.2907    0.9084    1.4603 N   0  0  0  0  0  0  0  0  0  0  0  0
   -4.4615    1.7507    1.5497 C   0  0  0  0  0  0  0  0  0  0  0  0
   -5.2214    1.6674    0.2743 C   0  0  0  0  0  0  0  0  0  0  0  0
   -6.1921    0.8048   -0.1946 C   0  0  0  0  0  0  0  0  0  0  0  0
   -6.5285    1.2516   -1.4949 C   0  0  0  0  0  0  0  0  0  0  0  0
   -5.7394    2.3512   -1.7383 C   0  0  0  0  0  0  0  0  0  0  0  0
   -4.9425    2.6113   -0.6703 O   0  0  0  0  0  0  0  0  0  0  0  0
   -3.3060   -0.4410    1.6780 C   0  0  0  0  0  0  0  0  0  0  0  0
   -4.2324   -1.1610    1.9975 O   0  0  0  0  0  0  0  0  0  0  0  0
    2.1237   -0.0133   -0.8557 H   0  0  0  0  0  0  0  0  0  0  0  0
    3.6397    0.8494   -2.3297 H   0  0  0  0  0  0  0  0  0  0  0  0
    5.9540    0.9987   -3.1553 H   0  0  0  0  0  0  0  0  0  0  0  0
    8.5826   -0.8200   -1.6616 H   0  0  0  0  0  0  0  0  0  0  0  0
    7.2237   -1.7664   -0.1162 H   0  0  0  0  0  0  0  0  0  0  0  0
    4.9463   -1.9285    0.7186 H   0  0  0  0  0  0  0  0  0  0  0  0
    0.4373   -3.2887    1.3474 H   0  0  0  0  0  0  0  0  0  0  0  0
   -2.0073   -3.0325    1.8183 H   0  0  0  0  0  0  0  0  0  0  0  0
    0.7586    0.9893    0.6295 H   0  0  0  0  0  0  0  0  0  0  0  0
   -4.1584    2.7840    1.7504 H   0  0  0  0  0  0  0  0  0  0  0  0
   -5.0873    1.4023    2.3786 H   0  0  0  0  0  0  0  0  0  0  0  0
   -6.5998   -0.0432    0.3400 H   0  0  0  0  0  0  0  0  0  0  0  0
   -7.2545    0.8247   -2.1730 H   0  0  0  0  0  0  0  0  0  0  0  0
   -5.6303    3.0254   -2.5765 H   0  0  0  0  0  0  0  0  0  0  0  0
  1  2  2  0
  2  3  1  0
  3  4  1  0
  4  5  2  0
  5  6  1  0
  6  7  2  0
  7  8  1  0
  7  9  1  0
  9 10  2  0
  2 11  1  0
 11 12  2  0
 12 13  1  0
 13 14  2  0
 14 15  1  0
 15 16  2  0
 15 17  1  0
 17 18  2  0
 17 19  1  0
 19 20  1  0
 20 21  1  0
 21 22  2  0
 22 23  1  0
 23 24  2  0
 24 25  1  0
 19 26  1  0
 26 27  2  0
 10  4  1  0
 16 11  1  0
 25 21  1  0
 26 14  1  0
  3 28  1  0
  5 29  1  0
  6 30  1  0
  8 31  1  0
  9 32  1  0
 10 33  1  0
 12 34  1  0
 13 35  1  0
 16 36  1  0
 20 37  1  0
 20 38  1  0
 22 39  1  0
 23 40  1  0
 24 41  1  0
M  END
$$$$
