
     RDKit          3D

 28 30  0  0  0  0  0  0  0  0999 V2000
   -4.1958    0.9559    1.4714 C   0  0  0  0  0  0  0  0  0  0  0  0
   -4.0177    0.6546   -0.0077 C   0  0  0  0  0  0  0  0  0  0  0  0
   -3.3956   -0.6736   -0.2226 C   0  0  0  0  0  0  0  0  0  0  0  0
   -4.0060   -1.8331   -0.4385 N   0  0  0  0  0  0  0  0  0  0  0  0
   -3.0354   -2.8232   -0.5842 N   0  0  0  0  0  0  0  0  0  0  0  0
   -1.8936   -2.2135   -0.4499 C   0  0  0  0  0  0  0  0  0  0  0  0
   -0.2385   -2.6164   -0.4729 S   0  0  0  0  0  0  0  0  0  0  0  0
    0.0818   -0.8808   -0.1632 C   0  0  0  0  0  0  0  0  0  0  0  0
    1.4792   -0.3906   -0.0346 C   0  0  0  0  0  0  0  0  0  0  0  0
    1.6803    0.9710    0.2301 C   0  0  0  0  0  0  0  0  0  0  0  0
    2.9739    1.4887    0.3604 C   0  0  0  0  0  0  0  0  0  0  0  0
    4.0883    0.6546    0.2718 C   0  0  0  0  0  0  0  0  0  0  0  0
    5.3767    1.1950    0.2801 N   0  0  0  0  0  0  0  0  0  0  0  0
    3.8900   -0.6890   -0.0505 C   0  0  0  0  0  0  0  0  0  0  0  0
    2.5989   -1.2168   -0.1833 C   0  0  0  0  0  0  0  0  0  0  0  0
   -0.9611   -0.0946   -0.0557 N   0  0  0  0  0  0  0  0  0  0  0  0
   -2.0464   -0.8911   -0.2258 N   0  0  0  0  0  0  0  0  0  0  0  0
   -4.6721    1.9323    1.6050 H   0  0  0  0  0  0  0  0  0  0  0  0
   -3.2324    0.9742    1.9923 H   0  0  0  0  0  0  0  0  0  0  0  0
   -4.8247    0.2013    1.9562 H   0  0  0  0  0  0  0  0  0  0  0  0
   -4.9963    0.6773   -0.5010 H   0  0  0  0  0  0  0  0  0  0  0  0
   -3.4108    1.4393   -0.4737 H   0  0  0  0  0  0  0  0  0  0  0  0
    0.8350    1.6499    0.3251 H   0  0  0  0  0  0  0  0  0  0  0  0
    3.1003    2.5548    0.5326 H   0  0  0  0  0  0  0  0  0  0  0  0
    6.1068    0.5302    0.5165 H   0  0  0  0  0  0  0  0  0  0  0  0
    5.4621    2.0611    0.8032 H   0  0  0  0  0  0  0  0  0  0  0  0
    4.7447   -1.3440   -0.2035 H   0  0  0  0  0  0  0  0  0  0  0  0
    2.5084   -2.2735   -0.4177 H   0  0  0  0  0  0  0  0  0  0  0  0
  1  2  1  0
  2  3  1  0
  3  4  2  0
  4  5  1  0
  5  6  2  0
  6  7  1  0
  7  8  1  0
  8  9  1  0
  9 10  2  0
 10 11  1  0
 11 12  2  0
 12 13  1  0
 12 14  1  0
 14 15  2  0
  8 16  2  0
 16 17  1  0
 17  3  1  0
 17  6  1  0
 15  9  1  0
  1 18  1  0
  1 19  1  0
  1 20  1  0
  2 21  1  0
  2 22  1  0
 10 23  1  0
 11 24  1  0
 13 25  1  0
 13 26  1  0
 14 27  1  0
 15 28  1  0
M  END
$$$$
