
     RDKit          3D

 44 46  0  0  0  0  0  0  0  0999 V2000
    8.3771   -0.2635    2.1188 C   0  0  0  0  0  0  0  0  0  0  0  0
    7.9775   -0.1092    0.6748 C   0  0  0  0  0  0  0  0  0  0  0  0
    8.8190    0.0777   -0.2012 O   0  0  0  0  0  0  0  0  0  0  0  0
    6.5299   -0.1792    0.3119 C   0  0  0  0  0  0  0  0  0  0  0  0
    6.1799   -0.1403   -1.0448 C   0  0  0  0  0  0  0  0  0  0  0  0
    4.8386   -0.2053   -1.4329 C   0  0  0  0  0  0  0  0  0  0  0  0
    3.8307   -0.2950   -0.4667 C   0  0  0  0  0  0  0  0  0  0  0  0
    2.4132   -0.3635   -0.9230 C   0  0  0  0  0  0  0  0  0  0  0  0
    2.1742   -0.9550   -1.9675 O   0  0  0  0  0  0  0  0  0  0  0  0
    1.5181    0.2923   -0.1092 N   0  0  0  0  0  0  0  0  0  0  0  0
    0.1766    0.3251   -0.3751 C   0  0  0  0  0  0  0  0  0  0  0  0
   -0.4962   -0.2532   -1.3318 N   0  0  0  0  0  0  0  0  0  0  0  0
   -1.8359    0.0644   -1.2160 C   0  0  0  0  0  0  0  0  0  0  0  0
   -2.8629   -0.3586   -2.0851 C   0  0  0  0  0  0  0  0  0  0  0  0
   -4.1842    0.0334   -1.8466 C   0  0  0  0  0  0  0  0  0  0  0  0
   -4.4851    0.8260   -0.7386 C   0  0  0  0  0  0  0  0  0  0  0  0
   -6.1728    1.3391   -0.4604 S   0  0  0  0  0  6  0  0  0  0  0  0
   -6.8448    1.3201   -1.7420 O   0  0  0  0  0  0  0  0  0  0  0  0
   -6.1258    2.5434    0.3418 O   0  0  0  0  0  0  0  0  0  0  0  0
   -6.8028    0.0836    0.4976 N   0  0  0  0  0  0  0  0  0  0  0  0
   -7.0086   -1.2206   -0.1547 C   0  0  0  0  0  0  0  0  0  0  0  0
   -6.2971   -0.0274    1.8757 C   0  0  0  0  0  0  0  0  0  0  0  0
   -3.4839    1.2843    0.1298 C   0  0  0  0  0  0  0  0  0  0  0  0
   -2.1638    0.8822   -0.1305 C   0  0  0  0  0  0  0  0  0  0  0  0
   -0.7204    1.2578    0.7355 S   0  0  0  0  0  0  0  0  0  0  0  0
    4.1753   -0.3476    0.8905 C   0  0  0  0  0  0  0  0  0  0  0  0
    5.5205   -0.2867    1.2778 C   0  0  0  0  0  0  0  0  0  0  0  0
    7.9998    0.5772    2.7065 H   0  0  0  0  0  0  0  0  0  0  0  0
    9.4694   -0.2688    2.1905 H   0  0  0  0  0  0  0  0  0  0  0  0
    8.0112   -1.2139    2.5159 H   0  0  0  0  0  0  0  0  0  0  0  0
    6.9513   -0.0659   -1.8105 H   0  0  0  0  0  0  0  0  0  0  0  0
    4.5830   -0.1856   -2.4915 H   0  0  0  0  0  0  0  0  0  0  0  0
    1.8299    0.8452    0.6733 H   0  0  0  0  0  0  0  0  0  0  0  0
   -2.6124   -0.9800   -2.9405 H   0  0  0  0  0  0  0  0  0  0  0  0
   -4.9657   -0.2826   -2.5353 H   0  0  0  0  0  0  0  0  0  0  0  0
   -7.4673   -1.1044   -1.1402 H   0  0  0  0  0  0  0  0  0  0  0  0
   -6.0652   -1.7647   -0.2526 H   0  0  0  0  0  0  0  0  0  0  0  0
   -7.6965   -1.8259    0.4449 H   0  0  0  0  0  0  0  0  0  0  0  0
   -5.3044   -0.4858    1.8946 H   0  0  0  0  0  0  0  0  0  0  0  0
   -6.2571    0.9501    2.3637 H   0  0  0  0  0  0  0  0  0  0  0  0
   -6.9767   -0.6491    2.4679 H   0  0  0  0  0  0  0  0  0  0  0  0
   -3.7139    1.9322    0.9711 H   0  0  0  0  0  0  0  0  0  0  0  0
    3.4150   -0.4695    1.6578 H   0  0  0  0  0  0  0  0  0  0  0  0
    5.7536   -0.3330    2.3381 H   0  0  0  0  0  0  0  0  0  0  0  0
  1  2  1  0
  2  3  2  0
  2  4  1  0
  4  5  2  0
  5  6  1  0
  6  7  2  0
  7  8  1  0
  8  9  2  0
  8 10  1  0
 10 11  1  0
 11 12  2  0
 12 13  1  0
 13 14  2  0
 14 15  1  0
 15 16  2  0
 16 17  1  0
 17 18  2  0
 17 19  2  0
 17 20  1  0
 20 21  1  0
 20 22  1  0
 16 23  1  0
 23 24  2  0
 24 25  1  0
  7 26  1  0
 26 27  2  0
 27  4  1  0
 25 11  1  0
 24 13  1  0
  1 28  1  0
  1 29  1  0
  1 30  1  0
  5 31  1  0
  6 32  1  0
 10 33  1  0
 14 34  1  0
 15 35  1  0
 21 36  1  0
 21 37  1  0
 21 38  1  0
 22 39  1  0
 22 40  1  0
 22 41  1  0
 23 42  1  0
 26 43  1  0
 27 44  1  0
M  END
$$$$
