
     RDKit          3D

 60 63  0  0  0  0  0  0  0  0999 V2000
    3.9649   -5.6061   -0.5554 C   0  0  0  0  0  0  0  0  0  0  0  0
    3.1757   -4.5056    0.0263 C   0  0  0  0  0  0  0  0  0  0  0  0
    2.5622   -4.6129    1.2109 N   0  0  0  0  0  0  0  0  0  0  0  0
    1.9518   -3.3686    1.3680 O   0  0  0  0  0  0  0  0  0  0  0  0
    2.2591   -2.6424    0.2520 C   0  0  0  0  0  0  0  0  0  0  0  0
    1.7343   -1.2520    0.1874 C   0  0  2  0  0  0  0  0  0  0  0  0
    0.2248   -1.1886    0.4390 C   0  0  0  0  0  0  0  0  0  0  0  0
   -0.1932    0.1492   -0.1729 C   0  0  2  0  0  0  0  0  0  0  0  0
   -1.6169    0.2417   -0.4202 N   0  0  0  0  0  0  0  0  0  0  0  0
   -2.5207    0.3241    0.6215 C   0  0  0  0  0  0  0  0  0  0  0  0
   -2.1966    0.2447    1.8002 O   0  0  0  0  0  0  0  0  0  0  0  0
   -3.9457    0.5195    0.1493 C   0  0  0  0  0  0  0  0  0  0  0  0
   -4.9275    0.5487    1.3172 C   0  0  0  0  0  0  0  0  0  0  0  0
   -6.3445    0.7476    0.8387 C   0  0  0  0  0  0  0  0  0  0  0  0
   -7.1259   -0.3517    0.4568 C   0  0  0  0  0  0  0  0  0  0  0  0
   -8.4293   -0.1652   -0.0055 C   0  0  0  0  0  0  0  0  0  0  0  0
   -8.9623    1.1197   -0.0926 C   0  0  0  0  0  0  0  0  0  0  0  0
   -8.1919    2.2195    0.2806 C   0  0  0  0  0  0  0  0  0  0  0  0
   -6.8880    2.0354    0.7429 C   0  0  0  0  0  0  0  0  0  0  0  0
    0.6284    0.2228   -1.4599 C   0  0  0  0  0  0  0  0  0  0  0  0
    1.8944   -0.6186   -1.2177 C   0  0  1  0  0  0  0  0  0  0  0  0
    3.1721    0.2038   -1.1252 C   0  0  0  0  0  0  0  0  0  0  0  0
    3.2442    0.6131    0.2621 N   0  0  0  0  0  0  0  0  0  0  0  0
    4.0076    1.6197    0.8176 C   0  0  0  0  0  0  0  0  0  0  0  0
    4.0243    1.7986    2.0367 O   0  0  0  0  0  0  0  0  0  0  0  0
    4.8432    2.4899   -0.1236 C   0  0  0  0  0  0  0  0  0  0  0  0
    6.1166    1.7577   -0.5402 C   0  0  0  0  0  0  0  0  0  0  0  0
    5.2065    3.8138    0.5530 C   0  0  0  0  0  0  0  0  0  0  0  0
    2.5363   -0.3241    1.1234 C   0  0  0  0  0  0  0  0  0  0  0  0
    3.0114   -3.2983   -0.6036 N   0  0  0  0  0  0  0  0  0  0  0  0
    4.5112   -5.2685   -1.4418 H   0  0  0  0  0  0  0  0  0  0  0  0
    4.6947   -5.9849    0.1673 H   0  0  0  0  0  0  0  0  0  0  0  0
    3.3101   -6.4312   -0.8524 H   0  0  0  0  0  0  0  0  0  0  0  0
   -0.2949   -2.0158   -0.0643 H   0  0  0  0  0  0  0  0  0  0  0  0
   -0.0235   -1.2547    1.5041 H   0  0  0  0  0  0  0  0  0  0  0  0
    0.0831    0.9754    0.4937 H   0  0  0  0  0  0  0  0  0  0  0  0
   -1.9385    0.5030   -1.3446 H   0  0  0  0  0  0  0  0  0  0  0  0
   -4.1958   -0.2975   -0.5384 H   0  0  0  0  0  0  0  0  0  0  0  0
   -3.9950    1.4599   -0.4128 H   0  0  0  0  0  0  0  0  0  0  0  0
   -4.6618    1.3485    2.0207 H   0  0  0  0  0  0  0  0  0  0  0  0
   -4.8649   -0.3838    1.8935 H   0  0  0  0  0  0  0  0  0  0  0  0
   -6.7236   -1.3608    0.5203 H   0  0  0  0  0  0  0  0  0  0  0  0
   -9.0299   -1.0233   -0.2951 H   0  0  0  0  0  0  0  0  0  0  0  0
   -9.9783    1.2638   -0.4498 H   0  0  0  0  0  0  0  0  0  0  0  0
   -8.6079    3.2216    0.2146 H   0  0  0  0  0  0  0  0  0  0  0  0
   -6.2996    2.9034    1.0315 H   0  0  0  0  0  0  0  0  0  0  0  0
    0.0698   -0.2178   -2.2963 H   0  0  0  0  0  0  0  0  0  0  0  0
    0.8428    1.2602   -1.7391 H   0  0  0  0  0  0  0  0  0  0  0  0
    1.9808   -1.3499   -2.0305 H   0  0  0  0  0  0  0  0  0  0  0  0
    3.1897    1.0545   -1.8094 H   0  0  0  0  0  0  0  0  0  0  0  0
    4.0429   -0.4294   -1.3261 H   0  0  0  0  0  0  0  0  0  0  0  0
    4.2475    2.7348   -1.0087 H   0  0  0  0  0  0  0  0  0  0  0  0
    6.7092    1.4686    0.3353 H   0  0  0  0  0  0  0  0  0  0  0  0
    5.8981    0.8441   -1.0988 H   0  0  0  0  0  0  0  0  0  0  0  0
    6.7405    2.3926   -1.1782 H   0  0  0  0  0  0  0  0  0  0  0  0
    4.3048    4.3405    0.8845 H   0  0  0  0  0  0  0  0  0  0  0  0
    5.8420    3.6568    1.4318 H   0  0  0  0  0  0  0  0  0  0  0  0
    5.7440    4.4697   -0.1401 H   0  0  0  0  0  0  0  0  0  0  0  0
    3.2817   -0.8596    1.7243 H   0  0  0  0  0  0  0  0  0  0  0  0
    1.9057    0.2441    1.8165 H   0  0  0  0  0  0  0  0  0  0  0  0
  1  2  1  0
  2  3  2  0
  3  4  1  0
  4  5  1  0
  6  5  1  6
  6  7  1  0
  7  8  1  0
  8  9  1  0
  9 10  1  0
 10 11  2  0
 10 12  1  0
 12 13  1  0
 13 14  1  0
 14 15  2  0
 15 16  1  0
 16 17  2  0
 17 18  1  0
 18 19  2  0
  8 20  1  0
 20 21  1  0
 21 22  1  0
 22 23  1  0
 23 24  1  0
 24 25  2  0
 24 26  1  0
 26 27  1  0
 26 28  1  0
 23 29  1  0
  5 30  2  0
 30  2  1  0
 21  6  1  0
 29  6  1  0
 19 14  1  0
  1 31  1  0
  1 32  1  0
  1 33  1  0
  7 34  1  0
  7 35  1  0
  8 36  1  1
  9 37  1  0
 12 38  1  0
 12 39  1  0
 13 40  1  0
 13 41  1  0
 15 42  1  0
 16 43  1  0
 17 44  1  0
 18 45  1  0
 19 46  1  0
 20 47  1  0
 20 48  1  0
 21 49  1  6
 22 50  1  0
 22 51  1  0
 26 52  1  0
 27 53  1  0
 27 54  1  0
 27 55  1  0
 28 56  1  0
 28 57  1  0
 28 58  1  0
 29 59  1  0
 29 60  1  0
M  END
$$$$
