
     RDKit          3D

 49 52  0  0  0  0  0  0  0  0999 V2000
   -0.2762    2.0564   -2.3525 O   0  0  0  0  0  0  0  0  0  0  0  0
   -0.7620    1.2351   -1.5798 C   0  0  0  0  0  0  0  0  0  0  0  0
   -2.0590    1.3204   -1.1801 N   0  0  0  0  0  0  0  0  0  0  0  0
   -2.6556    0.4172   -0.3520 C   0  0  0  0  0  0  0  0  0  0  0  0
   -3.9973    0.6014   -0.0643 N   0  0  0  0  0  0  0  0  0  0  0  0
   -4.5210    1.9425    0.2733 C   0  0  0  0  0  0  0  0  0  0  0  0
   -6.0510    1.9687    0.1451 C   0  0  0  0  0  0  0  0  0  0  0  0
   -6.6641    0.9658    0.9647 O   0  0  0  0  0  0  0  0  0  0  0  0
   -6.2004   -0.3356    0.5798 C   0  0  0  0  0  0  0  0  0  0  0  0
   -4.6784   -0.4541    0.7242 C   0  0  0  0  0  0  0  0  0  0  0  0
   -1.9831   -0.5853    0.1206 N   0  0  0  0  0  0  0  0  0  0  0  0
   -0.6508   -0.7295   -0.2010 C   0  0  0  0  0  0  0  0  0  0  0  0
    0.0133    0.0992   -1.0283 C   0  0  0  0  0  0  0  0  0  0  0  0
    1.4400   -0.0136   -1.5016 C   0  0  0  0  0  0  0  0  0  0  0  0
    2.0007   -1.4426   -1.5761 C   0  0  0  0  0  0  0  0  0  0  0  0
    2.3665   -2.0714   -0.3087 N   0  0  0  0  0  0  0  0  0  0  0  0
    3.7973   -2.0620    0.0077 C   0  0  0  0  0  0  0  0  0  0  0  0
    4.4198   -0.7161    0.3083 C   0  0  0  0  0  0  0  0  0  0  0  0
    4.4382   -0.2106    1.6175 C   0  0  0  0  0  0  0  0  0  0  0  0
    5.0268    1.0253    1.8850 C   0  0  0  0  0  0  0  0  0  0  0  0
    5.0333    1.4902    3.1409 F   0  0  0  0  0  0  0  0  0  0  0  0
    5.6041    1.7799    0.8771 C   0  0  0  0  0  0  0  0  0  0  0  0
    5.5918    1.2794   -0.4160 C   0  0  0  0  0  0  0  0  0  0  0  0
    6.1533    1.9910   -1.4021 F   0  0  0  0  0  0  0  0  0  0  0  0
    5.0140    0.0463   -0.7100 C   0  0  0  0  0  0  0  0  0  0  0  0
    1.4931   -1.7651    0.8227 C   0  0  0  0  0  0  0  0  0  0  0  0
   -0.0045   -1.9069    0.5091 C   0  0  0  0  0  0  0  0  0  0  0  0
   -2.5972    2.0506   -1.6091 H   0  0  0  0  0  0  0  0  0  0  0  0
   -4.2298    2.1810    1.3031 H   0  0  0  0  0  0  0  0  0  0  0  0
   -4.1092    2.7168   -0.3800 H   0  0  0  0  0  0  0  0  0  0  0  0
   -6.3622    1.8170   -0.8960 H   0  0  0  0  0  0  0  0  0  0  0  0
   -6.4358    2.9424    0.4686 H   0  0  0  0  0  0  0  0  0  0  0  0
   -6.6947   -1.0690    1.2233 H   0  0  0  0  0  0  0  0  0  0  0  0
   -6.5116   -0.5349   -0.4537 H   0  0  0  0  0  0  0  0  0  0  0  0
   -4.3771   -1.4510    0.3814 H   0  0  0  0  0  0  0  0  0  0  0  0
   -4.3950   -0.3470    1.7779 H   0  0  0  0  0  0  0  0  0  0  0  0
    1.5072    0.3847   -2.5235 H   0  0  0  0  0  0  0  0  0  0  0  0
    2.0765    0.6323   -0.8852 H   0  0  0  0  0  0  0  0  0  0  0  0
    1.2578   -2.0850   -2.0640 H   0  0  0  0  0  0  0  0  0  0  0  0
    2.8547   -1.4560   -2.2631 H   0  0  0  0  0  0  0  0  0  0  0  0
    4.3526   -2.5329   -0.8140 H   0  0  0  0  0  0  0  0  0  0  0  0
    3.9827   -2.7313    0.8594 H   0  0  0  0  0  0  0  0  0  0  0  0
    4.0012   -0.7725    2.4384 H   0  0  0  0  0  0  0  0  0  0  0  0
    6.0625    2.7378    1.0957 H   0  0  0  0  0  0  0  0  0  0  0  0
    5.0327   -0.3092   -1.7357 H   0  0  0  0  0  0  0  0  0  0  0  0
    1.6846   -0.7635    1.2254 H   0  0  0  0  0  0  0  0  0  0  0  0
    1.7236   -2.4745    1.6282 H   0  0  0  0  0  0  0  0  0  0  0  0
   -0.5110   -2.0345    1.4765 H   0  0  0  0  0  0  0  0  0  0  0  0
   -0.2012   -2.8278   -0.0551 H   0  0  0  0  0  0  0  0  0  0  0  0
  1  2  2  0
  2  3  1  0
  3  4  1  0
  4  5  1  0
  5  6  1  0
  6  7  1  0
  7  8  1  0
  8  9  1  0
  9 10  1  0
  4 11  2  0
 11 12  1  0
 12 13  2  0
 13 14  1  0
 14 15  1  0
 15 16  1  0
 16 17  1  0
 17 18  1  0
 18 19  2  0
 19 20  1  0
 20 21  1  0
 20 22  2  0
 22 23  1  0
 23 24  1  0
 23 25  2  0
 16 26  1  0
 26 27  1  0
 13  2  1  0
 25 18  1  0
 10  5  1  0
 27 12  1  0
  3 28  1  0
  6 29  1  0
  6 30  1  0
  7 31  1  0
  7 32  1  0
  9 33  1  0
  9 34  1  0
 10 35  1  0
 10 36  1  0
 14 37  1  0
 14 38  1  0
 15 39  1  0
 15 40  1  0
 17 41  1  0
 17 42  1  0
 19 43  1  0
 22 44  1  0
 25 45  1  0
 26 46  1  0
 26 47  1  0
 27 48  1  0
 27 49  1  0
M  END
$$$$
