
     RDKit          3D

 41 44  0  0  0  0  0  0  0  0999 V2000
   -6.3862   -2.1078    0.4056 C   0  0  0  0  0  0  0  0  0  0  0  0
   -5.0606   -1.5515    0.2853 N   0  0  0  0  0  0  0  0  0  0  0  0
   -4.7352   -0.2535    0.0128 C   0  0  0  0  0  0  0  0  0  0  0  0
   -3.3594   -0.2050   -0.0029 C   0  0  0  0  0  0  0  0  0  0  0  0
   -2.4879    0.9329   -0.2450 C   0  0  0  0  0  0  0  0  0  0  0  0
   -2.9131    2.2466   -0.5036 C   0  0  0  0  0  0  0  0  0  0  0  0
   -1.8993    3.0955   -0.6776 N   0  0  0  0  0  0  0  0  0  0  0  0
   -0.7841    2.3125   -0.5573 N   0  0  0  0  0  0  0  0  0  0  0  0
    0.5605    2.7398   -0.6569 C   0  0  0  0  0  0  0  0  0  0  0  0
    0.7623    4.0940   -0.9524 N   0  0  0  0  0  0  0  0  0  0  0  0
    1.5460    1.8353   -0.4468 C   0  0  0  0  0  0  0  0  0  0  0  0
    3.3384    2.3327   -0.5189 Br  0  0  0  0  0  0  0  0  0  0  0  0
    1.1043    0.4141   -0.1529 C   0  0  0  0  0  0  0  0  0  0  0  0
    2.1103   -0.7345    0.0847 C   0  0  2  0  0  0  0  0  0  0  0  0
    2.8352   -0.6614    1.4372 C   0  0  0  0  0  0  0  0  0  0  0  0
    4.3579   -0.6002    1.3714 C   0  0  0  0  0  0  0  0  0  0  0  0
    4.9264   -1.3739    0.1930 C   0  0  0  0  0  0  0  0  0  0  0  0
    4.3745   -0.8487   -1.0492 N   0  0  0  0  0  0  0  0  0  0  0  0
    2.9403   -1.1054   -1.1525 C   0  0  0  0  0  0  0  0  0  0  0  0
   -0.1481    0.0434   -0.0740 N   0  0  0  0  0  0  0  0  0  0  0  0
   -1.1093    0.9893   -0.2692 C   0  0  0  0  0  0  0  0  0  0  0  0
   -2.9533   -1.5265    0.2720 C   0  0  0  0  0  0  0  0  0  0  0  0
   -3.9915   -2.3516    0.4493 N   0  0  0  0  0  0  0  0  0  0  0  0
   -6.4960   -2.5224    1.4108 H   0  0  0  0  0  0  0  0  0  0  0  0
   -6.5014   -2.8902   -0.3486 H   0  0  0  0  0  0  0  0  0  0  0  0
   -7.1271   -1.3212    0.2434 H   0  0  0  0  0  0  0  0  0  0  0  0
   -5.4930    0.5006   -0.1426 H   0  0  0  0  0  0  0  0  0  0  0  0
   -3.9236    2.6290   -0.5682 H   0  0  0  0  0  0  0  0  0  0  0  0
    1.6279    4.4716   -0.5750 H   0  0  0  0  0  0  0  0  0  0  0  0
   -0.0674    4.6534   -0.7358 H   0  0  0  0  0  0  0  0  0  0  0  0
    1.4479   -1.6099    0.2062 H   0  0  0  0  0  0  0  0  0  0  0  0
    2.4595    0.1680    2.0486 H   0  0  0  0  0  0  0  0  0  0  0  0
    2.5775   -1.5704    1.9994 H   0  0  0  0  0  0  0  0  0  0  0  0
    4.7765   -0.9935    2.3058 H   0  0  0  0  0  0  0  0  0  0  0  0
    4.6856    0.4435    1.3189 H   0  0  0  0  0  0  0  0  0  0  0  0
    6.0150   -1.2513    0.1782 H   0  0  0  0  0  0  0  0  0  0  0  0
    4.7245   -2.4473    0.2909 H   0  0  0  0  0  0  0  0  0  0  0  0
    4.8513   -1.2768   -1.8434 H   0  0  0  0  0  0  0  0  0  0  0  0
    2.8092   -2.1783   -1.3490 H   0  0  0  0  0  0  0  0  0  0  0  0
    2.5557   -0.5957   -2.0434 H   0  0  0  0  0  0  0  0  0  0  0  0
   -1.9501   -1.9254    0.3516 H   0  0  0  0  0  0  0  0  0  0  0  0
  1  2  1  0
  2  3  1  0
  3  4  2  0
  4  5  1  0
  5  6  1  0
  6  7  2  0
  7  8  1  0
  8  9  1  0
  9 10  1  0
  9 11  2  0
 11 12  1  0
 11 13  1  0
 13 14  1  0
 14 15  1  0
 15 16  1  0
 16 17  1  0
 17 18  1  0
 18 19  1  0
 13 20  2  0
 20 21  1  0
  4 22  1  0
 22 23  2  0
 23  2  1  0
 21  5  2  0
 21  8  1  0
 19 14  1  0
  1 24  1  0
  1 25  1  0
  1 26  1  0
  3 27  1  0
  6 28  1  0
 10 29  1  0
 10 30  1  0
 14 31  1  1
 15 32  1  0
 15 33  1  0
 16 34  1  0
 16 35  1  0
 17 36  1  0
 17 37  1  0
 18 38  1  0
 19 39  1  0
 19 40  1  0
 22 41  1  0
M  END
$$$$
