
     RDKit          3D

 61 64  0  0  0  0  0  0  0  0999 V2000
    6.7353    3.1877    0.6607 C   0  0  0  0  0  0  0  0  0  0  0  0
    7.4346    1.9505    0.6235 O   0  0  0  0  0  0  0  0  0  0  0  0
    6.7033    0.8430    0.2911 C   0  0  0  0  0  0  0  0  0  0  0  0
    7.3745   -0.3704    0.4530 C   0  0  0  0  0  0  0  0  0  0  0  0
    6.7397   -1.5775    0.1626 C   0  0  0  0  0  0  0  0  0  0  0  0
    5.4268   -1.5785   -0.3047 C   0  0  0  0  0  0  0  0  0  0  0  0
    4.7435   -0.3699   -0.4940 C   0  0  0  0  0  0  0  0  0  0  0  0
    3.3229   -0.3666   -1.0108 C   0  0  0  0  0  0  0  0  0  0  0  0
    2.2571   -0.1833    0.0643 C   0  0  0  0  0  0  0  0  0  0  0  0
    2.5062    0.2515    1.1886 O   0  0  0  0  0  0  0  0  0  0  0  0
    0.9623   -0.4970   -0.3071 N   0  0  0  0  0  0  0  0  0  0  0  0
    0.5013   -0.9289   -1.6133 C   0  0  0  0  0  0  0  0  0  0  0  0
   -1.0140   -0.8104   -1.5488 C   0  0  2  0  0  0  0  0  0  0  0  0
   -1.5303    0.5945   -1.8482 C   0  0  0  0  0  0  0  0  0  0  0  0
   -2.6543    0.7761   -0.9482 N   0  0  0  0  0  0  0  0  0  0  0  0
   -3.6070    1.7322   -1.2103 C   0  0  0  0  0  0  0  0  0  0  0  0
   -3.5753    2.4290   -2.2196 O   0  0  0  0  0  0  0  0  0  0  0  0
   -4.6087    1.8118   -0.2775 N   0  0  0  0  0  0  0  0  0  0  0  0
   -5.6696    2.8044   -0.4013 C   0  0  0  0  0  0  0  0  0  0  0  0
   -6.8896    2.3578    0.3984 C   0  0  0  0  0  0  0  0  0  0  0  0
   -5.1906    4.1776    0.0671 C   0  0  0  0  0  0  0  0  0  0  0  0
   -2.6210   -0.1694    0.1609 C   0  0  0  0  0  0  0  0  0  0  0  0
   -1.3630   -1.0189   -0.0575 C   0  0  1  0  0  0  0  0  0  0  0  0
   -1.5953   -2.4591    0.2858 C   0  0  0  0  0  0  0  0  0  0  0  0
   -1.0337   -3.1629    1.2457 N   0  0  0  0  0  0  0  0  0  0  0  0
   -1.6000   -4.4032    1.1204 C   0  0  0  0  0  0  0  0  0  0  0  0
   -1.2502   -5.5304    2.0058 C   0  0  0  0  0  0  0  0  0  0  0  0
   -2.5015   -4.5038    0.1388 N   0  0  0  0  0  0  0  0  0  0  0  0
   -2.4857   -3.2662   -0.3737 N   0  0  0  0  0  0  0  0  0  0  0  0
   -0.1298   -0.4268    0.6583 C   0  0  0  0  0  0  0  0  0  0  0  0
    5.3909    0.8398   -0.1865 C   0  0  0  0  0  0  0  0  0  0  0  0
    6.4127    3.4859   -0.3418 H   0  0  0  0  0  0  0  0  0  0  0  0
    7.4276    3.9513    1.0269 H   0  0  0  0  0  0  0  0  0  0  0  0
    5.8883    3.1467    1.3540 H   0  0  0  0  0  0  0  0  0  0  0  0
    8.3970   -0.3739    0.8214 H   0  0  0  0  0  0  0  0  0  0  0  0
    7.2682   -2.5156    0.3071 H   0  0  0  0  0  0  0  0  0  0  0  0
    4.9420   -2.5283   -0.5173 H   0  0  0  0  0  0  0  0  0  0  0  0
    3.1429   -1.3081   -1.5418 H   0  0  0  0  0  0  0  0  0  0  0  0
    3.2116    0.4408   -1.7443 H   0  0  0  0  0  0  0  0  0  0  0  0
    0.9507   -0.3284   -2.4095 H   0  0  0  0  0  0  0  0  0  0  0  0
    0.8072   -1.9735   -1.7396 H   0  0  0  0  0  0  0  0  0  0  0  0
   -1.4999   -1.5247   -2.2233 H   0  0  0  0  0  0  0  0  0  0  0  0
   -1.8386    0.7030   -2.8931 H   0  0  0  0  0  0  0  0  0  0  0  0
   -0.7962    1.3775   -1.6256 H   0  0  0  0  0  0  0  0  0  0  0  0
   -4.3436    1.5723    0.6640 H   0  0  0  0  0  0  0  0  0  0  0  0
   -5.9501    2.8733   -1.4595 H   0  0  0  0  0  0  0  0  0  0  0  0
   -7.2409    1.3791    0.0540 H   0  0  0  0  0  0  0  0  0  0  0  0
   -6.6555    2.2672    1.4649 H   0  0  0  0  0  0  0  0  0  0  0  0
   -7.7127    3.0713    0.2884 H   0  0  0  0  0  0  0  0  0  0  0  0
   -5.9860    4.9232   -0.0338 H   0  0  0  0  0  0  0  0  0  0  0  0
   -4.3325    4.5200   -0.5213 H   0  0  0  0  0  0  0  0  0  0  0  0
   -4.8783    4.1501    1.1171 H   0  0  0  0  0  0  0  0  0  0  0  0
   -2.6023    0.3738    1.1119 H   0  0  0  0  0  0  0  0  0  0  0  0
   -3.5507   -0.7488    0.1234 H   0  0  0  0  0  0  0  0  0  0  0  0
   -1.0964   -6.4471    1.4275 H   0  0  0  0  0  0  0  0  0  0  0  0
   -2.0503   -5.7077    2.7308 H   0  0  0  0  0  0  0  0  0  0  0  0
   -0.3286   -5.3203    2.5578 H   0  0  0  0  0  0  0  0  0  0  0  0
   -3.0976   -3.0480   -1.1526 H   0  0  0  0  0  0  0  0  0  0  0  0
   -0.2628    0.6339    0.9043 H   0  0  0  0  0  0  0  0  0  0  0  0
    0.1542   -0.9443    1.5805 H   0  0  0  0  0  0  0  0  0  0  0  0
    4.8420    1.7665   -0.3205 H   0  0  0  0  0  0  0  0  0  0  0  0
  1  2  1  0
  2  3  1  0
  3  4  2  0
  4  5  1  0
  5  6  2  0
  6  7  1  0
  7  8  1  0
  8  9  1  0
  9 10  2  0
  9 11  1  0
 11 12  1  0
 12 13  1  0
 13 14  1  0
 14 15  1  0
 15 16  1  0
 16 17  2  0
 16 18  1  0
 18 19  1  0
 19 20  1  0
 19 21  1  0
 15 22  1  0
 22 23  1  0
 23 24  1  6
 24 25  2  0
 25 26  1  0
 26 27  1  0
 26 28  2  0
 28 29  1  0
 23 30  1  0
  7 31  2  0
 31  3  1  0
 30 11  1  0
 23 13  1  0
 29 24  1  0
  1 32  1  0
  1 33  1  0
  1 34  1  0
  4 35  1  0
  5 36  1  0
  6 37  1  0
  8 38  1  0
  8 39  1  0
 12 40  1  0
 12 41  1  0
 13 42  1  6
 14 43  1  0
 14 44  1  0
 18 45  1  0
 19 46  1  0
 20 47  1  0
 20 48  1  0
 20 49  1  0
 21 50  1  0
 21 51  1  0
 21 52  1  0
 22 53  1  0
 22 54  1  0
 27 55  1  0
 27 56  1  0
 27 57  1  0
 29 58  1  0
 30 59  1  0
 30 60  1  0
 31 61  1  0
M  END
$$$$
