
     RDKit          3D

 53 55  0  0  0  0  0  0  0  0999 V2000
   10.4720   -1.6554    0.5227 C   0  0  0  0  0  0  0  0  0  0  0  0
    9.4673   -1.0839    1.1994 C   0  0  0  0  0  0  0  0  0  0  0  0
    8.1635   -0.7991    0.5299 C   0  0  0  0  0  0  0  0  0  0  0  0
    7.9871   -1.0786   -0.6485 O   0  0  0  0  0  0  0  0  0  0  0  0
    7.2612   -0.2163    1.3965 N   0  0  0  0  0  0  0  0  0  0  0  0
    5.9387    0.1904    1.1111 C   0  0  0  0  0  0  0  0  0  0  0  0
    5.2025    0.7466    2.1615 C   0  0  0  0  0  0  0  0  0  0  0  0
    3.8948    1.1824    1.9532 C   0  0  0  0  0  0  0  0  0  0  0  0
    3.3075    1.0562    0.6936 C   0  0  0  0  0  0  0  0  0  0  0  0
    4.0075    0.4802   -0.3699 C   0  0  0  0  0  0  0  0  0  0  0  0
    3.4751    0.3705   -1.6717 N   0  0  0  0  0  0  0  0  0  0  0  0
    2.1257    0.2758   -2.0972 C   0  0  0  0  0  0  0  0  0  0  0  0
    1.1132    0.1950   -1.2078 N   0  0  0  0  0  0  0  0  0  0  0  0
   -0.1505    0.1328   -1.6666 C   0  0  0  0  0  0  0  0  0  0  0  0
   -1.1221    0.0353   -0.6758 N   0  0  0  0  0  0  0  0  0  0  0  0
   -2.5161   -0.0644   -0.6830 C   0  0  0  0  0  0  0  0  0  0  0  0
   -3.1878   -0.1717    0.5453 C   0  0  0  0  0  0  0  0  0  0  0  0
   -4.5849   -0.2712    0.6174 C   0  0  0  0  0  0  0  0  0  0  0  0
   -5.3456   -0.2655   -0.5468 C   0  0  0  0  0  0  0  0  0  0  0  0
   -6.7060   -0.3481   -0.6322 O   0  0  0  0  0  0  0  0  0  0  0  0
   -7.4525   -0.5690    0.5637 C   0  0  0  0  0  0  0  0  0  0  0  0
   -7.8137    0.7512    1.2459 C   0  0  0  0  0  0  0  0  0  0  0  0
   -8.4944    0.5476    2.4852 O   0  0  0  0  0  0  0  0  0  0  0  0
   -9.8780    0.2661    2.3202 C   0  0  0  0  0  0  0  0  0  0  0  0
   -4.6919   -0.1527   -1.7731 C   0  0  0  0  0  0  0  0  0  0  0  0
   -3.2960   -0.0540   -1.8402 C   0  0  0  0  0  0  0  0  0  0  0  0
   -0.4621    0.1588   -2.9712 N   0  0  0  0  0  0  0  0  0  0  0  0
    0.5591    0.2487   -3.8437 C   0  0  0  0  0  0  0  0  0  0  0  0
    1.8709    0.3104   -3.4572 C   0  0  0  0  0  0  0  0  0  0  0  0
    2.8564    0.3852   -4.3623 F   0  0  0  0  0  0  0  0  0  0  0  0
    5.3367    0.0734   -0.1463 C   0  0  0  0  0  0  0  0  0  0  0  0
   10.3692   -1.9269   -0.5251 H   0  0  0  0  0  0  0  0  0  0  0  0
   11.4217   -1.8643    1.0029 H   0  0  0  0  0  0  0  0  0  0  0  0
    9.5920   -0.8214    2.2418 H   0  0  0  0  0  0  0  0  0  0  0  0
    7.5649   -0.0614    2.3479 H   0  0  0  0  0  0  0  0  0  0  0  0
    5.6346    0.8575    3.1522 H   0  0  0  0  0  0  0  0  0  0  0  0
    3.3316    1.6291    2.7683 H   0  0  0  0  0  0  0  0  0  0  0  0
    2.2982    1.4317    0.5533 H   0  0  0  0  0  0  0  0  0  0  0  0
    4.0805   -0.1518   -2.2996 H   0  0  0  0  0  0  0  0  0  0  0  0
   -0.6648    0.0009    0.2237 H   0  0  0  0  0  0  0  0  0  0  0  0
   -2.6236   -0.1779    1.4753 H   0  0  0  0  0  0  0  0  0  0  0  0
   -5.0348   -0.3434    1.6017 H   0  0  0  0  0  0  0  0  0  0  0  0
   -6.9660   -1.2751    1.2471 H   0  0  0  0  0  0  0  0  0  0  0  0
   -8.3757   -1.0740    0.2576 H   0  0  0  0  0  0  0  0  0  0  0  0
   -8.4004    1.3931    0.5773 H   0  0  0  0  0  0  0  0  0  0  0  0
   -6.9016    1.3127    1.4729 H   0  0  0  0  0  0  0  0  0  0  0  0
  -10.3755    1.0798    1.7840 H   0  0  0  0  0  0  0  0  0  0  0  0
  -10.3289    0.1789    3.3126 H   0  0  0  0  0  0  0  0  0  0  0  0
  -10.0246   -0.6801    1.7926 H   0  0  0  0  0  0  0  0  0  0  0  0
   -5.2700   -0.1418   -2.6940 H   0  0  0  0  0  0  0  0  0  0  0  0
   -2.8419    0.0318   -2.8222 H   0  0  0  0  0  0  0  0  0  0  0  0
    0.2857    0.2682   -4.8926 H   0  0  0  0  0  0  0  0  0  0  0  0
    5.8914   -0.3421   -0.9810 H   0  0  0  0  0  0  0  0  0  0  0  0
  1  2  2  3
  2  3  1  0
  3  4  2  0
  3  5  1  0
  5  6  1  0
  6  7  2  0
  7  8  1  0
  8  9  2  0
  9 10  1  0
 10 11  1  0
 11 12  1  0
 12 13  2  0
 13 14  1  0
 14 15  1  0
 15 16  1  0
 16 17  2  0
 17 18  1  0
 18 19  2  0
 19 20  1  0
 20 21  1  0
 21 22  1  0
 22 23  1  0
 23 24  1  0
 19 25  1  0
 25 26  2  0
 14 27  2  0
 27 28  1  0
 28 29  2  0
 29 30  1  0
 10 31  2  0
 31  6  1  0
 29 12  1  0
 26 16  1  0
  1 32  1  0
  1 33  1  0
  2 34  1  0
  5 35  1  0
  7 36  1  0
  8 37  1  0
  9 38  1  0
 11 39  1  0
 15 40  1  0
 17 41  1  0
 18 42  1  0
 21 43  1  0
 21 44  1  0
 22 45  1  0
 22 46  1  0
 24 47  1  0
 24 48  1  0
 24 49  1  0
 25 50  1  0
 26 51  1  0
 28 52  1  0
 31 53  1  0
M  END
$$$$
