
     RDKit          3D

 76 80  0  0  0  0  0  0  0  0999 V2000
   -2.8657    4.2347   -3.3254 C   0  0  0  0  0  0  0  0  0  0  0  0
   -3.1814    3.1597   -2.3289 C   0  0  0  0  0  0  0  0  0  0  0  0
   -2.9454    1.8160   -2.6370 C   0  0  0  0  0  0  0  0  0  0  0  0
   -3.2662    0.8059   -1.7237 C   0  0  0  0  0  0  0  0  0  0  0  0
   -3.8295    1.1288   -0.4840 C   0  0  0  0  0  0  0  0  0  0  0  0
   -4.2060    0.1219    0.4554 N   0  0  0  0  0  0  0  0  0  0  0  0
   -5.1620    0.4150    1.3865 N   0  0  0  0  0  0  0  0  0  0  0  0
   -5.6006   -0.7661    1.8371 C   0  0  0  0  0  0  0  0  0  0  0  0
   -6.7408   -0.8151    2.8425 C   0  0  0  0  0  0  0  0  0  0  0  0
   -8.0142   -0.1980    2.2281 C   0  0  0  0  0  0  0  0  0  0  0  0
   -6.3626   -0.0259    4.1138 C   0  0  0  0  0  0  0  0  0  0  0  0
   -7.0716   -2.2617    3.2660 C   0  0  0  0  0  0  0  0  0  0  0  0
   -4.8560   -1.8297    1.2795 C   0  0  0  0  0  0  0  0  0  0  0  0
   -3.8777   -1.2365    0.5121 C   0  0  0  0  0  0  0  0  0  0  0  0
   -2.7892   -1.8854   -0.0662 N   0  0  0  0  0  0  0  0  0  0  0  0
   -1.5184   -1.3127    0.0229 C   0  0  0  0  0  0  0  0  0  0  0  0
   -1.2712   -0.2632    0.5995 O   0  0  0  0  0  0  0  0  0  0  0  0
   -0.5993   -2.1267   -0.6212 N   0  0  0  0  0  0  0  0  0  0  0  0
    0.8160   -2.0295   -0.5868 C   0  0  0  0  0  0  0  0  0  0  0  0
    1.4468   -1.2482    0.3908 C   0  0  0  0  0  0  0  0  0  0  0  0
    2.8330   -1.1814    0.4687 C   0  0  0  0  0  0  0  0  0  0  0  0
    3.6100   -1.8879   -0.4426 C   0  0  0  0  0  0  0  0  0  0  0  0
    4.9768   -1.8342   -0.3171 O   0  0  0  0  0  0  0  0  0  0  0  0
    5.5056   -0.5810   -0.7868 C   0  0  0  0  0  0  0  0  0  0  0  0
    6.2738    0.0959    0.3611 C   0  0  0  0  0  0  0  0  0  0  0  0
    6.9956    1.3106   -0.0452 N   0  0  0  0  0  0  0  0  0  0  0  0
    6.1092    2.4554   -0.3493 C   0  0  0  0  0  0  0  0  0  0  0  0
    6.1267    3.5654    0.7166 C   0  0  0  0  0  0  0  0  0  0  0  0
    7.4348    4.0996    0.9542 O   0  0  0  0  0  0  0  0  0  0  0  0
    8.4794    3.1314    0.7793 C   0  0  0  0  0  0  0  0  0  0  0  0
    7.9960    1.6875    0.9764 C   0  0  0  0  0  0  0  0  0  0  0  0
    3.0241   -2.7091   -1.4259 C   0  0  0  0  0  0  0  0  0  0  0  0
    3.8230   -3.4544   -2.3206 C   0  0  0  0  0  0  0  0  0  0  0  0
    3.2604   -4.2647   -3.3029 C   0  0  0  0  0  0  0  0  0  0  0  0
    1.8819   -4.3450   -3.4117 C   0  0  0  0  0  0  0  0  0  0  0  0
    1.0697   -3.6180   -2.5359 C   0  0  0  0  0  0  0  0  0  0  0  0
    1.6057   -2.7849   -1.5153 C   0  0  0  0  0  0  0  0  0  0  0  0
   -4.0966    2.4734   -0.1884 C   0  0  0  0  0  0  0  0  0  0  0  0
   -3.7714    3.4795   -1.1021 C   0  0  0  0  0  0  0  0  0  0  0  0
   -1.9931    3.9635   -3.9282 H   0  0  0  0  0  0  0  0  0  0  0  0
   -3.7218    4.3923   -3.9889 H   0  0  0  0  0  0  0  0  0  0  0  0
   -2.6285    5.1775   -2.8226 H   0  0  0  0  0  0  0  0  0  0  0  0
   -2.5158    1.5446   -3.5981 H   0  0  0  0  0  0  0  0  0  0  0  0
   -3.0961   -0.2213   -2.0235 H   0  0  0  0  0  0  0  0  0  0  0  0
   -7.8650    0.8555    1.9635 H   0  0  0  0  0  0  0  0  0  0  0  0
   -8.3090   -0.7277    1.3145 H   0  0  0  0  0  0  0  0  0  0  0  0
   -8.8564   -0.2446    2.9273 H   0  0  0  0  0  0  0  0  0  0  0  0
   -7.1624   -0.0701    4.8609 H   0  0  0  0  0  0  0  0  0  0  0  0
   -6.1779    1.0320    3.8934 H   0  0  0  0  0  0  0  0  0  0  0  0
   -5.4523   -0.4293    4.5729 H   0  0  0  0  0  0  0  0  0  0  0  0
   -7.3750   -2.8722    2.4071 H   0  0  0  0  0  0  0  0  0  0  0  0
   -7.8939   -2.2854    3.9908 H   0  0  0  0  0  0  0  0  0  0  0  0
   -6.2084   -2.7504    3.7334 H   0  0  0  0  0  0  0  0  0  0  0  0
   -4.9516   -2.8834    1.4977 H   0  0  0  0  0  0  0  0  0  0  0  0
   -2.7761   -2.8908    0.0498 H   0  0  0  0  0  0  0  0  0  0  0  0
   -1.0043   -2.7416   -1.3061 H   0  0  0  0  0  0  0  0  0  0  0  0
    0.8806   -0.6959    1.1353 H   0  0  0  0  0  0  0  0  0  0  0  0
    3.2970   -0.5918    1.2525 H   0  0  0  0  0  0  0  0  0  0  0  0
    6.1963   -0.8137   -1.6070 H   0  0  0  0  0  0  0  0  0  0  0  0
    4.7265    0.0758   -1.1966 H   0  0  0  0  0  0  0  0  0  0  0  0
    5.5950    0.3019    1.1975 H   0  0  0  0  0  0  0  0  0  0  0  0
    6.9920   -0.6430    0.7424 H   0  0  0  0  0  0  0  0  0  0  0  0
    6.4698    2.8832   -1.2936 H   0  0  0  0  0  0  0  0  0  0  0  0
    5.0741    2.1445   -0.5242 H   0  0  0  0  0  0  0  0  0  0  0  0
    5.4880    4.3958    0.3995 H   0  0  0  0  0  0  0  0  0  0  0  0
    5.7282    3.1945    1.6688 H   0  0  0  0  0  0  0  0  0  0  0  0
    9.2660    3.3672    1.5024 H   0  0  0  0  0  0  0  0  0  0  0  0
    8.9059    3.2661   -0.2219 H   0  0  0  0  0  0  0  0  0  0  0  0
    8.8506    1.0045    0.9128 H   0  0  0  0  0  0  0  0  0  0  0  0
    7.5655    1.5978    1.9825 H   0  0  0  0  0  0  0  0  0  0  0  0
    4.9085   -3.4067   -2.2494 H   0  0  0  0  0  0  0  0  0  0  0  0
    3.9001   -4.8280   -3.9764 H   0  0  0  0  0  0  0  0  0  0  0  0
    1.4330   -4.9722   -4.1782 H   0  0  0  0  0  0  0  0  0  0  0  0
   -0.0016   -3.7188   -2.6805 H   0  0  0  0  0  0  0  0  0  0  0  0
   -4.5471    2.7546    0.7618 H   0  0  0  0  0  0  0  0  0  0  0  0
   -3.9840    4.5146   -0.8450 H   0  0  0  0  0  0  0  0  0  0  0  0
  1  2  1  0
  2  3  2  0
  3  4  1  0
  4  5  2  0
  5  6  1  0
  6  7  1  0
  7  8  2  0
  8  9  1  0
  9 10  1  0
  9 11  1  0
  9 12  1  0
  8 13  1  0
 13 14  2  0
 14 15  1  0
 15 16  1  0
 16 17  2  0
 16 18  1  0
 18 19  1  0
 19 20  2  0
 20 21  1  0
 21 22  2  0
 22 23  1  0
 23 24  1  0
 24 25  1  0
 25 26  1  0
 26 27  1  0
 27 28  1  0
 28 29  1  0
 29 30  1  0
 30 31  1  0
 22 32  1  0
 32 33  2  0
 33 34  1  0
 34 35  2  0
 35 36  1  0
 36 37  2  0
  5 38  1  0
 38 39  2  0
 39  2  1  0
 14  6  1  0
 37 19  1  0
 31 26  1  0
 37 32  1  0
  1 40  1  0
  1 41  1  0
  1 42  1  0
  3 43  1  0
  4 44  1  0
 10 45  1  0
 10 46  1  0
 10 47  1  0
 11 48  1  0
 11 49  1  0
 11 50  1  0
 12 51  1  0
 12 52  1  0
 12 53  1  0
 13 54  1  0
 15 55  1  0
 18 56  1  0
 20 57  1  0
 21 58  1  0
 24 59  1  0
 24 60  1  0
 25 61  1  0
 25 62  1  0
 27 63  1  0
 27 64  1  0
 28 65  1  0
 28 66  1  0
 30 67  1  0
 30 68  1  0
 31 69  1  0
 31 70  1  0
 33 71  1  0
 34 72  1  0
 35 73  1  0
 36 74  1  0
 38 75  1  0
 39 76  1  0
M  END
$$$$
