
     RDKit          3D

 59 61  0  0  0  0  0  0  0  0999 V2000
    1.4419    2.6962   -0.4360 O   0  0  0  0  0  0  0  0  0  0  0  0
    1.3065    1.7834   -1.2424 C   0  0  0  0  0  0  0  0  0  0  0  0
   -0.0139    1.4422   -1.9144 C   0  0  0  0  0  0  0  0  0  0  0  0
   -1.2372    2.0766   -1.2425 C   0  0  0  0  0  0  0  0  0  0  0  0
   -1.8749    1.2712   -0.0886 C   0  0  0  0  0  0  0  0  0  0  0  0
   -0.8886    0.8856    1.0179 C   0  0  0  0  0  0  0  0  0  0  0  0
   -1.5919    0.1995    2.1934 C   0  0  0  0  0  0  0  0  0  0  0  0
   -2.9503   -0.3930    1.8252 C   0  0  0  0  0  0  0  0  0  0  0  0
   -2.8728   -0.9632    0.4692 N   0  0  0  0  0  0  0  0  0  0  0  0
   -3.9078   -2.2589    0.0959 S   0  0  0  0  0  6  0  0  0  0  0  0
   -3.6221   -2.6774   -1.2613 O   0  0  0  0  0  0  0  0  0  0  0  0
   -3.8678   -3.2042    1.1918 O   0  0  0  0  0  0  0  0  0  0  0  0
   -5.5237   -1.5087    0.0997 C   0  0  0  0  0  0  0  0  0  0  0  0
   -6.0893   -1.0696   -1.1015 C   0  0  0  0  0  0  0  0  0  0  0  0
   -7.3655   -0.5067   -1.0947 C   0  0  0  0  0  0  0  0  0  0  0  0
   -8.0758   -0.3998    0.1023 C   0  0  0  0  0  0  0  0  0  0  0  0
   -7.5184   -0.8632    1.2952 C   0  0  0  0  0  0  0  0  0  0  0  0
   -6.2427   -1.4272    1.2967 C   0  0  0  0  0  0  0  0  0  0  0  0
   -2.6354    0.0318   -0.6057 C   0  0  0  0  0  0  0  0  0  0  0  0
    2.3484    0.9851   -1.6725 N   0  0  0  0  0  0  0  0  0  0  0  0
    3.6517    1.0742   -1.0413 C   0  0  0  0  0  0  0  0  0  0  0  0
    4.7355    0.4745   -1.9329 C   0  0  0  0  0  0  0  0  0  0  0  0
    6.1408    0.6347   -1.3469 C   0  0  0  0  0  0  0  0  0  0  0  0
    6.3604   -0.1663   -0.0879 C   0  0  0  0  0  0  0  0  0  0  0  0
    6.5246   -1.5569   -0.1497 C   0  0  0  0  0  0  0  0  0  0  0  0
    6.7127   -2.3001    1.0167 C   0  0  0  0  0  0  0  0  0  0  0  0
    6.7380   -1.6613    2.2548 C   0  0  0  0  0  0  0  0  0  0  0  0
    6.5765   -0.2792    2.3277 C   0  0  0  0  0  0  0  0  0  0  0  0
    6.3890    0.4659    1.1624 C   0  0  0  0  0  0  0  0  0  0  0  0
   -0.1186    0.3557   -1.9882 H   0  0  0  0  0  0  0  0  0  0  0  0
    0.0596    1.8332   -2.9373 H   0  0  0  0  0  0  0  0  0  0  0  0
   -0.9867    3.0789   -0.8737 H   0  0  0  0  0  0  0  0  0  0  0  0
   -2.0079    2.2255   -2.0105 H   0  0  0  0  0  0  0  0  0  0  0  0
   -2.6227    1.9385    0.3649 H   0  0  0  0  0  0  0  0  0  0  0  0
   -0.1336    0.1968    0.6194 H   0  0  0  0  0  0  0  0  0  0  0  0
   -0.3520    1.7671    1.3862 H   0  0  0  0  0  0  0  0  0  0  0  0
   -1.7291    0.9125    3.0152 H   0  0  0  0  0  0  0  0  0  0  0  0
   -0.9345   -0.5892    2.5804 H   0  0  0  0  0  0  0  0  0  0  0  0
   -3.2112   -1.1514    2.5697 H   0  0  0  0  0  0  0  0  0  0  0  0
   -3.7264    0.3805    1.8579 H   0  0  0  0  0  0  0  0  0  0  0  0
   -5.5486   -1.1670   -2.0401 H   0  0  0  0  0  0  0  0  0  0  0  0
   -7.8123   -0.1602   -2.0237 H   0  0  0  0  0  0  0  0  0  0  0  0
   -9.0733    0.0339    0.1032 H   0  0  0  0  0  0  0  0  0  0  0  0
   -8.0840   -0.7943    2.2215 H   0  0  0  0  0  0  0  0  0  0  0  0
   -5.8220   -1.8062    2.2253 H   0  0  0  0  0  0  0  0  0  0  0  0
   -3.5824    0.3635   -1.0426 H   0  0  0  0  0  0  0  0  0  0  0  0
   -2.0617   -0.4677   -1.3926 H   0  0  0  0  0  0  0  0  0  0  0  0
    2.1071    0.1073   -2.1148 H   0  0  0  0  0  0  0  0  0  0  0  0
    3.5790    0.5404   -0.0878 H   0  0  0  0  0  0  0  0  0  0  0  0
    3.8716    2.1253   -0.8230 H   0  0  0  0  0  0  0  0  0  0  0  0
    4.5153   -0.5835   -2.1231 H   0  0  0  0  0  0  0  0  0  0  0  0
    4.7088    0.9740   -2.9099 H   0  0  0  0  0  0  0  0  0  0  0  0
    6.8801    0.3140   -2.0923 H   0  0  0  0  0  0  0  0  0  0  0  0
    6.3485    1.6960   -1.1610 H   0  0  0  0  0  0  0  0  0  0  0  0
    6.5085   -2.0702   -1.1085 H   0  0  0  0  0  0  0  0  0  0  0  0
    6.8397   -3.3780    0.9593 H   0  0  0  0  0  0  0  0  0  0  0  0
    6.8839   -2.2403    3.1629 H   0  0  0  0  0  0  0  0  0  0  0  0
    6.5956    0.2197    3.2932 H   0  0  0  0  0  0  0  0  0  0  0  0
    6.2614    1.5436    1.2391 H   0  0  0  0  0  0  0  0  0  0  0  0
  1  2  2  0
  2  3  1  0
  3  4  1  0
  4  5  1  0
  5  6  1  0
  6  7  1  0
  7  8  1  0
  8  9  1  0
  9 10  1  0
 10 11  2  0
 10 12  2  0
 10 13  1  0
 13 14  2  0
 14 15  1  0
 15 16  2  0
 16 17  1  0
 17 18  2  0
  9 19  1  0
  2 20  1  0
 20 21  1  0
 21 22  1  0
 22 23  1  0
 23 24  1  0
 24 25  2  0
 25 26  1  0
 26 27  2  0
 27 28  1  0
 28 29  2  0
 19  5  1  0
 29 24  1  0
 18 13  1  0
  3 30  1  0
  3 31  1  0
  4 32  1  0
  4 33  1  0
  5 34  1  0
  6 35  1  0
  6 36  1  0
  7 37  1  0
  7 38  1  0
  8 39  1  0
  8 40  1  0
 14 41  1  0
 15 42  1  0
 16 43  1  0
 17 44  1  0
 18 45  1  0
 19 46  1  0
 19 47  1  0
 20 48  1  0
 21 49  1  0
 21 50  1  0
 22 51  1  0
 22 52  1  0
 23 53  1  0
 23 54  1  0
 25 55  1  0
 26 56  1  0
 27 57  1  0
 28 58  1  0
 29 59  1  0
M  END
$$$$
