
     RDKit          3D

 58 60  0  0  0  0  0  0  0  0999 V2000
    0.7617    0.0000    0.0000 Br  0  0  0  0  0  0  0  0  0  0  0  0
    6.8419    0.0915    2.3640 C   0  0  0  0  0  0  0  0  0  0  0  0
    5.7601   -0.0078    1.4595 O   0  0  0  0  0  0  0  0  0  0  0  0
    5.8485    0.6683    0.2558 C   0  0  0  0  0  0  0  0  0  0  0  0
    6.9669    1.4252   -0.0608 C   0  0  0  0  0  0  0  0  0  0  0  0
    7.0566    2.0978   -1.2573 C   0  0  0  0  0  0  0  0  0  0  0  0
    5.9926    1.9975   -2.1421 C   0  0  0  0  0  0  0  0  0  0  0  0
    4.8846    1.2448   -1.8231 C   0  0  0  0  0  0  0  0  0  0  0  0
    4.7811    0.5601   -0.6171 C   0  0  0  0  0  0  0  0  0  0  0  0
    3.6111   -0.1933   -0.3561 N   0  0  0  0  0  0  0  0  0  0  0  0
    2.7858    0.1556    0.7805 C   0  0  0  0  0  0  0  0  0  0  0  0
    1.8442   -0.9998    1.0693 C   0  0  0  0  0  0  0  0  0  0  0  0
    1.0574   -1.4108   -0.0443 N   0  0  0  0  0  0  0  0  0  0  0  0
   -0.2840   -0.8973   -0.0631 C   0  0  0  0  0  0  0  0  0  0  0  0
   -1.1481   -1.4562    1.0276 C   0  0  0  0  0  0  0  0  0  0  0  0
   -2.5380   -0.8708    0.9498 C   0  0  0  0  0  0  0  0  0  0  0  0
   -3.2404   -1.1522   -0.3441 C   0  0  0  0  0  0  0  0  0  0  0  0
   -4.5737   -0.5352   -0.2914 N   0  0  0  0  0  0  0  0  0  0  0  0
   -5.7605   -1.1486    0.1811 C   0  0  0  0  0  0  0  0  0  0  0  0
   -5.8075   -2.3238    0.6209 O   0  0  0  0  0  0  0  0  0  0  0  0
   -6.9044   -0.2340    0.0858 C   0  0  0  0  0  0  0  0  0  0  0  0
   -8.2376   -0.3403    0.4037 C   0  0  0  0  0  0  0  0  0  0  0  0
   -9.1045    0.6972    0.2059 C   0  0  0  0  0  0  0  0  0  0  0  0
   -8.6007    1.8754   -0.3304 C   0  0  0  0  0  0  0  0  0  0  0  0
   -7.2628    1.9765   -0.6474 C   0  0  0  0  0  0  0  0  0  0  0  0
   -6.3757    0.9379   -0.4533 C   0  0  0  0  0  0  0  0  0  0  0  0
   -4.9456    0.7771   -0.6934 C   0  0  0  0  0  0  0  0  0  0  0  0
   -4.1603    1.6583   -1.1795 O   0  0  0  0  0  0  0  0  0  0  0  0
    1.6651   -1.1188   -1.3281 C   0  0  0  0  0  0  0  0  0  0  0  0
    3.1706   -1.3127   -1.1648 C   0  0  0  0  0  0  0  0  0  0  0  0
   -0.7617    0.0000    0.0000 H   0  0  0  0  0  0  0  0  0  0  0  0
    6.6686   -0.6167    3.2010 H   0  0  0  0  0  0  0  0  0  0  0  0
    6.9603    1.1413    2.7333 H   0  0  0  0  0  0  0  0  0  0  0  0
    7.8145   -0.1734    1.8630 H   0  0  0  0  0  0  0  0  0  0  0  0
    7.7941    1.5027    0.6281 H   0  0  0  0  0  0  0  0  0  0  0  0
    7.9130    2.6969   -1.5365 H   0  0  0  0  0  0  0  0  0  0  0  0
    6.0496    2.5157   -3.0762 H   0  0  0  0  0  0  0  0  0  0  0  0
    4.0376    1.1596   -2.5171 H   0  0  0  0  0  0  0  0  0  0  0  0
    2.2359    1.1099    0.6358 H   0  0  0  0  0  0  0  0  0  0  0  0
    3.4548    0.2289    1.6656 H   0  0  0  0  0  0  0  0  0  0  0  0
    1.2526   -0.7598    1.9747 H   0  0  0  0  0  0  0  0  0  0  0  0
    2.5051   -1.8628    1.3663 H   0  0  0  0  0  0  0  0  0  0  0  0
   -0.3484    0.2085   -0.0995 H   0  0  0  0  0  0  0  0  0  0  0  0
   -0.7273   -1.2635   -1.0360 H   0  0  0  0  0  0  0  0  0  0  0  0
   -1.1987   -2.5603    0.9534 H   0  0  0  0  0  0  0  0  0  0  0  0
   -0.7637   -1.2283    2.0411 H   0  0  0  0  0  0  0  0  0  0  0  0
   -3.1451   -1.1730    1.8338 H   0  0  0  0  0  0  0  0  0  0  0  0
   -2.4485    0.2505    1.0265 H   0  0  0  0  0  0  0  0  0  0  0  0
   -2.6654   -0.6751   -1.1574 H   0  0  0  0  0  0  0  0  0  0  0  0
   -3.3864   -2.2268   -0.4449 H   0  0  0  0  0  0  0  0  0  0  0  0
   -8.5998   -1.2583    0.8155 H   0  0  0  0  0  0  0  0  0  0  0  0
  -10.1743    0.6177    0.4588 H   0  0  0  0  0  0  0  0  0  0  0  0
   -9.3005    2.6856   -0.4811 H   0  0  0  0  0  0  0  0  0  0  0  0
   -6.9167    2.9158   -1.0625 H   0  0  0  0  0  0  0  0  0  0  0  0
    1.4602   -0.0445   -1.5900 H   0  0  0  0  0  0  0  0  0  0  0  0
    1.2431   -1.7336   -2.1199 H   0  0  0  0  0  0  0  0  0  0  0  0
    3.2934   -2.2501   -0.5488 H   0  0  0  0  0  0  0  0  0  0  0  0
    3.6692   -1.3687   -2.1347 H   0  0  0  0  0  0  0  0  0  0  0  0
  2  3  1  0
  3  4  1  0
  4  5  2  0
  5  6  1  0
  6  7  2  0
  7  8  1  0
  8  9  2  0
  9 10  1  0
 10 11  1  0
 11 12  1  0
 12 13  1  0
 13 14  1  0
 14 15  1  0
 15 16  1  0
 16 17  1  0
 17 18  1  0
 18 19  1  0
 19 20  2  0
 19 21  1  0
 21 22  2  0
 22 23  1  0
 23 24  2  0
 24 25  1  0
 25 26  2  0
 26 27  1  0
 27 28  2  0
 13 29  1  0
 29 30  1  0
  9  4  1  0
 30 10  1  0
 27 18  1  0
 26 21  1  0
  1 31  1  0
  2 32  1  0
  2 33  1  0
  2 34  1  0
  5 35  1  0
  6 36  1  0
  7 37  1  0
  8 38  1  0
 11 39  1  0
 11 40  1  0
 12 41  1  0
 12 42  1  0
 14 43  1  0
 14 44  1  0
 15 45  1  0
 15 46  1  0
 16 47  1  0
 16 48  1  0
 17 49  1  0
 17 50  1  0
 22 51  1  0
 23 52  1  0
 24 53  1  0
 25 54  1  0
 29 55  1  0
 29 56  1  0
 30 57  1  0
 30 58  1  0
M  END
$$$$
