
     RDKit          3D

 32 32  0  0  0  0  0  0  0  0999 V2000
   -2.1206    3.3970    1.5716 C   0  0  0  0  0  0  0  0  0  0  0  0
   -1.1916    2.2004    1.4850 C   0  0  0  0  0  0  0  0  0  0  0  0
   -1.0130    1.8774    0.0995 O   0  0  0  0  0  0  0  0  0  0  0  0
   -0.3939    0.6626   -0.0382 C   0  0  0  0  0  0  0  0  0  0  0  0
    1.0037    0.6206    0.0463 C   0  0  0  0  0  0  0  0  0  0  0  0
    1.6963   -0.5802   -0.1532 C   0  0  0  0  0  0  0  0  0  0  0  0
    3.1016   -0.5390   -0.0419 N   0  0  0  0  0  0  0  0  0  0  0  0
    3.9896   -1.5899   -0.1907 C   0  0  0  0  0  0  0  0  0  0  0  0
    5.4198   -1.1476   -0.0077 C   0  0  0  0  0  0  0  0  0  0  0  0
    3.7174   -2.7566   -0.4470 O   0  0  0  0  0  0  0  0  0  0  0  0
    0.9705   -1.7344   -0.4537 C   0  0  0  0  0  0  0  0  0  0  0  0
   -0.4255   -1.6901   -0.5633 C   0  0  0  0  0  0  0  0  0  0  0  0
   -1.1163   -0.4878   -0.3650 C   0  0  0  0  0  0  0  0  0  0  0  0
   -2.5944   -0.4565   -0.4674 C   0  0  0  0  0  0  0  0  0  0  0  0
   -3.3323    0.1720    0.2725 O   0  0  0  0  0  0  0  0  0  0  0  0
   -2.9814   -1.2374   -1.5095 O   0  0  0  0  0  0  0  0  0  0  0  0
   -4.3939   -1.2634   -1.7165 C   0  0  0  0  0  0  0  0  0  0  0  0
   -3.0896    3.1663    1.1165 H   0  0  0  0  0  0  0  0  0  0  0  0
   -2.2805    3.6922    2.6124 H   0  0  0  0  0  0  0  0  0  0  0  0
   -1.7049    4.2483    1.0224 H   0  0  0  0  0  0  0  0  0  0  0  0
   -1.6278    1.3584    2.0362 H   0  0  0  0  0  0  0  0  0  0  0  0
   -0.2244    2.4579    1.9322 H   0  0  0  0  0  0  0  0  0  0  0  0
    1.5392    1.5422    0.2574 H   0  0  0  0  0  0  0  0  0  0  0  0
    3.5050    0.3660    0.1674 H   0  0  0  0  0  0  0  0  0  0  0  0
    5.7077   -0.4834   -0.8271 H   0  0  0  0  0  0  0  0  0  0  0  0
    6.0776   -2.0215   -0.0105 H   0  0  0  0  0  0  0  0  0  0  0  0
    5.5347   -0.6303    0.9492 H   0  0  0  0  0  0  0  0  0  0  0  0
    1.4591   -2.6904   -0.6179 H   0  0  0  0  0  0  0  0  0  0  0  0
   -0.9641   -2.6049   -0.8020 H   0  0  0  0  0  0  0  0  0  0  0  0
   -4.9013   -1.6847   -0.8431 H   0  0  0  0  0  0  0  0  0  0  0  0
   -4.5983   -1.9047   -2.5782 H   0  0  0  0  0  0  0  0  0  0  0  0
   -4.7683   -0.2586   -1.9361 H   0  0  0  0  0  0  0  0  0  0  0  0
  1  2  1  0
  2  3  1  0
  3  4  1  0
  4  5  2  0
  5  6  1  0
  6  7  1  0
  7  8  1  0
  8  9  1  0
  8 10  2  0
  6 11  2  0
 11 12  1  0
 12 13  2  0
 13 14  1  0
 14 15  2  0
 14 16  1  0
 16 17  1  0
 13  4  1  0
  1 18  1  0
  1 19  1  0
  1 20  1  0
  2 21  1  0
  2 22  1  0
  5 23  1  0
  7 24  1  0
  9 25  1  0
  9 26  1  0
  9 27  1  0
 11 28  1  0
 12 29  1  0
 17 30  1  0
 17 31  1  0
 17 32  1  0
M  END
$$$$
