
     RDKit          3D

 47 49  0  0  0  0  0  0  0  0999 V2000
   -5.3544    3.5487    0.3002 C   0  0  0  0  0  0  0  0  0  0  0  0
   -5.3177    2.4406   -0.7410 C   0  0  0  0  0  0  0  0  0  0  0  0
   -5.2237    1.1234   -0.1390 N   0  0  0  0  0  0  0  0  0  0  0  0
   -6.2351    0.2240    0.0128 C   0  0  0  0  0  0  0  0  0  0  0  0
   -5.6735   -0.8623    0.6371 C   0  0  0  0  0  0  0  0  0  0  0  0
   -4.2951   -0.5397    0.8231 C   0  0  0  0  0  0  0  0  0  0  0  0
   -3.3099   -1.4171    1.5025 C   0  0  0  0  0  0  0  0  0  0  0  0
   -3.7168   -2.4168    2.1033 O   0  0  0  0  0  0  0  0  0  0  0  0
   -1.9324   -1.1242    1.4739 N   0  0  0  0  0  0  0  0  0  0  0  0
   -1.0769   -1.8187    2.4428 C   0  0  0  0  0  0  0  0  0  0  0  0
    0.2663   -2.2017    1.8454 C   0  0  0  0  0  0  0  0  0  0  0  0
    0.8389   -1.0433    1.1949 N   0  0  0  0  0  0  0  0  0  0  0  0
    2.1670   -0.9225    1.0299 N   0  0  0  0  0  0  0  0  0  0  0  0
    2.3027    0.2732    0.4117 C   0  0  0  0  0  0  0  0  0  0  0  0
    3.6197    0.8185    0.0377 C   0  0  0  0  0  0  0  0  0  0  0  0
    3.7554    1.9065   -0.5142 O   0  0  0  0  0  0  0  0  0  0  0  0
    4.6597   -0.0138    0.3899 N   0  0  0  0  0  0  0  0  0  0  0  0
    6.0234    0.1940   -0.0536 C   0  0  0  0  0  0  0  0  0  0  0  0
    6.3948   -0.7182   -1.2280 C   0  0  0  0  0  0  0  0  0  0  0  0
    5.6707   -0.3374   -2.4003 O   0  0  0  0  0  0  0  0  0  0  0  0
    5.9640   -1.1827   -3.5038 C   0  0  0  0  0  0  0  0  0  0  0  0
    1.0360    0.8808    0.1980 C   0  0  0  0  0  0  0  0  0  0  0  0
    0.1099    0.0030    0.7165 C   0  0  0  0  0  0  0  0  0  0  0  0
   -1.3762    0.0580    0.8086 C   0  0  0  0  0  0  0  0  0  0  0  0
   -4.0422    0.6937    0.3408 N   0  0  0  0  0  0  0  0  0  0  0  0
   -5.4543    4.5236   -0.1862 H   0  0  0  0  0  0  0  0  0  0  0  0
   -4.4369    3.5611    0.9010 H   0  0  0  0  0  0  0  0  0  0  0  0
   -6.2006    3.4178    0.9857 H   0  0  0  0  0  0  0  0  0  0  0  0
   -6.2259    2.4628   -1.3547 H   0  0  0  0  0  0  0  0  0  0  0  0
   -4.4561    2.5586   -1.4098 H   0  0  0  0  0  0  0  0  0  0  0  0
   -7.2465    0.4258   -0.3162 H   0  0  0  0  0  0  0  0  0  0  0  0
   -6.1727   -1.7747    0.9384 H   0  0  0  0  0  0  0  0  0  0  0  0
   -1.5611   -2.7186    2.8366 H   0  0  0  0  0  0  0  0  0  0  0  0
   -0.9427   -1.1323    3.2904 H   0  0  0  0  0  0  0  0  0  0  0  0
    0.9569   -2.5471    2.6209 H   0  0  0  0  0  0  0  0  0  0  0  0
    0.1592   -2.9756    1.0777 H   0  0  0  0  0  0  0  0  0  0  0  0
    4.3699   -0.9091    0.7776 H   0  0  0  0  0  0  0  0  0  0  0  0
    6.1588    1.2442   -0.3344 H   0  0  0  0  0  0  0  0  0  0  0  0
    6.6682   -0.0263    0.8033 H   0  0  0  0  0  0  0  0  0  0  0  0
    7.4689   -0.6248   -1.4276 H   0  0  0  0  0  0  0  0  0  0  0  0
    6.1665   -1.7627   -0.9799 H   0  0  0  0  0  0  0  0  0  0  0  0
    5.3957   -0.8308   -4.3694 H   0  0  0  0  0  0  0  0  0  0  0  0
    7.0309   -1.1418   -3.7468 H   0  0  0  0  0  0  0  0  0  0  0  0
    5.6660   -2.2130   -3.2865 H   0  0  0  0  0  0  0  0  0  0  0  0
    0.8474    1.8359   -0.2735 H   0  0  0  0  0  0  0  0  0  0  0  0
   -1.7759    0.1193   -0.2079 H   0  0  0  0  0  0  0  0  0  0  0  0
   -1.6708    0.9414    1.3853 H   0  0  0  0  0  0  0  0  0  0  0  0
  1  2  1  0
  2  3  1  0
  3  4  1  0
  4  5  2  0
  5  6  1  0
  6  7  1  0
  7  8  2  0
  7  9  1  0
  9 10  1  0
 10 11  1  0
 11 12  1  0
 12 13  1  0
 13 14  2  0
 14 15  1  0
 15 16  2  0
 15 17  1  0
 17 18  1  0
 18 19  1  0
 19 20  1  0
 20 21  1  0
 14 22  1  0
 22 23  2  0
 23 24  1  0
  6 25  2  0
 25  3  1  0
 24  9  1  0
 23 12  1  0
  1 26  1  0
  1 27  1  0
  1 28  1  0
  2 29  1  0
  2 30  1  0
  4 31  1  0
  5 32  1  0
 10 33  1  0
 10 34  1  0
 11 35  1  0
 11 36  1  0
 17 37  1  0
 18 38  1  0
 18 39  1  0
 19 40  1  0
 19 41  1  0
 21 42  1  0
 21 43  1  0
 21 44  1  0
 22 45  1  0
 24 46  1  0
 24 47  1  0
M  END
$$$$
