
     RDKit          3D

 43 45  0  0  0  0  0  0  0  0999 V2000
    8.2258   -0.8822    0.3990 C   0  0  0  0  0  0  0  0  0  0  0  0
    6.9456   -0.5517    1.0757 C   0  0  0  0  0  0  0  0  0  0  0  0
    6.8333   -0.1541    2.3274 N   0  0  0  0  0  0  0  0  0  0  0  0
    5.5152    0.0656    2.6796 N   0  0  0  0  0  0  0  0  0  0  0  0
    4.6883   -0.1871    1.6857 C   0  0  0  0  0  0  0  0  0  0  0  0
    2.9590   -0.0699    1.8891 S   0  0  0  0  0  0  0  0  0  0  0  0
    2.6388    1.4623    0.9582 C   0  0  0  0  0  0  0  0  0  0  0  0
    1.1713    1.5257    0.5716 C   0  0  0  0  0  0  0  0  0  0  0  0
    0.7503    1.2118   -0.6816 C   0  0  0  0  0  0  0  0  0  0  0  0
    1.7966    0.7234   -1.7340 C   0  0  0  0  0  0  0  0  0  0  0  0
    2.0738   -0.5071   -1.6771 O   0  0  0  0  0  0  0  0  0  0  0  0
    2.3096    1.6562   -2.4186 O   0  0  0  0  0  1  0  0  0  0  0  0
   -0.5723    1.2704   -1.0022 N   0  0  0  0  0  0  0  0  0  0  0  0
   -1.3695    0.8825   -2.0213 C   0  0  0  0  0  0  0  0  0  0  0  0
   -1.1906    0.3831   -3.1065 O   0  0  0  0  0  0  0  0  0  0  0  0
   -2.6283    1.2050   -1.1222 C   0  0  1  0  0  0  0  0  0  0  0  0
   -3.2846   -0.0193   -0.5508 N   0  0  0  0  0  0  0  0  0  0  0  0
   -4.2906   -0.6735   -1.2263 C   0  0  0  0  0  0  0  0  0  0  0  0
   -4.8685   -0.1826   -2.1932 O   0  0  0  0  0  0  0  0  0  0  0  0
   -4.6137   -2.0522   -0.6986 C   0  0  0  0  0  0  0  0  0  0  0  0
   -6.0373   -2.2609   -0.5979 N   0  0  0  0  0  0  0  0  0  0  0  0
   -6.9665   -2.3250   -1.5887 C   0  0  0  0  0  0  0  0  0  0  0  0
   -8.1272   -2.6214   -1.0490 N   0  0  0  0  0  0  0  0  0  0  0  0
   -7.8965   -2.7377    0.3011 N   0  0  0  0  0  0  0  0  0  0  0  0
   -6.6164   -2.5346    0.5844 N   0  0  0  0  0  0  0  0  0  0  0  0
   -1.5847    1.9271   -0.2128 C   0  0  1  0  0  0  0  0  0  0  0  0
   -1.4647    1.3633    1.5106 S   0  0  0  0  0  0  0  0  0  0  0  0
    0.2480    1.9640    1.6913 C   0  0  0  0  0  0  0  0  0  0  0  0
    5.4534   -0.6909    0.2379 S   0  0  0  0  0  0  0  0  0  0  0  0
    0.0000    0.0000    0.0000 Na  0  0  0  0  0 15  0  0  0  0  0  0
    8.4986   -0.1090   -0.3282 H   0  0  0  0  0  0  0  0  0  0  0  0
    8.1534   -1.8435   -0.1201 H   0  0  0  0  0  0  0  0  0  0  0  0
    9.0332   -0.9610    1.1359 H   0  0  0  0  0  0  0  0  0  0  0  0
    2.8893    2.3202    1.5963 H   0  0  0  0  0  0  0  0  0  0  0  0
    3.3006    1.5333    0.0902 H   0  0  0  0  0  0  0  0  0  0  0  0
   -3.3478    1.8844   -1.5876 H   0  0  0  0  0  0  0  0  0  0  0  0
   -2.7535   -0.5154    0.1633 H   0  0  0  0  0  0  0  0  0  0  0  0
   -4.2044   -2.8059   -1.3813 H   0  0  0  0  0  0  0  0  0  0  0  0
   -4.1735   -2.2079    0.2929 H   0  0  0  0  0  0  0  0  0  0  0  0
   -6.7533   -2.1559   -2.6351 H   0  0  0  0  0  0  0  0  0  0  0  0
   -1.5785    3.0159   -0.3337 H   0  0  0  0  0  0  0  0  0  0  0  0
    0.2403    3.0587    1.7471 H   0  0  0  0  0  0  0  0  0  0  0  0
    0.5980    1.5958    2.6610 H   0  0  0  0  0  0  0  0  0  0  0  0
  1  2  1  0
  2  3  2  0
  3  4  1  0
  4  5  2  0
  5  6  1  0
  6  7  1  0
  7  8  1  0
  8  9  2  0
  9 10  1  0
 10 11  2  0
 10 12  1  0
  9 13  1  0
 13 14  1  0
 14 15  2  0
 14 16  1  0
 16 17  1  0
 17 18  1  0
 18 19  2  0
 18 20  1  0
 20 21  1  0
 21 22  1  0
 22 23  2  0
 23 24  1  0
 24 25  2  0
 16 26  1  0
 26 27  1  0
 27 28  1  0
  5 29  1  0
 29  2  1  0
 28  8  1  0
 26 13  1  0
 25 21  1  0
  1 31  1  0
  1 32  1  0
  1 33  1  0
  7 34  1  0
  7 35  1  0
 16 36  1  6
 17 37  1  0
 20 38  1  0
 20 39  1  0
 22 40  1  0
 26 41  1  1
 28 42  1  0
 28 43  1  0
M  CHG  2  12  -1  30   1
M  END
$$$$
