
     RDKit          3D

 48 51  0  0  0  0  0  0  0  0999 V2000
   -4.2653   -3.7817   -0.4013 C   0  0  0  0  0  0  0  0  0  0  0  0
   -2.7748   -3.5613   -0.4063 C   0  0  0  0  0  0  0  0  0  0  0  0
   -1.9975   -4.4705   -0.6909 O   0  0  0  0  0  0  0  0  0  0  0  0
   -2.3384   -2.3007   -0.0607 N   0  0  0  0  0  0  0  0  0  0  0  0
   -3.1718   -1.1656    0.3117 C   0  0  0  0  0  0  0  0  0  0  0  0
   -2.1895   -0.1719    0.9205 C   0  0  0  0  0  0  0  0  0  0  0  0
   -2.6940    1.2133    0.9110 C   0  0  0  0  0  0  0  0  0  0  0  0
   -3.5517    1.7960    0.1051 N   0  0  0  0  0  0  0  0  0  0  0  0
   -3.5820    3.0769    0.5956 C   0  0  0  0  0  0  0  0  0  0  0  0
   -4.4198    4.1363    0.0046 C   0  0  0  0  0  0  0  0  0  0  0  0
   -2.7942    3.2917    1.6566 N   0  0  0  0  0  0  0  0  0  0  0  0
   -2.1993    2.0488    1.8702 O   0  0  0  0  0  0  0  0  0  0  0  0
   -0.9313   -0.4493    0.0960 C   0  0  0  0  0  0  0  0  0  0  0  0
   -0.9214   -1.9715   -0.0988 C   0  0  0  0  0  0  0  0  0  0  0  0
   -0.7105    0.3199   -1.2323 C   0  0  0  0  0  0  0  0  0  0  0  0
    0.6677    0.5234   -0.7934 N   0  0  0  0  0  0  0  0  0  0  0  0
    1.7957    0.3305   -1.5605 C   0  0  0  0  0  0  0  0  0  0  0  0
    1.7576    0.1379   -2.7717 O   0  0  0  0  0  0  0  0  0  0  0  0
    3.1092    0.3567   -0.8707 C   0  0  0  0  0  0  0  0  0  0  0  0
    3.3779    1.2673    0.1596 C   0  0  0  0  0  0  0  0  0  0  0  0
    4.6309    1.2741    0.7799 C   0  0  0  0  0  0  0  0  0  0  0  0
    5.6233    0.3732    0.3748 C   0  0  0  0  0  0  0  0  0  0  0  0
    6.9823    0.3885    1.0068 C   0  0  0  0  0  0  0  0  0  0  0  0
    5.3472   -0.5045   -0.6784 C   0  0  0  0  0  0  0  0  0  0  0  0
    6.2946   -1.3534   -1.1016 F   0  0  0  0  0  0  0  0  0  0  0  0
    4.1058   -0.5202   -1.3039 C   0  0  0  0  0  0  0  0  0  0  0  0
    0.4039    0.1452    0.5889 C   0  0  0  0  0  0  0  0  0  0  0  0
   -4.6415   -3.7557    0.6246 H   0  0  0  0  0  0  0  0  0  0  0  0
   -4.4877   -4.7629   -0.8312 H   0  0  0  0  0  0  0  0  0  0  0  0
   -4.7667   -3.0241   -1.0089 H   0  0  0  0  0  0  0  0  0  0  0  0
   -3.9579   -1.4647    1.0118 H   0  0  0  0  0  0  0  0  0  0  0  0
   -3.6427   -0.7947   -0.6066 H   0  0  0  0  0  0  0  0  0  0  0  0
   -1.9999   -0.4730    1.9609 H   0  0  0  0  0  0  0  0  0  0  0  0
   -4.8433    3.8106   -0.9507 H   0  0  0  0  0  0  0  0  0  0  0  0
   -3.8315    5.0412   -0.1774 H   0  0  0  0  0  0  0  0  0  0  0  0
   -5.2468    4.3887    0.6755 H   0  0  0  0  0  0  0  0  0  0  0  0
   -0.4418   -2.4875    0.7406 H   0  0  0  0  0  0  0  0  0  0  0  0
   -0.4664   -2.3074   -1.0360 H   0  0  0  0  0  0  0  0  0  0  0  0
   -1.2268    1.2756   -1.3562 H   0  0  0  0  0  0  0  0  0  0  0  0
   -0.8167   -0.2639   -2.1513 H   0  0  0  0  0  0  0  0  0  0  0  0
    2.6284    1.9917    0.4688 H   0  0  0  0  0  0  0  0  0  0  0  0
    4.8303    1.9919    1.5732 H   0  0  0  0  0  0  0  0  0  0  0  0
    7.6763    0.9672    0.3895 H   0  0  0  0  0  0  0  0  0  0  0  0
    7.3685   -0.6298    1.1209 H   0  0  0  0  0  0  0  0  0  0  0  0
    6.9472    0.8354    2.0060 H   0  0  0  0  0  0  0  0  0  0  0  0
    3.9263   -1.2112   -2.1226 H   0  0  0  0  0  0  0  0  0  0  0  0
    0.3300    1.0182    1.2440 H   0  0  0  0  0  0  0  0  0  0  0  0
    1.1082   -0.5751    1.0141 H   0  0  0  0  0  0  0  0  0  0  0  0
  1  2  1  0
  2  3  2  0
  2  4  1  0
  4  5  1  0
  5  6  1  0
  6  7  1  0
  7  8  2  0
  8  9  1  0
  9 10  1  0
  9 11  2  0
 11 12  1  0
  6 13  1  0
 13 14  1  0
 13 15  1  0
 15 16  1  0
 16 17  1  0
 17 18  2  0
 17 19  1  0
 19 20  2  0
 20 21  1  0
 21 22  2  0
 22 23  1  0
 22 24  1  0
 24 25  1  0
 24 26  2  0
 16 27  1  0
 14  4  1  0
 26 19  1  0
 12  7  1  0
 27 13  1  0
  1 28  1  0
  1 29  1  0
  1 30  1  0
  5 31  1  0
  5 32  1  0
  6 33  1  0
 10 34  1  0
 10 35  1  0
 10 36  1  0
 14 37  1  0
 14 38  1  0
 15 39  1  0
 15 40  1  0
 20 41  1  0
 21 42  1  0
 23 43  1  0
 23 44  1  0
 23 45  1  0
 26 46  1  0
 27 47  1  0
 27 48  1  0
M  END
$$$$
