
     RDKit          3D

 41 43  0  0  0  0  0  0  0  0999 V2000
    5.8834    0.7999    2.5019 C   0  0  0  0  0  0  0  0  0  0  0  0
    5.9921    0.9534    1.0923 O   0  0  0  0  0  0  0  0  0  0  0  0
    5.0706    0.2996    0.3234 C   0  0  0  0  0  0  0  0  0  0  0  0
    4.0446   -0.5222    0.7916 C   0  0  0  0  0  0  0  0  0  0  0  0
    3.1639   -1.1308   -0.1102 C   0  0  0  0  0  0  0  0  0  0  0  0
    3.3082   -0.9182   -1.4816 C   0  0  0  0  0  0  0  0  0  0  0  0
    2.3691   -1.5012   -2.3807 N   0  0  0  0  0  0  0  0  0  0  0  0
    1.2780   -0.4658   -3.1534 S   0  0  0  0  0  6  0  0  0  0  0  0
    0.2704   -1.3081   -3.7615 O   0  0  0  0  0  0  0  0  0  0  0  0
    1.9797    0.5559   -3.8956 O   0  0  0  0  0  0  0  0  0  0  0  0
    0.3994    0.4033   -1.9298 C   0  0  0  0  0  0  0  0  0  0  0  0
    0.8613    1.5540   -1.3317 C   0  0  0  0  0  0  0  0  0  0  0  0
   -0.2128    2.1176   -0.1304 S   0  0  0  0  0  0  0  0  0  0  0  0
   -1.3374    0.8490   -0.4248 C   0  0  0  0  0  0  0  0  0  0  0  0
   -2.5743    0.8091    0.3574 C   0  0  0  0  0  0  0  0  0  0  0  0
   -2.7169    1.4290    1.4087 O   0  0  0  0  0  0  0  0  0  0  0  0
   -3.5587    0.0158   -0.1930 N   0  0  0  0  0  0  0  0  0  0  0  0
   -4.8041   -0.2063    0.3517 C   0  0  0  0  0  0  0  0  0  0  0  0
   -5.3636    0.2649    1.5593 C   0  0  0  0  0  0  0  0  0  0  0  0
   -6.6263   -0.2726    1.5885 C   0  0  0  0  0  0  0  0  0  0  0  0
   -7.7541   -0.2032    2.5328 C   0  0  0  0  0  0  0  0  0  0  0  0
   -6.8155   -1.0227    0.4719 O   0  0  0  0  0  0  0  0  0  0  0  0
   -5.6728   -0.9834   -0.3050 N   0  0  0  0  0  0  0  0  0  0  0  0
   -0.8688   -0.0057   -1.4096 C   0  0  0  0  0  0  0  0  0  0  0  0
    4.3306   -0.1005   -1.9543 C   0  0  0  0  0  0  0  0  0  0  0  0
    5.2086    0.5036   -1.0520 C   0  0  0  0  0  0  0  0  0  0  0  0
    4.9270    1.1870    2.8686 H   0  0  0  0  0  0  0  0  0  0  0  0
    6.0269   -0.2448    2.7968 H   0  0  0  0  0  0  0  0  0  0  0  0
    6.6808    1.3892    2.9649 H   0  0  0  0  0  0  0  0  0  0  0  0
    3.9004   -0.7076    1.8510 H   0  0  0  0  0  0  0  0  0  0  0  0
    2.3667   -1.7590    0.2770 H   0  0  0  0  0  0  0  0  0  0  0  0
    1.8948   -2.3400   -2.0499 H   0  0  0  0  0  0  0  0  0  0  0  0
    1.7842    2.0839   -1.5333 H   0  0  0  0  0  0  0  0  0  0  0  0
   -3.4342   -0.4254   -1.0913 H   0  0  0  0  0  0  0  0  0  0  0  0
   -4.9203    0.9067    2.3059 H   0  0  0  0  0  0  0  0  0  0  0  0
   -8.6362    0.2244    2.0463 H   0  0  0  0  0  0  0  0  0  0  0  0
   -7.5055    0.4213    3.3964 H   0  0  0  0  0  0  0  0  0  0  0  0
   -8.0109   -1.2022    2.8979 H   0  0  0  0  0  0  0  0  0  0  0  0
   -1.3922   -0.8918   -1.7505 H   0  0  0  0  0  0  0  0  0  0  0  0
    4.4572    0.0733   -3.0203 H   0  0  0  0  0  0  0  0  0  0  0  0
    6.0068    1.1415   -1.4252 H   0  0  0  0  0  0  0  0  0  0  0  0
  1  2  1  0
  2  3  1  0
  3  4  2  0
  4  5  1  0
  5  6  2  0
  6  7  1  0
  7  8  1  0
  8  9  2  0
  8 10  2  0
  8 11  1  0
 11 12  2  0
 12 13  1  0
 13 14  1  0
 14 15  1  0
 15 16  2  0
 15 17  1  0
 17 18  1  0
 18 19  1  0
 19 20  2  0
 20 21  1  0
 20 22  1  0
 22 23  1  0
 14 24  2  0
  6 25  1  0
 25 26  2  0
 26  3  1  0
 24 11  1  0
 23 18  2  0
  1 27  1  0
  1 28  1  0
  1 29  1  0
  4 30  1  0
  5 31  1  0
  7 32  1  0
 12 33  1  0
 17 34  1  0
 19 35  1  0
 21 36  1  0
 21 37  1  0
 21 38  1  0
 24 39  1  0
 25 40  1  0
 26 41  1  0
M  END
$$$$
