
     RDKit          3D

 35 36  0  0  0  0  0  0  0  0999 V2000
   -4.3671    2.3441    0.3804 C   0  0  0  0  0  0  0  0  0  0  0  0
   -4.0316    1.0321   -0.0467 O   0  0  0  0  0  0  0  0  0  0  0  0
   -2.7889    0.5526    0.2876 C   0  0  0  0  0  0  0  0  0  0  0  0
   -1.8489    1.2555    1.0470 C   0  0  0  0  0  0  0  0  0  0  0  0
   -0.6073    0.6862    1.3398 C   0  0  0  0  0  0  0  0  0  0  0  0
   -0.2840   -0.5946    0.8787 C   0  0  0  0  0  0  0  0  0  0  0  0
    1.0653   -1.2007    1.1945 C   0  0  0  0  0  0  0  0  0  0  0  0
    2.2030   -0.5614    0.4542 C   0  0  0  0  0  0  0  0  0  0  0  0
    2.3915   -0.7946   -0.8936 C   0  0  0  0  0  0  0  0  0  0  0  0
    3.3742   -0.2398   -1.6248 N   0  0  0  0  0  0  0  0  0  0  0  0
    4.1912    0.5881   -0.9754 C   0  0  0  0  0  0  0  0  0  0  0  0
    5.1912    1.1962   -1.7070 N   0  0  0  0  0  0  0  0  0  0  0  0
    4.0888    0.9063    0.3169 N   0  0  0  0  0  0  0  0  0  0  0  0
    3.1079    0.3187    1.0169 C   0  0  0  0  0  0  0  0  0  0  0  0
    3.0477    0.6841    2.3630 N   0  0  0  0  0  0  0  0  0  0  0  0
   -1.2275   -1.3011    0.1162 C   0  0  0  0  0  0  0  0  0  0  0  0
   -2.4756   -0.7385   -0.1824 C   0  0  0  0  0  0  0  0  0  0  0  0
   -3.4517   -1.3636   -0.9195 O   0  0  0  0  0  0  0  0  0  0  0  0
   -3.1670   -2.6544   -1.4372 C   0  0  0  0  0  0  0  0  0  0  0  0
   -5.3748    2.5668    0.0165 H   0  0  0  0  0  0  0  0  0  0  0  0
   -3.6873    3.0868   -0.0502 H   0  0  0  0  0  0  0  0  0  0  0  0
   -4.3869    2.4106    1.4732 H   0  0  0  0  0  0  0  0  0  0  0  0
   -2.0489    2.2514    1.4271 H   0  0  0  0  0  0  0  0  0  0  0  0
    0.1105    1.2551    1.9294 H   0  0  0  0  0  0  0  0  0  0  0  0
    1.2180   -1.1623    2.2799 H   0  0  0  0  0  0  0  0  0  0  0  0
    1.0584   -2.2740    0.9601 H   0  0  0  0  0  0  0  0  0  0  0  0
    1.7318   -1.4541   -1.4510 H   0  0  0  0  0  0  0  0  0  0  0  0
    5.4349    2.0761   -1.2749 H   0  0  0  0  0  0  0  0  0  0  0  0
    4.9214    1.2196   -2.6806 H   0  0  0  0  0  0  0  0  0  0  0  0
    3.1082   -0.1239    2.9721 H   0  0  0  0  0  0  0  0  0  0  0  0
    3.8298    1.3162    2.5253 H   0  0  0  0  0  0  0  0  0  0  0  0
   -0.9683   -2.2942   -0.2354 H   0  0  0  0  0  0  0  0  0  0  0  0
   -2.3169   -2.6256   -2.1268 H   0  0  0  0  0  0  0  0  0  0  0  0
   -2.9990   -3.3751   -0.6303 H   0  0  0  0  0  0  0  0  0  0  0  0
   -4.0419   -2.9885   -2.0032 H   0  0  0  0  0  0  0  0  0  0  0  0
  1  2  1  0
  2  3  1  0
  3  4  2  0
  4  5  1  0
  5  6  2  0
  6  7  1  0
  7  8  1  0
  8  9  2  0
  9 10  1  0
 10 11  2  0
 11 12  1  0
 11 13  1  0
 13 14  2  0
 14 15  1  0
  6 16  1  0
 16 17  2  0
 17 18  1  0
 18 19  1  0
 17  3  1  0
 14  8  1  0
  1 20  1  0
  1 21  1  0
  1 22  1  0
  4 23  1  0
  5 24  1  0
  7 25  1  0
  7 26  1  0
  9 27  1  0
 12 28  1  0
 12 29  1  0
 15 30  1  0
 15 31  1  0
 16 32  1  0
 19 33  1  0
 19 34  1  0
 19 35  1  0
M  END
$$$$
