
     RDKit          3D

 67 71  0  0  0  0  0  0  0  0999 V2000
   11.2506    0.6475   -1.0407 C   0  0  0  0  0  0  0  0  0  0  0  0
   10.5108    0.2133    0.0931 O   0  0  0  0  0  0  0  0  0  0  0  0
    9.1725   -0.0034   -0.0867 C   0  0  0  0  0  0  0  0  0  0  0  0
    8.4919   -0.4381    1.0508 C   0  0  0  0  0  0  0  0  0  0  0  0
    7.1174   -0.6943    1.0052 C   0  0  0  0  0  0  0  0  0  0  0  0
    6.3918   -0.5185   -0.1816 C   0  0  0  0  0  0  0  0  0  0  0  0
    4.9463   -0.7770   -0.2159 C   0  0  0  0  0  0  0  0  0  0  0  0
    4.0251   -0.5196   -1.2716 C   0  0  0  0  0  0  0  0  0  0  0  0
    2.7864   -0.9083   -0.8056 C   0  0  0  0  0  0  0  0  0  0  0  0
    3.0227   -1.4019    0.4466 N   0  0  0  0  0  0  0  0  0  0  0  0
    4.2997   -1.3038    0.8388 N   0  0  0  0  0  0  0  0  0  0  0  0
    2.0109   -1.8617    1.3750 C   0  0  0  0  0  0  0  0  0  0  0  0
    1.0954   -0.7287    1.8339 C   0  0  0  0  0  0  0  0  0  0  0  0
    0.7314    0.2681    0.7290 C   0  0  0  0  0  0  0  0  0  0  0  0
    0.3661   -0.4019   -0.5255 N   0  0  0  0  0  0  0  0  0  0  0  0
   -0.9384   -0.6651   -0.9454 C   0  0  0  0  0  0  0  0  0  0  0  0
   -1.1567   -1.2767   -1.9929 O   0  0  0  0  0  0  0  0  0  0  0  0
   -2.0957   -0.1351   -0.1020 C   0  0  0  0  0  0  0  0  0  0  0  0
   -2.3475    1.3425   -0.4080 C   0  0  0  0  0  0  0  0  0  0  0  0
   -3.4558    1.9106    0.4796 C   0  0  0  0  0  0  0  0  0  0  0  0
   -4.3244    0.8320    1.1283 C   0  0  0  0  0  0  0  0  0  0  0  0
   -4.6112   -0.2282    0.1444 N   0  0  0  0  0  0  0  0  0  0  0  0
   -5.8896   -1.2851    0.5039 S   0  0  0  0  0  6  0  0  0  0  0  0
   -5.8814   -2.3236   -0.5014 O   0  0  0  0  0  0  0  0  0  0  0  0
   -5.8302   -1.5916    1.9128 O   0  0  0  0  0  0  0  0  0  0  0  0
   -7.2112   -0.3305    0.2044 N   0  0  0  0  0  0  0  0  0  0  0  0
   -7.4268    0.2318   -1.1363 C   0  0  0  0  0  0  0  0  0  0  0  0
   -8.5291    1.2628   -0.9196 C   0  0  0  0  0  0  0  0  0  0  0  0
   -8.2459    1.7698    0.4842 C   0  0  0  0  0  0  0  0  0  0  0  0
   -7.8449    0.5028    1.2306 C   0  0  0  0  0  0  0  0  0  0  0  0
   -3.3841   -0.9305   -0.3699 C   0  0  0  0  0  0  0  0  0  0  0  0
    1.4357   -0.8558   -1.4300 C   0  0  0  0  0  0  0  0  0  0  0  0
    7.0848   -0.0856   -1.3212 C   0  0  0  0  0  0  0  0  0  0  0  0
    8.4637    0.1706   -1.2746 C   0  0  0  0  0  0  0  0  0  0  0  0
   12.2939    0.7701   -0.7332 H   0  0  0  0  0  0  0  0  0  0  0  0
   10.8923    1.6191   -1.3980 H   0  0  0  0  0  0  0  0  0  0  0  0
   11.2243   -0.1025   -1.8393 H   0  0  0  0  0  0  0  0  0  0  0  0
    9.0324   -0.5802    1.9836 H   0  0  0  0  0  0  0  0  0  0  0  0
    6.6155   -1.0319    1.9099 H   0  0  0  0  0  0  0  0  0  0  0  0
    4.2306   -0.0865   -2.2401 H   0  0  0  0  0  0  0  0  0  0  0  0
    1.4407   -2.6467    0.8631 H   0  0  0  0  0  0  0  0  0  0  0  0
    2.5069   -2.3279    2.2348 H   0  0  0  0  0  0  0  0  0  0  0  0
    0.1832   -1.1717    2.2514 H   0  0  0  0  0  0  0  0  0  0  0  0
    1.5745   -0.1747    2.6506 H   0  0  0  0  0  0  0  0  0  0  0  0
   -0.0841    0.8957    1.0938 H   0  0  0  0  0  0  0  0  0  0  0  0
    1.5546    0.9640    0.5282 H   0  0  0  0  0  0  0  0  0  0  0  0
   -1.8453   -0.2703    0.9565 H   0  0  0  0  0  0  0  0  0  0  0  0
   -1.4424    1.9504   -0.3038 H   0  0  0  0  0  0  0  0  0  0  0  0
   -2.6450    1.4460   -1.4611 H   0  0  0  0  0  0  0  0  0  0  0  0
   -3.0153    2.5292    1.2720 H   0  0  0  0  0  0  0  0  0  0  0  0
   -4.0815    2.5804   -0.1246 H   0  0  0  0  0  0  0  0  0  0  0  0
   -3.8198    0.4047    2.0030 H   0  0  0  0  0  0  0  0  0  0  0  0
   -5.2373    1.3140    1.4795 H   0  0  0  0  0  0  0  0  0  0  0  0
   -6.5220    0.7272   -1.5015 H   0  0  0  0  0  0  0  0  0  0  0  0
   -7.7393   -0.5367   -1.8482 H   0  0  0  0  0  0  0  0  0  0  0  0
   -8.5102    2.0577   -1.6703 H   0  0  0  0  0  0  0  0  0  0  0  0
   -9.5130    0.7793   -0.9543 H   0  0  0  0  0  0  0  0  0  0  0  0
   -7.4085    2.4779    0.4655 H   0  0  0  0  0  0  0  0  0  0  0  0
   -9.1075    2.2684    0.9373 H   0  0  0  0  0  0  0  0  0  0  0  0
   -8.7328   -0.0195    1.6031 H   0  0  0  0  0  0  0  0  0  0  0  0
   -7.2017    0.7277    2.0827 H   0  0  0  0  0  0  0  0  0  0  0  0
   -3.5376   -1.0843   -1.4448 H   0  0  0  0  0  0  0  0  0  0  0  0
   -3.2832   -1.9179    0.0976 H   0  0  0  0  0  0  0  0  0  0  0  0
    1.4437   -0.1610   -2.2788 H   0  0  0  0  0  0  0  0  0  0  0  0
    1.1842   -1.8476   -1.8241 H   0  0  0  0  0  0  0  0  0  0  0  0
    6.5702    0.0576   -2.2670 H   0  0  0  0  0  0  0  0  0  0  0  0
    8.9492    0.5035   -2.1857 H   0  0  0  0  0  0  0  0  0  0  0  0
  1  2  1  0
  2  3  1  0
  3  4  2  0
  4  5  1  0
  5  6  2  0
  6  7  1  0
  7  8  1  0
  8  9  2  0
  9 10  1  0
 10 11  1  0
 10 12  1  0
 12 13  1  0
 13 14  1  0
 14 15  1  0
 15 16  1  0
 16 17  2  0
 16 18  1  0
 18 19  1  0
 19 20  1  0
 20 21  1  0
 21 22  1  0
 22 23  1  0
 23 24  2  0
 23 25  2  0
 23 26  1  0
 26 27  1  0
 27 28  1  0
 28 29  1  0
 29 30  1  0
 22 31  1  0
 15 32  1  0
  6 33  1  0
 33 34  2  0
 34  3  1  0
 11  7  2  0
 31 18  1  0
 32  9  1  0
 30 26  1  0
  1 35  1  0
  1 36  1  0
  1 37  1  0
  4 38  1  0
  5 39  1  0
  8 40  1  0
 12 41  1  0
 12 42  1  0
 13 43  1  0
 13 44  1  0
 14 45  1  0
 14 46  1  0
 18 47  1  0
 19 48  1  0
 19 49  1  0
 20 50  1  0
 20 51  1  0
 21 52  1  0
 21 53  1  0
 27 54  1  0
 27 55  1  0
 28 56  1  0
 28 57  1  0
 29 58  1  0
 29 59  1  0
 30 60  1  0
 30 61  1  0
 31 62  1  0
 31 63  1  0
 32 64  1  0
 32 65  1  0
 33 66  1  0
 34 67  1  0
M  END
$$$$
