
     RDKit          3D

 39 42  0  0  0  0  0  0  0  0999 V2000
   -1.3106    2.3580    3.2492 C   0  0  0  0  0  0  0  0  0  0  0  0
   -1.7124    1.3711    2.2260 N   0  0  0  0  0  0  0  0  0  0  0  0
   -0.7155    0.8268    1.3176 C   0  0  0  0  0  0  0  0  0  0  0  0
    0.6073    1.3021    1.3335 C   0  0  0  0  0  0  0  0  0  0  0  0
    1.5621    0.8176    0.4360 C   0  0  0  0  0  0  0  0  0  0  0  0
    1.2003   -0.1384   -0.5104 C   0  0  0  0  0  0  0  0  0  0  0  0
    2.1763   -0.7035   -1.4843 C   0  0  0  0  0  0  0  0  0  0  0  0
    1.9971   -1.8264   -1.9435 O   0  0  0  0  0  0  0  0  0  0  0  0
    3.2291    0.1176   -1.8438 N   0  0  0  0  0  0  0  0  0  0  0  0
    4.2115   -0.2924   -2.7974 C   0  0  0  0  0  0  0  0  0  0  0  0
    5.5268   -0.8562   -2.3373 C   0  0  0  0  0  0  0  0  0  0  0  0
    5.4780    0.4980   -2.9811 C   0  0  0  0  0  0  0  0  0  0  0  0
   -0.1198   -0.6097   -0.5420 C   0  0  0  0  0  0  0  0  0  0  0  0
   -1.1103   -0.1226    0.3386 C   0  0  0  0  0  0  0  0  0  0  0  0
   -2.5129   -0.6080    0.2508 C   0  0  0  0  0  0  0  0  0  0  0  0
   -3.0623   -1.1309   -0.9361 C   0  0  0  0  0  0  0  0  0  0  0  0
   -4.3858   -1.5882   -0.9963 C   0  0  0  0  0  0  0  0  0  0  0  0
   -5.2038   -1.5262    0.1273 C   0  0  0  0  0  0  0  0  0  0  0  0
   -4.7010   -1.0003    1.3112 C   0  0  0  0  0  0  0  0  0  0  0  0
   -3.3723   -0.5563    1.3582 C   0  0  0  0  0  0  0  0  0  0  0  0
   -2.7728    0.1734    2.8441 S   0  0  0  0  0  6  0  0  0  0  0  0
   -3.8804    0.8544    3.4847 O   0  0  0  0  0  0  0  0  0  0  0  0
   -1.9936   -0.8208    3.5512 O   0  0  0  0  0  0  0  0  0  0  0  0
   -0.8650    3.2374    2.7726 H   0  0  0  0  0  0  0  0  0  0  0  0
   -2.1808    2.7275    3.8003 H   0  0  0  0  0  0  0  0  0  0  0  0
   -0.5991    1.9263    3.9598 H   0  0  0  0  0  0  0  0  0  0  0  0
    0.9348    2.0390    2.0603 H   0  0  0  0  0  0  0  0  0  0  0  0
    2.5849    1.1741    0.5191 H   0  0  0  0  0  0  0  0  0  0  0  0
    3.2140    1.0926   -1.5760 H   0  0  0  0  0  0  0  0  0  0  0  0
    3.7783   -0.7346   -3.6931 H   0  0  0  0  0  0  0  0  0  0  0  0
    5.7153   -0.9138   -1.2720 H   0  0  0  0  0  0  0  0  0  0  0  0
    5.9418   -1.6814   -2.9047 H   0  0  0  0  0  0  0  0  0  0  0  0
    5.8711    0.5940   -3.9869 H   0  0  0  0  0  0  0  0  0  0  0  0
    5.6561    1.3606   -2.3510 H   0  0  0  0  0  0  0  0  0  0  0  0
   -0.3623   -1.3835   -1.2693 H   0  0  0  0  0  0  0  0  0  0  0  0
   -2.4765   -1.1804   -1.8517 H   0  0  0  0  0  0  0  0  0  0  0  0
   -4.7765   -1.9883   -1.9295 H   0  0  0  0  0  0  0  0  0  0  0  0
   -6.2315   -1.8769    0.0766 H   0  0  0  0  0  0  0  0  0  0  0  0
   -5.3398   -0.9319    2.1892 H   0  0  0  0  0  0  0  0  0  0  0  0
  1  2  1  0
  2  3  1  0
  3  4  2  0
  4  5  1  0
  5  6  2  0
  6  7  1  0
  7  8  2  0
  7  9  1  0
  9 10  1  0
 10 11  1  0
 11 12  1  0
  6 13  1  0
 13 14  2  0
 14 15  1  0
 15 16  2  0
 16 17  1  0
 17 18  2  0
 18 19  1  0
 19 20  2  0
 20 21  1  0
 21 22  2  0
 21 23  2  0
 21  2  1  0
 14  3  1  0
 20 15  1  0
 12 10  1  0
  1 24  1  0
  1 25  1  0
  1 26  1  0
  4 27  1  0
  5 28  1  0
  9 29  1  0
 10 30  1  0
 11 31  1  0
 11 32  1  0
 12 33  1  0
 12 34  1  0
 13 35  1  0
 16 36  1  0
 17 37  1  0
 18 38  1  0
 19 39  1  0
M  END
$$$$
