
     RDKit          3D

 53 55  0  0  0  0  0  0  0  0999 V2000
   -1.2546    3.0395   -1.1066 O   0  0  0  0  0  0  0  0  0  0  0  0
   -1.3869    1.9265   -0.6012 C   0  0  0  0  0  0  0  0  0  0  0  0
   -0.6708    1.5691    0.5211 N   0  0  0  0  0  0  0  0  0  0  0  0
    0.3958    2.4014    1.0482 C   0  0  0  0  0  0  0  0  0  0  0  0
    1.4708    1.4715    1.4584 N   0  0  0  0  0  0  0  0  0  0  0  0
    2.4322    0.8886    0.6434 C   0  0  0  0  0  0  0  0  0  0  0  0
    2.5577    1.1797   -0.9931 S   0  0  0  0  0  0  0  0  0  0  0  0
    3.2702    0.0998    1.4269 N   0  0  0  0  0  0  0  0  0  0  0  0
    4.2555   -0.8530    1.0788 C   0  0  0  0  0  0  0  0  0  0  0  0
    5.1993   -1.1733    2.0731 C   0  0  0  0  0  0  0  0  0  0  0  0
    6.2170   -2.1061    1.8351 C   0  0  0  0  0  0  0  0  0  0  0  0
    6.2911   -2.7429    0.6026 C   0  0  0  0  0  0  0  0  0  0  0  0
    7.2818   -3.6172    0.3783 F   0  0  0  0  0  0  0  0  0  0  0  0
    5.3424   -2.4531   -0.3656 C   0  0  0  0  0  0  0  0  0  0  0  0
    5.4071   -3.1436   -1.6311 N   0  0  0  0  0  4  0  0  0  0  0  0
    5.5026   -2.4447   -2.6489 O   0  0  0  0  0  0  0  0  0  0  0  0
    5.3197   -4.3776   -1.6086 O   0  0  0  0  0  1  0  0  0  0  0  0
    4.3178   -1.5222   -0.1460 C   0  0  0  0  0  0  0  0  0  0  0  0
   -0.0501    3.3575    2.2285 C   0  0  0  0  0  0  0  0  0  0  0  0
   -1.3457    4.5009    1.7777 Cl  0  0  0  0  0  0  0  0  0  0  0  0
    1.3592    4.3052    2.8328 Cl  0  0  0  0  0  0  0  0  0  0  0  0
   -0.6481    2.3589    3.6177 Cl  0  0  0  0  0  0  0  0  0  0  0  0
   -2.3808    0.8834   -1.1618 C   0  0  0  0  0  0  0  0  0  0  0  0
   -3.8452    1.2576   -0.9305 C   0  0  0  0  0  0  0  0  0  0  0  0
   -4.2679    2.0110    0.1770 C   0  0  0  0  0  0  0  0  0  0  0  0
   -5.6201    2.3128    0.3594 C   0  0  0  0  0  0  0  0  0  0  0  0
   -6.5689    1.8606   -0.5548 C   0  0  0  0  0  0  0  0  0  0  0  0
   -6.1688    1.1034   -1.6529 C   0  0  0  0  0  0  0  0  0  0  0  0
   -4.8182    0.8019   -1.8392 C   0  0  0  0  0  0  0  0  0  0  0  0
   -2.0275   -0.5584   -0.7764 C   0  0  0  0  0  0  0  0  0  0  0  0
   -0.9769   -1.2063   -1.4535 C   0  0  0  0  0  0  0  0  0  0  0  0
   -0.5816   -2.4955   -1.0930 C   0  0  0  0  0  0  0  0  0  0  0  0
   -1.2281   -3.1576   -0.0516 C   0  0  0  0  0  0  0  0  0  0  0  0
   -2.2705   -2.5320    0.6289 C   0  0  0  0  0  0  0  0  0  0  0  0
   -2.6660   -1.2403    0.2737 C   0  0  0  0  0  0  0  0  0  0  0  0
   -0.7599    0.6299    0.8888 H   0  0  0  0  0  0  0  0  0  0  0  0
    0.7819    3.0347    0.2418 H   0  0  0  0  0  0  0  0  0  0  0  0
    1.3107    1.0100    2.3442 H   0  0  0  0  0  0  0  0  0  0  0  0
    3.3111    0.4068    2.3917 H   0  0  0  0  0  0  0  0  0  0  0  0
    5.1673   -0.6878    3.0461 H   0  0  0  0  0  0  0  0  0  0  0  0
    6.9526   -2.3318    2.6024 H   0  0  0  0  0  0  0  0  0  0  0  0
    3.5801   -1.3693   -0.9254 H   0  0  0  0  0  0  0  0  0  0  0  0
   -2.2293    0.9472   -2.2517 H   0  0  0  0  0  0  0  0  0  0  0  0
   -3.5573    2.3808    0.9118 H   0  0  0  0  0  0  0  0  0  0  0  0
   -5.9320    2.9072    1.2152 H   0  0  0  0  0  0  0  0  0  0  0  0
   -7.6199    2.1002   -0.4119 H   0  0  0  0  0  0  0  0  0  0  0  0
   -6.9078    0.7484   -2.3668 H   0  0  0  0  0  0  0  0  0  0  0  0
   -4.5266    0.2047   -2.7021 H   0  0  0  0  0  0  0  0  0  0  0  0
   -0.4526   -0.7057   -2.2672 H   0  0  0  0  0  0  0  0  0  0  0  0
    0.2291   -2.9828   -1.6281 H   0  0  0  0  0  0  0  0  0  0  0  0
   -0.9255   -4.1652    0.2230 H   0  0  0  0  0  0  0  0  0  0  0  0
   -2.7820   -3.0531    1.4351 H   0  0  0  0  0  0  0  0  0  0  0  0
   -3.4832   -0.7799    0.8256 H   0  0  0  0  0  0  0  0  0  0  0  0
  1  2  2  0
  2  3  1  0
  3  4  1  0
  4  5  1  0
  5  6  1  0
  6  7  2  0
  6  8  1  0
  8  9  1  0
  9 10  2  0
 10 11  1  0
 11 12  2  0
 12 13  1  0
 12 14  1  0
 14 15  1  0
 15 16  2  0
 15 17  1  0
 14 18  2  0
  4 19  1  0
 19 20  1  0
 19 21  1  0
 19 22  1  0
  2 23  1  0
 23 24  1  0
 24 25  2  0
 25 26  1  0
 26 27  2  0
 27 28  1  0
 28 29  2  0
 23 30  1  0
 30 31  2  0
 31 32  1  0
 32 33  2  0
 33 34  1  0
 34 35  2  0
 18  9  1  0
 29 24  1  0
 35 30  1  0
  3 36  1  0
  4 37  1  0
  5 38  1  0
  8 39  1  0
 10 40  1  0
 11 41  1  0
 18 42  1  0
 23 43  1  0
 25 44  1  0
 26 45  1  0
 27 46  1  0
 28 47  1  0
 29 48  1  0
 31 49  1  0
 32 50  1  0
 33 51  1  0
 34 52  1  0
 35 53  1  0
M  CHG  2  15   1  17  -1
M  END
$$$$
