
     RDKit          3D

 56 58  0  0  0  0  0  0  0  0999 V2000
   -0.7840    2.2382   -3.3273 C   0  0  0  0  0  0  0  0  0  0  0  0
   -0.0802    0.9133   -3.0684 C   0  0  0  0  0  0  0  0  0  0  0  0
   -1.0227   -0.2919   -3.1218 C   0  0  0  0  0  0  0  0  0  0  0  0
   -2.0316   -0.3179   -2.0180 C   0  0  0  0  0  0  0  0  0  0  0  0
   -3.2931    0.0343   -2.2630 N   0  0  0  0  0  0  0  0  0  0  0  0
   -3.9388   -0.0496   -1.0633 N   0  0  0  0  0  0  0  0  0  0  0  0
   -3.1095   -0.6029   -0.0835 C   0  0  0  0  0  0  0  0  0  0  0  0
   -1.8573   -0.7009   -0.6710 C   0  0  0  0  0  0  0  0  0  0  0  0
   -0.6721   -1.1867    0.0002 C   0  0  0  0  0  0  0  0  0  0  0  0
   -0.3369   -2.5381   -0.0517 C   0  0  0  0  0  0  0  0  0  0  0  0
    0.8115   -2.9985    0.5972 C   0  0  0  0  0  0  0  0  0  0  0  0
    1.6563   -2.1207    1.3019 C   0  0  0  0  0  0  0  0  0  0  0  0
    2.8643   -2.7029    1.9811 C   0  0  0  0  0  0  0  0  0  0  0  0
    1.3139   -0.7559    1.3358 C   0  0  0  0  0  0  0  0  0  0  0  0
    2.2764    0.4949    2.1753 S   0  0  0  0  0  6  0  0  0  0  0  0
    1.3418    1.4047    2.8015 O   0  0  0  0  0  0  0  0  0  0  0  0
    3.3512   -0.1121    2.9228 O   0  0  0  0  0  0  0  0  0  0  0  0
    2.9542    1.3414    0.8980 N   0  0  0  0  0  0  0  0  0  0  0  0
    3.8068    0.6514   -0.0800 C   0  0  0  0  0  0  0  0  0  0  0  0
    4.8273    1.6235   -0.6875 C   0  0  0  0  0  0  0  0  0  0  0  0
    6.0480    1.7092    0.0502 O   0  0  0  0  0  0  0  0  0  0  0  0
    5.9094    2.3273    1.3227 C   0  0  0  0  0  0  0  0  0  0  0  0
    0.1467   -0.2980    0.6975 C   0  0  0  0  0  0  0  0  0  0  0  0
   -3.4212   -0.9779    1.2156 N   0  0  0  0  0  0  0  0  0  0  0  0
   -4.6440   -1.1441    1.7931 C   0  0  0  0  0  0  0  0  0  0  0  0
   -4.7104   -1.5641    2.9482 O   0  0  0  0  0  0  0  0  0  0  0  0
   -5.8872   -0.8683    0.9987 C   0  0  0  0  0  0  0  0  0  0  0  0
   -5.8235    0.5139    0.3968 C   0  0  0  0  0  0  0  0  0  0  0  0
   -5.2522    0.4516   -0.9830 C   0  0  0  0  0  0  0  0  0  0  0  0
   -5.8430    0.8530   -1.9809 O   0  0  0  0  0  0  0  0  0  0  0  0
   -0.0531    3.0529   -3.3520 H   0  0  0  0  0  0  0  0  0  0  0  0
   -1.3071    2.2238   -4.2886 H   0  0  0  0  0  0  0  0  0  0  0  0
   -1.5103    2.4669   -2.5414 H   0  0  0  0  0  0  0  0  0  0  0  0
    0.6974    0.7798   -3.8302 H   0  0  0  0  0  0  0  0  0  0  0  0
    0.4314    0.9613   -2.1005 H   0  0  0  0  0  0  0  0  0  0  0  0
   -0.4228   -1.2092   -3.0700 H   0  0  0  0  0  0  0  0  0  0  0  0
   -1.5303   -0.3175   -4.0946 H   0  0  0  0  0  0  0  0  0  0  0  0
   -0.9651   -3.2459   -0.5895 H   0  0  0  0  0  0  0  0  0  0  0  0
    1.0431   -4.0624    0.5493 H   0  0  0  0  0  0  0  0  0  0  0  0
    2.9484   -3.7795    1.7939 H   0  0  0  0  0  0  0  0  0  0  0  0
    3.7818   -2.2473    1.5982 H   0  0  0  0  0  0  0  0  0  0  0  0
    2.7935   -2.5753    3.0656 H   0  0  0  0  0  0  0  0  0  0  0  0
    2.4373    2.1730    0.6173 H   0  0  0  0  0  0  0  0  0  0  0  0
    3.1554    0.2778   -0.8776 H   0  0  0  0  0  0  0  0  0  0  0  0
    4.3289   -0.1914    0.3818 H   0  0  0  0  0  0  0  0  0  0  0  0
    5.1091    1.2462   -1.6767 H   0  0  0  0  0  0  0  0  0  0  0  0
    4.4089    2.6266   -0.8326 H   0  0  0  0  0  0  0  0  0  0  0  0
    5.3640    3.2725    1.2449 H   0  0  0  0  0  0  0  0  0  0  0  0
    6.9112    2.5362    1.7086 H   0  0  0  0  0  0  0  0  0  0  0  0
    5.4145    1.6533    2.0258 H   0  0  0  0  0  0  0  0  0  0  0  0
   -0.1203    0.7573    0.7436 H   0  0  0  0  0  0  0  0  0  0  0  0
   -2.6578   -1.2875    1.8129 H   0  0  0  0  0  0  0  0  0  0  0  0
   -6.0244   -1.6615    0.2555 H   0  0  0  0  0  0  0  0  0  0  0  0
   -6.7339   -0.9159    1.6941 H   0  0  0  0  0  0  0  0  0  0  0  0
   -5.2570    1.2318    1.0010 H   0  0  0  0  0  0  0  0  0  0  0  0
   -6.8428    0.9080    0.3018 H   0  0  0  0  0  0  0  0  0  0  0  0
  1  2  1  0
  2  3  1  0
  3  4  1  0
  4  5  2  0
  5  6  1  0
  6  7  1  0
  7  8  2  0
  8  9  1  0
  9 10  2  0
 10 11  1  0
 11 12  2  0
 12 13  1  0
 12 14  1  0
 14 15  1  0
 15 16  2  0
 15 17  2  0
 15 18  1  0
 18 19  1  0
 19 20  1  0
 20 21  1  0
 21 22  1  0
 14 23  2  0
  7 24  1  0
 24 25  1  0
 25 26  2  0
 25 27  1  0
 27 28  1  0
 28 29  1  0
 29 30  2  0
  8  4  1  0
 23  9  1  0
 29  6  1  0
  1 31  1  0
  1 32  1  0
  1 33  1  0
  2 34  1  0
  2 35  1  0
  3 36  1  0
  3 37  1  0
 10 38  1  0
 11 39  1  0
 13 40  1  0
 13 41  1  0
 13 42  1  0
 18 43  1  0
 19 44  1  0
 19 45  1  0
 20 46  1  0
 20 47  1  0
 22 48  1  0
 22 49  1  0
 22 50  1  0
 23 51  1  0
 24 52  1  0
 27 53  1  0
 27 54  1  0
 28 55  1  0
 28 56  1  0
M  END
$$$$
