
     RDKit          3D

 15 16  0  0  0  0  0  0  0  0999 V2000
    2.5423    0.7860   -0.1587 N   0  0  0  0  0  0  0  0  0  0  0  0
    1.2595    0.3601   -0.0468 C   0  0  0  0  0  0  0  0  0  0  0  0
    0.2744    1.1821   -0.2971 N   0  0  0  0  0  0  0  0  0  0  0  0
   -0.9401    0.6057   -0.1425 C   0  0  0  0  0  0  0  0  0  0  0  0
   -2.1598    1.1807   -0.3213 N   0  0  0  0  0  0  0  0  0  0  0  0
   -3.1521    0.2964   -0.0774 N   0  0  0  0  0  0  0  0  0  0  0  0
   -2.5870   -0.8616    0.2696 N   0  0  0  0  0  0  0  0  0  0  0  0
   -1.2390   -0.6795    0.2323 C   0  0  0  0  0  0  0  0  0  0  0  0
   -0.1495   -1.5731    0.5133 C   0  0  0  0  0  0  0  0  0  0  0  0
   -0.2520   -2.7399    0.8758 O   0  0  0  0  0  0  0  0  0  0  0  0
    1.0851   -0.9595    0.3300 N   0  0  0  0  0  0  0  0  0  0  0  0
    2.6070    1.6844   -0.6289 H   0  0  0  0  0  0  0  0  0  0  0  0
    3.2148    0.1175   -0.5115 H   0  0  0  0  0  0  0  0  0  0  0  0
   -2.3876    2.1276   -0.5962 H   0  0  0  0  0  0  0  0  0  0  0  0
    1.8839   -1.5269    0.5594 H   0  0  0  0  0  0  0  0  0  0  0  0
  1  2  1  0
  2  3  2  0
  3  4  1  0
  4  5  1  0
  5  6  1  0
  6  7  2  0
  7  8  1  0
  8  9  1  0
  9 10  2  0
  9 11  1  0
 11  2  1  0
  8  4  2  0
  1 12  1  0
  1 13  1  0
  5 14  1  0
 11 15  1  0
M  END
$$$$
