
     RDKit          3D

 32 33  0  0  0  0  0  0  0  0999 V2000
    1.1913   -0.2317   -2.1485 N   0  0  0  0  0  0  0  0  0  0  0  0
    1.2139   -0.6742   -0.8010 C   0  0  0  0  0  0  0  0  0  0  0  0
    2.4577   -0.7611   -0.1417 C   0  0  0  0  0  0  0  0  0  0  0  0
    3.7538   -0.5196   -0.8884 C   0  0  0  0  0  0  0  0  0  0  0  0
    3.9569    0.9146   -1.3160 C   0  0  0  0  0  0  0  0  0  0  0  0
    3.2003    1.8638   -1.1823 O   0  0  0  0  0  0  0  0  0  0  0  0
    5.1571    1.0931   -1.9127 O   0  0  0  0  0  0  0  0  0  0  0  0
    2.4989   -1.0999    1.2216 C   0  0  0  0  0  0  0  0  0  0  0  0
    1.3239   -1.3267    1.9354 C   0  0  0  0  0  0  0  0  0  0  0  0
    0.0900   -1.1886    1.3048 C   0  0  0  0  0  0  0  0  0  0  0  0
    0.0280   -0.8238   -0.0482 C   0  0  0  0  0  0  0  0  0  0  0  0
   -1.2988   -0.6264   -0.6957 C   0  0  0  0  0  0  0  0  0  0  0  0
   -1.4690   -0.9769   -1.8618 O   0  0  0  0  0  0  0  0  0  0  0  0
   -2.4265    0.0118    0.0301 C   0  0  0  0  0  0  0  0  0  0  0  0
   -3.7290   -0.4238   -0.2444 C   0  0  0  0  0  0  0  0  0  0  0  0
   -4.8162    0.1627    0.4074 C   0  0  0  0  0  0  0  0  0  0  0  0
   -4.5991    1.1923    1.3221 C   0  0  0  0  0  0  0  0  0  0  0  0
   -6.0694    1.9878    2.2044 Br  0  0  0  0  0  0  0  0  0  0  0  0
   -3.3067    1.6467    1.5858 C   0  0  0  0  0  0  0  0  0  0  0  0
   -2.2176    1.0608    0.9348 C   0  0  0  0  0  0  0  0  0  0  0  0
    1.2964    0.7843   -2.1810 H   0  0  0  0  0  0  0  0  0  0  0  0
    0.2888   -0.4771   -2.5782 H   0  0  0  0  0  0  0  0  0  0  0  0
    3.7816   -1.1622   -1.7762 H   0  0  0  0  0  0  0  0  0  0  0  0
    4.6031   -0.7993   -0.2535 H   0  0  0  0  0  0  0  0  0  0  0  0
    5.1594    2.0424   -2.1562 H   0  0  0  0  0  0  0  0  0  0  0  0
    3.4532   -1.1942    1.7365 H   0  0  0  0  0  0  0  0  0  0  0  0
    1.3716   -1.6038    2.9859 H   0  0  0  0  0  0  0  0  0  0  0  0
   -0.8151   -1.3708    1.8788 H   0  0  0  0  0  0  0  0  0  0  0  0
   -3.8984   -1.2196   -0.9676 H   0  0  0  0  0  0  0  0  0  0  0  0
   -5.8227   -0.1857    0.1900 H   0  0  0  0  0  0  0  0  0  0  0  0
   -3.1383    2.4604    2.2870 H   0  0  0  0  0  0  0  0  0  0  0  0
   -1.2188    1.4448    1.1288 H   0  0  0  0  0  0  0  0  0  0  0  0
  1  2  1  0
  2  3  2  0
  3  4  1  0
  4  5  1  0
  5  6  2  0
  5  7  1  0
  3  8  1  0
  8  9  2  0
  9 10  1  0
 10 11  2  0
 11 12  1  0
 12 13  2  0
 12 14  1  0
 14 15  2  0
 15 16  1  0
 16 17  2  0
 17 18  1  0
 17 19  1  0
 19 20  2  0
 11  2  1  0
 20 14  1  0
  1 21  1  0
  1 22  1  0
  4 23  1  0
  4 24  1  0
  7 25  1  0
  8 26  1  0
  9 27  1  0
 10 28  1  0
 15 29  1  0
 16 30  1  0
 19 31  1  0
 20 32  1  0
M  END
$$$$
