
     RDKit          3D

 96 98  0  0  0  0  0  0  0  0999 V2000
    8.1907    2.8945    2.3186 C   0  0  0  0  0  0  0  0  0  0  0  0
    9.2767    2.9091    1.2546 C   0  0  0  0  0  0  0  0  0  0  0  0
    9.2499    1.6245    0.4217 C   0  0  0  0  0  0  0  0  0  0  0  0
   10.3334    1.6346   -0.6605 C   0  0  0  0  0  0  0  0  0  0  0  0
   10.2078    0.4999   -1.6863 C   0  0  0  0  0  0  0  0  0  0  0  0
   10.6198   -0.8843   -1.1730 C   0  0  0  0  0  0  0  0  0  0  0  0
    9.7779   -1.3491   -0.1072 O   0  0  0  0  0  0  0  0  0  0  0  0
    8.5640   -1.8455   -0.4697 C   0  0  0  0  0  0  0  0  0  0  0  0
    8.1907   -1.9781   -1.6247 O   0  0  0  0  0  0  0  0  0  0  0  0
    7.8420   -2.0729    0.6754 N   0  0  0  0  0  0  0  0  0  0  0  0
    6.8736   -3.0347    0.7450 C   0  0  0  0  0  0  0  0  0  0  0  0
    7.2053   -4.0910    1.4052 N   0  0  0  0  0  0  0  0  0  0  0  0
    5.4999   -2.7516    0.2318 C   0  0  0  0  0  0  0  0  0  0  0  0
    5.2328   -1.8721   -0.8145 C   0  0  0  0  0  0  0  0  0  0  0  0
    3.9118   -1.5953   -1.1968 C   0  0  0  0  0  0  0  0  0  0  0  0
    2.8160   -2.1649   -0.5403 C   0  0  0  0  0  0  0  0  0  0  0  0
    1.5443   -1.7294   -0.8988 N   0  0  0  0  0  0  0  0  0  0  0  0
    0.3318   -2.3197   -0.3359 C   0  0  0  0  0  0  0  0  0  0  0  0
   -0.9064   -1.5189   -0.6278 C   0  0  0  0  0  0  0  0  0  0  0  0
   -2.0137   -1.9811   -1.1763 N   0  0  0  0  0  0  0  0  0  0  0  0
   -2.8680   -0.9122   -1.2569 C   0  0  0  0  0  0  0  0  0  0  0  0
   -4.1787   -0.8621   -1.7474 C   0  0  0  0  0  0  0  0  0  0  0  0
   -4.8649    0.3580   -1.6856 C   0  0  0  0  0  0  0  0  0  0  0  0
   -6.2711    0.4021   -2.1630 C   0  0  0  0  0  0  0  0  0  0  0  0
   -6.5178   -0.1509   -3.2353 O   0  0  0  0  0  0  0  0  0  0  0  0
   -7.2199    1.1448   -1.4534 N   0  0  0  0  0  0  0  0  0  0  0  0
   -8.3962    1.6137   -2.2006 C   0  0  0  0  0  0  0  0  0  0  0  0
   -9.5000    0.5679   -2.2836 C   0  0  0  0  0  0  0  0  0  0  0  0
  -10.4301    0.6515   -1.1023 C   0  0  0  0  0  0  0  0  0  0  0  0
  -11.1491    1.6145   -0.8620 O   0  0  0  0  0  0  0  0  0  0  0  0
  -10.3881   -0.5032   -0.3789 O   0  0  0  0  0  0  0  0  0  0  0  0
  -11.3116   -0.5856    0.7157 C   0  0  0  0  0  0  0  0  0  0  0  0
  -10.7184    0.0453    1.9621 C   0  0  0  0  0  0  0  0  0  0  0  0
   -7.2250    1.3597   -0.0459 C   0  0  0  0  0  0  0  0  0  0  0  0
   -6.5819    0.4936    0.8371 C   0  0  0  0  0  0  0  0  0  0  0  0
   -6.6074    0.7588    2.2075 C   0  0  0  0  0  0  0  0  0  0  0  0
   -7.2889    1.8733    2.6703 C   0  0  0  0  0  0  0  0  0  0  0  0
   -7.9314    2.6670    1.7413 C   0  0  0  0  0  0  0  0  0  0  0  0
   -7.9196    2.4255    0.4119 N   0  0  0  0  0  0  0  0  0  0  0  0
   -4.2339    1.5186   -1.2179 C   0  0  0  0  0  0  0  0  0  0  0  0
   -2.9234    1.4806   -0.7323 C   0  0  0  0  0  0  0  0  0  0  0  0
   -2.2749    0.2407   -0.7502 C   0  0  0  0  0  0  0  0  0  0  0  0
   -1.0298   -0.1750   -0.3397 N   0  0  0  0  0  0  0  0  0  0  0  0
   -0.0292    0.6524    0.2924 C   0  0  0  0  0  0  0  0  0  0  0  0
    3.0878   -3.0116    0.5333 C   0  0  0  0  0  0  0  0  0  0  0  0
    4.4077   -3.3119    0.9098 C   0  0  0  0  0  0  0  0  0  0  0  0
    1.0996    0.2546   -0.0370 C   0  0  0  0  0  0  0  0  0  0  0  0
   -0.4774   -0.5633   -0.0023 S   0  0  0  0  0  6  0  0  0  0  0  0
   -0.4568   -1.6141    0.9876 O   0  0  0  0  0  0  0  0  0  0  0  0
   -0.9426   -0.7748   -1.3546 O   0  0  0  0  0  0  0  0  0  0  0  0
   -1.3526    0.6639    0.5775 O   0  0  0  0  0  0  0  0  0  0  0  0
    8.2147    3.8237    2.8953 H   0  0  0  0  0  0  0  0  0  0  0  0
    8.3350    2.0597    3.0137 H   0  0  0  0  0  0  0  0  0  0  0  0
    7.1977    2.7995    1.8655 H   0  0  0  0  0  0  0  0  0  0  0  0
   10.2542    3.0217    1.7390 H   0  0  0  0  0  0  0  0  0  0  0  0
    9.1315    3.7806    0.6041 H   0  0  0  0  0  0  0  0  0  0  0  0
    9.3947    0.7722    1.0938 H   0  0  0  0  0  0  0  0  0  0  0  0
    8.2637    1.5118   -0.0445 H   0  0  0  0  0  0  0  0  0  0  0  0
   11.3245    1.6093   -0.1934 H   0  0  0  0  0  0  0  0  0  0  0  0
   10.2698    2.5831   -1.2086 H   0  0  0  0  0  0  0  0  0  0  0  0
    9.1792    0.4756   -2.0638 H   0  0  0  0  0  0  0  0  0  0  0  0
   10.8525    0.7460   -2.5400 H   0  0  0  0  0  0  0  0  0  0  0  0
   11.6427   -0.8469   -0.7825 H   0  0  0  0  0  0  0  0  0  0  0  0
   10.6270   -1.6134   -1.9928 H   0  0  0  0  0  0  0  0  0  0  0  0
    8.5276   -2.2293    1.4029 H   0  0  0  0  0  0  0  0  0  0  0  0
    6.4436   -4.7742    1.4204 H   0  0  0  0  0  0  0  0  0  0  0  0
    6.0212   -1.3662   -1.3591 H   0  0  0  0  0  0  0  0  0  0  0  0
    3.7493   -0.8947   -2.0116 H   0  0  0  0  0  0  0  0  0  0  0  0
    1.4590   -1.5911   -1.9054 H   0  0  0  0  0  0  0  0  0  0  0  0
    0.2050   -3.3334   -0.7361 H   0  0  0  0  0  0  0  0  0  0  0  0
    0.4038   -2.4022    0.7548 H   0  0  0  0  0  0  0  0  0  0  0  0
   -4.6475   -1.7561   -2.1419 H   0  0  0  0  0  0  0  0  0  0  0  0
   -8.0587    1.8297   -3.2234 H   0  0  0  0  0  0  0  0  0  0  0  0
   -8.7570    2.5706   -1.8052 H   0  0  0  0  0  0  0  0  0  0  0  0
   -9.0948   -0.4466   -2.3759 H   0  0  0  0  0  0  0  0  0  0  0  0
  -10.1144    0.7432   -3.1754 H   0  0  0  0  0  0  0  0  0  0  0  0
  -11.4963   -1.6513    0.8947 H   0  0  0  0  0  0  0  0  0  0  0  0
  -12.2771   -0.1320    0.4560 H   0  0  0  0  0  0  0  0  0  0  0  0
  -11.3887   -0.0886    2.8163 H   0  0  0  0  0  0  0  0  0  0  0  0
  -10.5520    1.1169    1.8165 H   0  0  0  0  0  0  0  0  0  0  0  0
   -9.7493   -0.4056    2.2023 H   0  0  0  0  0  0  0  0  0  0  0  0
   -6.0844   -0.4091    0.4986 H   0  0  0  0  0  0  0  0  0  0  0  0
   -6.1054    0.0911    2.9021 H   0  0  0  0  0  0  0  0  0  0  0  0
   -7.3338    2.1096    3.7266 H   0  0  0  0  0  0  0  0  0  0  0  0
   -8.4991    3.5437    2.0464 H   0  0  0  0  0  0  0  0  0  0  0  0
   -4.7673    2.4681   -1.2204 H   0  0  0  0  0  0  0  0  0  0  0  0
   -2.4445    2.3788   -0.3593 H   0  0  0  0  0  0  0  0  0  0  0  0
   -0.5058    1.5190    0.7591 H   0  0  0  0  0  0  0  0  0  0  0  0
    0.6766    0.9809   -0.4746 H   0  0  0  0  0  0  0  0  0  0  0  0
    0.4758    0.0788    1.0739 H   0  0  0  0  0  0  0  0  0  0  0  0
    2.2874   -3.4532    1.1171 H   0  0  0  0  0  0  0  0  0  0  0  0
    4.5548   -3.9489    1.7765 H   0  0  0  0  0  0  0  0  0  0  0  0
    1.8429   -0.4600   -0.3967 H   0  0  0  0  0  0  0  0  0  0  0  0
    1.3496    0.5717    0.9770 H   0  0  0  0  0  0  0  0  0  0  0  0
    1.0419    1.1079   -0.7150 H   0  0  0  0  0  0  0  0  0  0  0  0
   -2.1045    0.8142   -0.0365 H   0  0  0  0  0  0  0  0  0  0  0  0
  1  2  1  0
  2  3  1  0
  3  4  1  0
  4  5  1  0
  5  6  1  0
  6  7  1  0
  7  8  1  0
  8  9  2  0
  8 10  1  0
 10 11  1  0
 11 12  2  3
 11 13  1  0
 13 14  2  0
 14 15  1  0
 15 16  2  0
 16 17  1  0
 17 18  1  0
 18 19  1  0
 19 20  2  0
 20 21  1  0
 21 22  2  0
 22 23  1  0
 23 24  1  0
 24 25  2  0
 24 26  1  0
 26 27  1  0
 27 28  1  0
 28 29  1  0
 29 30  2  0
 29 31  1  0
 31 32  1  0
 32 33  1  0
 26 34  1  0
 34 35  2  0
 35 36  1  0
 36 37  2  0
 37 38  1  0
 38 39  2  0
 23 40  2  0
 40 41  1  0
 41 42  2  0
 42 43  1  0
 43 44  1  0
 16 45  1  0
 45 46  2  0
 47 48  1  0
 48 49  2  0
 48 50  2  0
 48 51  1  0
 46 13  1  0
 43 19  1  0
 42 21  1  0
 39 34  1  0
  1 52  1  0
  1 53  1  0
  1 54  1  0
  2 55  1  0
  2 56  1  0
  3 57  1  0
  3 58  1  0
  4 59  1  0
  4 60  1  0
  5 61  1  0
  5 62  1  0
  6 63  1  0
  6 64  1  0
 10 65  1  0
 12 66  1  0
 14 67  1  0
 15 68  1  0
 17 69  1  0
 18 70  1  0
 18 71  1  0
 22 72  1  0
 27 73  1  0
 27 74  1  0
 28 75  1  0
 28 76  1  0
 32 77  1  0
 32 78  1  0
 33 79  1  0
 33 80  1  0
 33 81  1  0
 35 82  1  0
 36 83  1  0
 37 84  1  0
 38 85  1  0
 40 86  1  0
 41 87  1  0
 44 88  1  0
 44 89  1  0
 44 90  1  0
 45 91  1  0
 46 92  1  0
 47 93  1  0
 47 94  1  0
 47 95  1  0
 51 96  1  0
M  END
$$$$
