
     RDKit          3D

 34 36  0  0  0  0  0  0  0  0999 V2000
   -5.5171   -1.3800    0.0639 C   0  0  0  0  0  0  0  0  0  0  0  0
   -4.7525   -0.8224   -1.1240 C   0  0  0  0  0  0  0  0  0  0  0  0
   -3.3570   -0.7510   -0.8403 O   0  0  0  0  0  0  0  0  0  0  0  0
   -2.8470    0.3690   -0.2471 C   0  0  0  0  0  0  0  0  0  0  0  0
   -3.5848    1.4630    0.2059 C   0  0  0  0  0  0  0  0  0  0  0  0
   -2.9398    2.5527    0.8034 C   0  0  0  0  0  0  0  0  0  0  0  0
   -1.5518    2.5599    0.9545 C   0  0  0  0  0  0  0  0  0  0  0  0
   -0.8001    1.4720    0.5114 C   0  0  0  0  0  0  0  0  0  0  0  0
    0.6466    1.4325    0.6495 C   0  0  0  0  0  0  0  0  0  0  0  0
    1.3584    0.3772    0.2171 C   0  0  0  0  0  0  0  0  0  0  0  0
    2.8511    0.4403    0.4073 C   0  0  0  0  0  0  0  0  0  0  0  0
    3.3483    1.4348    0.9305 O   0  0  0  0  0  0  0  0  0  0  0  0
    3.5364   -0.6604   -0.0408 N   0  0  0  0  0  0  0  0  0  0  0  0
    4.8894   -0.8808    0.0074 C   0  0  0  0  0  0  0  0  0  0  0  0
    5.4103   -1.9887   -0.4685 N   0  0  0  0  0  0  0  0  0  0  0  0
    6.7810   -1.9680   -0.3002 C   0  0  0  0  0  0  0  0  0  0  0  0
    7.2848   -0.8397    0.3083 C   0  0  0  0  0  0  0  0  0  0  0  0
    5.9978    0.2285    0.6769 S   0  0  0  0  0  0  0  0  0  0  0  0
    0.6732   -0.7730   -0.4111 C   0  0  0  0  0  0  0  0  0  0  0  0
    1.3026   -1.7496   -0.8106 O   0  0  0  0  0  0  0  0  0  0  0  0
   -0.7066   -0.7115   -0.5353 O   0  0  0  0  0  0  0  0  0  0  0  0
   -1.4553    0.3961   -0.0808 C   0  0  0  0  0  0  0  0  0  0  0  0
   -5.4348   -0.7257    0.9367 H   0  0  0  0  0  0  0  0  0  0  0  0
   -5.1099   -2.3530    0.3585 H   0  0  0  0  0  0  0  0  0  0  0  0
   -6.5763   -1.5021   -0.1807 H   0  0  0  0  0  0  0  0  0  0  0  0
   -5.1595    0.1319   -1.4754 H   0  0  0  0  0  0  0  0  0  0  0  0
   -4.8624   -1.5207   -1.9618 H   0  0  0  0  0  0  0  0  0  0  0  0
   -4.6655    1.5030    0.1200 H   0  0  0  0  0  0  0  0  0  0  0  0
   -3.5253    3.4010    1.1525 H   0  0  0  0  0  0  0  0  0  0  0  0
   -1.0716    3.4182    1.4196 H   0  0  0  0  0  0  0  0  0  0  0  0
    1.1271    2.2908    1.1133 H   0  0  0  0  0  0  0  0  0  0  0  0
    3.0295   -1.4357   -0.4654 H   0  0  0  0  0  0  0  0  0  0  0  0
    7.3702   -2.8100   -0.6428 H   0  0  0  0  0  0  0  0  0  0  0  0
    8.3107   -0.5985    0.5442 H   0  0  0  0  0  0  0  0  0  0  0  0
  1  2  1  0
  2  3  1  0
  3  4  1  0
  4  5  2  0
  5  6  1  0
  6  7  2  0
  7  8  1  0
  8  9  1  0
  9 10  2  0
 10 11  1  0
 11 12  2  0
 11 13  1  0
 13 14  1  0
 14 15  2  0
 15 16  1  0
 16 17  2  0
 17 18  1  0
 10 19  1  0
 19 20  2  0
 19 21  1  0
 21 22  1  0
 22  4  1  0
 22  8  2  0
 18 14  1  0
  1 23  1  0
  1 24  1  0
  1 25  1  0
  2 26  1  0
  2 27  1  0
  5 28  1  0
  6 29  1  0
  7 30  1  0
  9 31  1  0
 13 32  1  0
 16 33  1  0
 17 34  1  0
M  END
$$$$
