
     RDKit          3D

123130  0  0  0  0  0  0  0  0999 V2000
   -4.9381    1.2906   -5.2493 C   0  0  0  0  0  0  0  0  0  0  0  0
   -4.7727    2.2661   -4.0921 C   0  0  0  0  0  0  0  0  0  0  0  0
   -4.4940    1.6434   -2.7084 C   0  0  2  0  0  0  0  0  0  0  0  0
   -4.3971    2.7738   -1.8096 O   0  0  0  0  0  0  0  0  0  0  0  0
   -3.1248    0.9020   -2.6523 C   0  0  0  0  0  0  0  0  0  0  0  0
   -2.9161   -0.0299   -1.4132 C   0  0  2  0  0  0  0  0  0  0  0  0
   -4.1886   -0.8518   -1.2431 C   0  0  0  0  0  0  0  0  0  0  0  0
   -5.2342    0.1265   -0.9817 N   0  0  0  0  0  0  0  0  0  0  0  0
   -6.1893   -0.2490    0.0376 C   0  0  0  0  0  0  0  0  0  0  0  0
   -5.5859    0.0948    1.4173 C   0  0  0  0  0  0  0  0  0  0  0  0
   -4.5799   -0.8885    1.9605 C   0  0  0  0  0  0  0  0  0  0  0  0
   -3.1805   -0.9062    1.8648 C   0  0  0  0  0  0  0  0  0  0  0  0
   -2.7619   -1.9160    2.7195 N   0  0  0  0  0  0  0  0  0  0  0  0
   -3.8133   -2.6483    3.2013 C   0  0  0  0  0  0  0  0  0  0  0  0
   -3.8214   -3.7805    4.0239 C   0  0  0  0  0  0  0  0  0  0  0  0
   -5.0651   -4.3192    4.3678 C   0  0  0  0  0  0  0  0  0  0  0  0
   -6.2437   -3.7486    3.9055 C   0  0  0  0  0  0  0  0  0  0  0  0
   -6.2117   -2.6053    3.0974 C   0  0  0  0  0  0  0  0  0  0  0  0
   -4.9701   -2.0432    2.7311 C   0  0  0  0  0  0  0  0  0  0  0  0
   -2.0931   -0.0309    1.1774 C   0  0  1  0  0  0  0  0  0  0  0  0
   -1.7562    1.0023    2.3334 C   0  0  0  0  0  0  0  0  0  0  0  0
   -1.2714    0.6850    3.4196 O   0  0  0  0  0  0  0  0  0  0  0  0
   -2.0173    2.2955    1.9789 O   0  0  0  0  0  0  0  0  0  0  0  0
   -1.6623    3.2657    2.9641 C   0  0  0  0  0  0  0  0  0  0  0  0
   -0.7669   -0.8030    0.7950 C   0  0  0  0  0  0  0  0  0  0  0  0
    0.4725   -0.1408    0.9581 C   0  0  0  0  0  0  0  0  0  0  0  0
    1.6703   -0.7408    0.5792 C   0  0  0  0  0  0  0  0  0  0  0  0
    1.6532   -1.9878   -0.0219 C   0  0  0  0  0  0  0  0  0  0  0  0
    0.4676   -2.6798   -0.2052 C   0  0  0  0  0  0  0  0  0  0  0  0
   -0.7437   -2.0979    0.2101 C   0  0  0  0  0  0  0  0  0  0  0  0
   -1.9488   -2.7157    0.0369 O   0  0  0  0  0  0  0  0  0  0  0  0
   -1.9729   -4.0945   -0.3223 C   0  0  0  0  0  0  0  0  0  0  0  0
    2.9480   -2.3653   -0.3941 N   0  0  0  0  0  0  0  0  0  0  0  0
    3.3099   -3.5610   -0.9559 C   0  0  0  0  0  0  0  0  0  0  0  0
    4.4621   -3.8696   -1.2466 O   0  0  0  0  0  0  0  0  0  0  0  0
    3.9133   -1.3035    0.0104 C   0  0  1  0  0  0  0  0  0  0  0  0
    4.8484   -0.7680   -1.1037 C   0  0  1  0  0  0  0  0  0  0  0  0
    5.9350   -1.7202   -1.2864 O   0  0  0  0  0  0  0  0  0  0  0  0
    4.2167   -0.5476   -2.4898 C   0  0  0  0  0  0  0  0  0  0  0  0
    4.8517   -0.5151   -3.5364 O   0  0  0  0  0  0  0  0  0  0  0  0
    2.8741   -0.3455   -2.4248 O   0  0  0  0  0  0  0  0  0  0  0  0
    2.2415   -0.1149   -3.6823 C   0  0  0  0  0  0  0  0  0  0  0  0
    5.5516    0.5221   -0.6116 C   0  0  2  0  0  0  0  0  0  0  0  0
    6.2213    0.1391    0.6363 O   0  0  0  0  0  0  0  0  0  0  0  0
    7.5658    0.3377    0.7145 C   0  0  0  0  0  0  0  0  0  0  0  0
    8.1085   -0.3378    1.9381 C   0  0  0  0  0  0  0  0  0  0  0  0
    8.2441    0.9867   -0.0663 O   0  0  0  0  0  0  0  0  0  0  0  0
    4.6176    1.7379   -0.3245 C   0  0  2  0  0  0  0  0  0  0  0  0
    4.2656    2.5445   -1.6345 C   0  0  0  0  0  0  0  0  0  0  0  0
    5.4298    2.9366   -2.5426 C   0  0  0  0  0  0  0  0  0  0  0  0
    5.3541    2.7771    0.5350 C   0  0  0  0  0  0  0  0  0  0  0  0
    4.7051    3.5541    1.4119 C   0  0  0  0  0  0  0  0  0  0  0  0
    3.2406    3.3954    1.6528 C   0  0  0  0  0  0  0  0  0  0  0  0
    2.8089    2.0091    1.5523 N   0  0  0  0  0  0  0  0  0  0  0  0
    3.1621    1.2231    2.7365 C   0  0  0  0  0  0  0  0  0  0  0  0
    3.4374   -0.1901    2.2567 C   0  0  0  0  0  0  0  0  0  0  0  0
    3.0942   -0.2058    0.7596 C   0  0  2  0  0  0  0  0  0  0  0  0
    3.2454    1.2802    0.3328 C   0  0  2  0  0  0  0  0  0  0  0  0
   -2.5297    0.7483   -0.1163 C   0  0  0  0  0  0  0  0  0  0  0  0
   -5.6806    0.7615   -2.2130 C   0  0  0  0  0  0  0  0  0  0  0  0
   -0.4126    0.7574    1.4657 O   0  0  0  0  0  0  0  0  0  0  0  0
    0.0185    0.4361    0.1294 S   0  0  0  0  0  6  0  0  0  0  0  0
    0.4477    1.4176   -0.8331 O   0  0  0  0  0  0  0  0  0  0  0  0
    1.1896   -0.6565    0.2191 O   0  0  0  0  0  0  0  0  0  0  0  0
   -1.1620   -0.4293   -0.5256 O   0  0  0  0  0  0  0  0  0  0  0  0
   -5.1724    1.8428   -6.1657 H   0  0  0  0  0  0  0  0  0  0  0  0
   -5.7556    0.5853   -5.0763 H   0  0  0  0  0  0  0  0  0  0  0  0
   -4.0221    0.7239   -5.4361 H   0  0  0  0  0  0  0  0  0  0  0  0
   -5.6778    2.8839   -4.0264 H   0  0  0  0  0  0  0  0  0  0  0  0
   -3.9690    2.9715   -4.3381 H   0  0  0  0  0  0  0  0  0  0  0  0
   -4.6367    2.4197   -0.9347 H   0  0  0  0  0  0  0  0  0  0  0  0
   -3.0345    0.2564   -3.5343 H   0  0  0  0  0  0  0  0  0  0  0  0
   -2.3009    1.6242   -2.7031 H   0  0  0  0  0  0  0  0  0  0  0  0
   -2.0894   -0.6954   -1.6804 H   0  0  0  0  0  0  0  0  0  0  0  0
   -4.4013   -1.4381   -2.1481 H   0  0  0  0  0  0  0  0  0  0  0  0
   -4.0864   -1.5973   -0.4582 H   0  0  0  0  0  0  0  0  0  0  0  0
   -7.1007    0.3503   -0.0698 H   0  0  0  0  0  0  0  0  0  0  0  0
   -6.4876   -1.3006   -0.0366 H   0  0  0  0  0  0  0  0  0  0  0  0
   -6.4156    0.1599    2.1339 H   0  0  0  0  0  0  0  0  0  0  0  0
   -5.1522    1.1023    1.4128 H   0  0  0  0  0  0  0  0  0  0  0  0
   -1.7925   -2.1125    2.9294 H   0  0  0  0  0  0  0  0  0  0  0  0
   -2.9016   -4.2198    4.3918 H   0  0  0  0  0  0  0  0  0  0  0  0
   -5.1072   -5.2010    5.0037 H   0  0  0  0  0  0  0  0  0  0  0  0
   -7.2011   -4.1813    4.1820 H   0  0  0  0  0  0  0  0  0  0  0  0
   -7.1388   -2.1665    2.7466 H   0  0  0  0  0  0  0  0  0  0  0  0
   -1.8362    4.2563    2.5332 H   0  0  0  0  0  0  0  0  0  0  0  0
   -2.2935    3.1544    3.8503 H   0  0  0  0  0  0  0  0  0  0  0  0
   -0.6026    3.1851    3.2228 H   0  0  0  0  0  0  0  0  0  0  0  0
    0.5138    0.8605    1.3823 H   0  0  0  0  0  0  0  0  0  0  0  0
    0.4770   -3.6482   -0.6840 H   0  0  0  0  0  0  0  0  0  0  0  0
   -1.6342   -4.2314   -1.3542 H   0  0  0  0  0  0  0  0  0  0  0  0
   -3.0094   -4.4365   -0.2635 H   0  0  0  0  0  0  0  0  0  0  0  0
   -1.3848   -4.7004    0.3766 H   0  0  0  0  0  0  0  0  0  0  0  0
    2.4729   -4.2457   -1.1530 H   0  0  0  0  0  0  0  0  0  0  0  0
    4.5579   -1.8283    0.7318 H   0  0  0  0  0  0  0  0  0  0  0  0
    5.5470   -2.6134   -1.4319 H   0  0  0  0  0  0  0  0  0  0  0  0
    2.2898   -1.0165   -4.2993 H   0  0  0  0  0  0  0  0  0  0  0  0
    2.7022    0.7333   -4.1998 H   0  0  0  0  0  0  0  0  0  0  0  0
    1.1925    0.1287   -3.4938 H   0  0  0  0  0  0  0  0  0  0  0  0
    6.3213    0.7939   -1.3418 H   0  0  0  0  0  0  0  0  0  0  0  0
    7.8415   -1.4000    1.9194 H   0  0  0  0  0  0  0  0  0  0  0  0
    9.1975   -0.2684    1.9343 H   0  0  0  0  0  0  0  0  0  0  0  0
    7.7170    0.1441    2.8385 H   0  0  0  0  0  0  0  0  0  0  0  0
    3.7446    3.4702   -1.3575 H   0  0  0  0  0  0  0  0  0  0  0  0
    3.5421    2.0028   -2.2440 H   0  0  0  0  0  0  0  0  0  0  0  0
    5.8330    2.0695   -3.0687 H   0  0  0  0  0  0  0  0  0  0  0  0
    5.0781    3.6354   -3.3089 H   0  0  0  0  0  0  0  0  0  0  0  0
    6.2399    3.4241   -1.9980 H   0  0  0  0  0  0  0  0  0  0  0  0
    6.4138    2.9522    0.3550 H   0  0  0  0  0  0  0  0  0  0  0  0
    5.2314    4.3382    1.9479 H   0  0  0  0  0  0  0  0  0  0  0  0
    2.9816    3.7954    2.6414 H   0  0  0  0  0  0  0  0  0  0  0  0
    2.6897    4.0106    0.9317 H   0  0  0  0  0  0  0  0  0  0  0  0
    4.0450    1.6025    3.2682 H   0  0  0  0  0  0  0  0  0  0  0  0
    2.3245    1.2331    3.4425 H   0  0  0  0  0  0  0  0  0  0  0  0
    2.8734   -0.9275    2.8377 H   0  0  0  0  0  0  0  0  0  0  0  0
    4.4995   -0.4062    2.4215 H   0  0  0  0  0  0  0  0  0  0  0  0
    2.4620    1.4837   -0.4107 H   0  0  0  0  0  0  0  0  0  0  0  0
   -3.3406    1.4264    0.1548 H   0  0  0  0  0  0  0  0  0  0  0  0
   -1.7004    1.4136   -0.4010 H   0  0  0  0  0  0  0  0  0  0  0  0
   -6.5402    1.4124   -2.0137 H   0  0  0  0  0  0  0  0  0  0  0  0
   -5.9886    0.0113   -2.9467 H   0  0  0  0  0  0  0  0  0  0  0  0
    1.5979   -0.7114   -0.6683 H   0  0  0  0  0  0  0  0  0  0  0  0
   -1.6791   -0.8140    0.2128 H   0  0  0  0  0  0  0  0  0  0  0  0
  1  2  1  0
  2  3  1  0
  3  4  1  1
  3  5  1  0
  5  6  1  0
  6  7  1  0
  7  8  1  0
  8  9  1  0
  9 10  1  0
 10 11  1  0
 11 12  2  0
 12 13  1  0
 13 14  1  0
 14 15  2  0
 15 16  1  0
 16 17  2  0
 17 18  1  0
 18 19  2  0
 12 20  1  0
 20 21  1  1
 21 22  2  0
 21 23  1  0
 23 24  1  0
 20 25  1  0
 25 26  2  0
 26 27  1  0
 27 28  2  0
 28 29  1  0
 29 30  2  0
 30 31  1  0
 31 32  1  0
 28 33  1  0
 33 34  1  0
 34 35  2  0
 33 36  1  0
 36 37  1  0
 37 38  1  6
 37 39  1  0
 39 40  2  0
 39 41  1  0
 41 42  1  0
 37 43  1  0
 43 44  1  0
 44 45  1  0
 45 46  1  0
 45 47  2  0
 43 48  1  0
 48 49  1  6
 49 50  1  0
 48 51  1  0
 51 52  2  0
 52 53  1  0
 53 54  1  0
 54 55  1  0
 55 56  1  0
 57 56  1  1
 57 58  1  0
 20 59  1  0
  8 60  1  0
 61 62  2  0
 62 63  2  0
 62 64  1  0
 62 65  1  0
 60  3  1  0
 59  6  1  0
 19 11  1  0
 30 25  1  0
 57 36  1  0
 19 14  1  0
 57 27  1  0
 58 48  1  0
 58 54  1  0
  1 66  1  0
  1 67  1  0
  1 68  1  0
  2 69  1  0
  2 70  1  0
  4 71  1  0
  5 72  1  0
  5 73  1  0
  6 74  1  6
  7 75  1  0
  7 76  1  0
  9 77  1  0
  9 78  1  0
 10 79  1  0
 10 80  1  0
 13 81  1  0
 15 82  1  0
 16 83  1  0
 17 84  1  0
 18 85  1  0
 24 86  1  0
 24 87  1  0
 24 88  1  0
 26 89  1  0
 29 90  1  0
 32 91  1  0
 32 92  1  0
 32 93  1  0
 34 94  1  0
 36 95  1  1
 38 96  1  0
 42 97  1  0
 42 98  1  0
 42 99  1  0
 43100  1  6
 46101  1  0
 46102  1  0
 46103  1  0
 49104  1  0
 49105  1  0
 50106  1  0
 50107  1  0
 50108  1  0
 51109  1  0
 52110  1  0
 53111  1  0
 53112  1  0
 55113  1  0
 55114  1  0
 56115  1  0
 56116  1  0
 58117  1  6
 59118  1  0
 59119  1  0
 60120  1  0
 60121  1  0
 64122  1  0
 65123  1  0
M  END
$$$$
