
     RDKit          3D

 68 71  0  0  0  0  0  0  0  0999 V2000
    8.4539   -1.2542   -0.3324 C   0  0  0  0  0  0  0  0  0  0  0  0
    6.9427   -1.2321   -0.5006 C   0  0  0  0  0  0  0  0  0  0  0  0
    6.3189   -2.5892   -0.1608 C   0  0  0  0  0  0  0  0  0  0  0  0
    4.8214   -2.6542   -0.4747 C   0  0  0  0  0  0  0  0  0  0  0  0
    4.0723   -1.8000    0.4292 N   0  0  0  0  0  0  0  0  0  0  0  0
    2.7139   -1.7259    0.1415 C   0  0  0  0  0  0  0  0  0  0  0  0
    2.0516   -2.7952   -0.3029 N   0  0  0  0  0  0  0  0  0  0  0  0
    0.7377   -2.6221   -0.5428 C   0  0  0  0  0  0  0  0  0  0  0  0
    0.0475   -1.4336   -0.3674 C   0  0  0  0  0  0  0  0  0  0  0  0
   -1.3889   -1.3312   -0.6549 C   0  0  0  0  0  0  0  0  0  0  0  0
   -2.3042   -2.3027   -0.2506 C   0  0  0  0  0  0  0  0  0  0  0  0
   -3.6524   -2.1402   -0.5645 C   0  0  0  0  0  0  0  0  0  0  0  0
   -4.0750   -1.0058   -1.2610 C   0  0  0  0  0  0  0  0  0  0  0  0
   -5.5233   -0.7853   -1.6215 C   0  0  0  0  0  0  0  0  0  0  0  0
   -6.4379   -0.9631   -0.4852 N   0  0  0  0  0  0  0  0  0  0  0  0
   -6.2622    0.0662    0.5539 C   0  0  0  0  0  0  0  0  0  0  0  0
   -7.3199   -0.0910    1.6600 C   0  0  0  0  0  0  0  0  0  0  0  0
   -8.6784   -0.0711    1.1996 O   0  0  0  0  0  0  0  0  0  0  0  0
   -8.7888   -0.0331   -0.2241 C   0  0  0  0  0  0  0  0  0  0  0  0
   -7.8505   -1.0411   -0.9161 C   0  0  0  0  0  0  0  0  0  0  0  0
   -3.0960   -0.0942   -1.6341 C   0  0  0  0  0  0  0  0  0  0  0  0
   -1.7782   -0.2268   -1.3496 N   0  0  0  0  0  0  0  0  0  0  0  0
    0.8394   -0.3711    0.0750 C   0  0  0  0  0  0  0  0  0  0  0  0
    0.2362    0.8685    0.3480 N   0  0  0  0  0  0  0  0  0  0  0  0
    1.0242    2.0723    0.6129 C   0  0  1  0  0  0  0  0  0  0  0  0
    1.7537    2.0271    1.9620 C   0  0  0  0  0  0  0  0  0  0  0  0
    2.5114    3.3267    2.2269 C   0  0  0  0  0  0  0  0  0  0  0  0
    3.4440    3.6798    1.0684 C   0  0  2  0  0  0  0  0  0  0  0  0
    4.0753    4.9299    1.3271 O   0  0  0  0  0  0  0  0  0  0  0  0
    2.6874    3.7606   -0.2563 C   0  0  0  0  0  0  0  0  0  0  0  0
    1.9380    2.4643   -0.5556 C   0  0  0  0  0  0  0  0  0  0  0  0
    2.1539   -0.5272    0.3321 N   0  0  0  0  0  0  0  0  0  0  0  0
    8.9145   -1.9632   -1.0269 H   0  0  0  0  0  0  0  0  0  0  0  0
    8.8707   -0.2628   -0.5323 H   0  0  0  0  0  0  0  0  0  0  0  0
    8.7326   -1.5402    0.6861 H   0  0  0  0  0  0  0  0  0  0  0  0
    6.6998   -0.9572   -1.5328 H   0  0  0  0  0  0  0  0  0  0  0  0
    6.5299   -0.4552    0.1501 H   0  0  0  0  0  0  0  0  0  0  0  0
    6.8244   -3.3701   -0.7429 H   0  0  0  0  0  0  0  0  0  0  0  0
    6.4902   -2.8171    0.8985 H   0  0  0  0  0  0  0  0  0  0  0  0
    4.6534   -2.3660   -1.5214 H   0  0  0  0  0  0  0  0  0  0  0  0
    4.4994   -3.6963   -0.3574 H   0  0  0  0  0  0  0  0  0  0  0  0
    4.3757   -0.8335    0.4774 H   0  0  0  0  0  0  0  0  0  0  0  0
    0.2385   -3.5156   -0.9088 H   0  0  0  0  0  0  0  0  0  0  0  0
   -1.9917   -3.1684    0.3243 H   0  0  0  0  0  0  0  0  0  0  0  0
   -4.3757   -2.8870   -0.2445 H   0  0  0  0  0  0  0  0  0  0  0  0
   -5.7576   -1.5152   -2.4094 H   0  0  0  0  0  0  0  0  0  0  0  0
   -5.6631    0.2122   -2.0612 H   0  0  0  0  0  0  0  0  0  0  0  0
   -6.3401    1.0680    0.1121 H   0  0  0  0  0  0  0  0  0  0  0  0
   -5.2703   -0.0159    1.0116 H   0  0  0  0  0  0  0  0  0  0  0  0
   -7.2089    0.7145    2.3938 H   0  0  0  0  0  0  0  0  0  0  0  0
   -7.1698   -1.0398    2.1908 H   0  0  0  0  0  0  0  0  0  0  0  0
   -9.8284   -0.2594   -0.4802 H   0  0  0  0  0  0  0  0  0  0  0  0
   -8.5889    0.9901   -0.5664 H   0  0  0  0  0  0  0  0  0  0  0  0
   -8.1937   -2.0545   -0.6748 H   0  0  0  0  0  0  0  0  0  0  0  0
   -7.9584   -0.9176   -2.0023 H   0  0  0  0  0  0  0  0  0  0  0  0
   -3.3487    0.8115   -2.1841 H   0  0  0  0  0  0  0  0  0  0  0  0
   -0.4765    1.0251   -0.3716 H   0  0  0  0  0  0  0  0  0  0  0  0
    0.2826    2.8781    0.7027 H   0  0  0  0  0  0  0  0  0  0  0  0
    2.4695    1.2008    2.0050 H   0  0  0  0  0  0  0  0  0  0  0  0
    1.0326    1.8516    2.7698 H   0  0  0  0  0  0  0  0  0  0  0  0
    3.0882    3.2438    3.1553 H   0  0  0  0  0  0  0  0  0  0  0  0
    1.7979    4.1436    2.3944 H   0  0  0  0  0  0  0  0  0  0  0  0
    4.2365    2.9256    0.9928 H   0  0  0  0  0  0  0  0  0  0  0  0
    3.3825    5.6086    1.4072 H   0  0  0  0  0  0  0  0  0  0  0  0
    1.9806    4.5997   -0.2294 H   0  0  0  0  0  0  0  0  0  0  0  0
    3.3866    3.9878   -1.0697 H   0  0  0  0  0  0  0  0  0  0  0  0
    2.6727    1.6803   -0.7678 H   0  0  0  0  0  0  0  0  0  0  0  0
    1.3452    2.5888   -1.4698 H   0  0  0  0  0  0  0  0  0  0  0  0
  1  2  1  0
  2  3  1  0
  3  4  1  0
  4  5  1  0
  5  6  1  0
  6  7  2  0
  7  8  1  0
  8  9  2  0
  9 10  1  0
 10 11  2  0
 11 12  1  0
 12 13  2  0
 13 14  1  0
 14 15  1  0
 15 16  1  0
 16 17  1  0
 17 18  1  0
 18 19  1  0
 19 20  1  0
 13 21  1  0
 21 22  2  0
  9 23  1  0
 23 24  1  0
 24 25  1  0
 25 26  1  0
 26 27  1  0
 27 28  1  0
 28 29  1  0
 28 30  1  0
 30 31  1  0
 23 32  2  0
 32  6  1  0
 22 10  1  0
 31 25  1  0
 20 15  1  0
  1 33  1  0
  1 34  1  0
  1 35  1  0
  2 36  1  0
  2 37  1  0
  3 38  1  0
  3 39  1  0
  4 40  1  0
  4 41  1  0
  5 42  1  0
  8 43  1  0
 11 44  1  0
 12 45  1  0
 14 46  1  0
 14 47  1  0
 16 48  1  0
 16 49  1  0
 17 50  1  0
 17 51  1  0
 19 52  1  0
 19 53  1  0
 20 54  1  0
 20 55  1  0
 21 56  1  0
 24 57  1  0
 25 58  1  1
 26 59  1  0
 26 60  1  0
 27 61  1  0
 27 62  1  0
 28 63  1  6
 29 64  1  0
 30 65  1  0
 30 66  1  0
 31 67  1  0
 31 68  1  0
M  END
$$$$
