
     RDKit          3D

 51 54  0  0  0  0  0  0  0  0999 V2000
    7.3381    1.2738    0.7219 C   0  0  0  0  0  0  0  0  0  0  0  0
    5.9546    1.7099    0.4279 C   0  0  0  0  0  0  0  0  0  0  0  0
    5.4754    2.9300    0.5904 N   0  0  0  0  0  0  0  0  0  0  0  0
    4.1529    2.9301    0.2100 N   0  0  0  0  0  0  0  0  0  0  0  0
    3.8566    1.7104   -0.1818 C   0  0  0  0  0  0  0  0  0  0  0  0
    2.5870    1.2422   -0.6611 C   0  0  0  0  0  0  0  0  0  0  0  0
    1.5687    1.9338   -0.7092 O   0  0  0  0  0  0  0  0  0  0  0  0
    2.5690   -0.1071   -1.0631 N   0  0  0  0  0  0  0  0  0  0  0  0
    1.3107   -0.6238   -1.6007 C   0  0  0  0  0  0  0  0  0  0  0  0
    0.4393   -1.1936   -0.4837 C   0  0  0  0  0  0  0  0  0  0  0  0
    0.2271   -2.3990   -0.3793 O   0  0  0  0  0  0  0  0  0  0  0  0
   -0.0580   -0.2442    0.3806 N   0  0  0  0  0  0  0  0  0  0  0  0
   -1.0162   -0.5662    1.4107 C   0  0  0  0  0  0  0  0  0  0  0  0
   -2.4197   -0.3062    0.9315 C   0  0  0  0  0  0  0  0  0  0  0  0
   -3.0115    0.9514    1.0991 C   0  0  0  0  0  0  0  0  0  0  0  0
   -4.3049    1.1957    0.6293 C   0  0  0  0  0  0  0  0  0  0  0  0
   -5.0330    0.1915   -0.0248 C   0  0  0  0  0  0  0  0  0  0  0  0
   -6.4387    0.4344   -0.5449 C   0  0  0  0  0  0  0  0  0  0  0  0
   -6.4555    1.5091   -1.6347 C   0  0  0  0  0  0  0  0  0  0  0  0
   -7.4057    0.7901    0.5872 C   0  0  0  0  0  0  0  0  0  0  0  0
   -4.4316   -1.0625   -0.2017 C   0  0  0  0  0  0  0  0  0  0  0  0
   -3.1386   -1.3075    0.2673 C   0  0  0  0  0  0  0  0  0  0  0  0
    3.7067   -0.9638   -0.8773 C   0  0  0  0  0  0  0  0  0  0  0  0
    3.6764   -2.3329   -1.1587 C   0  0  0  0  0  0  0  0  0  0  0  0
    4.8176   -3.1148   -0.9686 C   0  0  0  0  0  0  0  0  0  0  0  0
    5.9685   -2.5097   -0.4977 C   0  0  0  0  0  0  0  0  0  0  0  0
    6.0485   -1.1973   -0.2014 N   0  0  0  0  0  0  0  0  0  0  0  0
    4.9248   -0.4591   -0.3874 C   0  0  0  0  0  0  0  0  0  0  0  0
    4.9516    0.9058   -0.0618 N   0  0  0  0  0  0  0  0  0  0  0  0
    7.3506    0.5046    1.4998 H   0  0  0  0  0  0  0  0  0  0  0  0
    7.8280    0.8871   -0.1768 H   0  0  0  0  0  0  0  0  0  0  0  0
    7.9324    2.1192    1.0839 H   0  0  0  0  0  0  0  0  0  0  0  0
    0.7504    0.1788   -2.0957 H   0  0  0  0  0  0  0  0  0  0  0  0
    1.4871   -1.3786   -2.3725 H   0  0  0  0  0  0  0  0  0  0  0  0
    0.0594    0.7382    0.1381 H   0  0  0  0  0  0  0  0  0  0  0  0
   -0.9048   -1.6099    1.7257 H   0  0  0  0  0  0  0  0  0  0  0  0
   -0.7887    0.0611    2.2796 H   0  0  0  0  0  0  0  0  0  0  0  0
   -2.4692    1.7532    1.5958 H   0  0  0  0  0  0  0  0  0  0  0  0
   -4.7374    2.1827    0.7772 H   0  0  0  0  0  0  0  0  0  0  0  0
   -6.8071   -0.4938   -1.0017 H   0  0  0  0  0  0  0  0  0  0  0  0
   -6.1528    2.4887   -1.2489 H   0  0  0  0  0  0  0  0  0  0  0  0
   -7.4611    1.6141   -2.0562 H   0  0  0  0  0  0  0  0  0  0  0  0
   -5.7748    1.2477   -2.4527 H   0  0  0  0  0  0  0  0  0  0  0  0
   -7.4010    0.0169    1.3635 H   0  0  0  0  0  0  0  0  0  0  0  0
   -7.1479    1.7426    1.0629 H   0  0  0  0  0  0  0  0  0  0  0  0
   -8.4291    0.8760    0.2059 H   0  0  0  0  0  0  0  0  0  0  0  0
   -4.9643   -1.8626   -0.7111 H   0  0  0  0  0  0  0  0  0  0  0  0
   -2.6895   -2.2865    0.1071 H   0  0  0  0  0  0  0  0  0  0  0  0
    2.7802   -2.8374   -1.5085 H   0  0  0  0  0  0  0  0  0  0  0  0
    4.8014   -4.1796   -1.1803 H   0  0  0  0  0  0  0  0  0  0  0  0
    6.8780   -3.0828   -0.3367 H   0  0  0  0  0  0  0  0  0  0  0  0
  1  2  1  0
  2  3  2  0
  3  4  1  0
  4  5  2  0
  5  6  1  0
  6  7  2  0
  6  8  1  0
  8  9  1  0
  9 10  1  0
 10 11  2  0
 10 12  1  0
 12 13  1  0
 13 14  1  0
 14 15  2  0
 15 16  1  0
 16 17  2  0
 17 18  1  0
 18 19  1  0
 18 20  1  0
 17 21  1  0
 21 22  2  0
  8 23  1  0
 23 24  2  0
 24 25  1  0
 25 26  2  0
 26 27  1  0
 27 28  2  0
 28 29  1  0
 29  2  1  0
 29  5  1  0
 22 14  1  0
 28 23  1  0
  1 30  1  0
  1 31  1  0
  1 32  1  0
  9 33  1  0
  9 34  1  0
 12 35  1  0
 13 36  1  0
 13 37  1  0
 15 38  1  0
 16 39  1  0
 18 40  1  0
 19 41  1  0
 19 42  1  0
 19 43  1  0
 20 44  1  0
 20 45  1  0
 20 46  1  0
 21 47  1  0
 22 48  1  0
 24 49  1  0
 25 50  1  0
 26 51  1  0
M  END
$$$$
