
     RDKit          3D

 44 44  0  0  0  0  0  0  0  0999 V2000
    1.4279    2.3933   -2.1447 C   0  0  0  0  0  0  0  0  0  0  0  0
    1.5577    2.2973   -0.6290 C   0  0  0  0  0  0  0  0  0  0  0  0
    1.9481    0.9041   -0.1066 C   0  0  0  0  0  0  0  0  0  0  0  0
    3.3333    0.4783   -0.6224 C   0  0  0  0  0  0  0  0  0  0  0  0
    3.8178   -0.8118    0.0284 C   0  0  0  0  0  0  0  0  0  0  0  0
    0.9946   -0.0582   -0.5618 O   0  0  0  0  0  0  0  0  0  0  0  0
    0.0774   -0.5638    0.4282 C   0  0  2  0  0  0  0  0  0  0  0  0
    0.0168   -2.0276    0.0719 C   0  0  0  0  0  0  0  0  0  0  0  0
   -0.9368   -2.5596   -0.7137 C   0  0  0  0  0  0  0  0  0  0  0  0
   -0.9326   -3.9802   -1.1193 C   0  0  0  0  0  0  0  0  0  0  0  0
   -1.7405   -4.4998   -1.8686 O   0  0  0  0  0  0  0  0  0  0  0  0
    0.0611   -4.6948   -0.5678 O   0  0  0  0  0  0  0  0  0  0  0  0
   -2.0718   -1.7097   -1.2044 C   0  0  0  0  0  0  0  0  0  0  0  0
   -2.4660   -0.7256   -0.1008 C   0  0  2  0  0  0  0  0  0  0  0  0
   -3.6570    0.0818   -0.4538 N   0  0  0  0  0  0  0  0  0  0  0  0
   -1.2868    0.2011    0.3311 C   0  0  1  0  0  0  0  0  0  0  0  0
   -1.7474    0.8709    1.5701 N   0  0  0  0  0  0  0  0  0  0  0  0
   -1.0099    1.7171    2.3540 C   0  0  0  0  0  0  0  0  0  0  0  0
   -1.8166    2.4215    3.4133 C   0  0  0  0  0  0  0  0  0  0  0  0
    0.1936    1.9051    2.2362 O   0  0  0  0  0  0  0  0  0  0  0  0
    2.3875    2.2247   -2.6416 H   0  0  0  0  0  0  0  0  0  0  0  0
    0.7035    1.6698   -2.5309 H   0  0  0  0  0  0  0  0  0  0  0  0
    1.0832    3.3939   -2.4259 H   0  0  0  0  0  0  0  0  0  0  0  0
    2.2881    3.0377   -0.2824 H   0  0  0  0  0  0  0  0  0  0  0  0
    0.5899    2.5839   -0.2054 H   0  0  0  0  0  0  0  0  0  0  0  0
    1.9988    0.9302    0.9862 H   0  0  0  0  0  0  0  0  0  0  0  0
    3.3052    0.3123   -1.7054 H   0  0  0  0  0  0  0  0  0  0  0  0
    4.0645    1.2698   -0.4218 H   0  0  0  0  0  0  0  0  0  0  0  0
    3.8549   -0.7126    1.1178 H   0  0  0  0  0  0  0  0  0  0  0  0
    4.8251   -1.0555   -0.3243 H   0  0  0  0  0  0  0  0  0  0  0  0
    3.1644   -1.6530   -0.2203 H   0  0  0  0  0  0  0  0  0  0  0  0
    0.5020   -0.4950    1.4357 H   0  0  0  0  0  0  0  0  0  0  0  0
    0.8517   -2.6306    0.4203 H   0  0  0  0  0  0  0  0  0  0  0  0
   -0.0656   -5.5938   -0.9342 H   0  0  0  0  0  0  0  0  0  0  0  0
   -1.7760   -1.1844   -2.1207 H   0  0  0  0  0  0  0  0  0  0  0  0
   -2.9426   -2.3292   -1.4510 H   0  0  0  0  0  0  0  0  0  0  0  0
   -2.7685   -1.3162    0.7773 H   0  0  0  0  0  0  0  0  0  0  0  0
   -3.4509    0.6327   -1.2897 H   0  0  0  0  0  0  0  0  0  0  0  0
   -4.4152   -0.5466   -0.7270 H   0  0  0  0  0  0  0  0  0  0  0  0
   -1.1802    1.0066   -0.4070 H   0  0  0  0  0  0  0  0  0  0  0  0
   -2.7524    1.0231    1.5722 H   0  0  0  0  0  0  0  0  0  0  0  0
   -1.9987    3.4522    3.0982 H   0  0  0  0  0  0  0  0  0  0  0  0
   -2.7752    1.9243    3.5870 H   0  0  0  0  0  0  0  0  0  0  0  0
   -1.2564    2.4163    4.3526 H   0  0  0  0  0  0  0  0  0  0  0  0
  1  2  1  0
  2  3  1  0
  3  4  1  0
  4  5  1  0
  3  6  1  0
  6  7  1  0
  7  8  1  0
  8  9  2  0
  9 10  1  0
 10 11  2  0
 10 12  1  0
  9 13  1  0
 13 14  1  0
 14 15  1  0
 14 16  1  0
 16 17  1  0
 17 18  1  0
 18 19  1  0
 18 20  2  0
 16  7  1  0
  1 21  1  0
  1 22  1  0
  1 23  1  0
  2 24  1  0
  2 25  1  0
  3 26  1  0
  4 27  1  0
  4 28  1  0
  5 29  1  0
  5 30  1  0
  5 31  1  0
  7 32  1  1
  8 33  1  0
 12 34  1  0
 13 35  1  0
 13 36  1  0
 14 37  1  1
 15 38  1  0
 15 39  1  0
 16 40  1  6
 17 41  1  0
 19 42  1  0
 19 43  1  0
 19 44  1  0
M  END
$$$$
