
     RDKit          3D

 58 61  0  0  0  0  0  0  0  0999 V2000
   -9.3862    0.2690    0.5016 C   0  0  0  0  0  0  0  0  0  0  0  0
   -8.2071    1.0342    0.7118 O   0  0  0  0  0  0  0  0  0  0  0  0
   -7.7133    0.9561    2.0513 C   0  0  0  0  0  0  0  0  0  0  0  0
   -6.8329   -0.2723    2.2827 C   0  0  0  0  0  0  0  0  0  0  0  0
   -5.4612   -0.0798    1.8269 N   0  0  0  0  0  0  0  0  0  0  0  0
   -4.4450    0.3614    2.6353 C   0  0  0  0  0  0  0  0  0  0  0  0
   -3.2879    0.3669    1.8929 C   0  0  0  0  0  0  0  0  0  0  0  0
   -3.6008   -0.0927    0.5770 C   0  0  0  0  0  0  0  0  0  0  0  0
   -2.8370   -0.3036   -0.6038 C   0  0  0  0  0  0  0  0  0  0  0  0
   -1.4525   -0.0237   -0.5623 N   0  0  0  0  0  0  0  0  0  0  0  0
   -0.5214   -0.1771   -1.5740 C   0  0  0  0  0  0  0  0  0  0  0  0
   -0.7287   -0.5906   -2.7084 O   0  0  0  0  0  0  0  0  0  0  0  0
    0.8637    0.2596   -1.1202 C   0  0  0  0  0  0  0  0  0  0  0  0
    1.9344   -0.0250   -2.1750 C   0  0  0  0  0  0  0  0  0  0  0  0
    3.2956    0.5360   -1.7893 C   0  0  2  0  0  0  0  0  0  0  0  0
    4.2549    0.3902   -2.8554 N   0  0  0  0  0  0  0  0  0  0  0  0
    5.3782   -0.2979   -2.4570 C   0  0  0  0  0  0  0  0  0  0  0  0
    6.3531   -0.4743   -3.1680 O   0  0  0  0  0  0  0  0  0  0  0  0
    5.1959   -0.7131   -1.1751 N   0  0  0  0  0  0  0  0  0  0  0  0
    6.1742   -1.4467   -0.4084 C   0  0  0  0  0  0  0  0  0  0  0  0
    7.0970   -0.5214    0.3500 C   0  0  0  0  0  0  0  0  0  0  0  0
    6.7871   -0.1205    1.6576 C   0  0  0  0  0  0  0  0  0  0  0  0
    7.6291    0.7524    2.3483 C   0  0  0  0  0  0  0  0  0  0  0  0
    8.7836    1.2386    1.7373 C   0  0  0  0  0  0  0  0  0  0  0  0
    9.0954    0.8565    0.4339 C   0  0  0  0  0  0  0  0  0  0  0  0
    8.2551   -0.0163   -0.2588 C   0  0  0  0  0  0  0  0  0  0  0  0
    3.9983   -0.2696   -0.6912 C   0  0  0  0  0  0  0  0  0  0  0  0
    3.5496   -0.4606    0.4319 O   0  0  0  0  0  0  0  0  0  0  0  0
   -3.4973   -0.7747   -1.7467 C   0  0  0  0  0  0  0  0  0  0  0  0
   -4.8675   -1.0297   -1.7352 C   0  0  0  0  0  0  0  0  0  0  0  0
   -5.6287   -0.8293   -0.5843 C   0  0  0  0  0  0  0  0  0  0  0  0
   -4.9759   -0.3629    0.5654 C   0  0  0  0  0  0  0  0  0  0  0  0
  -10.1997    0.6423    1.1306 H   0  0  0  0  0  0  0  0  0  0  0  0
   -9.2094   -0.7905    0.7055 H   0  0  0  0  0  0  0  0  0  0  0  0
   -9.6808    0.3759   -0.5457 H   0  0  0  0  0  0  0  0  0  0  0  0
   -7.1464    1.8745    2.2405 H   0  0  0  0  0  0  0  0  0  0  0  0
   -8.5583    0.9513    2.7502 H   0  0  0  0  0  0  0  0  0  0  0  0
   -6.7740   -0.4835    3.3570 H   0  0  0  0  0  0  0  0  0  0  0  0
   -7.2220   -1.1683    1.7903 H   0  0  0  0  0  0  0  0  0  0  0  0
   -4.6225    0.6326    3.6679 H   0  0  0  0  0  0  0  0  0  0  0  0
   -2.3181    0.6674    2.2645 H   0  0  0  0  0  0  0  0  0  0  0  0
   -1.1111    0.3131    0.3282 H   0  0  0  0  0  0  0  0  0  0  0  0
    1.0972   -0.2683   -0.1896 H   0  0  0  0  0  0  0  0  0  0  0  0
    0.8244    1.3346   -0.9082 H   0  0  0  0  0  0  0  0  0  0  0  0
    1.9998   -1.1082   -2.3431 H   0  0  0  0  0  0  0  0  0  0  0  0
    1.6274    0.4146   -3.1332 H   0  0  0  0  0  0  0  0  0  0  0  0
    3.2587    1.5930   -1.5081 H   0  0  0  0  0  0  0  0  0  0  0  0
    4.2313    0.8641   -3.7493 H   0  0  0  0  0  0  0  0  0  0  0  0
    5.6546   -2.1092    0.2942 H   0  0  0  0  0  0  0  0  0  0  0  0
    6.7610   -2.0826   -1.0820 H   0  0  0  0  0  0  0  0  0  0  0  0
    5.8821   -0.4822    2.1431 H   0  0  0  0  0  0  0  0  0  0  0  0
    7.3814    1.0561    3.3621 H   0  0  0  0  0  0  0  0  0  0  0  0
    9.4375    1.9200    2.2751 H   0  0  0  0  0  0  0  0  0  0  0  0
    9.9912    1.2417   -0.0466 H   0  0  0  0  0  0  0  0  0  0  0  0
    8.5047   -0.2957   -1.2815 H   0  0  0  0  0  0  0  0  0  0  0  0
   -2.9634   -0.9491   -2.6755 H   0  0  0  0  0  0  0  0  0  0  0  0
   -5.3508   -1.3866   -2.6419 H   0  0  0  0  0  0  0  0  0  0  0  0
   -6.6966   -1.0195   -0.5951 H   0  0  0  0  0  0  0  0  0  0  0  0
  1  2  1  0
  2  3  1  0
  3  4  1  0
  4  5  1  0
  5  6  1  0
  6  7  2  0
  7  8  1  0
  8  9  2  0
  9 10  1  0
 10 11  1  0
 11 12  2  0
 11 13  1  0
 13 14  1  0
 14 15  1  0
 15 16  1  0
 16 17  1  0
 17 18  2  0
 17 19  1  0
 19 20  1  0
 20 21  1  0
 21 22  2  0
 22 23  1  0
 23 24  2  0
 24 25  1  0
 25 26  2  0
 19 27  1  0
 27 28  2  0
  9 29  1  0
 29 30  2  0
 30 31  1  0
 31 32  2  0
 32  5  1  0
 32  8  1  0
 27 15  1  0
 26 21  1  0
  1 33  1  0
  1 34  1  0
  1 35  1  0
  3 36  1  0
  3 37  1  0
  4 38  1  0
  4 39  1  0
  6 40  1  0
  7 41  1  0
 10 42  1  0
 13 43  1  0
 13 44  1  0
 14 45  1  0
 14 46  1  0
 15 47  1  1
 16 48  1  0
 20 49  1  0
 20 50  1  0
 22 51  1  0
 23 52  1  0
 24 53  1  0
 25 54  1  0
 26 55  1  0
 29 56  1  0
 30 57  1  0
 31 58  1  0
M  END
$$$$
