
     RDKit          3D

 78 82  0  0  0  0  0  0  0  0999 V2000
    1.7820    5.1705   -0.3050 C   0  0  0  0  0  0  0  0  0  0  0  0
    2.4792    3.9322   -0.1698 O   0  0  0  0  0  0  0  0  0  0  0  0
    1.7351    2.9129    0.3389 C   0  0  0  0  0  0  0  0  0  0  0  0
    0.5722    3.0003    0.7122 O   0  0  0  0  0  0  0  0  0  0  0  0
    2.5661    1.6584    0.4222 C   0  0  0  0  0  0  0  0  0  0  0  0
    1.7190    0.4012    0.2336 C   0  0  2  0  0  0  0  0  0  0  0  0
    0.8683    0.2367    1.3740 O   0  0  0  0  0  0  0  0  0  0  0  0
    2.5792   -0.8854    0.1557 C   0  0  0  0  0  0  0  0  0  0  0  0
    3.4673   -1.1783    1.3792 C   0  0  0  0  0  0  0  0  0  0  0  0
    4.9216   -0.7343    1.1692 C   0  0  0  0  0  0  0  0  0  0  0  0
    5.8852   -1.0379    2.3340 C   0  0  0  0  0  0  0  0  0  0  0  0
    6.1064   -2.5389    2.5297 C   0  0  0  0  0  0  0  0  0  0  0  0
    5.4419   -0.3901    3.6454 C   0  0  0  0  0  0  0  0  0  0  0  0
    7.1559   -0.4570    2.0009 O   0  0  0  0  0  0  0  0  0  0  0  0
    0.9505    0.5105   -1.1049 C   0  0  0  0  0  0  0  0  0  0  0  0
    1.4796    0.4773   -2.2088 O   0  0  0  0  0  0  0  0  0  0  0  0
   -0.3763    0.6702   -0.8746 O   0  0  0  0  0  0  0  0  0  0  0  0
   -1.2454    0.6622   -2.0154 C   0  0  2  0  0  0  0  0  0  0  0  0
   -2.0728    1.9172   -2.0008 C   0  0  0  0  0  0  0  0  0  0  0  0
   -1.4117    3.1164   -1.9613 O   0  0  0  0  0  0  0  0  0  0  0  0
   -2.0892    4.1588   -1.2645 C   0  0  0  0  0  0  0  0  0  0  0  0
   -3.3897    1.6836   -2.0017 C   0  0  0  0  0  0  0  0  0  0  0  0
   -3.7035    0.2111   -2.0363 C   0  0  2  0  0  0  0  0  0  0  0  0
   -4.3876   -0.1677   -3.3661 C   0  0  0  0  0  0  0  0  0  0  0  0
   -5.8724    0.0933   -3.1564 C   0  0  0  0  0  0  0  0  0  0  0  0
   -6.0468    0.1742   -1.6485 C   0  0  0  0  0  0  0  0  0  0  0  0
   -4.7464   -0.2118   -1.1001 N   0  0  0  0  0  0  0  0  0  0  0  0
   -4.6025    0.1609    0.3093 C   0  0  0  0  0  0  0  0  0  0  0  0
   -3.1979    0.0499    0.9121 C   0  0  0  0  0  0  0  0  0  0  0  0
   -2.4715   -1.2212    0.5430 C   0  0  0  0  0  0  0  0  0  0  0  0
   -2.1645   -2.1410    1.5626 C   0  0  0  0  0  0  0  0  0  0  0  0
   -1.4376   -3.2653    1.2376 C   0  0  0  0  0  0  0  0  0  0  0  0
   -1.0230   -3.5101   -0.0460 C   0  0  0  0  0  0  0  0  0  0  0  0
   -1.3127   -2.6419   -1.0783 C   0  0  0  0  0  0  0  0  0  0  0  0
   -2.0502   -1.4715   -0.7937 C   0  0  0  0  0  0  0  0  0  0  0  0
   -2.2970   -0.4862   -1.9357 C   0  0  2  0  0  0  0  0  0  0  0  0
   -0.3065   -4.6635   -0.1520 O   0  0  0  0  0  0  0  0  0  0  0  0
   -0.3108   -5.1074    1.2223 C   0  0  0  0  0  0  0  0  0  0  0  0
   -1.0380   -4.2329    2.1086 O   0  0  0  0  0  0  0  0  0  0  0  0
    2.5249    5.9711   -0.3913 H   0  0  0  0  0  0  0  0  0  0  0  0
    1.1507    5.3826    0.5642 H   0  0  0  0  0  0  0  0  0  0  0  0
    1.1865    5.1492   -1.2226 H   0  0  0  0  0  0  0  0  0  0  0  0
    3.3427    1.7030   -0.3511 H   0  0  0  0  0  0  0  0  0  0  0  0
    3.0403    1.6747    1.4106 H   0  0  0  0  0  0  0  0  0  0  0  0
    0.1302    0.8781    1.2679 H   0  0  0  0  0  0  0  0  0  0  0  0
    3.1908   -0.8913   -0.7560 H   0  0  0  0  0  0  0  0  0  0  0  0
    1.8826   -1.7299    0.0551 H   0  0  0  0  0  0  0  0  0  0  0  0
    3.0459   -0.7127    2.2728 H   0  0  0  0  0  0  0  0  0  0  0  0
    3.4552   -2.2578    1.5553 H   0  0  0  0  0  0  0  0  0  0  0  0
    5.3106   -1.2121    0.2615 H   0  0  0  0  0  0  0  0  0  0  0  0
    4.9590    0.3385    0.9558 H   0  0  0  0  0  0  0  0  0  0  0  0
    5.1932   -3.0502    2.8519 H   0  0  0  0  0  0  0  0  0  0  0  0
    6.8890   -2.7250    3.2764 H   0  0  0  0  0  0  0  0  0  0  0  0
    6.4592   -2.9997    1.5999 H   0  0  0  0  0  0  0  0  0  0  0  0
    4.5321   -0.8494    4.0401 H   0  0  0  0  0  0  0  0  0  0  0  0
    6.2284   -0.4781    4.4052 H   0  0  0  0  0  0  0  0  0  0  0  0
    5.2630    0.6847    3.5075 H   0  0  0  0  0  0  0  0  0  0  0  0
    7.4443   -0.8341    1.1493 H   0  0  0  0  0  0  0  0  0  0  0  0
   -0.7034    0.6065   -2.9658 H   0  0  0  0  0  0  0  0  0  0  0  0
   -1.4397    5.0368   -1.2527 H   0  0  0  0  0  0  0  0  0  0  0  0
   -3.0238    4.4360   -1.7693 H   0  0  0  0  0  0  0  0  0  0  0  0
   -2.2807    3.8618   -0.2274 H   0  0  0  0  0  0  0  0  0  0  0  0
   -4.1550    2.4464   -1.9978 H   0  0  0  0  0  0  0  0  0  0  0  0
   -4.2575   -1.2399   -3.5766 H   0  0  0  0  0  0  0  0  0  0  0  0
   -4.0048    0.3868   -4.2298 H   0  0  0  0  0  0  0  0  0  0  0  0
   -6.4756   -0.7116   -3.5876 H   0  0  0  0  0  0  0  0  0  0  0  0
   -6.1718    1.0322   -3.6371 H   0  0  0  0  0  0  0  0  0  0  0  0
   -6.8426   -0.4881   -1.2979 H   0  0  0  0  0  0  0  0  0  0  0  0
   -6.3185    1.2004   -1.3761 H   0  0  0  0  0  0  0  0  0  0  0  0
   -5.2693   -0.4913    0.8910 H   0  0  0  0  0  0  0  0  0  0  0  0
   -4.9544    1.1870    0.4805 H   0  0  0  0  0  0  0  0  0  0  0  0
   -3.2853    0.1258    2.0049 H   0  0  0  0  0  0  0  0  0  0  0  0
   -2.5808    0.9072    0.6293 H   0  0  0  0  0  0  0  0  0  0  0  0
   -2.4677   -1.9723    2.5903 H   0  0  0  0  0  0  0  0  0  0  0  0
   -0.9585   -2.8620   -2.0807 H   0  0  0  0  0  0  0  0  0  0  0  0
   -2.1701   -1.0790   -2.8569 H   0  0  0  0  0  0  0  0  0  0  0  0
   -0.7541   -6.1065    1.2650 H   0  0  0  0  0  0  0  0  0  0  0  0
    0.7293   -5.1730    1.5714 H   0  0  0  0  0  0  0  0  0  0  0  0
  1  2  1  0
  2  3  1  0
  3  4  2  0
  3  5  1  0
  5  6  1  0
  6  7  1  1
  6  8  1  0
  8  9  1  0
  9 10  1  0
 10 11  1  0
 11 12  1  0
 11 13  1  0
 11 14  1  0
  6 15  1  0
 15 16  2  0
 15 17  1  0
 17 18  1  0
 18 19  1  0
 19 20  1  0
 20 21  1  0
 19 22  2  0
 22 23  1  0
 23 24  1  6
 24 25  1  0
 25 26  1  0
 26 27  1  0
 27 28  1  0
 28 29  1  0
 29 30  1  0
 30 31  2  0
 31 32  1  0
 32 33  2  0
 33 34  1  0
 34 35  2  0
 35 36  1  0
 33 37  1  0
 37 38  1  0
 38 39  1  0
 36 18  1  0
 27 23  1  0
 35 30  1  0
 36 23  1  0
 39 32  1  0
  1 40  1  0
  1 41  1  0
  1 42  1  0
  5 43  1  0
  5 44  1  0
  7 45  1  0
  8 46  1  0
  8 47  1  0
  9 48  1  0
  9 49  1  0
 10 50  1  0
 10 51  1  0
 12 52  1  0
 12 53  1  0
 12 54  1  0
 13 55  1  0
 13 56  1  0
 13 57  1  0
 14 58  1  0
 18 59  1  6
 21 60  1  0
 21 61  1  0
 21 62  1  0
 22 63  1  0
 24 64  1  0
 24 65  1  0
 25 66  1  0
 25 67  1  0
 26 68  1  0
 26 69  1  0
 28 70  1  0
 28 71  1  0
 29 72  1  0
 29 73  1  0
 31 74  1  0
 34 75  1  0
 36 76  1  6
 38 77  1  0
 38 78  1  0
M  END
$$$$
