
     RDKit          3D

 20 20  0  0  0  0  0  0  0  0999 V2000
    4.0725    0.3258   -0.5225 N   0  0  0  0  0  0  0  0  0  0  0  0
    2.6663    0.4663   -0.5519 N   0  0  0  0  0  0  0  0  0  0  0  0
    1.9038   -0.2157    0.3908 C   0  0  0  0  0  0  0  0  0  0  0  0
    2.4027   -0.8914    1.2875 O   0  0  0  0  0  0  0  0  0  0  0  0
    0.4253   -0.1240    0.2395 C   0  0  0  0  0  0  0  0  0  0  0  0
   -0.3631   -1.1457    0.7792 C   0  0  0  0  0  0  0  0  0  0  0  0
   -1.7558   -1.0977    0.6615 C   0  0  0  0  0  0  0  0  0  0  0  0
   -2.3787   -0.0516   -0.0227 C   0  0  0  0  0  0  0  0  0  0  0  0
   -3.7727    0.0525   -0.0320 N   0  0  0  0  0  0  0  0  0  0  0  0
   -1.5915    1.0026   -0.4937 C   0  0  0  0  0  0  0  0  0  0  0  0
   -0.1966    0.9649   -0.3811 C   0  0  0  0  0  0  0  0  0  0  0  0
    4.2656   -0.6272   -0.1845 H   0  0  0  0  0  0  0  0  0  0  0  0
    4.4155    0.9100    0.2471 H   0  0  0  0  0  0  0  0  0  0  0  0
    2.2393    0.8195   -1.4048 H   0  0  0  0  0  0  0  0  0  0  0  0
    0.1018   -1.9782    1.3039 H   0  0  0  0  0  0  0  0  0  0  0  0
   -2.3498   -1.8879    1.1138 H   0  0  0  0  0  0  0  0  0  0  0  0
   -4.2555   -0.8378    0.0417 H   0  0  0  0  0  0  0  0  0  0  0  0
   -4.1432    0.6307   -0.7795 H   0  0  0  0  0  0  0  0  0  0  0  0
   -2.0617    1.8724   -0.9462 H   0  0  0  0  0  0  0  0  0  0  0  0
    0.3759    1.8124   -0.7463 H   0  0  0  0  0  0  0  0  0  0  0  0
  1  2  1  0
  2  3  1  0
  3  4  2  0
  3  5  1  0
  5  6  2  0
  6  7  1  0
  7  8  2  0
  8  9  1  0
  8 10  1  0
 10 11  2  0
 11  5  1  0
  1 12  1  0
  1 13  1  0
  2 14  1  0
  6 15  1  0
  7 16  1  0
  9 17  1  0
  9 18  1  0
 10 19  1  0
 11 20  1  0
M  END
$$$$
