
     RDKit          3D

 45 47  0  0  0  0  0  0  0  0999 V2000
   -2.4841   -0.2242   -2.3936 O   0  0  0  0  0  0  0  0  0  0  0  0
   -1.5230   -0.3350   -1.6455 C   0  0  0  0  0  0  0  0  0  0  0  0
   -0.2333   -0.5324   -2.0672 N   0  0  0  0  0  0  0  0  0  0  0  0
    0.0859   -0.4353   -3.4820 C   0  0  0  0  0  0  0  0  0  0  0  0
    1.5720   -0.6694   -3.7563 C   0  0  0  0  0  0  0  0  0  0  0  0
    2.4338    0.3685   -3.1026 C   0  0  0  0  0  0  0  0  0  0  0  0
    3.0701    1.4285   -3.7137 C   0  0  0  0  0  0  0  0  0  0  0  0
    3.9062    2.3615   -2.5479 S   0  0  0  0  0  0  0  0  0  0  0  0
    3.3580    1.3073   -1.2999 C   0  0  0  0  0  0  0  0  0  0  0  0
    3.7262    1.5047    0.1080 C   0  0  0  0  0  0  0  0  0  0  0  0
    3.6221    0.4363    1.0114 C   0  0  0  0  0  0  0  0  0  0  0  0
    3.9540    0.6108    2.3522 C   0  0  0  0  0  0  0  0  0  0  0  0
    4.3844    1.8602    2.7624 C   0  0  0  0  0  0  0  0  0  0  0  0
    4.4980    2.9196    1.9346 N   0  0  0  0  0  0  0  0  0  0  0  0
    4.1649    2.7183    0.6337 C   0  0  0  0  0  0  0  0  0  0  0  0
    2.6061    0.3087   -1.7263 N   0  0  0  0  0  0  0  0  0  0  0  0
   -1.5811   -0.2660   -0.2773 N   0  0  0  0  0  0  0  0  0  0  0  0
   -2.8530   -0.1320    0.4215 C   0  0  0  0  0  0  0  0  0  0  0  0
   -2.6197    0.5631    1.7749 C   0  0  0  0  0  0  0  0  0  0  0  0
   -3.6901    0.1957    2.7910 C   0  0  0  0  0  0  0  0  0  0  0  0
   -3.6943   -1.3041    3.0839 C   0  0  0  0  0  0  0  0  0  0  0  0
   -3.2540   -2.1613    1.8940 C   0  0  0  0  0  0  0  0  0  0  0  0
   -3.5618   -1.4923    0.5594 C   0  0  0  0  0  0  0  0  0  0  0  0
    0.4668   -0.1355   -1.4484 H   0  0  0  0  0  0  0  0  0  0  0  0
   -0.2226    0.5592   -3.8294 H   0  0  0  0  0  0  0  0  0  0  0  0
   -0.5172   -1.1778   -4.0173 H   0  0  0  0  0  0  0  0  0  0  0  0
    1.7456   -0.6657   -4.8386 H   0  0  0  0  0  0  0  0  0  0  0  0
    1.8688   -1.6590   -3.3868 H   0  0  0  0  0  0  0  0  0  0  0  0
    3.0767    1.6983   -4.7597 H   0  0  0  0  0  0  0  0  0  0  0  0
    3.2825   -0.5399    0.6695 H   0  0  0  0  0  0  0  0  0  0  0  0
    3.8751   -0.2079    3.0581 H   0  0  0  0  0  0  0  0  0  0  0  0
    4.6519    2.0483    3.7988 H   0  0  0  0  0  0  0  0  0  0  0  0
    4.2567    3.6121    0.0252 H   0  0  0  0  0  0  0  0  0  0  0  0
   -0.8482   -0.7711    0.1942 H   0  0  0  0  0  0  0  0  0  0  0  0
   -3.4957    0.5114   -0.1948 H   0  0  0  0  0  0  0  0  0  0  0  0
   -1.6368    0.2940    2.1846 H   0  0  0  0  0  0  0  0  0  0  0  0
   -2.5974    1.6496    1.6256 H   0  0  0  0  0  0  0  0  0  0  0  0
   -3.5354    0.7513    3.7229 H   0  0  0  0  0  0  0  0  0  0  0  0
   -4.6728    0.4965    2.4076 H   0  0  0  0  0  0  0  0  0  0  0  0
   -3.0282   -1.5186    3.9289 H   0  0  0  0  0  0  0  0  0  0  0  0
   -4.7003   -1.5988    3.4055 H   0  0  0  0  0  0  0  0  0  0  0  0
   -3.7419   -3.1412    1.9468 H   0  0  0  0  0  0  0  0  0  0  0  0
   -2.1741   -2.3475    1.9634 H   0  0  0  0  0  0  0  0  0  0  0  0
   -4.6471   -1.3373    0.4930 H   0  0  0  0  0  0  0  0  0  0  0  0
   -3.2941   -2.1639   -0.2635 H   0  0  0  0  0  0  0  0  0  0  0  0
  1  2  2  0
  2  3  1  0
  3  4  1  0
  4  5  1  0
  5  6  1  0
  6  7  2  0
  7  8  1  0
  8  9  1  0
  9 10  1  0
 10 11  2  0
 11 12  1  0
 12 13  2  0
 13 14  1  0
 14 15  2  0
  9 16  2  0
  2 17  1  0
 17 18  1  0
 18 19  1  0
 19 20  1  0
 20 21  1  0
 21 22  1  0
 22 23  1  0
 16  6  1  0
 23 18  1  0
 15 10  1  0
  3 24  1  0
  4 25  1  0
  4 26  1  0
  5 27  1  0
  5 28  1  0
  7 29  1  0
 11 30  1  0
 12 31  1  0
 13 32  1  0
 15 33  1  0
 17 34  1  0
 18 35  1  0
 19 36  1  0
 19 37  1  0
 20 38  1  0
 20 39  1  0
 21 40  1  0
 21 41  1  0
 22 42  1  0
 22 43  1  0
 23 44  1  0
 23 45  1  0
M  END
$$$$
