
     RDKit          3D

 62 66  0  0  0  0  0  0  0  0999 V2000
   -7.9367    2.0491   -1.1522 C   0  0  0  0  0  0  0  0  0  0  0  0
   -6.6011    1.9160   -0.5998 N   0  0  0  0  0  0  0  0  0  0  0  0
   -6.3803    2.5378    0.6978 C   0  0  0  0  0  0  0  0  0  0  0  0
   -5.6612    1.1525   -1.2896 C   0  0  0  0  0  0  0  0  0  0  0  0
   -5.9773    0.4600   -2.2561 O   0  0  0  0  0  0  0  0  0  0  0  0
   -4.2900    1.1971   -0.8139 C   0  0  0  0  0  0  0  0  0  0  0  0
   -3.4801    2.3158   -0.6679 C   0  0  0  0  0  0  0  0  0  0  0  0
   -2.2256    1.8900   -0.1799 C   0  0  0  0  0  0  0  0  0  0  0  0
   -1.0354    2.4939    0.1910 C   0  0  0  0  0  0  0  0  0  0  0  0
   -0.0217    1.7388    0.6570 N   0  0  0  0  0  0  0  0  0  0  0  0
   -0.1648    0.4004    0.7318 C   0  0  0  0  0  0  0  0  0  0  0  0
    0.8654   -0.4115    1.2017 N   0  0  0  0  0  0  0  0  0  0  0  0
    2.2471   -0.2367    1.0050 C   0  0  0  0  0  0  0  0  0  0  0  0
    3.1069   -1.1390    1.6242 C   0  0  0  0  0  0  0  0  0  0  0  0
    4.4910   -1.0118    1.4595 C   0  0  0  0  0  0  0  0  0  0  0  0
    5.0338   -0.0083    0.6531 C   0  0  0  0  0  0  0  0  0  0  0  0
    6.4238    0.0918    0.4627 N   0  0  0  0  0  0  0  0  0  0  0  0
    6.9374    1.2862   -0.2360 C   0  0  0  0  0  0  0  0  0  0  0  0
    8.4885    1.3392   -0.1669 C   0  0  0  0  0  0  0  0  0  0  0  0
    9.1424    0.1214   -0.6903 N   0  0  0  0  0  0  0  0  0  0  0  0
    8.5802   -1.0582   -0.0043 C   0  0  0  0  0  0  0  0  0  0  0  0
    7.0422   -1.1478   -0.0625 C   0  0  0  0  0  0  0  0  0  0  0  0
    4.0884    0.8703    0.1238 C   0  0  0  0  0  0  0  0  0  0  0  0
    2.7408    0.7791    0.2723 N   0  0  0  0  0  0  0  0  0  0  0  0
   -1.2926   -0.2659    0.4286 N   0  0  0  0  0  0  0  0  0  0  0  0
   -2.2791    0.5140   -0.0433 C   0  0  0  0  0  0  0  0  0  0  0  0
   -3.5247    0.0915   -0.4593 N   0  0  0  0  0  0  0  0  0  0  0  0
   -4.0162   -1.2741   -0.4096 C   0  0  0  0  0  0  0  0  0  0  0  0
   -4.3230   -1.7679    1.0135 C   0  0  0  0  0  0  0  0  0  0  0  0
   -4.2399   -3.2955    0.9401 C   0  0  0  0  0  0  0  0  0  0  0  0
   -3.7662   -3.6425   -0.4728 C   0  0  0  0  0  0  0  0  0  0  0  0
   -3.1128   -2.3699   -0.9957 C   0  0  0  0  0  0  0  0  0  0  0  0
   -8.2232    3.1061   -1.1316 H   0  0  0  0  0  0  0  0  0  0  0  0
   -8.6296    1.4653   -0.5358 H   0  0  0  0  0  0  0  0  0  0  0  0
   -7.9886    1.6956   -2.1831 H   0  0  0  0  0  0  0  0  0  0  0  0
   -7.2627    2.3752    1.3260 H   0  0  0  0  0  0  0  0  0  0  0  0
   -5.5155    2.1210    1.2181 H   0  0  0  0  0  0  0  0  0  0  0  0
   -6.2439    3.6127    0.5492 H   0  0  0  0  0  0  0  0  0  0  0  0
   -3.7850    3.3319   -0.8839 H   0  0  0  0  0  0  0  0  0  0  0  0
   -0.8633    3.5608    0.1361 H   0  0  0  0  0  0  0  0  0  0  0  0
    0.5758   -1.3645    1.0424 H   0  0  0  0  0  0  0  0  0  0  0  0
    2.7088   -1.9539    2.2238 H   0  0  0  0  0  0  0  0  0  0  0  0
    5.1394   -1.7066    1.9875 H   0  0  0  0  0  0  0  0  0  0  0  0
    6.6176    1.2889   -1.2824 H   0  0  0  0  0  0  0  0  0  0  0  0
    6.5525    2.1896    0.2495 H   0  0  0  0  0  0  0  0  0  0  0  0
    8.7930    1.5000    0.8808 H   0  0  0  0  0  0  0  0  0  0  0  0
    8.8453    2.2063   -0.7463 H   0  0  0  0  0  0  0  0  0  0  0  0
   10.1387    0.1771   -0.4683 H   0  0  0  0  0  0  0  0  0  0  0  0
    8.9003   -1.0391    1.0440 H   0  0  0  0  0  0  0  0  0  0  0  0
    9.0159   -1.9581   -0.4545 H   0  0  0  0  0  0  0  0  0  0  0  0
    6.7184   -1.3081   -1.0946 H   0  0  0  0  0  0  0  0  0  0  0  0
    6.7492   -2.0228    0.5157 H   0  0  0  0  0  0  0  0  0  0  0  0
    4.3755    1.7216   -0.4841 H   0  0  0  0  0  0  0  0  0  0  0  0
   -4.9580   -1.3090   -0.9761 H   0  0  0  0  0  0  0  0  0  0  0  0
   -5.3162   -1.4289    1.3489 H   0  0  0  0  0  0  0  0  0  0  0  0
   -3.5964   -1.3959    1.7492 H   0  0  0  0  0  0  0  0  0  0  0  0
   -5.2115   -3.7602    1.1434 H   0  0  0  0  0  0  0  0  0  0  0  0
   -3.5367   -3.6675    1.6978 H   0  0  0  0  0  0  0  0  0  0  0  0
   -4.6273   -3.8961   -1.1027 H   0  0  0  0  0  0  0  0  0  0  0  0
   -3.0777   -4.4952   -0.4787 H   0  0  0  0  0  0  0  0  0  0  0  0
   -2.0811   -2.3252   -0.6256 H   0  0  0  0  0  0  0  0  0  0  0  0
   -3.0726   -2.3369   -2.0923 H   0  0  0  0  0  0  0  0  0  0  0  0
  1  2  1  0
  2  3  1  0
  2  4  1  0
  4  5  2  0
  4  6  1  0
  6  7  2  0
  7  8  1  0
  8  9  2  0
  9 10  1  0
 10 11  2  0
 11 12  1  0
 12 13  1  0
 13 14  2  0
 14 15  1  0
 15 16  2  0
 16 17  1  0
 17 18  1  0
 18 19  1  0
 19 20  1  0
 20 21  1  0
 21 22  1  0
 16 23  1  0
 23 24  2  0
 11 25  1  0
 25 26  2  0
 26 27  1  0
 27 28  1  0
 28 29  1  0
 29 30  1  0
 30 31  1  0
 31 32  1  0
 27  6  1  0
 32 28  1  0
 26  8  1  0
 24 13  1  0
 22 17  1  0
  1 33  1  0
  1 34  1  0
  1 35  1  0
  3 36  1  0
  3 37  1  0
  3 38  1  0
  7 39  1  0
  9 40  1  0
 12 41  1  0
 14 42  1  0
 15 43  1  0
 18 44  1  0
 18 45  1  0
 19 46  1  0
 19 47  1  0
 20 48  1  0
 21 49  1  0
 21 50  1  0
 22 51  1  0
 22 52  1  0
 23 53  1  0
 28 54  1  0
 29 55  1  0
 29 56  1  0
 30 57  1  0
 30 58  1  0
 31 59  1  0
 31 60  1  0
 32 61  1  0
 32 62  1  0
M  END
$$$$
