
     RDKit          3D

 38 41  0  0  0  0  0  0  0  0999 V2000
    1.7973    0.3715   -2.8045 O   0  0  0  0  0  0  0  0  0  0  0  0
    1.2967    0.7866   -1.7637 C   0  0  0  0  0  0  0  0  0  0  0  0
   -0.1593    1.2565   -1.7235 C   0  0  0  0  0  0  0  0  0  0  0  0
   -0.9542    0.3680   -0.8960 N   0  0  0  0  0  0  0  0  0  0  0  0
   -1.7912   -0.5870   -1.4055 C   0  0  0  0  0  0  0  0  0  0  0  0
   -1.9899   -0.8334   -2.5846 O   0  0  0  0  0  0  0  0  0  0  0  0
   -2.4712   -1.2934   -0.2654 C   0  0  0  0  0  0  0  0  0  0  0  0
   -3.9937   -1.0695   -0.1514 C   0  0  0  0  0  0  0  0  0  0  0  0
   -4.3196    0.4036   -0.2721 C   0  0  0  0  0  0  0  0  0  0  0  0
   -3.8453    1.0097    0.8264 C   0  0  0  0  0  0  0  0  0  0  0  0
   -3.2009   -0.0566    1.6842 C   0  0  0  0  0  0  0  0  0  0  0  0
   -4.1733   -1.2045    1.3691 C   0  0  0  0  0  0  0  0  0  0  0  0
   -1.9236   -0.5911    1.0053 C   0  0  0  0  0  0  0  0  0  0  0  0
   -0.9801    0.4447    0.4680 C   0  0  0  0  0  0  0  0  0  0  0  0
   -0.3112    1.2117    1.1483 O   0  0  0  0  0  0  0  0  0  0  0  0
    1.9393    0.9185   -0.5411 N   0  0  0  0  0  0  0  0  0  0  0  0
    3.2699    0.5853   -0.2225 C   0  0  0  0  0  0  0  0  0  0  0  0
    4.1891    0.0684   -1.1376 C   0  0  0  0  0  0  0  0  0  0  0  0
    5.4946   -0.2382   -0.7360 C   0  0  0  0  0  0  0  0  0  0  0  0
    5.8833   -0.0277    0.5841 C   0  0  0  0  0  0  0  0  0  0  0  0
    7.6457   -0.4426    1.1244 Br  0  0  0  0  0  0  0  0  0  0  0  0
    4.9787    0.4870    1.5078 C   0  0  0  0  0  0  0  0  0  0  0  0
    3.6757    0.7921    1.1033 C   0  0  0  0  0  0  0  0  0  0  0  0
   -0.1933    2.2714   -1.3119 H   0  0  0  0  0  0  0  0  0  0  0  0
   -0.5537    1.2785   -2.7445 H   0  0  0  0  0  0  0  0  0  0  0  0
   -2.2066   -2.3564   -0.2650 H   0  0  0  0  0  0  0  0  0  0  0  0
   -4.6218   -1.7277   -0.7528 H   0  0  0  0  0  0  0  0  0  0  0  0
   -4.8128    0.8729   -1.1116 H   0  0  0  0  0  0  0  0  0  0  0  0
   -3.8818    2.0662    1.0504 H   0  0  0  0  0  0  0  0  0  0  0  0
   -3.1117    0.1985    2.7408 H   0  0  0  0  0  0  0  0  0  0  0  0
   -3.8428   -2.1735    1.7610 H   0  0  0  0  0  0  0  0  0  0  0  0
   -5.2002   -1.0156    1.7084 H   0  0  0  0  0  0  0  0  0  0  0  0
   -1.3842   -1.3046    1.6375 H   0  0  0  0  0  0  0  0  0  0  0  0
    1.3765    1.2794    0.2309 H   0  0  0  0  0  0  0  0  0  0  0  0
    3.9252   -0.1092   -2.1756 H   0  0  0  0  0  0  0  0  0  0  0  0
    6.1942   -0.6393   -1.4648 H   0  0  0  0  0  0  0  0  0  0  0  0
    5.2736    0.6550    2.5400 H   0  0  0  0  0  0  0  0  0  0  0  0
    2.9827    1.1931    1.8399 H   0  0  0  0  0  0  0  0  0  0  0  0
  1  2  2  0
  2  3  1  0
  3  4  1  0
  4  5  1  0
  5  6  2  0
  5  7  1  0
  7  8  1  0
  8  9  1  0
  9 10  2  0
 10 11  1  0
 11 12  1  0
 11 13  1  0
 13 14  1  0
 14 15  2  0
  2 16  1  0
 16 17  1  0
 17 18  2  0
 18 19  1  0
 19 20  2  0
 20 21  1  0
 20 22  1  0
 22 23  2  0
 14  4  1  0
 23 17  1  0
 13  7  1  0
 12  8  1  0
  3 24  1  0
  3 25  1  0
  7 26  1  0
  8 27  1  0
  9 28  1  0
 10 29  1  0
 11 30  1  0
 12 31  1  0
 12 32  1  0
 13 33  1  0
 16 34  1  0
 18 35  1  0
 19 36  1  0
 22 37  1  0
 23 38  1  0
M  END
$$$$
