
     RDKit          3D

 31 33  0  0  0  0  0  0  0  0999 V2000
   -4.0467   -0.6833    0.9873 C   0  0  0  0  0  0  0  0  0  0  0  0
   -3.3668   -0.9942   -0.3359 C   0  0  0  0  0  0  0  0  0  0  0  0
   -2.1701   -0.2118   -0.5258 N   0  0  0  0  0  0  0  0  0  0  0  0
   -2.1216    1.0337   -1.1439 C   0  0  0  0  0  0  0  0  0  0  0  0
   -3.0131    1.6710   -1.6687 O   0  0  0  0  0  0  0  0  0  0  0  0
   -0.7129    1.4666   -1.0306 C   0  0  0  0  0  0  0  0  0  0  0  0
   -0.0753    2.6093   -1.4651 C   0  0  0  0  0  0  0  0  0  0  0  0
    1.2917    2.7273   -1.1850 C   0  0  0  0  0  0  0  0  0  0  0  0
    1.9851    1.7122   -0.4828 C   0  0  0  0  0  0  0  0  0  0  0  0
    1.3226    0.5329   -0.0334 C   0  0  0  0  0  0  0  0  0  0  0  0
    1.7888   -0.6083    0.6799 C   0  0  0  0  0  0  0  0  0  0  0  0
    3.4833   -0.7357    1.1772 S   0  0  0  0  0  6  0  0  0  0  0  0
    4.2772   -0.9427   -0.2879 N   0  0  0  0  0  0  0  0  0  0  0  0
    3.9255    0.5299    1.7115 O   0  0  0  0  0  0  0  0  0  0  0  0
    3.6783   -1.9786    1.8883 O   0  0  0  0  0  0  0  0  0  0  0  0
    0.9076   -1.6669    1.0281 C   0  0  0  0  0  0  0  0  0  0  0  0
   -0.4497   -1.6315    0.6702 C   0  0  0  0  0  0  0  0  0  0  0  0
   -0.8973   -0.5324   -0.0303 C   0  0  0  0  0  0  0  0  0  0  0  0
   -0.0344    0.4862   -0.3510 C   0  0  0  0  0  0  0  0  0  0  0  0
   -3.3908   -0.9137    1.8331 H   0  0  0  0  0  0  0  0  0  0  0  0
   -4.3139    0.3768    1.0517 H   0  0  0  0  0  0  0  0  0  0  0  0
   -4.9614   -1.2744    1.0933 H   0  0  0  0  0  0  0  0  0  0  0  0
   -3.1209   -2.0591   -0.4055 H   0  0  0  0  0  0  0  0  0  0  0  0
   -4.0598   -0.7634   -1.1530 H   0  0  0  0  0  0  0  0  0  0  0  0
   -0.6174    3.3833   -1.9979 H   0  0  0  0  0  0  0  0  0  0  0  0
    1.8307    3.6167   -1.5069 H   0  0  0  0  0  0  0  0  0  0  0  0
    3.0443    1.8619   -0.2849 H   0  0  0  0  0  0  0  0  0  0  0  0
    4.9293   -0.1739   -0.4446 H   0  0  0  0  0  0  0  0  0  0  0  0
    4.7197   -1.8625   -0.3114 H   0  0  0  0  0  0  0  0  0  0  0  0
    1.2785   -2.5286    1.5826 H   0  0  0  0  0  0  0  0  0  0  0  0
   -1.1107   -2.4470    0.9414 H   0  0  0  0  0  0  0  0  0  0  0  0
  1  2  1  0
  2  3  1  0
  3  4  1  0
  4  5  2  0
  4  6  1  0
  6  7  2  0
  7  8  1  0
  8  9  2  0
  9 10  1  0
 10 11  2  0
 11 12  1  0
 12 13  1  0
 12 14  2  0
 12 15  2  0
 11 16  1  0
 16 17  2  0
 17 18  1  0
 18 19  2  0
 18  3  1  0
 19  6  1  0
 19 10  1  0
  1 20  1  0
  1 21  1  0
  1 22  1  0
  2 23  1  0
  2 24  1  0
  7 25  1  0
  8 26  1  0
  9 27  1  0
 13 28  1  0
 13 29  1  0
 16 30  1  0
 17 31  1  0
M  END
$$$$
