
     RDKit          3D

 26 26  0  0  0  0  0  0  0  0999 V2000
    0.6867    0.0000    0.0000 Cl  0  0  0  0  0  0  0  0  0  0  0  0
    4.7364    0.3261    0.0207 N   0  0  0  0  0  0  0  0  0  0  0  0
    3.8678    0.0658   -1.1077 C   0  0  0  0  0  0  0  0  0  0  0  0
    2.4856    0.0732   -0.5883 C   0  0  0  0  0  0  0  0  0  0  0  0
    2.0095    0.2769    0.6677 C   0  0  0  0  0  0  0  0  0  0  0  0
    0.6999    0.2337    0.8916 C   0  0  0  0  0  0  0  0  0  0  0  0
   -0.1327   -0.0192   -0.1721 C   0  0  0  0  0  0  0  0  0  0  0  0
   -1.5778   -0.1220   -0.2195 C   0  0  0  0  0  0  0  0  0  0  0  0
   -2.2835    0.0503    0.9478 C   0  0  0  0  0  0  0  0  0  0  0  0
   -3.6596   -0.0461    0.9106 C   0  0  0  0  0  0  0  0  0  0  0  0
   -4.3116   -0.3127   -0.2889 C   0  0  0  0  0  0  0  0  0  0  0  0
   -3.6064   -0.4863   -1.4630 C   0  0  0  0  0  0  0  0  0  0  0  0
   -2.2204   -0.3860   -1.4086 C   0  0  0  0  0  0  0  0  0  0  0  0
    0.9994   -0.1952   -1.5078 S   0  0  0  0  0  0  0  0  0  0  0  0
   -0.6867    0.0000    0.0000 H   0  0  0  0  0  0  0  0  0  0  0  0
    4.7162    1.3068    0.3205 H   0  0  0  0  0  0  0  0  0  0  0  0
    4.5115   -0.2777    0.8189 H   0  0  0  0  0  0  0  0  0  0  0  0
    3.9746    0.9087   -1.8468 H   0  0  0  0  0  0  0  0  0  0  0  0
    4.0708   -0.9076   -1.5684 H   0  0  0  0  0  0  0  0  0  0  0  0
    2.7404    0.4781    1.4899 H   0  0  0  0  0  0  0  0  0  0  0  0
    0.2172    0.3890    1.8911 H   0  0  0  0  0  0  0  0  0  0  0  0
   -1.8245    0.2580    1.8994 H   0  0  0  0  0  0  0  0  0  0  0  0
   -4.2630    0.0804    1.7971 H   0  0  0  0  0  0  0  0  0  0  0  0
   -5.3915   -0.3918   -0.3363 H   0  0  0  0  0  0  0  0  0  0  0  0
   -4.1000   -0.6966   -2.4163 H   0  0  0  0  0  0  0  0  0  0  0  0
   -1.6584   -0.5188   -2.3144 H   0  0  0  0  0  0  0  0  0  0  0  0
  2  3  1  0
  3  4  1  0
  4  5  2  0
  5  6  1  0
  6  7  2  0
  7  8  1  0
  8  9  2  0
  9 10  1  0
 10 11  2  0
 11 12  1  0
 12 13  2  0
  7 14  1  0
 14  4  1  0
 13  8  1  0
  1 15  1  0
  2 16  1  0
  2 17  1  0
  3 18  1  0
  3 19  1  0
  5 20  1  0
  6 21  1  0
  9 22  1  0
 10 23  1  0
 11 24  1  0
 12 25  1  0
 13 26  1  0
M  END
$$$$
