
     RDKit          3D

 45 47  0  0  0  0  0  0  0  0999 V2000
   -3.3815    1.1525    2.8719 C   0  0  0  0  0  0  0  0  0  0  0  0
   -2.4495    0.6101    1.8444 C   0  0  0  0  0  0  0  0  0  0  0  0
   -1.1250    0.9239    1.6256 C   0  0  0  0  0  0  0  0  0  0  0  0
   -0.6474    0.1508    0.5301 C   0  0  0  0  0  0  0  0  0  0  0  0
    0.7102    0.1447   -0.0382 C   0  0  0  0  0  0  0  0  0  0  0  0
    1.0166   -0.5703   -0.9950 O   0  0  0  0  0  0  0  0  0  0  0  0
    1.7394    1.0983    0.5754 C   0  0  0  0  0  0  0  0  0  0  0  0
    3.0570    0.8952    0.0474 O   0  0  0  0  0  0  0  0  0  0  0  0
    3.7119   -0.1608    0.5993 C   0  0  0  0  0  0  0  0  0  0  0  0
    3.2892   -0.8467    1.5170 O   0  0  0  0  0  0  0  0  0  0  0  0
    5.0439   -0.3559   -0.0343 C   0  0  0  0  0  0  0  0  0  0  0  0
    5.9213   -1.2493    0.6042 C   0  0  0  0  0  0  0  0  0  0  0  0
    7.1967   -1.4894    0.0874 C   0  0  0  0  0  0  0  0  0  0  0  0
    7.6087   -0.8414   -1.0744 C   0  0  0  0  0  0  0  0  0  0  0  0
    6.7453    0.0419   -1.7215 C   0  0  0  0  0  0  0  0  0  0  0  0
    5.4692    0.2823   -1.2084 C   0  0  0  0  0  0  0  0  0  0  0  0
    4.7051    1.1537   -1.9359 O   0  0  0  0  0  0  0  0  0  0  0  0
   -1.7285   -0.6091    0.0853 C   0  0  0  0  0  0  0  0  0  0  0  0
   -1.7911   -1.5721   -1.0575 C   0  0  0  0  0  0  0  0  0  0  0  0
   -2.8070   -0.3474    0.9153 N   0  0  0  0  0  0  0  0  0  0  0  0
   -4.1122   -1.0165    0.8668 C   0  0  0  0  0  0  0  0  0  0  0  0
   -5.1385   -0.2110    0.1245 C   0  0  0  0  0  0  0  0  0  0  0  0
   -4.9940    0.6025   -0.9850 C   0  0  0  0  0  0  0  0  0  0  0  0
   -6.2254    1.1876   -1.3987 C   0  0  0  0  0  0  0  0  0  0  0  0
   -7.2751    0.7971   -0.5997 C   0  0  0  0  0  0  0  0  0  0  0  0
   -6.7765   -0.2685    0.6388 S   0  0  0  0  0  0  0  0  0  0  0  0
   -4.2620    1.6019    2.4033 H   0  0  0  0  0  0  0  0  0  0  0  0
   -3.7071    0.3638    3.5570 H   0  0  0  0  0  0  0  0  0  0  0  0
   -2.8913    1.9293    3.4683 H   0  0  0  0  0  0  0  0  0  0  0  0
   -0.5648    1.6396    2.2146 H   0  0  0  0  0  0  0  0  0  0  0  0
    1.7468    1.0168    1.6681 H   0  0  0  0  0  0  0  0  0  0  0  0
    1.4476    2.1213    0.3148 H   0  0  0  0  0  0  0  0  0  0  0  0
    5.6139   -1.7650    1.5127 H   0  0  0  0  0  0  0  0  0  0  0  0
    7.8658   -2.1826    0.5915 H   0  0  0  0  0  0  0  0  0  0  0  0
    8.5998   -1.0266   -1.4810 H   0  0  0  0  0  0  0  0  0  0  0  0
    7.0636    0.5417   -2.6330 H   0  0  0  0  0  0  0  0  0  0  0  0
    3.8211    1.2038   -1.5243 H   0  0  0  0  0  0  0  0  0  0  0  0
   -1.2015   -1.2131   -1.9062 H   0  0  0  0  0  0  0  0  0  0  0  0
   -2.8080   -1.7093   -1.4345 H   0  0  0  0  0  0  0  0  0  0  0  0
   -1.4013   -2.5470   -0.7489 H   0  0  0  0  0  0  0  0  0  0  0  0
   -4.4099   -1.2025    1.9052 H   0  0  0  0  0  0  0  0  0  0  0  0
   -3.9822   -1.9986    0.4017 H   0  0  0  0  0  0  0  0  0  0  0  0
   -4.0449    0.7794   -1.4784 H   0  0  0  0  0  0  0  0  0  0  0  0
   -6.3342    1.8601   -2.2408 H   0  0  0  0  0  0  0  0  0  0  0  0
   -8.3141    1.0848   -0.6844 H   0  0  0  0  0  0  0  0  0  0  0  0
  1  2  1  0
  2  3  2  0
  3  4  1  0
  4  5  1  0
  5  6  2  0
  5  7  1  0
  7  8  1  0
  8  9  1  0
  9 10  2  0
  9 11  1  0
 11 12  2  0
 12 13  1  0
 13 14  2  0
 14 15  1  0
 15 16  2  0
 16 17  1  0
  4 18  2  0
 18 19  1  0
 18 20  1  0
 20 21  1  0
 21 22  1  0
 22 23  2  0
 23 24  1  0
 24 25  2  0
 25 26  1  0
 20  2  1  0
 26 22  1  0
 16 11  1  0
  1 27  1  0
  1 28  1  0
  1 29  1  0
  3 30  1  0
  7 31  1  0
  7 32  1  0
 12 33  1  0
 13 34  1  0
 14 35  1  0
 15 36  1  0
 17 37  1  0
 19 38  1  0
 19 39  1  0
 19 40  1  0
 21 41  1  0
 21 42  1  0
 23 43  1  0
 24 44  1  0
 25 45  1  0
M  END
$$$$
