
     RDKit          3D

 32 34  0  0  0  0  0  0  0  0999 V2000
   -0.6885   -0.5571   -0.4045 O   0  0  0  0  0  0  0  0  0  0  0  0
   -0.8078    0.4969    0.2193 C   0  0  0  0  0  0  0  0  0  0  0  0
   -2.1471    1.1219    0.5806 C   0  0  0  0  0  0  0  0  0  0  0  0
   -3.3267    0.2144    0.3492 C   0  0  0  0  0  0  0  0  0  0  0  0
   -4.0856    0.2972   -0.8275 C   0  0  0  0  0  0  0  0  0  0  0  0
   -5.1666   -0.5662   -1.0312 C   0  0  0  0  0  0  0  0  0  0  0  0
   -5.4954   -1.5220   -0.0675 C   0  0  0  0  0  0  0  0  0  0  0  0
   -4.7408   -1.6174    1.1017 C   0  0  0  0  0  0  0  0  0  0  0  0
   -3.6655   -0.7548    1.2987 C   0  0  0  0  0  0  0  0  0  0  0  0
   -2.9497   -0.8573    2.4294 F   0  0  0  0  0  0  0  0  0  0  0  0
    0.2573    1.2721    0.6390 N   0  0  0  0  0  0  0  0  0  0  0  0
    1.5611    0.9243    0.4048 C   0  0  0  0  0  0  0  0  0  0  0  0
    2.5949    1.6532    0.7566 N   0  0  0  0  0  0  0  0  0  0  0  0
    3.6958    0.9443    0.3341 C   0  0  0  0  0  0  0  0  0  0  0  0
    5.0594    1.2551    0.4455 C   0  0  0  0  0  0  0  0  0  0  0  0
    5.9977    0.3520   -0.0716 C   0  0  0  0  0  0  0  0  0  0  0  0
    5.5871   -0.8358   -0.6854 C   0  0  0  0  0  0  0  0  0  0  0  0
    4.2311   -1.1626   -0.8073 C   0  0  0  0  0  0  0  0  0  0  0  0
    3.3185   -0.2443   -0.2849 C   0  0  0  0  0  0  0  0  0  0  0  0
    1.9505   -0.2290   -0.2276 N   0  0  0  0  0  0  0  0  0  0  0  0
   -2.1270    1.4264    1.6355 H   0  0  0  0  0  0  0  0  0  0  0  0
   -2.2626    2.0406   -0.0100 H   0  0  0  0  0  0  0  0  0  0  0  0
   -3.8373    1.0270   -1.5962 H   0  0  0  0  0  0  0  0  0  0  0  0
   -5.7493   -0.4967   -1.9480 H   0  0  0  0  0  0  0  0  0  0  0  0
   -6.3343   -2.1948   -0.2306 H   0  0  0  0  0  0  0  0  0  0  0  0
   -4.9802   -2.3595    1.8579 H   0  0  0  0  0  0  0  0  0  0  0  0
    0.1263    2.1470    1.1296 H   0  0  0  0  0  0  0  0  0  0  0  0
    5.3716    2.1779    0.9233 H   0  0  0  0  0  0  0  0  0  0  0  0
    7.0582    0.5800    0.0082 H   0  0  0  0  0  0  0  0  0  0  0  0
    6.3364   -1.5210   -1.0774 H   0  0  0  0  0  0  0  0  0  0  0  0
    3.9116   -2.0840   -1.2833 H   0  0  0  0  0  0  0  0  0  0  0  0
    1.3068   -0.9279   -0.5796 H   0  0  0  0  0  0  0  0  0  0  0  0
  1  2  2  0
  2  3  1  0
  3  4  1  0
  4  5  2  0
  5  6  1  0
  6  7  2  0
  7  8  1  0
  8  9  2  0
  9 10  1  0
  2 11  1  0
 11 12  1  0
 12 13  2  0
 13 14  1  0
 14 15  2  0
 15 16  1  0
 16 17  2  0
 17 18  1  0
 18 19  2  0
 19 20  1  0
  9  4  1  0
 20 12  1  0
 19 14  1  0
  3 21  1  0
  3 22  1  0
  5 23  1  0
  6 24  1  0
  7 25  1  0
  8 26  1  0
 11 27  1  0
 15 28  1  0
 16 29  1  0
 17 30  1  0
 18 31  1  0
 20 32  1  0
M  END
$$$$
