
     RDKit          3D

 12 12  0  0  0  0  0  0  0  0999 V2000
    2.4882   -1.0566   -0.2692 O   0  0  0  0  0  0  0  0  0  0  0  0
    1.2739   -0.4742   -0.1018 C   0  0  0  0  0  0  0  0  0  0  0  0
    1.2996    0.6993    0.5352 N   0  0  0  0  0  0  0  0  0  0  0  0
    0.0905    1.2817    0.7032 C   0  0  0  0  0  0  0  0  0  0  0  0
   -1.0928    0.7304    0.2620 C   0  0  0  0  0  0  0  0  0  0  0  0
   -2.8930    1.6862    0.5601 I   0  0  0  0  0  0  0  0  0  0  0  0
   -0.9526   -0.4826   -0.3761 C   0  0  0  0  0  0  0  0  0  0  0  0
   -2.0153   -1.1669   -0.8744 O   0  0  0  0  0  0  0  0  0  0  0  0
    0.2092   -1.1185   -0.5787 N   0  0  0  0  0  0  0  0  0  0  0  0
    3.0422   -0.3848    0.1608 H   0  0  0  0  0  0  0  0  0  0  0  0
    0.1172    2.2363    1.2220 H   0  0  0  0  0  0  0  0  0  0  0  0
   -1.5672   -1.9503   -1.2432 H   0  0  0  0  0  0  0  0  0  0  0  0
  1  2  1  0
  2  3  2  0
  3  4  1  0
  4  5  2  0
  5  6  1  0
  5  7  1  0
  7  8  1  0
  7  9  2  0
  9  2  1  0
  1 10  1  0
  4 11  1  0
  8 12  1  0
M  END
$$$$
