
     RDKit          3D

 79 83  0  0  0  0  0  0  0  0999 V2000
   -6.4249    2.2205    3.4336 C   0  0  0  0  0  0  0  0  0  0  0  0
   -6.2531    2.1846    1.9203 C   0  0  0  0  0  0  0  0  0  0  0  0
   -4.7822    2.0269    1.5258 C   0  0  0  0  0  0  0  0  0  0  0  0
   -4.6175    1.9141    0.0231 C   0  0  0  0  0  0  0  0  0  0  0  0
   -4.5305    3.1811   -0.6904 C   0  0  0  0  0  0  0  0  0  0  0  0
   -4.3606    3.2218   -2.0207 C   0  0  0  0  0  0  0  0  0  0  0  0
   -4.2538    4.4930   -2.8040 C   0  0  0  0  0  0  0  0  0  0  0  0
   -4.2892    2.0425   -2.7178 N   0  0  0  0  0  0  0  0  0  0  0  0
   -4.3692    0.7965   -2.1486 C   0  0  0  0  0  0  0  0  0  0  0  0
   -4.3190   -0.2219   -2.8331 O   0  0  0  0  0  0  0  0  0  0  0  0
   -4.5232    0.7465   -0.6562 C   0  0  0  0  0  0  0  0  0  0  0  0
   -4.6096   -0.6340   -0.0726 C   0  0  0  0  0  0  0  0  0  0  0  0
   -3.3547   -1.3354   -0.2522 N   0  0  0  0  0  0  0  0  0  0  0  0
   -2.2693   -1.1134    0.5614 C   0  0  0  0  0  0  0  0  0  0  0  0
   -2.2617   -0.3808    1.5418 O   0  0  0  0  0  0  0  0  0  0  0  0
   -1.0313   -1.7901    0.1416 C   0  0  0  0  0  0  0  0  0  0  0  0
    0.1205   -1.0251   -0.0932 C   0  0  0  0  0  0  0  0  0  0  0  0
    1.3107   -1.6290   -0.5200 C   0  0  0  0  0  0  0  0  0  0  0  0
    2.4889   -0.8094   -0.8243 C   0  0  0  0  0  0  0  0  0  0  0  0
    2.9408   -0.6764   -2.1344 C   0  0  0  0  0  0  0  0  0  0  0  0
    4.0550    0.1033   -2.3680 C   0  0  0  0  0  0  0  0  0  0  0  0
    4.7341    0.7512   -1.3980 N   0  0  0  0  0  0  0  0  0  0  0  0
    4.3022    0.6489   -0.1230 C   0  0  0  0  0  0  0  0  0  0  0  0
    5.0105    1.3073    0.8805 N   0  0  0  0  0  0  0  0  0  0  0  0
    6.2705    1.9412    0.4548 C   0  0  0  0  0  0  0  0  0  0  0  0
    6.9465    2.6373    1.6570 C   0  0  0  0  0  0  0  0  0  0  0  0
    6.1352    3.6980    2.2984 N   0  0  0  0  0  0  0  0  0  0  0  0
    6.5776    5.0313    1.8967 C   0  0  0  0  0  0  0  0  0  0  0  0
    4.6955    3.5214    1.9975 C   0  0  0  0  0  0  0  0  0  0  0  0
    4.2425    2.0453    1.9013 C   0  0  0  0  0  0  0  0  0  0  0  0
    3.1878   -0.1344    0.1862 C   0  0  0  0  0  0  0  0  0  0  0  0
    1.3632   -3.0295   -0.6727 C   0  0  0  0  0  0  0  0  0  0  0  0
    0.2077   -3.7848   -0.4033 C   0  0  0  0  0  0  0  0  0  0  0  0
   -0.9897   -3.1869   -0.0122 C   0  0  0  0  0  0  0  0  0  0  0  0
   -1.8886   -4.2616    0.1497 C   0  0  0  0  0  0  0  0  0  0  0  0
   -1.3338   -5.4431   -0.1187 N   0  0  0  0  0  0  0  0  0  0  0  0
   -0.0541   -5.1365   -0.4265 N   0  0  0  0  0  0  0  0  0  0  0  0
    0.8888   -6.2173   -0.7064 C   0  0  0  0  0  0  0  0  0  0  0  0
    1.0817   -7.1110    0.5195 C   0  0  0  0  0  0  0  0  0  0  0  0
    0.4654   -7.0280   -1.9302 C   0  0  0  0  0  0  0  0  0  0  0  0
   -6.0497    1.2988    3.8875 H   0  0  0  0  0  0  0  0  0  0  0  0
   -5.8885    3.0689    3.8741 H   0  0  0  0  0  0  0  0  0  0  0  0
   -7.4865    2.3116    3.6894 H   0  0  0  0  0  0  0  0  0  0  0  0
   -6.8453    1.3562    1.5129 H   0  0  0  0  0  0  0  0  0  0  0  0
   -6.6634    3.1084    1.4955 H   0  0  0  0  0  0  0  0  0  0  0  0
   -4.3595    1.1532    2.0334 H   0  0  0  0  0  0  0  0  0  0  0  0
   -4.1997    2.8784    1.9053 H   0  0  0  0  0  0  0  0  0  0  0  0
   -4.5987    4.0999   -0.1142 H   0  0  0  0  0  0  0  0  0  0  0  0
   -3.2502    4.5906   -3.2347 H   0  0  0  0  0  0  0  0  0  0  0  0
   -4.9841    4.5105   -3.6204 H   0  0  0  0  0  0  0  0  0  0  0  0
   -4.4312    5.3727   -2.1769 H   0  0  0  0  0  0  0  0  0  0  0  0
   -4.1661    2.0539   -3.7225 H   0  0  0  0  0  0  0  0  0  0  0  0
   -4.8618   -0.6333    0.9920 H   0  0  0  0  0  0  0  0  0  0  0  0
   -5.3869   -1.2148   -0.5833 H   0  0  0  0  0  0  0  0  0  0  0  0
   -3.1994   -1.7449   -1.1675 H   0  0  0  0  0  0  0  0  0  0  0  0
    0.0709    0.0553    0.0380 H   0  0  0  0  0  0  0  0  0  0  0  0
    2.4354   -1.1673   -2.9593 H   0  0  0  0  0  0  0  0  0  0  0  0
    4.4436    0.2391   -3.3721 H   0  0  0  0  0  0  0  0  0  0  0  0
    6.0933    2.6824   -0.3368 H   0  0  0  0  0  0  0  0  0  0  0  0
    6.9568    1.1797    0.0646 H   0  0  0  0  0  0  0  0  0  0  0  0
    7.9306    3.0164    1.3569 H   0  0  0  0  0  0  0  0  0  0  0  0
    7.1438    1.8778    2.4264 H   0  0  0  0  0  0  0  0  0  0  0  0
    7.6071    5.2087    2.2243 H   0  0  0  0  0  0  0  0  0  0  0  0
    6.5294    5.1781    0.8120 H   0  0  0  0  0  0  0  0  0  0  0  0
    5.9609    5.7989    2.3751 H   0  0  0  0  0  0  0  0  0  0  0  0
    4.1117    4.0226    2.7773 H   0  0  0  0  0  0  0  0  0  0  0  0
    4.4430    4.0067    1.0447 H   0  0  0  0  0  0  0  0  0  0  0  0
    4.3904    1.5525    2.8696 H   0  0  0  0  0  0  0  0  0  0  0  0
    3.1658    2.0430    1.6930 H   0  0  0  0  0  0  0  0  0  0  0  0
    2.8788   -0.2508    1.2197 H   0  0  0  0  0  0  0  0  0  0  0  0
    2.2875   -3.5093   -0.9829 H   0  0  0  0  0  0  0  0  0  0  0  0
   -2.9267   -4.2307    0.4566 H   0  0  0  0  0  0  0  0  0  0  0  0
    1.8542   -5.7506   -0.9318 H   0  0  0  0  0  0  0  0  0  0  0  0
    1.8151   -7.9006    0.3201 H   0  0  0  0  0  0  0  0  0  0  0  0
    0.1437   -7.5882    0.8226 H   0  0  0  0  0  0  0  0  0  0  0  0
    1.4410   -6.5283    1.3759 H   0  0  0  0  0  0  0  0  0  0  0  0
   -0.4839   -7.5469   -1.7698 H   0  0  0  0  0  0  0  0  0  0  0  0
    1.2207   -7.7828   -2.1712 H   0  0  0  0  0  0  0  0  0  0  0  0
    0.3491   -6.3803   -2.8036 H   0  0  0  0  0  0  0  0  0  0  0  0
  1  2  1  0
  2  3  1  0
  3  4  1  0
  4  5  1  0
  5  6  2  0
  6  7  1  0
  6  8  1  0
  8  9  1  0
  9 10  2  0
  9 11  1  0
 11 12  1  0
 12 13  1  0
 13 14  1  0
 14 15  2  0
 14 16  1  0
 16 17  2  0
 17 18  1  0
 18 19  1  0
 19 20  2  0
 20 21  1  0
 21 22  2  0
 22 23  1  0
 23 24  1  0
 24 25  1  0
 25 26  1  0
 26 27  1  0
 27 28  1  0
 27 29  1  0
 29 30  1  0
 23 31  2  0
 18 32  2  0
 32 33  1  0
 33 34  2  0
 34 35  1  0
 35 36  2  0
 36 37  1  0
 37 38  1  0
 38 39  1  0
 38 40  1  0
 11  4  2  0
 34 16  1  0
 31 19  1  0
 37 33  1  0
 30 24  1  0
  1 41  1  0
  1 42  1  0
  1 43  1  0
  2 44  1  0
  2 45  1  0
  3 46  1  0
  3 47  1  0
  5 48  1  0
  7 49  1  0
  7 50  1  0
  7 51  1  0
  8 52  1  0
 12 53  1  0
 12 54  1  0
 13 55  1  0
 17 56  1  0
 20 57  1  0
 21 58  1  0
 25 59  1  0
 25 60  1  0
 26 61  1  0
 26 62  1  0
 28 63  1  0
 28 64  1  0
 28 65  1  0
 29 66  1  0
 29 67  1  0
 30 68  1  0
 30 69  1  0
 31 70  1  0
 32 71  1  0
 35 72  1  0
 38 73  1  0
 39 74  1  0
 39 75  1  0
 39 76  1  0
 40 77  1  0
 40 78  1  0
 40 79  1  0
M  END
$$$$
