
     RDKit          3D

 41 39  0  0  0  0  0  0  0  0999 V2000
    0.7661    0.0000    0.0000 Br  0  0  0  0  0  0  0  0  0  0  0  0
    0.7617    0.0000    0.0000 Br  0  0  0  0  0  0  0  0  0  0  0  0
   -4.9285    0.5992   -0.3303 C   0  0  0  0  0  0  0  0  0  0  0  0
   -3.5358    0.1303   -0.4743 N   0  0  0  0  0  0  0  0  0  0  0  0
   -3.6209   -1.2976   -0.7912 C   0  0  0  0  0  0  0  0  0  0  0  0
   -2.8460    0.2740    0.8049 C   0  0  0  0  0  0  0  0  0  0  0  0
   -1.4033   -0.1146    0.6671 C   0  0  0  0  0  0  0  0  0  0  0  0
   -0.7405    0.7380   -0.3085 N   0  0  0  0  0  0  0  0  0  0  0  0
   -0.6417    2.1002    0.1943 C   0  0  0  0  0  0  0  0  0  0  0  0
    0.5747    0.1913   -0.5911 C   0  0  0  0  0  0  0  0  0  0  0  0
    1.4930    0.2954    0.5838 C   0  0  0  0  0  0  0  0  0  0  0  0
    2.8480   -0.2378    0.3632 C   0  0  0  0  0  0  0  0  0  0  0  0
    3.1615   -1.5790    0.6266 C   0  0  0  0  0  0  0  0  0  0  0  0
    4.4484   -2.0297    0.4053 C   0  0  0  0  0  0  0  0  0  0  0  0
    5.3977   -1.1562   -0.0694 C   0  0  0  0  0  0  0  0  0  0  0  0
    7.0121   -1.7304   -0.3459 Cl  0  0  0  0  0  0  0  0  0  0  0  0
    5.1080    0.1676   -0.3346 C   0  0  0  0  0  0  0  0  0  0  0  0
    6.3263    1.2843   -0.9419 Cl  0  0  0  0  0  0  0  0  0  0  0  0
    3.8162    0.6178   -0.1115 C   0  0  0  0  0  0  0  0  0  0  0  0
   -0.7661    0.0000    0.0000 H   0  0  0  0  0  0  0  0  0  0  0  0
   -0.7617    0.0000    0.0000 H   0  0  0  0  0  0  0  0  0  0  0  0
   -5.1796    1.0660   -1.3038 H   0  0  0  0  0  0  0  0  0  0  0  0
   -4.9557    1.4305    0.4348 H   0  0  0  0  0  0  0  0  0  0  0  0
   -5.6226   -0.2079   -0.1157 H   0  0  0  0  0  0  0  0  0  0  0  0
   -2.7141   -1.5871   -1.3339 H   0  0  0  0  0  0  0  0  0  0  0  0
   -3.7557   -1.9246    0.1135 H   0  0  0  0  0  0  0  0  0  0  0  0
   -4.5154   -1.4088   -1.4635 H   0  0  0  0  0  0  0  0  0  0  0  0
   -3.2900   -0.4038    1.5707 H   0  0  0  0  0  0  0  0  0  0  0  0
   -2.9246    1.3094    1.1782 H   0  0  0  0  0  0  0  0  0  0  0  0
   -0.9278   -0.0312    1.6462 H   0  0  0  0  0  0  0  0  0  0  0  0
   -1.3544   -1.1625    0.3062 H   0  0  0  0  0  0  0  0  0  0  0  0
   -1.5399    2.6432   -0.1670 H   0  0  0  0  0  0  0  0  0  0  0  0
   -0.6226    2.1514    1.2874 H   0  0  0  0  0  0  0  0  0  0  0  0
    0.2314    2.5566   -0.3061 H   0  0  0  0  0  0  0  0  0  0  0  0
    1.0373    0.6873   -1.4522 H   0  0  0  0  0  0  0  0  0  0  0  0
    0.4400   -0.8772   -0.8332 H   0  0  0  0  0  0  0  0  0  0  0  0
    1.0884   -0.2585    1.4757 H   0  0  0  0  0  0  0  0  0  0  0  0
    1.5042    1.3696    0.9182 H   0  0  0  0  0  0  0  0  0  0  0  0
    2.3565   -2.2048    0.9981 H   0  0  0  0  0  0  0  0  0  0  0  0
    4.7111   -3.0413    0.5977 H   0  0  0  0  0  0  0  0  0  0  0  0
    3.5645    1.6408   -0.3104 H   0  0  0  0  0  0  0  0  0  0  0  0
  3  4  1  0
  4  5  1  0
  4  6  1  0
  6  7  1  0
  7  8  1  0
  8  9  1  0
  8 10  1  0
 10 11  1  0
 11 12  1  0
 12 13  2  0
 13 14  1  0
 14 15  2  0
 15 16  1  0
 15 17  1  0
 17 18  1  0
 17 19  2  0
 19 12  1  0
  1 20  1  0
  2 21  1  0
  3 22  1  0
  3 23  1  0
  3 24  1  0
  5 25  1  0
  5 26  1  0
  5 27  1  0
  6 28  1  0
  6 29  1  0
  7 30  1  0
  7 31  1  0
  9 32  1  0
  9 33  1  0
  9 34  1  0
 10 35  1  0
 10 36  1  0
 11 37  1  0
 11 38  1  0
 13 39  1  0
 14 40  1  0
 19 41  1  0
M  END
$$$$
