
     RDKit          3D

 25 27  0  0  0  0  0  0  0  0999 V2000
    4.9130   -0.8850    0.1549 C   0  0  0  0  0  0  0  0  0  0  0  0
    4.5301    0.4312   -0.0825 C   0  0  0  0  0  0  0  0  0  0  0  0
    3.1736    0.7611   -0.1559 C   0  0  0  0  0  0  0  0  0  0  0  0
    2.1723   -0.2138    0.0056 C   0  0  0  0  0  0  0  0  0  0  0  0
    0.7549    0.2013   -0.0836 C   0  0  0  0  0  0  0  0  0  0  0  0
    0.3678    1.4461   -0.3083 N   0  0  0  0  0  0  0  0  0  0  0  0
   -1.0124    1.5217   -0.3370 C   0  0  0  0  0  0  0  0  0  0  0  0
   -1.6751    0.3338   -0.1341 C   0  0  0  0  0  0  0  0  0  0  0  0
   -3.2273    0.1541   -0.1196 C   0  0  0  0  0  0  0  0  0  0  0  0
   -4.1906    1.1720   -0.3105 C   0  0  0  0  0  0  0  0  0  0  0  0
   -5.4054    0.5365   -0.2115 C   0  0  0  0  0  0  0  0  0  0  0  0
   -5.1215   -0.7756    0.0238 N   0  0  0  0  0  0  0  0  0  0  0  0
   -3.8069   -1.0355    0.0845 N   0  0  0  0  0  0  0  0  0  0  0  0
   -0.5449   -0.9207    0.1005 S   0  0  0  0  0  0  0  0  0  0  0  0
    2.5832   -1.5362    0.2444 C   0  0  0  0  0  0  0  0  0  0  0  0
    3.9411   -1.8682    0.3183 C   0  0  0  0  0  0  0  0  0  0  0  0
    5.9668   -1.1444    0.2126 H   0  0  0  0  0  0  0  0  0  0  0  0
    5.2829    1.2045   -0.2111 H   0  0  0  0  0  0  0  0  0  0  0  0
    2.8963    1.7979   -0.3427 H   0  0  0  0  0  0  0  0  0  0  0  0
   -1.4755    2.4841   -0.5125 H   0  0  0  0  0  0  0  0  0  0  0  0
   -4.0274    2.2238   -0.4948 H   0  0  0  0  0  0  0  0  0  0  0  0
   -6.4229    0.8924   -0.2859 H   0  0  0  0  0  0  0  0  0  0  0  0
   -5.7697   -1.5460    0.1530 H   0  0  0  0  0  0  0  0  0  0  0  0
    1.8608   -2.3373    0.3783 H   0  0  0  0  0  0  0  0  0  0  0  0
    4.2367   -2.8979    0.5040 H   0  0  0  0  0  0  0  0  0  0  0  0
  1  2  2  0
  2  3  1  0
  3  4  2  0
  4  5  1  0
  5  6  2  0
  6  7  1  0
  7  8  2  0
  8  9  1  0
  9 10  1  0
 10 11  2  0
 11 12  1  0
 12 13  1  0
  8 14  1  0
  4 15  1  0
 15 16  2  0
 16  1  1  0
 14  5  1  0
 13  9  2  0
  1 17  1  0
  2 18  1  0
  3 19  1  0
  7 20  1  0
 10 21  1  0
 11 22  1  0
 12 23  1  0
 15 24  1  0
 16 25  1  0
M  END
$$$$
