
     RDKit          3D

 33 35  0  0  0  0  0  0  0  0999 V2000
   -6.4997    0.6676    1.0631 C   0  0  0  0  0  0  0  0  0  0  0  0
   -5.9255   -0.0552   -0.0190 O   0  0  0  0  0  0  0  0  0  0  0  0
   -4.5615   -0.1338   -0.0529 C   0  0  0  0  0  0  0  0  0  0  0  0
   -4.0431   -0.8513   -1.1306 C   0  0  0  0  0  0  0  0  0  0  0  0
   -2.6622   -1.0083   -1.2850 C   0  0  0  0  0  0  0  0  0  0  0  0
   -1.7746   -0.4484   -0.3598 C   0  0  0  0  0  0  0  0  0  0  0  0
   -0.3967   -0.6496   -0.5858 N   0  0  0  0  0  0  0  0  0  0  0  0
    0.6579   -0.2086    0.1957 C   0  0  0  0  0  0  0  0  0  0  0  0
    0.5801    0.4178    1.2452 O   0  0  0  0  0  0  0  0  0  0  0  0
    1.9973   -0.6230   -0.3846 C   0  0  0  0  0  0  0  0  0  0  0  0
    3.1676    0.0015    0.3686 C   0  0  0  0  0  0  0  0  0  0  0  0
    3.5230    1.7363   -0.2269 S   0  0  0  0  0  0  0  0  0  0  0  0
    5.1455    1.3262   -0.5679 C   0  0  0  0  0  0  0  0  0  0  0  0
    6.1811    1.9577   -1.0398 N   0  0  0  0  0  0  0  0  0  0  0  0
    7.1178    0.9489   -1.0693 C   0  0  0  0  0  0  0  0  0  0  0  0
    6.6974   -0.2570   -0.6521 N   0  0  0  0  0  0  0  0  0  0  0  0
    5.4213    0.0281   -0.3273 N   0  0  0  0  0  0  0  0  0  0  0  0
    4.4364   -0.8157    0.1481 C   0  0  0  0  0  0  0  0  0  0  0  0
    4.6131   -2.0097    0.3293 O   0  0  0  0  0  0  0  0  0  0  0  0
   -2.2960    0.2697    0.7167 C   0  0  0  0  0  0  0  0  0  0  0  0
   -3.6815    0.4265    0.8704 C   0  0  0  0  0  0  0  0  0  0  0  0
   -6.2550    0.2014    2.0232 H   0  0  0  0  0  0  0  0  0  0  0  0
   -7.5872    0.6367    0.9458 H   0  0  0  0  0  0  0  0  0  0  0  0
   -6.1925    1.7184    1.0431 H   0  0  0  0  0  0  0  0  0  0  0  0
   -4.7209   -1.2927   -1.8574 H   0  0  0  0  0  0  0  0  0  0  0  0
   -2.3007   -1.5748   -2.1388 H   0  0  0  0  0  0  0  0  0  0  0  0
   -0.1660   -1.1867   -1.4128 H   0  0  0  0  0  0  0  0  0  0  0  0
    2.0416   -1.7172   -0.3061 H   0  0  0  0  0  0  0  0  0  0  0  0
    2.0317   -0.3769   -1.4530 H   0  0  0  0  0  0  0  0  0  0  0  0
    3.0029    0.0488    1.4507 H   0  0  0  0  0  0  0  0  0  0  0  0
    8.1353    1.1006   -1.4103 H   0  0  0  0  0  0  0  0  0  0  0  0
   -1.6540    0.7279    1.4625 H   0  0  0  0  0  0  0  0  0  0  0  0
   -4.0329    0.9946    1.7256 H   0  0  0  0  0  0  0  0  0  0  0  0
  1  2  1  0
  2  3  1  0
  3  4  2  0
  4  5  1  0
  5  6  2  0
  6  7  1  0
  7  8  1  0
  8  9  2  0
  8 10  1  0
 10 11  1  0
 11 12  1  0
 12 13  1  0
 13 14  2  0
 14 15  1  0
 15 16  2  0
 16 17  1  0
 17 18  1  0
 18 19  2  0
  6 20  1  0
 20 21  2  0
 21  3  1  0
 18 11  1  0
 17 13  1  0
  1 22  1  0
  1 23  1  0
  1 24  1  0
  4 25  1  0
  5 26  1  0
  7 27  1  0
 10 28  1  0
 10 29  1  0
 11 30  1  0
 15 31  1  0
 20 32  1  0
 21 33  1  0
M  END
$$$$
