
     RDKit          3D

 63 66  0  0  0  0  0  0  0  0999 V2000
   11.3348    0.3920    0.2458 C   0  0  0  0  0  0  0  0  0  0  0  0
   10.4963    1.1251   -0.7859 C   0  0  0  0  0  0  0  0  0  0  0  0
    9.0821    0.9088   -0.5742 N   0  0  0  0  0  0  0  0  0  0  0  0
    8.3518    1.6764    0.2975 C   0  0  0  0  0  0  0  0  0  0  0  0
    8.7830    2.6244    0.9357 O   0  0  0  0  0  0  0  0  0  0  0  0
    6.9679    1.2901    0.4383 C   0  0  0  0  0  0  0  0  0  0  0  0
    5.8153    0.9710    0.5519 C   0  0  0  0  0  0  0  0  0  0  0  0
    4.4423    0.5958    0.6886 C   0  0  0  0  0  0  0  0  0  0  0  0
    3.6983    0.2437   -0.4526 C   0  0  0  0  0  0  0  0  0  0  0  0
    2.3504   -0.1306   -0.3487 C   0  0  0  0  0  0  0  0  0  0  0  0
    1.7552   -0.1328    0.9012 C   0  0  0  0  0  0  0  0  0  0  0  0
    2.5229    0.1979    2.0263 C   0  0  0  0  0  0  0  0  0  0  0  0
    3.8523    0.5701    1.9532 C   0  0  0  0  0  0  0  0  0  0  0  0
    1.7717    0.0748    3.1900 N   0  0  0  0  0  0  0  0  0  0  0  0
    0.4835   -0.3426    2.9133 C   0  0  0  0  0  0  0  0  0  0  0  0
   -0.4055   -0.5599    3.7167 O   0  0  0  0  0  0  0  0  0  0  0  0
    0.4096   -0.4604    1.4089 C   0  0  0  0  0  0  0  0  0  0  0  0
   -0.7565   -0.7848    0.8052 C   0  0  0  0  0  0  0  0  0  0  0  0
   -1.9177   -1.1693    1.4859 N   0  0  0  0  0  0  0  0  0  0  0  0
   -3.2267   -0.7324    1.1607 C   0  0  0  0  0  0  0  0  0  0  0  0
   -3.5102    0.5901    0.8027 C   0  0  0  0  0  0  0  0  0  0  0  0
   -4.8259    1.0022    0.5688 C   0  0  0  0  0  0  0  0  0  0  0  0
   -5.8893    0.1019    0.7143 C   0  0  0  0  0  0  0  0  0  0  0  0
   -7.3162    0.5437    0.4644 C   0  0  0  0  0  0  0  0  0  0  0  0
   -7.9959   -0.2300   -0.5913 N   0  0  0  0  0  0  0  0  0  0  0  0
   -7.4004    0.0204   -1.9060 C   0  0  0  0  0  0  0  0  0  0  0  0
   -9.4213    0.1053   -0.6179 C   0  0  0  0  0  0  0  0  0  0  0  0
   -5.6098   -1.2107    1.1185 C   0  0  0  0  0  0  0  0  0  0  0  0
   -4.2935   -1.6164    1.3540 C   0  0  0  0  0  0  0  0  0  0  0  0
   -0.8357   -0.8663   -0.6745 C   0  0  0  0  0  0  0  0  0  0  0  0
   -0.8311    0.2916   -1.4677 C   0  0  0  0  0  0  0  0  0  0  0  0
   -0.9149    0.1972   -2.8584 C   0  0  0  0  0  0  0  0  0  0  0  0
   -1.0049   -1.0535   -3.4673 C   0  0  0  0  0  0  0  0  0  0  0  0
   -1.0236   -2.2095   -2.6886 C   0  0  0  0  0  0  0  0  0  0  0  0
   -0.9418   -2.1168   -1.2976 C   0  0  0  0  0  0  0  0  0  0  0  0
   11.1251   -0.6836    0.2288 H   0  0  0  0  0  0  0  0  0  0  0  0
   12.4006    0.5388    0.0427 H   0  0  0  0  0  0  0  0  0  0  0  0
   11.1252    0.7581    1.2571 H   0  0  0  0  0  0  0  0  0  0  0  0
   10.7338    0.7642   -1.7919 H   0  0  0  0  0  0  0  0  0  0  0  0
   10.7084    2.1995   -0.7449 H   0  0  0  0  0  0  0  0  0  0  0  0
    8.6392    0.1014   -0.9910 H   0  0  0  0  0  0  0  0  0  0  0  0
    4.1680    0.2543   -1.4350 H   0  0  0  0  0  0  0  0  0  0  0  0
    1.8137   -0.4200   -1.2448 H   0  0  0  0  0  0  0  0  0  0  0  0
    4.4155    0.8272    2.8438 H   0  0  0  0  0  0  0  0  0  0  0  0
    2.1039    0.2349    4.1290 H   0  0  0  0  0  0  0  0  0  0  0  0
   -1.7962   -1.1050    2.5054 H   0  0  0  0  0  0  0  0  0  0  0  0
   -2.7088    1.3167    0.7113 H   0  0  0  0  0  0  0  0  0  0  0  0
   -5.0119    2.0336    0.2757 H   0  0  0  0  0  0  0  0  0  0  0  0
   -7.3476    1.6182    0.2344 H   0  0  0  0  0  0  0  0  0  0  0  0
   -7.8498    0.4208    1.4172 H   0  0  0  0  0  0  0  0  0  0  0  0
   -6.3545   -0.3019   -1.9379 H   0  0  0  0  0  0  0  0  0  0  0  0
   -7.9193   -0.5588   -2.6780 H   0  0  0  0  0  0  0  0  0  0  0  0
   -7.4458    1.0788   -2.1862 H   0  0  0  0  0  0  0  0  0  0  0  0
   -9.5943    1.1670   -0.8318 H   0  0  0  0  0  0  0  0  0  0  0  0
   -9.9410   -0.4887   -1.3788 H   0  0  0  0  0  0  0  0  0  0  0  0
   -9.8932   -0.1358    0.3412 H   0  0  0  0  0  0  0  0  0  0  0  0
   -6.4205   -1.9253    1.2422 H   0  0  0  0  0  0  0  0  0  0  0  0
   -4.0972   -2.6386    1.6698 H   0  0  0  0  0  0  0  0  0  0  0  0
   -0.7657    1.2726   -1.0049 H   0  0  0  0  0  0  0  0  0  0  0  0
   -0.9165    1.0986   -3.4657 H   0  0  0  0  0  0  0  0  0  0  0  0
   -1.0777   -1.1280   -4.5494 H   0  0  0  0  0  0  0  0  0  0  0  0
   -1.1132   -3.1839   -3.1609 H   0  0  0  0  0  0  0  0  0  0  0  0
   -0.9767   -3.0223   -0.6971 H   0  0  0  0  0  0  0  0  0  0  0  0
  1  2  1  0
  2  3  1  0
  3  4  1  0
  4  5  2  0
  4  6  1  0
  6  7  3  0
  7  8  1  0
  8  9  2  0
  9 10  1  0
 10 11  2  0
 11 12  1  0
 12 13  2  0
 12 14  1  0
 14 15  1  0
 15 16  2  0
 15 17  1  0
 17 18  2  0
 18 19  1  0
 19 20  1  0
 20 21  2  0
 21 22  1  0
 22 23  2  0
 23 24  1  0
 24 25  1  0
 25 26  1  0
 25 27  1  0
 23 28  1  0
 28 29  2  0
 18 30  1  0
 30 31  2  0
 31 32  1  0
 32 33  2  0
 33 34  1  0
 34 35  2  0
 13  8  1  0
 29 20  1  0
 35 30  1  0
 17 11  1  0
  1 36  1  0
  1 37  1  0
  1 38  1  0
  2 39  1  0
  2 40  1  0
  3 41  1  0
  9 42  1  0
 10 43  1  0
 13 44  1  0
 14 45  1  0
 19 46  1  0
 21 47  1  0
 22 48  1  0
 24 49  1  0
 24 50  1  0
 26 51  1  0
 26 52  1  0
 26 53  1  0
 27 54  1  0
 27 55  1  0
 27 56  1  0
 28 57  1  0
 29 58  1  0
 31 59  1  0
 32 60  1  0
 33 61  1  0
 34 62  1  0
 35 63  1  0
M  END
$$$$
