
     RDKit          3D

 54 58  0  0  0  0  0  0  0  0999 V2000
   -6.6145   -4.2881    1.0166 O   0  0  0  0  0  0  0  0  0  0  0  0
   -6.4959   -3.1285    1.3660 C   0  0  0  0  0  0  0  0  0  0  0  0
   -7.4263   -2.5322    2.1324 O   0  0  0  0  0  0  0  0  0  0  0  0
   -5.3695   -2.2277    1.0231 C   0  0  0  0  0  0  0  0  0  0  0  0
   -5.3180   -0.9009    1.4532 C   0  0  0  0  0  0  0  0  0  0  0  0
   -4.2316   -0.0867    1.1020 C   0  0  0  0  0  0  0  0  0  0  0  0
   -3.1774   -0.5703    0.3121 C   0  0  0  0  0  0  0  0  0  0  0  0
   -2.0694    0.2590   -0.0541 N   0  0  0  0  0  0  0  0  0  0  0  0
   -0.7714   -0.2799   -0.2729 C   0  0  0  0  0  0  0  0  0  0  0  0
   -0.3855   -1.4326   -0.2060 O   0  0  0  0  0  0  0  0  0  0  0  0
    0.0880    0.9239   -0.5610 C   0  0  0  0  0  0  0  0  0  0  0  0
    1.3960    1.0272   -0.8330 C   0  0  0  0  0  0  0  0  0  0  0  0
    2.3325   -0.0330   -0.9584 C   0  0  0  0  0  0  0  0  0  0  0  0
    2.2311   -1.3123   -1.4872 C   0  0  0  0  0  0  0  0  0  0  0  0
    3.4986   -1.9356   -1.3841 C   0  0  0  0  0  0  0  0  0  0  0  0
    4.3434   -1.0082   -0.8185 C   0  0  0  0  0  0  0  0  0  0  0  0
    5.7572   -0.9990   -0.4476 C   0  0  0  0  0  0  0  0  0  0  0  0
    6.3462    0.1305    0.1466 C   0  0  0  0  0  0  0  0  0  0  0  0
    7.6999    0.1400    0.5022 C   0  0  0  0  0  0  0  0  0  0  0  0
    8.4821   -0.9943    0.2629 C   0  0  0  0  0  0  0  0  0  0  0  0
    9.9029   -0.9923    0.6320 N   0  0  0  0  0  4  0  0  0  0  0  0
   10.3622    0.0338    1.1536 O   0  0  0  0  0  0  0  0  0  0  0  0
   10.5604   -2.0169    0.3993 O   0  0  0  0  0  1  0  0  0  0  0  0
    7.9181   -2.1310   -0.3266 C   0  0  0  0  0  0  0  0  0  0  0  0
    6.5625   -2.1269   -0.6773 C   0  0  0  0  0  0  0  0  0  0  0  0
    3.6477    0.1402   -0.5806 O   0  0  0  0  0  0  0  0  0  0  0  0
   -0.7842    2.0718   -0.4731 C   0  0  0  0  0  0  0  0  0  0  0  0
   -2.0227    1.6475   -0.1833 C   0  0  0  0  0  0  0  0  0  0  0  0
   -3.1606    2.5685   -0.1672 C   0  0  0  0  0  0  0  0  0  0  0  0
   -3.2253    3.6057    0.7746 C   0  0  0  0  0  0  0  0  0  0  0  0
   -4.3040    4.4926    0.7764 C   0  0  0  0  0  0  0  0  0  0  0  0
   -5.3217    4.3555   -0.1662 C   0  0  0  0  0  0  0  0  0  0  0  0
   -5.2622    3.3347   -1.1133 C   0  0  0  0  0  0  0  0  0  0  0  0
   -4.1845    2.4471   -1.1172 C   0  0  0  0  0  0  0  0  0  0  0  0
   -3.2423   -1.9112   -0.0993 C   0  0  0  0  0  0  0  0  0  0  0  0
   -4.3249   -2.7313    0.2467 C   0  0  0  0  0  0  0  0  0  0  0  0
   -8.0927   -3.2359    2.2792 H   0  0  0  0  0  0  0  0  0  0  0  0
   -6.1104   -0.4854    2.0713 H   0  0  0  0  0  0  0  0  0  0  0  0
   -4.2205    0.9210    1.5045 H   0  0  0  0  0  0  0  0  0  0  0  0
    1.8264    2.0196   -0.9452 H   0  0  0  0  0  0  0  0  0  0  0  0
    1.3379   -1.7557   -1.9054 H   0  0  0  0  0  0  0  0  0  0  0  0
    3.7517   -2.9391   -1.6934 H   0  0  0  0  0  0  0  0  0  0  0  0
    5.7498    1.0208    0.3410 H   0  0  0  0  0  0  0  0  0  0  0  0
    8.1196    1.0331    0.9606 H   0  0  0  0  0  0  0  0  0  0  0  0
    8.5115   -3.0226   -0.5192 H   0  0  0  0  0  0  0  0  0  0  0  0
    6.1439   -3.0217   -1.1337 H   0  0  0  0  0  0  0  0  0  0  0  0
   -0.4858    3.0913   -0.6663 H   0  0  0  0  0  0  0  0  0  0  0  0
   -2.4417    3.7244    1.5200 H   0  0  0  0  0  0  0  0  0  0  0  0
   -4.3507    5.2904    1.5135 H   0  0  0  0  0  0  0  0  0  0  0  0
   -6.1615    5.0461   -0.1641 H   0  0  0  0  0  0  0  0  0  0  0  0
   -6.0547    3.2292   -1.8501 H   0  0  0  0  0  0  0  0  0  0  0  0
   -4.1507    1.6567   -1.8645 H   0  0  0  0  0  0  0  0  0  0  0  0
   -2.4663   -2.3475   -0.7238 H   0  0  0  0  0  0  0  0  0  0  0  0
   -4.3428   -3.7639   -0.0973 H   0  0  0  0  0  0  0  0  0  0  0  0
  1  2  2  0
  2  3  1  0
  2  4  1  0
  4  5  2  0
  5  6  1  0
  6  7  2  0
  7  8  1  0
  8  9  1  0
  9 10  2  0
  9 11  1  0
 11 12  2  0
 12 13  1  0
 13 14  2  0
 14 15  1  0
 15 16  2  0
 16 17  1  0
 17 18  2  0
 18 19  1  0
 19 20  2  0
 20 21  1  0
 21 22  2  0
 21 23  1  0
 20 24  1  0
 24 25  2  0
 16 26  1  0
 11 27  1  0
 27 28  2  0
 28 29  1  0
 29 30  2  0
 30 31  1  0
 31 32  2  0
 32 33  1  0
 33 34  2  0
  7 35  1  0
 35 36  2  0
 36  4  1  0
 28  8  1  0
 34 29  1  0
 26 13  1  0
 25 17  1  0
  3 37  1  0
  5 38  1  0
  6 39  1  0
 12 40  1  0
 14 41  1  0
 15 42  1  0
 18 43  1  0
 19 44  1  0
 24 45  1  0
 25 46  1  0
 27 47  1  0
 30 48  1  0
 31 49  1  0
 32 50  1  0
 33 51  1  0
 34 52  1  0
 35 53  1  0
 36 54  1  0
M  CHG  2  21   1  23  -1
M  END
$$$$
