
     RDKit          3D

 38 40  0  0  0  0  0  0  0  0999 V2000
    5.8412    2.0342   -0.7084 C   0  0  0  0  0  0  0  0  0  0  0  0
    5.3372    0.9002   -1.4024 O   0  0  0  0  0  0  0  0  0  0  0  0
    4.2334    0.2866   -0.8775 C   0  0  0  0  0  0  0  0  0  0  0  0
    3.8170   -0.8501   -1.5699 C   0  0  0  0  0  0  0  0  0  0  0  0
    2.6930   -1.5583   -1.1514 C   0  0  0  0  0  0  0  0  0  0  0  0
    1.9793   -1.1369   -0.0281 C   0  0  0  0  0  0  0  0  0  0  0  0
    2.4034   -0.0234    0.6994 C   0  0  0  0  0  0  0  0  0  0  0  0
    1.6717    0.5393    1.7955 N   0  0  0  0  0  0  0  0  0  0  0  0
    0.6378   -0.3766    2.7612 S   0  0  0  0  0  6  0  0  0  0  0  0
    1.1724   -1.7113    2.9109 O   0  0  0  0  0  0  0  0  0  0  0  0
    0.3320    0.4584    3.9032 O   0  0  0  0  0  0  0  0  0  0  0  0
   -0.9044   -0.5360    1.8941 C   0  0  0  0  0  0  0  0  0  0  0  0
   -1.3996    0.0719    0.7564 C   0  0  0  0  0  0  0  0  0  0  0  0
   -2.7157   -0.3708    0.4177 C   0  0  0  0  0  0  0  0  0  0  0  0
   -3.5123    0.1437   -0.8339 C   0  0  0  0  0  0  0  0  0  0  0  0
   -3.0381    1.0657   -1.7460 C   0  0  0  0  0  0  0  0  0  0  0  0
   -4.0699    1.2218   -2.6853 C   0  0  0  0  0  0  0  0  0  0  0  0
   -5.1275    0.4625   -2.4041 N   0  0  0  0  0  0  0  0  0  0  0  0
   -4.7718   -0.1854   -1.2734 N   0  0  0  0  0  0  0  0  0  0  0  0
   -5.7208   -1.1025   -0.6918 C   0  0  0  0  0  0  0  0  0  0  0  0
   -3.1760   -1.2948    1.3283 C   0  0  0  0  0  0  0  0  0  0  0  0
   -2.0367   -1.6211    2.5675 S   0  0  0  0  0  0  0  0  0  0  0  0
    3.5152    0.7036    0.2462 C   0  0  0  0  0  0  0  0  0  0  0  0
    5.1139    2.8527   -0.7122 H   0  0  0  0  0  0  0  0  0  0  0  0
    6.7346    2.3802   -1.2371 H   0  0  0  0  0  0  0  0  0  0  0  0
    6.1382    1.7733    0.3128 H   0  0  0  0  0  0  0  0  0  0  0  0
    4.3694   -1.1821   -2.4460 H   0  0  0  0  0  0  0  0  0  0  0  0
    2.3705   -2.4387   -1.7020 H   0  0  0  0  0  0  0  0  0  0  0  0
    1.1069   -1.7157    0.2563 H   0  0  0  0  0  0  0  0  0  0  0  0
    2.1924    1.1871    2.3868 H   0  0  0  0  0  0  0  0  0  0  0  0
   -0.8257    0.8008    0.1975 H   0  0  0  0  0  0  0  0  0  0  0  0
   -2.0798    1.5633   -1.7452 H   0  0  0  0  0  0  0  0  0  0  0  0
   -4.0956    1.8560   -3.5622 H   0  0  0  0  0  0  0  0  0  0  0  0
   -5.9633   -0.7600    0.3166 H   0  0  0  0  0  0  0  0  0  0  0  0
   -6.6328   -1.1183   -1.2954 H   0  0  0  0  0  0  0  0  0  0  0  0
   -5.2786   -2.1012   -0.6820 H   0  0  0  0  0  0  0  0  0  0  0  0
   -4.1187   -1.8168    1.3640 H   0  0  0  0  0  0  0  0  0  0  0  0
    3.8075    1.5990    0.7834 H   0  0  0  0  0  0  0  0  0  0  0  0
  1  2  1  0
  2  3  1  0
  3  4  2  0
  4  5  1  0
  5  6  2  0
  6  7  1  0
  7  8  1  0
  8  9  1  0
  9 10  2  0
  9 11  2  0
  9 12  1  0
 12 13  2  0
 13 14  1  0
 14 15  1  0
 15 16  2  0
 16 17  1  0
 17 18  2  0
 18 19  1  0
 19 20  1  0
 14 21  2  0
 21 22  1  0
  7 23  2  0
 23  3  1  0
 22 12  1  0
 19 15  1  0
  1 24  1  0
  1 25  1  0
  1 26  1  0
  4 27  1  0
  5 28  1  0
  6 29  1  0
  8 30  1  0
 13 31  1  0
 16 32  1  0
 17 33  1  0
 20 34  1  0
 20 35  1  0
 20 36  1  0
 21 37  1  0
 23 38  1  0
M  END
$$$$
