
     RDKit          3D

 44 45  0  0  0  0  0  0  0  0999 V2000
   -5.5918    2.2654   -0.0249 C   0  0  0  0  0  0  0  0  0  0  0  0
   -5.4224    0.9991   -0.8523 C   0  0  0  0  0  0  0  0  0  0  0  0
   -4.7649   -0.0583   -0.0714 N   0  0  0  0  0  0  0  0  0  0  0  0
   -5.6638   -0.9684    0.6505 C   0  0  0  0  0  0  0  0  0  0  0  0
   -5.9990   -2.1894   -0.1942 C   0  0  0  0  0  0  0  0  0  0  0  0
   -3.3805   -0.1837   -0.0181 C   0  0  0  0  0  0  0  0  0  0  0  0
   -2.7483   -1.2695    0.6178 C   0  0  0  0  0  0  0  0  0  0  0  0
   -1.3525   -1.4059    0.6764 C   0  0  0  0  0  0  0  0  0  0  0  0
   -0.5393   -0.4426    0.0909 C   0  0  0  0  0  0  0  0  0  0  0  0
    0.9265   -0.5961    0.1588 C   0  0  0  0  0  0  0  0  0  0  0  0
    1.7272    0.2711   -0.3720 N   0  0  0  0  0  0  0  0  0  0  0  0
    3.0580    0.0094   -0.2359 N   0  0  0  0  0  0  0  0  0  0  0  0
    3.9896    0.9202   -0.7122 C   0  0  0  0  0  0  0  0  0  0  0  0
    3.7337    1.9912   -1.2536 O   0  0  0  0  0  0  0  0  0  0  0  0
    5.4138    0.5440   -0.4918 C   0  0  0  0  0  0  0  0  0  0  0  0
    5.8424   -0.7904   -0.5182 C   0  0  0  0  0  0  0  0  0  0  0  0
    7.1892   -1.0921   -0.3034 C   0  0  0  0  0  0  0  0  0  0  0  0
    8.1005   -0.0660   -0.0752 C   0  0  0  0  0  0  0  0  0  0  0  0
    9.4033   -0.4111    0.1279 O   0  0  0  0  0  0  0  0  0  0  0  0
    7.6931    1.2642   -0.0644 C   0  0  0  0  0  0  0  0  0  0  0  0
    6.3468    1.5688   -0.2785 C   0  0  0  0  0  0  0  0  0  0  0  0
   -1.1197    0.6469   -0.5473 C   0  0  0  0  0  0  0  0  0  0  0  0
   -2.5167    0.7656   -0.5964 C   0  0  0  0  0  0  0  0  0  0  0  0
   -6.1905    2.0723    0.8714 H   0  0  0  0  0  0  0  0  0  0  0  0
   -6.1010    3.0352   -0.6130 H   0  0  0  0  0  0  0  0  0  0  0  0
   -4.6288    2.6696    0.3013 H   0  0  0  0  0  0  0  0  0  0  0  0
   -6.4165    0.6585   -1.1693 H   0  0  0  0  0  0  0  0  0  0  0  0
   -4.8895    1.2082   -1.7866 H   0  0  0  0  0  0  0  0  0  0  0  0
   -5.2513   -1.2640    1.6216 H   0  0  0  0  0  0  0  0  0  0  0  0
   -6.5996   -0.4482    0.8919 H   0  0  0  0  0  0  0  0  0  0  0  0
   -5.1045   -2.7666   -0.4469 H   0  0  0  0  0  0  0  0  0  0  0  0
   -6.6849   -2.8472    0.3486 H   0  0  0  0  0  0  0  0  0  0  0  0
   -6.4811   -1.8977   -1.1331 H   0  0  0  0  0  0  0  0  0  0  0  0
   -3.3313   -2.0585    1.0829 H   0  0  0  0  0  0  0  0  0  0  0  0
   -0.9274   -2.2693    1.1798 H   0  0  0  0  0  0  0  0  0  0  0  0
    1.3060   -1.4900    0.6857 H   0  0  0  0  0  0  0  0  0  0  0  0
    3.3480   -0.7873    0.3172 H   0  0  0  0  0  0  0  0  0  0  0  0
    5.1539   -1.6013   -0.7362 H   0  0  0  0  0  0  0  0  0  0  0  0
    7.5315   -2.1234   -0.3269 H   0  0  0  0  0  0  0  0  0  0  0  0
    9.9268    0.3999    0.2390 H   0  0  0  0  0  0  0  0  0  0  0  0
    8.3992    2.0715    0.1030 H   0  0  0  0  0  0  0  0  0  0  0  0
    6.0212    2.6079   -0.2782 H   0  0  0  0  0  0  0  0  0  0  0  0
   -0.5002    1.4130   -1.0094 H   0  0  0  0  0  0  0  0  0  0  0  0
   -2.9052    1.6453   -1.1003 H   0  0  0  0  0  0  0  0  0  0  0  0
  1  2  1  0
  2  3  1  0
  3  4  1  0
  4  5  1  0
  3  6  1  0
  6  7  2  0
  7  8  1  0
  8  9  2  0
  9 10  1  0
 10 11  2  0
 11 12  1  0
 12 13  1  0
 13 14  2  0
 13 15  1  0
 15 16  2  0
 16 17  1  0
 17 18  2  0
 18 19  1  0
 18 20  1  0
 20 21  2  0
  9 22  1  0
 22 23  2  0
 23  6  1  0
 21 15  1  0
  1 24  1  0
  1 25  1  0
  1 26  1  0
  2 27  1  0
  2 28  1  0
  4 29  1  0
  4 30  1  0
  5 31  1  0
  5 32  1  0
  5 33  1  0
  7 34  1  0
  8 35  1  0
 10 36  1  0
 12 37  1  0
 16 38  1  0
 17 39  1  0
 19 40  1  0
 20 41  1  0
 21 42  1  0
 22 43  1  0
 23 44  1  0
M  END
$$$$
