
     RDKit          3D

 42 44  0  0  0  0  0  0  0  0999 V2000
   -4.4840   -1.9524   -0.6200 C   0  0  0  0  0  0  0  0  0  0  0  0
   -3.6027   -2.4450    0.5165 C   0  0  0  0  0  0  0  0  0  0  0  0
   -3.0438   -1.3219    1.3981 C   0  0  0  0  0  0  0  0  0  0  0  0
   -2.0701   -0.4711    0.7071 N   0  0  0  0  0  0  0  0  0  0  0  0
   -0.7679   -0.9746    0.6113 C   0  0  0  0  0  0  0  0  0  0  0  0
   -0.4352   -2.0367    1.1376 O   0  0  0  0  0  0  0  0  0  0  0  0
    0.2357   -0.1692   -0.1328 C   0  0  0  0  0  0  0  0  0  0  0  0
    1.5739   -0.7635   -0.4297 C   0  0  0  0  0  0  0  0  0  0  0  0
    1.6505   -1.8693   -0.9537 O   0  0  0  0  0  0  0  0  0  0  0  0
    2.6323    0.0556   -0.0786 N   0  0  0  0  0  0  0  0  0  0  0  0
    4.0097   -0.2239   -0.1840 C   0  0  0  0  0  0  0  0  0  0  0  0
    4.5263   -1.4633   -0.5690 C   0  0  0  0  0  0  0  0  0  0  0  0
    5.9086   -1.6656   -0.6451 C   0  0  0  0  0  0  0  0  0  0  0  0
    6.7874   -0.6305   -0.3346 C   0  0  0  0  0  0  0  0  0  0  0  0
    6.2766    0.6043    0.0540 C   0  0  0  0  0  0  0  0  0  0  0  0
    7.4613    2.0158    0.4799 Br  0  0  0  0  0  0  0  0  0  0  0  0
    4.8981    0.8116    0.1324 C   0  0  0  0  0  0  0  0  0  0  0  0
   -0.0845    1.0430   -0.6112 C   0  0  0  0  0  0  0  0  0  0  0  0
    0.8123    1.7919   -1.3543 O   0  0  0  0  0  0  0  0  0  0  0  0
   -1.4250    1.6120   -0.4022 C   0  0  0  0  0  0  0  0  0  0  0  0
   -1.7302    2.9266   -0.8056 C   0  0  0  0  0  0  0  0  0  0  0  0
   -3.0151    3.4432   -0.6549 C   0  0  0  0  0  0  0  0  0  0  0  0
   -4.0085    2.6541   -0.0954 C   0  0  0  0  0  0  0  0  0  0  0  0
   -3.7120    1.3591    0.3376 C   0  0  0  0  0  0  0  0  0  0  0  0
   -2.4183    0.8251    0.2113 C   0  0  0  0  0  0  0  0  0  0  0  0
   -4.8921   -2.8042   -1.1737 H   0  0  0  0  0  0  0  0  0  0  0  0
   -5.3260   -1.3661   -0.2396 H   0  0  0  0  0  0  0  0  0  0  0  0
   -3.9193   -1.3378   -1.3271 H   0  0  0  0  0  0  0  0  0  0  0  0
   -4.1952   -3.1181    1.1477 H   0  0  0  0  0  0  0  0  0  0  0  0
   -2.7847   -3.0428    0.0982 H   0  0  0  0  0  0  0  0  0  0  0  0
   -2.5332   -1.7914    2.2495 H   0  0  0  0  0  0  0  0  0  0  0  0
   -3.8474   -0.7410    1.8564 H   0  0  0  0  0  0  0  0  0  0  0  0
    2.3861    0.9932    0.2170 H   0  0  0  0  0  0  0  0  0  0  0  0
    3.8778   -2.3006   -0.8102 H   0  0  0  0  0  0  0  0  0  0  0  0
    6.2936   -2.6371   -0.9458 H   0  0  0  0  0  0  0  0  0  0  0  0
    7.8591   -0.7977   -0.3962 H   0  0  0  0  0  0  0  0  0  0  0  0
    4.5217    1.7838    0.4378 H   0  0  0  0  0  0  0  0  0  0  0  0
    0.3404    2.1239   -2.1407 H   0  0  0  0  0  0  0  0  0  0  0  0
   -0.9706    3.5781   -1.2308 H   0  0  0  0  0  0  0  0  0  0  0  0
   -3.2383    4.4585   -0.9737 H   0  0  0  0  0  0  0  0  0  0  0  0
   -5.0165    3.0466    0.0189 H   0  0  0  0  0  0  0  0  0  0  0  0
   -4.5306    0.7971    0.7728 H   0  0  0  0  0  0  0  0  0  0  0  0
  1  2  1  0
  2  3  1  0
  3  4  1  0
  4  5  1  0
  5  6  2  0
  5  7  1  0
  7  8  1  0
  8  9  2  0
  8 10  1  0
 10 11  1  0
 11 12  2  0
 12 13  1  0
 13 14  2  0
 14 15  1  0
 15 16  1  0
 15 17  2  0
  7 18  2  0
 18 19  1  0
 18 20  1  0
 20 21  2  0
 21 22  1  0
 22 23  2  0
 23 24  1  0
 24 25  2  0
 25  4  1  0
 17 11  1  0
 25 20  1  0
  1 26  1  0
  1 27  1  0
  1 28  1  0
  2 29  1  0
  2 30  1  0
  3 31  1  0
  3 32  1  0
 10 33  1  0
 12 34  1  0
 13 35  1  0
 14 36  1  0
 17 37  1  0
 19 38  1  0
 21 39  1  0
 22 40  1  0
 23 41  1  0
 24 42  1  0
M  END
$$$$
