
     RDKit          3D

 61 64  0  0  0  0  0  0  0  0999 V2000
    6.5522    1.6724    2.8998 C   0  0  0  0  0  0  0  0  0  0  0  0
    7.8908    1.6422    2.4260 O   0  0  0  0  0  0  0  0  0  0  0  0
    8.0250    2.0662    1.0693 C   0  0  0  0  0  0  0  0  0  0  0  0
    7.8906    0.9078    0.0725 C   0  0  0  0  0  0  0  0  0  0  0  0
    6.5087    0.5620   -0.2237 N   0  0  0  0  0  0  0  0  0  0  0  0
    6.0007   -0.7069    0.0097 C   0  0  0  0  0  0  0  0  0  0  0  0
    6.6780   -1.5924    0.5269 O   0  0  0  0  0  0  0  0  0  0  0  0
    4.5921   -0.9084   -0.4054 C   0  0  0  0  0  0  0  0  0  0  0  0
    3.7602   -0.0512   -1.2190 C   0  0  0  0  0  0  0  0  0  0  0  0
    2.5730   -0.7198   -1.3164 C   0  0  0  0  0  0  0  0  0  0  0  0
    2.7177   -1.8411   -0.5772 N   0  0  0  0  0  0  0  0  0  0  0  0
    3.9146   -2.0275   -0.0476 N   0  0  0  0  0  0  0  0  0  0  0  0
    1.5774   -2.7374   -0.5737 C   0  0  0  0  0  0  0  0  0  0  0  0
    0.7416   -2.1502   -1.7411 C   0  0  1  0  0  0  0  0  0  0  0  0
   -0.6954   -2.3051   -1.6135 N   0  0  0  0  0  0  0  0  0  0  0  0
   -1.4474   -1.7672   -0.5878 C   0  0  0  0  0  0  0  0  0  0  0  0
   -0.9537   -1.0945    0.3121 O   0  0  0  0  0  0  0  0  0  0  0  0
   -2.8797   -2.0819   -0.6707 C   0  0  0  0  0  0  0  0  0  0  0  0
   -3.3228   -2.9586   -1.5907 N   0  0  0  0  0  0  0  0  0  0  0  0
   -4.6762   -3.0868   -1.3772 O   0  0  0  0  0  0  0  0  0  0  0  0
   -5.0555   -2.2858   -0.3503 C   0  0  0  0  0  0  0  0  0  0  0  0
   -6.4865   -2.3493    0.0058 C   0  0  0  0  0  0  0  0  0  0  0  0
   -3.9635   -1.5811    0.1221 C   0  0  0  0  0  0  0  0  0  0  0  0
   -3.9188   -0.5890    1.2384 C   0  0  0  0  0  0  0  0  0  0  0  0
   -4.2683    0.7712    0.8278 N   0  0  0  0  0  0  0  0  0  0  0  0
   -3.2572    1.4779    0.0445 C   0  0  0  0  0  0  0  0  0  0  0  0
   -3.8421    2.4429   -0.9919 C   0  0  0  0  0  0  0  0  0  0  0  0
   -4.9427    3.3137   -0.4027 C   0  0  0  0  0  0  0  0  0  0  0  0
   -5.9529    2.5006    0.4090 C   0  0  0  0  0  0  0  0  0  0  0  0
   -5.6478    1.0000    0.4316 C   0  0  0  0  0  0  0  0  0  0  0  0
    1.2316   -0.6707   -1.9261 C   0  0  0  0  0  0  0  0  0  0  0  0
    5.9040    1.0106    2.3206 H   0  0  0  0  0  0  0  0  0  0  0  0
    6.5478    1.3278    3.9388 H   0  0  0  0  0  0  0  0  0  0  0  0
    6.1638    2.6970    2.8753 H   0  0  0  0  0  0  0  0  0  0  0  0
    7.3375    2.8917    0.8422 H   0  0  0  0  0  0  0  0  0  0  0  0
    9.0445    2.4609    0.9831 H   0  0  0  0  0  0  0  0  0  0  0  0
    8.4329    0.0285    0.4378 H   0  0  0  0  0  0  0  0  0  0  0  0
    8.3300    1.2076   -0.8852 H   0  0  0  0  0  0  0  0  0  0  0  0
    5.9258    1.2548   -0.6669 H   0  0  0  0  0  0  0  0  0  0  0  0
    4.0178    0.8895   -1.6829 H   0  0  0  0  0  0  0  0  0  0  0  0
    1.9202   -3.7526   -0.7811 H   0  0  0  0  0  0  0  0  0  0  0  0
    1.1016   -2.6705    0.4074 H   0  0  0  0  0  0  0  0  0  0  0  0
    1.0126   -2.7030   -2.6523 H   0  0  0  0  0  0  0  0  0  0  0  0
   -1.2036   -2.8927   -2.2708 H   0  0  0  0  0  0  0  0  0  0  0  0
   -7.0825   -1.7696   -0.7070 H   0  0  0  0  0  0  0  0  0  0  0  0
   -6.6696   -1.9543    1.0106 H   0  0  0  0  0  0  0  0  0  0  0  0
   -6.8442   -3.3849   -0.0155 H   0  0  0  0  0  0  0  0  0  0  0  0
   -2.9343   -0.5843    1.7190 H   0  0  0  0  0  0  0  0  0  0  0  0
   -4.6073   -0.9109    2.0315 H   0  0  0  0  0  0  0  0  0  0  0  0
   -2.5943    0.7944   -0.4939 H   0  0  0  0  0  0  0  0  0  0  0  0
   -2.6275    2.0449    0.7435 H   0  0  0  0  0  0  0  0  0  0  0  0
   -3.0469    3.0744   -1.4020 H   0  0  0  0  0  0  0  0  0  0  0  0
   -4.2493    1.8685   -1.8345 H   0  0  0  0  0  0  0  0  0  0  0  0
   -5.4571    3.8487   -1.2127 H   0  0  0  0  0  0  0  0  0  0  0  0
   -4.4998    4.0847    0.2418 H   0  0  0  0  0  0  0  0  0  0  0  0
   -5.9707    2.8849    1.4381 H   0  0  0  0  0  0  0  0  0  0  0  0
   -6.9621    2.6575    0.0084 H   0  0  0  0  0  0  0  0  0  0  0  0
   -6.3333    0.5323    1.1474 H   0  0  0  0  0  0  0  0  0  0  0  0
   -5.8599    0.5690   -0.5540 H   0  0  0  0  0  0  0  0  0  0  0  0
    0.5962    0.0496   -1.4043 H   0  0  0  0  0  0  0  0  0  0  0  0
    1.2642   -0.4067   -2.9871 H   0  0  0  0  0  0  0  0  0  0  0  0
  1  2  1  0
  2  3  1  0
  3  4  1  0
  4  5  1  0
  5  6  1  0
  6  7  2  0
  6  8  1  0
  8  9  1  0
  9 10  2  0
 10 11  1  0
 11 12  1  0
 11 13  1  0
 13 14  1  0
 14 15  1  0
 15 16  1  0
 16 17  2  0
 16 18  1  0
 18 19  2  0
 19 20  1  0
 20 21  1  0
 21 22  1  0
 21 23  2  0
 23 24  1  0
 24 25  1  0
 25 26  1  0
 26 27  1  0
 27 28  1  0
 28 29  1  0
 29 30  1  0
 14 31  1  0
 12  8  2  0
 23 18  1  0
 30 25  1  0
 31 10  1  0
  1 32  1  0
  1 33  1  0
  1 34  1  0
  3 35  1  0
  3 36  1  0
  4 37  1  0
  4 38  1  0
  5 39  1  0
  9 40  1  0
 13 41  1  0
 13 42  1  0
 14 43  1  6
 15 44  1  0
 22 45  1  0
 22 46  1  0
 22 47  1  0
 24 48  1  0
 24 49  1  0
 26 50  1  0
 26 51  1  0
 27 52  1  0
 27 53  1  0
 28 54  1  0
 28 55  1  0
 29 56  1  0
 29 57  1  0
 30 58  1  0
 30 59  1  0
 31 60  1  0
 31 61  1  0
M  END
$$$$
