
     RDKit          3D

 20 22  0  0  0  0  0  0  0  0999 V2000
    4.0175    0.2497    0.7808 O   0  0  0  0  0  0  0  0  0  0  0  0
    2.9230   -0.2038    0.4708 C   0  0  0  0  0  0  0  0  0  0  0  0
    2.8081   -1.5409    0.2591 O   0  0  0  0  0  0  0  0  0  0  0  0
    1.6772    0.5444    0.2934 C   0  0  0  0  0  0  0  0  0  0  0  0
    1.6078    1.8913    0.4642 N   0  0  0  0  0  0  0  0  0  0  0  0
    0.3139    2.2155    0.2230 N   0  0  0  0  0  0  0  0  0  0  0  0
   -0.4132    1.1329   -0.0940 C   0  0  0  0  0  0  0  0  0  0  0  0
    0.4090    0.0449   -0.0608 C   0  0  0  0  0  0  0  0  0  0  0  0
   -0.2740   -1.2318   -0.3851 C   0  0  0  0  0  0  0  0  0  0  0  0
   -1.7265   -0.7899   -0.6737 C   0  0  1  0  0  0  0  0  0  0  0  0
   -2.6209   -0.2171    0.3974 C   0  0  0  0  0  0  0  0  0  0  0  0
   -1.8483    0.7361   -0.4706 C   0  0  1  0  0  0  0  0  0  0  0  0
    3.7234   -1.8482    0.4236 H   0  0  0  0  0  0  0  0  0  0  0  0
    0.0307    3.1868    0.3001 H   0  0  0  0  0  0  0  0  0  0  0  0
    0.1611   -1.6967   -1.2748 H   0  0  0  0  0  0  0  0  0  0  0  0
   -0.2476   -1.9345    0.4527 H   0  0  0  0  0  0  0  0  0  0  0  0
   -2.1645   -1.2408   -1.5522 H   0  0  0  0  0  0  0  0  0  0  0  0
   -2.3250   -0.3274    1.4350 H   0  0  0  0  0  0  0  0  0  0  0  0
   -3.6930   -0.2779    0.2460 H   0  0  0  0  0  0  0  0  0  0  0  0
   -2.3587    1.3073   -1.2349 H   0  0  0  0  0  0  0  0  0  0  0  0
  1  2  2  0
  2  3  1  0
  2  4  1  0
  4  5  2  0
  5  6  1  0
  6  7  1  0
  7  8  2  0
  8  9  1  0
  9 10  1  0
 10 11  1  0
 11 12  1  0
  8  4  1  0
 12 10  1  0
 12  7  1  0
  3 13  1  0
  6 14  1  0
  9 15  1  0
  9 16  1  0
 10 17  1  6
 11 18  1  0
 11 19  1  0
 12 20  1  6
M  END
$$$$
