
     RDKit          3D

 46 49  0  0  0  0  0  0  0  0999 V2000
   -5.9071    2.1312   -0.1908 C   0  0  0  0  0  0  0  0  0  0  0  0
   -5.4944    0.8571   -0.9214 C   0  0  1  0  0  0  0  0  0  0  0  0
   -5.5432    1.0103   -2.4325 C   0  0  0  0  0  0  0  0  0  0  0  0
   -4.2290    1.4522   -2.8396 O   0  0  0  0  0  0  0  0  0  0  0  0
   -3.3116    1.1211   -1.7860 C   0  0  2  0  0  0  0  0  0  0  0  0
   -2.2277    0.1359   -2.2250 C   0  0  0  0  0  0  0  0  0  0  0  0
   -1.4376   -0.2749   -1.0437 N   0  0  0  0  0  0  0  0  0  0  0  0
   -0.0959   -0.6095   -1.1700 C   0  0  0  0  0  0  0  0  0  0  0  0
    0.6937   -1.0302   -0.1693 C   0  0  0  0  0  0  0  0  0  0  0  0
    2.1191   -1.3431   -0.4624 C   0  0  0  0  0  0  0  0  0  0  0  0
    2.5931   -1.1825   -1.5840 O   0  0  0  0  0  0  0  0  0  0  0  0
    2.8501   -1.8086    0.5981 N   0  0  0  0  0  0  0  0  0  0  0  0
    4.2668   -2.0763    0.5154 C   0  0  0  0  0  0  0  0  0  0  0  0
    5.0694   -0.8983    0.9920 C   0  0  0  0  0  0  0  0  0  0  0  0
    5.3565    0.1698    0.1276 C   0  0  0  0  0  0  0  0  0  0  0  0
    6.0837    1.2693    0.5870 C   0  0  0  0  0  0  0  0  0  0  0  0
    6.5159    1.3050    1.9089 C   0  0  0  0  0  0  0  0  0  0  0  0
    7.2115    2.3630    2.3440 F   0  0  0  0  0  0  0  0  0  0  0  0
    6.2353    0.2649    2.7833 C   0  0  0  0  0  0  0  0  0  0  0  0
    5.5122   -0.8269    2.3176 C   0  0  0  0  0  0  0  0  0  0  0  0
    5.2332   -1.8255    3.1673 F   0  0  0  0  0  0  0  0  0  0  0  0
    0.0585   -1.1450    1.1656 C   0  0  0  0  0  0  0  0  0  0  0  0
    0.6841   -1.4999    2.1671 O   0  0  0  0  0  0  0  0  0  0  0  0
   -1.3963   -0.8226    1.3119 C   0  0  0  0  0  0  0  0  0  0  0  0
   -1.9297   -0.9508    2.5792 O   0  0  0  0  0  0  0  0  0  0  0  0
   -2.0730   -0.4192    0.2166 C   0  0  0  0  0  0  0  0  0  0  0  0
   -3.5682   -0.1210    0.3368 C   0  0  0  0  0  0  0  0  0  0  0  0
   -4.2708   -0.5098    1.2629 O   0  0  0  0  0  0  0  0  0  0  0  0
   -4.1007    0.5679   -0.7263 N   0  0  0  0  0  0  0  0  0  0  0  0
   -5.3024    2.9904   -0.5002 H   0  0  0  0  0  0  0  0  0  0  0  0
   -5.7827    2.0142    0.8909 H   0  0  0  0  0  0  0  0  0  0  0  0
   -6.9578    2.3669   -0.3886 H   0  0  0  0  0  0  0  0  0  0  0  0
   -6.1190    0.0264   -0.5758 H   0  0  0  0  0  0  0  0  0  0  0  0
   -6.2998    1.7159   -2.7879 H   0  0  0  0  0  0  0  0  0  0  0  0
   -5.7162    0.0416   -2.9145 H   0  0  0  0  0  0  0  0  0  0  0  0
   -2.8584    2.0529   -1.4249 H   0  0  0  0  0  0  0  0  0  0  0  0
   -2.6780   -0.7523   -2.6855 H   0  0  0  0  0  0  0  0  0  0  0  0
   -1.5975    0.6052   -2.9899 H   0  0  0  0  0  0  0  0  0  0  0  0
    0.2938   -0.5057   -2.1812 H   0  0  0  0  0  0  0  0  0  0  0  0
    2.4131   -1.8567    1.5185 H   0  0  0  0  0  0  0  0  0  0  0  0
    4.4699   -2.9621    1.1270 H   0  0  0  0  0  0  0  0  0  0  0  0
    4.5464   -2.3291   -0.5135 H   0  0  0  0  0  0  0  0  0  0  0  0
    5.0080    0.1476   -0.9044 H   0  0  0  0  0  0  0  0  0  0  0  0
    6.3113    2.0983   -0.0759 H   0  0  0  0  0  0  0  0  0  0  0  0
    6.5710    0.3065    3.8126 H   0  0  0  0  0  0  0  0  0  0  0  0
   -1.1993   -1.2638    3.1513 H   0  0  0  0  0  0  0  0  0  0  0  0
  1  2  1  0
  2  3  1  0
  3  4  1  0
  4  5  1  0
  5  6  1  0
  6  7  1  0
  7  8  1  0
  8  9  2  0
  9 10  1  0
 10 11  2  0
 10 12  1  0
 12 13  1  0
 13 14  1  0
 14 15  2  0
 15 16  1  0
 16 17  2  0
 17 18  1  0
 17 19  1  0
 19 20  2  0
 20 21  1  0
  9 22  1  0
 22 23  2  0
 22 24  1  0
 24 25  1  0
 24 26  2  0
 26 27  1  0
 27 28  2  0
 27 29  1  0
 29  2  1  0
 29  5  1  0
 26  7  1  0
 20 14  1  0
  1 30  1  0
  1 31  1  0
  1 32  1  0
  2 33  1  6
  3 34  1  0
  3 35  1  0
  5 36  1  1
  6 37  1  0
  6 38  1  0
  8 39  1  0
 12 40  1  0
 13 41  1  0
 13 42  1  0
 15 43  1  0
 16 44  1  0
 19 45  1  0
 25 46  1  0
M  END
$$$$
