
     RDKit          3D

 47 50  0  0  0  0  0  0  0  0999 V2000
   -5.4248   -0.0561    1.4718 C   0  0  0  0  0  0  0  0  0  0  0  0
   -4.7988   -1.3551    1.9659 C   0  0  2  0  0  0  0  0  0  0  0  0
   -5.6189   -1.9715    3.0977 C   0  0  0  0  0  0  0  0  0  0  0  0
   -4.6172   -2.7679    3.9218 C   0  0  0  0  0  0  0  0  0  0  0  0
   -3.2535   -2.4214    3.3428 C   0  0  0  0  0  0  0  0  0  0  0  0
   -3.4790   -1.1778    2.5950 N   0  0  0  0  0  0  0  0  0  0  0  0
   -2.4114   -0.9097    1.6161 C   0  0  0  0  0  0  0  0  0  0  0  0
   -1.0500   -0.6336    2.2743 C   0  0  0  0  0  0  0  0  0  0  0  0
   -0.0307   -0.2519    1.2615 C   0  0  0  0  0  0  0  0  0  0  0  0
    0.5107    0.9556    0.8710 C   0  0  0  0  0  0  0  0  0  0  0  0
    1.4472    0.6659   -0.1558 C   0  0  0  0  0  0  0  0  0  0  0  0
    2.3204    1.4176   -0.9642 C   0  0  0  0  0  0  0  0  0  0  0  0
    3.1315    0.7637   -1.9175 C   0  0  0  0  0  0  0  0  0  0  0  0
    4.0496    1.5369   -2.7709 C   0  0  0  0  0  0  0  0  0  0  0  0
    5.0103    2.3937   -2.2082 C   0  0  0  0  0  0  0  0  0  0  0  0
    5.8837    3.1292   -3.0168 C   0  0  0  0  0  0  0  0  0  0  0  0
    5.8101    3.0208   -4.4076 C   0  0  0  0  0  0  0  0  0  0  0  0
    6.7034    3.7739   -5.2381 C   0  0  0  0  0  0  0  0  0  0  0  0
    7.4265    4.3836   -5.9107 N   0  0  0  0  0  0  0  0  0  0  0  0
    4.8603    2.1739   -4.9838 C   0  0  0  0  0  0  0  0  0  0  0  0
    3.9897    1.4394   -4.1712 C   0  0  0  0  0  0  0  0  0  0  0  0
    3.0486   -0.6370   -2.0384 C   0  0  0  0  0  0  0  0  0  0  0  0
    2.1873   -1.4058   -1.2438 C   0  0  0  0  0  0  0  0  0  0  0  0
    1.4112   -0.7118   -0.3225 C   0  0  0  0  0  0  0  0  0  0  0  0
    0.5161   -1.2701    0.5376 O   0  0  0  0  0  0  0  0  0  0  0  0
   -6.4572   -0.2279    1.1483 H   0  0  0  0  0  0  0  0  0  0  0  0
   -5.4436    0.7059    2.2589 H   0  0  0  0  0  0  0  0  0  0  0  0
   -4.8761    0.3542    0.6185 H   0  0  0  0  0  0  0  0  0  0  0  0
   -4.7398   -2.0729    1.1360 H   0  0  0  0  0  0  0  0  0  0  0  0
   -6.0800   -1.2020    3.7294 H   0  0  0  0  0  0  0  0  0  0  0  0
   -6.4218   -2.6097    2.7137 H   0  0  0  0  0  0  0  0  0  0  0  0
   -4.8106   -3.8437    3.8560 H   0  0  0  0  0  0  0  0  0  0  0  0
   -4.6848   -2.4781    4.9766 H   0  0  0  0  0  0  0  0  0  0  0  0
   -2.9208   -3.2339    2.6840 H   0  0  0  0  0  0  0  0  0  0  0  0
   -2.5125   -2.2953    4.1384 H   0  0  0  0  0  0  0  0  0  0  0  0
   -2.6800   -0.0235    1.0279 H   0  0  0  0  0  0  0  0  0  0  0  0
   -2.3208   -1.7398    0.9023 H   0  0  0  0  0  0  0  0  0  0  0  0
   -1.1497    0.1744    3.0097 H   0  0  0  0  0  0  0  0  0  0  0  0
   -0.6944   -1.5180    2.8156 H   0  0  0  0  0  0  0  0  0  0  0  0
    0.2599    1.9254    1.2770 H   0  0  0  0  0  0  0  0  0  0  0  0
    2.3553    2.4984   -0.8563 H   0  0  0  0  0  0  0  0  0  0  0  0
    5.0928    2.4853   -1.1261 H   0  0  0  0  0  0  0  0  0  0  0  0
    6.6197    3.7819   -2.5508 H   0  0  0  0  0  0  0  0  0  0  0  0
    4.7869    2.0795   -6.0657 H   0  0  0  0  0  0  0  0  0  0  0  0
    3.2499    0.7937   -4.6421 H   0  0  0  0  0  0  0  0  0  0  0  0
    3.6780   -1.1549   -2.7615 H   0  0  0  0  0  0  0  0  0  0  0  0
    2.1273   -2.4832   -1.3350 H   0  0  0  0  0  0  0  0  0  0  0  0
  1  2  1  0
  2  3  1  0
  3  4  1  0
  4  5  1  0
  5  6  1  0
  6  7  1  0
  7  8  1  0
  8  9  1  0
  9 10  2  0
 10 11  1  0
 11 12  2  0
 12 13  1  0
 13 14  1  0
 14 15  2  0
 15 16  1  0
 16 17  2  0
 17 18  1  0
 18 19  3  0
 17 20  1  0
 20 21  2  0
 13 22  2  0
 22 23  1  0
 23 24  2  0
 24 25  1  0
  6  2  1  0
 25  9  1  0
 24 11  1  0
 21 14  1  0
  1 26  1  0
  1 27  1  0
  1 28  1  0
  2 29  1  6
  3 30  1  0
  3 31  1  0
  4 32  1  0
  4 33  1  0
  5 34  1  0
  5 35  1  0
  7 36  1  0
  7 37  1  0
  8 38  1  0
  8 39  1  0
 10 40  1  0
 12 41  1  0
 15 42  1  0
 16 43  1  0
 20 44  1  0
 21 45  1  0
 22 46  1  0
 23 47  1  0
M  END
$$$$
