
     RDKit          3D

 73 76  0  0  0  0  0  0  0  0999 V2000
   -4.1752    3.7800    3.7886 C   0  0  0  0  0  0  0  0  0  0  0  0
   -3.8010    3.0578    2.6152 O   0  0  0  0  0  0  0  0  0  0  0  0
   -4.6418    3.2371    1.5685 C   0  0  0  0  0  0  0  0  0  0  0  0
   -5.6413    3.9404    1.5600 O   0  0  0  0  0  0  0  0  0  0  0  0
   -4.2247    2.4586    0.3839 C   0  0  0  0  0  0  0  0  0  0  0  0
   -3.1132    1.7082    0.3250 C   0  0  0  0  0  0  0  0  0  0  0  0
   -2.7261    0.9172   -0.8513 C   0  0  0  0  0  0  0  0  0  0  0  0
   -2.8886    1.3858   -2.1589 C   0  0  0  0  0  0  0  0  0  0  0  0
   -2.4680    0.6142   -3.2428 C   0  0  0  0  0  0  0  0  0  0  0  0
   -1.8818   -0.6342   -3.0296 C   0  0  0  0  0  0  0  0  0  0  0  0
   -1.7162   -1.1276   -1.7312 C   0  0  0  0  0  0  0  0  0  0  0  0
   -1.0797   -2.3868   -1.5130 N   0  0  0  0  0  0  0  0  0  0  0  0
    0.2434   -2.5729   -2.1305 C   0  0  0  0  0  0  0  0  0  0  0  0
    1.2994   -1.6363   -1.5809 C   0  0  0  0  0  0  0  0  0  0  0  0
    1.7682   -0.5613   -2.3462 C   0  0  0  0  0  0  0  0  0  0  0  0
    2.7324    0.3110   -1.8302 C   0  0  0  0  0  0  0  0  0  0  0  0
    3.2568    0.1361   -0.5394 C   0  0  0  0  0  0  0  0  0  0  0  0
    4.2771    1.0526   -0.0043 C   0  0  0  0  0  0  0  0  0  0  0  0
    4.1016    2.4405   -0.0400 C   0  0  0  0  0  0  0  0  0  0  0  0
    5.0804    3.3140    0.4615 C   0  0  0  0  0  0  0  0  0  0  0  0
    6.2848    2.8472    1.0091 C   0  0  0  0  0  0  0  0  0  0  0  0
    7.2725    3.7003    1.5228 N   0  0  0  0  0  0  0  0  0  0  0  0
    8.6601    3.3238    1.2372 C   0  0  0  0  0  0  0  0  0  0  0  0
    7.0183    5.1386    1.5563 C   0  0  0  0  0  0  0  0  0  0  0  0
    6.4374    1.4511    1.0594 C   0  0  0  0  0  0  0  0  0  0  0  0
    5.4621    0.5728    0.5620 C   0  0  0  0  0  0  0  0  0  0  0  0
    2.7787   -0.9432    0.2198 C   0  0  0  0  0  0  0  0  0  0  0  0
    1.8146   -1.8180   -0.2919 C   0  0  0  0  0  0  0  0  0  0  0  0
   -1.4752   -3.3123   -0.5407 C   0  0  0  0  0  0  0  0  0  0  0  0
   -0.6843   -4.1374   -0.0755 O   0  0  0  0  0  0  0  0  0  0  0  0
   -2.9672   -3.3596   -0.1484 C   0  0  0  0  0  0  0  0  0  0  0  0
   -3.2145   -4.3035    1.0502 C   0  0  0  0  0  0  0  0  0  0  0  0
   -4.6475   -4.8405    1.1278 C   0  0  0  0  0  0  0  0  0  0  0  0
   -5.6486   -3.9042    0.4667 C   0  0  0  0  0  0  0  0  0  0  0  0
   -5.3296   -3.6941   -1.0145 C   0  0  0  0  0  0  0  0  0  0  0  0
   -3.8352   -3.7887   -1.3383 C   0  0  0  0  0  0  0  0  0  0  0  0
   -2.1144   -0.3286   -0.6501 C   0  0  0  0  0  0  0  0  0  0  0  0
   -5.1393    3.4236    4.1639 H   0  0  0  0  0  0  0  0  0  0  0  0
   -3.4166    3.5977    4.5548 H   0  0  0  0  0  0  0  0  0  0  0  0
   -4.2120    4.8547    3.5853 H   0  0  0  0  0  0  0  0  0  0  0  0
   -4.9145    2.5334   -0.4495 H   0  0  0  0  0  0  0  0  0  0  0  0
   -2.4476    1.6304    1.1826 H   0  0  0  0  0  0  0  0  0  0  0  0
   -3.3252    2.3632   -2.3508 H   0  0  0  0  0  0  0  0  0  0  0  0
   -2.5922    0.9895   -4.2544 H   0  0  0  0  0  0  0  0  0  0  0  0
   -1.5836   -1.2218   -3.8933 H   0  0  0  0  0  0  0  0  0  0  0  0
    0.1513   -2.4568   -3.2171 H   0  0  0  0  0  0  0  0  0  0  0  0
    0.5868   -3.6055   -1.9895 H   0  0  0  0  0  0  0  0  0  0  0  0
    1.3850   -0.3893   -3.3492 H   0  0  0  0  0  0  0  0  0  0  0  0
    3.0836    1.1300   -2.4547 H   0  0  0  0  0  0  0  0  0  0  0  0
    3.1880    2.8645   -0.4519 H   0  0  0  0  0  0  0  0  0  0  0  0
    4.8707    4.3775    0.3937 H   0  0  0  0  0  0  0  0  0  0  0  0
    8.8175    3.1815    0.1617 H   0  0  0  0  0  0  0  0  0  0  0  0
    9.3529    4.1050    1.5705 H   0  0  0  0  0  0  0  0  0  0  0  0
    8.9512    2.4146    1.7720 H   0  0  0  0  0  0  0  0  0  0  0  0
    6.0739    5.3666    2.0638 H   0  0  0  0  0  0  0  0  0  0  0  0
    7.8009    5.6517    2.1277 H   0  0  0  0  0  0  0  0  0  0  0  0
    7.0059    5.5647    0.5465 H   0  0  0  0  0  0  0  0  0  0  0  0
    7.3205    1.0090    1.5110 H   0  0  0  0  0  0  0  0  0  0  0  0
    5.6493   -0.4974    0.6199 H   0  0  0  0  0  0  0  0  0  0  0  0
    3.1485   -1.1080    1.2295 H   0  0  0  0  0  0  0  0  0  0  0  0
    1.4658   -2.6438    0.3261 H   0  0  0  0  0  0  0  0  0  0  0  0
   -3.2895   -2.3688    0.1772 H   0  0  0  0  0  0  0  0  0  0  0  0
   -2.5349   -5.1636    1.0435 H   0  0  0  0  0  0  0  0  0  0  0  0
   -2.9833   -3.7534    1.9718 H   0  0  0  0  0  0  0  0  0  0  0  0
   -4.9210   -5.0078    2.1758 H   0  0  0  0  0  0  0  0  0  0  0  0
   -4.6934   -5.8200    0.6344 H   0  0  0  0  0  0  0  0  0  0  0  0
   -5.6324   -2.9360    0.9842 H   0  0  0  0  0  0  0  0  0  0  0  0
   -6.6664   -4.2974    0.5750 H   0  0  0  0  0  0  0  0  0  0  0  0
   -5.7133   -2.7131   -1.3205 H   0  0  0  0  0  0  0  0  0  0  0  0
   -5.8674   -4.4351   -1.6191 H   0  0  0  0  0  0  0  0  0  0  0  0
   -3.5873   -4.8240   -1.6091 H   0  0  0  0  0  0  0  0  0  0  0  0
   -3.6310   -3.1935   -2.2348 H   0  0  0  0  0  0  0  0  0  0  0  0
   -1.9145   -0.6607    0.3665 H   0  0  0  0  0  0  0  0  0  0  0  0
  1  2  1  0
  2  3  1  0
  3  4  2  0
  3  5  1  0
  5  6  2  0
  6  7  1  0
  7  8  2  0
  8  9  1  0
  9 10  2  0
 10 11  1  0
 11 12  1  0
 12 13  1  0
 13 14  1  0
 14 15  2  0
 15 16  1  0
 16 17  2  0
 17 18  1  0
 18 19  2  0
 19 20  1  0
 20 21  2  0
 21 22  1  0
 22 23  1  0
 22 24  1  0
 21 25  1  0
 25 26  2  0
 17 27  1  0
 27 28  2  0
 12 29  1  0
 29 30  2  0
 29 31  1  0
 31 32  1  0
 32 33  1  0
 33 34  1  0
 34 35  1  0
 35 36  1  0
 11 37  2  0
 37  7  1  0
 28 14  1  0
 36 31  1  0
 26 18  1  0
  1 38  1  0
  1 39  1  0
  1 40  1  0
  5 41  1  0
  6 42  1  0
  8 43  1  0
  9 44  1  0
 10 45  1  0
 13 46  1  0
 13 47  1  0
 15 48  1  0
 16 49  1  0
 19 50  1  0
 20 51  1  0
 23 52  1  0
 23 53  1  0
 23 54  1  0
 24 55  1  0
 24 56  1  0
 24 57  1  0
 25 58  1  0
 26 59  1  0
 27 60  1  0
 28 61  1  0
 31 62  1  0
 32 63  1  0
 32 64  1  0
 33 65  1  0
 33 66  1  0
 34 67  1  0
 34 68  1  0
 35 69  1  0
 35 70  1  0
 36 71  1  0
 36 72  1  0
 37 73  1  0
M  END
$$$$
