
     RDKit          3D

105106  0  0  0  0  0  0  0  0999 V2000
    2.2056   -2.7626   -2.8454 C   0  0  0  0  0  0  0  0  0  0  0  0
    2.0324   -1.4756   -2.0440 C   0  0  0  0  0  0  0  0  0  0  0  0
    3.3088   -0.8426   -1.4268 C   0  0  0  0  0  0  0  0  0  0  0  0
    4.1059    0.0108   -2.4609 C   0  0  0  0  0  0  0  0  0  0  0  0
    4.7368   -0.7400   -3.6245 C   0  0  0  0  0  0  0  0  0  0  0  0
    4.2374   -1.8053   -0.7937 N   0  0  0  0  0  0  0  0  0  0  0  0
    3.8255   -2.7769    0.0987 C   0  0  0  0  0  0  0  0  0  0  0  0
    2.6490   -3.0565    0.3134 O   0  0  0  0  0  0  0  0  0  0  0  0
    4.9559   -3.4792    0.8495 C   0  0  0  0  0  0  0  0  0  0  0  0
    6.0450   -3.9937   -0.0891 C   0  0  0  0  0  0  0  0  0  0  0  0
    5.5362   -2.5628    1.9214 C   0  0  0  0  0  0  0  0  0  0  0  0
    2.9294    0.1761   -0.2872 C   0  0  0  0  0  0  0  0  0  0  0  0
    3.5463    0.2340    0.7802 O   0  0  0  0  0  0  0  0  0  0  0  0
    1.9565    1.1047   -0.5993 N   0  0  0  0  0  0  0  0  0  0  0  0
    1.6109    2.2106    0.3005 C   0  0  1  0  0  0  0  0  0  0  0  0
    2.4724    3.4553    0.0171 C   0  0  0  0  0  0  0  0  0  0  0  0
    3.9143    3.3995    0.5409 C   0  0  0  0  0  0  0  0  0  0  0  0
    4.0589    3.2113    2.0541 C   0  0  0  0  0  0  0  0  0  0  0  0
    3.4849    4.3349    2.7774 N   0  0  0  0  0  0  0  0  0  0  0  0
    3.5603    4.4700    4.1194 C   0  0  0  0  0  0  0  0  0  0  0  0
    4.3075    3.8462    4.9526 N   0  0  0  0  0  0  0  0  0  0  0  0
    2.7109    5.4144    4.5665 N   0  0  0  0  0  0  0  0  0  0  0  0
    0.1070    2.5535    0.1760 C   0  0  0  0  0  0  0  0  0  0  0  0
   -0.3412    3.6713    0.4098 O   0  0  0  0  0  0  0  0  0  0  0  0
   -0.6954    1.4667   -0.0848 N   0  0  0  0  0  0  0  0  0  0  0  0
   -2.1662    1.4685   -0.0808 C   0  0  0  0  0  0  0  0  0  0  0  0
   -2.5665   -0.0056   -0.4171 C   0  0  0  0  0  0  0  0  0  0  0  0
   -1.7186   -0.8396   -0.7438 O   0  0  0  0  0  0  0  0  0  0  0  0
   -3.9091   -0.2974   -0.3746 N   0  0  0  0  0  0  0  0  0  0  0  0
   -4.4401   -1.6178   -0.6746 C   0  0  0  0  0  0  0  0  0  0  0  0
   -5.7286   -1.4184   -1.4737 C   0  0  0  0  0  0  0  0  0  0  0  0
   -6.9325   -1.0382   -0.8486 C   0  0  0  0  0  0  0  0  0  0  0  0
   -8.0865   -0.8173   -1.6038 C   0  0  0  0  0  0  0  0  0  0  0  0
   -8.0413   -0.9708   -2.9837 C   0  0  0  0  0  0  0  0  0  0  0  0
   -9.1494   -0.7578   -3.7081 F   0  0  0  0  0  0  0  0  0  0  0  0
   -6.8646   -1.3396   -3.6247 C   0  0  0  0  0  0  0  0  0  0  0  0
   -5.7073   -1.5586   -2.8736 C   0  0  0  0  0  0  0  0  0  0  0  0
   -4.6210   -2.5020    0.5619 C   0  0  0  0  0  0  0  0  0  0  0  0
   -5.1384   -3.8048    0.4028 C   0  0  0  0  0  0  0  0  0  0  0  0
   -5.3147   -4.6500    1.5002 C   0  0  0  0  0  0  0  0  0  0  0  0
   -4.9606   -4.2101    2.7665 C   0  0  0  0  0  0  0  0  0  0  0  0
   -5.1258   -5.0207    3.8195 F   0  0  0  0  0  0  0  0  0  0  0  0
   -4.4343   -2.9392    2.9555 C   0  0  0  0  0  0  0  0  0  0  0  0
   -4.2655   -2.0870    1.8593 C   0  0  0  0  0  0  0  0  0  0  0  0
   -2.7628    2.4224   -1.1394 C   0  0  0  0  0  0  0  0  0  0  0  0
   -3.9285    3.1201   -0.4470 C   0  0  0  0  0  0  0  0  0  0  0  0
   -3.4800    3.2328    0.9965 C   0  0  0  0  0  0  0  0  0  0  0  0
   -2.7457    1.9252    1.2778 C   0  0  0  0  0  0  0  0  0  0  0  0
    1.0769    1.3808   -0.2698 O   0  0  0  0  0  0  0  0  0  0  0  0
    0.5478    0.2835   -0.1395 C   0  0  0  0  0  0  0  0  0  0  0  0
    1.2908   -0.8307   -0.3758 O   0  0  0  0  0  0  0  0  0  0  0  0
   -0.9032   -0.0072    0.2523 C   0  0  0  0  0  0  0  0  0  0  0  0
   -0.9925   -0.8677    1.3065 F   0  0  0  0  0  0  0  0  0  0  0  0
   -1.6059   -0.5785   -0.7673 F   0  0  0  0  0  0  0  0  0  0  0  0
   -1.5934    1.1119    0.6106 F   0  0  0  0  0  0  0  0  0  0  0  0
    2.6950   -3.5540   -2.2747 H   0  0  0  0  0  0  0  0  0  0  0  0
    2.7712   -2.6074   -3.7631 H   0  0  0  0  0  0  0  0  0  0  0  0
    1.2200   -3.1392   -3.1415 H   0  0  0  0  0  0  0  0  0  0  0  0
    1.5370   -0.7421   -2.6965 H   0  0  0  0  0  0  0  0  0  0  0  0
    1.3038   -1.6799   -1.2481 H   0  0  0  0  0  0  0  0  0  0  0  0
    3.4643    0.8002   -2.8747 H   0  0  0  0  0  0  0  0  0  0  0  0
    4.9127    0.5360   -1.9305 H   0  0  0  0  0  0  0  0  0  0  0  0
    3.9916   -1.0004   -4.3805 H   0  0  0  0  0  0  0  0  0  0  0  0
    5.2514   -1.6462   -3.2986 H   0  0  0  0  0  0  0  0  0  0  0  0
    5.4745   -0.1003   -4.1190 H   0  0  0  0  0  0  0  0  0  0  0  0
    5.1354   -1.4063   -0.5542 H   0  0  0  0  0  0  0  0  0  0  0  0
    4.5051   -4.3493    1.3427 H   0  0  0  0  0  0  0  0  0  0  0  0
    6.7548   -4.6256    0.4553 H   0  0  0  0  0  0  0  0  0  0  0  0
    6.6136   -3.1741   -0.5401 H   0  0  0  0  0  0  0  0  0  0  0  0
    5.6135   -4.5846   -0.9022 H   0  0  0  0  0  0  0  0  0  0  0  0
    4.7435   -2.1865    2.5776 H   0  0  0  0  0  0  0  0  0  0  0  0
    6.2617   -3.1011    2.5422 H   0  0  0  0  0  0  0  0  0  0  0  0
    6.0457   -1.6959    1.4877 H   0  0  0  0  0  0  0  0  0  0  0  0
    1.5257    1.0990   -1.5158 H   0  0  0  0  0  0  0  0  0  0  0  0
    1.7399    1.8742    1.3348 H   0  0  0  0  0  0  0  0  0  0  0  0
    1.9959    4.3512    0.4281 H   0  0  0  0  0  0  0  0  0  0  0  0
    2.5087    3.6206   -1.0683 H   0  0  0  0  0  0  0  0  0  0  0  0
    4.4098    4.3353    0.2525 H   0  0  0  0  0  0  0  0  0  0  0  0
    4.4614    2.6025    0.0260 H   0  0  0  0  0  0  0  0  0  0  0  0
    3.5959    2.2803    2.3916 H   0  0  0  0  0  0  0  0  0  0  0  0
    5.1285    3.1382    2.2833 H   0  0  0  0  0  0  0  0  0  0  0  0
    2.5625    4.6029    2.4468 H   0  0  0  0  0  0  0  0  0  0  0  0
    4.8835    3.1708    4.4478 H   0  0  0  0  0  0  0  0  0  0  0  0
    2.8915    5.5751    5.5523 H   0  0  0  0  0  0  0  0  0  0  0  0
    2.7941    6.2838    4.0546 H   0  0  0  0  0  0  0  0  0  0  0  0
   -0.2549    0.5469   -0.1174 H   0  0  0  0  0  0  0  0  0  0  0  0
   -4.5759    0.3990   -0.0749 H   0  0  0  0  0  0  0  0  0  0  0  0
   -3.7097   -2.1413   -1.3067 H   0  0  0  0  0  0  0  0  0  0  0  0
   -6.9819   -0.9164    0.2318 H   0  0  0  0  0  0  0  0  0  0  0  0
   -9.0188   -0.5303   -1.1248 H   0  0  0  0  0  0  0  0  0  0  0  0
   -6.8535   -1.4558   -4.7048 H   0  0  0  0  0  0  0  0  0  0  0  0
   -4.7853   -1.8298   -3.3883 H   0  0  0  0  0  0  0  0  0  0  0  0
   -5.4106   -4.1690   -0.5864 H   0  0  0  0  0  0  0  0  0  0  0  0
   -5.7186   -5.6489    1.3711 H   0  0  0  0  0  0  0  0  0  0  0  0
   -4.1511   -2.6194    3.9525 H   0  0  0  0  0  0  0  0  0  0  0  0
   -3.8335   -1.1087    2.0437 H   0  0  0  0  0  0  0  0  0  0  0  0
   -3.0972    1.9060   -2.0454 H   0  0  0  0  0  0  0  0  0  0  0  0
   -2.0362    3.1779   -1.4615 H   0  0  0  0  0  0  0  0  0  0  0  0
   -4.1390    4.0966   -0.8913 H   0  0  0  0  0  0  0  0  0  0  0  0
   -4.8405    2.5170   -0.5173 H   0  0  0  0  0  0  0  0  0  0  0  0
   -2.8013    4.0843    1.1187 H   0  0  0  0  0  0  0  0  0  0  0  0
   -4.3244    3.3827    1.6778 H   0  0  0  0  0  0  0  0  0  0  0  0
   -3.4555    1.2020    1.6939 H   0  0  0  0  0  0  0  0  0  0  0  0
   -1.9776    2.0714    2.0456 H   0  0  0  0  0  0  0  0  0  0  0  0
    2.1796   -0.4920   -0.6170 H   0  0  0  0  0  0  0  0  0  0  0  0
  1  2  1  0
  2  3  1  0
  3  4  1  0
  4  5  1  0
  3  6  1  0
  6  7  1  0
  7  8  2  0
  7  9  1  0
  9 10  1  0
  9 11  1  0
  3 12  1  0
 12 13  2  0
 12 14  1  0
 14 15  1  0
 15 16  1  0
 16 17  1  0
 17 18  1  0
 18 19  1  0
 19 20  1  0
 20 21  2  3
 20 22  1  0
 15 23  1  0
 23 24  2  0
 23 25  1  0
 25 26  1  0
 26 27  1  0
 27 28  2  0
 27 29  1  0
 29 30  1  0
 30 31  1  0
 31 32  2  0
 32 33  1  0
 33 34  2  0
 34 35  1  0
 34 36  1  0
 36 37  2  0
 30 38  1  0
 38 39  2  0
 39 40  1  0
 40 41  2  0
 41 42  1  0
 41 43  1  0
 43 44  2  0
 26 45  1  0
 45 46  1  0
 46 47  1  0
 47 48  1  0
 49 50  2  0
 50 51  1  0
 50 52  1  0
 52 53  1  0
 52 54  1  0
 52 55  1  0
 48 26  1  0
 37 31  1  0
 44 38  1  0
  1 56  1  0
  1 57  1  0
  1 58  1  0
  2 59  1  0
  2 60  1  0
  4 61  1  0
  4 62  1  0
  5 63  1  0
  5 64  1  0
  5 65  1  0
  6 66  1  0
  9 67  1  0
 10 68  1  0
 10 69  1  0
 10 70  1  0
 11 71  1  0
 11 72  1  0
 11 73  1  0
 14 74  1  0
 15 75  1  1
 16 76  1  0
 16 77  1  0
 17 78  1  0
 17 79  1  0
 18 80  1  0
 18 81  1  0
 19 82  1  0
 21 83  1  0
 22 84  1  0
 22 85  1  0
 25 86  1  0
 29 87  1  0
 30 88  1  0
 32 89  1  0
 33 90  1  0
 36 91  1  0
 37 92  1  0
 39 93  1  0
 40 94  1  0
 43 95  1  0
 44 96  1  0
 45 97  1  0
 45 98  1  0
 46 99  1  0
 46100  1  0
 47101  1  0
 47102  1  0
 48103  1  0
 48104  1  0
 51105  1  0
M  END
$$$$
