
     RDKit          3D

 32 34  0  0  0  0  0  0  0  0999 V2000
    5.8914    0.2548    0.6663 C   0  0  0  0  0  0  0  0  0  0  0  0
    5.1535   -0.8922    0.2640 O   0  0  0  0  0  0  0  0  0  0  0  0
    3.8080   -0.7242    0.0683 C   0  0  0  0  0  0  0  0  0  0  0  0
    3.1350   -1.8789   -0.3370 C   0  0  0  0  0  0  0  0  0  0  0  0
    1.7574   -1.8807   -0.5820 C   0  0  0  0  0  0  0  0  0  0  0  0
    1.0741   -0.6754   -0.4009 C   0  0  0  0  0  0  0  0  0  0  0  0
   -0.2576   -0.3749   -0.5700 N   0  0  0  0  0  0  0  0  0  0  0  0
   -0.5097    0.9440   -0.2586 C   0  0  0  0  0  0  0  0  0  0  0  0
   -1.7978    1.6116   -0.3243 C   0  0  0  0  0  0  0  0  0  0  0  0
   -1.9166    2.8334   -0.3734 O   0  0  0  0  0  0  0  0  0  0  0  0
   -3.0413    0.7984   -0.3494 C   0  0  0  0  0  0  0  0  0  0  0  0
   -4.0459    1.1350   -1.2636 C   0  0  0  0  0  0  0  0  0  0  0  0
   -5.2227    0.3869   -1.3097 C   0  0  0  0  0  0  0  0  0  0  0  0
   -5.4017   -0.6865   -0.4361 C   0  0  0  0  0  0  0  0  0  0  0  0
   -4.4112   -1.0093    0.4925 C   0  0  0  0  0  0  0  0  0  0  0  0
   -3.2316   -0.2650    0.5428 C   0  0  0  0  0  0  0  0  0  0  0  0
    0.7130    1.5037    0.0736 C   0  0  0  0  0  0  0  0  0  0  0  0
    1.7105    0.4948    0.0023 C   0  0  0  0  0  0  0  0  0  0  0  0
    3.1013    0.4720    0.2401 C   0  0  0  0  0  0  0  0  0  0  0  0
    5.8455    1.0411   -0.0944 H   0  0  0  0  0  0  0  0  0  0  0  0
    6.9389   -0.0427    0.7739 H   0  0  0  0  0  0  0  0  0  0  0  0
    5.5489    0.6234    1.6389 H   0  0  0  0  0  0  0  0  0  0  0  0
    3.6970   -2.8015   -0.4683 H   0  0  0  0  0  0  0  0  0  0  0  0
    1.2511   -2.7857   -0.9003 H   0  0  0  0  0  0  0  0  0  0  0  0
   -0.9479   -1.0386   -0.8934 H   0  0  0  0  0  0  0  0  0  0  0  0
   -3.9132    1.9796   -1.9369 H   0  0  0  0  0  0  0  0  0  0  0  0
   -6.0035    0.6463   -2.0208 H   0  0  0  0  0  0  0  0  0  0  0  0
   -6.3234   -1.2633   -0.4692 H   0  0  0  0  0  0  0  0  0  0  0  0
   -4.5665   -1.8324    1.1863 H   0  0  0  0  0  0  0  0  0  0  0  0
   -2.4829   -0.5044    1.2944 H   0  0  0  0  0  0  0  0  0  0  0  0
    0.8627    2.5412    0.3480 H   0  0  0  0  0  0  0  0  0  0  0  0
    3.5853    1.3894    0.5513 H   0  0  0  0  0  0  0  0  0  0  0  0
  1  2  1  0
  2  3  1  0
  3  4  2  0
  4  5  1  0
  5  6  2  0
  6  7  1  0
  7  8  1  0
  8  9  1  0
  9 10  2  0
  9 11  1  0
 11 12  2  0
 12 13  1  0
 13 14  2  0
 14 15  1  0
 15 16  2  0
  8 17  2  0
 17 18  1  0
 18 19  2  0
 19  3  1  0
 18  6  1  0
 16 11  1  0
  1 20  1  0
  1 21  1  0
  1 22  1  0
  4 23  1  0
  5 24  1  0
  7 25  1  0
 12 26  1  0
 13 27  1  0
 14 28  1  0
 15 29  1  0
 16 30  1  0
 17 31  1  0
 19 32  1  0
M  END
$$$$
