
     RDKit          3D

 42 44  0  0  0  0  0  0  0  0999 V2000
    5.7152    1.1821   -0.4424 C   0  0  0  0  0  0  0  0  0  0  0  0
    4.9156   -0.0438   -0.0899 C   0  0  0  0  0  0  0  0  0  0  0  0
    5.5146   -1.0145    0.7350 C   0  0  0  0  0  0  0  0  0  0  0  0
    4.8303   -2.1764    1.0817 C   0  0  0  0  0  0  0  0  0  0  0  0
    3.5491   -2.3797    0.5977 C   0  0  0  0  0  0  0  0  0  0  0  0
    2.9169   -3.5395    0.9391 O   0  0  0  0  0  0  0  0  0  0  0  0
    2.9353   -1.4319   -0.2178 C   0  0  0  0  0  0  0  0  0  0  0  0
    3.5902   -0.2337   -0.5508 C   0  0  0  0  0  0  0  0  0  0  0  0
    2.9906    0.7084   -1.4254 N   0  0  0  0  0  0  0  0  0  0  0  0
    1.6121    0.9839   -1.6131 C   0  0  0  0  0  0  0  0  0  0  0  0
    1.2596    1.7560   -2.7008 C   0  0  0  0  0  0  0  0  0  0  0  0
   -0.0791    2.0025   -2.8633 C   0  0  0  0  0  0  0  0  0  0  0  0
   -1.0209    1.5403   -2.0273 N   0  0  0  0  0  0  0  0  0  0  0  0
   -0.6077    0.7958   -0.9940 C   0  0  0  0  0  0  0  0  0  0  0  0
   -1.4943    0.2699   -0.0587 N   0  0  0  0  0  0  0  0  0  0  0  0
   -2.8843    0.2926    0.0903 C   0  0  0  0  0  0  0  0  0  0  0  0
   -3.7566    0.9073   -0.8136 C   0  0  0  0  0  0  0  0  0  0  0  0
   -5.1419    0.8917   -0.6151 C   0  0  0  0  0  0  0  0  0  0  0  0
   -5.6838    0.2640    0.5040 C   0  0  0  0  0  0  0  0  0  0  0  0
   -4.8340   -0.3440    1.4308 C   0  0  0  0  0  0  0  0  0  0  0  0
   -5.3490   -1.0307    2.6446 C   0  0  0  0  0  0  0  0  0  0  0  0
   -6.5826   -0.6604    3.1050 N   0  0  0  0  0  0  0  0  0  0  0  0
   -4.6864   -1.8717    3.2387 O   0  0  0  0  0  0  0  0  0  0  0  0
   -3.4477   -0.3348    1.2132 C   0  0  0  0  0  0  0  0  0  0  0  0
    0.6829    0.5023   -0.7694 N   0  0  0  0  0  0  0  0  0  0  0  0
    6.7305    1.1345   -0.0343 H   0  0  0  0  0  0  0  0  0  0  0  0
    5.8058    1.2781   -1.5292 H   0  0  0  0  0  0  0  0  0  0  0  0
    5.2363    2.0770   -0.0324 H   0  0  0  0  0  0  0  0  0  0  0  0
    6.5260   -0.8731    1.1097 H   0  0  0  0  0  0  0  0  0  0  0  0
    5.2985   -2.9230    1.7162 H   0  0  0  0  0  0  0  0  0  0  0  0
    2.0285   -3.5298    0.5452 H   0  0  0  0  0  0  0  0  0  0  0  0
    1.9434   -1.6293   -0.6106 H   0  0  0  0  0  0  0  0  0  0  0  0
    3.5068    1.5791   -1.4581 H   0  0  0  0  0  0  0  0  0  0  0  0
    1.9903    2.1359   -3.4012 H   0  0  0  0  0  0  0  0  0  0  0  0
   -0.4461    2.5951   -3.6957 H   0  0  0  0  0  0  0  0  0  0  0  0
   -0.9644   -0.2240    0.6456 H   0  0  0  0  0  0  0  0  0  0  0  0
   -3.3777    1.4047   -1.7017 H   0  0  0  0  0  0  0  0  0  0  0  0
   -5.7936    1.3648   -1.3457 H   0  0  0  0  0  0  0  0  0  0  0  0
   -6.7625    0.2368    0.6215 H   0  0  0  0  0  0  0  0  0  0  0  0
   -6.8476   -1.0458    4.0028 H   0  0  0  0  0  0  0  0  0  0  0  0
   -7.0168    0.2085    2.8297 H   0  0  0  0  0  0  0  0  0  0  0  0
   -2.8015   -0.8255    1.9395 H   0  0  0  0  0  0  0  0  0  0  0  0
  1  2  1  0
  2  3  2  0
  3  4  1  0
  4  5  2  0
  5  6  1  0
  5  7  1  0
  7  8  2  0
  8  9  1  0
  9 10  1  0
 10 11  2  0
 11 12  1  0
 12 13  2  0
 13 14  1  0
 14 15  1  0
 15 16  1  0
 16 17  2  0
 17 18  1  0
 18 19  2  0
 19 20  1  0
 20 21  1  0
 21 22  1  0
 21 23  2  0
 20 24  2  0
 14 25  2  0
  8  2  1  0
 25 10  1  0
 24 16  1  0
  1 26  1  0
  1 27  1  0
  1 28  1  0
  3 29  1  0
  4 30  1  0
  6 31  1  0
  7 32  1  0
  9 33  1  0
 11 34  1  0
 12 35  1  0
 15 36  1  0
 17 37  1  0
 18 38  1  0
 19 39  1  0
 22 40  1  0
 22 41  1  0
 24 42  1  0
M  END
$$$$
