
     RDKit          3D

 44 47  0  0  0  0  0  0  0  0999 V2000
   -2.6161   -1.7717    1.1672 O   0  0  0  0  0  0  0  0  0  0  0  0
   -2.1969   -1.3378    0.0991 C   0  0  0  0  0  0  0  0  0  0  0  0
   -3.0189   -0.8323   -0.8841 N   0  0  0  0  0  0  0  0  0  0  0  0
   -4.4360   -0.6436   -0.6634 C   0  0  0  0  0  0  0  0  0  0  0  0
   -4.6560    0.7689   -0.2237 C   0  0  0  0  0  0  0  0  0  0  0  0
   -4.5677    1.2863    1.0546 C   0  0  0  0  0  0  0  0  0  0  0  0
   -4.8371    2.6842    1.0941 C   0  0  0  0  0  0  0  0  0  0  0  0
   -5.1227    3.1887   -0.1546 C   0  0  0  0  0  0  0  0  0  0  0  0
   -5.0627    1.9818   -1.3643 S   0  0  0  0  0  0  0  0  0  0  0  0
   -0.7202   -1.3135   -0.2655 C   0  0  0  0  0  0  0  0  0  0  0  0
   -0.4308   -2.2582   -1.4440 C   0  0  0  0  0  0  0  0  0  0  0  0
    1.0684   -2.3527   -1.7396 C   0  0  0  0  0  0  0  0  0  0  0  0
    1.8688   -2.6785   -0.4776 C   0  0  0  0  0  0  0  0  0  0  0  0
    1.5616   -1.7062    0.5827 N   0  0  0  0  0  0  0  0  0  0  0  0
    2.2828   -0.5206    0.7106 C   0  0  0  0  0  0  0  0  0  0  0  0
    2.1265    0.3424    1.7970 C   0  0  0  0  0  0  0  0  0  0  0  0
    2.7883    1.5106    1.9932 N   0  0  0  0  0  0  0  0  0  0  0  0
    3.6946    1.8747    1.0884 C   0  0  0  0  0  0  0  0  0  0  0  0
    4.3517    3.0260    1.2720 N   0  0  0  0  0  0  0  0  0  0  0  0
    5.2711    3.3732    0.3455 C   0  0  0  0  0  0  0  0  0  0  0  0
    5.5386    2.5919   -0.7572 C   0  0  0  0  0  0  0  0  0  0  0  0
    4.8936    1.4296   -0.9763 N   0  0  0  0  0  0  0  0  0  0  0  0
    3.9738    1.0785   -0.0464 C   0  0  0  0  0  0  0  0  0  0  0  0
    3.2602   -0.1063   -0.1989 C   0  0  0  0  0  0  0  0  0  0  0  0
    0.1276   -1.7058    0.9536 C   0  0  0  0  0  0  0  0  0  0  0  0
   -2.6038   -0.3014   -1.6382 H   0  0  0  0  0  0  0  0  0  0  0  0
   -4.8052   -1.3461    0.0913 H   0  0  0  0  0  0  0  0  0  0  0  0
   -4.9472   -0.8600   -1.6071 H   0  0  0  0  0  0  0  0  0  0  0  0
   -4.3139    0.6843    1.9206 H   0  0  0  0  0  0  0  0  0  0  0  0
   -4.8202    3.2885    1.9929 H   0  0  0  0  0  0  0  0  0  0  0  0
   -5.3628    4.2101   -0.4163 H   0  0  0  0  0  0  0  0  0  0  0  0
   -0.4668   -0.2852   -0.5572 H   0  0  0  0  0  0  0  0  0  0  0  0
   -0.8196   -3.2599   -1.2182 H   0  0  0  0  0  0  0  0  0  0  0  0
   -0.9544   -1.9213   -2.3464 H   0  0  0  0  0  0  0  0  0  0  0  0
    1.4064   -1.4013   -2.1666 H   0  0  0  0  0  0  0  0  0  0  0  0
    1.2453   -3.1236   -2.4980 H   0  0  0  0  0  0  0  0  0  0  0  0
    1.5850   -3.6782   -0.1231 H   0  0  0  0  0  0  0  0  0  0  0  0
    2.9417   -2.7429   -0.6888 H   0  0  0  0  0  0  0  0  0  0  0  0
    1.4482    0.1042    2.6118 H   0  0  0  0  0  0  0  0  0  0  0  0
    5.7901    4.3086    0.5210 H   0  0  0  0  0  0  0  0  0  0  0  0
    6.2786    2.8786   -1.4953 H   0  0  0  0  0  0  0  0  0  0  0  0
    3.4917   -0.6933   -1.0813 H   0  0  0  0  0  0  0  0  0  0  0  0
   -0.1393   -2.7172    1.2899 H   0  0  0  0  0  0  0  0  0  0  0  0
   -0.0966   -1.0534    1.8033 H   0  0  0  0  0  0  0  0  0  0  0  0
  1  2  2  0
  2  3  1  0
  3  4  1  0
  4  5  1  0
  5  6  2  0
  6  7  1  0
  7  8  2  0
  8  9  1  0
  2 10  1  0
 10 11  1  0
 11 12  1  0
 12 13  1  0
 13 14  1  0
 14 15  1  0
 15 16  2  0
 16 17  1  0
 17 18  2  0
 18 19  1  0
 19 20  2  0
 20 21  1  0
 21 22  2  0
 22 23  1  0
 23 24  2  0
 14 25  1  0
  9  5  1  0
 25 10  1  0
 24 15  1  0
 23 18  1  0
  3 26  1  0
  4 27  1  0
  4 28  1  0
  6 29  1  0
  7 30  1  0
  8 31  1  0
 10 32  1  0
 11 33  1  0
 11 34  1  0
 12 35  1  0
 12 36  1  0
 13 37  1  0
 13 38  1  0
 16 39  1  0
 20 40  1  0
 21 41  1  0
 24 42  1  0
 25 43  1  0
 25 44  1  0
M  END
$$$$
