
     RDKit          3D

 40 42  0  0  0  0  0  0  0  0999 V2000
    6.8046    1.4367   -1.7225 C   0  0  0  0  0  0  0  0  0  0  0  0
    5.9953    0.7758   -0.6463 C   0  0  0  0  0  0  0  0  0  0  0  0
    6.6268    0.1733    0.4448 C   0  0  0  0  0  0  0  0  0  0  0  0
    5.8707   -0.4650    1.4263 C   0  0  0  0  0  0  0  0  0  0  0  0
    4.4780   -0.5189    1.3220 C   0  0  0  0  0  0  0  0  0  0  0  0
    3.8292    0.0581    0.2306 C   0  0  0  0  0  0  0  0  0  0  0  0
    2.4297    0.0504    0.0490 N   0  0  0  0  0  0  0  0  0  0  0  0
    1.4803   -0.6174    0.8117 C   0  0  0  0  0  0  0  0  0  0  0  0
    1.7185   -1.3667    1.7482 O   0  0  0  0  0  0  0  0  0  0  0  0
    0.2026   -0.2862    0.3845 N   0  0  0  0  0  0  0  0  0  0  0  0
   -1.0006   -0.8695    0.7456 C   0  0  0  0  0  0  0  0  0  0  0  0
   -1.0972   -1.9353    1.4716 N   0  0  0  0  0  0  0  0  0  0  0  0
   -2.3628   -2.3735    1.7324 C   0  0  0  0  0  0  0  0  0  0  0  0
   -3.4834   -1.7951    1.2859 C   0  0  0  0  0  0  0  0  0  0  0  0
   -3.4633   -0.6547    0.4904 N   0  0  0  0  0  0  0  0  0  0  0  0
   -4.6780   -0.0428    0.0018 C   0  0  0  0  0  0  0  0  0  0  0  0
   -5.8653   -0.7886   -0.1214 C   0  0  0  0  0  0  0  0  0  0  0  0
   -7.0515   -0.2060   -0.5844 C   0  0  0  0  0  0  0  0  0  0  0  0
   -7.0791    1.1387   -0.9328 C   0  0  0  0  0  0  0  0  0  0  0  0
   -5.9210    1.8983   -0.8193 C   0  0  0  0  0  0  0  0  0  0  0  0
   -4.7351    1.3131   -0.3577 C   0  0  0  0  0  0  0  0  0  0  0  0
   -2.2029   -0.1206    0.1622 C   0  0  0  0  0  0  0  0  0  0  0  0
   -1.9276    0.8413   -0.5534 O   0  0  0  0  0  0  0  0  0  0  0  0
    4.5977    0.7035   -0.7500 C   0  0  0  0  0  0  0  0  0  0  0  0
    6.2521    2.2696   -2.1700 H   0  0  0  0  0  0  0  0  0  0  0  0
    7.7356    1.8463   -1.3166 H   0  0  0  0  0  0  0  0  0  0  0  0
    7.0489    0.7119   -2.5052 H   0  0  0  0  0  0  0  0  0  0  0  0
    7.7100    0.1978    0.5396 H   0  0  0  0  0  0  0  0  0  0  0  0
    6.3633   -0.9269    2.2783 H   0  0  0  0  0  0  0  0  0  0  0  0
    3.9303   -1.0211    2.1133 H   0  0  0  0  0  0  0  0  0  0  0  0
    2.0971    0.4828   -0.7992 H   0  0  0  0  0  0  0  0  0  0  0  0
    0.1007    0.5409   -0.1887 H   0  0  0  0  0  0  0  0  0  0  0  0
   -2.4253   -3.2551    2.3669 H   0  0  0  0  0  0  0  0  0  0  0  0
   -4.4412   -2.2043    1.5845 H   0  0  0  0  0  0  0  0  0  0  0  0
   -5.8942   -1.8520    0.0964 H   0  0  0  0  0  0  0  0  0  0  0  0
   -7.9507   -0.8098   -0.6800 H   0  0  0  0  0  0  0  0  0  0  0  0
   -7.9983    1.5932   -1.2928 H   0  0  0  0  0  0  0  0  0  0  0  0
   -5.9339    2.9529   -1.0840 H   0  0  0  0  0  0  0  0  0  0  0  0
   -3.8737    1.9669   -0.2580 H   0  0  0  0  0  0  0  0  0  0  0  0
    4.1137    1.1581   -1.6111 H   0  0  0  0  0  0  0  0  0  0  0  0
  1  2  1  0
  2  3  2  0
  3  4  1  0
  4  5  2  0
  5  6  1  0
  6  7  1  0
  7  8  1  0
  8  9  2  0
  8 10  1  0
 10 11  1  0
 11 12  2  0
 12 13  1  0
 13 14  2  0
 14 15  1  0
 15 16  1  0
 16 17  2  0
 17 18  1  0
 18 19  2  0
 19 20  1  0
 20 21  2  0
 15 22  1  0
 22 23  2  0
  6 24  2  0
 24  2  1  0
 22 11  1  0
 21 16  1  0
  1 25  1  0
  1 26  1  0
  1 27  1  0
  3 28  1  0
  4 29  1  0
  5 30  1  0
  7 31  1  0
 10 32  1  0
 13 33  1  0
 14 34  1  0
 17 35  1  0
 18 36  1  0
 19 37  1  0
 20 38  1  0
 21 39  1  0
 24 40  1  0
M  END
$$$$
