
     RDKit          3D

 45 48  0  0  0  0  0  0  0  0999 V2000
    1.5595    1.4675   -1.7761 C   0  0  0  0  0  0  0  0  0  0  0  0
    2.4561    1.1697   -0.6674 N   0  0  0  0  0  0  0  0  0  0  0  0
    2.1105    1.3912    0.6545 C   0  0  0  0  0  0  0  0  0  0  0  0
    0.5301    2.0718    1.0058 S   0  0  0  0  0  0  0  0  0  0  0  0
   -0.1609    0.6509    1.9035 C   0  0  0  0  0  0  0  0  0  0  0  0
   -0.3766   -0.5148    0.9472 C   0  0  0  0  0  0  0  0  0  0  0  0
    0.5328   -1.3305    0.7689 O   0  0  0  0  0  0  0  0  0  0  0  0
   -1.5982   -0.6241    0.2849 N   0  0  0  0  0  0  0  0  0  0  0  0
   -1.7392   -1.6914   -0.7045 C   0  0  0  0  0  0  0  0  0  0  0  0
   -3.1526   -2.2656   -0.7083 C   0  0  0  0  0  0  0  0  0  0  0  0
   -4.1862   -1.1789   -0.8376 C   0  0  0  0  0  0  0  0  0  0  0  0
   -5.4609   -1.4777   -1.3375 C   0  0  0  0  0  0  0  0  0  0  0  0
   -6.4307   -0.4810   -1.4369 C   0  0  0  0  0  0  0  0  0  0  0  0
   -6.1386    0.8176   -1.0292 C   0  0  0  0  0  0  0  0  0  0  0  0
   -4.8771    1.1200   -0.5158 C   0  0  0  0  0  0  0  0  0  0  0  0
   -3.8915    0.1262   -0.4078 C   0  0  0  0  0  0  0  0  0  0  0  0
   -2.5359    0.4934    0.1515 C   0  0  0  0  0  0  0  0  0  0  0  0
    2.8725    1.1523    1.6698 N   0  0  0  0  0  0  0  0  0  0  0  0
    4.1346    0.6018    1.4310 C   0  0  0  0  0  0  0  0  0  0  0  0
    4.9658    0.3218    2.5186 C   0  0  0  0  0  0  0  0  0  0  0  0
    6.2350   -0.2297    2.3219 C   0  0  0  0  0  0  0  0  0  0  0  0
    6.6841   -0.5060    1.0311 C   0  0  0  0  0  0  0  0  0  0  0  0
    5.8630   -0.2311   -0.0619 C   0  0  0  0  0  0  0  0  0  0  0  0
    4.5929    0.3210    0.1471 C   0  0  0  0  0  0  0  0  0  0  0  0
    3.7003    0.6314   -0.9837 C   0  0  0  0  0  0  0  0  0  0  0  0
    4.0920    0.4145   -2.1287 O   0  0  0  0  0  0  0  0  0  0  0  0
    0.6409    0.8836   -1.6650 H   0  0  0  0  0  0  0  0  0  0  0  0
    1.9997    1.2304   -2.7478 H   0  0  0  0  0  0  0  0  0  0  0  0
    1.3105    2.5331   -1.7622 H   0  0  0  0  0  0  0  0  0  0  0  0
    0.5192    0.3282    2.6992 H   0  0  0  0  0  0  0  0  0  0  0  0
   -1.0878    0.9354    2.4046 H   0  0  0  0  0  0  0  0  0  0  0  0
   -1.0287   -2.5025   -0.5119 H   0  0  0  0  0  0  0  0  0  0  0  0
   -1.4856   -1.2629   -1.6828 H   0  0  0  0  0  0  0  0  0  0  0  0
   -3.3377   -2.8044    0.2291 H   0  0  0  0  0  0  0  0  0  0  0  0
   -3.2451   -2.9803   -1.5342 H   0  0  0  0  0  0  0  0  0  0  0  0
   -5.7039   -2.4898   -1.6531 H   0  0  0  0  0  0  0  0  0  0  0  0
   -7.4156   -0.7189   -1.8305 H   0  0  0  0  0  0  0  0  0  0  0  0
   -6.8953    1.5941   -1.1068 H   0  0  0  0  0  0  0  0  0  0  0  0
   -4.6672    2.1391   -0.1973 H   0  0  0  0  0  0  0  0  0  0  0  0
   -2.6837    0.9611    1.1278 H   0  0  0  0  0  0  0  0  0  0  0  0
   -2.0691    1.2239   -0.5199 H   0  0  0  0  0  0  0  0  0  0  0  0
    4.6176    0.5347    3.5263 H   0  0  0  0  0  0  0  0  0  0  0  0
    6.8707   -0.4437    3.1777 H   0  0  0  0  0  0  0  0  0  0  0  0
    7.6708   -0.9357    0.8765 H   0  0  0  0  0  0  0  0  0  0  0  0
    6.2096   -0.4457   -1.0702 H   0  0  0  0  0  0  0  0  0  0  0  0
  1  2  1  0
  2  3  1  0
  3  4  1  0
  4  5  1  0
  5  6  1  0
  6  7  2  0
  6  8  1  0
  8  9  1  0
  9 10  1  0
 10 11  1  0
 11 12  2  0
 12 13  1  0
 13 14  2  0
 14 15  1  0
 15 16  2  0
 16 17  1  0
  3 18  2  0
 18 19  1  0
 19 20  2  0
 20 21  1  0
 21 22  2  0
 22 23  1  0
 23 24  2  0
 24 25  1  0
 25 26  2  0
 25  2  1  0
 17  8  1  0
 24 19  1  0
 16 11  1  0
  1 27  1  0
  1 28  1  0
  1 29  1  0
  5 30  1  0
  5 31  1  0
  9 32  1  0
  9 33  1  0
 10 34  1  0
 10 35  1  0
 12 36  1  0
 13 37  1  0
 14 38  1  0
 15 39  1  0
 17 40  1  0
 17 41  1  0
 20 42  1  0
 21 43  1  0
 22 44  1  0
 23 45  1  0
M  END
$$$$
