
     RDKit          3D

 55 58  0  0  0  0  0  0  0  0999 V2000
    2.1814   -1.6764   -0.2743 C   0  0  0  0  0  0  0  0  0  0  0  0
    1.8442   -0.2504    0.2579 C   0  0  2  0  0  0  0  0  0  0  0  0
    1.0242   -0.4215    1.5521 C   0  0  0  0  0  0  0  0  0  0  0  0
   -0.3011    0.3627    1.6174 C   0  0  2  0  0  0  0  0  0  0  0  0
   -1.0198   -0.0798    2.7579 O   0  0  0  0  0  0  0  0  0  0  0  0
   -1.1789    0.4007    0.3115 C   0  0  1  0  0  0  0  0  0  0  0  0
   -0.3351    0.0675   -0.9628 C   0  0  1  0  0  0  0  0  0  0  0  0
   -1.0499    0.5790   -2.2088 C   0  0  0  0  0  0  0  0  0  0  0  0
   -2.3920   -0.1352   -2.3428 C   0  0  0  0  0  0  0  0  0  0  0  0
   -3.2531    0.0071   -1.1050 C   0  0  0  0  0  0  0  0  0  0  0  0
   -4.5352    0.3846   -1.2627 C   0  0  0  0  0  0  0  0  0  0  0  0
   -5.4767    0.4719   -0.1273 C   0  0  0  0  0  0  0  0  0  0  0  0
   -6.6289    0.8497   -0.3253 O   0  0  0  0  0  0  0  0  0  0  0  0
   -4.9986    0.0099    1.2182 C   0  0  0  0  0  0  0  0  0  0  0  0
   -3.5143    0.3031    1.3928 C   0  0  0  0  0  0  0  0  0  0  0  0
   -2.6018   -0.2862    0.2719 C   0  0  2  0  0  0  0  0  0  0  0  0
   -2.4887   -1.8134    0.4551 C   0  0  0  0  0  0  0  0  0  0  0  0
    1.0627    0.6268   -0.7509 C   0  0  2  0  0  0  0  0  0  0  0  0
    2.0473    0.8188   -1.8919 C   0  0  0  0  0  0  0  0  0  0  0  0
    3.3954    0.9720   -1.1546 C   0  0  0  0  0  0  0  0  0  0  0  0
    3.1297    0.6128    0.3337 C   0  0  2  0  0  0  0  0  0  0  0  0
    4.3270    0.0015    1.0548 C   0  0  0  0  0  0  0  0  0  0  0  0
    4.2041   -0.8758    1.9139 O   0  0  0  0  0  0  0  0  0  0  0  0
    5.7056    0.5852    0.7585 C   0  0  0  0  0  0  0  0  0  0  0  0
    6.6603    0.1851    1.7306 O   0  0  0  0  0  0  0  0  0  0  0  0
    2.7973   -1.6667   -1.1779 H   0  0  0  0  0  0  0  0  0  0  0  0
    1.2814   -2.2552   -0.5019 H   0  0  0  0  0  0  0  0  0  0  0  0
    2.7302   -2.2570    0.4748 H   0  0  0  0  0  0  0  0  0  0  0  0
    0.7791   -1.4811    1.7109 H   0  0  0  0  0  0  0  0  0  0  0  0
    1.6348   -0.1563    2.4248 H   0  0  0  0  0  0  0  0  0  0  0  0
   -0.0295    1.4057    1.8329 H   0  0  0  0  0  0  0  0  0  0  0  0
   -0.4219   -0.0450    3.5254 H   0  0  0  0  0  0  0  0  0  0  0  0
   -1.4118    1.4765    0.2170 H   0  0  0  0  0  0  0  0  0  0  0  0
   -0.2658   -1.0174   -1.0726 H   0  0  0  0  0  0  0  0  0  0  0  0
   -0.4514    0.3774   -3.1045 H   0  0  0  0  0  0  0  0  0  0  0  0
   -1.1966    1.6648   -2.1559 H   0  0  0  0  0  0  0  0  0  0  0  0
   -2.2226   -1.2032   -2.5297 H   0  0  0  0  0  0  0  0  0  0  0  0
   -2.9041    0.2533   -3.2318 H   0  0  0  0  0  0  0  0  0  0  0  0
   -4.9689    0.6037   -2.2326 H   0  0  0  0  0  0  0  0  0  0  0  0
   -5.2160   -1.0579    1.3205 H   0  0  0  0  0  0  0  0  0  0  0  0
   -5.5623    0.5470    1.9893 H   0  0  0  0  0  0  0  0  0  0  0  0
   -3.2398   -0.0852    2.3768 H   0  0  0  0  0  0  0  0  0  0  0  0
   -3.3810    1.3930    1.4342 H   0  0  0  0  0  0  0  0  0  0  0  0
   -1.8617   -2.2812   -0.3099 H   0  0  0  0  0  0  0  0  0  0  0  0
   -2.0600   -2.0701    1.4290 H   0  0  0  0  0  0  0  0  0  0  0  0
   -3.4688   -2.2994    0.3930 H   0  0  0  0  0  0  0  0  0  0  0  0
    0.9317    1.6387   -0.3308 H   0  0  0  0  0  0  0  0  0  0  0  0
    1.8175    1.7070   -2.4893 H   0  0  0  0  0  0  0  0  0  0  0  0
    2.0660   -0.0407   -2.5700 H   0  0  0  0  0  0  0  0  0  0  0  0
    4.1467    0.3224   -1.6164 H   0  0  0  0  0  0  0  0  0  0  0  0
    3.7633    2.0014   -1.2327 H   0  0  0  0  0  0  0  0  0  0  0  0
    2.9082    1.5421    0.8789 H   0  0  0  0  0  0  0  0  0  0  0  0
    5.6498    1.6767    0.7685 H   0  0  0  0  0  0  0  0  0  0  0  0
    6.0444    0.2351   -0.2192 H   0  0  0  0  0  0  0  0  0  0  0  0
    6.3040   -0.6277    2.1448 H   0  0  0  0  0  0  0  0  0  0  0  0
  2  1  1  6
  2  3  1  0
  3  4  1  0
  4  5  1  0
  4  6  1  0
  6  7  1  0
  7  8  1  0
  8  9  1  0
  9 10  1  0
 10 11  2  0
 11 12  1  0
 12 13  2  0
 12 14  1  0
 14 15  1  0
 15 16  1  0
 16 17  1  1
  7 18  1  0
 18 19  1  0
 19 20  1  0
 20 21  1  0
 21 22  1  0
 22 23  2  0
 22 24  1  0
 24 25  1  0
 18  2  1  0
 21  2  1  0
 16  6  1  0
 16 10  1  0
  1 26  1  0
  1 27  1  0
  1 28  1  0
  3 29  1  0
  3 30  1  0
  4 31  1  1
  5 32  1  0
  6 33  1  6
  7 34  1  6
  8 35  1  0
  8 36  1  0
  9 37  1  0
  9 38  1  0
 11 39  1  0
 14 40  1  0
 14 41  1  0
 15 42  1  0
 15 43  1  0
 17 44  1  0
 17 45  1  0
 17 46  1  0
 18 47  1  1
 19 48  1  0
 19 49  1  0
 20 50  1  0
 20 51  1  0
 21 52  1  1
 24 53  1  0
 24 54  1  0
 25 55  1  0
M  END
$$$$
