
     RDKit          3D

 19 19  0  0  0  0  0  0  0  0999 V2000
   -3.4437    0.4970    0.2133 N   0  0  0  0  0  0  0  0  0  0  0  0
   -2.0567    0.3057    0.1156 C   0  0  0  0  0  0  0  0  0  0  0  0
   -1.3083    1.0629   -0.7907 C   0  0  0  0  0  0  0  0  0  0  0  0
    0.0511    0.7975   -0.9876 C   0  0  0  0  0  0  0  0  0  0  0  0
    0.6591   -0.2539   -0.2943 C   0  0  0  0  0  0  0  0  0  0  0  0
    2.3669   -0.6163   -0.5640 S   0  0  0  0  0  6  0  0  0  0  0  0
    3.0966    0.2109    0.7011 N   0  0  0  0  0  0  0  0  0  0  0  0
    2.5985   -2.0187   -0.3116 O   0  0  0  0  0  0  0  0  0  0  0  0
    2.8084    0.0394   -1.7723 O   0  0  0  0  0  0  0  0  0  0  0  0
   -0.0833   -1.0610    0.5667 C   0  0  0  0  0  0  0  0  0  0  0  0
   -1.4326   -0.7805    0.7496 C   0  0  0  0  0  0  0  0  0  0  0  0
   -2.1486   -1.5624    1.5733 F   0  0  0  0  0  0  0  0  0  0  0  0
   -3.7503    1.4524    0.0645 H   0  0  0  0  0  0  0  0  0  0  0  0
   -3.8400    0.0773    1.0523 H   0  0  0  0  0  0  0  0  0  0  0  0
   -1.7807    1.8614   -1.3578 H   0  0  0  0  0  0  0  0  0  0  0  0
    0.6192    1.4030   -1.6910 H   0  0  0  0  0  0  0  0  0  0  0  0
    3.5724   -0.4495    1.3170 H   0  0  0  0  0  0  0  0  0  0  0  0
    3.7090    0.9383    0.3302 H   0  0  0  0  0  0  0  0  0  0  0  0
    0.3631   -1.9034    1.0858 H   0  0  0  0  0  0  0  0  0  0  0  0
  1  2  1  0
  2  3  2  0
  3  4  1  0
  4  5  2  0
  5  6  1  0
  6  7  1  0
  6  8  2  0
  6  9  2  0
  5 10  1  0
 10 11  2  0
 11 12  1  0
 11  2  1  0
  1 13  1  0
  1 14  1  0
  3 15  1  0
  4 16  1  0
  7 17  1  0
  7 18  1  0
 10 19  1  0
M  END
$$$$
