
     RDKit          3D

 22 21  0  0  0  0  0  0  0  0999 V2000
   -3.3999    0.6094    0.4740 N   0  0  0  0  0  0  0  0  0  0  0  0
   -2.8616   -0.5141   -0.2827 C   0  0  0  0  0  0  0  0  0  0  0  0
   -1.4531   -0.2367   -0.8121 C   0  0  0  0  0  0  0  0  0  0  0  0
   -0.4032   -0.0837    0.2926 C   0  0  0  0  0  0  0  0  0  0  0  0
    0.9981    0.0893   -0.2961 C   0  0  0  0  0  0  0  0  0  0  0  0
    2.0454    0.2427    0.8004 C   0  0  0  0  0  0  0  0  0  0  0  0
    3.4121    0.4384    0.2116 C   0  0  0  0  0  0  0  0  0  0  0  0
    4.0177    1.4932    0.1262 O   0  0  0  0  0  0  0  0  0  0  0  0
    3.9495   -0.7052   -0.2525 O   0  0  0  0  0  0  0  0  0  0  0  0
   -2.8573    0.7481    1.3249 H   0  0  0  0  0  0  0  0  0  0  0  0
   -4.3470    0.3872    0.7787 H   0  0  0  0  0  0  0  0  0  0  0  0
   -2.8603   -1.4125    0.3444 H   0  0  0  0  0  0  0  0  0  0  0  0
   -3.5255   -0.7107   -1.1316 H   0  0  0  0  0  0  0  0  0  0  0  0
   -1.1650   -1.0686   -1.4670 H   0  0  0  0  0  0  0  0  0  0  0  0
   -1.4641    0.6647   -1.4378 H   0  0  0  0  0  0  0  0  0  0  0  0
   -0.6386    0.7843    0.9190 H   0  0  0  0  0  0  0  0  0  0  0  0
   -0.4215   -0.9680    0.9411 H   0  0  0  0  0  0  0  0  0  0  0  0
    1.2439   -0.7751   -0.9255 H   0  0  0  0  0  0  0  0  0  0  0  0
    1.0198    0.9690   -0.9516 H   0  0  0  0  0  0  0  0  0  0  0  0
    1.8220    1.1101    1.4323 H   0  0  0  0  0  0  0  0  0  0  0  0
    2.0678   -0.6316    1.4608 H   0  0  0  0  0  0  0  0  0  0  0  0
    4.8207   -0.4300   -0.6079 H   0  0  0  0  0  0  0  0  0  0  0  0
  1  2  1  0
  2  3  1  0
  3  4  1  0
  4  5  1  0
  5  6  1  0
  6  7  1  0
  7  8  2  0
  7  9  1  0
  1 10  1  0
  1 11  1  0
  2 12  1  0
  2 13  1  0
  3 14  1  0
  3 15  1  0
  4 16  1  0
  4 17  1  0
  5 18  1  0
  5 19  1  0
  6 20  1  0
  6 21  1  0
  9 22  1  0
M  END
$$$$
