
     RDKit          3D

 51 54  0  0  0  0  0  0  0  0999 V2000
   -3.0315   -1.5615    2.9847 C   0  0  0  0  0  0  0  0  0  0  0  0
   -3.1219   -1.0903    1.8829 C   0  0  0  0  0  0  0  0  0  0  0  0
   -3.2533   -0.5136    0.5233 C   0  0  2  0  0  0  0  0  0  0  0  0
   -4.4113    0.3023    0.5118 O   0  0  0  0  0  0  0  0  0  0  0  0
   -3.4268   -1.6609   -0.5017 C   0  0  0  0  0  0  0  0  0  0  0  0
   -2.0323   -1.9393   -1.0873 C   0  0  0  0  0  0  0  0  0  0  0  0
   -1.0876   -0.9987   -0.3337 C   0  0  0  0  0  0  0  0  0  0  0  0
    0.2417   -0.6503   -1.0283 C   0  0  0  0  0  0  0  0  0  0  0  0
    1.1805   -1.8776   -1.0775 C   0  0  0  0  0  0  0  0  0  0  0  0
    2.0869   -1.9713    0.1475 C   0  0  0  0  0  0  0  0  0  0  0  0
    2.9717   -0.7554    0.2495 C   0  0  0  0  0  0  0  0  0  0  0  0
    4.1727   -0.8245    0.8487 C   0  0  0  0  0  0  0  0  0  0  0  0
    5.0910    0.3416    0.8645 C   0  0  0  0  0  0  0  0  0  0  0  0
    6.1837    0.2407    1.4174 O   0  0  0  0  0  0  0  0  0  0  0  0
    4.6731    1.5927    0.1272 C   0  0  0  0  0  0  0  0  0  0  0  0
    3.1589    1.7563    0.1609 C   0  0  0  0  0  0  0  0  0  0  0  0
    2.4556    0.5115   -0.4062 C   0  0  2  0  0  0  0  0  0  0  0  0
    0.9043    0.6100   -0.3696 C   0  0  0  0  0  0  0  0  0  0  0  0
    0.3211    0.9034    1.0322 C   0  0  0  0  0  0  0  0  0  0  0  0
   -1.2096    1.0862    1.0616 C   0  0  0  0  0  0  0  0  0  0  0  0
   -1.9680    0.2355    0.0133 C   0  0  2  0  0  0  0  0  0  0  0  0
   -2.2942    1.0910   -1.2750 C   0  0  0  0  0  0  0  0  0  0  0  0
   -2.9390    2.4614   -1.0722 C   0  0  0  0  0  0  0  0  0  0  0  0
   -2.9566   -1.9828    3.9608 H   0  0  0  0  0  0  0  0  0  0  0  0
   -4.3435    0.8978    1.2774 H   0  0  0  0  0  0  0  0  0  0  0  0
   -3.8432   -2.5686   -0.0479 H   0  0  0  0  0  0  0  0  0  0  0  0
   -4.1186   -1.3791   -1.3051 H   0  0  0  0  0  0  0  0  0  0  0  0
   -2.0288   -1.7375   -2.1643 H   0  0  0  0  0  0  0  0  0  0  0  0
   -1.7514   -2.9884   -0.9485 H   0  0  0  0  0  0  0  0  0  0  0  0
   -0.8281   -1.5141    0.6039 H   0  0  0  0  0  0  0  0  0  0  0  0
    0.0281   -0.4020   -2.0768 H   0  0  0  0  0  0  0  0  0  0  0  0
    0.6095   -2.8062   -1.1855 H   0  0  0  0  0  0  0  0  0  0  0  0
    1.8059   -1.8077   -1.9783 H   0  0  0  0  0  0  0  0  0  0  0  0
    2.6949   -2.8808    0.0709 H   0  0  0  0  0  0  0  0  0  0  0  0
    1.4810   -2.0620    1.0560 H   0  0  0  0  0  0  0  0  0  0  0  0
    4.5499   -1.7288    1.3129 H   0  0  0  0  0  0  0  0  0  0  0  0
    5.1417    2.4564    0.6109 H   0  0  0  0  0  0  0  0  0  0  0  0
    5.0410    1.5279   -0.9024 H   0  0  0  0  0  0  0  0  0  0  0  0
    2.8633    1.9304    1.2019 H   0  0  0  0  0  0  0  0  0  0  0  0
    2.8702    2.6452   -0.4118 H   0  0  0  0  0  0  0  0  0  0  0  0
    2.7364    0.4455   -1.4687 H   0  0  0  0  0  0  0  0  0  0  0  0
    0.6421    1.4771   -0.9919 H   0  0  0  0  0  0  0  0  0  0  0  0
    0.7599    1.8141    1.4526 H   0  0  0  0  0  0  0  0  0  0  0  0
    0.5901    0.0939    1.7215 H   0  0  0  0  0  0  0  0  0  0  0  0
   -1.4282    2.1504    0.9447 H   0  0  0  0  0  0  0  0  0  0  0  0
   -1.5412    0.8658    2.0815 H   0  0  0  0  0  0  0  0  0  0  0  0
   -1.3863    1.2688   -1.8578 H   0  0  0  0  0  0  0  0  0  0  0  0
   -2.9500    0.5222   -1.9441 H   0  0  0  0  0  0  0  0  0  0  0  0
   -3.7825    2.4419   -0.3813 H   0  0  0  0  0  0  0  0  0  0  0  0
   -2.2126    3.1957   -0.7120 H   0  0  0  0  0  0  0  0  0  0  0  0
   -3.3089    2.8359   -2.0333 H   0  0  0  0  0  0  0  0  0  0  0  0
  1  2  3  0
  3  2  1  1
  3  4  1  0
  3  5  1  0
  5  6  1  0
  6  7  1  0
  7  8  1  0
  8  9  1  0
  9 10  1  0
 10 11  1  0
 11 12  2  0
 12 13  1  0
 13 14  2  0
 13 15  1  0
 15 16  1  0
 16 17  1  0
 17 18  1  0
 18 19  1  0
 19 20  1  0
 20 21  1  0
 21 22  1  6
 22 23  1  0
 21  3  1  0
 21  7  1  0
 18  8  1  0
 17 11  1  0
  1 24  1  0
  4 25  1  0
  5 26  1  0
  5 27  1  0
  6 28  1  0
  6 29  1  0
  7 30  1  0
  8 31  1  0
  9 32  1  0
  9 33  1  0
 10 34  1  0
 10 35  1  0
 12 36  1  0
 15 37  1  0
 15 38  1  0
 16 39  1  0
 16 40  1  0
 17 41  1  6
 18 42  1  0
 19 43  1  0
 19 44  1  0
 20 45  1  0
 20 46  1  0
 22 47  1  0
 22 48  1  0
 23 49  1  0
 23 50  1  0
 23 51  1  0
M  END
$$$$
