
     RDKit          3D

 44 47  0  0  0  0  0  0  0  0999 V2000
   -3.3416   -5.2296   -0.2608 C   0  0  0  0  0  0  0  0  0  0  0  0
   -3.8078   -4.0560    0.3924 O   0  0  0  0  0  0  0  0  0  0  0  0
   -3.0591   -2.9226    0.2340 C   0  0  0  0  0  0  0  0  0  0  0  0
   -1.8856   -2.8108   -0.5111 C   0  0  0  0  0  0  0  0  0  0  0  0
   -1.2132   -1.5836   -0.5889 C   0  0  0  0  0  0  0  0  0  0  0  0
   -1.6981   -0.4564    0.0852 C   0  0  0  0  0  0  0  0  0  0  0  0
   -1.0234    0.8306    0.0242 C   0  0  0  0  0  0  0  0  0  0  0  0
   -1.7304    2.0156   -0.0223 N   0  0  0  0  0  0  0  0  0  0  0  0
   -0.8300    2.9729   -0.0750 C   0  0  0  0  0  0  0  0  0  0  0  0
   -1.1269    4.3743   -0.1379 C   0  0  0  0  0  0  0  0  0  0  0  0
   -2.3864    4.9424   -0.1620 C   0  0  0  0  0  0  0  0  0  0  0  0
   -2.3472    6.3656   -0.2261 C   0  0  0  0  0  0  0  0  0  0  0  0
   -1.0560    6.8419   -0.2493 C   0  0  0  0  0  0  0  0  0  0  0  0
    0.0943    5.5775   -0.1947 S   0  0  0  0  0  0  0  0  0  0  0  0
    0.4328    2.4443   -0.0536 N   0  0  0  0  0  0  0  0  0  0  0  0
    0.3442    1.0720    0.0245 C   0  0  0  0  0  0  0  0  0  0  0  0
    1.5256    0.2266    0.1426 C   0  0  0  0  0  0  0  0  0  0  0  0
    2.5723    0.3326   -0.7813 C   0  0  0  0  0  0  0  0  0  0  0  0
    3.7114   -0.4746   -0.6678 C   0  0  0  0  0  0  0  0  0  0  0  0
    3.8171   -1.3956    0.3740 C   0  0  0  0  0  0  0  0  0  0  0  0
    4.8683   -2.2403    0.5988 O   0  0  0  0  0  0  0  0  0  0  0  0
    5.9540   -2.1757   -0.3170 C   0  0  0  0  0  0  0  0  0  0  0  0
    2.7754   -1.5010    1.2977 C   0  0  0  0  0  0  0  0  0  0  0  0
    1.6378   -0.6970    1.1859 C   0  0  0  0  0  0  0  0  0  0  0  0
   -2.8857   -0.5724    0.8163 C   0  0  0  0  0  0  0  0  0  0  0  0
   -3.5562   -1.7967    0.8928 C   0  0  0  0  0  0  0  0  0  0  0  0
   -4.0423   -6.0390   -0.0341 H   0  0  0  0  0  0  0  0  0  0  0  0
   -2.3571   -5.5267    0.1156 H   0  0  0  0  0  0  0  0  0  0  0  0
   -3.3266   -5.0972   -1.3477 H   0  0  0  0  0  0  0  0  0  0  0  0
   -1.4656   -3.6539   -1.0489 H   0  0  0  0  0  0  0  0  0  0  0  0
   -0.3116   -1.5217   -1.1932 H   0  0  0  0  0  0  0  0  0  0  0  0
   -3.2963    4.3528   -0.1347 H   0  0  0  0  0  0  0  0  0  0  0  0
   -3.2221    7.0036   -0.2536 H   0  0  0  0  0  0  0  0  0  0  0  0
   -0.7315    7.8725   -0.2959 H   0  0  0  0  0  0  0  0  0  0  0  0
    1.2845    2.9857   -0.0497 H   0  0  0  0  0  0  0  0  0  0  0  0
    2.5059    1.0315   -1.6122 H   0  0  0  0  0  0  0  0  0  0  0  0
    4.4927   -0.3609   -1.4117 H   0  0  0  0  0  0  0  0  0  0  0  0
    5.6335   -2.4450   -1.3289 H   0  0  0  0  0  0  0  0  0  0  0  0
    6.7033   -2.9072    0.0005 H   0  0  0  0  0  0  0  0  0  0  0  0
    6.4257   -1.1875   -0.3010 H   0  0  0  0  0  0  0  0  0  0  0  0
    2.8483   -2.2162    2.1137 H   0  0  0  0  0  0  0  0  0  0  0  0
    0.8436   -0.7992    1.9226 H   0  0  0  0  0  0  0  0  0  0  0  0
   -3.2950    0.2940    1.3321 H   0  0  0  0  0  0  0  0  0  0  0  0
   -4.4751   -1.8697    1.4689 H   0  0  0  0  0  0  0  0  0  0  0  0
  1  2  1  0
  2  3  1  0
  3  4  2  0
  4  5  1  0
  5  6  2  0
  6  7  1  0
  7  8  1  0
  8  9  2  0
  9 10  1  0
 10 11  2  0
 11 12  1  0
 12 13  2  0
 13 14  1  0
  9 15  1  0
 15 16  1  0
 16 17  1  0
 17 18  2  0
 18 19  1  0
 19 20  2  0
 20 21  1  0
 21 22  1  0
 20 23  1  0
 23 24  2  0
  6 25  1  0
 25 26  2  0
 26  3  1  0
 16  7  2  0
 24 17  1  0
 14 10  1  0
  1 27  1  0
  1 28  1  0
  1 29  1  0
  4 30  1  0
  5 31  1  0
 11 32  1  0
 12 33  1  0
 13 34  1  0
 15 35  1  0
 18 36  1  0
 19 37  1  0
 22 38  1  0
 22 39  1  0
 22 40  1  0
 23 41  1  0
 24 42  1  0
 25 43  1  0
 26 44  1  0
M  END
$$$$
