
     RDKit          3D

 38 40  0  0  0  0  0  0  0  0999 V2000
   -2.6994   -2.5743    2.0650 N   0  0  0  0  0  0  0  0  0  0  0  0
   -1.4751   -1.7758    1.8652 C   0  0  0  0  0  0  0  0  0  0  0  0
   -1.2254   -1.3243    0.3768 C   0  0  1  0  0  0  0  0  0  0  0  0
   -1.2193   -2.5583   -0.3845 O   0  0  0  0  0  0  0  0  0  0  0  0
   -2.3702   -0.4190   -0.1089 C   0  0  0  0  0  0  0  0  0  0  0  0
   -2.5402    0.8689    0.4364 C   0  0  0  0  0  0  0  0  0  0  0  0
   -3.5722    1.7049    0.0006 C   0  0  0  0  0  0  0  0  0  0  0  0
   -4.4499    1.2644   -0.9853 C   0  0  0  0  0  0  0  0  0  0  0  0
   -5.7197    2.2938   -1.5227 Cl  0  0  0  0  0  0  0  0  0  0  0  0
   -4.3051   -0.0038   -1.5391 C   0  0  0  0  0  0  0  0  0  0  0  0
   -3.2722   -0.8391   -1.1035 C   0  0  0  0  0  0  0  0  0  0  0  0
    0.1439   -0.6613    0.1379 C   0  0  0  0  0  0  0  0  0  0  0  0
    0.5697   -0.4273   -1.1845 C   0  0  0  0  0  0  0  0  0  0  0  0
    1.8035    0.1728   -1.4584 C   0  0  0  0  0  0  0  0  0  0  0  0
    2.6510    0.5651   -0.4182 C   0  0  0  0  0  0  0  0  0  0  0  0
    3.9329    1.1831   -0.7123 C   0  0  0  0  0  0  0  0  0  0  0  0
    4.7804    1.0638   -1.8397 C   0  0  0  0  0  0  0  0  0  0  0  0
    5.8824    1.8122   -1.7423 N   0  0  0  0  0  0  0  0  0  0  0  0
    5.7428    2.4217   -0.5551 N   0  0  0  0  0  0  0  0  0  0  0  0
    4.5954    2.0790    0.1010 C   0  0  0  0  0  0  0  0  0  0  0  0
    2.2349    0.3416    0.8995 C   0  0  0  0  0  0  0  0  0  0  0  0
    0.9992   -0.2605    1.1750 C   0  0  0  0  0  0  0  0  0  0  0  0
   -2.6021   -3.1562    2.8938 H   0  0  0  0  0  0  0  0  0  0  0  0
   -2.7905   -3.2062    1.2653 H   0  0  0  0  0  0  0  0  0  0  0  0
   -0.6377   -2.4114    2.1804 H   0  0  0  0  0  0  0  0  0  0  0  0
   -1.5139   -0.9163    2.5433 H   0  0  0  0  0  0  0  0  0  0  0  0
   -0.3011   -2.8771   -0.3945 H   0  0  0  0  0  0  0  0  0  0  0  0
   -1.8650    1.2350    1.2069 H   0  0  0  0  0  0  0  0  0  0  0  0
   -3.6839    2.6945    0.4349 H   0  0  0  0  0  0  0  0  0  0  0  0
   -4.9907   -0.3527   -2.3062 H   0  0  0  0  0  0  0  0  0  0  0  0
   -3.1812   -1.8293   -1.5455 H   0  0  0  0  0  0  0  0  0  0  0  0
   -0.0726   -0.7078   -2.0196 H   0  0  0  0  0  0  0  0  0  0  0  0
    2.0782    0.3425   -2.4970 H   0  0  0  0  0  0  0  0  0  0  0  0
    4.6423    0.4576   -2.7257 H   0  0  0  0  0  0  0  0  0  0  0  0
    6.4695    3.0638   -0.2561 H   0  0  0  0  0  0  0  0  0  0  0  0
    4.3582    2.5104    1.0625 H   0  0  0  0  0  0  0  0  0  0  0  0
    2.8711    0.6240    1.7353 H   0  0  0  0  0  0  0  0  0  0  0  0
    0.7322   -0.3986    2.2195 H   0  0  0  0  0  0  0  0  0  0  0  0
  1  2  1  0
  2  3  1  0
  3  4  1  6
  3  5  1  0
  5  6  2  0
  6  7  1  0
  7  8  2  0
  8  9  1  0
  8 10  1  0
 10 11  2  0
  3 12  1  0
 12 13  2  0
 13 14  1  0
 14 15  2  0
 15 16  1  0
 16 17  1  0
 17 18  2  0
 18 19  1  0
 19 20  1  0
 15 21  1  0
 21 22  2  0
 11  5  1  0
 22 12  1  0
 20 16  2  0
  1 23  1  0
  1 24  1  0
  2 25  1  0
  2 26  1  0
  4 27  1  0
  6 28  1  0
  7 29  1  0
 10 30  1  0
 11 31  1  0
 13 32  1  0
 14 33  1  0
 17 34  1  0
 19 35  1  0
 20 36  1  0
 21 37  1  0
 22 38  1  0
M  END
$$$$
