
     RDKit          3D

 43 45  0  0  0  0  0  0  0  0999 V2000
   -2.5055   -2.7909   -0.5950 C   0  0  0  0  0  0  0  0  0  0  0  0
   -2.4722   -1.6908    0.4579 C   0  0  0  0  0  0  0  0  0  0  0  0
   -3.1403   -2.1634    1.7474 C   0  0  0  0  0  0  0  0  0  0  0  0
   -3.1703   -0.5289   -0.0255 O   0  0  0  0  0  0  0  0  0  0  0  0
   -2.1965    0.5266   -0.0496 C   0  0  2  0  0  0  0  0  0  0  0  0
   -1.6336    0.6705   -1.4629 C   0  0  0  0  0  0  0  0  0  0  0  0
   -0.4409    1.4416   -1.5002 O   0  0  0  0  0  0  0  0  0  0  0  0
    0.6231    0.9266   -0.6859 C   0  0  1  0  0  0  0  0  0  0  0  0
    1.2703   -0.3108   -1.3337 C   0  0  0  0  0  0  0  0  0  0  0  0
    2.4091   -0.7450   -0.5993 O   0  0  0  0  0  0  0  0  0  0  0  0
    2.5394   -2.3142   -0.2391 S   0  0  0  0  0  6  0  0  0  0  0  0
    4.1681   -2.4992    0.0856 N   0  0  0  0  0  0  0  0  0  0  0  0
    1.8692   -2.5592    1.0138 O   0  0  0  0  0  0  0  0  0  0  0  0
    2.2878   -3.1019   -1.4219 O   0  0  0  0  0  0  0  0  0  0  0  0
    1.6082    1.9687   -0.5811 O   0  0  0  0  0  0  0  0  0  0  0  0
    1.2138    2.7524    0.5511 C   0  0  0  0  0  0  0  0  0  0  0  0
    2.4268    2.9266    1.4584 C   0  0  0  0  0  0  0  0  0  0  0  0
    0.6843    4.1027    0.0842 C   0  0  0  0  0  0  0  0  0  0  0  0
    0.1750    2.0773    1.2791 O   0  0  0  0  0  0  0  0  0  0  0  0
    0.2056    0.7326    0.7670 C   0  0  1  0  0  0  0  0  0  0  0  0
   -1.1489    0.0785    0.9423 C   0  0  2  0  0  0  0  0  0  0  0  0
   -1.1046   -1.3351    0.7168 O   0  0  0  0  0  0  0  0  0  0  0  0
   -3.5341   -3.0506   -0.8660 H   0  0  0  0  0  0  0  0  0  0  0  0
   -1.9996   -2.4730   -1.5121 H   0  0  0  0  0  0  0  0  0  0  0  0
   -1.9886   -3.6896   -0.2427 H   0  0  0  0  0  0  0  0  0  0  0  0
   -4.1815   -2.4524    1.5696 H   0  0  0  0  0  0  0  0  0  0  0  0
   -3.1559   -1.3663    2.4988 H   0  0  0  0  0  0  0  0  0  0  0  0
   -2.6015   -3.0107    2.1845 H   0  0  0  0  0  0  0  0  0  0  0  0
   -2.6567    1.4700    0.2638 H   0  0  0  0  0  0  0  0  0  0  0  0
   -1.4637   -0.2962   -1.9461 H   0  0  0  0  0  0  0  0  0  0  0  0
   -2.3768    1.1738   -2.0919 H   0  0  0  0  0  0  0  0  0  0  0  0
    1.6135   -0.0568   -2.3433 H   0  0  0  0  0  0  0  0  0  0  0  0
    0.5390   -1.1178   -1.4434 H   0  0  0  0  0  0  0  0  0  0  0  0
    4.2828   -2.7588    1.0649 H   0  0  0  0  0  0  0  0  0  0  0  0
    4.5585   -3.1878   -0.5569 H   0  0  0  0  0  0  0  0  0  0  0  0
    3.2441    3.4347    0.9358 H   0  0  0  0  0  0  0  0  0  0  0  0
    2.8089    1.9521    1.7823 H   0  0  0  0  0  0  0  0  0  0  0  0
    2.1705    3.4898    2.3613 H   0  0  0  0  0  0  0  0  0  0  0  0
    1.4287    4.6365   -0.5158 H   0  0  0  0  0  0  0  0  0  0  0  0
   -0.2062    3.9761   -0.5419 H   0  0  0  0  0  0  0  0  0  0  0  0
    0.3894    4.7277    0.9339 H   0  0  0  0  0  0  0  0  0  0  0  0
    0.9697    0.1915    1.3374 H   0  0  0  0  0  0  0  0  0  0  0  0
   -1.5084    0.2432    1.9662 H   0  0  0  0  0  0  0  0  0  0  0  0
  1  2  1  0
  2  3  1  0
  2  4  1  0
  4  5  1  0
  5  6  1  0
  6  7  1  0
  7  8  1  0
  8  9  1  6
  9 10  1  0
 10 11  1  0
 11 12  1  0
 11 13  2  0
 11 14  2  0
  8 15  1  0
 15 16  1  0
 16 17  1  0
 16 18  1  0
 16 19  1  0
 19 20  1  0
 20 21  1  0
 21 22  1  0
 22  2  1  0
 21  5  1  0
 20  8  1  0
  1 23  1  0
  1 24  1  0
  1 25  1  0
  3 26  1  0
  3 27  1  0
  3 28  1  0
  5 29  1  1
  6 30  1  0
  6 31  1  0
  9 32  1  0
  9 33  1  0
 12 34  1  0
 12 35  1  0
 17 36  1  0
 17 37  1  0
 17 38  1  0
 18 39  1  0
 18 40  1  0
 18 41  1  0
 20 42  1  1
 21 43  1  1
M  END
$$$$
