
     RDKit          3D

144147  0  0  0  0  0  0  0  0999 V2000
   -7.6621   -3.2994   -0.0069 C   0  0  0  0  0  0  0  0  0  0  0  0
   -6.2505   -3.3474   -0.1844 O   0  0  0  0  0  0  0  0  0  0  0  0
   -5.5216   -2.8587    0.9517 C   0  0  1  0  0  0  0  0  0  0  0  0
   -4.1100   -3.4879    0.9280 C   0  0  0  0  0  0  0  0  0  0  0  0
   -3.4357   -3.4870   -0.4607 C   0  0  2  0  0  0  0  0  0  0  0  0
   -3.4883   -4.8164   -1.1913 C   0  0  0  0  0  0  0  0  0  0  0  0
   -2.7241   -5.9022   -0.4508 C   0  0  0  0  0  0  0  0  0  0  0  0
   -1.5784   -5.3828    0.4470 C   0  0  1  0  0  0  0  0  0  0  0  0
   -0.4929   -6.4773    0.4393 C   0  0  0  0  0  0  0  0  0  0  0  0
   -1.0587   -3.9745    0.0462 C   0  0  1  0  0  0  0  0  0  0  0  0
   -0.2179   -4.1603   -1.0836 O   0  0  0  0  0  0  0  0  0  0  0  0
   -2.0771   -3.0584   -0.3892 O   0  0  0  0  0  0  0  0  0  0  0  0
   -0.3597   -3.1665    1.1864 C   0  0  0  0  0  0  0  0  0  0  0  0
   -0.5922   -1.9893    1.4858 O   0  0  0  0  0  0  0  0  0  0  0  0
    0.6309   -3.8695    2.0753 C   0  0  0  0  0  0  0  0  0  0  0  0
    0.1597   -4.6891    2.8617 O   0  0  0  0  0  0  0  0  0  0  0  0
    1.9699   -3.4389    2.1117 N   0  0  0  0  0  0  0  0  0  0  0  0
    2.8005   -4.1244    3.1038 C   0  0  0  0  0  0  0  0  0  0  0  0
    3.4020   -5.3973    2.4969 C   0  0  0  0  0  0  0  0  0  0  0  0
    4.1517   -5.1002    1.1943 C   0  0  0  0  0  0  0  0  0  0  0  0
    3.3165   -4.2490    0.2260 C   0  0  0  0  0  0  0  0  0  0  0  0
    2.7680   -3.0016    0.9389 C   0  0  1  0  0  0  0  0  0  0  0  0
    2.2613   -2.0012   -0.1117 C   0  0  0  0  0  0  0  0  0  0  0  0
    1.2516   -2.1428   -0.7891 O   0  0  0  0  0  0  0  0  0  0  0  0
    3.1382   -0.9702   -0.2539 O   0  0  0  0  0  0  0  0  0  0  0  0
    2.9401   -0.0708   -1.3726 C   0  0  2  0  0  0  0  0  0  0  0  0
    4.3035    0.6197   -1.6703 C   0  0  2  0  0  0  0  0  0  0  0  0
    4.1937    1.6622   -2.7863 C   0  0  0  0  0  0  0  0  0  0  0  0
    5.3698   -0.4607   -2.0122 C   0  0  0  0  0  0  0  0  0  0  0  0
    6.8282    0.0278   -2.1808 C   0  0  2  0  0  0  0  0  0  0  0  0
    7.7553   -1.1446   -2.5528 C   0  0  0  0  0  0  0  0  0  0  0  0
    8.0768   -2.0591   -1.3708 C   0  0  0  0  0  0  0  0  0  0  0  0
    8.6428   -1.2876   -0.1769 C   0  0  1  0  0  0  0  0  0  0  0  0
    9.9485   -0.8154   -0.5217 O   0  0  0  0  0  0  0  0  0  0  0  0
    7.7378   -0.1096    0.2414 C   0  0  2  0  0  0  0  0  0  0  0  0
    6.5585   -0.6466    0.8519 O   0  0  0  0  0  0  0  0  0  0  0  0
    5.9192    0.2618    1.7393 C   0  0  0  0  0  0  0  0  0  0  0  0
    7.4065    0.7844   -0.9701 C   0  0  0  0  0  0  0  0  0  0  0  0
    1.7405    0.8552   -1.1229 C   0  0  0  0  0  0  0  0  0  0  0  0
    1.7977    1.6859    0.1496 C   0  0  0  0  0  0  0  0  0  0  0  0
    2.8493    1.8607    0.7723 O   0  0  0  0  0  0  0  0  0  0  0  0
    0.4934    2.3199    0.6712 C   0  0  2  0  0  0  0  0  0  0  0  0
    0.1038    1.6390    1.9826 C   0  0  0  0  0  0  0  0  0  0  0  0
   -0.6536    2.2592   -0.3134 C   0  0  0  0  0  0  0  0  0  0  0  0
   -1.0940    3.2336   -1.1399 C   0  0  0  0  0  0  0  0  0  0  0  0
   -2.2273    2.9350   -2.0951 C   0  0  0  0  0  0  0  0  0  0  0  0
   -0.4787    4.6157   -1.2298 C   0  0  1  0  0  0  0  0  0  0  0  0
   -0.5072    5.0491   -2.5949 O   0  0  0  0  0  0  0  0  0  0  0  0
   -1.0514    5.6955   -0.2744 C   0  0  1  0  0  0  0  0  0  0  0  0
   -0.3049    6.8993   -0.5431 O   0  0  0  0  0  0  0  0  0  0  0  0
   -0.5480    7.9380    0.3956 C   0  0  0  0  0  0  0  0  0  0  0  0
   -2.5615    5.9293   -0.4775 C   0  0  0  0  0  0  0  0  0  0  0  0
   -2.9800    6.4718   -1.5031 O   0  0  0  0  0  0  0  0  0  0  0  0
   -3.4944    5.6345    0.7116 C   0  0  2  0  0  0  0  0  0  0  0  0
   -3.3350    4.2290    1.2793 C   0  0  0  0  0  0  0  0  0  0  0  0
   -4.9721    6.0274    0.4563 C   0  0  0  0  0  0  0  0  0  0  0  0
   -5.7372    5.3654   -0.7175 C   0  0  2  0  0  0  0  0  0  0  0  0
   -7.1150    6.0255   -0.8726 C   0  0  0  0  0  0  0  0  0  0  0  0
   -5.9042    3.8671   -0.6602 C   0  0  0  0  0  0  0  0  0  0  0  0
   -6.3236    3.1498    0.3948 C   0  0  0  0  0  0  0  0  0  0  0  0
   -6.4244    1.7064    0.4263 C   0  0  0  0  0  0  0  0  0  0  0  0
   -5.5658    0.8725   -0.1822 C   0  0  0  0  0  0  0  0  0  0  0  0
   -5.6234   -0.5676   -0.1065 C   0  0  0  0  0  0  0  0  0  0  0  0
   -5.4620   -1.3310    0.9946 C   0  0  0  0  0  0  0  0  0  0  0  0
   -5.1898   -0.7719    2.3698 C   0  0  0  0  0  0  0  0  0  0  0  0
   -8.0050   -2.2761    0.1599 H   0  0  0  0  0  0  0  0  0  0  0  0
   -7.9683   -3.9384    0.8250 H   0  0  0  0  0  0  0  0  0  0  0  0
   -8.1278   -3.6753   -0.9219 H   0  0  0  0  0  0  0  0  0  0  0  0
   -6.0285   -3.2119    1.8618 H   0  0  0  0  0  0  0  0  0  0  0  0
   -3.4631   -3.0041    1.6688 H   0  0  0  0  0  0  0  0  0  0  0  0
   -4.2335   -4.5213    1.2671 H   0  0  0  0  0  0  0  0  0  0  0  0
   -3.9190   -2.7375   -1.0950 H   0  0  0  0  0  0  0  0  0  0  0  0
   -4.5209   -5.1359   -1.3709 H   0  0  0  0  0  0  0  0  0  0  0  0
   -3.0192   -4.6867   -2.1751 H   0  0  0  0  0  0  0  0  0  0  0  0
   -2.3617   -6.6252   -1.1912 H   0  0  0  0  0  0  0  0  0  0  0  0
   -3.4203   -6.4629    0.1841 H   0  0  0  0  0  0  0  0  0  0  0  0
   -1.9755   -5.3162    1.4674 H   0  0  0  0  0  0  0  0  0  0  0  0
   -0.9075   -7.4249    0.8081 H   0  0  0  0  0  0  0  0  0  0  0  0
   -0.1177   -6.6574   -0.5752 H   0  0  0  0  0  0  0  0  0  0  0  0
    0.3733   -6.2397    1.0560 H   0  0  0  0  0  0  0  0  0  0  0  0
    0.0594   -3.2453   -1.3132 H   0  0  0  0  0  0  0  0  0  0  0  0
    2.2186   -4.3712    3.9995 H   0  0  0  0  0  0  0  0  0  0  0  0
    3.5956   -3.4352    3.4219 H   0  0  0  0  0  0  0  0  0  0  0  0
    2.6001   -6.1182    2.2916 H   0  0  0  0  0  0  0  0  0  0  0  0
    4.0788   -5.8649    3.2199 H   0  0  0  0  0  0  0  0  0  0  0  0
    4.4416   -6.0399    0.7112 H   0  0  0  0  0  0  0  0  0  0  0  0
    5.0782   -4.5623    1.4303 H   0  0  0  0  0  0  0  0  0  0  0  0
    3.9367   -3.9635   -0.6333 H   0  0  0  0  0  0  0  0  0  0  0  0
    2.4870   -4.8525   -0.1650 H   0  0  0  0  0  0  0  0  0  0  0  0
    3.6299   -2.4838    1.3924 H   0  0  0  0  0  0  0  0  0  0  0  0
    2.7000   -0.6811   -2.2553 H   0  0  0  0  0  0  0  0  0  0  0  0
    4.6277    1.1279   -0.7609 H   0  0  0  0  0  0  0  0  0  0  0  0
    5.1615    2.1188   -3.0080 H   0  0  0  0  0  0  0  0  0  0  0  0
    3.5298    2.4827   -2.4965 H   0  0  0  0  0  0  0  0  0  0  0  0
    3.8091    1.2151   -3.7074 H   0  0  0  0  0  0  0  0  0  0  0  0
    5.3444   -1.2469   -1.2520 H   0  0  0  0  0  0  0  0  0  0  0  0
    5.0654   -0.9550   -2.9461 H   0  0  0  0  0  0  0  0  0  0  0  0
    6.8425    0.7174   -3.0358 H   0  0  0  0  0  0  0  0  0  0  0  0
    8.6935   -0.7366   -2.9521 H   0  0  0  0  0  0  0  0  0  0  0  0
    7.3114   -1.7379   -3.3619 H   0  0  0  0  0  0  0  0  0  0  0  0
    7.1765   -2.6050   -1.0665 H   0  0  0  0  0  0  0  0  0  0  0  0
    8.8072   -2.8068   -1.7032 H   0  0  0  0  0  0  0  0  0  0  0  0
    8.7560   -1.9884    0.6586 H   0  0  0  0  0  0  0  0  0  0  0  0
   10.3846   -0.5451    0.3037 H   0  0  0  0  0  0  0  0  0  0  0  0
    8.2815    0.4932    0.9812 H   0  0  0  0  0  0  0  0  0  0  0  0
    4.9867   -0.1921    2.0830 H   0  0  0  0  0  0  0  0  0  0  0  0
    6.5566    0.4467    2.6088 H   0  0  0  0  0  0  0  0  0  0  0  0
    5.6842    1.2086    1.2495 H   0  0  0  0  0  0  0  0  0  0  0  0
    8.3384    1.2693   -1.2929 H   0  0  0  0  0  0  0  0  0  0  0  0
    6.7391    1.6008   -0.6780 H   0  0  0  0  0  0  0  0  0  0  0  0
    0.8488    0.2269   -1.0456 H   0  0  0  0  0  0  0  0  0  0  0  0
    1.5872    1.5307   -1.9697 H   0  0  0  0  0  0  0  0  0  0  0  0
    0.7311    3.3657    0.8984 H   0  0  0  0  0  0  0  0  0  0  0  0
    0.9133    1.7070    2.7162 H   0  0  0  0  0  0  0  0  0  0  0  0
   -0.1087    0.5759    1.8340 H   0  0  0  0  0  0  0  0  0  0  0  0
   -0.7868    2.1026    2.4211 H   0  0  0  0  0  0  0  0  0  0  0  0
   -1.1654    1.2934   -0.3489 H   0  0  0  0  0  0  0  0  0  0  0  0
   -1.8793    2.9781   -3.1311 H   0  0  0  0  0  0  0  0  0  0  0  0
   -3.0414    3.6508   -1.9745 H   0  0  0  0  0  0  0  0  0  0  0  0
   -2.6467    1.9373   -1.9373 H   0  0  0  0  0  0  0  0  0  0  0  0
    0.5936    4.5410   -1.0124 H   0  0  0  0  0  0  0  0  0  0  0  0
   -0.5188    6.0272   -2.5633 H   0  0  0  0  0  0  0  0  0  0  0  0
   -0.8587    5.3998    0.7606 H   0  0  0  0  0  0  0  0  0  0  0  0
   -1.5803    8.2967    0.3249 H   0  0  0  0  0  0  0  0  0  0  0  0
    0.1218    8.7687    0.1632 H   0  0  0  0  0  0  0  0  0  0  0  0
   -0.3372    7.5969    1.4135 H   0  0  0  0  0  0  0  0  0  0  0  0
   -3.1502    6.3224    1.4992 H   0  0  0  0  0  0  0  0  0  0  0  0
   -3.4630    3.4595    0.5178 H   0  0  0  0  0  0  0  0  0  0  0  0
   -4.0505    4.0484    2.0871 H   0  0  0  0  0  0  0  0  0  0  0  0
   -2.3392    4.0868    1.7112 H   0  0  0  0  0  0  0  0  0  0  0  0
   -4.9833    7.1146    0.2798 H   0  0  0  0  0  0  0  0  0  0  0  0
   -5.5345    5.8801    1.3880 H   0  0  0  0  0  0  0  0  0  0  0  0
   -5.1928    5.5784   -1.6452 H   0  0  0  0  0  0  0  0  0  0  0  0
   -7.7243    5.8967    0.0298 H   0  0  0  0  0  0  0  0  0  0  0  0
   -7.6675    5.5971   -1.7158 H   0  0  0  0  0  0  0  0  0  0  0  0
   -7.0111    7.1014   -1.0554 H   0  0  0  0  0  0  0  0  0  0  0  0
   -5.6468    3.3515   -1.5871 H   0  0  0  0  0  0  0  0  0  0  0  0
   -6.6246    3.6544    1.3110 H   0  0  0  0  0  0  0  0  0  0  0  0
   -7.2194    1.3081    1.0514 H   0  0  0  0  0  0  0  0  0  0  0  0
   -4.7689    1.2560   -0.8133 H   0  0  0  0  0  0  0  0  0  0  0  0
   -5.7630   -1.0535   -1.0726 H   0  0  0  0  0  0  0  0  0  0  0  0
   -6.0456   -0.9676    3.0257 H   0  0  0  0  0  0  0  0  0  0  0  0
   -5.0043    0.3057    2.3739 H   0  0  0  0  0  0  0  0  0  0  0  0
   -4.3038   -1.2378    2.8123 H   0  0  0  0  0  0  0  0  0  0  0  0
  1  2  1  0
  2  3  1  0
  3  4  1  0
  4  5  1  0
  5  6  1  0
  6  7  1  0
  7  8  1  0
  8  9  1  0
  8 10  1  0
 10 11  1  6
 10 12  1  0
 10 13  1  0
 13 14  2  0
 13 15  1  0
 15 16  2  0
 15 17  1  0
 17 18  1  0
 18 19  1  0
 19 20  1  0
 20 21  1  0
 21 22  1  0
 22 23  1  0
 23 24  2  0
 23 25  1  0
 25 26  1  0
 26 27  1  0
 27 28  1  0
 27 29  1  0
 29 30  1  0
 30 31  1  0
 31 32  1  0
 32 33  1  0
 33 34  1  0
 33 35  1  0
 35 36  1  0
 36 37  1  0
 35 38  1  0
 26 39  1  0
 39 40  1  0
 40 41  2  0
 40 42  1  0
 42 43  1  0
 42 44  1  0
 44 45  2  0
 45 46  1  0
 45 47  1  0
 47 48  1  0
 47 49  1  0
 49 50  1  0
 50 51  1  0
 49 52  1  0
 52 53  2  0
 52 54  1  0
 54 55  1  0
 54 56  1  0
 56 57  1  0
 57 58  1  0
 57 59  1  0
 59 60  2  0
 60 61  1  0
 61 62  2  0
 62 63  1  0
 63 64  2  0
 64 65  1  0
 64  3  1  0
 12  5  1  0
 22 17  1  0
 38 30  1  0
  1 66  1  0
  1 67  1  0
  1 68  1  0
  3 69  1  1
  4 70  1  0
  4 71  1  0
  5 72  1  6
  6 73  1  0
  6 74  1  0
  7 75  1  0
  7 76  1  0
  8 77  1  1
  9 78  1  0
  9 79  1  0
  9 80  1  0
 11 81  1  0
 18 82  1  0
 18 83  1  0
 19 84  1  0
 19 85  1  0
 20 86  1  0
 20 87  1  0
 21 88  1  0
 21 89  1  0
 22 90  1  1
 26 91  1  6
 27 92  1  1
 28 93  1  0
 28 94  1  0
 28 95  1  0
 29 96  1  0
 29 97  1  0
 30 98  1  6
 31 99  1  0
 31100  1  0
 32101  1  0
 32102  1  0
 33103  1  1
 34104  1  0
 35105  1  1
 37106  1  0
 37107  1  0
 37108  1  0
 38109  1  0
 38110  1  0
 39111  1  0
 39112  1  0
 42113  1  1
 43114  1  0
 43115  1  0
 43116  1  0
 44117  1  0
 46118  1  0
 46119  1  0
 46120  1  0
 47121  1  1
 48122  1  0
 49123  1  1
 51124  1  0
 51125  1  0
 51126  1  0
 54127  1  1
 55128  1  0
 55129  1  0
 55130  1  0
 56131  1  0
 56132  1  0
 57133  1  6
 58134  1  0
 58135  1  0
 58136  1  0
 59137  1  0
 60138  1  0
 61139  1  0
 62140  1  0
 63141  1  0
 65142  1  0
 65143  1  0
 65144  1  0
M  END
$$$$
