
     RDKit          3D

 45 45  0  0  0  0  0  0  0  0999 V2000
   -3.1574    3.0415    0.0880 C   0  0  0  0  0  0  0  0  0  0  0  0
   -2.6558    1.6235    0.0263 C   0  0  0  0  0  0  0  0  0  0  0  0
   -1.2664    1.4010    0.0305 C   0  0  0  0  0  0  0  0  0  0  0  0
   -0.7277    0.1082    0.0135 C   0  0  0  0  0  0  0  0  0  0  0  0
    0.7276   -0.1087    0.0193 C   0  0  0  0  0  0  0  0  0  0  0  0
    1.3402   -0.8788    1.0159 C   0  0  0  0  0  0  0  0  0  0  0  0
    2.7307   -1.0938    1.0347 C   0  0  0  0  0  0  0  0  0  0  0  0
    3.3189   -1.8983    2.1630 C   0  0  0  0  0  0  0  0  0  0  0  0
    3.5347   -0.5691    0.0024 C   0  0  0  0  0  0  0  0  0  0  0  0
    4.9354   -0.6976    0.0625 N   0  0  0  0  0  0  0  0  0  0  0  0
    2.9415    0.2652   -0.9670 C   0  0  0  0  0  0  0  0  0  0  0  0
    3.7597    0.9418   -2.0342 C   0  0  0  0  0  0  0  0  0  0  0  0
    1.5486    0.4643   -0.9603 C   0  0  0  0  0  0  0  0  0  0  0  0
   -1.6202   -0.9712    0.0106 C   0  0  0  0  0  0  0  0  0  0  0  0
   -3.0140   -0.7785    0.0050 C   0  0  0  0  0  0  0  0  0  0  0  0
   -3.9077   -1.9895    0.0356 C   0  0  0  0  0  0  0  0  0  0  0  0
   -3.5405    0.5283   -0.0478 C   0  0  0  0  0  0  0  0  0  0  0  0
   -4.9301    0.7346    0.0430 N   0  0  0  0  0  0  0  0  0  0  0  0
   -0.9832    0.1958    1.3767 O   0  0  0  0  0  0  0  0  0  0  0  0
   -0.0709    0.3572    0.2734 S   0  0  0  0  0  6  0  0  0  0  0  0
    0.6299    1.5822   -0.0162 O   0  0  0  0  0  0  0  0  0  0  0  0
    1.0443   -0.7921    0.3671 O   0  0  0  0  0  0  0  0  0  0  0  0
   -0.8683   -0.0927   -1.0439 O   0  0  0  0  0  0  0  0  0  0  0  0
   -3.8323    3.1715    0.9403 H   0  0  0  0  0  0  0  0  0  0  0  0
   -3.6819    3.2974   -0.8381 H   0  0  0  0  0  0  0  0  0  0  0  0
   -2.3365    3.7559    0.2124 H   0  0  0  0  0  0  0  0  0  0  0  0
   -0.5899    2.2536    0.0723 H   0  0  0  0  0  0  0  0  0  0  0  0
    0.7245   -1.3010    1.8090 H   0  0  0  0  0  0  0  0  0  0  0  0
    4.0939   -1.3227    2.6795 H   0  0  0  0  0  0  0  0  0  0  0  0
    3.7476   -2.8297    1.7794 H   0  0  0  0  0  0  0  0  0  0  0  0
    2.5615   -2.1641    2.9081 H   0  0  0  0  0  0  0  0  0  0  0  0
    5.3940   -0.5959   -0.8360 H   0  0  0  0  0  0  0  0  0  0  0  0
    5.2489   -1.5312    0.5470 H   0  0  0  0  0  0  0  0  0  0  0  0
    3.1476    1.6082   -2.6514 H   0  0  0  0  0  0  0  0  0  0  0  0
    4.2084    0.1947   -2.6967 H   0  0  0  0  0  0  0  0  0  0  0  0
    4.5480    1.5525   -1.5823 H   0  0  0  0  0  0  0  0  0  0  0  0
    1.0945    1.0795   -1.7357 H   0  0  0  0  0  0  0  0  0  0  0  0
   -1.2224   -1.9850    0.0128 H   0  0  0  0  0  0  0  0  0  0  0  0
   -4.6014   -1.9318    0.8807 H   0  0  0  0  0  0  0  0  0  0  0  0
   -4.4730   -2.0655   -0.8988 H   0  0  0  0  0  0  0  0  0  0  0  0
   -3.3321   -2.9140    0.1518 H   0  0  0  0  0  0  0  0  0  0  0  0
   -5.4820   -0.0263   -0.3370 H   0  0  0  0  0  0  0  0  0  0  0  0
   -5.2349    1.6312   -0.3193 H   0  0  0  0  0  0  0  0  0  0  0  0
    1.7967   -0.5111   -0.1939 H   0  0  0  0  0  0  0  0  0  0  0  0
   -1.5485   -0.7393   -0.7631 H   0  0  0  0  0  0  0  0  0  0  0  0
  1  2  1  0
  2  3  2  0
  3  4  1  0
  4  5  1  0
  5  6  2  0
  6  7  1  0
  7  8  1  0
  7  9  2  0
  9 10  1  0
  9 11  1  0
 11 12  1  0
 11 13  2  0
  4 14  2  0
 14 15  1  0
 15 16  1  0
 15 17  2  0
 17 18  1  0
 19 20  2  0
 20 21  2  0
 20 22  1  0
 20 23  1  0
 17  2  1  0
 13  5  1  0
  1 24  1  0
  1 25  1  0
  1 26  1  0
  3 27  1  0
  6 28  1  0
  8 29  1  0
  8 30  1  0
  8 31  1  0
 10 32  1  0
 10 33  1  0
 12 34  1  0
 12 35  1  0
 12 36  1  0
 13 37  1  0
 14 38  1  0
 16 39  1  0
 16 40  1  0
 16 41  1  0
 18 42  1  0
 18 43  1  0
 22 44  1  0
 23 45  1  0
M  END
$$$$
