
     RDKit          3D

 28 28  0  0  0  0  0  0  0  0999 V2000
    0.0000    0.0000    0.0000 Na  0  0  0  0  0 15  0  0  0  0  0  0
    0.7599   -1.0259   -2.1012 O   0  0  0  0  0  1  0  0  0  0  0  0
    0.2324   -0.5219   -1.0939 C   0  0  0  0  0  0  0  0  0  0  0  0
    0.7204    0.0226   -0.0186 N   0  0  0  0  0  0  0  0  0  0  0  0
    2.1122    0.1087    0.1403 C   0  0  0  0  0  0  0  0  0  0  0  0
    2.7861    1.2858   -0.1937 C   0  0  0  0  0  0  0  0  0  0  0  0
    4.1616    1.4044    0.0201 C   0  0  0  0  0  0  0  0  0  0  0  0
    4.8718    0.3432    0.5821 C   0  0  0  0  0  0  0  0  0  0  0  0
    4.2065   -0.8332    0.9282 C   0  0  0  0  0  0  0  0  0  0  0  0
    2.8309   -0.9444    0.7119 C   0  0  0  0  0  0  0  0  0  0  0  0
   -1.0948   -0.6633   -1.3611 N   0  0  0  0  0  0  0  0  0  0  0  0
   -2.2506   -0.3203   -0.6523 C   0  0  0  0  0  0  0  0  0  0  0  0
   -2.2460    0.2979    0.6009 C   0  0  0  0  0  0  0  0  0  0  0  0
   -3.4384    0.6183    1.2610 C   0  0  0  0  0  0  0  0  0  0  0  0
   -4.6650    0.3235    0.6730 C   0  0  0  0  0  0  0  0  0  0  0  0
   -4.6971   -0.2913   -0.5745 C   0  0  0  0  0  0  0  0  0  0  0  0
   -3.5005   -0.6078   -1.2265 C   0  0  0  0  0  0  0  0  0  0  0  0
    2.2190    2.0979   -0.6376 H   0  0  0  0  0  0  0  0  0  0  0  0
    4.6710    2.3200   -0.2608 H   0  0  0  0  0  0  0  0  0  0  0  0
    5.9419    0.4290    0.7412 H   0  0  0  0  0  0  0  0  0  0  0  0
    4.7507   -1.6682    1.3565 H   0  0  0  0  0  0  0  0  0  0  0  0
    2.2983   -1.8559    0.9647 H   0  0  0  0  0  0  0  0  0  0  0  0
   -1.1989   -1.1136   -2.2556 H   0  0  0  0  0  0  0  0  0  0  0  0
   -1.3022    0.5386    1.0815 H   0  0  0  0  0  0  0  0  0  0  0  0
   -3.3941    1.0980    2.2339 H   0  0  0  0  0  0  0  0  0  0  0  0
   -5.5886    0.5723    1.1855 H   0  0  0  0  0  0  0  0  0  0  0  0
   -5.6461   -0.5269   -1.0454 H   0  0  0  0  0  0  0  0  0  0  0  0
   -3.5404   -1.0875   -2.2010 H   0  0  0  0  0  0  0  0  0  0  0  0
  2  3  1  0
  3  4  2  0
  4  5  1  0
  5  6  2  0
  6  7  1  0
  7  8  2  0
  8  9  1  0
  9 10  2  0
  3 11  1  0
 11 12  1  0
 12 13  2  0
 13 14  1  0
 14 15  2  0
 15 16  1  0
 16 17  2  0
 10  5  1  0
 17 12  1  0
  6 18  1  0
  7 19  1  0
  8 20  1  0
  9 21  1  0
 10 22  1  0
 11 23  1  0
 13 24  1  0
 14 25  1  0
 15 26  1  0
 16 27  1  0
 17 28  1  0
M  CHG  2   1   1   2  -1
M  END
$$$$
