
     RDKit          3D

 84 87  0  0  0  0  0  0  0  0999 V2000
   -2.4869   -6.1999   -0.4920 C   0  0  0  0  0  0  0  0  0  0  0  0
   -2.8300   -4.7942   -0.5659 N   0  0  0  0  0  0  0  0  0  0  0  0
   -1.8215   -3.8793    0.0065 C   0  0  1  0  0  0  0  0  0  0  0  0
   -0.3916   -4.1142   -0.4811 C   0  0  0  0  0  0  0  0  0  0  0  0
   -2.2275   -2.4278   -0.3505 C   0  0  0  0  0  0  0  0  0  0  0  0
   -2.8931   -2.1440   -1.3467 O   0  0  0  0  0  0  0  0  0  0  0  0
   -1.7533   -1.4712    0.5177 N   0  0  0  0  0  0  0  0  0  0  0  0
   -1.9314   -0.0413    0.2517 C   0  0  1  0  0  0  0  0  0  0  0  0
   -3.1658    0.5094    0.9806 C   0  0  0  0  0  0  0  0  0  0  0  0
   -3.7234    1.8119    0.5522 N   0  0  0  0  0  0  0  0  0  0  0  0
   -4.8895    2.1960    1.2159 C   0  0  0  0  0  0  0  0  0  0  0  0
   -5.4428    1.4551    2.0361 O   0  0  0  0  0  0  0  0  0  0  0  0
   -5.5271    3.5424    0.9127 C   0  0  0  0  0  0  0  0  0  0  0  0
   -6.6948    3.4149   -0.0776 C   0  0  0  0  0  0  0  0  0  0  0  0
   -7.5165    4.7059   -0.0853 C   0  0  0  0  0  0  0  0  0  0  0  0
   -6.2305    3.0865   -1.4967 C   0  0  0  0  0  0  0  0  0  0  0  0
   -2.8846    2.7192   -0.2393 C   0  0  0  0  0  0  0  0  0  0  0  0
   -1.7424    3.3027    0.5952 C   0  0  0  0  0  0  0  0  0  0  0  0
   -0.3584    2.9307    0.0498 C   0  0  1  0  0  0  0  0  0  0  0  0
    0.7784    3.4149    0.9694 C   0  0  0  0  0  0  0  0  0  0  0  0
    1.9096    2.3966    0.7914 C   0  0  0  0  0  0  0  0  0  0  0  0
    1.3886    1.4304   -0.2684 C   0  0  1  0  0  0  0  0  0  0  0  0
    1.9967    0.0079   -0.2759 C   0  0  0  0  0  0  0  0  0  0  0  0
    1.3306   -0.9957   -0.5233 O   0  0  0  0  0  0  0  0  0  0  0  0
    3.3595   -0.0385   -0.0717 N   0  0  0  0  0  0  0  0  0  0  0  0
    4.1002   -1.2852   -0.2041 C   0  0  0  0  0  0  0  0  0  0  0  0
    4.7232   -1.3244   -1.5978 C   0  0  0  0  0  0  0  0  0  0  0  0
    3.9771   -1.8469   -2.6685 C   0  0  0  0  0  0  0  0  0  0  0  0
    4.5016   -1.8685   -3.9622 C   0  0  0  0  0  0  0  0  0  0  0  0
    5.7751   -1.3611   -4.2071 C   0  0  0  0  0  0  0  0  0  0  0  0
    6.5222   -0.8252   -3.1607 C   0  0  0  0  0  0  0  0  0  0  0  0
    5.9983   -0.7998   -1.8663 C   0  0  0  0  0  0  0  0  0  0  0  0
    5.0971   -1.5086    0.9329 C   0  0  0  0  0  0  0  0  0  0  0  0
    5.4699   -0.5025    1.8416 C   0  0  0  0  0  0  0  0  0  0  0  0
    6.4007   -0.7614    2.8518 C   0  0  0  0  0  0  0  0  0  0  0  0
    6.9683   -2.0273    2.9755 C   0  0  0  0  0  0  0  0  0  0  0  0
    6.6053   -3.0406    2.0915 C   0  0  0  0  0  0  0  0  0  0  0  0
    5.6797   -2.7832    1.0789 C   0  0  0  0  0  0  0  0  0  0  0  0
   -0.0760    1.5149   -0.1770 N   0  0  0  0  0  0  0  0  0  0  0  0
   -0.6511    0.6395    0.7641 C   0  0  0  0  0  0  0  0  0  0  0  0
   -0.1438    0.3900    1.8559 O   0  0  0  0  0  0  0  0  0  0  0  0
   -1.6449   -6.4515   -1.1428 H   0  0  0  0  0  0  0  0  0  0  0  0
   -2.2534   -6.4989    0.5351 H   0  0  0  0  0  0  0  0  0  0  0  0
   -3.3414   -6.7991   -0.8216 H   0  0  0  0  0  0  0  0  0  0  0  0
   -3.0123   -4.5105   -1.5320 H   0  0  0  0  0  0  0  0  0  0  0  0
   -1.8558   -3.9772    1.0985 H   0  0  0  0  0  0  0  0  0  0  0  0
   -0.3233   -4.0397   -1.5728 H   0  0  0  0  0  0  0  0  0  0  0  0
    0.2907   -3.3671   -0.0621 H   0  0  0  0  0  0  0  0  0  0  0  0
   -0.0165   -5.0961   -0.1743 H   0  0  0  0  0  0  0  0  0  0  0  0
   -1.0725   -1.7281    1.2251 H   0  0  0  0  0  0  0  0  0  0  0  0
   -2.0198    0.0907   -0.8310 H   0  0  0  0  0  0  0  0  0  0  0  0
   -2.9522    0.5958    2.0549 H   0  0  0  0  0  0  0  0  0  0  0  0
   -3.9826   -0.2199    0.8932 H   0  0  0  0  0  0  0  0  0  0  0  0
   -4.8035    4.2961    0.5999 H   0  0  0  0  0  0  0  0  0  0  0  0
   -5.9088    3.9124    1.8755 H   0  0  0  0  0  0  0  0  0  0  0  0
   -7.3530    2.6005    0.2530 H   0  0  0  0  0  0  0  0  0  0  0  0
   -7.9109    4.9206    0.9135 H   0  0  0  0  0  0  0  0  0  0  0  0
   -6.9089    5.5610   -0.4014 H   0  0  0  0  0  0  0  0  0  0  0  0
   -8.3695    4.6217   -0.7672 H   0  0  0  0  0  0  0  0  0  0  0  0
   -5.7065    2.1262   -1.5306 H   0  0  0  0  0  0  0  0  0  0  0  0
   -5.5614    3.8597   -1.8880 H   0  0  0  0  0  0  0  0  0  0  0  0
   -7.0874    3.0134   -2.1764 H   0  0  0  0  0  0  0  0  0  0  0  0
   -3.4816    3.5380   -0.6425 H   0  0  0  0  0  0  0  0  0  0  0  0
   -2.5322    2.1810   -1.1244 H   0  0  0  0  0  0  0  0  0  0  0  0
   -1.8257    4.3977    0.5952 H   0  0  0  0  0  0  0  0  0  0  0  0
   -1.8321    2.9985    1.6458 H   0  0  0  0  0  0  0  0  0  0  0  0
   -0.2382    3.4135   -0.9304 H   0  0  0  0  0  0  0  0  0  0  0  0
    1.0989    4.4269    0.6991 H   0  0  0  0  0  0  0  0  0  0  0  0
    0.4712    3.4386    2.0218 H   0  0  0  0  0  0  0  0  0  0  0  0
    2.1154    1.8871    1.7393 H   0  0  0  0  0  0  0  0  0  0  0  0
    2.8407    2.8787    0.4757 H   0  0  0  0  0  0  0  0  0  0  0  0
    1.6363    1.8416   -1.2581 H   0  0  0  0  0  0  0  0  0  0  0  0
    3.8945    0.8060   -0.1898 H   0  0  0  0  0  0  0  0  0  0  0  0
    3.3864   -2.1166   -0.1260 H   0  0  0  0  0  0  0  0  0  0  0  0
    2.9732   -2.2364   -2.4980 H   0  0  0  0  0  0  0  0  0  0  0  0
    3.9150   -2.2815   -4.7792 H   0  0  0  0  0  0  0  0  0  0  0  0
    6.1828   -1.3806   -5.2149 H   0  0  0  0  0  0  0  0  0  0  0  0
    7.5162   -0.4314   -3.3509 H   0  0  0  0  0  0  0  0  0  0  0  0
    6.6043   -0.3765   -1.0687 H   0  0  0  0  0  0  0  0  0  0  0  0
    5.0402    0.4940    1.7847 H   0  0  0  0  0  0  0  0  0  0  0  0
    6.6829    0.0268    3.5465 H   0  0  0  0  0  0  0  0  0  0  0  0
    7.6891   -2.2273    3.7636 H   0  0  0  0  0  0  0  0  0  0  0  0
    7.0444   -4.0300    2.1891 H   0  0  0  0  0  0  0  0  0  0  0  0
    5.4117   -3.5865    0.3926 H   0  0  0  0  0  0  0  0  0  0  0  0
  1  2  1  0
  2  3  1  0
  3  4  1  0
  3  5  1  0
  5  6  2  0
  5  7  1  0
  7  8  1  0
  8  9  1  0
  9 10  1  0
 10 11  1  0
 11 12  2  0
 11 13  1  0
 13 14  1  0
 14 15  1  0
 14 16  1  0
 10 17  1  0
 17 18  1  0
 18 19  1  0
 19 20  1  0
 20 21  1  0
 21 22  1  0
 22 23  1  0
 23 24  2  0
 23 25  1  0
 25 26  1  0
 26 27  1  0
 27 28  2  0
 28 29  1  0
 29 30  2  0
 30 31  1  0
 31 32  2  0
 26 33  1  0
 33 34  2  0
 34 35  1  0
 35 36  2  0
 36 37  1  0
 37 38  2  0
 22 39  1  0
 39 40  1  0
 40 41  2  0
 40  8  1  0
 39 19  1  0
 32 27  1  0
 38 33  1  0
  1 42  1  0
  1 43  1  0
  1 44  1  0
  2 45  1  0
  3 46  1  1
  4 47  1  0
  4 48  1  0
  4 49  1  0
  7 50  1  0
  8 51  1  6
  9 52  1  0
  9 53  1  0
 13 54  1  0
 13 55  1  0
 14 56  1  0
 15 57  1  0
 15 58  1  0
 15 59  1  0
 16 60  1  0
 16 61  1  0
 16 62  1  0
 17 63  1  0
 17 64  1  0
 18 65  1  0
 18 66  1  0
 19 67  1  6
 20 68  1  0
 20 69  1  0
 21 70  1  0
 21 71  1  0
 22 72  1  6
 25 73  1  0
 26 74  1  0
 28 75  1  0
 29 76  1  0
 30 77  1  0
 31 78  1  0
 32 79  1  0
 34 80  1  0
 35 81  1  0
 36 82  1  0
 37 83  1  0
 38 84  1  0
M  END
$$$$
