
     RDKit          3D

 19 18  0  0  0  0  0  0  0  0999 V2000
   -0.1858    1.3430    0.8686 N   0  0  0  0  0  0  0  0  0  0  0  0
    0.9427    0.3795    0.6112 C   0  0  1  0  0  0  0  0  0  0  0  0
    0.4829   -0.8846   -0.1388 C   0  0  0  0  0  0  0  0  0  0  0  0
   -0.5469   -0.5604   -1.0653 O   0  0  0  0  0  0  0  0  0  0  0  0
   -2.0759   -0.7780   -0.6296 P   0  0  0  0  0  5  0  0  0  0  0  0
   -3.0986   -0.0659   -1.4418 O   0  0  0  0  0  0  0  0  0  0  0  0
   -2.1114   -0.4700    0.9362 O   0  0  0  0  0  0  0  0  0  0  0  0
   -2.2211   -2.3693   -0.6418 O   0  0  0  0  0  0  0  0  0  0  0  0
    2.0532    1.0880   -0.1702 C   0  0  0  0  0  0  0  0  0  0  0  0
    2.0111    2.2329   -0.5953 O   0  0  0  0  0  0  0  0  0  0  0  0
    3.1658    0.3442   -0.3153 O   0  0  0  0  0  0  0  0  0  0  0  0
   -0.3587    1.8049   -0.0393 H   0  0  0  0  0  0  0  0  0  0  0  0
    0.2103    2.1125    1.4228 H   0  0  0  0  0  0  0  0  0  0  0  0
    1.3719    0.0971    1.5796 H   0  0  0  0  0  0  0  0  0  0  0  0
    0.1204   -1.6350    0.5729 H   0  0  0  0  0  0  0  0  0  0  0  0
    1.2978   -1.3483   -0.7029 H   0  0  0  0  0  0  0  0  0  0  0  0
   -1.6828    0.4046    1.1093 H   0  0  0  0  0  0  0  0  0  0  0  0
   -3.1577   -2.6175   -0.5462 H   0  0  0  0  0  0  0  0  0  0  0  0
    3.7827    0.9223   -0.8140 H   0  0  0  0  0  0  0  0  0  0  0  0
  1  2  1  0
  2  3  1  0
  3  4  1  0
  4  5  1  0
  5  6  2  0
  5  7  1  0
  5  8  1  0
  2  9  1  0
  9 10  2  0
  9 11  1  0
  1 12  1  0
  1 13  1  0
  2 14  1  1
  3 15  1  0
  3 16  1  0
  7 17  1  0
  8 18  1  0
 11 19  1  0
M  END
$$$$
