
     RDKit          3D

 58 60  0  0  0  0  0  0  0  0999 V2000
   -1.5595   -1.7921   -3.1423 C   0  0  0  0  0  0  0  0  0  0  0  0
   -1.7858   -2.5291   -1.9489 O   0  0  0  0  0  0  0  0  0  0  0  0
   -1.6432   -1.7318   -0.7776 C   0  0  0  0  0  0  0  0  0  0  0  0
   -2.7451   -0.6746   -0.5252 C   0  0  0  0  0  0  0  0  0  0  0  0
   -3.8199   -0.7762   -1.1245 O   0  0  0  0  0  0  0  0  0  0  0  0
   -2.5203    0.3648    0.3962 N   0  0  0  0  0  0  0  0  0  0  0  0
   -3.6354    1.3086    0.6733 C   0  0  0  0  0  0  0  0  0  0  0  0
   -4.8954    0.6432    1.2473 C   0  0  0  0  0  0  0  0  0  0  0  0
   -5.9476    1.7052    1.5408 C   0  0  0  0  0  0  0  0  0  0  0  0
   -6.2351    2.4792    0.3771 O   0  0  0  0  0  0  0  0  0  0  0  0
   -5.0954    3.1753   -0.1222 C   0  0  0  0  0  0  0  0  0  0  0  0
   -3.9862    2.2085   -0.5168 C   0  0  0  0  0  0  0  0  0  0  0  0
   -1.1906    0.7866    0.8908 C   0  0  0  0  0  0  0  0  0  0  0  0
   -0.2537    1.3053   -0.2113 C   0  0  0  0  0  0  0  0  0  0  0  0
    1.1394    1.0296    0.3290 C   0  0  0  0  0  0  0  0  0  0  0  0
    0.9758   -0.1395    1.1750 N   0  0  0  0  0  0  0  0  0  0  0  0
    1.9764   -0.9486    1.6766 C   0  0  0  0  0  0  0  0  0  0  0  0
    1.7866   -1.8261    2.5112 O   0  0  0  0  0  0  0  0  0  0  0  0
    3.3469   -0.7224    1.1760 C   0  0  0  0  0  0  0  0  0  0  0  0
    4.1691    0.1254    1.9241 C   0  0  0  0  0  0  0  0  0  0  0  0
    5.4678    0.3704    1.4951 C   0  0  0  0  0  0  0  0  0  0  0  0
    5.9440   -0.2386    0.3312 C   0  0  0  0  0  0  0  0  0  0  0  0
    5.1299   -1.1050   -0.4126 C   0  0  0  0  0  0  0  0  0  0  0  0
    5.5326   -1.7451   -1.5558 O   0  0  0  0  0  0  0  0  0  0  0  0
    6.9029   -1.6445   -1.9218 C   0  0  0  0  0  0  0  0  0  0  0  0
    3.8072   -1.3523    0.0024 C   0  0  0  0  0  0  0  0  0  0  0  0
    2.9131   -2.3100   -0.7424 C   0  0  0  0  0  0  0  0  0  0  0  0
   -0.3767   -0.2423    1.6903 C   0  0  0  0  0  0  0  0  0  0  0  0
   -1.6566   -2.4760   -3.9898 H   0  0  0  0  0  0  0  0  0  0  0  0
   -2.2951   -0.9919   -3.2602 H   0  0  0  0  0  0  0  0  0  0  0  0
   -0.5478   -1.3747   -3.1485 H   0  0  0  0  0  0  0  0  0  0  0  0
   -0.6460   -1.2972   -0.7893 H   0  0  0  0  0  0  0  0  0  0  0  0
   -1.6962   -2.4308    0.0632 H   0  0  0  0  0  0  0  0  0  0  0  0
   -3.2872    1.9745    1.4742 H   0  0  0  0  0  0  0  0  0  0  0  0
   -5.3226   -0.0706    0.5369 H   0  0  0  0  0  0  0  0  0  0  0  0
   -4.6532    0.0862    2.1594 H   0  0  0  0  0  0  0  0  0  0  0  0
   -6.8785    1.2271    1.8615 H   0  0  0  0  0  0  0  0  0  0  0  0
   -5.6257    2.3724    2.3489 H   0  0  0  0  0  0  0  0  0  0  0  0
   -5.4133    3.7522   -0.9965 H   0  0  0  0  0  0  0  0  0  0  0  0
   -4.7486    3.8898    0.6336 H   0  0  0  0  0  0  0  0  0  0  0  0
   -3.1043    2.7642   -0.8545 H   0  0  0  0  0  0  0  0  0  0  0  0
   -4.3322    1.6064   -1.3637 H   0  0  0  0  0  0  0  0  0  0  0  0
   -1.3435    1.6242    1.5841 H   0  0  0  0  0  0  0  0  0  0  0  0
   -0.4008    0.7822   -1.1609 H   0  0  0  0  0  0  0  0  0  0  0  0
   -0.4092    2.3697   -0.4159 H   0  0  0  0  0  0  0  0  0  0  0  0
    1.8692    0.8602   -0.4666 H   0  0  0  0  0  0  0  0  0  0  0  0
    1.4880    1.8535    0.9616 H   0  0  0  0  0  0  0  0  0  0  0  0
    3.7998    0.5821    2.8388 H   0  0  0  0  0  0  0  0  0  0  0  0
    6.1167    1.0273    2.0691 H   0  0  0  0  0  0  0  0  0  0  0  0
    6.9649   -0.0207    0.0332 H   0  0  0  0  0  0  0  0  0  0  0  0
    7.1616   -0.6163   -2.1944 H   0  0  0  0  0  0  0  0  0  0  0  0
    7.0594   -2.2713   -2.8051 H   0  0  0  0  0  0  0  0  0  0  0  0
    7.5553   -2.0213   -1.1270 H   0  0  0  0  0  0  0  0  0  0  0  0
    2.7831   -3.2275   -0.1589 H   0  0  0  0  0  0  0  0  0  0  0  0
    1.9330   -1.8603   -0.9313 H   0  0  0  0  0  0  0  0  0  0  0  0
    3.3152   -2.5889   -1.7208 H   0  0  0  0  0  0  0  0  0  0  0  0
   -0.3592    0.0246    2.7542 H   0  0  0  0  0  0  0  0  0  0  0  0
   -0.7278   -1.2733    1.6295 H   0  0  0  0  0  0  0  0  0  0  0  0
  1  2  1  0
  2  3  1  0
  3  4  1  0
  4  5  2  0
  4  6  1  0
  6  7  1  0
  7  8  1  0
  8  9  1  0
  9 10  1  0
 10 11  1  0
 11 12  1  0
  6 13  1  0
 13 14  1  0
 14 15  1  0
 15 16  1  0
 16 17  1  0
 17 18  2  0
 17 19  1  0
 19 20  2  0
 20 21  1  0
 21 22  2  0
 22 23  1  0
 23 24  1  0
 24 25  1  0
 23 26  2  0
 26 27  1  0
 16 28  1  0
 12  7  1  0
 28 13  1  0
 26 19  1  0
  1 29  1  0
  1 30  1  0
  1 31  1  0
  3 32  1  0
  3 33  1  0
  7 34  1  0
  8 35  1  0
  8 36  1  0
  9 37  1  0
  9 38  1  0
 11 39  1  0
 11 40  1  0
 12 41  1  0
 12 42  1  0
 13 43  1  0
 14 44  1  0
 14 45  1  0
 15 46  1  0
 15 47  1  0
 20 48  1  0
 21 49  1  0
 22 50  1  0
 25 51  1  0
 25 52  1  0
 25 53  1  0
 27 54  1  0
 27 55  1  0
 27 56  1  0
 28 57  1  0
 28 58  1  0
M  END
$$$$
