
     RDKit          3D

 81 87  0  0  0  0  0  0  0  0999 V2000
    1.7057    3.9346   -0.7763 C   0  0  0  0  0  0  0  0  0  0  0  0
    1.8671    3.3799    0.6313 C   0  0  0  0  0  0  0  0  0  0  0  0
    2.3221    1.9405    0.6251 C   0  0  0  0  0  0  0  0  0  0  0  0
    3.6775    1.6485    0.6965 C   0  0  0  0  0  0  0  0  0  0  0  0
    4.0873    0.3206    0.6753 C   0  0  0  0  0  0  0  0  0  0  0  0
    3.2907   -0.7477    0.5893 N   0  0  0  0  0  0  0  0  0  0  0  0
    1.9770   -0.4869    0.5084 C   0  0  0  0  0  0  0  0  0  0  0  0
    1.1215   -1.5761    0.4150 C   0  0  0  0  0  0  0  0  0  0  0  0
   -0.2611   -1.4235    0.3158 C   0  0  0  0  0  0  0  0  0  0  0  0
   -0.7940   -0.1440    0.2902 C   0  0  0  0  0  0  0  0  0  0  0  0
   -2.1776    0.0650    0.2374 O   0  0  0  0  0  0  0  0  0  0  0  0
   -2.8267   -0.3906   -0.9106 C   0  0  0  0  0  0  0  0  0  0  0  0
   -2.2612   -0.9086   -1.8680 O   0  0  0  0  0  0  0  0  0  0  0  0
   -4.1989   -0.1872   -0.8448 N   0  0  0  0  0  0  0  0  0  0  0  0
   -4.8148    0.5438    0.2553 C   0  0  0  0  0  0  0  0  0  0  0  0
   -6.3187    0.7360    0.0765 C   0  0  0  0  0  0  0  0  0  0  0  0
   -6.9778   -0.6067   -0.2794 C   0  0  0  0  0  0  0  0  0  0  0  0
   -8.4501   -0.5901   -0.4160 N   0  0  0  0  0  0  0  0  0  0  0  0
   -8.9601    0.4487   -1.3234 C   0  0  0  0  0  0  0  0  0  0  0  0
  -10.4602    0.2705   -1.5650 C   0  0  0  0  0  0  0  0  0  0  0  0
  -11.2346    0.2828   -0.2520 C   0  0  0  0  0  0  0  0  0  0  0  0
  -10.6398   -0.7224    0.7272 C   0  0  0  0  0  0  0  0  0  0  0  0
   -9.1306   -0.5256    0.8865 C   0  0  0  0  0  0  0  0  0  0  0  0
   -6.3207   -1.2608   -1.5189 C   0  0  0  0  0  0  0  0  0  0  0  0
   -5.0411   -0.5613   -1.9697 C   0  0  0  0  0  0  0  0  0  0  0  0
    0.0262    0.9764    0.4061 C   0  0  0  0  0  0  0  0  0  0  0  0
    1.4281    0.8360    0.5139 C   0  0  0  0  0  0  0  0  0  0  0  0
    5.5435    0.2965    0.7404 C   0  0  0  0  0  0  0  0  0  0  0  0
    6.3962   -0.7316    0.7362 C   0  0  0  0  0  0  0  0  0  0  0  0
    7.8280   -0.4643    0.7986 C   0  0  0  0  0  0  0  0  0  0  0  0
    8.2758    0.8042    0.8618 C   0  0  0  0  0  0  0  0  0  0  0  0
    7.3156    1.9549    0.8631 C   0  0  0  0  0  0  0  0  0  0  0  0
    7.7150    3.1136    0.9031 O   0  0  0  0  0  0  0  0  0  0  0  0
    5.9930    1.5998    0.8031 N   0  0  0  0  0  0  0  0  0  0  0  0
    4.8766    2.5481    0.7876 C   0  0  0  0  0  0  0  0  0  0  0  0
    9.7214    1.1515    0.9097 C   0  0  0  0  0  0  0  0  0  0  0  0
   10.5927    0.0512    1.2478 O   0  0  0  0  0  0  0  0  0  0  0  0
   10.1426   -1.2108    1.4120 C   0  0  0  0  0  0  0  0  0  0  0  0
   10.8048   -2.0421    2.0356 O   0  0  0  0  0  0  0  0  0  0  0  0
    8.8100   -1.6084    0.7381 C   0  0  1  0  0  0  0  0  0  0  0  0
    8.2591   -2.7255    1.4489 O   0  0  0  0  0  0  0  0  0  0  0  0
    9.0636   -2.0222   -0.7276 C   0  0  0  0  0  0  0  0  0  0  0  0
    9.9417   -3.2590   -0.8926 C   0  0  0  0  0  0  0  0  0  0  0  0
    0.9512    3.3796   -1.3432 H   0  0  0  0  0  0  0  0  0  0  0  0
    1.3948    4.9833   -0.7349 H   0  0  0  0  0  0  0  0  0  0  0  0
    2.6473    3.8830   -1.3334 H   0  0  0  0  0  0  0  0  0  0  0  0
    0.9316    3.4851    1.1915 H   0  0  0  0  0  0  0  0  0  0  0  0
    2.5899    3.9963    1.1796 H   0  0  0  0  0  0  0  0  0  0  0  0
    1.5445   -2.5786    0.4171 H   0  0  0  0  0  0  0  0  0  0  0  0
   -0.9007   -2.2980    0.2452 H   0  0  0  0  0  0  0  0  0  0  0  0
   -4.6104   -0.0126    1.1782 H   0  0  0  0  0  0  0  0  0  0  0  0
   -4.3215    1.5187    0.3450 H   0  0  0  0  0  0  0  0  0  0  0  0
   -6.7379    1.1512    0.9994 H   0  0  0  0  0  0  0  0  0  0  0  0
   -6.4914    1.4742   -0.7161 H   0  0  0  0  0  0  0  0  0  0  0  0
   -6.7467   -1.2935    0.5488 H   0  0  0  0  0  0  0  0  0  0  0  0
   -8.7826    1.4512   -0.9147 H   0  0  0  0  0  0  0  0  0  0  0  0
   -8.4548    0.4009   -2.2940 H   0  0  0  0  0  0  0  0  0  0  0  0
  -10.8274    1.0711   -2.2170 H   0  0  0  0  0  0  0  0  0  0  0  0
  -10.6394   -0.6770   -2.0890 H   0  0  0  0  0  0  0  0  0  0  0  0
  -12.2898    0.0522   -0.4344 H   0  0  0  0  0  0  0  0  0  0  0  0
  -11.1946    1.2874    0.1866 H   0  0  0  0  0  0  0  0  0  0  0  0
  -10.8408   -1.7407    0.3704 H   0  0  0  0  0  0  0  0  0  0  0  0
  -11.1304   -0.6238    1.7020 H   0  0  0  0  0  0  0  0  0  0  0  0
   -8.9359    0.4310    1.3867 H   0  0  0  0  0  0  0  0  0  0  0  0
   -8.7601   -1.3197    1.5456 H   0  0  0  0  0  0  0  0  0  0  0  0
   -7.0044   -1.3167   -2.3737 H   0  0  0  0  0  0  0  0  0  0  0  0
   -6.0881   -2.3049   -1.2677 H   0  0  0  0  0  0  0  0  0  0  0  0
   -5.2826    0.3607   -2.5134 H   0  0  0  0  0  0  0  0  0  0  0  0
   -4.4982   -1.2070   -2.6685 H   0  0  0  0  0  0  0  0  0  0  0  0
   -0.4436    1.9549    0.4016 H   0  0  0  0  0  0  0  0  0  0  0  0
    6.0372   -1.7563    0.6877 H   0  0  0  0  0  0  0  0  0  0  0  0
    4.8927    3.1301    1.7141 H   0  0  0  0  0  0  0  0  0  0  0  0
    4.9758    3.2019   -0.0843 H   0  0  0  0  0  0  0  0  0  0  0  0
    9.9057    1.9206    1.6673 H   0  0  0  0  0  0  0  0  0  0  0  0
   10.0509    1.5462   -0.0572 H   0  0  0  0  0  0  0  0  0  0  0  0
    9.0202   -3.2129    1.8253 H   0  0  0  0  0  0  0  0  0  0  0  0
    9.5217   -1.1942   -1.2831 H   0  0  0  0  0  0  0  0  0  0  0  0
    8.1056   -2.2431   -1.2162 H   0  0  0  0  0  0  0  0  0  0  0  0
   10.9470   -3.0945   -0.4941 H   0  0  0  0  0  0  0  0  0  0  0  0
   10.0442   -3.5025   -1.9552 H   0  0  0  0  0  0  0  0  0  0  0  0
    9.5062   -4.1295   -0.3932 H   0  0  0  0  0  0  0  0  0  0  0  0
  1  2  1  0
  2  3  1  0
  3  4  2  0
  4  5  1  0
  5  6  2  0
  6  7  1  0
  7  8  2  0
  8  9  1  0
  9 10  2  0
 10 11  1  0
 11 12  1  0
 12 13  2  0
 12 14  1  0
 14 15  1  0
 15 16  1  0
 16 17  1  0
 17 18  1  0
 18 19  1  0
 19 20  1  0
 20 21  1  0
 21 22  1  0
 22 23  1  0
 17 24  1  0
 24 25  1  0
 10 26  1  0
 26 27  2  0
  5 28  1  0
 28 29  2  0
 29 30  1  0
 30 31  2  0
 31 32  1  0
 32 33  2  0
 32 34  1  0
 34 35  1  0
 31 36  1  0
 36 37  1  0
 37 38  1  0
 38 39  2  0
 38 40  1  0
 40 41  1  1
 40 42  1  0
 42 43  1  0
 27  3  1  0
 34 28  1  0
 35  4  1  0
 27  7  1  0
 40 30  1  0
 25 14  1  0
 23 18  1  0
  1 44  1  0
  1 45  1  0
  1 46  1  0
  2 47  1  0
  2 48  1  0
  8 49  1  0
  9 50  1  0
 15 51  1  0
 15 52  1  0
 16 53  1  0
 16 54  1  0
 17 55  1  0
 19 56  1  0
 19 57  1  0
 20 58  1  0
 20 59  1  0
 21 60  1  0
 21 61  1  0
 22 62  1  0
 22 63  1  0
 23 64  1  0
 23 65  1  0
 24 66  1  0
 24 67  1  0
 25 68  1  0
 25 69  1  0
 26 70  1  0
 29 71  1  0
 35 72  1  0
 35 73  1  0
 36 74  1  0
 36 75  1  0
 41 76  1  0
 42 77  1  0
 42 78  1  0
 43 79  1  0
 43 80  1  0
 43 81  1  0
M  END
$$$$
