
     RDKit          3D

 31 33  0  0  0  0  0  0  0  0999 V2000
   -0.9082   -0.9274    1.8692 N   0  0  0  0  0  0  0  0  0  0  0  0
    0.0379   -0.4344    1.0394 C   0  0  0  0  0  0  0  0  0  0  0  0
    1.3058   -0.7531    1.0961 N   0  0  0  0  0  0  0  0  0  0  0  0
    1.9014    0.0576    0.1603 C   0  0  0  0  0  0  0  0  0  0  0  0
    3.3349    0.0350   -0.0809 C   0  0  0  0  0  0  0  0  0  0  0  0
    4.1771   -0.8360    0.6174 C   0  0  0  0  0  0  0  0  0  0  0  0
    5.5475   -0.8330    0.3616 C   0  0  0  0  0  0  0  0  0  0  0  0
    6.0365    0.0463   -0.5904 C   0  0  0  0  0  0  0  0  0  0  0  0
    5.2603    0.9030   -1.2867 N   0  0  0  0  0  0  0  0  0  0  0  0
    3.9291    0.8772   -1.0157 C   0  0  0  0  0  0  0  0  0  0  0  0
    1.0498    0.8620   -0.4844 N   0  0  0  0  0  0  0  0  0  0  0  0
   -0.1609    0.5021    0.0282 N   0  0  0  0  0  0  0  0  0  0  0  0
   -1.3440    1.0730   -0.4777 C   0  0  0  0  0  0  0  0  0  0  0  0
   -1.2551    2.0713   -1.1943 O   0  0  0  0  0  0  0  0  0  0  0  0
   -2.7103    0.5711   -0.2074 C   0  0  0  0  0  0  0  0  0  0  0  0
   -3.0281   -0.7842   -0.3567 C   0  0  0  0  0  0  0  0  0  0  0  0
   -4.3340   -1.2212   -0.1167 C   0  0  0  0  0  0  0  0  0  0  0  0
   -5.3184   -0.3039    0.2519 C   0  0  0  0  0  0  0  0  0  0  0  0
   -6.9228   -0.8472    0.5481 Cl  0  0  0  0  0  0  0  0  0  0  0  0
   -5.0121    1.0509    0.3757 C   0  0  0  0  0  0  0  0  0  0  0  0
   -3.7082    1.4919    0.1381 C   0  0  0  0  0  0  0  0  0  0  0  0
   -1.6572   -0.3211    2.1934 H   0  0  0  0  0  0  0  0  0  0  0  0
   -0.5266   -1.4654    2.6467 H   0  0  0  0  0  0  0  0  0  0  0  0
    3.7712   -1.5186    1.3604 H   0  0  0  0  0  0  0  0  0  0  0  0
    6.2160   -1.5012    0.8927 H   0  0  0  0  0  0  0  0  0  0  0  0
    7.0964    0.0861   -0.8251 H   0  0  0  0  0  0  0  0  0  0  0  0
    3.3385    1.5822   -1.5971 H   0  0  0  0  0  0  0  0  0  0  0  0
   -2.2773   -1.5093   -0.6646 H   0  0  0  0  0  0  0  0  0  0  0  0
   -4.5789   -2.2751   -0.2272 H   0  0  0  0  0  0  0  0  0  0  0  0
   -5.7840    1.7680    0.6450 H   0  0  0  0  0  0  0  0  0  0  0  0
   -3.4763    2.5534    0.2125 H   0  0  0  0  0  0  0  0  0  0  0  0
  1  2  1  0
  2  3  2  0
  3  4  1  0
  4  5  1  0
  5  6  2  0
  6  7  1  0
  7  8  2  0
  8  9  1  0
  9 10  2  0
  4 11  2  0
 11 12  1  0
 12 13  1  0
 13 14  2  0
 13 15  1  0
 15 16  2  0
 16 17  1  0
 17 18  2  0
 18 19  1  0
 18 20  1  0
 20 21  2  0
 12  2  1  0
 21 15  1  0
 10  5  1  0
  1 22  1  0
  1 23  1  0
  6 24  1  0
  7 25  1  0
  8 26  1  0
 10 27  1  0
 16 28  1  0
 17 29  1  0
 20 30  1  0
 21 31  1  0
M  END
$$$$
