
     RDKit          3D

 26 28  0  0  0  0  0  0  0  0999 V2000
   -4.4922   -1.4516    0.4744 O   0  0  0  0  0  0  0  0  0  0  0  0
   -3.5787   -0.6545    0.3392 C   0  0  0  0  0  0  0  0  0  0  0  0
   -2.4304   -0.8014   -0.6139 C   0  0  0  0  0  0  0  0  0  0  0  0
   -1.5313    0.3974   -0.3025 C   0  0  0  0  0  0  0  0  0  0  0  0
   -0.1964   -0.0019    0.2582 C   0  0  0  0  0  0  0  0  0  0  0  0
    0.0501   -0.6062    1.4785 C   0  0  0  0  0  0  0  0  0  0  0  0
    1.3991   -0.8024    1.6023 N   0  0  0  0  0  0  0  0  0  0  0  0
    2.0497   -0.3554    0.4771 C   0  0  0  0  0  0  0  0  0  0  0  0
    3.4164   -0.3644    0.1665 C   0  0  0  0  0  0  0  0  0  0  0  0
    3.8009    0.1651   -1.0673 C   0  0  0  0  0  0  0  0  0  0  0  0
    2.8506    0.6780   -1.9394 C   0  0  0  0  0  0  0  0  0  0  0  0
    3.2475    1.1794   -3.1173 F   0  0  0  0  0  0  0  0  0  0  0  0
    1.4919    0.6849   -1.6235 C   0  0  0  0  0  0  0  0  0  0  0  0
    1.0765    0.1555   -0.3848 C   0  0  0  0  0  0  0  0  0  0  0  0
   -2.3451    1.2139    0.6781 C   0  0  0  0  0  0  0  0  0  0  0  0
   -2.0634    2.3159    1.1221 O   0  0  0  0  0  0  0  0  0  0  0  0
   -3.4640    0.5185    1.0046 N   0  0  0  0  0  0  0  0  0  0  0  0
   -1.9414   -1.7691   -0.4677 H   0  0  0  0  0  0  0  0  0  0  0  0
   -2.8180   -0.7419   -1.6364 H   0  0  0  0  0  0  0  0  0  0  0  0
   -1.4029    0.9991   -1.2097 H   0  0  0  0  0  0  0  0  0  0  0  0
   -0.6165   -0.9063    2.2770 H   0  0  0  0  0  0  0  0  0  0  0  0
    1.8572   -1.2171    2.4026 H   0  0  0  0  0  0  0  0  0  0  0  0
    4.1540   -0.7651    0.8545 H   0  0  0  0  0  0  0  0  0  0  0  0
    4.8483    0.1813   -1.3538 H   0  0  0  0  0  0  0  0  0  0  0  0
    0.7834    1.0986   -2.3323 H   0  0  0  0  0  0  0  0  0  0  0  0
   -4.1455    0.8497    1.6683 H   0  0  0  0  0  0  0  0  0  0  0  0
  1  2  2  0
  2  3  1  0
  3  4  1  0
  4  5  1  0
  5  6  2  0
  6  7  1  0
  7  8  1  0
  8  9  2  0
  9 10  1  0
 10 11  2  0
 11 12  1  0
 11 13  1  0
 13 14  2  0
  4 15  1  0
 15 16  2  0
 15 17  1  0
 17  2  1  0
 14  5  1  0
 14  8  1  0
  3 18  1  0
  3 19  1  0
  4 20  1  0
  6 21  1  0
  7 22  1  0
  9 23  1  0
 10 24  1  0
 13 25  1  0
 17 26  1  0
M  END
$$$$
