
     RDKit          3D

 50 53  0  0  0  0  0  0  0  0999 V2000
    0.8848    2.7900    0.9894 O   0  0  0  0  0  0  0  0  0  0  0  0
    0.8599    1.9222    0.1242 C   0  0  0  0  0  0  0  0  0  0  0  0
   -0.3675    1.1018   -0.2198 C   0  0  0  0  0  0  0  0  0  0  0  0
   -1.6276    1.6593    0.4456 C   0  0  0  0  0  0  0  0  0  0  0  0
   -2.8692    0.7932    0.1916 C   0  0  0  0  0  0  0  0  0  0  0  0
   -3.9420    1.1929    1.0819 N   0  0  0  0  0  0  0  0  0  0  0  0
   -5.0239    0.4252    1.3981 C   0  0  0  0  0  0  0  0  0  0  0  0
   -5.6453    0.6757    2.4280 O   0  0  0  0  0  0  0  0  0  0  0  0
   -5.4476   -0.6891    0.5127 C   0  0  0  0  0  0  0  0  0  0  0  0
   -6.2550   -1.6704    1.1232 C   0  0  0  0  0  0  0  0  0  0  0  0
   -6.8443   -2.6894    0.3764 C   0  0  0  0  0  0  0  0  0  0  0  0
   -6.6553   -2.7275   -0.9979 C   0  0  0  0  0  0  0  0  0  0  0  0
   -5.8630   -1.7586   -1.6164 C   0  0  0  0  0  0  0  0  0  0  0  0
   -5.2272   -0.7473   -0.8724 C   0  0  0  0  0  0  0  0  0  0  0  0
   -4.4406    0.1364   -1.6310 N   0  0  0  0  0  0  0  0  0  0  0  0
   -3.3773    0.9060   -1.2494 C   0  0  0  0  0  0  0  0  0  0  0  0
   -2.7930    1.5572   -2.1183 O   0  0  0  0  0  0  0  0  0  0  0  0
    1.9730    1.5644   -0.6030 N   0  0  0  0  0  0  0  0  0  0  0  0
    3.2600    2.2051   -0.3940 C   0  0  0  0  0  0  0  0  0  0  0  0
    3.9411    1.8072    0.9178 C   0  0  0  0  0  0  0  0  0  0  0  0
    4.2246    0.3865    0.9819 N   0  0  0  0  0  0  0  0  0  0  0  0
    3.4429   -0.5397    1.6150 C   0  0  0  0  0  0  0  0  0  0  0  0
    3.9158   -1.7554    1.4664 N   0  0  0  0  0  0  0  0  0  0  0  0
    5.0668   -1.6084    0.7319 C   0  0  0  0  0  0  0  0  0  0  0  0
    5.9721   -2.5860    0.2971 C   0  0  0  0  0  0  0  0  0  0  0  0
    7.0798   -2.1746   -0.4476 C   0  0  0  0  0  0  0  0  0  0  0  0
    8.2104   -3.3532   -0.9977 Cl  0  0  0  0  0  0  0  0  0  0  0  0
    7.2903   -0.8292   -0.7573 C   0  0  0  0  0  0  0  0  0  0  0  0
    6.3948    0.1589   -0.3314 C   0  0  0  0  0  0  0  0  0  0  0  0
    5.2901   -0.2691    0.4138 C   0  0  0  0  0  0  0  0  0  0  0  0
   -0.4744    1.0851   -1.3089 H   0  0  0  0  0  0  0  0  0  0  0  0
   -0.1879    0.0753    0.1209 H   0  0  0  0  0  0  0  0  0  0  0  0
   -1.4519    1.7223    1.5283 H   0  0  0  0  0  0  0  0  0  0  0  0
   -1.8019    2.6896    0.1082 H   0  0  0  0  0  0  0  0  0  0  0  0
   -2.6286   -0.2582    0.3929 H   0  0  0  0  0  0  0  0  0  0  0  0
   -3.7396    1.8765    1.8033 H   0  0  0  0  0  0  0  0  0  0  0  0
   -6.4501   -1.6262    2.1946 H   0  0  0  0  0  0  0  0  0  0  0  0
   -7.4673   -3.4336    0.8668 H   0  0  0  0  0  0  0  0  0  0  0  0
   -7.1253   -3.5082   -1.5913 H   0  0  0  0  0  0  0  0  0  0  0  0
   -5.7301   -1.8200   -2.6951 H   0  0  0  0  0  0  0  0  0  0  0  0
   -4.5663    0.1389   -2.6369 H   0  0  0  0  0  0  0  0  0  0  0  0
    1.9187    0.7763   -1.2388 H   0  0  0  0  0  0  0  0  0  0  0  0
    3.1039    3.2897   -0.4049 H   0  0  0  0  0  0  0  0  0  0  0  0
    3.8862    1.9465   -1.2545 H   0  0  0  0  0  0  0  0  0  0  0  0
    3.3217    2.0608    1.7851 H   0  0  0  0  0  0  0  0  0  0  0  0
    4.8924    2.3390    1.0301 H   0  0  0  0  0  0  0  0  0  0  0  0
    2.5434   -0.2754    2.1570 H   0  0  0  0  0  0  0  0  0  0  0  0
    5.8035   -3.6280    0.5422 H   0  0  0  0  0  0  0  0  0  0  0  0
    8.1636   -0.5379   -1.3374 H   0  0  0  0  0  0  0  0  0  0  0  0
    6.5625    1.2034   -0.5705 H   0  0  0  0  0  0  0  0  0  0  0  0
  1  2  2  0
  2  3  1  0
  3  4  1  0
  4  5  1  0
  5  6  1  0
  6  7  1  0
  7  8  2  0
  7  9  1  0
  9 10  2  0
 10 11  1  0
 11 12  2  0
 12 13  1  0
 13 14  2  0
 14 15  1  0
 15 16  1  0
 16 17  2  0
  2 18  1  0
 18 19  1  0
 19 20  1  0
 20 21  1  0
 21 22  1  0
 22 23  2  0
 23 24  1  0
 24 25  2  0
 25 26  1  0
 26 27  1  0
 26 28  2  0
 28 29  1  0
 29 30  2  0
 16  5  1  0
 30 21  1  0
 14  9  1  0
 30 24  1  0
  3 31  1  0
  3 32  1  0
  4 33  1  0
  4 34  1  0
  5 35  1  0
  6 36  1  0
 10 37  1  0
 11 38  1  0
 12 39  1  0
 13 40  1  0
 15 41  1  0
 18 42  1  0
 19 43  1  0
 19 44  1  0
 20 45  1  0
 20 46  1  0
 22 47  1  0
 25 48  1  0
 28 49  1  0
 29 50  1  0
M  END
$$$$
