
     RDKit          3D

 57 60  0  0  0  0  0  0  0  0999 V2000
    2.7222   -1.0899   -1.9253 O   0  0  0  0  0  0  0  0  0  0  0  0
    2.9456   -1.1286   -0.7197 C   0  0  0  0  0  0  0  0  0  0  0  0
    4.1734   -0.8364   -0.1735 N   0  0  0  0  0  0  0  0  0  0  0  0
    5.3105   -0.5235   -1.0055 C   0  0  0  0  0  0  0  0  0  0  0  0
    6.4077    0.0926   -0.1820 C   0  0  0  0  0  0  0  0  0  0  0  0
    6.3708    1.4599    0.1285 C   0  0  0  0  0  0  0  0  0  0  0  0
    7.3672    2.0332    0.9202 C   0  0  0  0  0  0  0  0  0  0  0  0
    8.4062    1.2459    1.4120 C   0  0  0  0  0  0  0  0  0  0  0  0
    8.4481   -0.1159    1.1176 C   0  0  0  0  0  0  0  0  0  0  0  0
    7.4522   -0.6919    0.3263 C   0  0  0  0  0  0  0  0  0  0  0  0
    1.8885   -1.5020    0.3169 C   0  0  0  0  0  0  0  0  0  0  0  0
    1.6333   -0.3143    1.2622 C   0  0  0  0  0  0  0  0  0  0  0  0
    0.1593   -0.1565    1.6172 C   0  0  0  0  0  0  0  0  0  0  0  0
   -0.6614    0.0016    0.4161 N   0  0  0  0  0  0  0  0  0  0  0  0
   -1.6275    1.0050    0.3989 C   0  0  0  0  0  0  0  0  0  0  0  0
   -1.8248    1.7320    1.3737 O   0  0  0  0  0  0  0  0  0  0  0  0
   -2.4701    1.1503   -0.8646 C   0  0  0  0  0  0  0  0  0  0  0  0
   -3.1878    2.4908   -0.9339 C   0  0  0  0  0  0  0  0  0  0  0  0
   -4.5653    2.2111   -0.3847 C   0  0  0  0  0  0  0  0  0  0  0  0
   -5.3517    3.1044   -0.1091 O   0  0  0  0  0  0  0  0  0  0  0  0
   -4.7546    0.8240   -0.3603 N   0  0  0  0  0  0  0  0  0  0  0  0
   -5.9455    0.1420    0.0185 C   0  0  0  0  0  0  0  0  0  0  0  0
   -7.0189    0.8077    0.6226 C   0  0  0  0  0  0  0  0  0  0  0  0
   -8.1820    0.1224    0.9978 C   0  0  0  0  0  0  0  0  0  0  0  0
   -8.2934   -1.2459    0.7764 C   0  0  0  0  0  0  0  0  0  0  0  0
   -7.2391   -1.9292    0.1823 C   0  0  0  0  0  0  0  0  0  0  0  0
   -6.0776   -1.2417   -0.1915 C   0  0  0  0  0  0  0  0  0  0  0  0
   -3.5947    0.1312   -0.8714 C   0  0  0  0  0  0  0  0  0  0  0  0
   -0.3130   -0.8333   -0.7366 C   0  0  0  0  0  0  0  0  0  0  0  0
    0.6002   -1.9953   -0.3593 C   0  0  0  0  0  0  0  0  0  0  0  0
    4.3438   -1.0140    0.8078 H   0  0  0  0  0  0  0  0  0  0  0  0
    5.0037    0.1560   -1.8100 H   0  0  0  0  0  0  0  0  0  0  0  0
    5.6495   -1.4528   -1.4796 H   0  0  0  0  0  0  0  0  0  0  0  0
    5.5635    2.0856   -0.2472 H   0  0  0  0  0  0  0  0  0  0  0  0
    7.3329    3.0947    1.1520 H   0  0  0  0  0  0  0  0  0  0  0  0
    9.1835    1.6952    2.0248 H   0  0  0  0  0  0  0  0  0  0  0  0
    9.2612   -0.7270    1.5013 H   0  0  0  0  0  0  0  0  0  0  0  0
    7.4989   -1.7565    0.1080 H   0  0  0  0  0  0  0  0  0  0  0  0
    2.2996   -2.3427    0.8919 H   0  0  0  0  0  0  0  0  0  0  0  0
    2.2190   -0.4468    2.1804 H   0  0  0  0  0  0  0  0  0  0  0  0
    1.9826    0.6223    0.8074 H   0  0  0  0  0  0  0  0  0  0  0  0
    0.0392    0.6948    2.2950 H   0  0  0  0  0  0  0  0  0  0  0  0
   -0.2075   -1.0429    2.1486 H   0  0  0  0  0  0  0  0  0  0  0  0
   -1.8118    1.0458   -1.7321 H   0  0  0  0  0  0  0  0  0  0  0  0
   -3.3034    2.8150   -1.9746 H   0  0  0  0  0  0  0  0  0  0  0  0
   -2.6995    3.2842   -0.3610 H   0  0  0  0  0  0  0  0  0  0  0  0
   -6.9810    1.8714    0.8357 H   0  0  0  0  0  0  0  0  0  0  0  0
   -8.9955    0.6662    1.4702 H   0  0  0  0  0  0  0  0  0  0  0  0
   -9.1955   -1.7765    1.0699 H   0  0  0  0  0  0  0  0  0  0  0  0
   -7.3160   -3.0000    0.0087 H   0  0  0  0  0  0  0  0  0  0  0  0
   -5.2866   -1.8227   -0.6553 H   0  0  0  0  0  0  0  0  0  0  0  0
   -3.8142   -0.1908   -1.8957 H   0  0  0  0  0  0  0  0  0  0  0  0
   -3.3679   -0.7413   -0.2499 H   0  0  0  0  0  0  0  0  0  0  0  0
   -1.2292   -1.2249   -1.1867 H   0  0  0  0  0  0  0  0  0  0  0  0
    0.1677   -0.1857   -1.4776 H   0  0  0  0  0  0  0  0  0  0  0  0
    0.8198   -2.6011   -1.2461 H   0  0  0  0  0  0  0  0  0  0  0  0
    0.0654   -2.6553    0.3366 H   0  0  0  0  0  0  0  0  0  0  0  0
  1  2  2  0
  2  3  1  0
  3  4  1  0
  4  5  1  0
  5  6  2  0
  6  7  1  0
  7  8  2  0
  8  9  1  0
  9 10  2  0
  2 11  1  0
 11 12  1  0
 12 13  1  0
 13 14  1  0
 14 15  1  0
 15 16  2  0
 15 17  1  0
 17 18  1  0
 18 19  1  0
 19 20  2  0
 19 21  1  0
 21 22  1  0
 22 23  2  0
 23 24  1  0
 24 25  2  0
 25 26  1  0
 26 27  2  0
 21 28  1  0
 14 29  1  0
 29 30  1  0
 10  5  1  0
 30 11  1  0
 28 17  1  0
 27 22  1  0
  3 31  1  0
  4 32  1  0
  4 33  1  0
  6 34  1  0
  7 35  1  0
  8 36  1  0
  9 37  1  0
 10 38  1  0
 11 39  1  0
 12 40  1  0
 12 41  1  0
 13 42  1  0
 13 43  1  0
 17 44  1  0
 18 45  1  0
 18 46  1  0
 23 47  1  0
 24 48  1  0
 25 49  1  0
 26 50  1  0
 27 51  1  0
 28 52  1  0
 28 53  1  0
 29 54  1  0
 29 55  1  0
 30 56  1  0
 30 57  1  0
M  END
$$$$
