
     RDKit          3D

 29 31  0  0  0  0  0  0  0  0999 V2000
    3.7625    2.2144   -0.3484 N   0  0  0  0  0  0  0  0  0  0  0  0
    3.2147    1.0028    0.0229 C   0  0  0  0  0  0  0  0  0  0  0  0
    1.8734    0.9221   -0.0003 N   0  0  0  0  0  0  0  0  0  0  0  0
    1.2815   -0.2463    0.3664 C   0  0  0  0  0  0  0  0  0  0  0  0
   -0.0932   -0.3691    0.3454 O   0  0  0  0  0  0  0  0  0  0  0  0
   -0.7535    0.8061   -0.1225 C   0  0  0  0  0  0  0  0  0  0  0  0
   -2.2519    0.5924   -0.1041 C   0  0  0  0  0  0  0  0  0  0  0  0
   -2.8760   -0.0702    0.9634 C   0  0  0  0  0  0  0  0  0  0  0  0
   -4.2628   -0.2291    0.9888 C   0  0  0  0  0  0  0  0  0  0  0  0
   -5.0428    0.2816   -0.0466 C   0  0  0  0  0  0  0  0  0  0  0  0
   -4.4374    0.9535   -1.1066 C   0  0  0  0  0  0  0  0  0  0  0  0
   -3.0504    1.1126   -1.1336 C   0  0  0  0  0  0  0  0  0  0  0  0
    2.0779   -1.3174    0.7734 C   0  0  0  0  0  0  0  0  0  0  0  0
    1.8184   -2.6020    1.2056 N   0  0  0  0  0  0  0  0  0  0  0  0
    3.0015   -3.1293    1.4398 C   0  0  0  0  0  0  0  0  0  0  0  0
    4.0125   -2.2441    1.1836 N   0  0  0  0  0  0  0  0  0  0  0  0
    3.4401   -1.0805    0.7597 C   0  0  0  0  0  0  0  0  0  0  0  0
    4.0727    0.0457    0.4071 N   0  0  0  0  0  0  0  0  0  0  0  0
    3.0881    2.9550   -0.2169 H   0  0  0  0  0  0  0  0  0  0  0  0
    4.6711    2.3316    0.0769 H   0  0  0  0  0  0  0  0  0  0  0  0
   -0.5288    1.6626    0.5262 H   0  0  0  0  0  0  0  0  0  0  0  0
   -0.4323    1.0217   -1.1497 H   0  0  0  0  0  0  0  0  0  0  0  0
   -2.2799   -0.4736    1.7799 H   0  0  0  0  0  0  0  0  0  0  0  0
   -4.7323   -0.7527    1.8172 H   0  0  0  0  0  0  0  0  0  0  0  0
   -6.1219    0.1562   -0.0266 H   0  0  0  0  0  0  0  0  0  0  0  0
   -5.0455    1.3545   -1.9131 H   0  0  0  0  0  0  0  0  0  0  0  0
   -2.5960    1.6439   -1.9670 H   0  0  0  0  0  0  0  0  0  0  0  0
    3.1872   -4.1359    1.7917 H   0  0  0  0  0  0  0  0  0  0  0  0
    5.0032   -2.4066    1.2814 H   0  0  0  0  0  0  0  0  0  0  0  0
  1  2  1  0
  2  3  2  0
  3  4  1  0
  4  5  1  0
  5  6  1  0
  6  7  1  0
  7  8  2  0
  8  9  1  0
  9 10  2  0
 10 11  1  0
 11 12  2  0
  4 13  2  0
 13 14  1  0
 14 15  2  0
 15 16  1  0
 16 17  1  0
 17 18  2  0
 18  2  1  0
 12  7  1  0
 17 13  1  0
  1 19  1  0
  1 20  1  0
  6 21  1  0
  6 22  1  0
  8 23  1  0
  9 24  1  0
 10 25  1  0
 11 26  1  0
 12 27  1  0
 15 28  1  0
 16 29  1  0
M  END
$$$$
