
     RDKit          3D

 35 38  0  0  0  0  0  0  0  0999 V2000
    2.4868   -1.8915   -1.6508 C   0  0  0  0  0  0  0  0  0  0  0  0
    2.7927   -1.3703   -0.2788 C   0  0  0  0  0  0  0  0  0  0  0  0
    3.9783   -1.7228    0.3554 C   0  0  0  0  0  0  0  0  0  0  0  0
    4.2310   -1.2178    1.6250 C   0  0  0  0  0  0  0  0  0  0  0  0
    3.2961   -0.3774    2.2224 C   0  0  0  0  0  0  0  0  0  0  0  0
    2.1268   -0.0678    1.5322 C   0  0  0  0  0  0  0  0  0  0  0  0
    1.1153    0.8299    2.1204 C   0  0  0  0  0  0  0  0  0  0  0  0
    1.4033    1.5729    3.2127 N   0  0  0  0  0  0  0  0  0  0  0  0
    0.3088    2.3161    3.4183 N   0  0  0  0  0  0  0  0  0  0  0  0
   -0.6977    2.0611    2.5469 C   0  0  0  0  0  0  0  0  0  0  0  0
   -0.2291    1.0863    1.6887 C   0  0  0  0  0  0  0  0  0  0  0  0
   -1.0500    0.5388    0.6234 C   0  0  0  0  0  0  0  0  0  0  0  0
   -1.1258   -0.8254    0.3893 C   0  0  0  0  0  0  0  0  0  0  0  0
   -1.9611   -1.2822   -0.6297 C   0  0  0  0  0  0  0  0  0  0  0  0
   -2.7100   -0.3968   -1.3846 C   0  0  0  0  0  0  0  0  0  0  0  0
   -3.5101   -0.8611   -2.3680 N   0  0  0  0  0  0  0  0  0  0  0  0
   -4.2201    0.0460   -3.0703 C   0  0  0  0  0  0  0  0  0  0  0  0
   -4.1684    1.4050   -2.8313 C   0  0  0  0  0  0  0  0  0  0  0  0
   -3.3367    1.8571   -1.8094 C   0  0  0  0  0  0  0  0  0  0  0  0
   -2.5833    0.9699   -1.0572 C   0  0  0  0  0  0  0  0  0  0  0  0
   -1.7886    1.4372   -0.0735 N   0  0  0  0  0  0  0  0  0  0  0  0
    1.8726   -0.5582    0.2929 N   0  0  0  0  0  0  0  0  0  0  0  0
    3.2577   -1.5704   -2.3581 H   0  0  0  0  0  0  0  0  0  0  0  0
    1.5215   -1.5149   -2.0046 H   0  0  0  0  0  0  0  0  0  0  0  0
    2.4419   -2.9849   -1.6382 H   0  0  0  0  0  0  0  0  0  0  0  0
    4.6968   -2.3760   -0.1291 H   0  0  0  0  0  0  0  0  0  0  0  0
    5.1500   -1.4702    2.1459 H   0  0  0  0  0  0  0  0  0  0  0  0
    3.4821    0.0314    3.2108 H   0  0  0  0  0  0  0  0  0  0  0  0
    0.3174    2.9812    4.1844 H   0  0  0  0  0  0  0  0  0  0  0  0
   -1.6455    2.5782    2.5988 H   0  0  0  0  0  0  0  0  0  0  0  0
   -0.5488   -1.5320    0.9757 H   0  0  0  0  0  0  0  0  0  0  0  0
   -2.0265   -2.3462   -0.8379 H   0  0  0  0  0  0  0  0  0  0  0  0
   -4.8507   -0.3636   -3.8543 H   0  0  0  0  0  0  0  0  0  0  0  0
   -4.7565    2.0983   -3.4214 H   0  0  0  0  0  0  0  0  0  0  0  0
   -3.2702    2.9203   -1.5946 H   0  0  0  0  0  0  0  0  0  0  0  0
  1  2  1  0
  2  3  2  0
  3  4  1  0
  4  5  2  0
  5  6  1  0
  6  7  1  0
  7  8  2  0
  8  9  1  0
  9 10  1  0
 10 11  2  0
 11 12  1  0
 12 13  2  0
 13 14  1  0
 14 15  2  0
 15 16  1  0
 16 17  2  0
 17 18  1  0
 18 19  2  0
 19 20  1  0
 20 21  2  0
  6 22  2  0
 22  2  1  0
 11  7  1  0
 21 12  1  0
 20 15  1  0
  1 23  1  0
  1 24  1  0
  1 25  1  0
  3 26  1  0
  4 27  1  0
  5 28  1  0
  9 29  1  0
 10 30  1  0
 13 31  1  0
 14 32  1  0
 17 33  1  0
 18 34  1  0
 19 35  1  0
M  END
$$$$
