
     RDKit          3D

 53 54  0  0  0  0  0  0  0  0999 V2000
   -3.3044   -2.4585    0.9989 C   0  0  0  0  0  0  0  0  0  0  0  0
   -1.8230   -2.5165    0.6400 C   0  0  2  0  0  0  0  0  0  0  0  0
   -1.3833   -1.5138   -0.4452 C   0  0  0  0  0  0  0  0  0  0  0  0
   -1.3590   -0.0454    0.0237 C   0  0  1  0  0  0  0  0  0  0  0  0
   -0.5583    0.8546   -0.9494 C   0  0  0  0  0  0  0  0  0  0  0  0
    0.9301    0.6008   -0.9382 C   0  0  0  0  0  0  0  0  0  0  0  0
    1.5673    0.0242   -2.0420 C   0  0  0  0  0  0  0  0  0  0  0  0
    2.9452   -0.2150   -2.0200 C   0  0  0  0  0  0  0  0  0  0  0  0
    3.7223    0.1166   -0.8991 C   0  0  0  0  0  0  0  0  0  0  0  0
    5.1717   -0.1397   -0.8773 C   0  0  0  0  0  0  0  0  0  0  0  0
    6.0095    0.3511   -1.8927 C   0  0  0  0  0  0  0  0  0  0  0  0
    7.3857    0.1079   -1.8724 C   0  0  0  0  0  0  0  0  0  0  0  0
    7.9476   -0.6323   -0.8354 C   0  0  0  0  0  0  0  0  0  0  0  0
    7.1352   -1.1285    0.1809 C   0  0  0  0  0  0  0  0  0  0  0  0
    5.7595   -0.8833    0.1597 C   0  0  0  0  0  0  0  0  0  0  0  0
    3.0741    0.7015    0.1996 C   0  0  0  0  0  0  0  0  0  0  0  0
    1.6972    0.9437    0.1811 C   0  0  0  0  0  0  0  0  0  0  0  0
   -2.7221    0.4712    0.1484 N   0  0  0  0  0  0  0  0  0  0  0  0
   -3.0194    1.5215    0.9929 C   0  0  0  0  0  0  0  0  0  0  0  0
   -2.2022    2.0335    1.7485 O   0  0  0  0  0  0  0  0  0  0  0  0
   -4.4599    1.9678    0.8887 C   0  0  0  0  0  0  0  0  0  0  0  0
   -4.7706    3.0988    1.8602 C   0  0  0  0  0  0  0  0  0  0  0  0
   -6.2029    3.5271    1.7357 C   0  0  0  0  0  0  0  0  0  0  0  0
   -7.0374    3.0893    0.9621 O   0  0  0  0  0  0  0  0  0  0  0  0
   -6.5174    4.5058    2.6050 O   0  0  0  0  0  0  0  0  0  0  0  0
   -1.4817   -3.9245    0.2072 C   0  0  0  0  0  0  0  0  0  0  0  0
   -0.8412   -4.7374    0.8527 O   0  0  0  0  0  0  0  0  0  0  0  0
   -1.9878   -4.2566   -0.9959 O   0  0  0  0  0  0  0  0  0  0  0  0
   -3.5390   -1.5614    1.5783 H   0  0  0  0  0  0  0  0  0  0  0  0
   -3.9336   -2.4655    0.1023 H   0  0  0  0  0  0  0  0  0  0  0  0
   -3.5941   -3.3214    1.6093 H   0  0  0  0  0  0  0  0  0  0  0  0
   -1.2355   -2.3280    1.5481 H   0  0  0  0  0  0  0  0  0  0  0  0
   -2.0258   -1.6109   -1.3306 H   0  0  0  0  0  0  0  0  0  0  0  0
   -0.3769   -1.8063   -0.7690 H   0  0  0  0  0  0  0  0  0  0  0  0
   -0.8955    0.0027    1.0170 H   0  0  0  0  0  0  0  0  0  0  0  0
   -0.7126    1.9132   -0.7001 H   0  0  0  0  0  0  0  0  0  0  0  0
   -0.9554    0.7390   -1.9668 H   0  0  0  0  0  0  0  0  0  0  0  0
    0.9993   -0.2500   -2.9279 H   0  0  0  0  0  0  0  0  0  0  0  0
    3.4117   -0.6778   -2.8876 H   0  0  0  0  0  0  0  0  0  0  0  0
    5.5923    0.9421   -2.7056 H   0  0  0  0  0  0  0  0  0  0  0  0
    8.0170    0.5001   -2.6653 H   0  0  0  0  0  0  0  0  0  0  0  0
    9.0175   -0.8219   -0.8188 H   0  0  0  0  0  0  0  0  0  0  0  0
    7.5694   -1.7088    0.9908 H   0  0  0  0  0  0  0  0  0  0  0  0
    5.1411   -1.2892    0.9579 H   0  0  0  0  0  0  0  0  0  0  0  0
    3.6447    0.9880    1.0810 H   0  0  0  0  0  0  0  0  0  0  0  0
    1.2291    1.4087    1.0476 H   0  0  0  0  0  0  0  0  0  0  0  0
   -3.3901    0.2408   -0.5777 H   0  0  0  0  0  0  0  0  0  0  0  0
   -5.1061    1.1054    1.0928 H   0  0  0  0  0  0  0  0  0  0  0  0
   -4.6468    2.2925   -0.1421 H   0  0  0  0  0  0  0  0  0  0  0  0
   -4.1308    3.9636    1.6517 H   0  0  0  0  0  0  0  0  0  0  0  0
   -4.5941    2.7692    2.8902 H   0  0  0  0  0  0  0  0  0  0  0  0
   -7.4622    4.6971    2.4285 H   0  0  0  0  0  0  0  0  0  0  0  0
   -1.6981   -5.1851   -1.1216 H   0  0  0  0  0  0  0  0  0  0  0  0
  1  2  1  0
  2  3  1  0
  3  4  1  0
  4  5  1  0
  5  6  1  0
  6  7  2  0
  7  8  1  0
  8  9  2  0
  9 10  1  0
 10 11  2  0
 11 12  1  0
 12 13  2  0
 13 14  1  0
 14 15  2  0
  9 16  1  0
 16 17  2  0
  4 18  1  0
 18 19  1  0
 19 20  2  0
 19 21  1  0
 21 22  1  0
 22 23  1  0
 23 24  2  0
 23 25  1  0
  2 26  1  0
 26 27  2  0
 26 28  1  0
 17  6  1  0
 15 10  1  0
  1 29  1  0
  1 30  1  0
  1 31  1  0
  2 32  1  1
  3 33  1  0
  3 34  1  0
  4 35  1  1
  5 36  1  0
  5 37  1  0
  7 38  1  0
  8 39  1  0
 11 40  1  0
 12 41  1  0
 13 42  1  0
 14 43  1  0
 15 44  1  0
 16 45  1  0
 17 46  1  0
 18 47  1  0
 21 48  1  0
 21 49  1  0
 22 50  1  0
 22 51  1  0
 25 52  1  0
 28 53  1  0
M  END
$$$$
