
     RDKit          3D

 41 43  0  0  0  0  0  0  0  0999 V2000
   -4.5264    3.4139   -0.9273 C   0  0  0  0  0  0  0  0  0  0  0  0
   -4.1332    2.3558   -1.7908 O   0  0  0  0  0  0  0  0  0  0  0  0
   -3.3363    1.3783   -1.2623 C   0  0  0  0  0  0  0  0  0  0  0  0
   -2.8131    1.3678    0.0315 C   0  0  0  0  0  0  0  0  0  0  0  0
   -2.0020    0.3065    0.4543 C   0  0  0  0  0  0  0  0  0  0  0  0
   -1.6962   -0.7513   -0.4127 C   0  0  0  0  0  0  0  0  0  0  0  0
   -0.8720   -1.8657    0.0405 C   0  0  0  0  0  0  0  0  0  0  0  0
   -1.2882   -3.1694    0.2414 C   0  0  0  0  0  0  0  0  0  0  0  0
   -0.2085   -3.8358    0.8500 C   0  0  0  0  0  0  0  0  0  0  0  0
   -0.1734   -5.2606    1.3049 C   0  0  0  0  0  0  0  0  0  0  0  0
   -1.1467   -5.5024    2.2280 F   0  0  0  0  0  0  0  0  0  0  0  0
   -0.4241   -6.1093    0.2689 F   0  0  0  0  0  0  0  0  0  0  0  0
    0.8316   -3.0099    1.0210 N   0  0  0  0  0  0  0  0  0  0  0  0
    0.4674   -1.8305    0.4363 N   0  0  0  0  0  0  0  0  0  0  0  0
    1.4532   -0.7976    0.3130 C   0  0  0  0  0  0  0  0  0  0  0  0
    2.6578   -0.9211    1.0331 C   0  0  0  0  0  0  0  0  0  0  0  0
    3.6541    0.0544    0.9373 C   0  0  0  0  0  0  0  0  0  0  0  0
    3.4518    1.1623    0.1147 C   0  0  0  0  0  0  0  0  0  0  0  0
    4.7242    2.3904   -0.0168 S   0  0  0  0  0  6  0  0  0  0  0  0
    4.4149    3.3419    1.3373 N   0  0  0  0  0  0  0  0  0  0  0  0
    4.4334    3.2329   -1.1536 O   0  0  0  0  0  0  0  0  0  0  0  0
    6.0016    1.7469    0.1710 O   0  0  0  0  0  0  0  0  0  0  0  0
    2.2782    1.2882   -0.6297 C   0  0  0  0  0  0  0  0  0  0  0  0
    1.2825    0.3084   -0.5313 C   0  0  0  0  0  0  0  0  0  0  0  0
   -2.2322   -0.7497   -1.7018 C   0  0  0  0  0  0  0  0  0  0  0  0
   -3.0352    0.3110   -2.1150 C   0  0  0  0  0  0  0  0  0  0  0  0
   -3.5222    0.2906   -3.3648 F   0  0  0  0  0  0  0  0  0  0  0  0
   -5.0933    3.0353   -0.0705 H   0  0  0  0  0  0  0  0  0  0  0  0
   -3.6597    3.9983   -0.6016 H   0  0  0  0  0  0  0  0  0  0  0  0
   -5.1839    4.0813   -1.4927 H   0  0  0  0  0  0  0  0  0  0  0  0
   -3.0195    2.1642    0.7389 H   0  0  0  0  0  0  0  0  0  0  0  0
   -1.6170    0.3105    1.4727 H   0  0  0  0  0  0  0  0  0  0  0  0
   -2.2696   -3.5751    0.0317 H   0  0  0  0  0  0  0  0  0  0  0  0
    0.7904   -5.5316    1.7441 H   0  0  0  0  0  0  0  0  0  0  0  0
    2.8381   -1.7789    1.6799 H   0  0  0  0  0  0  0  0  0  0  0  0
    4.5811   -0.0645    1.4951 H   0  0  0  0  0  0  0  0  0  0  0  0
    4.1496    4.2783    1.0272 H   0  0  0  0  0  0  0  0  0  0  0  0
    3.7270    2.9368    1.9698 H   0  0  0  0  0  0  0  0  0  0  0  0
    2.1344    2.1307   -1.3042 H   0  0  0  0  0  0  0  0  0  0  0  0
    0.4137    0.4267   -1.1685 H   0  0  0  0  0  0  0  0  0  0  0  0
   -2.0321   -1.5581   -2.3990 H   0  0  0  0  0  0  0  0  0  0  0  0
  1  2  1  0
  2  3  1  0
  3  4  2  0
  4  5  1  0
  5  6  2  0
  6  7  1  0
  7  8  2  0
  8  9  1  0
  9 10  1  0
 10 11  1  0
 10 12  1  0
  9 13  2  0
 13 14  1  0
 14 15  1  0
 15 16  2  0
 16 17  1  0
 17 18  2  0
 18 19  1  0
 19 20  1  0
 19 21  2  0
 19 22  2  0
 18 23  1  0
 23 24  2  0
  6 25  1  0
 25 26  2  0
 26 27  1  0
 26  3  1  0
 14  7  1  0
 24 15  1  0
  1 28  1  0
  1 29  1  0
  1 30  1  0
  4 31  1  0
  5 32  1  0
  8 33  1  0
 10 34  1  0
 16 35  1  0
 17 36  1  0
 20 37  1  0
 20 38  1  0
 23 39  1  0
 24 40  1  0
 25 41  1  0
M  END
$$$$
