
     RDKit          3D

 37 38  0  0  0  0  0  0  0  0999 V2000
   -4.5576    1.2359   -1.8681 C   0  0  0  0  0  0  0  0  0  0  0  0
   -3.6025    0.6866   -0.9376 N   0  0  0  0  0  0  0  0  0  0  0  0
   -2.7065   -0.2813   -1.3285 C   0  0  0  0  0  0  0  0  0  0  0  0
   -2.6898   -0.7601   -2.4597 O   0  0  0  0  0  0  0  0  0  0  0  0
   -1.6874   -0.7066   -0.2834 C   0  0  0  0  0  0  0  0  0  0  0  0
   -2.3268   -1.1134    1.0459 C   0  0  0  0  0  0  0  0  0  0  0  0
   -1.2746   -1.6161    2.0395 C   0  0  0  0  0  0  0  0  0  0  0  0
    0.1290   -1.0749    1.7618 C   0  0  0  0  0  0  0  0  0  0  0  0
    0.0185    0.3002    1.2389 N   0  0  0  0  0  0  0  0  0  0  0  0
    1.3084    1.3665    1.5359 S   0  0  0  0  0  6  0  0  0  0  0  0
    0.9558    2.6541    0.9755 O   0  0  0  0  0  0  0  0  0  0  0  0
    1.6938    1.2350    2.9247 O   0  0  0  0  0  0  0  0  0  0  0  0
    2.6342    0.6950    0.5509 C   0  0  0  0  0  0  0  0  0  0  0  0
    3.4825   -0.2726    1.1044 C   0  0  0  0  0  0  0  0  0  0  0  0
    4.5375   -0.7767    0.3429 C   0  0  0  0  0  0  0  0  0  0  0  0
    4.7422   -0.3005   -0.9490 C   0  0  0  0  0  0  0  0  0  0  0  0
    5.7563   -0.7865   -1.6760 F   0  0  0  0  0  0  0  0  0  0  0  0
    3.9168    0.6785   -1.4948 C   0  0  0  0  0  0  0  0  0  0  0  0
    2.8599    1.1889   -0.7400 C   0  0  0  0  0  0  0  0  0  0  0  0
   -0.6353    0.3926   -0.0959 C   0  0  0  0  0  0  0  0  0  0  0  0
   -4.9771    0.4447   -2.4952 H   0  0  0  0  0  0  0  0  0  0  0  0
   -4.0480    1.9695   -2.4984 H   0  0  0  0  0  0  0  0  0  0  0  0
   -5.3536    1.7243   -1.3014 H   0  0  0  0  0  0  0  0  0  0  0  0
   -3.4626    1.1766   -0.0628 H   0  0  0  0  0  0  0  0  0  0  0  0
   -1.1884   -1.5987   -0.6891 H   0  0  0  0  0  0  0  0  0  0  0  0
   -3.0930   -1.8826    0.8919 H   0  0  0  0  0  0  0  0  0  0  0  0
   -2.8453   -0.2566    1.4946 H   0  0  0  0  0  0  0  0  0  0  0  0
   -1.2391   -2.7120    2.0258 H   0  0  0  0  0  0  0  0  0  0  0  0
   -1.5884   -1.3330    3.0520 H   0  0  0  0  0  0  0  0  0  0  0  0
    0.7077   -1.1130    2.6896 H   0  0  0  0  0  0  0  0  0  0  0  0
    0.6416   -1.7071    1.0271 H   0  0  0  0  0  0  0  0  0  0  0  0
    3.3344   -0.6276    2.1220 H   0  0  0  0  0  0  0  0  0  0  0  0
    5.2072   -1.5288    0.7492 H   0  0  0  0  0  0  0  0  0  0  0  0
    4.1084    1.0423   -2.5000 H   0  0  0  0  0  0  0  0  0  0  0  0
    2.2256    1.9673   -1.1591 H   0  0  0  0  0  0  0  0  0  0  0  0
    0.1084    0.3050   -0.8947 H   0  0  0  0  0  0  0  0  0  0  0  0
   -1.0922    1.3852   -0.1797 H   0  0  0  0  0  0  0  0  0  0  0  0
  1  2  1  0
  2  3  1  0
  3  4  2  0
  3  5  1  0
  5  6  1  0
  6  7  1  0
  7  8  1  0
  8  9  1  0
  9 10  1  0
 10 11  2  0
 10 12  2  0
 10 13  1  0
 13 14  2  0
 14 15  1  0
 15 16  2  0
 16 17  1  0
 16 18  1  0
 18 19  2  0
  9 20  1  0
 20  5  1  0
 19 13  1  0
  1 21  1  0
  1 22  1  0
  1 23  1  0
  2 24  1  0
  5 25  1  0
  6 26  1  0
  6 27  1  0
  7 28  1  0
  7 29  1  0
  8 30  1  0
  8 31  1  0
 14 32  1  0
 15 33  1  0
 18 34  1  0
 19 35  1  0
 20 36  1  0
 20 37  1  0
M  END
$$$$
