
     RDKit          3D

 67 70  0  0  0  0  0  0  0  0999 V2000
    7.9190    4.4381    1.3056 C   0  0  0  0  0  0  0  0  0  0  0  0
    7.1702    3.3306    0.6264 C   0  0  0  0  0  0  0  0  0  0  0  0
    6.0286    2.7869    1.2229 C   0  0  0  0  0  0  0  0  0  0  0  0
    5.3326    1.7384    0.6086 C   0  0  0  0  0  0  0  0  0  0  0  0
    5.7652    1.2016   -0.6142 C   0  0  0  0  0  0  0  0  0  0  0  0
    5.0727    0.0976   -1.3100 C   0  0  0  0  0  0  0  0  0  0  0  0
    5.2959   -0.2335   -2.5691 N   0  0  0  0  0  0  0  0  0  0  0  0
    4.5159   -1.3172   -2.9420 C   0  0  0  0  0  0  0  0  0  0  0  0
    4.6599   -1.8585   -4.3185 C   0  0  0  0  0  0  0  0  0  0  0  0
    3.6583   -1.7756   -1.9599 C   0  0  0  0  0  0  0  0  0  0  0  0
    2.7513   -2.9028   -2.0203 C   0  0  0  0  0  0  0  0  0  0  0  0
    3.1550   -4.0188   -2.3485 O   0  0  0  0  0  0  0  0  0  0  0  0
    1.3919   -2.6848   -1.7364 N   0  0  0  0  0  0  0  0  0  0  0  0
    0.4915   -3.8281   -1.8066 C   0  0  0  0  0  0  0  0  0  0  0  0
   -0.6874   -3.7149   -0.8396 C   0  0  0  0  0  0  0  0  0  0  0  0
   -1.2862   -2.2977   -0.7310 C   0  0  0  0  0  0  0  0  0  0  0  0
   -2.8219   -2.3494   -0.7194 C   0  0  0  0  0  0  0  0  0  0  0  0
   -3.4652   -1.0633   -0.2287 C   0  0  0  0  0  0  0  0  0  0  0  0
   -2.8363   -0.1097    0.2166 O   0  0  0  0  0  0  0  0  0  0  0  0
   -4.8406   -1.0831   -0.3138 N   0  0  0  0  0  0  0  0  0  0  0  0
   -5.6427    0.0403    0.1400 C   0  0  0  0  0  0  0  0  0  0  0  0
   -5.7399    0.1061    1.6775 C   0  0  0  0  0  0  0  0  0  0  0  0
   -6.6303    1.1773    2.1615 N   0  0  0  0  0  0  0  0  0  0  0  0
   -6.0585    2.5314    1.9646 C   0  0  0  0  0  0  0  0  0  0  0  0
   -4.8960    2.8741    2.9138 C   0  0  0  0  0  0  0  0  0  0  0  0
   -5.2810    2.7159    4.2853 O   0  0  0  0  0  0  0  0  0  0  0  0
   -5.7429    1.3825    4.5301 C   0  0  0  0  0  0  0  0  0  0  0  0
   -6.9193    1.0193    3.6070 C   0  0  0  0  0  0  0  0  0  0  0  0
   -0.7444   -1.3934   -1.8454 C   0  0  0  0  0  0  0  0  0  0  0  0
    0.7820   -1.3537   -1.7879 C   0  0  0  0  0  0  0  0  0  0  0  0
    3.9223   -0.9065   -0.5110 S   0  0  0  0  0  0  0  0  0  0  0  0
    6.9135    1.7581   -1.2021 C   0  0  0  0  0  0  0  0  0  0  0  0
    7.6113    2.8045   -0.5896 C   0  0  0  0  0  0  0  0  0  0  0  0
    7.2307    5.2334    1.6092 H   0  0  0  0  0  0  0  0  0  0  0  0
    8.4363    4.0540    2.1897 H   0  0  0  0  0  0  0  0  0  0  0  0
    8.6639    4.8848    0.6392 H   0  0  0  0  0  0  0  0  0  0  0  0
    5.6704    3.1773    2.1732 H   0  0  0  0  0  0  0  0  0  0  0  0
    4.4449    1.3597    1.1083 H   0  0  0  0  0  0  0  0  0  0  0  0
    5.2888   -1.2047   -4.9312 H   0  0  0  0  0  0  0  0  0  0  0  0
    3.6831   -1.9413   -4.8055 H   0  0  0  0  0  0  0  0  0  0  0  0
    5.1239   -2.8491   -4.2919 H   0  0  0  0  0  0  0  0  0  0  0  0
    0.1327   -3.8944   -2.8409 H   0  0  0  0  0  0  0  0  0  0  0  0
    1.0309   -4.7583   -1.5994 H   0  0  0  0  0  0  0  0  0  0  0  0
   -0.3539   -4.0173    0.1621 H   0  0  0  0  0  0  0  0  0  0  0  0
   -1.4477   -4.4482   -1.1354 H   0  0  0  0  0  0  0  0  0  0  0  0
   -0.9509   -1.8784    0.2289 H   0  0  0  0  0  0  0  0  0  0  0  0
   -3.2024   -2.5769   -1.7221 H   0  0  0  0  0  0  0  0  0  0  0  0
   -3.1567   -3.1454   -0.0419 H   0  0  0  0  0  0  0  0  0  0  0  0
   -5.3143   -1.9284   -0.6055 H   0  0  0  0  0  0  0  0  0  0  0  0
   -5.1940    0.9519   -0.2669 H   0  0  0  0  0  0  0  0  0  0  0  0
   -6.6386   -0.0781   -0.3010 H   0  0  0  0  0  0  0  0  0  0  0  0
   -4.7380    0.1781    2.1150 H   0  0  0  0  0  0  0  0  0  0  0  0
   -6.1420   -0.8610    2.0084 H   0  0  0  0  0  0  0  0  0  0  0  0
   -5.7539    2.6888    0.9253 H   0  0  0  0  0  0  0  0  0  0  0  0
   -6.8693    3.2495    2.1458 H   0  0  0  0  0  0  0  0  0  0  0  0
   -4.6067    3.9206    2.7746 H   0  0  0  0  0  0  0  0  0  0  0  0
   -4.0104    2.2614    2.7129 H   0  0  0  0  0  0  0  0  0  0  0  0
   -6.0684    1.3353    5.5744 H   0  0  0  0  0  0  0  0  0  0  0  0
   -4.9067    0.6837    4.4163 H   0  0  0  0  0  0  0  0  0  0  0  0
   -7.7610    1.6827    3.8441 H   0  0  0  0  0  0  0  0  0  0  0  0
   -7.2681    0.0024    3.8204 H   0  0  0  0  0  0  0  0  0  0  0  0
   -1.0727   -1.7661   -2.8243 H   0  0  0  0  0  0  0  0  0  0  0  0
   -1.1306   -0.3727   -1.7524 H   0  0  0  0  0  0  0  0  0  0  0  0
    1.0866   -0.8102   -0.8884 H   0  0  0  0  0  0  0  0  0  0  0  0
    1.1714   -0.8151   -2.6586 H   0  0  0  0  0  0  0  0  0  0  0  0
    7.2781    1.3698   -2.1525 H   0  0  0  0  0  0  0  0  0  0  0  0
    8.5006    3.2011   -1.0742 H   0  0  0  0  0  0  0  0  0  0  0  0
  1  2  1  0
  2  3  2  0
  3  4  1  0
  4  5  2  0
  5  6  1  0
  6  7  2  0
  7  8  1  0
  8  9  1  0
  8 10  2  0
 10 11  1  0
 11 12  2  0
 11 13  1  0
 13 14  1  0
 14 15  1  0
 15 16  1  0
 16 17  1  0
 17 18  1  0
 18 19  2  0
 18 20  1  0
 20 21  1  0
 21 22  1  0
 22 23  1  0
 23 24  1  0
 24 25  1  0
 25 26  1  0
 26 27  1  0
 27 28  1  0
 16 29  1  0
 29 30  1  0
 10 31  1  0
  5 32  1  0
 32 33  2  0
 33  2  1  0
 31  6  1  0
 30 13  1  0
 28 23  1  0
  1 34  1  0
  1 35  1  0
  1 36  1  0
  3 37  1  0
  4 38  1  0
  9 39  1  0
  9 40  1  0
  9 41  1  0
 14 42  1  0
 14 43  1  0
 15 44  1  0
 15 45  1  0
 16 46  1  0
 17 47  1  0
 17 48  1  0
 20 49  1  0
 21 50  1  0
 21 51  1  0
 22 52  1  0
 22 53  1  0
 24 54  1  0
 24 55  1  0
 25 56  1  0
 25 57  1  0
 27 58  1  0
 27 59  1  0
 28 60  1  0
 28 61  1  0
 29 62  1  0
 29 63  1  0
 30 64  1  0
 30 65  1  0
 32 66  1  0
 33 67  1  0
M  END
$$$$
