
     RDKit          3D

 45 46  0  0  0  0  0  0  0  0999 V2000
   -0.6347    2.9319    0.7914 C   0  0  0  0  0  0  0  0  0  0  0  0
   -1.2483    1.7042    0.3539 N   0  0  0  0  0  0  0  0  0  0  0  0
   -1.4019    1.4219   -0.9876 C   0  0  0  0  0  0  0  0  0  0  0  0
   -1.1554    2.2255   -1.8825 O   0  0  0  0  0  0  0  0  0  0  0  0
   -1.9716    0.0437   -1.2770 C   0  0  0  0  0  0  0  0  0  0  0  0
   -1.5135   -0.9731   -0.2716 N   0  0  0  0  0  0  0  0  0  0  0  0
   -2.5594   -1.8627    0.1724 C   0  0  0  0  0  0  0  0  0  0  0  0
   -3.2343   -2.7119   -0.7114 C   0  0  0  0  0  0  0  0  0  0  0  0
   -4.2379   -3.5584   -0.2343 C   0  0  0  0  0  0  0  0  0  0  0  0
   -4.5602   -3.5552    1.1221 C   0  0  0  0  0  0  0  0  0  0  0  0
   -5.7975   -4.5961    1.7087 Cl  0  0  0  0  0  0  0  0  0  0  0  0
   -3.8853   -2.7152    2.0070 C   0  0  0  0  0  0  0  0  0  0  0  0
   -2.8811   -1.8687    1.5314 C   0  0  0  0  0  0  0  0  0  0  0  0
   -0.0786   -1.8281   -0.7156 S   0  0  0  0  0  6  0  0  0  0  0  0
    0.2574   -2.7443    0.3555 O   0  0  0  0  0  0  0  0  0  0  0  0
   -0.2335   -2.2981   -2.0771 O   0  0  0  0  0  0  0  0  0  0  0  0
    1.1651   -0.5605   -0.7053 C   0  0  0  0  0  0  0  0  0  0  0  0
    1.5646    0.0403   -1.8983 C   0  0  0  0  0  0  0  0  0  0  0  0
    2.5351    1.0436   -1.8693 C   0  0  0  0  0  0  0  0  0  0  0  0
    3.1218    1.4291   -0.6573 C   0  0  0  0  0  0  0  0  0  0  0  0
    4.0759    2.4085   -0.5355 O   0  0  0  0  0  0  0  0  0  0  0  0
    4.3891    3.1679   -1.6947 C   0  0  0  0  0  0  0  0  0  0  0  0
    2.7464    0.7802    0.5381 C   0  0  0  0  0  0  0  0  0  0  0  0
    3.3655    1.2101    1.6858 O   0  0  0  0  0  0  0  0  0  0  0  0
    3.3118    0.3451    2.8128 C   0  0  0  0  0  0  0  0  0  0  0  0
    1.7629   -0.2117    0.5104 C   0  0  0  0  0  0  0  0  0  0  0  0
    0.4382    2.8845    0.5919 H   0  0  0  0  0  0  0  0  0  0  0  0
   -1.0653    3.7783    0.2496 H   0  0  0  0  0  0  0  0  0  0  0  0
   -0.8094    3.0458    1.8635 H   0  0  0  0  0  0  0  0  0  0  0  0
   -1.2805    0.9154    0.9904 H   0  0  0  0  0  0  0  0  0  0  0  0
   -3.0635    0.1492   -1.2537 H   0  0  0  0  0  0  0  0  0  0  0  0
   -1.6971   -0.2509   -2.2948 H   0  0  0  0  0  0  0  0  0  0  0  0
   -2.9817   -2.7328   -1.7689 H   0  0  0  0  0  0  0  0  0  0  0  0
   -4.7574   -4.2203   -0.9225 H   0  0  0  0  0  0  0  0  0  0  0  0
   -4.1311   -2.7200    3.0658 H   0  0  0  0  0  0  0  0  0  0  0  0
   -2.3495   -1.2262    2.2271 H   0  0  0  0  0  0  0  0  0  0  0  0
    1.1211   -0.2470   -2.8494 H   0  0  0  0  0  0  0  0  0  0  0  0
    2.8118    1.5071   -2.8110 H   0  0  0  0  0  0  0  0  0  0  0  0
    4.8617    2.5419   -2.4585 H   0  0  0  0  0  0  0  0  0  0  0  0
    5.1100    3.9383   -1.4048 H   0  0  0  0  0  0  0  0  0  0  0  0
    3.5022    3.6745   -2.0896 H   0  0  0  0  0  0  0  0  0  0  0  0
    3.6354   -0.6696    2.5570 H   0  0  0  0  0  0  0  0  0  0  0  0
    2.3090    0.3412    3.2517 H   0  0  0  0  0  0  0  0  0  0  0  0
    4.0024    0.7351    3.5666 H   0  0  0  0  0  0  0  0  0  0  0  0
    1.4411   -0.7128    1.4178 H   0  0  0  0  0  0  0  0  0  0  0  0
  1  2  1  0
  2  3  1  0
  3  4  2  0
  3  5  1  0
  5  6  1  0
  6  7  1  0
  7  8  2  0
  8  9  1  0
  9 10  2  0
 10 11  1  0
 10 12  1  0
 12 13  2  0
  6 14  1  0
 14 15  2  0
 14 16  2  0
 14 17  1  0
 17 18  2  0
 18 19  1  0
 19 20  2  0
 20 21  1  0
 21 22  1  0
 20 23  1  0
 23 24  1  0
 24 25  1  0
 23 26  2  0
 13  7  1  0
 26 17  1  0
  1 27  1  0
  1 28  1  0
  1 29  1  0
  2 30  1  0
  5 31  1  0
  5 32  1  0
  8 33  1  0
  9 34  1  0
 12 35  1  0
 13 36  1  0
 18 37  1  0
 19 38  1  0
 22 39  1  0
 22 40  1  0
 22 41  1  0
 25 42  1  0
 25 43  1  0
 25 44  1  0
 26 45  1  0
M  END
$$$$
