
     RDKit          3D

 32 33  0  0  0  0  0  0  0  0999 V2000
   -4.1719    0.0901   -1.2817 C   0  0  0  0  0  0  0  0  0  0  0  0
   -4.2252   -0.2789    0.1907 C   0  0  0  0  0  0  0  0  0  0  0  0
   -3.1246   -1.1526    0.5380 N   0  0  0  0  0  0  0  0  0  0  0  0
   -1.8675   -0.6942    0.7649 C   0  0  0  0  0  0  0  0  0  0  0  0
   -1.5138    0.5261    0.9775 N   0  0  0  0  0  0  0  0  0  0  0  0
   -0.0340    0.6217    1.1237 C   0  0  1  0  0  0  0  0  0  0  0  0
    0.5034   -0.7480    1.5563 C   0  0  2  0  0  0  0  0  0  0  0  0
    1.8835   -0.9972    1.3068 O   0  0  0  0  0  0  0  0  0  0  0  0
    2.3345   -0.6319   -0.0049 C   0  0  2  0  0  0  0  0  0  0  0  0
    3.8195   -1.0022   -0.0945 C   0  0  0  0  0  0  0  0  0  0  0  0
    4.5853   -0.2354    0.8334 O   0  0  0  0  0  0  0  0  0  0  0  0
    2.0923    0.8628   -0.2375 C   0  0  1  0  0  0  0  0  0  0  0  0
    2.5844    1.2970   -1.5109 O   0  0  0  0  0  0  0  0  0  0  0  0
    0.5858    1.1337   -0.1871 C   0  0  2  0  0  0  0  0  0  0  0  0
    0.3782    2.5499   -0.3189 O   0  0  0  0  0  0  0  0  0  0  0  0
   -0.6211   -1.9166    0.7693 S   0  0  0  0  0  0  0  0  0  0  0  0
   -5.0267    0.7198   -1.5472 H   0  0  0  0  0  0  0  0  0  0  0  0
   -4.1972   -0.8053   -1.9118 H   0  0  0  0  0  0  0  0  0  0  0  0
   -3.2562    0.6408   -1.5207 H   0  0  0  0  0  0  0  0  0  0  0  0
   -5.1650   -0.8017    0.3987 H   0  0  0  0  0  0  0  0  0  0  0  0
   -4.2194    0.6242    0.8112 H   0  0  0  0  0  0  0  0  0  0  0  0
   -3.1810   -2.1013    0.1876 H   0  0  0  0  0  0  0  0  0  0  0  0
    0.1784    1.3504    1.9164 H   0  0  0  0  0  0  0  0  0  0  0  0
    0.3540   -0.8624    2.6359 H   0  0  0  0  0  0  0  0  0  0  0  0
    1.8091   -1.2306   -0.7592 H   0  0  0  0  0  0  0  0  0  0  0  0
    4.2169   -0.8205   -1.0974 H   0  0  0  0  0  0  0  0  0  0  0  0
    3.9697   -2.0593    0.1492 H   0  0  0  0  0  0  0  0  0  0  0  0
    4.2243   -0.4528    1.7148 H   0  0  0  0  0  0  0  0  0  0  0  0
    2.5817    1.4736    0.5321 H   0  0  0  0  0  0  0  0  0  0  0  0
    3.5475    1.4214   -1.4071 H   0  0  0  0  0  0  0  0  0  0  0  0
    0.0953    0.6758   -1.0556 H   0  0  0  0  0  0  0  0  0  0  0  0
    0.8595    2.8037   -1.1299 H   0  0  0  0  0  0  0  0  0  0  0  0
  1  2  1  0
  2  3  1  0
  3  4  1  0
  4  5  2  0
  5  6  1  0
  6  7  1  0
  7  8  1  0
  8  9  1  0
  9 10  1  0
 10 11  1  0
  9 12  1  0
 12 13  1  0
 12 14  1  0
 14 15  1  0
  7 16  1  0
 16  4  1  0
 14  6  1  0
  1 17  1  0
  1 18  1  0
  1 19  1  0
  2 20  1  0
  2 21  1  0
  3 22  1  0
  6 23  1  1
  7 24  1  1
  9 25  1  6
 10 26  1  0
 10 27  1  0
 11 28  1  0
 12 29  1  1
 13 30  1  0
 14 31  1  6
 15 32  1  0
M  END
$$$$
