
     RDKit          3D

 32 34  0  0  0  0  0  0  0  0999 V2000
    5.1533    0.8115   -0.1705 C   0  0  0  0  0  0  0  0  0  0  0  0
    4.3721    0.6294    1.1187 C   0  0  0  0  0  0  0  0  0  0  0  0
    2.9556    0.8635    0.9398 N   0  0  0  0  0  0  0  0  0  0  0  0
    2.2999    2.0452    1.1610 C   0  0  0  0  0  0  0  0  0  0  0  0
    1.0087    1.9421    0.9205 N   0  0  0  0  0  0  0  0  0  0  0  0
    0.8270    0.6309    0.5294 C   0  0  0  0  0  0  0  0  0  0  0  0
   -0.3270   -0.0806    0.1439 C   0  0  0  0  0  0  0  0  0  0  0  0
   -1.5672    0.5730    0.1203 N   0  0  0  0  0  0  0  0  0  0  0  0
   -2.8648    0.1564   -0.2079 C   0  0  0  0  0  0  0  0  0  0  0  0
   -3.1899   -1.1402   -0.6187 C   0  0  0  0  0  0  0  0  0  0  0  0
   -4.5077   -1.4807   -0.9291 C   0  0  0  0  0  0  0  0  0  0  0  0
   -4.7877   -2.7313   -1.3198 F   0  0  0  0  0  0  0  0  0  0  0  0
   -5.5324   -0.5532   -0.8419 C   0  0  0  0  0  0  0  0  0  0  0  0
   -5.2198    0.7321   -0.4363 C   0  0  0  0  0  0  0  0  0  0  0  0
   -6.1915    1.6495   -0.3431 F   0  0  0  0  0  0  0  0  0  0  0  0
   -3.9095    1.0911   -0.1219 C   0  0  0  0  0  0  0  0  0  0  0  0
   -0.1692   -1.3887   -0.1908 N   0  0  0  0  0  0  0  0  0  0  0  0
    1.0681   -1.9393   -0.1394 C   0  0  0  0  0  0  0  0  0  0  0  0
    1.1589   -3.3295   -0.5082 C   0  0  0  0  0  0  0  0  0  0  0  0
    1.2418   -4.4519   -0.8044 N   0  0  0  0  0  0  0  0  0  0  0  0
    2.2298   -1.3438    0.2155 N   0  0  0  0  0  0  0  0  0  0  0  0
    2.0282   -0.0573    0.5374 C   0  0  0  0  0  0  0  0  0  0  0  0
    6.2192    0.6349    0.0030 H   0  0  0  0  0  0  0  0  0  0  0  0
    5.0342    1.8266   -0.5638 H   0  0  0  0  0  0  0  0  0  0  0  0
    4.8128    0.1128   -0.9421 H   0  0  0  0  0  0  0  0  0  0  0  0
    4.7319    1.3256    1.8844 H   0  0  0  0  0  0  0  0  0  0  0  0
    4.5001   -0.3860    1.5093 H   0  0  0  0  0  0  0  0  0  0  0  0
    2.8077    2.9428    1.4926 H   0  0  0  0  0  0  0  0  0  0  0  0
   -1.4720    1.5455    0.4038 H   0  0  0  0  0  0  0  0  0  0  0  0
   -2.4394   -1.9167   -0.7093 H   0  0  0  0  0  0  0  0  0  0  0  0
   -6.5512   -0.8279   -1.0851 H   0  0  0  0  0  0  0  0  0  0  0  0
   -3.7200    2.1139    0.1911 H   0  0  0  0  0  0  0  0  0  0  0  0
  1  2  1  0
  2  3  1  0
  3  4  1  0
  4  5  2  0
  5  6  1  0
  6  7  2  0
  7  8  1  0
  8  9  1  0
  9 10  2  0
 10 11  1  0
 11 12  1  0
 11 13  2  0
 13 14  1  0
 14 15  1  0
 14 16  2  0
  7 17  1  0
 17 18  2  0
 18 19  1  0
 19 20  3  0
 18 21  1  0
 21 22  2  0
 22  3  1  0
 22  6  1  0
 16  9  1  0
  1 23  1  0
  1 24  1  0
  1 25  1  0
  2 26  1  0
  2 27  1  0
  4 28  1  0
  8 29  1  0
 10 30  1  0
 13 31  1  0
 16 32  1  0
M  END
$$$$
