
     RDKit          3D

 43 43  0  0  0  0  0  0  0  0999 V2000
    1.7724    3.6004   -2.4347 C   0  0  0  0  0  0  0  0  0  0  0  0
    1.5190    2.6439   -1.3025 C   0  0  0  0  0  0  0  0  0  0  0  0
    2.0615    2.7549   -0.2068 O   0  0  0  0  0  0  0  0  0  0  0  0
    0.6581    1.6138   -1.6055 N   0  0  0  0  0  0  0  0  0  0  0  0
    0.3350    0.5795   -0.5977 C   0  0  2  0  0  0  0  0  0  0  0  0
    1.6017   -0.2714   -0.2727 C   0  0  1  0  0  0  0  0  0  0  0  0
    2.0393   -0.0939    1.1091 N   0  0  0  0  0  0  0  0  0  0  0  0
    1.3970   -0.5190    2.2161 C   0  0  0  0  0  0  0  0  0  0  0  0
    0.6988   -1.5758    2.3950 N   0  0  0  0  0  0  0  0  0  0  0  0
    1.5553    0.3328    3.2453 N   0  0  0  0  0  0  0  0  0  0  0  0
    1.5253   -1.7024   -0.6678 C   0  0  0  0  0  0  0  0  0  0  0  0
    0.5731   -2.1396   -1.5040 C   0  0  0  0  0  0  0  0  0  0  0  0
    0.6304   -3.5529   -1.9666 C   0  0  0  0  0  0  0  0  0  0  0  0
    1.4080   -4.4085   -1.5812 O   0  0  0  0  0  0  0  0  0  0  0  0
   -0.2936   -3.8163   -2.9061 O   0  0  0  0  0  0  0  0  0  0  0  0
   -0.4222   -1.3144   -1.9869 O   0  0  0  0  0  0  0  0  0  0  0  0
   -0.8559   -0.2774   -1.0726 C   0  0  1  0  0  0  0  0  0  0  0  0
   -1.7783   -0.8876    0.0269 C   0  0  2  0  0  0  0  0  0  0  0  0
   -2.7751   -1.6918   -0.6613 O   0  0  0  0  0  0  0  0  0  0  0  0
   -2.5771    0.1068    0.8958 C   0  0  2  0  0  0  0  0  0  0  0  0
   -2.9325    1.2629    0.1196 O   0  0  0  0  0  0  0  0  0  0  0  0
   -1.9135    0.5596    2.1966 C   0  0  0  0  0  0  0  0  0  0  0  0
   -2.8381    1.4254    2.8738 O   0  0  0  0  0  0  0  0  0  0  0  0
    1.0388    3.4769   -3.2360 H   0  0  0  0  0  0  0  0  0  0  0  0
    2.7729    3.4218   -2.8370 H   0  0  0  0  0  0  0  0  0  0  0  0
    1.7014    4.6250   -2.0598 H   0  0  0  0  0  0  0  0  0  0  0  0
    0.4175    1.4373   -2.5748 H   0  0  0  0  0  0  0  0  0  0  0  0
    0.0411    1.1632    0.2758 H   0  0  0  0  0  0  0  0  0  0  0  0
    2.4388    0.1173   -0.8694 H   0  0  0  0  0  0  0  0  0  0  0  0
    2.3313    0.8816    1.2134 H   0  0  0  0  0  0  0  0  0  0  0  0
    0.7418   -2.1655    1.5630 H   0  0  0  0  0  0  0  0  0  0  0  0
    2.5159    0.6258    3.3791 H   0  0  0  0  0  0  0  0  0  0  0  0
    1.2053   -0.0958    4.0974 H   0  0  0  0  0  0  0  0  0  0  0  0
    2.3197   -2.3646   -0.3311 H   0  0  0  0  0  0  0  0  0  0  0  0
   -0.1743   -4.7671   -3.1019 H   0  0  0  0  0  0  0  0  0  0  0  0
   -1.5002    0.3521   -1.7007 H   0  0  0  0  0  0  0  0  0  0  0  0
   -1.2422   -1.6014    0.6535 H   0  0  0  0  0  0  0  0  0  0  0  0
   -3.2908   -1.0797   -1.2191 H   0  0  0  0  0  0  0  0  0  0  0  0
   -3.5367   -0.3533    1.1667 H   0  0  0  0  0  0  0  0  0  0  0  0
   -3.2655    1.9088    0.7790 H   0  0  0  0  0  0  0  0  0  0  0  0
   -1.0207    1.1580    2.0241 H   0  0  0  0  0  0  0  0  0  0  0  0
   -1.6746   -0.2847    2.8486 H   0  0  0  0  0  0  0  0  0  0  0  0
   -3.2080    0.9156    3.6174 H   0  0  0  0  0  0  0  0  0  0  0  0
  1  2  1  0
  2  3  2  0
  2  4  1  0
  4  5  1  0
  5  6  1  0
  6  7  1  0
  7  8  1  0
  8  9  2  3
  8 10  1  0
  6 11  1  0
 11 12  2  0
 12 13  1  0
 13 14  2  0
 13 15  1  0
 12 16  1  0
 16 17  1  0
 17 18  1  0
 18 19  1  0
 18 20  1  0
 20 21  1  0
 20 22  1  0
 22 23  1  0
 17  5  1  0
  1 24  1  0
  1 25  1  0
  1 26  1  0
  4 27  1  0
  5 28  1  1
  6 29  1  6
  7 30  1  0
  9 31  1  0
 10 32  1  0
 10 33  1  0
 11 34  1  0
 15 35  1  0
 17 36  1  6
 18 37  1  1
 19 38  1  0
 20 39  1  1
 21 40  1  0
 22 41  1  0
 22 42  1  0
 23 43  1  0
M  END
$$$$
