
     RDKit          3D

 47 49  0  0  0  0  0  0  0  0999 V2000
   -3.4396   -1.5199    2.5779 C   0  0  0  0  0  0  0  0  0  0  0  0
   -2.2236   -1.7298    1.6842 C   0  0  0  0  0  0  0  0  0  0  0  0
   -2.4544   -1.2602    0.2326 C   0  0  0  0  0  0  0  0  0  0  0  0
   -1.3532   -1.8495   -0.6648 C   0  0  0  0  0  0  0  0  0  0  0  0
   -1.6104   -2.7638   -1.4459 O   0  0  0  0  0  0  0  0  0  0  0  0
   -0.1146   -1.2849   -0.4614 N   0  0  0  0  0  0  0  0  0  0  0  0
    1.1162   -1.5960   -1.0698 C   0  0  0  0  0  0  0  0  0  0  0  0
    1.3115   -2.6651   -1.9431 C   0  0  0  0  0  0  0  0  0  0  0  0
    2.5745   -2.8916   -2.4928 C   0  0  0  0  0  0  0  0  0  0  0  0
    3.6395   -2.0504   -2.1757 C   0  0  0  0  0  0  0  0  0  0  0  0
    3.4493   -0.9778   -1.3020 C   0  0  0  0  0  0  0  0  0  0  0  0
    2.1927   -0.7395   -0.7290 C   0  0  0  0  0  0  0  0  0  0  0  0
    1.9333    0.3479    0.1365 N   0  0  0  0  0  0  0  0  0  0  0  0
    1.8734    1.6462   -0.5683 C   0  0  0  0  0  0  0  0  0  0  0  0
    2.8223    2.5611    0.2025 C   0  0  0  0  0  0  0  0  0  0  0  0
    2.8237    1.9631    1.5977 C   0  0  0  0  0  0  0  0  0  0  0  0
    2.8207    0.4678    1.3042 C   0  0  0  0  0  0  0  0  0  0  0  0
   -2.6146    0.2415    0.0086 C   0  0  0  0  0  0  0  0  0  0  0  0
   -3.2704    0.6772   -1.1563 C   0  0  0  0  0  0  0  0  0  0  0  0
   -3.4230    2.0376   -1.4291 C   0  0  0  0  0  0  0  0  0  0  0  0
   -2.9187    2.9862   -0.5445 C   0  0  0  0  0  0  0  0  0  0  0  0
   -2.2590    2.5740    0.6102 C   0  0  0  0  0  0  0  0  0  0  0  0
   -2.1039    1.2124    0.8839 C   0  0  0  0  0  0  0  0  0  0  0  0
   -4.3144   -2.0417    2.1767 H   0  0  0  0  0  0  0  0  0  0  0  0
   -3.2416   -1.9164    3.5789 H   0  0  0  0  0  0  0  0  0  0  0  0
   -3.6900   -0.4606    2.6823 H   0  0  0  0  0  0  0  0  0  0  0  0
   -1.3489   -1.2442    2.1315 H   0  0  0  0  0  0  0  0  0  0  0  0
   -1.9940   -2.8038    1.6782 H   0  0  0  0  0  0  0  0  0  0  0  0
   -3.3938   -1.7270   -0.1000 H   0  0  0  0  0  0  0  0  0  0  0  0
   -0.0381   -0.4685    0.1411 H   0  0  0  0  0  0  0  0  0  0  0  0
    0.5010   -3.3357   -2.2088 H   0  0  0  0  0  0  0  0  0  0  0  0
    2.7227   -3.7257   -3.1740 H   0  0  0  0  0  0  0  0  0  0  0  0
    4.6181   -2.2263   -2.6145 H   0  0  0  0  0  0  0  0  0  0  0  0
    4.2878   -0.3224   -1.0880 H   0  0  0  0  0  0  0  0  0  0  0  0
    0.8474    2.0252   -0.5030 H   0  0  0  0  0  0  0  0  0  0  0  0
    2.1482    1.5998   -1.6287 H   0  0  0  0  0  0  0  0  0  0  0  0
    2.5001    3.6059    0.1868 H   0  0  0  0  0  0  0  0  0  0  0  0
    3.8287    2.5064   -0.2298 H   0  0  0  0  0  0  0  0  0  0  0  0
    1.9104    2.2495    2.1332 H   0  0  0  0  0  0  0  0  0  0  0  0
    3.6870    2.2728    2.1928 H   0  0  0  0  0  0  0  0  0  0  0  0
    3.8448    0.1327    1.1044 H   0  0  0  0  0  0  0  0  0  0  0  0
    2.4279   -0.1044    2.1507 H   0  0  0  0  0  0  0  0  0  0  0  0
   -3.6643   -0.0486   -1.8669 H   0  0  0  0  0  0  0  0  0  0  0  0
   -3.9342    2.3541   -2.3347 H   0  0  0  0  0  0  0  0  0  0  0  0
   -3.0387    4.0453   -0.7559 H   0  0  0  0  0  0  0  0  0  0  0  0
   -1.8625    3.3138    1.3008 H   0  0  0  0  0  0  0  0  0  0  0  0
   -1.5753    0.9334    1.7912 H   0  0  0  0  0  0  0  0  0  0  0  0
  1  2  1  0
  2  3  1  0
  3  4  1  0
  4  5  2  0
  4  6  1  0
  6  7  1  0
  7  8  2  0
  8  9  1  0
  9 10  2  0
 10 11  1  0
 11 12  2  0
 12 13  1  0
 13 14  1  0
 14 15  1  0
 15 16  1  0
 16 17  1  0
  3 18  1  0
 18 19  2  0
 19 20  1  0
 20 21  2  0
 21 22  1  0
 22 23  2  0
 12  7  1  0
 17 13  1  0
 23 18  1  0
  1 24  1  0
  1 25  1  0
  1 26  1  0
  2 27  1  0
  2 28  1  0
  3 29  1  0
  6 30  1  0
  8 31  1  0
  9 32  1  0
 10 33  1  0
 11 34  1  0
 14 35  1  0
 14 36  1  0
 15 37  1  0
 15 38  1  0
 16 39  1  0
 16 40  1  0
 17 41  1  0
 17 42  1  0
 19 43  1  0
 20 44  1  0
 21 45  1  0
 22 46  1  0
 23 47  1  0
M  END
$$$$
