
     RDKit          3D

 38 40  0  0  0  0  0  0  0  0999 V2000
   -6.5615    0.0082    1.4079 C   0  0  0  0  0  0  0  0  0  0  0  0
   -5.7323   -0.1563    0.2634 O   0  0  0  0  0  0  0  0  0  0  0  0
   -4.3832   -0.0313    0.4528 C   0  0  0  0  0  0  0  0  0  0  0  0
   -3.7496    0.2401    1.6604 C   0  0  0  0  0  0  0  0  0  0  0  0
   -2.3573    0.3473    1.7047 C   0  0  0  0  0  0  0  0  0  0  0  0
   -1.5779    0.1853    0.5456 C   0  0  0  0  0  0  0  0  0  0  0  0
   -0.0958    0.3263    0.7176 C   0  0  0  0  0  0  0  0  0  0  0  0
    0.3977    0.3142    1.8440 O   0  0  0  0  0  0  0  0  0  0  0  0
    0.6556    0.4745   -0.4292 N   0  0  0  0  0  0  0  0  0  0  0  0
    2.0282    0.3632   -0.3189 N   0  0  0  0  0  0  0  0  0  0  0  0
    2.8522    1.4275   -0.0594 C   0  0  0  0  0  0  0  0  0  0  0  0
    2.6136    2.6178    0.0225 O   0  0  0  0  0  0  0  0  0  0  0  0
    4.1918    0.8475    0.0688 C   0  0  0  0  0  0  0  0  0  0  0  0
    5.4020    1.4572    0.3373 C   0  0  0  0  0  0  0  0  0  0  0  0
    6.5330    0.6362    0.3923 C   0  0  0  0  0  0  0  0  0  0  0  0
    6.4302   -0.7547    0.1788 C   0  0  0  0  0  0  0  0  0  0  0  0
    5.1945   -1.3506   -0.0937 C   0  0  0  0  0  0  0  0  0  0  0  0
    4.0912   -0.5209   -0.1412 C   0  0  0  0  0  0  0  0  0  0  0  0
    2.6857   -0.8355   -0.4062 C   0  0  0  0  0  0  0  0  0  0  0  0
    2.2639   -1.9442   -0.6780 O   0  0  0  0  0  0  0  0  0  0  0  0
   -2.2152   -0.1066   -0.6760 C   0  0  0  0  0  0  0  0  0  0  0  0
   -1.4254   -0.2761   -1.7868 O   0  0  0  0  0  0  0  0  0  0  0  0
   -2.0345   -0.8391   -2.9459 C   0  0  0  0  0  0  0  0  0  0  0  0
   -3.6149   -0.2015   -0.7055 C   0  0  0  0  0  0  0  0  0  0  0  0
   -7.6003   -0.1201    1.0888 H   0  0  0  0  0  0  0  0  0  0  0  0
   -6.3480   -0.7559    2.1627 H   0  0  0  0  0  0  0  0  0  0  0  0
   -6.4630    1.0158    1.8249 H   0  0  0  0  0  0  0  0  0  0  0  0
   -4.3012    0.3770    2.5846 H   0  0  0  0  0  0  0  0  0  0  0  0
   -1.8771    0.5646    2.6584 H   0  0  0  0  0  0  0  0  0  0  0  0
    0.2448    0.2425   -1.3288 H   0  0  0  0  0  0  0  0  0  0  0  0
    5.4668    2.5283    0.5005 H   0  0  0  0  0  0  0  0  0  0  0  0
    7.5068    1.0747    0.6042 H   0  0  0  0  0  0  0  0  0  0  0  0
    7.3263   -1.3712    0.2288 H   0  0  0  0  0  0  0  0  0  0  0  0
    5.1019   -2.4192   -0.2588 H   0  0  0  0  0  0  0  0  0  0  0  0
   -2.7385   -0.1332   -3.3977 H   0  0  0  0  0  0  0  0  0  0  0  0
   -2.5173   -1.7956   -2.7191 H   0  0  0  0  0  0  0  0  0  0  0  0
   -1.2425   -1.0312   -3.6761 H   0  0  0  0  0  0  0  0  0  0  0  0
   -4.1509   -0.4052   -1.6277 H   0  0  0  0  0  0  0  0  0  0  0  0
  1  2  1  0
  2  3  1  0
  3  4  2  0
  4  5  1  0
  5  6  2  0
  6  7  1  0
  7  8  2  0
  7  9  1  0
  9 10  1  0
 10 11  1  0
 11 12  2  0
 11 13  1  0
 13 14  2  0
 14 15  1  0
 15 16  2  0
 16 17  1  0
 17 18  2  0
 18 19  1  0
 19 20  2  0
  6 21  1  0
 21 22  1  0
 22 23  1  0
 21 24  2  0
 24  3  1  0
 19 10  1  0
 18 13  1  0
  1 25  1  0
  1 26  1  0
  1 27  1  0
  4 28  1  0
  5 29  1  0
  9 30  1  0
 14 31  1  0
 15 32  1  0
 16 33  1  0
 17 34  1  0
 23 35  1  0
 23 36  1  0
 23 37  1  0
 24 38  1  0
M  END
$$$$
