
     RDKit          3D

 61 64  0  0  0  0  0  0  0  0999 V2000
    2.4408   -3.4229    0.7947 C   0  0  0  0  0  0  0  0  0  0  0  0
    1.7174   -2.1447    0.3822 C   0  0  1  0  0  0  0  0  0  0  0  0
    0.7607   -1.8144    1.3930 O   0  0  0  0  0  0  0  0  0  0  0  0
   -0.6017   -2.1286    1.0546 C   0  0  0  0  0  0  0  0  0  0  0  0
   -1.3301   -0.9505    0.2969 C   0  0  1  0  0  0  0  0  0  0  0  0
   -1.0287   -0.9937   -1.2211 C   0  0  0  0  0  0  0  0  0  0  0  0
   -0.5169    0.1215   -1.9129 C   0  0  0  0  0  0  0  0  0  0  0  0
   -0.2535    0.0708   -3.2854 C   0  0  0  0  0  0  0  0  0  0  0  0
   -0.5030   -1.0950   -4.0017 C   0  0  0  0  0  0  0  0  0  0  0  0
   -1.0215   -2.2081   -3.3482 C   0  0  0  0  0  0  0  0  0  0  0  0
   -1.2857   -2.1569   -1.9759 C   0  0  0  0  0  0  0  0  0  0  0  0
   -2.8725   -1.1119    0.4985 C   0  0  0  0  0  0  0  0  0  0  0  0
   -3.6228    0.2006    0.2453 C   0  0  0  0  0  0  0  0  0  0  0  0
   -3.0919    1.3371    1.1588 C   0  0  1  0  0  0  0  0  0  0  0  0
   -2.9734    2.6559    0.3731 C   0  0  0  0  0  0  0  0  0  0  0  0
   -4.3904    3.2292    0.4026 C   0  0  0  0  0  0  0  0  0  0  0  0
   -4.9358    2.6909    1.7012 C   0  0  0  0  0  0  0  0  0  0  0  0
   -5.9654    3.0320    2.2569 O   0  0  0  0  0  0  0  0  0  0  0  0
   -4.0908    1.6934    2.1466 N   0  0  0  0  0  0  0  0  0  0  0  0
   -1.7596    0.9334    1.8343 C   0  0  0  0  0  0  0  0  0  0  0  0
   -0.8390    0.3295    0.8817 N   0  0  0  0  0  0  0  0  0  0  0  0
    2.6725   -0.9744    0.2541 C   0  0  0  0  0  0  0  0  0  0  0  0
    3.2976   -0.4208    1.3838 C   0  0  0  0  0  0  0  0  0  0  0  0
    4.1677    0.6734    1.2715 C   0  0  0  0  0  0  0  0  0  0  0  0
    4.8553    1.2413    2.4925 C   0  0  0  0  0  0  0  0  0  0  0  0
    4.9253    2.6022    2.4741 F   0  0  0  0  0  0  0  0  0  0  0  0
    6.1396    0.8023    2.6105 F   0  0  0  0  0  0  0  0  0  0  0  0
    4.2413    0.9172    3.6630 F   0  0  0  0  0  0  0  0  0  0  0  0
    4.4148    1.2143   -0.0014 C   0  0  0  0  0  0  0  0  0  0  0  0
    3.7925    0.6893   -1.1450 C   0  0  0  0  0  0  0  0  0  0  0  0
    4.0618    1.2793   -2.5089 C   0  0  0  0  0  0  0  0  0  0  0  0
    4.3819    2.6021   -2.4611 F   0  0  0  0  0  0  0  0  0  0  0  0
    2.9973    1.1866   -3.3561 F   0  0  0  0  0  0  0  0  0  0  0  0
    5.1002    0.6651   -3.1414 F   0  0  0  0  0  0  0  0  0  0  0  0
    2.9371   -0.4147   -1.0051 C   0  0  0  0  0  0  0  0  0  0  0  0
    1.7319   -4.2552    0.8617 H   0  0  0  0  0  0  0  0  0  0  0  0
    3.2233   -3.6889    0.0768 H   0  0  0  0  0  0  0  0  0  0  0  0
    2.9000   -3.3255    1.7846 H   0  0  0  0  0  0  0  0  0  0  0  0
    1.2304   -2.3228   -0.5798 H   0  0  0  0  0  0  0  0  0  0  0  0
   -0.6567   -3.0909    0.5338 H   0  0  0  0  0  0  0  0  0  0  0  0
   -1.0918   -2.2769    2.0249 H   0  0  0  0  0  0  0  0  0  0  0  0
   -0.3098    1.0533   -1.3894 H   0  0  0  0  0  0  0  0  0  0  0  0
    0.1499    0.9456   -3.7910 H   0  0  0  0  0  0  0  0  0  0  0  0
   -0.3003   -1.1320   -5.0691 H   0  0  0  0  0  0  0  0  0  0  0  0
   -1.2276   -3.1168   -3.9086 H   0  0  0  0  0  0  0  0  0  0  0  0
   -1.7039   -3.0448   -1.5064 H   0  0  0  0  0  0  0  0  0  0  0  0
   -3.0950   -1.4347    1.5256 H   0  0  0  0  0  0  0  0  0  0  0  0
   -3.2877   -1.8936   -0.1502 H   0  0  0  0  0  0  0  0  0  0  0  0
   -4.6953    0.0319    0.4048 H   0  0  0  0  0  0  0  0  0  0  0  0
   -3.5123    0.4656   -0.8132 H   0  0  0  0  0  0  0  0  0  0  0  0
   -2.5920    2.5366   -0.6459 H   0  0  0  0  0  0  0  0  0  0  0  0
   -2.3039    3.3566    0.8902 H   0  0  0  0  0  0  0  0  0  0  0  0
   -4.9977    2.8483   -0.4234 H   0  0  0  0  0  0  0  0  0  0  0  0
   -4.3855    4.3212    0.4004 H   0  0  0  0  0  0  0  0  0  0  0  0
   -4.3904    1.1067    2.9167 H   0  0  0  0  0  0  0  0  0  0  0  0
   -1.2834    1.8165    2.2763 H   0  0  0  0  0  0  0  0  0  0  0  0
   -1.9377    0.2493    2.6752 H   0  0  0  0  0  0  0  0  0  0  0  0
    0.0668    0.1379    1.3251 H   0  0  0  0  0  0  0  0  0  0  0  0
    3.0929   -0.8466    2.3676 H   0  0  0  0  0  0  0  0  0  0  0  0
    5.0956    2.0611   -0.1003 H   0  0  0  0  0  0  0  0  0  0  0  0
    2.4591   -0.8329   -1.8922 H   0  0  0  0  0  0  0  0  0  0  0  0
  1  2  1  0
  2  3  1  0
  3  4  1  0
  5  4  1  1
  5  6  1  0
  6  7  2  0
  7  8  1  0
  8  9  2  0
  9 10  1  0
 10 11  2  0
  5 12  1  0
 12 13  1  0
 13 14  1  0
 14 15  1  0
 15 16  1  0
 16 17  1  0
 17 18  2  0
 17 19  1  0
 14 20  1  0
 20 21  1  0
  2 22  1  0
 22 23  2  0
 23 24  1  0
 24 25  1  0
 25 26  1  0
 25 27  1  0
 25 28  1  0
 24 29  2  0
 29 30  1  0
 30 31  1  0
 31 32  1  0
 31 33  1  0
 31 34  1  0
 30 35  2  0
 21  5  1  0
 35 22  1  0
 11  6  1  0
 14 19  1  1
  1 36  1  0
  1 37  1  0
  1 38  1  0
  2 39  1  6
  4 40  1  0
  4 41  1  0
  7 42  1  0
  8 43  1  0
  9 44  1  0
 10 45  1  0
 11 46  1  0
 12 47  1  0
 12 48  1  0
 13 49  1  0
 13 50  1  0
 15 51  1  0
 15 52  1  0
 16 53  1  0
 16 54  1  0
 19 55  1  0
 20 56  1  0
 20 57  1  0
 21 58  1  0
 23 59  1  0
 29 60  1  0
 35 61  1  0
M  END
$$$$
