
     RDKit          3D

 52 54  0  0  0  0  0  0  0  0999 V2000
    6.9713   -1.9796   -1.8703 C   0  0  0  0  0  0  0  0  0  0  0  0
    6.2922   -1.6074   -0.6788 O   0  0  0  0  0  0  0  0  0  0  0  0
    5.5205   -0.4760   -0.7240 C   0  0  0  0  0  0  0  0  0  0  0  0
    5.2605    0.2758   -1.8797 C   0  0  0  0  0  0  0  0  0  0  0  0
    4.4531    1.4132   -1.8348 C   0  0  0  0  0  0  0  0  0  0  0  0
    3.8753    1.8440   -0.6395 C   0  0  0  0  0  0  0  0  0  0  0  0
    4.1334    1.0953    0.5176 C   0  0  0  0  0  0  0  0  0  0  0  0
    4.9364   -0.0504    0.4937 C   0  0  0  0  0  0  0  0  0  0  0  0
    4.9725   -0.5588    1.8250 C   0  0  0  0  0  0  0  0  0  0  0  0
    4.2049    0.2624    2.6168 C   0  0  0  0  0  0  0  0  0  0  0  0
    3.6981    1.2559    1.8202 N   0  0  0  0  0  0  0  0  0  0  0  0
    2.8048    2.3054    2.2912 C   0  0  0  0  0  0  0  0  0  0  0  0
    1.3150    2.0065    2.1792 C   0  0  0  0  0  0  0  0  0  0  0  0
    0.5228    2.7736    2.7306 O   0  0  0  0  0  0  0  0  0  0  0  0
    0.9560    0.9002    1.4299 N   0  0  0  0  0  0  0  0  0  0  0  0
   -0.3429    0.4225    1.1568 C   0  0  0  0  0  0  0  0  0  0  0  0
   -0.4427   -0.7254    0.3631 C   0  0  0  0  0  0  0  0  0  0  0  0
   -1.6934   -1.2640    0.0459 C   0  0  0  0  0  0  0  0  0  0  0  0
   -2.8658   -0.6708    0.5159 C   0  0  0  0  0  0  0  0  0  0  0  0
   -4.0128   -1.3010    0.1280 O   0  0  0  0  0  0  0  0  0  0  0  0
   -5.2677   -0.8235    0.6177 C   0  0  0  0  0  0  0  0  0  0  0  0
   -5.8489    0.3248   -0.2357 C   0  0  0  0  0  0  0  0  0  0  0  0
   -6.3632    0.0169   -1.5845 N   0  0  0  0  0  0  0  0  0  0  0  0
   -5.3183   -0.4579   -2.4892 C   0  0  0  0  0  0  0  0  0  0  0  0
   -7.4941   -0.9056   -1.5668 C   0  0  0  0  0  0  0  0  0  0  0  0
   -2.7705    0.4742    1.3029 C   0  0  0  0  0  0  0  0  0  0  0  0
   -1.5161    1.0167    1.6215 C   0  0  0  0  0  0  0  0  0  0  0  0
    7.6470   -1.1863   -2.2072 H   0  0  0  0  0  0  0  0  0  0  0  0
    7.5795   -2.8614   -1.6466 H   0  0  0  0  0  0  0  0  0  0  0  0
    6.2618   -2.2564   -2.6566 H   0  0  0  0  0  0  0  0  0  0  0  0
    5.6760   -0.0063   -2.8420 H   0  0  0  0  0  0  0  0  0  0  0  0
    4.2700    1.9756   -2.7487 H   0  0  0  0  0  0  0  0  0  0  0  0
    3.2485    2.7306   -0.6243 H   0  0  0  0  0  0  0  0  0  0  0  0
    5.5102   -1.4387    2.1545 H   0  0  0  0  0  0  0  0  0  0  0  0
    3.9816    0.2138    3.6755 H   0  0  0  0  0  0  0  0  0  0  0  0
    3.0289    3.2193    1.7315 H   0  0  0  0  0  0  0  0  0  0  0  0
    3.0439    2.4832    3.3463 H   0  0  0  0  0  0  0  0  0  0  0  0
    1.7021    0.3465    1.0214 H   0  0  0  0  0  0  0  0  0  0  0  0
    0.4463   -1.2197   -0.0215 H   0  0  0  0  0  0  0  0  0  0  0  0
   -1.7521   -2.1569   -0.5725 H   0  0  0  0  0  0  0  0  0  0  0  0
   -5.9534   -1.6774    0.6135 H   0  0  0  0  0  0  0  0  0  0  0  0
   -5.1976   -0.5301    1.6723 H   0  0  0  0  0  0  0  0  0  0  0  0
   -6.6715    0.7784    0.3330 H   0  0  0  0  0  0  0  0  0  0  0  0
   -5.0985    1.1169   -0.3424 H   0  0  0  0  0  0  0  0  0  0  0  0
   -4.9621   -1.4623   -2.2359 H   0  0  0  0  0  0  0  0  0  0  0  0
   -5.6974   -0.4885   -3.5175 H   0  0  0  0  0  0  0  0  0  0  0  0
   -4.4631    0.2270   -2.4940 H   0  0  0  0  0  0  0  0  0  0  0  0
   -7.9368   -0.9814   -2.5669 H   0  0  0  0  0  0  0  0  0  0  0  0
   -7.2132   -1.9146   -1.2469 H   0  0  0  0  0  0  0  0  0  0  0  0
   -8.2852   -0.5386   -0.9031 H   0  0  0  0  0  0  0  0  0  0  0  0
   -3.6463    0.9856    1.6873 H   0  0  0  0  0  0  0  0  0  0  0  0
   -1.4990    1.9101    2.2380 H   0  0  0  0  0  0  0  0  0  0  0  0
  1  2  1  0
  2  3  1  0
  3  4  2  0
  4  5  1  0
  5  6  2  0
  6  7  1  0
  7  8  2  0
  8  9  1  0
  9 10  2  0
 10 11  1  0
 11 12  1  0
 12 13  1  0
 13 14  2  0
 13 15  1  0
 15 16  1  0
 16 17  2  0
 17 18  1  0
 18 19  2  0
 19 20  1  0
 20 21  1  0
 21 22  1  0
 22 23  1  0
 23 24  1  0
 23 25  1  0
 19 26  1  0
 26 27  2  0
  8  3  1  0
 27 16  1  0
 11  7  1  0
  1 28  1  0
  1 29  1  0
  1 30  1  0
  4 31  1  0
  5 32  1  0
  6 33  1  0
  9 34  1  0
 10 35  1  0
 12 36  1  0
 12 37  1  0
 15 38  1  0
 17 39  1  0
 18 40  1  0
 21 41  1  0
 21 42  1  0
 22 43  1  0
 22 44  1  0
 24 45  1  0
 24 46  1  0
 24 47  1  0
 25 48  1  0
 25 49  1  0
 25 50  1  0
 26 51  1  0
 27 52  1  0
M  END
$$$$
