
     RDKit          3D

 58 61  0  0  0  0  0  0  0  0999 V2000
    5.0730    2.9940    2.1888 C   0  0  0  0  0  0  0  0  0  0  0  0
    4.0762    2.1900    1.5716 O   0  0  0  0  0  0  0  0  0  0  0  0
    4.5107    1.1347    0.8207 C   0  0  0  0  0  0  0  0  0  0  0  0
    5.8329    0.7377    0.6476 C   0  0  0  0  0  0  0  0  0  0  0  0
    6.1374   -0.3782   -0.1443 C   0  0  0  0  0  0  0  0  0  0  0  0
    5.1249   -1.1058   -0.7788 C   0  0  0  0  0  0  0  0  0  0  0  0
    5.3351   -2.2177   -1.5490 O   0  0  0  0  0  0  0  0  0  0  0  0
    6.6652   -2.7120   -1.6442 C   0  0  0  0  0  0  0  0  0  0  0  0
    3.7876   -0.6962   -0.6339 C   0  0  0  0  0  0  0  0  0  0  0  0
    2.6480   -1.4598   -1.2766 C   0  0  0  0  0  0  0  0  0  0  0  0
    1.6368   -0.5570   -1.8308 N   0  0  0  0  0  0  0  0  0  0  0  0
    0.0891   -1.1386   -2.0696 S   0  0  0  0  0  6  0  0  0  0  0  0
   -0.5274   -0.2142   -2.9992 O   0  0  0  0  0  0  0  0  0  0  0  0
    0.1526   -2.5490   -2.3807 O   0  0  0  0  0  0  0  0  0  0  0  0
   -0.6648   -0.8721   -0.4845 C   0  0  0  0  0  0  0  0  0  0  0  0
   -1.2981    0.3608   -0.2508 C   0  0  0  0  0  0  0  0  0  0  0  0
   -1.9271    0.6198    0.9772 C   0  0  0  0  0  0  0  0  0  0  0  0
   -2.6149    1.9430    1.2267 C   0  0  0  0  0  0  0  0  0  0  0  0
   -3.9577    1.9506    0.6929 N   0  0  0  0  0  0  0  0  0  0  0  0
   -5.0477    1.4590    1.3539 C   0  0  0  0  0  0  0  0  0  0  0  0
   -5.1229    0.9753    2.4688 O   0  0  0  0  0  0  0  0  0  0  0  0
   -6.1870    1.6275    0.4629 C   0  0  0  0  0  0  0  0  0  0  0  0
   -7.5203    1.3097    0.5991 C   0  0  0  0  0  0  0  0  0  0  0  0
   -8.3515    1.6251   -0.4786 C   0  0  0  0  0  0  0  0  0  0  0  0
   -7.8009    2.2358   -1.6142 C   0  0  0  0  0  0  0  0  0  0  0  0
   -6.4905    2.5527   -1.7518 N   0  0  0  0  0  0  0  0  0  0  0  0
   -5.7342    2.2236   -0.6895 C   0  0  0  0  0  0  0  0  0  0  0  0
   -4.2871    2.4405   -0.5447 C   0  0  0  0  0  0  0  0  0  0  0  0
   -3.5500    2.9600   -1.3605 O   0  0  0  0  0  0  0  0  0  0  0  0
   -1.9353   -0.3806    1.9569 C   0  0  0  0  0  0  0  0  0  0  0  0
   -1.3090   -1.6071    1.7237 C   0  0  0  0  0  0  0  0  0  0  0  0
   -0.6877   -1.8625    0.4976 C   0  0  0  0  0  0  0  0  0  0  0  0
   -0.0343   -3.0502    0.3301 O   0  0  0  0  0  0  0  0  0  0  0  0
   -0.9558   -4.1342    0.1885 C   0  0  0  0  0  0  0  0  0  0  0  0
    3.4990    0.4114    0.1885 C   0  0  0  0  0  0  0  0  0  0  0  0
    5.6342    2.4200    2.9357 H   0  0  0  0  0  0  0  0  0  0  0  0
    4.5657    3.8132    2.7097 H   0  0  0  0  0  0  0  0  0  0  0  0
    5.7435    3.4371    1.4432 H   0  0  0  0  0  0  0  0  0  0  0  0
    6.6541    1.2655    1.1211 H   0  0  0  0  0  0  0  0  0  0  0  0
    7.1824   -0.6542   -0.2401 H   0  0  0  0  0  0  0  0  0  0  0  0
    7.3162   -1.9926   -2.1512 H   0  0  0  0  0  0  0  0  0  0  0  0
    7.0596   -2.9795   -0.6580 H   0  0  0  0  0  0  0  0  0  0  0  0
    6.6407   -3.6230   -2.2505 H   0  0  0  0  0  0  0  0  0  0  0  0
    3.0107   -2.0809   -2.1023 H   0  0  0  0  0  0  0  0  0  0  0  0
    2.2243   -2.1174   -0.5131 H   0  0  0  0  0  0  0  0  0  0  0  0
    1.9386    0.0994   -2.5478 H   0  0  0  0  0  0  0  0  0  0  0  0
   -1.2994    1.1269   -1.0275 H   0  0  0  0  0  0  0  0  0  0  0  0
   -2.6614    2.1411    2.3044 H   0  0  0  0  0  0  0  0  0  0  0  0
   -2.0317    2.7522    0.7716 H   0  0  0  0  0  0  0  0  0  0  0  0
   -7.9009    0.8381    1.4983 H   0  0  0  0  0  0  0  0  0  0  0  0
   -9.4141    1.4026   -0.4430 H   0  0  0  0  0  0  0  0  0  0  0  0
   -8.4283    2.4907   -2.4663 H   0  0  0  0  0  0  0  0  0  0  0  0
   -2.4292   -0.2111    2.9129 H   0  0  0  0  0  0  0  0  0  0  0  0
   -1.2984   -2.3580    2.5093 H   0  0  0  0  0  0  0  0  0  0  0  0
   -0.4148   -4.9750   -0.2556 H   0  0  0  0  0  0  0  0  0  0  0  0
   -1.7926   -3.8795   -0.4753 H   0  0  0  0  0  0  0  0  0  0  0  0
   -1.3292   -4.4486    1.1719 H   0  0  0  0  0  0  0  0  0  0  0  0
    2.4654    0.7170    0.3386 H   0  0  0  0  0  0  0  0  0  0  0  0
  1  2  1  0
  2  3  1  0
  3  4  2  0
  4  5  1  0
  5  6  2  0
  6  7  1  0
  7  8  1  0
  6  9  1  0
  9 10  1  0
 10 11  1  0
 11 12  1  0
 12 13  2  0
 12 14  2  0
 12 15  1  0
 15 16  2  0
 16 17  1  0
 17 18  1  0
 18 19  1  0
 19 20  1  0
 20 21  2  0
 20 22  1  0
 22 23  2  0
 23 24  1  0
 24 25  2  0
 25 26  1  0
 26 27  2  0
 27 28  1  0
 28 29  2  0
 17 30  2  0
 30 31  1  0
 31 32  2  0
 32 33  1  0
 33 34  1  0
  9 35  2  0
 35  3  1  0
 32 15  1  0
 28 19  1  0
 27 22  1  0
  1 36  1  0
  1 37  1  0
  1 38  1  0
  4 39  1  0
  5 40  1  0
  8 41  1  0
  8 42  1  0
  8 43  1  0
 10 44  1  0
 10 45  1  0
 11 46  1  0
 16 47  1  0
 18 48  1  0
 18 49  1  0
 23 50  1  0
 24 51  1  0
 25 52  1  0
 30 53  1  0
 31 54  1  0
 34 55  1  0
 34 56  1  0
 34 57  1  0
 35 58  1  0
M  END
$$$$
