
     RDKit          3D

 50 53  0  0  0  0  0  0  0  0999 V2000
    0.7679    0.1559    1.0896 O   0  0  0  0  0  0  0  0  0  0  0  0
    0.7606    0.4480   -0.1021 C   0  0  0  0  0  0  0  0  0  0  0  0
    2.0131    0.6014   -0.9333 C   0  0  0  0  0  0  0  0  0  0  0  0
    3.2581    0.4839   -0.0740 C   0  0  0  0  0  0  0  0  0  0  0  0
    3.5753   -0.8688    0.3144 N   0  0  0  0  0  0  0  0  0  0  0  0
    4.8742   -1.2016    0.0030 C   0  0  0  0  0  0  0  0  0  0  0  0
    5.4181   -2.2362    0.3516 O   0  0  0  0  0  0  0  0  0  0  0  0
    5.4097   -0.1903   -0.7324 N   0  0  0  0  0  0  0  0  0  0  0  0
    6.7530   -0.1911   -1.2599 C   0  0  0  0  0  0  0  0  0  0  0  0
    7.6943    0.3179   -0.2274 C   0  0  0  0  0  0  0  0  0  0  0  0
    8.1729   -0.2037    0.9595 C   0  0  0  0  0  0  0  0  0  0  0  0
    9.0515    0.7692    1.4955 C   0  0  0  0  0  0  0  0  0  0  0  0
    9.0600    1.8140    0.6007 C   0  0  0  0  0  0  0  0  0  0  0  0
    8.2395    1.5514   -0.4481 O   0  0  0  0  0  0  0  0  0  0  0  0
    4.5154    0.8349   -0.8673 C   0  0  0  0  0  0  0  0  0  0  0  0
    4.6709    1.8680   -1.5031 O   0  0  0  0  0  0  0  0  0  0  0  0
   -0.3963    0.6476   -0.8226 N   0  0  0  0  0  0  0  0  0  0  0  0
   -1.7100    0.5264   -0.2101 C   0  0  0  0  0  0  0  0  0  0  0  0
   -2.1437   -0.9310   -0.0452 C   0  0  0  0  0  0  0  0  0  0  0  0
   -3.5211   -1.0103    0.5317 C   0  0  0  0  0  0  0  0  0  0  0  0
   -4.6035   -0.6069   -0.0981 N   0  0  0  0  0  0  0  0  0  0  0  0
   -5.7273   -0.7953    0.7001 C   0  0  0  0  0  0  0  0  0  0  0  0
   -7.0582   -0.4179    0.2254 C   0  0  0  0  0  0  0  0  0  0  0  0
   -8.1488   -0.2584    1.0948 C   0  0  0  0  0  0  0  0  0  0  0  0
   -9.4076    0.1019    0.6023 C   0  0  0  0  0  0  0  0  0  0  0  0
   -9.5917    0.3124   -0.7626 C   0  0  0  0  0  0  0  0  0  0  0  0
   -8.5177    0.1668   -1.6374 C   0  0  0  0  0  0  0  0  0  0  0  0
   -7.2604   -0.1943   -1.1459 C   0  0  0  0  0  0  0  0  0  0  0  0
   -5.4621   -1.3688    1.9295 C   0  0  0  0  0  0  0  0  0  0  0  0
   -3.7792   -1.6556    2.1020 S   0  0  0  0  0  0  0  0  0  0  0  0
    2.0058   -0.1606   -1.7225 H   0  0  0  0  0  0  0  0  0  0  0  0
    1.9793    1.5865   -1.4162 H   0  0  0  0  0  0  0  0  0  0  0  0
    3.2242    1.1051    0.8284 H   0  0  0  0  0  0  0  0  0  0  0  0
    3.0663   -1.3914    1.0198 H   0  0  0  0  0  0  0  0  0  0  0  0
    6.7904    0.4342   -2.1574 H   0  0  0  0  0  0  0  0  0  0  0  0
    7.0289   -1.2134   -1.5369 H   0  0  0  0  0  0  0  0  0  0  0  0
    7.9091   -1.1641    1.3842 H   0  0  0  0  0  0  0  0  0  0  0  0
    9.6108    0.7157    2.4189 H   0  0  0  0  0  0  0  0  0  0  0  0
    9.5673    2.7708    0.5665 H   0  0  0  0  0  0  0  0  0  0  0  0
   -0.3449    0.8438   -1.8158 H   0  0  0  0  0  0  0  0  0  0  0  0
   -2.4094    1.0734   -0.8529 H   0  0  0  0  0  0  0  0  0  0  0  0
   -1.6874    1.0318    0.7637 H   0  0  0  0  0  0  0  0  0  0  0  0
   -1.4215   -1.4755    0.5750 H   0  0  0  0  0  0  0  0  0  0  0  0
   -2.1420   -1.4280   -1.0241 H   0  0  0  0  0  0  0  0  0  0  0  0
   -8.0402   -0.3995    2.1663 H   0  0  0  0  0  0  0  0  0  0  0  0
  -10.2434    0.2212    1.2869 H   0  0  0  0  0  0  0  0  0  0  0  0
  -10.5701    0.5930   -1.1443 H   0  0  0  0  0  0  0  0  0  0  0  0
   -8.6544    0.3328   -2.7034 H   0  0  0  0  0  0  0  0  0  0  0  0
   -6.4320   -0.3062   -1.8458 H   0  0  0  0  0  0  0  0  0  0  0  0
   -6.1434   -1.6392    2.7234 H   0  0  0  0  0  0  0  0  0  0  0  0
  1  2  2  0
  2  3  1  0
  3  4  1  0
  4  5  1  0
  5  6  1  0
  6  7  2  0
  6  8  1  0
  8  9  1  0
  9 10  1  0
 10 11  2  0
 11 12  1  0
 12 13  2  0
 13 14  1  0
  8 15  1  0
 15 16  2  0
  2 17  1  0
 17 18  1  0
 18 19  1  0
 19 20  1  0
 20 21  2  0
 21 22  1  0
 22 23  1  0
 23 24  2  0
 24 25  1  0
 25 26  2  0
 26 27  1  0
 27 28  2  0
 22 29  2  0
 29 30  1  0
 15  4  1  0
 30 20  1  0
 14 10  1  0
 28 23  1  0
  3 31  1  0
  3 32  1  0
  4 33  1  0
  5 34  1  0
  9 35  1  0
  9 36  1  0
 11 37  1  0
 12 38  1  0
 13 39  1  0
 17 40  1  0
 18 41  1  0
 18 42  1  0
 19 43  1  0
 19 44  1  0
 24 45  1  0
 25 46  1  0
 26 47  1  0
 27 48  1  0
 28 49  1  0
 29 50  1  0
M  END
$$$$
