
     RDKit          3D

 54 56  0  0  0  0  0  0  0  0999 V2000
    0.6876    0.0000    0.0000 Cl  0  0  0  0  0  0  0  0  0  0  0  0
    0.9085   -0.3488   -1.7982 O   0  0  0  0  0  0  0  0  0  0  0  0
    1.1751    0.1138   -0.5072 C   0  0  0  0  0  0  0  0  0  0  0  0
   -0.1647   -0.0507    0.2794 C   0  0  0  0  0  0  0  0  0  0  0  0
   -1.3041    0.6914   -0.3305 C   0  0  0  0  0  0  0  0  0  0  0  0
   -2.5031    0.3346    0.4714 N   0  0  0  0  0  0  0  0  0  0  0  0
   -2.7905   -1.0750    0.2620 C   0  0  0  0  0  0  0  0  0  0  0  0
   -4.2195   -1.3629   -0.0671 C   0  0  0  0  0  0  0  0  0  0  0  0
   -5.1593   -0.5049    0.7596 C   0  0  0  0  0  0  0  0  0  0  0  0
   -4.8563    0.9665    0.5722 C   0  0  0  0  0  0  0  0  0  0  0  0
   -3.5703    1.0710   -0.2197 C   0  0  0  0  0  0  0  0  0  0  0  0
    1.4965    1.5069   -0.4435 C   0  0  0  0  0  0  0  0  0  0  0  0
    0.8043    2.4279   -1.2207 C   0  0  0  0  0  0  0  0  0  0  0  0
    1.0568    3.7999   -1.0703 C   0  0  0  0  0  0  0  0  0  0  0  0
    1.9882    4.2648   -0.1648 C   0  0  0  0  0  0  0  0  0  0  0  0
    2.6853    3.3540    0.6078 C   0  0  0  0  0  0  0  0  0  0  0  0
    2.4357    2.0082    0.4661 C   0  0  0  0  0  0  0  0  0  0  0  0
    2.0961   -0.8079    0.2319 C   0  0  0  0  0  0  0  0  0  0  0  0
    1.4556   -2.1862    0.4840 C   0  0  0  0  0  0  0  0  0  0  0  0
    2.6839   -3.0578    0.3597 C   0  0  0  0  0  0  0  0  0  0  0  0
    3.8512   -2.5491    1.0947 C   0  0  0  0  0  0  0  0  0  0  0  0
    4.3834   -1.5050    0.4635 C   0  0  0  0  0  0  0  0  0  0  0  0
    3.3341   -1.1202   -0.5519 C   0  0  0  0  0  0  0  0  0  0  0  0
    3.0644   -2.5318   -1.0577 C   0  0  0  0  0  0  0  0  0  0  0  0
   -0.6876    0.0000    0.0000 H   0  0  0  0  0  0  0  0  0  0  0  0
    1.2608    0.2275   -2.4961 H   0  0  0  0  0  0  0  0  0  0  0  0
    0.1096    0.4264    1.2898 H   0  0  0  0  0  0  0  0  0  0  0  0
   -0.3737   -1.0896    0.4578 H   0  0  0  0  0  0  0  0  0  0  0  0
   -1.1897    1.7739   -0.0538 H   0  0  0  0  0  0  0  0  0  0  0  0
   -1.5504    0.4615   -1.3506 H   0  0  0  0  0  0  0  0  0  0  0  0
   -2.5084   -1.6524    1.1791 H   0  0  0  0  0  0  0  0  0  0  0  0
   -2.1879   -1.4649   -0.6205 H   0  0  0  0  0  0  0  0  0  0  0  0
   -4.4181   -2.4269    0.2548 H   0  0  0  0  0  0  0  0  0  0  0  0
   -4.4731   -1.3251   -1.1423 H   0  0  0  0  0  0  0  0  0  0  0  0
   -6.1928   -0.7754    0.4649 H   0  0  0  0  0  0  0  0  0  0  0  0
   -5.0394   -0.8182    1.8169 H   0  0  0  0  0  0  0  0  0  0  0  0
   -4.7365    1.4038    1.5972 H   0  0  0  0  0  0  0  0  0  0  0  0
   -5.6596    1.4793    0.0088 H   0  0  0  0  0  0  0  0  0  0  0  0
   -3.2644    2.1189   -0.3533 H   0  0  0  0  0  0  0  0  0  0  0  0
   -3.7772    0.5889   -1.2074 H   0  0  0  0  0  0  0  0  0  0  0  0
    0.0629    2.0956   -1.9465 H   0  0  0  0  0  0  0  0  0  0  0  0
    0.5182    4.5149   -1.6442 H   0  0  0  0  0  0  0  0  0  0  0  0
    2.2162    5.2939   -0.0077 H   0  0  0  0  0  0  0  0  0  0  0  0
    3.4051    3.6740    1.3318 H   0  0  0  0  0  0  0  0  0  0  0  0
    2.9672    1.2811    1.0607 H   0  0  0  0  0  0  0  0  0  0  0  0
    2.2994   -0.4170    1.2266 H   0  0  0  0  0  0  0  0  0  0  0  0
    0.7838   -2.4903   -0.3237 H   0  0  0  0  0  0  0  0  0  0  0  0
    1.0192   -2.2329    1.4987 H   0  0  0  0  0  0  0  0  0  0  0  0
    2.5119   -4.1087    0.3991 H   0  0  0  0  0  0  0  0  0  0  0  0
    4.3202   -2.8989    2.0319 H   0  0  0  0  0  0  0  0  0  0  0  0
    5.3185   -0.9744    0.5953 H   0  0  0  0  0  0  0  0  0  0  0  0
    3.6210   -0.4349   -1.2933 H   0  0  0  0  0  0  0  0  0  0  0  0
    3.9235   -3.0901   -1.4015 H   0  0  0  0  0  0  0  0  0  0  0  0
    2.1825   -2.5789   -1.7326 H   0  0  0  0  0  0  0  0  0  0  0  0
  2  3  1  0
  3  4  1  0
  4  5  1  0
  5  6  1  0
  6  7  1  0
  7  8  1  0
  8  9  1  0
  9 10  1  0
 10 11  1  0
  3 12  1  0
 12 13  2  0
 13 14  1  0
 14 15  2  0
 15 16  1  0
 16 17  2  0
  3 18  1  0
 18 19  1  0
 19 20  1  0
 20 21  1  0
 21 22  2  0
 22 23  1  0
 23 24  1  0
 11  6  1  0
 17 12  1  0
 23 18  1  0
 24 20  1  0
  1 25  1  0
  2 26  1  0
  4 27  1  0
  4 28  1  0
  5 29  1  0
  5 30  1  0
  7 31  1  0
  7 32  1  0
  8 33  1  0
  8 34  1  0
  9 35  1  0
  9 36  1  0
 10 37  1  0
 10 38  1  0
 11 39  1  0
 11 40  1  0
 13 41  1  0
 14 42  1  0
 15 43  1  0
 16 44  1  0
 17 45  1  0
 18 46  1  0
 19 47  1  0
 19 48  1  0
 20 49  1  0
 21 50  1  0
 22 51  1  0
 23 52  1  0
 24 53  1  0
 24 54  1  0
M  END
$$$$
