
     RDKit          3D

 61 64  0  0  0  0  0  0  0  0999 V2000
    5.7915    2.7329    1.1393 C   0  0  0  0  0  0  0  0  0  0  0  0
    5.7476    1.2962    0.7155 C   0  0  0  0  0  0  0  0  0  0  0  0
    6.6181    0.7401    0.0657 O   0  0  0  0  0  0  0  0  0  0  0  0
    4.6134    0.6996    1.1880 O   0  0  0  0  0  0  0  0  0  0  0  0
    4.4926   -0.6814    0.8531 C   0  0  0  0  0  0  0  0  0  0  0  0
    3.9444   -0.9577   -0.5460 C   0  0  0  0  0  0  0  0  0  0  0  0
    4.4165   -1.8820   -1.2145 O   0  0  0  0  0  0  0  0  0  0  0  0
    2.6987   -0.1472   -1.0108 C   0  0  1  0  0  0  0  0  0  0  0  0
    2.8592    1.2551   -0.7728 O   0  0  0  0  0  0  0  0  0  0  0  0
    2.4831   -0.2805   -2.5498 C   0  0  0  0  0  0  0  0  0  0  0  0
    0.9638   -0.3778   -2.7839 C   0  0  0  0  0  0  0  0  0  0  0  0
    0.3519   -0.0304   -1.4333 C   0  0  1  0  0  0  0  0  0  0  0  0
   -1.1191   -0.3987   -1.1809 C   0  0  2  0  0  0  0  0  0  0  0  0
   -2.0212    0.2335   -2.2537 C   0  0  0  0  0  0  0  0  0  0  0  0
   -3.4948   -0.0338   -1.9865 C   0  0  0  0  0  0  0  0  0  0  0  0
   -3.9027    0.4116   -0.6034 C   0  0  0  0  0  0  0  0  0  0  0  0
   -4.9733    1.2103   -0.4465 C   0  0  0  0  0  0  0  0  0  0  0  0
   -5.4898    1.5596    0.8964 C   0  0  0  0  0  0  0  0  0  0  0  0
   -6.4186    2.3560    1.0011 O   0  0  0  0  0  0  0  0  0  0  0  0
   -4.8941    0.8517    2.0843 C   0  0  0  0  0  0  0  0  0  0  0  0
   -3.4025    0.6410    1.8710 C   0  0  0  0  0  0  0  0  0  0  0  0
   -3.0587   -0.1297    0.5611 C   0  0  1  0  0  0  0  0  0  0  0  0
   -3.4347   -1.6177    0.7424 C   0  0  0  0  0  0  0  0  0  0  0  0
   -1.5277    0.1069    0.2391 C   0  0  1  0  0  0  0  0  0  0  0  0
   -0.5314   -0.3575    1.3432 C   0  0  1  0  0  0  0  0  0  0  0  0
   -0.7088   -1.7302    1.6558 O   0  0  0  0  0  0  0  0  0  0  0  0
    0.9482   -0.1072    0.9756 C   0  0  0  0  0  0  0  0  0  0  0  0
    1.3386   -0.6541   -0.4168 C   0  0  2  0  0  0  0  0  0  0  0  0
    1.3135   -2.2071   -0.4219 C   0  0  0  0  0  0  0  0  0  0  0  0
    4.7991    3.1843    1.0466 H   0  0  0  0  0  0  0  0  0  0  0  0
    6.1447    2.8003    2.1717 H   0  0  0  0  0  0  0  0  0  0  0  0
    6.4720    3.2828    0.4821 H   0  0  0  0  0  0  0  0  0  0  0  0
    3.8067   -1.1363    1.5734 H   0  0  0  0  0  0  0  0  0  0  0  0
    5.4528   -1.1967    0.9769 H   0  0  0  0  0  0  0  0  0  0  0  0
    3.0186    1.3915    0.1774 H   0  0  0  0  0  0  0  0  0  0  0  0
    2.8835    0.5929   -3.0794 H   0  0  0  0  0  0  0  0  0  0  0  0
    2.9610   -1.1652   -2.9838 H   0  0  0  0  0  0  0  0  0  0  0  0
    0.6434    0.3113   -3.5722 H   0  0  0  0  0  0  0  0  0  0  0  0
    0.6891   -1.3910   -3.0990 H   0  0  0  0  0  0  0  0  0  0  0  0
    0.4108    1.0671   -1.3476 H   0  0  0  0  0  0  0  0  0  0  0  0
   -1.2447   -1.4848   -1.2389 H   0  0  0  0  0  0  0  0  0  0  0  0
   -1.7671   -0.1669   -3.2422 H   0  0  0  0  0  0  0  0  0  0  0  0
   -1.8494    1.3172   -2.2975 H   0  0  0  0  0  0  0  0  0  0  0  0
   -4.0901    0.4697   -2.7579 H   0  0  0  0  0  0  0  0  0  0  0  0
   -3.7006   -1.1061   -2.0930 H   0  0  0  0  0  0  0  0  0  0  0  0
   -5.5515    1.5934   -1.2806 H   0  0  0  0  0  0  0  0  0  0  0  0
   -5.4231   -0.0947    2.2343 H   0  0  0  0  0  0  0  0  0  0  0  0
   -5.0464    1.4733    2.9734 H   0  0  0  0  0  0  0  0  0  0  0  0
   -2.9938    0.1182    2.7441 H   0  0  0  0  0  0  0  0  0  0  0  0
   -2.9229    1.6298    1.8501 H   0  0  0  0  0  0  0  0  0  0  0  0
   -3.0073   -2.2509   -0.0409 H   0  0  0  0  0  0  0  0  0  0  0  0
   -3.1023   -2.0098    1.7081 H   0  0  0  0  0  0  0  0  0  0  0  0
   -4.5214   -1.7650    0.7115 H   0  0  0  0  0  0  0  0  0  0  0  0
   -1.4000    1.2019    0.1968 H   0  0  0  0  0  0  0  0  0  0  0  0
   -0.7377    0.2009    2.2632 H   0  0  0  0  0  0  0  0  0  0  0  0
   -0.1740   -1.9345    2.4420 H   0  0  0  0  0  0  0  0  0  0  0  0
    1.1095    0.9765    1.0148 H   0  0  0  0  0  0  0  0  0  0  0  0
    1.5938   -0.5522    1.7406 H   0  0  0  0  0  0  0  0  0  0  0  0
    1.9181   -2.6057    0.4006 H   0  0  0  0  0  0  0  0  0  0  0  0
    1.7148   -2.6290   -1.3491 H   0  0  0  0  0  0  0  0  0  0  0  0
    0.3109   -2.6239   -0.3134 H   0  0  0  0  0  0  0  0  0  0  0  0
  1  2  1  0
  2  3  2  0
  2  4  1  0
  4  5  1  0
  5  6  1  0
  6  7  2  0
  6  8  1  0
  8  9  1  6
  8 10  1  0
 10 11  1  0
 11 12  1  0
 12 13  1  0
 13 14  1  0
 14 15  1  0
 15 16  1  0
 16 17  2  0
 17 18  1  0
 18 19  2  0
 18 20  1  0
 20 21  1  0
 21 22  1  0
 22 23  1  1
 22 24  1  0
 24 25  1  0
 25 26  1  0
 25 27  1  0
 27 28  1  0
 28 29  1  1
 28  8  1  0
 28 12  1  0
 24 13  1  0
 22 16  1  0
  1 30  1  0
  1 31  1  0
  1 32  1  0
  5 33  1  0
  5 34  1  0
  9 35  1  0
 10 36  1  0
 10 37  1  0
 11 38  1  0
 11 39  1  0
 12 40  1  1
 13 41  1  1
 14 42  1  0
 14 43  1  0
 15 44  1  0
 15 45  1  0
 17 46  1  0
 20 47  1  0
 20 48  1  0
 21 49  1  0
 21 50  1  0
 23 51  1  0
 23 52  1  0
 23 53  1  0
 24 54  1  6
 25 55  1  1
 26 56  1  0
 27 57  1  0
 27 58  1  0
 29 59  1  0
 29 60  1  0
 29 61  1  0
M  END
$$$$
