
     RDKit          3D

 44 46  0  0  0  0  0  0  0  0999 V2000
    7.2346    1.6495   -1.5226 C   0  0  0  0  0  0  0  0  0  0  0  0
    6.1393    1.2217   -0.6871 N   0  0  0  0  0  0  0  0  0  0  0  0
    5.8274    1.6836    0.5551 C   0  0  0  0  0  0  0  0  0  0  0  0
    4.7113    0.9799    0.9436 C   0  0  0  0  0  0  0  0  0  0  0  0
    4.4256    0.1138   -0.1336 C   0  0  0  0  0  0  0  0  0  0  0  0
    3.4198   -0.8080   -0.2806 N   0  0  0  0  0  0  0  0  0  0  0  0
    2.4360   -1.0734    0.6416 C   0  0  0  0  0  0  0  0  0  0  0  0
    2.3021   -0.5340    1.7355 O   0  0  0  0  0  0  0  0  0  0  0  0
    1.4892   -2.1605    0.1599 C   0  0  0  0  0  0  0  0  0  0  0  0
    0.3187   -2.4032    1.1162 C   0  0  0  0  0  0  0  0  0  0  0  0
   -0.6674   -1.2397    1.1804 C   0  0  2  0  0  0  0  0  0  0  0  0
   -1.6208   -1.4085    2.2490 N   0  0  0  0  0  0  0  0  0  0  0  0
   -2.9197   -1.3404    1.8039 C   0  0  0  0  0  0  0  0  0  0  0  0
   -3.8908   -1.3613    2.5415 O   0  0  0  0  0  0  0  0  0  0  0  0
   -2.9084   -1.2423    0.4477 N   0  0  0  0  0  0  0  0  0  0  0  0
   -4.0932   -1.1770   -0.3816 C   0  0  0  0  0  0  0  0  0  0  0  0
   -4.5052    0.2471   -0.6881 C   0  0  0  0  0  0  0  0  0  0  0  0
   -5.0486    1.0304    0.3499 C   0  0  0  0  0  0  0  0  0  0  0  0
   -5.4337    2.3543    0.1311 C   0  0  0  0  0  0  0  0  0  0  0  0
   -5.2862    2.9218   -1.1296 C   0  0  0  0  0  0  0  0  0  0  0  0
   -4.7575    2.1620   -2.1717 C   0  0  0  0  0  0  0  0  0  0  0  0
   -4.3706    0.8335   -1.9568 C   0  0  0  0  0  0  0  0  0  0  0  0
   -3.7516   -0.0307   -3.3183 Cl  0  0  0  0  0  0  0  0  0  0  0  0
   -1.6241   -1.2057   -0.0165 C   0  0  0  0  0  0  0  0  0  0  0  0
   -1.2712   -1.1490   -1.1863 O   0  0  0  0  0  0  0  0  0  0  0  0
    5.3049    0.2627   -1.1278 N   0  0  0  0  0  0  0  0  0  0  0  0
    7.9004    0.7973   -1.6799 H   0  0  0  0  0  0  0  0  0  0  0  0
    6.8271    2.0002   -2.4743 H   0  0  0  0  0  0  0  0  0  0  0  0
    7.7751    2.4600   -1.0274 H   0  0  0  0  0  0  0  0  0  0  0  0
    6.4037    2.4526    1.0496 H   0  0  0  0  0  0  0  0  0  0  0  0
    4.1790    1.0825    1.8786 H   0  0  0  0  0  0  0  0  0  0  0  0
    3.4492   -1.2898   -1.1684 H   0  0  0  0  0  0  0  0  0  0  0  0
    2.0715   -3.0865    0.0787 H   0  0  0  0  0  0  0  0  0  0  0  0
    1.1311   -1.9056   -0.8422 H   0  0  0  0  0  0  0  0  0  0  0  0
   -0.2048   -3.3143    0.7981 H   0  0  0  0  0  0  0  0  0  0  0  0
    0.7094   -2.6076    2.1215 H   0  0  0  0  0  0  0  0  0  0  0  0
   -0.1999   -0.2591    1.3006 H   0  0  0  0  0  0  0  0  0  0  0  0
   -1.4104   -1.3363    3.2365 H   0  0  0  0  0  0  0  0  0  0  0  0
   -4.9212   -1.6751    0.1384 H   0  0  0  0  0  0  0  0  0  0  0  0
   -3.9072   -1.7566   -1.2901 H   0  0  0  0  0  0  0  0  0  0  0  0
   -5.1786    0.6084    1.3463 H   0  0  0  0  0  0  0  0  0  0  0  0
   -5.8492    2.9400    0.9480 H   0  0  0  0  0  0  0  0  0  0  0  0
   -5.5848    3.9524   -1.3032 H   0  0  0  0  0  0  0  0  0  0  0  0
   -4.6500    2.6109   -3.1562 H   0  0  0  0  0  0  0  0  0  0  0  0
  1  2  1  0
  2  3  1  0
  3  4  2  0
  4  5  1  0
  5  6  1  0
  6  7  1  0
  7  8  2  0
  7  9  1  0
  9 10  1  0
 10 11  1  0
 11 12  1  0
 12 13  1  0
 13 14  2  0
 13 15  1  0
 15 16  1  0
 16 17  1  0
 17 18  2  0
 18 19  1  0
 19 20  2  0
 20 21  1  0
 21 22  2  0
 22 23  1  0
 15 24  1  0
 24 25  2  0
  5 26  2  0
 26  2  1  0
 24 11  1  0
 22 17  1  0
  1 27  1  0
  1 28  1  0
  1 29  1  0
  3 30  1  0
  4 31  1  0
  6 32  1  0
  9 33  1  0
  9 34  1  0
 10 35  1  0
 10 36  1  0
 11 37  1  1
 12 38  1  0
 16 39  1  0
 16 40  1  0
 18 41  1  0
 19 42  1  0
 20 43  1  0
 21 44  1  0
M  END
$$$$
