
     RDKit          3D

 22 23  0  0  0  0  0  0  0  0999 V2000
    4.9108    0.1979   -0.2716 O   0  0  0  0  0  0  0  0  0  0  0  0
    3.7976   -0.2101    0.0291 C   0  0  0  0  0  0  0  0  0  0  0  0
    3.6644   -1.3343    0.7684 O   0  0  0  0  0  0  0  0  0  0  0  0
    2.5298    0.3734   -0.3192 C   0  0  0  0  0  0  0  0  0  0  0  0
    2.2322    1.4977   -1.0644 C   0  0  0  0  0  0  0  0  0  0  0  0
    0.8205    1.6074   -1.0934 C   0  0  0  0  0  0  0  0  0  0  0  0
    0.3229    0.5514   -0.3563 C   0  0  0  0  0  0  0  0  0  0  0  0
   -1.0101    0.0732    0.0073 C   0  0  0  0  0  0  0  0  0  0  0  0
   -1.2335   -1.3170    0.0572 C   0  0  0  0  0  0  0  0  0  0  0  0
   -2.4872   -1.8435    0.3793 C   0  0  0  0  0  0  0  0  0  0  0  0
   -3.5464   -0.9888    0.6619 C   0  0  0  0  0  0  0  0  0  0  0  0
   -3.3484    0.3904    0.6273 C   0  0  0  0  0  0  0  0  0  0  0  0
   -2.0911    0.9221    0.3050 C   0  0  0  0  0  0  0  0  0  0  0  0
   -1.9551    2.6481    0.3418 Cl  0  0  0  0  0  0  0  0  0  0  0  0
    1.3644   -0.2053    0.1063 O   0  0  0  0  0  0  0  0  0  0  0  0
    4.5877   -1.6112    0.9314 H   0  0  0  0  0  0  0  0  0  0  0  0
    2.9549    2.1528   -1.5320 H   0  0  0  0  0  0  0  0  0  0  0  0
    0.2396    2.3656   -1.5998 H   0  0  0  0  0  0  0  0  0  0  0  0
   -0.4195   -2.0070   -0.1628 H   0  0  0  0  0  0  0  0  0  0  0  0
   -2.6311   -2.9209    0.4089 H   0  0  0  0  0  0  0  0  0  0  0  0
   -4.5230   -1.3938    0.9149 H   0  0  0  0  0  0  0  0  0  0  0  0
   -4.1794    1.0520    0.8608 H   0  0  0  0  0  0  0  0  0  0  0  0
  1  2  2  0
  2  3  1  0
  2  4  1  0
  4  5  2  0
  5  6  1  0
  6  7  2  0
  7  8  1  0
  8  9  2  0
  9 10  1  0
 10 11  2  0
 11 12  1  0
 12 13  2  0
 13 14  1  0
  7 15  1  0
 15  4  1  0
 13  8  1  0
  3 16  1  0
  5 17  1  0
  6 18  1  0
  9 19  1  0
 10 20  1  0
 11 21  1  0
 12 22  1  0
M  END
$$$$
