
     RDKit          3D

 35 37  0  0  0  0  0  0  0  0999 V2000
    7.5762   -0.6171    1.3285 C   0  0  0  0  0  0  0  0  0  0  0  0
    6.5604   -0.3948    0.3481 O   0  0  0  0  0  0  0  0  0  0  0  0
    5.2900   -0.5285    0.8279 C   0  0  0  0  0  0  0  0  0  0  0  0
    5.0353   -0.8096    1.9875 O   0  0  0  0  0  0  0  0  0  0  0  0
    4.4354   -0.2916   -0.2093 N   0  0  0  0  0  0  0  0  0  0  0  0
    3.0747   -0.3463   -0.0835 C   0  0  0  0  0  0  0  0  0  0  0  0
    2.3565   -0.6218    0.9792 N   0  0  0  0  0  0  0  0  0  0  0  0
    1.0469   -0.5510    0.5830 C   0  0  0  0  0  0  0  0  0  0  0  0
   -0.1276   -0.7702    1.3167 C   0  0  0  0  0  0  0  0  0  0  0  0
   -1.3644   -0.6318    0.6691 C   0  0  0  0  0  0  0  0  0  0  0  0
   -1.4278   -0.2644   -0.6833 C   0  0  0  0  0  0  0  0  0  0  0  0
   -2.7296   -0.1216   -1.3869 C   0  0  0  0  0  0  0  0  0  0  0  0
   -2.8033   -0.4309   -2.5739 O   0  0  0  0  0  0  0  0  0  0  0  0
   -3.9395    0.3893   -0.6947 C   0  0  0  0  0  0  0  0  0  0  0  0
   -3.8629    1.3999    0.2715 C   0  0  0  0  0  0  0  0  0  0  0  0
   -5.0271    1.8609    0.8897 C   0  0  0  0  0  0  0  0  0  0  0  0
   -6.2660    1.3252    0.5364 C   0  0  0  0  0  0  0  0  0  0  0  0
   -6.3471    0.3341   -0.4416 C   0  0  0  0  0  0  0  0  0  0  0  0
   -5.1864   -0.1298   -1.0621 C   0  0  0  0  0  0  0  0  0  0  0  0
   -0.2570   -0.0639   -1.4355 C   0  0  0  0  0  0  0  0  0  0  0  0
    0.9566   -0.2125   -0.7606 C   0  0  0  0  0  0  0  0  0  0  0  0
    2.2623   -0.0952   -1.1622 N   0  0  0  0  0  0  0  0  0  0  0  0
    8.5477   -0.4877    0.8433 H   0  0  0  0  0  0  0  0  0  0  0  0
    7.4947    0.1144    2.1387 H   0  0  0  0  0  0  0  0  0  0  0  0
    7.5178   -1.6385    1.7175 H   0  0  0  0  0  0  0  0  0  0  0  0
    4.8702   -0.0728   -1.0900 H   0  0  0  0  0  0  0  0  0  0  0  0
   -0.0670   -1.0517    2.3628 H   0  0  0  0  0  0  0  0  0  0  0  0
   -2.2693   -0.8330    1.2377 H   0  0  0  0  0  0  0  0  0  0  0  0
   -2.9107    1.8491    0.5414 H   0  0  0  0  0  0  0  0  0  0  0  0
   -4.9701    2.6447    1.6413 H   0  0  0  0  0  0  0  0  0  0  0  0
   -7.1717    1.6884    1.0165 H   0  0  0  0  0  0  0  0  0  0  0  0
   -7.3141   -0.0737   -0.7256 H   0  0  0  0  0  0  0  0  0  0  0  0
   -5.2546   -0.8957   -1.8322 H   0  0  0  0  0  0  0  0  0  0  0  0
   -0.3013    0.1925   -2.4897 H   0  0  0  0  0  0  0  0  0  0  0  0
    2.5723    0.1354   -2.0929 H   0  0  0  0  0  0  0  0  0  0  0  0
  1  2  1  0
  2  3  1  0
  3  4  2  0
  3  5  1  0
  5  6  1  0
  6  7  2  0
  7  8  1  0
  8  9  2  0
  9 10  1  0
 10 11  2  0
 11 12  1  0
 12 13  2  0
 12 14  1  0
 14 15  2  0
 15 16  1  0
 16 17  2  0
 17 18  1  0
 18 19  2  0
 11 20  1  0
 20 21  2  0
 21 22  1  0
 22  6  1  0
 21  8  1  0
 19 14  1  0
  1 23  1  0
  1 24  1  0
  1 25  1  0
  5 26  1  0
  9 27  1  0
 10 28  1  0
 15 29  1  0
 16 30  1  0
 17 31  1  0
 18 32  1  0
 19 33  1  0
 20 34  1  0
 22 35  1  0
M  END
$$$$
