
     RDKit          3D

 29 28  0  0  0  0  0  0  0  0999 V2000
    4.1488    0.0230   -1.4773 O   0  0  0  0  0  0  0  0  0  0  0  0
    3.8930    0.5875   -0.4280 C   0  0  0  0  0  0  0  0  0  0  0  0
    4.1571    1.9002   -0.2760 O   0  0  0  0  0  0  0  0  0  0  0  0
    3.3192   -0.0196    0.8242 C   0  0  0  0  0  0  0  0  0  0  0  0
    2.6316   -1.3620    0.5761 C   0  0  0  0  0  0  0  0  0  0  0  0
    1.3615   -1.2931   -0.2808 C   0  0  0  0  0  0  0  0  0  0  0  0
    0.2329   -0.4836    0.3618 C   0  0  0  0  0  0  0  0  0  0  0  0
   -1.0483   -0.5620   -0.4720 C   0  0  0  0  0  0  0  0  0  0  0  0
   -2.1764    0.2509    0.1635 C   0  0  0  0  0  0  0  0  0  0  0  0
   -3.4520    0.1721   -0.6659 C   0  0  0  0  0  0  0  0  0  0  0  0
   -4.5551    0.9544   -0.0152 C   0  0  0  0  0  0  0  0  0  0  0  0
   -5.4162    0.5097    0.7246 O   0  0  0  0  0  0  0  0  0  0  0  0
   -4.5050    2.2677   -0.3056 O   0  0  0  0  0  0  0  0  0  0  0  0
    4.5389    2.1662   -1.1388 H   0  0  0  0  0  0  0  0  0  0  0  0
    2.6218    0.6887    1.2816 H   0  0  0  0  0  0  0  0  0  0  0  0
    4.1518   -0.1677    1.5215 H   0  0  0  0  0  0  0  0  0  0  0  0
    2.3805   -1.8107    1.5452 H   0  0  0  0  0  0  0  0  0  0  0  0
    3.3382   -2.0468    0.0905 H   0  0  0  0  0  0  0  0  0  0  0  0
    1.5940   -0.8803   -1.2691 H   0  0  0  0  0  0  0  0  0  0  0  0
    1.0125   -2.3200   -0.4481 H   0  0  0  0  0  0  0  0  0  0  0  0
    0.5311    0.5661    0.4583 H   0  0  0  0  0  0  0  0  0  0  0  0
    0.0368   -0.8622    1.3721 H   0  0  0  0  0  0  0  0  0  0  0  0
   -0.8511   -0.1879   -1.4840 H   0  0  0  0  0  0  0  0  0  0  0  0
   -1.3604   -1.6090   -0.5690 H   0  0  0  0  0  0  0  0  0  0  0  0
   -1.8658    1.2981    0.2664 H   0  0  0  0  0  0  0  0  0  0  0  0
   -2.3733   -0.1172    1.1783 H   0  0  0  0  0  0  0  0  0  0  0  0
   -3.2951    0.5544   -1.6811 H   0  0  0  0  0  0  0  0  0  0  0  0
   -3.7892   -0.8656   -0.7701 H   0  0  0  0  0  0  0  0  0  0  0  0
   -5.2618    2.6489    0.1870 H   0  0  0  0  0  0  0  0  0  0  0  0
  1  2  2  0
  2  3  1  0
  2  4  1  0
  4  5  1  0
  5  6  1  0
  6  7  1  0
  7  8  1  0
  8  9  1  0
  9 10  1  0
 10 11  1  0
 11 12  2  0
 11 13  1  0
  3 14  1  0
  4 15  1  0
  4 16  1  0
  5 17  1  0
  5 18  1  0
  6 19  1  0
  6 20  1  0
  7 21  1  0
  7 22  1  0
  8 23  1  0
  8 24  1  0
  9 25  1  0
  9 26  1  0
 10 27  1  0
 10 28  1  0
 13 29  1  0
M  END
$$$$
