
     RDKit          3D

 36 36  0  0  0  0  0  0  0  0999 V2000
    0.6842    0.0000    0.0000 Cl  0  0  0  0  0  0  0  0  0  0  0  0
    0.6912    0.0000    0.0000 Cl  0  0  0  0  0  0  0  0  0  0  0  0
    3.8242    0.9552   -1.1156 C   0  0  0  0  0  0  0  0  0  0  0  0
    2.6095    1.4221   -1.5557 C   0  0  0  0  0  0  0  0  0  0  0  0
    1.4514    0.9327   -0.9947 C   0  0  0  0  0  0  0  0  0  0  0  0
    1.4666   -0.0267    0.0112 C   0  0  0  0  0  0  0  0  0  0  0  0
    0.2532   -0.4673    0.5255 C   0  0  0  0  0  0  0  0  0  0  0  0
   -0.9847    0.0152    0.0601 N   0  0  0  0  0  0  0  0  0  0  0  0
   -1.5228   -0.1072   -1.2755 C   0  0  0  0  0  0  0  0  0  0  0  0
   -2.9259   -0.7285   -1.1143 C   0  0  0  0  0  0  0  0  0  0  0  0
   -3.7472    0.2790   -0.4962 N   0  0  0  0  0  0  0  0  0  0  0  0
   -3.0953    1.2119    0.3401 C   0  0  0  0  0  0  0  0  0  0  0  0
   -1.8368    0.7063    1.0117 C   0  0  0  0  0  0  0  0  0  0  0  0
    0.3277   -1.4289    1.5345 C   0  0  0  0  0  0  0  0  0  0  0  0
    1.5179   -1.9198    2.0014 C   0  0  0  0  0  0  0  0  0  0  0  0
    2.6864   -1.4402    1.4476 C   0  0  0  0  0  0  0  0  0  0  0  0
    2.6861   -0.4929    0.4507 C   0  0  0  0  0  0  0  0  0  0  0  0
    3.8349    0.0040   -0.1178 C   0  0  0  0  0  0  0  0  0  0  0  0
   -0.6842    0.0000    0.0000 H   0  0  0  0  0  0  0  0  0  0  0  0
   -0.6912    0.0000    0.0000 H   0  0  0  0  0  0  0  0  0  0  0  0
    4.7400    1.3321   -1.5486 H   0  0  0  0  0  0  0  0  0  0  0  0
    2.5042    2.1720   -2.3382 H   0  0  0  0  0  0  0  0  0  0  0  0
    0.5086    1.2925   -1.3302 H   0  0  0  0  0  0  0  0  0  0  0  0
   -1.7792    0.8972   -1.7342 H   0  0  0  0  0  0  0  0  0  0  0  0
   -0.8822   -0.7153   -1.9207 H   0  0  0  0  0  0  0  0  0  0  0  0
   -2.8730   -1.6566   -0.5175 H   0  0  0  0  0  0  0  0  0  0  0  0
   -3.2838   -0.9323   -2.1429 H   0  0  0  0  0  0  0  0  0  0  0  0
   -4.6583   -0.0729   -0.1893 H   0  0  0  0  0  0  0  0  0  0  0  0
   -3.7995    1.4877    1.1746 H   0  0  0  0  0  0  0  0  0  0  0  0
   -2.8837    2.1962   -0.1690 H   0  0  0  0  0  0  0  0  0  0  0  0
   -1.3276    1.6077    1.4361 H   0  0  0  0  0  0  0  0  0  0  0  0
   -2.1410    0.0565    1.8524 H   0  0  0  0  0  0  0  0  0  0  0  0
   -0.6368   -1.7723    1.9364 H   0  0  0  0  0  0  0  0  0  0  0  0
    1.5034   -2.6619    2.7832 H   0  0  0  0  0  0  0  0  0  0  0  0
    3.6618   -1.7954    1.7805 H   0  0  0  0  0  0  0  0  0  0  0  0
    4.8020   -0.3502    0.2143 H   0  0  0  0  0  0  0  0  0  0  0  0
  3  4  2  0
  4  5  1  0
  5  6  2  0
  6  7  1  0
  7  8  1  0
  8  9  1  0
  9 10  1  0
 10 11  1  0
 11 12  1  0
 12 13  1  0
  7 14  2  0
 14 15  1  0
 15 16  2  0
 16 17  1  0
 17 18  2  0
 18  3  1  0
 17  6  1  0
 13  8  1  0
  1 19  1  0
  2 20  1  0
  3 21  1  0
  4 22  1  0
  5 23  1  0
  9 24  1  0
  9 25  1  0
 10 26  1  0
 10 27  1  0
 11 28  1  0
 12 29  1  0
 12 30  1  0
 13 31  1  0
 13 32  1  0
 14 33  1  0
 15 34  1  0
 16 35  1  0
 18 36  1  0
M  END
$$$$
