
     RDKit          3D

 42 43  0  0  0  0  0  0  0  0999 V2000
    6.6728   -0.0469   -1.1602 C   0  0  0  0  0  0  0  0  0  0  0  0
    5.8284    0.7971   -0.2179 C   0  0  0  0  0  0  0  0  0  0  0  0
    4.4163    0.2781   -0.1133 C   0  0  0  0  0  0  0  0  0  0  0  0
    3.4275    0.7285   -1.0002 C   0  0  0  0  0  0  0  0  0  0  0  0
    2.1240    0.2374   -0.9143 C   0  0  0  0  0  0  0  0  0  0  0  0
    1.8062   -0.7066    0.0670 C   0  0  0  0  0  0  0  0  0  0  0  0
    0.1512   -1.3541    0.1348 S   0  0  0  0  0  6  0  0  0  0  0  0
   -0.2466   -1.5620   -1.2463 O   0  0  0  0  0  0  0  0  0  0  0  0
    0.1172   -2.4587    1.0737 O   0  0  0  0  0  0  0  0  0  0  0  0
   -0.7679   -0.0719    0.7706 N   0  0  0  0  0  0  0  0  0  0  0  0
   -0.4036    0.5696    1.9920 C   0  0  0  0  0  0  0  0  0  0  0  0
   -1.3200    1.6517    2.5140 C   0  0  0  0  0  0  0  0  0  0  0  0
    0.6251    0.2975    2.6028 O   0  0  0  0  0  0  0  0  0  0  0  0
   -2.1774   -0.2072    0.5294 C   0  0  0  0  0  0  0  0  0  0  0  0
   -2.9576   -1.0909    1.2781 C   0  0  0  0  0  0  0  0  0  0  0  0
   -4.3254   -1.1950    1.0186 C   0  0  0  0  0  0  0  0  0  0  0  0
   -4.9208   -0.4333    0.0087 C   0  0  0  0  0  0  0  0  0  0  0  0
   -6.2654   -0.6323   -0.1369 O   0  0  0  0  0  0  0  0  0  0  0  0
   -6.9061    0.0505   -1.2074 C   0  0  0  0  0  0  0  0  0  0  0  0
   -4.1336    0.4381   -0.7460 C   0  0  0  0  0  0  0  0  0  0  0  0
   -2.7630    0.5485   -0.4883 C   0  0  0  0  0  0  0  0  0  0  0  0
    2.7850   -1.1824    0.9413 C   0  0  0  0  0  0  0  0  0  0  0  0
    4.0861   -0.6851    0.8517 C   0  0  0  0  0  0  0  0  0  0  0  0
    6.2538   -0.0523   -2.1722 H   0  0  0  0  0  0  0  0  0  0  0  0
    6.7342   -1.0851   -0.8167 H   0  0  0  0  0  0  0  0  0  0  0  0
    7.6904    0.3524   -1.2167 H   0  0  0  0  0  0  0  0  0  0  0  0
    5.8139    1.8377   -0.5643 H   0  0  0  0  0  0  0  0  0  0  0  0
    6.2892    0.8156    0.7773 H   0  0  0  0  0  0  0  0  0  0  0  0
    3.6724    1.4596   -1.7679 H   0  0  0  0  0  0  0  0  0  0  0  0
    1.3699    0.5822   -1.6176 H   0  0  0  0  0  0  0  0  0  0  0  0
   -2.2101    1.2116    2.9694 H   0  0  0  0  0  0  0  0  0  0  0  0
   -1.6005    2.3369    1.7099 H   0  0  0  0  0  0  0  0  0  0  0  0
   -0.7933    2.2298    3.2797 H   0  0  0  0  0  0  0  0  0  0  0  0
   -2.5133   -1.7085    2.0554 H   0  0  0  0  0  0  0  0  0  0  0  0
   -4.9326   -1.8848    1.6008 H   0  0  0  0  0  0  0  0  0  0  0  0
   -6.4795   -0.2392   -2.1735 H   0  0  0  0  0  0  0  0  0  0  0  0
   -6.8621    1.1351   -1.0643 H   0  0  0  0  0  0  0  0  0  0  0  0
   -7.9604   -0.2426   -1.2075 H   0  0  0  0  0  0  0  0  0  0  0  0
   -4.5526    1.0405   -1.5453 H   0  0  0  0  0  0  0  0  0  0  0  0
   -2.1571    1.2187   -1.0925 H   0  0  0  0  0  0  0  0  0  0  0  0
    2.5421   -1.9243    1.6988 H   0  0  0  0  0  0  0  0  0  0  0  0
    4.8429   -1.0543    1.5409 H   0  0  0  0  0  0  0  0  0  0  0  0
  1  2  1  0
  2  3  1  0
  3  4  2  0
  4  5  1  0
  5  6  2  0
  6  7  1  0
  7  8  2  0
  7  9  2  0
  7 10  1  0
 10 11  1  0
 11 12  1  0
 11 13  2  0
 10 14  1  0
 14 15  2  0
 15 16  1  0
 16 17  2  0
 17 18  1  0
 18 19  1  0
 17 20  1  0
 20 21  2  0
  6 22  1  0
 22 23  2  0
 23  3  1  0
 21 14  1  0
  1 24  1  0
  1 25  1  0
  1 26  1  0
  2 27  1  0
  2 28  1  0
  4 29  1  0
  5 30  1  0
 12 31  1  0
 12 32  1  0
 12 33  1  0
 15 34  1  0
 16 35  1  0
 19 36  1  0
 19 37  1  0
 19 38  1  0
 20 39  1  0
 21 40  1  0
 22 41  1  0
 23 42  1  0
M  END
$$$$
