
     RDKit          3D

 53 55  0  0  0  0  0  0  0  0999 V2000
    7.2947    0.9065   -0.1109 C   0  0  0  0  0  0  0  0  0  0  0  0
    7.2453   -0.2819   -0.8920 O   0  0  0  0  0  0  0  0  0  0  0  0
    6.0389   -0.9257   -0.9607 C   0  0  0  0  0  0  0  0  0  0  0  0
    6.0537   -2.1040   -1.7088 C   0  0  0  0  0  0  0  0  0  0  0  0
    4.8925   -2.8569   -1.8622 C   0  0  0  0  0  0  0  0  0  0  0  0
    3.7070   -2.4312   -1.2631 C   0  0  0  0  0  0  0  0  0  0  0  0
    3.6733   -1.2528   -0.5057 C   0  0  0  0  0  0  0  0  0  0  0  0
    2.4300   -0.8929    0.0598 N   0  0  0  0  0  0  0  0  0  0  0  0
    2.1560    0.1575    0.9058 C   0  0  0  0  0  0  0  0  0  0  0  0
    2.9867    0.9380    1.3625 O   0  0  0  0  0  0  0  0  0  0  0  0
    0.8153    0.2932    1.2291 N   0  0  0  0  0  0  0  0  0  0  0  0
    0.3965    1.3949    2.0725 C   0  0  0  0  0  0  0  0  0  0  0  0
   -1.0999    1.2408    2.2875 C   0  0  0  0  0  0  0  0  0  0  0  0
   -1.5753    0.2055    1.2647 C   0  0  0  0  0  0  0  0  0  0  0  0
   -2.5856    0.6767    0.2859 N   0  0  0  0  0  0  0  0  0  0  0  0
   -2.4132    1.6916   -0.6590 C   0  0  0  0  0  0  0  0  0  0  0  0
   -1.1418    2.4959   -0.6676 C   0  0  0  0  0  0  0  0  0  0  0  0
   -3.2835    1.9706   -1.4882 O   0  0  0  0  0  0  0  0  0  0  0  0
   -3.8670   -0.0771    0.2557 C   0  0  0  0  0  0  0  0  0  0  0  0
   -4.0590   -0.8904   -1.0296 C   0  0  0  0  0  0  0  0  0  0  0  0
   -5.3447   -1.7134   -0.9615 C   0  0  0  0  0  0  0  0  0  0  0  0
   -6.3235   -1.1669   -0.0759 O   0  0  0  0  0  0  0  0  0  0  0  0
   -6.3469    0.2576   -0.1025 C   0  0  0  0  0  0  0  0  0  0  0  0
   -5.0932    0.7986    0.5718 C   0  0  0  0  0  0  0  0  0  0  0  0
   -0.3142   -0.4220    0.6602 C   0  0  0  0  0  0  0  0  0  0  0  0
    4.8461   -0.5026   -0.3640 C   0  0  0  0  0  0  0  0  0  0  0  0
    6.6443    1.6812   -0.5302 H   0  0  0  0  0  0  0  0  0  0  0  0
    8.3217    1.2831   -0.1419 H   0  0  0  0  0  0  0  0  0  0  0  0
    7.0471    0.7027    0.9361 H   0  0  0  0  0  0  0  0  0  0  0  0
    6.9790   -2.4341   -2.1747 H   0  0  0  0  0  0  0  0  0  0  0  0
    4.9129   -3.7723   -2.4473 H   0  0  0  0  0  0  0  0  0  0  0  0
    2.8136   -3.0350   -1.3972 H   0  0  0  0  0  0  0  0  0  0  0  0
    1.6743   -1.5323   -0.1161 H   0  0  0  0  0  0  0  0  0  0  0  0
    0.6399    2.3347    1.5666 H   0  0  0  0  0  0  0  0  0  0  0  0
    0.9508    1.3731    3.0171 H   0  0  0  0  0  0  0  0  0  0  0  0
   -1.2696    0.8485    3.2987 H   0  0  0  0  0  0  0  0  0  0  0  0
   -1.6314    2.1956    2.2381 H   0  0  0  0  0  0  0  0  0  0  0  0
   -2.0556   -0.5859    1.8529 H   0  0  0  0  0  0  0  0  0  0  0  0
   -1.0850    3.1250    0.2211 H   0  0  0  0  0  0  0  0  0  0  0  0
   -0.2631    1.8629   -0.7732 H   0  0  0  0  0  0  0  0  0  0  0  0
   -1.1541    3.1636   -1.5363 H   0  0  0  0  0  0  0  0  0  0  0  0
   -3.8283   -0.8203    1.0631 H   0  0  0  0  0  0  0  0  0  0  0  0
   -3.2014   -1.5468   -1.2185 H   0  0  0  0  0  0  0  0  0  0  0  0
   -4.1248   -0.2310   -1.9018 H   0  0  0  0  0  0  0  0  0  0  0  0
   -5.7866   -1.8188   -1.9586 H   0  0  0  0  0  0  0  0  0  0  0  0
   -5.1215   -2.7231   -0.6009 H   0  0  0  0  0  0  0  0  0  0  0  0
   -7.2376    0.5978    0.4352 H   0  0  0  0  0  0  0  0  0  0  0  0
   -6.4344    0.6091   -1.1376 H   0  0  0  0  0  0  0  0  0  0  0  0
   -5.2355    0.7911    1.6607 H   0  0  0  0  0  0  0  0  0  0  0  0
   -4.9641    1.8518    0.3046 H   0  0  0  0  0  0  0  0  0  0  0  0
   -0.2801   -0.3710   -0.4325 H   0  0  0  0  0  0  0  0  0  0  0  0
   -0.2291   -1.4756    0.9500 H   0  0  0  0  0  0  0  0  0  0  0  0
    4.8304    0.4163    0.2069 H   0  0  0  0  0  0  0  0  0  0  0  0
  1  2  1  0
  2  3  1  0
  3  4  2  0
  4  5  1  0
  5  6  2  0
  6  7  1  0
  7  8  1  0
  8  9  1  0
  9 10  2  0
  9 11  1  0
 11 12  1  0
 12 13  1  0
 13 14  1  0
 14 15  1  0
 15 16  1  0
 16 17  1  0
 16 18  2  0
 15 19  1  0
 19 20  1  0
 20 21  1  0
 21 22  1  0
 22 23  1  0
 23 24  1  0
 14 25  1  0
  7 26  2  0
 26  3  1  0
 25 11  1  0
 24 19  1  0
  1 27  1  0
  1 28  1  0
  1 29  1  0
  4 30  1  0
  5 31  1  0
  6 32  1  0
  8 33  1  0
 12 34  1  0
 12 35  1  0
 13 36  1  0
 13 37  1  0
 14 38  1  0
 17 39  1  0
 17 40  1  0
 17 41  1  0
 19 42  1  0
 20 43  1  0
 20 44  1  0
 21 45  1  0
 21 46  1  0
 23 47  1  0
 23 48  1  0
 24 49  1  0
 24 50  1  0
 25 51  1  0
 25 52  1  0
 26 53  1  0
M  END
$$$$
