
     RDKit          3D

 28 30  0  0  0  0  0  0  0  0999 V2000
   -3.4807   -1.7826   -0.4495 C   0  0  0  0  0  0  0  0  0  0  0  0
   -2.6823   -0.5351   -0.1856 C   0  0  0  0  0  0  0  0  0  0  0  0
   -1.2755   -0.6159   -0.1691 C   0  0  0  0  0  0  0  0  0  0  0  0
   -0.4785    0.5201    0.0341 C   0  0  0  0  0  0  0  0  0  0  0  0
    0.9817    0.4543    0.0523 C   0  0  0  0  0  0  0  0  0  0  0  0
    1.8504    1.4351    0.2327 N   0  0  0  0  0  0  0  0  0  0  0  0
    3.0593    0.8084    0.1531 C   0  0  0  0  0  0  0  0  0  0  0  0
    4.2765    1.3869    0.2736 N   0  0  0  0  0  0  0  0  0  0  0  0
    5.3067    0.5161    0.1497 C   0  0  0  0  0  0  0  0  0  0  0  0
    5.1949   -0.8569   -0.0798 C   0  0  0  0  0  0  0  0  0  0  0  0
    3.9324   -1.4397   -0.2012 C   0  0  0  0  0  0  0  0  0  0  0  0
    2.8825   -0.5457   -0.0743 C   0  0  0  0  0  0  0  0  0  0  0  0
    1.5445   -0.7875   -0.1406 O   0  0  0  0  0  0  0  0  0  0  0  0
   -1.1167    1.7523    0.2069 C   0  0  0  0  0  0  0  0  0  0  0  0
   -2.5117    1.8418    0.1961 C   0  0  0  0  0  0  0  0  0  0  0  0
   -3.3082    0.7001    0.0545 C   0  0  0  0  0  0  0  0  0  0  0  0
   -4.6975    0.8549   -0.0603 N   0  0  0  0  0  0  0  0  0  0  0  0
   -4.1385   -1.6393   -1.3129 H   0  0  0  0  0  0  0  0  0  0  0  0
   -4.0809   -2.0400    0.4291 H   0  0  0  0  0  0  0  0  0  0  0  0
   -2.8330   -2.6375   -0.6712 H   0  0  0  0  0  0  0  0  0  0  0  0
   -0.8005   -1.5821   -0.3313 H   0  0  0  0  0  0  0  0  0  0  0  0
    6.2905    0.9723    0.2446 H   0  0  0  0  0  0  0  0  0  0  0  0
    6.0903   -1.4662   -0.1631 H   0  0  0  0  0  0  0  0  0  0  0  0
    3.7800   -2.4952   -0.3791 H   0  0  0  0  0  0  0  0  0  0  0  0
   -0.5284    2.6591    0.3404 H   0  0  0  0  0  0  0  0  0  0  0  0
   -2.9727    2.8206    0.3034 H   0  0  0  0  0  0  0  0  0  0  0  0
   -5.2281    0.0228    0.1734 H   0  0  0  0  0  0  0  0  0  0  0  0
   -5.0567    1.6789    0.4116 H   0  0  0  0  0  0  0  0  0  0  0  0
  1  2  1  0
  2  3  2  0
  3  4  1  0
  4  5  1  0
  5  6  2  0
  6  7  1  0
  7  8  2  0
  8  9  1  0
  9 10  2  0
 10 11  1  0
 11 12  2  0
 12 13  1  0
  4 14  2  0
 14 15  1  0
 15 16  2  0
 16 17  1  0
 16  2  1  0
 13  5  1  0
 12  7  1  0
  1 18  1  0
  1 19  1  0
  1 20  1  0
  3 21  1  0
  9 22  1  0
 10 23  1  0
 11 24  1  0
 14 25  1  0
 15 26  1  0
 17 27  1  0
 17 28  1  0
M  END
$$$$
