
     RDKit          3D

 50 52  0  0  0  0  0  0  0  0999 V2000
   -7.5282    0.3236    1.1171 C   0  0  0  0  0  0  0  0  0  0  0  0
   -6.5964   -0.8193    0.9437 C   0  0  0  0  0  0  0  0  0  0  0  0
   -6.4938   -1.8497    1.7598 N   0  0  0  0  0  0  0  0  0  0  0  0
   -5.5530   -2.6781    1.2114 C   0  0  0  0  0  0  0  0  0  0  0  0
   -5.0563   -2.1416    0.0497 C   0  0  0  0  0  0  0  0  0  0  0  0
   -5.7123   -0.9488   -0.1025 N   0  0  0  0  0  0  0  0  0  0  0  0
   -5.4956   -0.0140   -1.1907 C   0  0  0  0  0  0  0  0  0  0  0  0
   -4.5559    1.1322   -0.8173 C   0  0  0  0  0  0  0  0  0  0  0  0
   -3.2104    0.6873   -0.4852 N   0  0  0  0  0  0  0  0  0  0  0  0
   -2.1243    1.5192   -0.6670 C   0  0  0  0  0  0  0  0  0  0  0  0
   -2.1928    2.6022   -1.2368 O   0  0  0  0  0  0  0  0  0  0  0  0
   -0.8397    0.9464   -0.1155 C   0  0  0  0  0  0  0  0  0  0  0  0
    0.3211    1.9047   -0.3141 C   0  0  2  0  0  0  0  0  0  0  0  0
    0.8327    1.9280   -1.6619 N   0  0  0  0  0  0  0  0  0  0  0  0
    2.1823    1.6658   -1.7113 C   0  0  0  0  0  0  0  0  0  0  0  0
    2.8490    1.6985   -2.7311 O   0  0  0  0  0  0  0  0  0  0  0  0
    2.6064    1.3661   -0.4523 N   0  0  0  0  0  0  0  0  0  0  0  0
    3.9537    0.9482   -0.1195 C   0  0  0  0  0  0  0  0  0  0  0  0
    4.1205   -0.5658   -0.2653 C   0  0  0  0  0  0  0  0  0  0  0  0
    5.5181   -1.0083    0.0846 C   0  0  0  0  0  0  0  0  0  0  0  0
    6.5144   -1.0556   -0.8995 C   0  0  0  0  0  0  0  0  0  0  0  0
    7.8137   -1.4442   -0.5704 C   0  0  0  0  0  0  0  0  0  0  0  0
    8.1293   -1.7840    0.7438 C   0  0  0  0  0  0  0  0  0  0  0  0
    7.1465   -1.7345    1.7308 C   0  0  0  0  0  0  0  0  0  0  0  0
    5.8464   -1.3462    1.4043 C   0  0  0  0  0  0  0  0  0  0  0  0
    1.5641    1.4207    0.4305 C   0  0  0  0  0  0  0  0  0  0  0  0
    1.6032    1.1380    1.6203 O   0  0  0  0  0  0  0  0  0  0  0  0
   -8.1578    0.1713    1.9996 H   0  0  0  0  0  0  0  0  0  0  0  0
   -6.9781    1.2584    1.2554 H   0  0  0  0  0  0  0  0  0  0  0  0
   -8.1869    0.4247    0.2495 H   0  0  0  0  0  0  0  0  0  0  0  0
   -5.2874   -3.6165    1.6808 H   0  0  0  0  0  0  0  0  0  0  0  0
   -4.3187   -2.5000   -0.6548 H   0  0  0  0  0  0  0  0  0  0  0  0
   -6.4734    0.3744   -1.4942 H   0  0  0  0  0  0  0  0  0  0  0  0
   -5.0908   -0.5815   -2.0372 H   0  0  0  0  0  0  0  0  0  0  0  0
   -4.9283    1.6841    0.0523 H   0  0  0  0  0  0  0  0  0  0  0  0
   -4.5035    1.8368   -1.6546 H   0  0  0  0  0  0  0  0  0  0  0  0
   -3.1235   -0.0419    0.2163 H   0  0  0  0  0  0  0  0  0  0  0  0
   -0.9921    0.7557    0.9538 H   0  0  0  0  0  0  0  0  0  0  0  0
   -0.6444   -0.0155   -0.6050 H   0  0  0  0  0  0  0  0  0  0  0  0
    0.0992    2.9322   -0.0072 H   0  0  0  0  0  0  0  0  0  0  0  0
    0.3496    2.3306   -2.4571 H   0  0  0  0  0  0  0  0  0  0  0  0
    4.6536    1.4723   -0.7811 H   0  0  0  0  0  0  0  0  0  0  0  0
    4.1679    1.2561    0.9108 H   0  0  0  0  0  0  0  0  0  0  0  0
    3.8824   -0.8776   -1.2906 H   0  0  0  0  0  0  0  0  0  0  0  0
    3.3986   -1.0909    0.3738 H   0  0  0  0  0  0  0  0  0  0  0  0
    6.2846   -0.7896   -1.9294 H   0  0  0  0  0  0  0  0  0  0  0  0
    8.5804   -1.4806   -1.3400 H   0  0  0  0  0  0  0  0  0  0  0  0
    9.1415   -2.0863    0.9990 H   0  0  0  0  0  0  0  0  0  0  0  0
    7.3930   -1.9975    2.7561 H   0  0  0  0  0  0  0  0  0  0  0  0
    5.0913   -1.3092    2.1869 H   0  0  0  0  0  0  0  0  0  0  0  0
  1  2  1  0
  2  3  2  0
  3  4  1  0
  4  5  2  0
  5  6  1  0
  6  7  1  0
  7  8  1  0
  8  9  1  0
  9 10  1  0
 10 11  2  0
 10 12  1  0
 12 13  1  0
 13 14  1  0
 14 15  1  0
 15 16  2  0
 15 17  1  0
 17 18  1  0
 18 19  1  0
 19 20  1  0
 20 21  2  0
 21 22  1  0
 22 23  2  0
 23 24  1  0
 24 25  2  0
 17 26  1  0
 26 27  2  0
  6  2  1  0
 26 13  1  0
 25 20  1  0
  1 28  1  0
  1 29  1  0
  1 30  1  0
  4 31  1  0
  5 32  1  0
  7 33  1  0
  7 34  1  0
  8 35  1  0
  8 36  1  0
  9 37  1  0
 12 38  1  0
 12 39  1  0
 13 40  1  1
 14 41  1  0
 18 42  1  0
 18 43  1  0
 19 44  1  0
 19 45  1  0
 21 46  1  0
 22 47  1  0
 23 48  1  0
 24 49  1  0
 25 50  1  0
M  END
$$$$
