
     RDKit          3D

 62 66  0  0  0  0  0  0  0  0999 V2000
   -9.3991   -0.2507   -0.6510 C   0  0  0  0  0  0  0  0  0  0  0  0
   -8.1625   -0.5736   -1.4742 C   0  0  0  0  0  0  0  0  0  0  0  0
   -6.9802   -0.0715   -0.8478 O   0  0  0  0  0  0  0  0  0  0  0  0
   -6.4246   -0.7672    0.1927 C   0  0  0  0  0  0  0  0  0  0  0  0
   -6.7628   -2.0760    0.5525 C   0  0  0  0  0  0  0  0  0  0  0  0
   -6.1162   -2.7119    1.6167 C   0  0  0  0  0  0  0  0  0  0  0  0
   -5.1236   -2.0500    2.3306 C   0  0  0  0  0  0  0  0  0  0  0  0
   -4.7786   -0.7465    1.9832 C   0  0  0  0  0  0  0  0  0  0  0  0
   -5.4294   -0.0893    0.9224 C   0  0  0  0  0  0  0  0  0  0  0  0
   -5.0112    1.3219    0.5871 C   0  0  0  0  0  0  0  0  0  0  0  0
   -3.8439    1.3082   -0.2655 N   0  0  0  0  0  0  0  0  0  0  0  0
   -2.6671    1.9307    0.0872 C   0  0  0  0  0  0  0  0  0  0  0  0
   -2.5461    2.5978    1.1097 O   0  0  0  0  0  0  0  0  0  0  0  0
   -1.5287    1.6867   -0.9011 C   0  0  0  0  0  0  0  0  0  0  0  0
   -0.3610    2.6566   -0.6709 C   0  0  0  0  0  0  0  0  0  0  0  0
    0.9673    2.0646   -1.1294 C   0  0  0  0  0  0  0  0  0  0  0  0
    1.2704    0.8253   -0.4017 N   0  0  0  0  0  0  0  0  0  0  0  0
    2.5910    0.4552   -0.2339 C   0  0  0  0  0  0  0  0  0  0  0  0
    3.5969    1.0012   -0.8526 N   0  0  0  0  0  0  0  0  0  0  0  0
    4.7704    0.4004   -0.4701 N   0  0  0  0  0  0  0  0  0  0  0  0
    5.9862    0.7730   -1.0010 C   0  0  0  0  0  0  0  0  0  0  0  0
    6.1689    1.6579   -1.8340 O   0  0  0  0  0  0  0  0  0  0  0  0
    7.1379   -0.0193   -0.4740 C   0  0  0  0  0  0  0  0  0  0  0  0
    6.9002   -0.9748    0.4451 C   0  0  0  0  0  0  0  0  0  0  0  0
    5.6504   -1.2906    0.9295 N   0  0  0  0  0  0  0  0  0  0  0  0
    4.6719   -0.6008    0.4499 C   0  0  0  0  0  0  0  0  0  0  0  0
    3.0170   -0.8309    0.8923 S   0  0  0  0  0  0  0  0  0  0  0  0
    8.0285   -1.8008    1.0248 C   0  0  0  0  0  0  0  0  0  0  0  0
    9.4222   -1.2432    0.7349 C   0  0  0  0  0  0  0  0  0  0  0  0
    9.5373   -0.7784   -0.7111 C   0  0  0  0  0  0  0  0  0  0  0  0
    8.4970    0.2977   -1.0276 C   0  0  0  0  0  0  0  0  0  0  0  0
    0.1324    0.0537    0.0977 C   0  0  0  0  0  0  0  0  0  0  0  0
   -1.0735    0.2211   -0.8254 C   0  0  0  0  0  0  0  0  0  0  0  0
   -9.3585   -0.7163    0.3393 H   0  0  0  0  0  0  0  0  0  0  0  0
  -10.3042   -0.5944   -1.1596 H   0  0  0  0  0  0  0  0  0  0  0  0
   -9.4752    0.8303   -0.4908 H   0  0  0  0  0  0  0  0  0  0  0  0
   -8.2456   -0.0526   -2.4356 H   0  0  0  0  0  0  0  0  0  0  0  0
   -8.0841   -1.6368   -1.7232 H   0  0  0  0  0  0  0  0  0  0  0  0
   -7.5270   -2.6396    0.0282 H   0  0  0  0  0  0  0  0  0  0  0  0
   -6.3934   -3.7268    1.8914 H   0  0  0  0  0  0  0  0  0  0  0  0
   -4.6215   -2.5453    3.1579 H   0  0  0  0  0  0  0  0  0  0  0  0
   -3.9998   -0.2320    2.5449 H   0  0  0  0  0  0  0  0  0  0  0  0
   -5.8011    1.8742    0.0708 H   0  0  0  0  0  0  0  0  0  0  0  0
   -4.8122    1.8718    1.5138 H   0  0  0  0  0  0  0  0  0  0  0  0
   -3.9169    0.7933   -1.1320 H   0  0  0  0  0  0  0  0  0  0  0  0
   -1.9366    1.8682   -1.9055 H   0  0  0  0  0  0  0  0  0  0  0  0
   -0.2700    2.9274    0.3892 H   0  0  0  0  0  0  0  0  0  0  0  0
   -0.5568    3.5930   -1.2084 H   0  0  0  0  0  0  0  0  0  0  0  0
    1.7473    2.8139   -0.9491 H   0  0  0  0  0  0  0  0  0  0  0  0
    0.9487    1.8616   -2.2069 H   0  0  0  0  0  0  0  0  0  0  0  0
    7.9081   -1.8870    2.1117 H   0  0  0  0  0  0  0  0  0  0  0  0
    7.9553   -2.8159    0.6163 H   0  0  0  0  0  0  0  0  0  0  0  0
   10.1773   -2.0115    0.9420 H   0  0  0  0  0  0  0  0  0  0  0  0
    9.6314   -0.4024    1.4078 H   0  0  0  0  0  0  0  0  0  0  0  0
    9.3967   -1.6355   -1.3818 H   0  0  0  0  0  0  0  0  0  0  0  0
   10.5424   -0.3870   -0.9023 H   0  0  0  0  0  0  0  0  0  0  0  0
    8.8284    1.2564   -0.6090 H   0  0  0  0  0  0  0  0  0  0  0  0
    8.4519    0.4191   -2.1171 H   0  0  0  0  0  0  0  0  0  0  0  0
   -0.1121    0.3692    1.1184 H   0  0  0  0  0  0  0  0  0  0  0  0
    0.3651   -1.0152    0.1287 H   0  0  0  0  0  0  0  0  0  0  0  0
   -1.8786   -0.4429   -0.4902 H   0  0  0  0  0  0  0  0  0  0  0  0
   -0.7964   -0.1138   -1.8348 H   0  0  0  0  0  0  0  0  0  0  0  0
  1  2  1  0
  2  3  1  0
  3  4  1  0
  4  5  2  0
  5  6  1  0
  6  7  2  0
  7  8  1  0
  8  9  2  0
  9 10  1  0
 10 11  1  0
 11 12  1  0
 12 13  2  0
 12 14  1  0
 14 15  1  0
 15 16  1  0
 16 17  1  0
 17 18  1  0
 18 19  2  0
 19 20  1  0
 20 21  1  0
 21 22  2  0
 21 23  1  0
 23 24  2  0
 24 25  1  0
 25 26  2  0
 26 27  1  0
 24 28  1  0
 28 29  1  0
 29 30  1  0
 30 31  1  0
 17 32  1  0
 32 33  1  0
  9  4  1  0
 33 14  1  0
 27 18  1  0
 26 20  1  0
 31 23  1  0
  1 34  1  0
  1 35  1  0
  1 36  1  0
  2 37  1  0
  2 38  1  0
  5 39  1  0
  6 40  1  0
  7 41  1  0
  8 42  1  0
 10 43  1  0
 10 44  1  0
 11 45  1  0
 14 46  1  0
 15 47  1  0
 15 48  1  0
 16 49  1  0
 16 50  1  0
 28 51  1  0
 28 52  1  0
 29 53  1  0
 29 54  1  0
 30 55  1  0
 30 56  1  0
 31 57  1  0
 31 58  1  0
 32 59  1  0
 32 60  1  0
 33 61  1  0
 33 62  1  0
M  END
$$$$
