
     RDKit          3D

 40 42  0  0  0  0  0  0  0  0999 V2000
    5.6973   -1.2248   -1.4174 C   0  0  0  0  0  0  0  0  0  0  0  0
    4.2754   -0.9143   -1.0528 C   0  0  0  0  0  0  0  0  0  0  0  0
    3.3731   -0.4782   -2.0312 C   0  0  0  0  0  0  0  0  0  0  0  0
    2.0557   -0.1627   -1.6896 C   0  0  0  0  0  0  0  0  0  0  0  0
    1.6310   -0.2620   -0.3614 C   0  0  0  0  0  0  0  0  0  0  0  0
    0.2635    0.0845   -0.0031 C   0  0  0  0  0  0  0  0  0  0  0  0
   -0.7623   -0.6561   -0.4506 N   0  0  0  0  0  0  0  0  0  0  0  0
   -1.8609   -0.0865    0.1000 N   0  0  0  0  0  0  0  0  0  0  0  0
   -3.1992   -0.6486   -0.1616 C   0  0  0  0  0  0  0  0  0  0  0  0
   -3.8530   -1.0985    1.1593 C   0  0  0  0  0  0  0  0  0  0  0  0
   -4.0880    0.3995   -0.8587 C   0  0  0  0  0  0  0  0  0  0  0  0
   -3.1296   -1.8868   -1.0889 C   0  0  0  0  0  0  0  0  0  0  0  0
   -1.5564    1.0086    0.8746 C   0  0  0  0  0  0  0  0  0  0  0  0
   -2.4140    1.7892    1.5566 N   0  0  0  0  0  0  0  0  0  0  0  0
   -1.7774    2.7809    2.1980 C   0  0  0  0  0  0  0  0  0  0  0  0
   -0.4579    3.0461    2.2116 N   0  0  0  0  0  0  0  0  0  0  0  0
    0.3682    2.2477    1.5035 C   0  0  0  0  0  0  0  0  0  0  0  0
    1.7071    2.5853    1.5110 N   0  0  0  0  0  0  0  0  0  0  0  0
   -0.1812    1.1603    0.8122 C   0  0  0  0  0  0  0  0  0  0  0  0
    2.5296   -0.6965    0.6200 C   0  0  0  0  0  0  0  0  0  0  0  0
    3.8466   -1.0123    0.2766 C   0  0  0  0  0  0  0  0  0  0  0  0
    6.1110   -1.9939   -0.7567 H   0  0  0  0  0  0  0  0  0  0  0  0
    5.7636   -1.6071   -2.4414 H   0  0  0  0  0  0  0  0  0  0  0  0
    6.3097   -0.3216   -1.3362 H   0  0  0  0  0  0  0  0  0  0  0  0
    3.6877   -0.3870   -3.0686 H   0  0  0  0  0  0  0  0  0  0  0  0
    1.3619    0.1615   -2.4621 H   0  0  0  0  0  0  0  0  0  0  0  0
   -3.2150   -1.8142    1.6909 H   0  0  0  0  0  0  0  0  0  0  0  0
   -4.8196   -1.5822    0.9768 H   0  0  0  0  0  0  0  0  0  0  0  0
   -4.0380   -0.2583    1.8362 H   0  0  0  0  0  0  0  0  0  0  0  0
   -4.2780    1.2697   -0.2222 H   0  0  0  0  0  0  0  0  0  0  0  0
   -5.0641   -0.0235   -1.1232 H   0  0  0  0  0  0  0  0  0  0  0  0
   -3.6192    0.7631   -1.7806 H   0  0  0  0  0  0  0  0  0  0  0  0
   -2.6910   -1.6357   -2.0620 H   0  0  0  0  0  0  0  0  0  0  0  0
   -4.1289   -2.2967   -1.2770 H   0  0  0  0  0  0  0  0  0  0  0  0
   -2.5263   -2.6876   -0.6452 H   0  0  0  0  0  0  0  0  0  0  0  0
   -2.4022    3.4547    2.7764 H   0  0  0  0  0  0  0  0  0  0  0  0
    1.9522    3.2378    2.2440 H   0  0  0  0  0  0  0  0  0  0  0  0
    2.3869    1.8920    1.2372 H   0  0  0  0  0  0  0  0  0  0  0  0
    2.2081   -0.8006    1.6540 H   0  0  0  0  0  0  0  0  0  0  0  0
    4.5336   -1.3454    1.0516 H   0  0  0  0  0  0  0  0  0  0  0  0
  1  2  1  0
  2  3  2  0
  3  4  1  0
  4  5  2  0
  5  6  1  0
  6  7  2  0
  7  8  1  0
  8  9  1  0
  9 10  1  0
  9 11  1  0
  9 12  1  0
  8 13  1  0
 13 14  2  0
 14 15  1  0
 15 16  2  0
 16 17  1  0
 17 18  1  0
 17 19  2  0
  5 20  1  0
 20 21  2  0
 21  2  1  0
 19  6  1  0
 19 13  1  0
  1 22  1  0
  1 23  1  0
  1 24  1  0
  3 25  1  0
  4 26  1  0
 10 27  1  0
 10 28  1  0
 10 29  1  0
 11 30  1  0
 11 31  1  0
 11 32  1  0
 12 33  1  0
 12 34  1  0
 12 35  1  0
 15 36  1  0
 18 37  1  0
 18 38  1  0
 20 39  1  0
 21 40  1  0
M  END
$$$$
