
     RDKit          3D

 51 54  0  0  0  0  0  0  0  0999 V2000
   -8.6304    1.5569   -1.2059 C   0  0  0  0  0  0  0  0  0  0  0  0
   -7.9846    0.3171   -0.9433 O   0  0  0  0  0  0  0  0  0  0  0  0
   -6.7898    0.3678   -0.2798 C   0  0  0  0  0  0  0  0  0  0  0  0
   -6.1323    1.5274    0.1399 C   0  0  0  0  0  0  0  0  0  0  0  0
   -4.9072    1.4392    0.8097 C   0  0  0  0  0  0  0  0  0  0  0  0
   -4.3429    0.1849    1.0531 C   0  0  0  0  0  0  0  0  0  0  0  0
   -2.7826    0.0498    1.8977 S   0  0  0  0  0  6  0  0  0  0  0  0
   -2.3305    1.3896    2.2173 O   0  0  0  0  0  0  0  0  0  0  0  0
   -2.9618   -0.9433    2.9365 O   0  0  0  0  0  0  0  0  0  0  0  0
   -1.7718   -0.5709    0.6719 N   0  0  0  0  0  0  0  0  0  0  0  0
   -1.6494    0.2734   -0.5640 C   0  0  0  0  0  0  0  0  0  0  0  0
   -0.2590   -0.0152   -1.1453 C   0  0  0  0  0  0  0  0  0  0  0  0
    0.4629   -0.6161    0.0192 C   0  0  0  0  0  0  0  0  0  0  0  0
    1.8175   -0.9175    0.1403 C   0  0  0  0  0  0  0  0  0  0  0  0
    2.7700   -0.5868   -0.9547 C   0  0  0  0  0  0  0  0  0  0  0  0
    2.4035   -0.5692   -2.1231 O   0  0  0  0  0  0  0  0  0  0  0  0
    4.0543   -0.2792   -0.5621 N   0  0  0  0  0  0  0  0  0  0  0  0
    5.0232    0.1764   -1.5308 C   0  0  0  0  0  0  0  0  0  0  0  0
    6.3967    0.2179   -0.9235 C   0  0  0  0  0  0  0  0  0  0  0  0
    7.1455   -0.9544   -0.7827 C   0  0  0  0  0  0  0  0  0  0  0  0
    8.3953   -0.8775   -0.1894 C   0  0  0  0  0  0  0  0  0  0  0  0
    8.9373    0.2695    0.2716 N   0  0  0  0  0  0  0  0  0  0  0  0
    8.1976    1.3897    0.1310 C   0  0  0  0  0  0  0  0  0  0  0  0
    6.9380    1.4150   -0.4472 C   0  0  0  0  0  0  0  0  0  0  0  0
    2.2532   -1.5721    1.3031 C   0  0  0  0  0  0  0  0  0  0  0  0
    1.3415   -1.9142    2.3120 C   0  0  0  0  0  0  0  0  0  0  0  0
   -0.0129   -1.6014    2.1791 C   0  0  0  0  0  0  0  0  0  0  0  0
   -0.4316   -0.9245    1.0451 C   0  0  0  0  0  0  0  0  0  0  0  0
   -4.9949   -0.9811    0.6477 C   0  0  0  0  0  0  0  0  0  0  0  0
   -6.2155   -0.8820   -0.0214 C   0  0  0  0  0  0  0  0  0  0  0  0
   -9.5698    1.3412   -1.7245 H   0  0  0  0  0  0  0  0  0  0  0  0
   -8.8760    2.0794   -0.2753 H   0  0  0  0  0  0  0  0  0  0  0  0
   -8.0227    2.1860   -1.8648 H   0  0  0  0  0  0  0  0  0  0  0  0
   -6.5476    2.5147   -0.0354 H   0  0  0  0  0  0  0  0  0  0  0  0
   -4.4081    2.3487    1.1376 H   0  0  0  0  0  0  0  0  0  0  0  0
   -2.4355    0.0241   -1.2831 H   0  0  0  0  0  0  0  0  0  0  0  0
   -1.7243    1.3392   -0.3188 H   0  0  0  0  0  0  0  0  0  0  0  0
    0.2098    0.9045   -1.5072 H   0  0  0  0  0  0  0  0  0  0  0  0
   -0.3290   -0.7431   -1.9607 H   0  0  0  0  0  0  0  0  0  0  0  0
    4.2311   -0.0666    0.4109 H   0  0  0  0  0  0  0  0  0  0  0  0
    4.7163    1.1703   -1.8777 H   0  0  0  0  0  0  0  0  0  0  0  0
    5.0082   -0.4864   -2.4044 H   0  0  0  0  0  0  0  0  0  0  0  0
    6.7636   -1.9104   -1.1270 H   0  0  0  0  0  0  0  0  0  0  0  0
    9.0103   -1.7641   -0.0630 H   0  0  0  0  0  0  0  0  0  0  0  0
    8.6579    2.2978    0.5101 H   0  0  0  0  0  0  0  0  0  0  0  0
    6.3962    2.3521   -0.5232 H   0  0  0  0  0  0  0  0  0  0  0  0
    3.2939   -1.8643    1.4230 H   0  0  0  0  0  0  0  0  0  0  0  0
    1.6858   -2.4449    3.1974 H   0  0  0  0  0  0  0  0  0  0  0  0
   -0.7082   -1.9028    2.9559 H   0  0  0  0  0  0  0  0  0  0  0  0
   -4.5622   -1.9586    0.8485 H   0  0  0  0  0  0  0  0  0  0  0  0
   -6.7290   -1.7861   -0.3419 H   0  0  0  0  0  0  0  0  0  0  0  0
  1  2  1  0
  2  3  1  0
  3  4  2  0
  4  5  1  0
  5  6  2  0
  6  7  1  0
  7  8  2  0
  7  9  2  0
  7 10  1  0
 10 11  1  0
 11 12  1  0
 12 13  1  0
 13 14  2  0
 14 15  1  0
 15 16  2  0
 15 17  1  0
 17 18  1  0
 18 19  1  0
 19 20  2  0
 20 21  1  0
 21 22  2  0
 22 23  1  0
 23 24  2  0
 14 25  1  0
 25 26  2  0
 26 27  1  0
 27 28  2  0
  6 29  1  0
 29 30  2  0
 30  3  1  0
 28 10  1  0
 28 13  1  0
 24 19  1  0
  1 31  1  0
  1 32  1  0
  1 33  1  0
  4 34  1  0
  5 35  1  0
 11 36  1  0
 11 37  1  0
 12 38  1  0
 12 39  1  0
 17 40  1  0
 18 41  1  0
 18 42  1  0
 20 43  1  0
 21 44  1  0
 23 45  1  0
 24 46  1  0
 25 47  1  0
 26 48  1  0
 27 49  1  0
 29 50  1  0
 30 51  1  0
M  END
$$$$
