
     RDKit          3D

 38 39  0  0  0  0  0  0  0  0999 V2000
   -3.9101    1.7500   -1.5006 N   0  0  0  0  0  0  0  0  0  0  0  0
   -4.2611    0.8620   -0.4714 C   0  0  0  0  0  0  0  0  0  0  0  0
   -5.5486    0.9732    0.0751 C   0  0  0  0  0  0  0  0  0  0  0  0
   -6.0262    0.0398    0.9962 C   0  0  0  0  0  0  0  0  0  0  0  0
   -5.2351   -1.0442    1.3596 C   0  0  0  0  0  0  0  0  0  0  0  0
   -3.9595   -1.1886    0.8114 C   0  0  0  0  0  0  0  0  0  0  0  0
   -3.4559   -0.2373   -0.0955 C   0  0  0  0  0  0  0  0  0  0  0  0
   -2.0599   -0.3732   -0.6314 C   0  0  0  0  0  0  0  0  0  0  0  0
   -1.7213    0.1823   -1.6723 O   0  0  0  0  0  0  0  0  0  0  0  0
   -1.1666   -1.0958    0.1405 N   0  0  0  0  0  0  0  0  0  0  0  0
    0.2336   -1.2113   -0.2327 C   0  0  0  0  0  0  0  0  0  0  0  0
    1.0410    0.0328    0.1617 C   0  0  0  0  0  0  0  0  0  0  0  0
    2.5415   -0.0086   -0.0681 C   0  0  0  0  0  0  0  0  0  0  0  0
    3.2055   -1.0234   -0.6542 C   0  0  0  0  0  0  0  0  0  0  0  0
    4.6963   -1.0560   -0.8415 C   0  0  0  0  0  0  0  0  0  0  0  0
    5.4326    0.0052   -0.0263 C   0  0  0  0  0  0  0  0  0  0  0  0
    4.7097    1.3432   -0.0994 C   0  0  0  0  0  0  0  0  0  0  0  0
    3.2756    1.2242    0.4212 C   0  0  0  0  0  0  0  0  0  0  0  0
   -2.9302    1.6650   -1.7910 H   0  0  0  0  0  0  0  0  0  0  0  0
   -4.2291    2.7043   -1.3909 H   0  0  0  0  0  0  0  0  0  0  0  0
   -6.2009    1.7853   -0.2380 H   0  0  0  0  0  0  0  0  0  0  0  0
   -7.0279    0.1466    1.4050 H   0  0  0  0  0  0  0  0  0  0  0  0
   -5.6175   -1.7870    2.0555 H   0  0  0  0  0  0  0  0  0  0  0  0
   -3.3835   -2.0690    1.0808 H   0  0  0  0  0  0  0  0  0  0  0  0
   -1.4079   -1.3174    1.0957 H   0  0  0  0  0  0  0  0  0  0  0  0
    0.6167   -2.1001    0.2802 H   0  0  0  0  0  0  0  0  0  0  0  0
    0.2937   -1.3822   -1.3135 H   0  0  0  0  0  0  0  0  0  0  0  0
    0.8699    0.2245    1.2297 H   0  0  0  0  0  0  0  0  0  0  0  0
    0.6366    0.9013   -0.3739 H   0  0  0  0  0  0  0  0  0  0  0  0
    2.6776   -1.8934   -1.0350 H   0  0  0  0  0  0  0  0  0  0  0  0
    5.0752   -2.0458   -0.5620 H   0  0  0  0  0  0  0  0  0  0  0  0
    4.9119   -0.9198   -1.9080 H   0  0  0  0  0  0  0  0  0  0  0  0
    6.4593    0.1088   -0.3951 H   0  0  0  0  0  0  0  0  0  0  0  0
    5.5010   -0.3156    1.0210 H   0  0  0  0  0  0  0  0  0  0  0  0
    4.6953    1.6938   -1.1394 H   0  0  0  0  0  0  0  0  0  0  0  0
    5.2516    2.0971    0.4827 H   0  0  0  0  0  0  0  0  0  0  0  0
    2.7276    2.1264    0.1239 H   0  0  0  0  0  0  0  0  0  0  0  0
    3.2891    1.2032    1.5183 H   0  0  0  0  0  0  0  0  0  0  0  0
  1  2  1  0
  2  3  2  0
  3  4  1  0
  4  5  2  0
  5  6  1  0
  6  7  2  0
  7  8  1  0
  8  9  2  0
  8 10  1  0
 10 11  1  0
 11 12  1  0
 12 13  1  0
 13 14  2  0
 14 15  1  0
 15 16  1  0
 16 17  1  0
 17 18  1  0
  7  2  1  0
 18 13  1  0
  1 19  1  0
  1 20  1  0
  3 21  1  0
  4 22  1  0
  5 23  1  0
  6 24  1  0
 10 25  1  0
 11 26  1  0
 11 27  1  0
 12 28  1  0
 12 29  1  0
 14 30  1  0
 15 31  1  0
 15 32  1  0
 16 33  1  0
 16 34  1  0
 17 35  1  0
 17 36  1  0
 18 37  1  0
 18 38  1  0
M  END
$$$$
