
     RDKit          3D

 58 61  0  0  0  0  0  0  0  0999 V2000
   -0.9206    3.7516   -1.1763 C   0  0  0  0  0  0  0  0  0  0  0  0
   -0.5566    2.9668    0.0748 C   0  0  0  0  0  0  0  0  0  0  0  0
    0.5176    2.0162   -0.1436 N   0  0  0  0  0  0  0  0  0  0  0  0
    1.8306    2.1166    0.2820 C   0  0  0  0  0  0  0  0  0  0  0  0
    2.6126    3.3216    0.9510 C   0  0  0  0  0  0  0  0  0  0  0  0
    3.7893    3.0798    1.5456 N   0  0  0  0  0  0  0  0  0  0  0  0
    4.1729    4.2799    2.1164 O   0  0  0  0  0  0  0  0  0  0  0  0
    3.2639    5.2836    1.8259 N   0  0  0  0  0  0  0  0  0  0  0  0
    2.3320    4.7055    1.0707 C   0  0  0  0  0  0  0  0  0  0  0  0
    1.3480    5.4249    0.4777 N   0  0  0  0  0  0  0  0  0  0  0  0
    2.4523    0.9646    0.0964 N   0  0  0  0  0  0  0  0  0  0  0  0
    1.5587    0.1138   -0.5025 C   0  0  0  0  0  0  0  0  0  0  0  0
    1.7034   -1.2105   -0.9321 C   0  0  0  0  0  0  0  0  0  0  0  0
    2.9439   -1.8921   -0.7959 C   0  0  0  0  0  0  0  0  0  0  0  0
    4.0017   -2.4489   -0.6719 C   0  0  0  0  0  0  0  0  0  0  0  0
    5.3091   -3.0999   -0.5035 C   0  0  0  0  0  0  0  0  0  0  0  0
    5.4698   -3.6211    0.9233 C   0  0  0  0  0  0  0  0  0  0  0  0
    5.4801   -4.2318   -1.5132 C   0  0  0  0  0  0  0  0  0  0  0  0
    6.3405   -2.1432   -0.7459 O   0  0  0  0  0  0  0  0  0  0  0  0
    0.6728   -1.8887   -1.4834 N   0  0  0  0  0  0  0  0  0  0  0  0
   -0.5141   -1.2470   -1.6042 C   0  0  0  0  0  0  0  0  0  0  0  0
   -0.7810    0.0674   -1.2120 C   0  0  0  0  0  0  0  0  0  0  0  0
   -1.9704    0.7220   -1.3118 O   0  0  0  0  0  0  0  0  0  0  0  0
   -3.1255    0.0087   -1.7610 C   0  0  0  0  0  0  0  0  0  0  0  0
   -3.7836   -0.7885   -0.6254 C   0  0  1  0  0  0  0  0  0  0  0  0
   -4.2024    0.1125    0.5422 C   0  0  0  0  0  0  0  0  0  0  0  0
   -4.8846   -0.6937    1.6529 C   0  0  0  0  0  0  0  0  0  0  0  0
   -5.3394   -2.0825    1.2014 C   0  0  0  0  0  0  0  0  0  0  0  0
   -5.9339   -2.0234   -0.1265 N   0  0  0  0  0  0  0  0  0  0  0  0
   -4.9946   -1.5768   -1.1572 C   0  0  0  0  0  0  0  0  0  0  0  0
    0.3239    0.7398   -0.6596 C   0  0  0  0  0  0  0  0  0  0  0  0
   -0.0426    4.1949   -1.6530 H   0  0  0  0  0  0  0  0  0  0  0  0
   -1.3941    3.1137   -1.9282 H   0  0  0  0  0  0  0  0  0  0  0  0
   -1.6259    4.5510   -0.9292 H   0  0  0  0  0  0  0  0  0  0  0  0
   -1.4274    2.4140    0.4440 H   0  0  0  0  0  0  0  0  0  0  0  0
   -0.2770    3.6247    0.8985 H   0  0  0  0  0  0  0  0  0  0  0  0
    1.2939    5.3224   -0.5317 H   0  0  0  0  0  0  0  0  0  0  0  0
    1.4234    6.4213    0.6825 H   0  0  0  0  0  0  0  0  0  0  0  0
    4.7130   -4.3738    1.1695 H   0  0  0  0  0  0  0  0  0  0  0  0
    5.3853   -2.8060    1.6520 H   0  0  0  0  0  0  0  0  0  0  0  0
    6.4617   -4.0649    1.0676 H   0  0  0  0  0  0  0  0  0  0  0  0
    4.7204   -5.0103   -1.3840 H   0  0  0  0  0  0  0  0  0  0  0  0
    5.4088   -3.8556   -2.5408 H   0  0  0  0  0  0  0  0  0  0  0  0
    6.4699   -4.6937   -1.4203 H   0  0  0  0  0  0  0  0  0  0  0  0
    6.0973   -1.3377   -0.2558 H   0  0  0  0  0  0  0  0  0  0  0  0
   -1.2783   -1.8762   -2.0496 H   0  0  0  0  0  0  0  0  0  0  0  0
   -3.8293    0.7707   -2.1184 H   0  0  0  0  0  0  0  0  0  0  0  0
   -2.9018   -0.6131   -2.6354 H   0  0  0  0  0  0  0  0  0  0  0  0
   -3.0487   -1.5022   -0.2305 H   0  0  0  0  0  0  0  0  0  0  0  0
   -4.8974    0.8815    0.1806 H   0  0  0  0  0  0  0  0  0  0  0  0
   -3.3404    0.6462    0.9591 H   0  0  0  0  0  0  0  0  0  0  0  0
   -4.1958   -0.8079    2.4988 H   0  0  0  0  0  0  0  0  0  0  0  0
   -5.7418   -0.1209    2.0286 H   0  0  0  0  0  0  0  0  0  0  0  0
   -4.5002   -2.7889    1.2126 H   0  0  0  0  0  0  0  0  0  0  0  0
   -6.0775   -2.4652    1.9151 H   0  0  0  0  0  0  0  0  0  0  0  0
   -6.3281   -2.9287   -0.3805 H   0  0  0  0  0  0  0  0  0  0  0  0
   -5.5598   -0.9725   -1.8762 H   0  0  0  0  0  0  0  0  0  0  0  0
   -4.6236   -2.4498   -1.7082 H   0  0  0  0  0  0  0  0  0  0  0  0
  1  2  1  0
  2  3  1  0
  3  4  1  0
  4  5  1  0
  5  6  2  0
  6  7  1  0
  7  8  1  0
  8  9  2  0
  9 10  1  0
  4 11  2  0
 11 12  1  0
 12 13  2  0
 13 14  1  0
 14 15  3  0
 15 16  1  0
 16 17  1  0
 16 18  1  0
 16 19  1  0
 13 20  1  0
 20 21  2  0
 21 22  1  0
 22 23  1  0
 23 24  1  0
 24 25  1  0
 25 26  1  0
 26 27  1  0
 27 28  1  0
 28 29  1  0
 29 30  1  0
 22 31  2  0
 31  3  1  0
  9  5  1  0
 31 12  1  0
 30 25  1  0
  1 32  1  0
  1 33  1  0
  1 34  1  0
  2 35  1  0
  2 36  1  0
 10 37  1  0
 10 38  1  0
 17 39  1  0
 17 40  1  0
 17 41  1  0
 18 42  1  0
 18 43  1  0
 18 44  1  0
 19 45  1  0
 21 46  1  0
 24 47  1  0
 24 48  1  0
 25 49  1  1
 26 50  1  0
 26 51  1  0
 27 52  1  0
 27 53  1  0
 28 54  1  0
 28 55  1  0
 29 56  1  0
 30 57  1  0
 30 58  1  0
M  END
$$$$
