
     RDKit          3D

 42 42  0  0  0  0  0  0  0  0999 V2000
    4.4128    0.3125    1.5961 C   0  0  0  0  0  0  0  0  0  0  0  0
    3.2367    0.1027    0.7881 N   0  0  0  0  0  0  0  0  0  0  0  0
    3.2394   -1.1631    0.1050 C   0  0  0  0  0  0  0  0  0  0  0  0
    2.8890    1.2172   -0.0278 C   0  0  0  0  0  0  0  0  0  0  0  0
    1.6497    0.8694   -0.8170 C   0  0  0  0  0  0  0  0  0  0  0  0
    0.5814    0.5732    0.0548 O   0  0  0  0  0  0  0  0  0  0  0  0
   -0.5714    0.2499   -0.6211 C   0  0  0  0  0  0  0  0  0  0  0  0
   -1.0184   -1.1380   -0.3241 C   0  0  0  0  0  0  0  0  0  0  0  0
   -1.4461   -1.9747   -1.3571 C   0  0  0  0  0  0  0  0  0  0  0  0
   -1.8642   -3.2657   -1.1093 C   0  0  0  0  0  0  0  0  0  0  0  0
   -1.8515   -3.7199    0.1941 C   0  0  0  0  0  0  0  0  0  0  0  0
   -1.4324   -2.9096    1.2312 C   0  0  0  0  0  0  0  0  0  0  0  0
   -1.0102   -1.6029    0.9728 C   0  0  0  0  0  0  0  0  0  0  0  0
   -1.6828    1.2100   -0.3772 C   0  0  0  0  0  0  0  0  0  0  0  0
   -2.4606    1.6653   -1.4309 C   0  0  0  0  0  0  0  0  0  0  0  0
   -3.4786    2.5423   -1.2310 C   0  0  0  0  0  0  0  0  0  0  0  0
   -3.7517    2.9922    0.0295 C   0  0  0  0  0  0  0  0  0  0  0  0
   -2.9874    2.5527    1.1092 C   0  0  0  0  0  0  0  0  0  0  0  0
   -1.9619    1.6665    0.8913 C   0  0  0  0  0  0  0  0  0  0  0  0
    0.6897    0.0000    0.0000 Cl  0  0  0  0  0  0  0  0  0  0  0  0
    4.1136    0.8584    2.5087 H   0  0  0  0  0  0  0  0  0  0  0  0
    5.1884    0.9036    1.0829 H   0  0  0  0  0  0  0  0  0  0  0  0
    4.7971   -0.6890    1.8942 H   0  0  0  0  0  0  0  0  0  0  0  0
    3.7874   -1.1450   -0.8610 H   0  0  0  0  0  0  0  0  0  0  0  0
    3.7213   -1.9057    0.8046 H   0  0  0  0  0  0  0  0  0  0  0  0
    2.2111   -1.4864   -0.0615 H   0  0  0  0  0  0  0  0  0  0  0  0
    2.6232    2.0717    0.6278 H   0  0  0  0  0  0  0  0  0  0  0  0
    3.6637    1.5163   -0.7580 H   0  0  0  0  0  0  0  0  0  0  0  0
    1.8040   -0.0299   -1.4340 H   0  0  0  0  0  0  0  0  0  0  0  0
    1.2987    1.7478   -1.4155 H   0  0  0  0  0  0  0  0  0  0  0  0
   -0.3203    0.3175   -1.7227 H   0  0  0  0  0  0  0  0  0  0  0  0
   -1.4335   -1.5605   -2.3612 H   0  0  0  0  0  0  0  0  0  0  0  0
   -2.1925   -3.8905   -1.9482 H   0  0  0  0  0  0  0  0  0  0  0  0
   -2.1731   -4.7279    0.4241 H   0  0  0  0  0  0  0  0  0  0  0  0
   -1.4393   -3.3121    2.2479 H   0  0  0  0  0  0  0  0  0  0  0  0
   -0.6820   -0.9710    1.7851 H   0  0  0  0  0  0  0  0  0  0  0  0
   -2.2501    1.3145   -2.4248 H   0  0  0  0  0  0  0  0  0  0  0  0
   -4.0757    2.8849   -2.0784 H   0  0  0  0  0  0  0  0  0  0  0  0
   -4.5464    3.6786    0.1952 H   0  0  0  0  0  0  0  0  0  0  0  0
   -3.2230    2.9240    2.1012 H   0  0  0  0  0  0  0  0  0  0  0  0
   -1.3645    1.3209    1.7171 H   0  0  0  0  0  0  0  0  0  0  0  0
   -0.6897    0.0000    0.0000 H   0  0  0  0  0  0  0  0  0  0  0  0
  1  2  1  0
  2  3  1  0
  2  4  1  0
  4  5  1  0
  5  6  1  0
  6  7  1  0
  7  8  1  0
  8  9  2  0
  9 10  1  0
 10 11  2  0
 11 12  1  0
 12 13  2  0
  7 14  1  0
 14 15  2  0
 15 16  1  0
 16 17  2  0
 17 18  1  0
 18 19  2  0
 13  8  1  0
 19 14  1  0
  1 21  1  0
  1 22  1  0
  1 23  1  0
  3 24  1  0
  3 25  1  0
  3 26  1  0
  4 27  1  0
  4 28  1  0
  5 29  1  0
  5 30  1  0
  7 31  1  0
  9 32  1  0
 10 33  1  0
 11 34  1  0
 12 35  1  0
 13 36  1  0
 15 37  1  0
 16 38  1  0
 17 39  1  0
 18 40  1  0
 19 41  1  0
 20 42  1  0
M  END
$$$$
