
     RDKit          3D

 12 12  0  0  0  0  0  0  0  0999 V2000
   -0.6945   -2.5547    0.0537 O   0  0  0  0  0  0  0  0  0  0  0  0
   -0.3733   -1.3723    0.0288 C   0  0  0  0  0  0  0  0  0  0  0  0
   -1.3067   -0.3669    0.0216 N   0  0  0  0  0  0  0  0  0  0  0  0
   -0.9842    0.9642   -0.0060 C   0  0  0  0  0  0  0  0  0  0  0  0
    0.2906    1.3542   -0.0276 C   0  0  0  0  0  0  0  0  0  0  0  0
    0.6514    2.6497   -0.0549 F   0  0  0  0  0  0  0  0  0  0  0  0
    1.3665    0.3369   -0.0217 C   0  0  0  0  0  0  0  0  0  0  0  0
    2.5560    0.6322   -0.0406 O   0  0  0  0  0  0  0  0  0  0  0  0
    0.9342   -0.9666    0.0066 N   0  0  0  0  0  0  0  0  0  0  0  0
   -2.2766   -0.6643    0.0380 H   0  0  0  0  0  0  0  0  0  0  0  0
   -1.8027    1.6749   -0.0093 H   0  0  0  0  0  0  0  0  0  0  0  0
    1.6393   -1.6872    0.0114 H   0  0  0  0  0  0  0  0  0  0  0  0
  1  2  2  0
  2  3  1  0
  3  4  1  0
  4  5  2  0
  5  6  1  0
  5  7  1  0
  7  8  2  0
  7  9  1  0
  9  2  1  0
  3 10  1  0
  4 11  1  0
  9 12  1  0
M  END
$$$$
