
     RDKit          3D

 41 44  0  0  0  0  0  0  0  0999 V2000
    3.5260   -1.6259    0.4539 O   0  0  0  0  0  0  0  0  0  0  0  0
    2.6010   -0.8565    0.2244 C   0  0  0  0  0  0  0  0  0  0  0  0
    1.2570   -1.0926    0.4222 N   0  0  0  0  0  0  0  0  0  0  0  0
    0.6203   -2.2555    0.9232 C   0  0  0  0  0  0  0  0  0  0  0  0
    1.3429   -3.3917    1.3056 C   0  0  0  0  0  0  0  0  0  0  0  0
    0.6875   -4.5402    1.7566 C   0  0  0  0  0  0  0  0  0  0  0  0
   -0.7000   -4.5713    1.8278 C   0  0  0  0  0  0  0  0  0  0  0  0
   -1.4391   -3.4456    1.4659 C   0  0  0  0  0  0  0  0  0  0  0  0
   -0.7935   -2.2752    1.0362 C   0  0  0  0  0  0  0  0  0  0  0  0
   -1.6084   -1.0635    0.6888 C   0  0  0  0  0  0  0  0  0  0  0  0
   -1.1842   -0.2695   -0.2616 N   0  0  0  0  0  0  0  0  0  0  0  0
   -1.9462    0.8598   -0.6031 C   0  0  0  0  0  0  0  0  0  0  0  0
   -1.4935    1.6890   -1.6306 C   0  0  0  0  0  0  0  0  0  0  0  0
   -2.2200    2.8246   -1.9966 C   0  0  0  0  0  0  0  0  0  0  0  0
   -3.4086    3.1370   -1.3360 C   0  0  0  0  0  0  0  0  0  0  0  0
   -3.8745    2.3151   -0.3094 C   0  0  0  0  0  0  0  0  0  0  0  0
   -3.1420    1.1835    0.0490 C   0  0  0  0  0  0  0  0  0  0  0  0
   -3.5935    0.3584    1.0784 N   0  0  0  0  0  0  0  0  0  0  0  0
   -2.8951   -0.7525    1.4819 C   0  0  0  0  0  0  0  0  0  0  0  0
   -3.2646   -1.4319    2.4272 O   0  0  0  0  0  0  0  0  0  0  0  0
    2.9225    0.4801   -0.3600 C   0  0  0  0  0  0  0  0  0  0  0  0
    2.1552    1.6209   -0.0757 C   0  0  0  0  0  0  0  0  0  0  0  0
    2.4920    2.8491   -0.6501 C   0  0  0  0  0  0  0  0  0  0  0  0
    3.5950    2.9354   -1.4930 C   0  0  0  0  0  0  0  0  0  0  0  0
    3.9132    4.1148   -2.0417 F   0  0  0  0  0  0  0  0  0  0  0  0
    4.3754    1.8185   -1.7693 C   0  0  0  0  0  0  0  0  0  0  0  0
    4.0424    0.5885   -1.1983 C   0  0  0  0  0  0  0  0  0  0  0  0
    0.6042   -0.4015    0.0520 H   0  0  0  0  0  0  0  0  0  0  0  0
    2.4270   -3.4217    1.2536 H   0  0  0  0  0  0  0  0  0  0  0  0
    1.2688   -5.4138    2.0428 H   0  0  0  0  0  0  0  0  0  0  0  0
   -1.2081   -5.4703    2.1685 H   0  0  0  0  0  0  0  0  0  0  0  0
   -2.5228   -3.5072    1.5239 H   0  0  0  0  0  0  0  0  0  0  0  0
   -0.5723    1.4458   -2.1539 H   0  0  0  0  0  0  0  0  0  0  0  0
   -1.8593    3.4625   -2.8002 H   0  0  0  0  0  0  0  0  0  0  0  0
   -3.9730    4.0208   -1.6244 H   0  0  0  0  0  0  0  0  0  0  0  0
   -4.8017    2.5668    0.1973 H   0  0  0  0  0  0  0  0  0  0  0  0
   -4.4376    0.5761    1.5893 H   0  0  0  0  0  0  0  0  0  0  0  0
    1.3091    1.5768    0.6052 H   0  0  0  0  0  0  0  0  0  0  0  0
    1.9074    3.7393   -0.4386 H   0  0  0  0  0  0  0  0  0  0  0  0
    5.2374    1.9107   -2.4225 H   0  0  0  0  0  0  0  0  0  0  0  0
    4.6538   -0.2873   -1.4087 H   0  0  0  0  0  0  0  0  0  0  0  0
  1  2  2  0
  2  3  1  0
  3  4  1  0
  4  5  2  0
  5  6  1  0
  6  7  2  0
  7  8  1  0
  8  9  2  0
  9 10  1  0
 10 11  2  0
 11 12  1  0
 12 13  2  0
 13 14  1  0
 14 15  2  0
 15 16  1  0
 16 17  2  0
 17 18  1  0
 18 19  1  0
 19 20  2  0
  2 21  1  0
 21 22  2  0
 22 23  1  0
 23 24  2  0
 24 25  1  0
 24 26  1  0
 26 27  2  0
  9  4  1  0
 19 10  1  0
 27 21  1  0
 17 12  1  0
  3 28  1  0
  5 29  1  0
  6 30  1  0
  7 31  1  0
  8 32  1  0
 13 33  1  0
 14 34  1  0
 15 35  1  0
 16 36  1  0
 18 37  1  0
 22 38  1  0
 23 39  1  0
 26 40  1  0
 27 41  1  0
M  END
$$$$
