
     RDKit          3D

 35 36  0  0  0  0  0  0  0  0999 V2000
    1.4491   -1.4381    1.5973 O   0  0  0  0  0  0  0  0  0  0  0  0
    1.8459   -0.4489    0.9937 C   0  0  0  0  0  0  0  0  0  0  0  0
    1.0453    0.6334    0.6942 N   0  0  0  0  0  0  0  0  0  0  0  0
   -0.3599    0.6629    1.0686 C   0  0  0  0  0  0  0  0  0  0  0  0
   -1.2365   -0.2037    0.1420 C   0  0  0  0  0  0  0  0  0  0  0  0
   -2.6792   -0.1141    0.4316 N   0  0  0  0  0  0  0  0  0  0  0  0
   -3.4518   -1.1176   -0.3346 C   0  0  0  0  0  0  0  0  0  0  0  0
   -4.1009   -0.5482   -1.6058 C   0  0  0  0  0  0  0  0  0  0  0  0
   -5.0062    0.5341   -1.3470 O   0  0  0  0  0  0  0  0  0  0  0  0
   -4.7169    1.2288   -0.1263 C   0  0  0  0  0  0  0  0  0  0  0  0
   -3.2147    1.2449    0.1957 C   0  0  0  0  0  0  0  0  0  0  0  0
    3.2503   -0.3901    0.5013 C   0  0  0  0  0  0  0  0  0  0  0  0
    3.9122   -1.5966    0.2344 C   0  0  0  0  0  0  0  0  0  0  0  0
    5.2310   -1.5897   -0.2276 C   0  0  0  0  0  0  0  0  0  0  0  0
    5.8917   -0.3768   -0.4131 C   0  0  0  0  0  0  0  0  0  0  0  0
    7.5152   -0.3654   -0.9809 Cl  0  0  0  0  0  0  0  0  0  0  0  0
    5.2480    0.8288   -0.1342 C   0  0  0  0  0  0  0  0  0  0  0  0
    3.9276    0.8247    0.3272 C   0  0  0  0  0  0  0  0  0  0  0  0
    1.3661    1.3187    0.0248 H   0  0  0  0  0  0  0  0  0  0  0  0
   -0.4544    0.3189    2.1050 H   0  0  0  0  0  0  0  0  0  0  0  0
   -0.6596    1.7147    1.0288 H   0  0  0  0  0  0  0  0  0  0  0  0
   -1.0382    0.0590   -0.9058 H   0  0  0  0  0  0  0  0  0  0  0  0
   -0.9129   -1.2453    0.2637 H   0  0  0  0  0  0  0  0  0  0  0  0
   -4.2496   -1.4779    0.3274 H   0  0  0  0  0  0  0  0  0  0  0  0
   -2.8447   -1.9961   -0.5826 H   0  0  0  0  0  0  0  0  0  0  0  0
   -4.6673   -1.3306   -2.1211 H   0  0  0  0  0  0  0  0  0  0  0  0
   -3.3349   -0.1891   -2.3030 H   0  0  0  0  0  0  0  0  0  0  0  0
   -5.0883    2.2527   -0.2377 H   0  0  0  0  0  0  0  0  0  0  0  0
   -5.2895    0.7620    0.6838 H   0  0  0  0  0  0  0  0  0  0  0  0
   -3.0438    1.8582    1.0868 H   0  0  0  0  0  0  0  0  0  0  0  0
   -2.6956    1.7178   -0.6484 H   0  0  0  0  0  0  0  0  0  0  0  0
    3.4001   -2.5455    0.3862 H   0  0  0  0  0  0  0  0  0  0  0  0
    5.7341   -2.5307   -0.4346 H   0  0  0  0  0  0  0  0  0  0  0  0
    5.7720    1.7727   -0.2636 H   0  0  0  0  0  0  0  0  0  0  0  0
    3.4564    1.7719    0.5739 H   0  0  0  0  0  0  0  0  0  0  0  0
  1  2  2  0
  2  3  1  0
  3  4  1  0
  4  5  1  0
  5  6  1  0
  6  7  1  0
  7  8  1  0
  8  9  1  0
  9 10  1  0
 10 11  1  0
  2 12  1  0
 12 13  2  0
 13 14  1  0
 14 15  2  0
 15 16  1  0
 15 17  1  0
 17 18  2  0
 11  6  1  0
 18 12  1  0
  3 19  1  0
  4 20  1  0
  4 21  1  0
  5 22  1  0
  5 23  1  0
  7 24  1  0
  7 25  1  0
  8 26  1  0
  8 27  1  0
 10 28  1  0
 10 29  1  0
 11 30  1  0
 11 31  1  0
 13 32  1  0
 14 33  1  0
 17 34  1  0
 18 35  1  0
M  END
$$$$
