
     RDKit          3D

 54 57  0  0  0  0  0  0  0  0999 V2000
    1.9944   -2.9207   -0.5287 C   0  0  0  0  0  0  0  0  0  0  0  0
    2.0183   -1.8419   -1.6023 C   0  0  0  0  0  0  0  0  0  0  0  0
    1.4394   -0.5843   -1.1314 N   0  0  0  0  0  0  0  0  0  0  0  0
    0.0776   -0.3728   -1.2795 C   0  0  0  0  0  0  0  0  0  0  0  0
   -0.6558   -1.1988   -1.8277 O   0  0  0  0  0  0  0  0  0  0  0  0
   -0.4219    0.8281   -0.7915 N   0  0  0  0  0  0  0  0  0  0  0  0
   -1.8634    1.0318   -0.8622 C   0  0  0  0  0  0  0  0  0  0  0  0
   -2.5281    0.3870    0.3637 C   0  0  0  0  0  0  0  0  0  0  0  0
   -1.8600   -0.0392    1.3096 O   0  0  0  0  0  0  0  0  0  0  0  0
   -3.9155    0.3228    0.3611 N   0  0  0  0  0  0  0  0  0  0  0  0
   -4.6019   -0.3449    1.4711 C   0  0  0  0  0  0  0  0  0  0  0  0
   -5.9054   -1.0162    1.0040 C   0  0  0  0  0  0  0  0  0  0  0  0
   -6.8757   -0.0745    0.4066 N   0  0  0  0  0  0  0  0  0  0  0  0
   -7.7875   -0.7742   -0.4942 C   0  0  0  0  0  0  0  0  0  0  0  0
   -6.2221    1.0753   -0.2458 C   0  0  0  0  0  0  0  0  0  0  0  0
   -4.7746    0.8311   -0.7132 C   0  0  0  0  0  0  0  0  0  0  0  0
    0.3286    1.7872   -0.1340 C   0  0  0  0  0  0  0  0  0  0  0  0
   -0.1121    2.8560    0.2792 O   0  0  0  0  0  0  0  0  0  0  0  0
    1.7381    1.4840    0.0508 C   0  0  0  0  0  0  0  0  0  0  0  0
    2.5931    2.3308    0.7147 C   0  0  0  0  0  0  0  0  0  0  0  0
    3.9034    2.0643    0.8894 N   0  0  0  0  0  0  0  0  0  0  0  0
    4.3544    0.9025    0.3800 C   0  0  0  0  0  0  0  0  0  0  0  0
    5.7840    0.5739    0.5556 C   0  0  0  0  0  0  0  0  0  0  0  0
    6.6648    1.4523    1.2188 C   0  0  0  0  0  0  0  0  0  0  0  0
    8.0204    1.1443    1.3861 C   0  0  0  0  0  0  0  0  0  0  0  0
    8.5229   -0.0541    0.8911 C   0  0  0  0  0  0  0  0  0  0  0  0
   10.1875   -0.4357    1.0938 Cl  0  0  0  0  0  0  0  0  0  0  0  0
    7.6826   -0.9451    0.2322 C   0  0  0  0  0  0  0  0  0  0  0  0
    6.3279   -0.6319    0.0676 C   0  0  0  0  0  0  0  0  0  0  0  0
    3.5808    0.0205   -0.2847 N   0  0  0  0  0  0  0  0  0  0  0  0
    2.2727    0.3225   -0.4399 C   0  0  0  0  0  0  0  0  0  0  0  0
    2.5801   -2.6234    0.3471 H   0  0  0  0  0  0  0  0  0  0  0  0
    2.4141   -3.8531   -0.9185 H   0  0  0  0  0  0  0  0  0  0  0  0
    0.9711   -3.1194   -0.1936 H   0  0  0  0  0  0  0  0  0  0  0  0
    3.0393   -1.6774   -1.9652 H   0  0  0  0  0  0  0  0  0  0  0  0
    1.4463   -2.1956   -2.4685 H   0  0  0  0  0  0  0  0  0  0  0  0
   -2.2588    0.5785   -1.7764 H   0  0  0  0  0  0  0  0  0  0  0  0
   -2.0942    2.1017   -0.8640 H   0  0  0  0  0  0  0  0  0  0  0  0
   -3.9445   -1.0943    1.9253 H   0  0  0  0  0  0  0  0  0  0  0  0
   -4.8113    0.4171    2.2316 H   0  0  0  0  0  0  0  0  0  0  0  0
   -5.6338   -1.7939    0.2767 H   0  0  0  0  0  0  0  0  0  0  0  0
   -6.3796   -1.5183    1.8549 H   0  0  0  0  0  0  0  0  0  0  0  0
   -8.5775   -0.0990   -0.8415 H   0  0  0  0  0  0  0  0  0  0  0  0
   -7.2701   -1.1797   -1.3709 H   0  0  0  0  0  0  0  0  0  0  0  0
   -8.2871   -1.5990    0.0265 H   0  0  0  0  0  0  0  0  0  0  0  0
   -6.8203    1.4560   -1.0826 H   0  0  0  0  0  0  0  0  0  0  0  0
   -6.2023    1.8867    0.4939 H   0  0  0  0  0  0  0  0  0  0  0  0
   -4.7568    0.0887   -1.5199 H   0  0  0  0  0  0  0  0  0  0  0  0
   -4.3565    1.7625   -1.1065 H   0  0  0  0  0  0  0  0  0  0  0  0
    2.2491    3.2709    1.1385 H   0  0  0  0  0  0  0  0  0  0  0  0
    6.2951    2.3972    1.6162 H   0  0  0  0  0  0  0  0  0  0  0  0
    8.6711    1.8450    1.9026 H   0  0  0  0  0  0  0  0  0  0  0  0
    8.0690   -1.8838   -0.1562 H   0  0  0  0  0  0  0  0  0  0  0  0
    5.6907   -1.3472   -0.4510 H   0  0  0  0  0  0  0  0  0  0  0  0
  1  2  1  0
  2  3  1  0
  3  4  1  0
  4  5  2  0
  4  6  1  0
  6  7  1  0
  7  8  1  0
  8  9  2  0
  8 10  1  0
 10 11  1  0
 11 12  1  0
 12 13  1  0
 13 14  1  0
 13 15  1  0
 15 16  1  0
  6 17  1  0
 17 18  2  0
 17 19  1  0
 19 20  2  0
 20 21  1  0
 21 22  2  0
 22 23  1  0
 23 24  2  0
 24 25  1  0
 25 26  2  0
 26 27  1  0
 26 28  1  0
 28 29  2  0
 22 30  1  0
 30 31  2  0
 31  3  1  0
 16 10  1  0
 31 19  1  0
 29 23  1  0
  1 32  1  0
  1 33  1  0
  1 34  1  0
  2 35  1  0
  2 36  1  0
  7 37  1  0
  7 38  1  0
 11 39  1  0
 11 40  1  0
 12 41  1  0
 12 42  1  0
 14 43  1  0
 14 44  1  0
 14 45  1  0
 15 46  1  0
 15 47  1  0
 16 48  1  0
 16 49  1  0
 20 50  1  0
 24 51  1  0
 25 52  1  0
 28 53  1  0
 29 54  1  0
M  END
$$$$
