
     RDKit          3D

 54 56  0  0  0  0  0  0  0  0999 V2000
    7.1200   -1.7897   -0.4772 C   0  0  0  0  0  0  0  0  0  0  0  0
    5.7745   -1.5018   -0.8354 O   0  0  0  0  0  0  0  0  0  0  0  0
    5.1799   -0.4144   -0.2480 C   0  0  0  0  0  0  0  0  0  0  0  0
    5.7662    0.3513    0.7696 C   0  0  0  0  0  0  0  0  0  0  0  0
    5.1033    1.4591    1.3032 C   0  0  0  0  0  0  0  0  0  0  0  0
    3.8465    1.8108    0.8258 C   0  0  0  0  0  0  0  0  0  0  0  0
    3.2489    1.0397   -0.1769 C   0  0  0  0  0  0  0  0  0  0  0  0
    1.9193    1.4694   -0.6551 C   0  0  0  0  0  0  0  0  0  0  0  0
    1.8532    2.1951   -1.6412 O   0  0  0  0  0  0  0  0  0  0  0  0
    0.8230    1.0136    0.0455 N   0  0  0  0  0  0  0  0  0  0  0  0
    0.8184    0.0939    1.1754 C   0  0  0  0  0  0  0  0  0  0  0  0
   -0.6305    0.0491    1.6487 C   0  0  0  0  0  0  0  0  0  0  0  0
   -1.4173    0.3596    0.3695 C   0  0  0  0  0  0  0  0  0  0  0  0
   -2.8318    0.7229    0.5705 N   0  0  0  0  0  0  0  0  0  0  0  0
   -3.1356    1.8939    1.2684 C   0  0  0  0  0  0  0  0  0  0  0  0
   -4.5862    2.2864    1.3987 C   0  0  0  0  0  0  0  0  0  0  0  0
   -2.2740    2.6103    1.7789 O   0  0  0  0  0  0  0  0  0  0  0  0
   -3.8639   -0.1734   -0.0041 C   0  0  0  0  0  0  0  0  0  0  0  0
   -3.8663   -0.1467   -1.5408 C   0  0  0  0  0  0  0  0  0  0  0  0
   -4.4399   -1.4354   -2.1196 C   0  0  0  0  0  0  0  0  0  0  0  0
   -5.4502   -1.9476   -1.2580 O   0  0  0  0  0  0  0  0  0  0  0  0
   -4.9269   -2.4488   -0.0264 C   0  0  0  0  0  0  0  0  0  0  0  0
   -3.7746   -1.6087    0.5236 C   0  0  0  0  0  0  0  0  0  0  0  0
   -0.5278    1.3935   -0.3389 C   0  0  0  0  0  0  0  0  0  0  0  0
    3.8959   -0.0840   -0.7251 C   0  0  0  0  0  0  0  0  0  0  0  0
    3.2697   -0.8643   -1.8509 C   0  0  0  0  0  0  0  0  0  0  0  0
    7.4519   -2.6390   -1.0821 H   0  0  0  0  0  0  0  0  0  0  0  0
    7.1918   -2.0835    0.5750 H   0  0  0  0  0  0  0  0  0  0  0  0
    7.7800   -0.9448   -0.7002 H   0  0  0  0  0  0  0  0  0  0  0  0
    6.7486    0.1157    1.1664 H   0  0  0  0  0  0  0  0  0  0  0  0
    5.5745    2.0524    2.0828 H   0  0  0  0  0  0  0  0  0  0  0  0
    3.3336    2.6832    1.2240 H   0  0  0  0  0  0  0  0  0  0  0  0
    1.1474   -0.8867    0.8145 H   0  0  0  0  0  0  0  0  0  0  0  0
    1.5001    0.4314    1.9609 H   0  0  0  0  0  0  0  0  0  0  0  0
   -0.7854    0.8061    2.4236 H   0  0  0  0  0  0  0  0  0  0  0  0
   -0.8961   -0.9202    2.0817 H   0  0  0  0  0  0  0  0  0  0  0  0
   -1.3845   -0.5453   -0.2508 H   0  0  0  0  0  0  0  0  0  0  0  0
   -5.1221    1.5568    2.0112 H   0  0  0  0  0  0  0  0  0  0  0  0
   -4.6523    3.2591    1.8968 H   0  0  0  0  0  0  0  0  0  0  0  0
   -5.0459    2.3874    0.4121 H   0  0  0  0  0  0  0  0  0  0  0  0
   -4.8488    0.1848    0.3084 H   0  0  0  0  0  0  0  0  0  0  0  0
   -4.4767    0.7061   -1.8648 H   0  0  0  0  0  0  0  0  0  0  0  0
   -2.8717    0.0227   -1.9670 H   0  0  0  0  0  0  0  0  0  0  0  0
   -4.8856   -1.2405   -3.1003 H   0  0  0  0  0  0  0  0  0  0  0  0
   -3.6591   -2.1926   -2.2606 H   0  0  0  0  0  0  0  0  0  0  0  0
   -4.6116   -3.4884   -0.1691 H   0  0  0  0  0  0  0  0  0  0  0  0
   -5.7560   -2.4587    0.6890 H   0  0  0  0  0  0  0  0  0  0  0  0
   -3.7771   -1.6357    1.6195 H   0  0  0  0  0  0  0  0  0  0  0  0
   -2.8317   -2.0746    0.2138 H   0  0  0  0  0  0  0  0  0  0  0  0
   -0.6456    1.3618   -1.4272 H   0  0  0  0  0  0  0  0  0  0  0  0
   -0.6863    2.4242   -0.0115 H   0  0  0  0  0  0  0  0  0  0  0  0
    2.1772   -0.8658   -1.7874 H   0  0  0  0  0  0  0  0  0  0  0  0
    3.5672   -0.4330   -2.8118 H   0  0  0  0  0  0  0  0  0  0  0  0
    3.5706   -1.9167   -1.8270 H   0  0  0  0  0  0  0  0  0  0  0  0
  1  2  1  0
  2  3  1  0
  3  4  2  0
  4  5  1  0
  5  6  2  0
  6  7  1  0
  7  8  1  0
  8  9  2  0
  8 10  1  0
 10 11  1  0
 11 12  1  0
 12 13  1  0
 13 14  1  0
 14 15  1  0
 15 16  1  0
 15 17  2  0
 14 18  1  0
 18 19  1  0
 19 20  1  0
 20 21  1  0
 21 22  1  0
 22 23  1  0
 13 24  1  0
  7 25  2  0
 25 26  1  0
 25  3  1  0
 24 10  1  0
 23 18  1  0
  1 27  1  0
  1 28  1  0
  1 29  1  0
  4 30  1  0
  5 31  1  0
  6 32  1  0
 11 33  1  0
 11 34  1  0
 12 35  1  0
 12 36  1  0
 13 37  1  0
 16 38  1  0
 16 39  1  0
 16 40  1  0
 18 41  1  0
 19 42  1  0
 19 43  1  0
 20 44  1  0
 20 45  1  0
 22 46  1  0
 22 47  1  0
 23 48  1  0
 23 49  1  0
 24 50  1  0
 24 51  1  0
 26 52  1  0
 26 53  1  0
 26 54  1  0
M  END
$$$$
