
     RDKit          3D

 47 49  0  0  0  0  0  0  0  0999 V2000
    0.4314    2.8176   -1.6461 O   0  0  0  0  0  0  0  0  0  0  0  0
    0.1515    2.2632   -0.5840 C   0  0  0  0  0  0  0  0  0  0  0  0
    1.1279    2.2980    0.5764 C   0  0  0  0  0  0  0  0  0  0  0  0
    2.0453    1.0705    0.5618 C   0  0  0  0  0  0  0  0  0  0  0  0
    2.8106    0.9480    1.8864 C   0  0  0  0  0  0  0  0  0  0  0  0
    3.2315   -0.7879    2.3109 S   0  0  0  0  0  0  0  0  0  0  0  0
    4.5172   -1.1371    1.1269 C   0  0  0  0  0  0  0  0  0  0  0  0
    4.3540   -2.2101    0.2448 C   0  0  0  0  0  0  0  0  0  0  0  0
    5.3430   -2.5094   -0.6948 C   0  0  0  0  0  0  0  0  0  0  0  0
    6.5054   -1.7432   -0.7511 C   0  0  0  0  0  0  0  0  0  0  0  0
    6.6822   -0.6828    0.1358 C   0  0  0  0  0  0  0  0  0  0  0  0
    5.6939   -0.3843    1.0767 C   0  0  0  0  0  0  0  0  0  0  0  0
    3.0259    1.2378   -0.5741 C   0  0  0  0  0  0  0  0  0  0  0  0
    3.9470    2.0361   -0.6226 O   0  0  0  0  0  0  0  0  0  0  0  0
    2.7739    0.4011   -1.5974 O   0  0  0  0  0  0  0  0  0  0  0  0
   -1.1539    1.5454   -0.4485 C   0  0  0  0  0  0  0  0  0  0  0  0
   -2.0754    1.6494   -1.4974 C   0  0  0  0  0  0  0  0  0  0  0  0
   -3.3112    0.9969   -1.4279 C   0  0  0  0  0  0  0  0  0  0  0  0
   -3.6581    0.2228   -0.3107 C   0  0  0  0  0  0  0  0  0  0  0  0
   -4.9566   -0.4665   -0.2376 C   0  0  0  0  0  0  0  0  0  0  0  0
   -5.3765   -1.3289   -1.2654 C   0  0  0  0  0  0  0  0  0  0  0  0
   -6.6093   -1.9859   -1.1974 C   0  0  0  0  0  0  0  0  0  0  0  0
   -7.4392   -1.7862   -0.0982 C   0  0  0  0  0  0  0  0  0  0  0  0
   -8.9560   -2.5928   -0.0127 Cl  0  0  0  0  0  0  0  0  0  0  0  0
   -7.0473   -0.9368    0.9323 C   0  0  0  0  0  0  0  0  0  0  0  0
   -5.8133   -0.2822    0.8617 C   0  0  0  0  0  0  0  0  0  0  0  0
   -2.7251    0.1231    0.7340 C   0  0  0  0  0  0  0  0  0  0  0  0
   -1.4858    0.7743    0.6693 C   0  0  0  0  0  0  0  0  0  0  0  0
    0.5687    2.3831    1.5142 H   0  0  0  0  0  0  0  0  0  0  0  0
    1.7039    3.2294    0.4973 H   0  0  0  0  0  0  0  0  0  0  0  0
    1.4460    0.1683    0.3875 H   0  0  0  0  0  0  0  0  0  0  0  0
    3.7111    1.5697    1.9156 H   0  0  0  0  0  0  0  0  0  0  0  0
    2.1741    1.2849    2.7121 H   0  0  0  0  0  0  0  0  0  0  0  0
    3.4529   -2.8181    0.2766 H   0  0  0  0  0  0  0  0  0  0  0  0
    5.2056   -3.3419   -1.3799 H   0  0  0  0  0  0  0  0  0  0  0  0
    7.2766   -1.9759   -1.4810 H   0  0  0  0  0  0  0  0  0  0  0  0
    7.5908   -0.0871    0.0979 H   0  0  0  0  0  0  0  0  0  0  0  0
    5.8570    0.4406    1.7653 H   0  0  0  0  0  0  0  0  0  0  0  0
    3.4551    0.6273   -2.2653 H   0  0  0  0  0  0  0  0  0  0  0  0
   -1.8395    2.2426   -2.3798 H   0  0  0  0  0  0  0  0  0  0  0  0
   -4.0086    1.1086   -2.2565 H   0  0  0  0  0  0  0  0  0  0  0  0
   -4.7356   -1.5053   -2.1276 H   0  0  0  0  0  0  0  0  0  0  0  0
   -6.9107   -2.6503   -2.0028 H   0  0  0  0  0  0  0  0  0  0  0  0
   -7.6944   -0.7758    1.7903 H   0  0  0  0  0  0  0  0  0  0  0  0
   -5.5288    0.3877    1.6711 H   0  0  0  0  0  0  0  0  0  0  0  0
   -2.9531   -0.4833    1.6097 H   0  0  0  0  0  0  0  0  0  0  0  0
   -0.8038    0.6451    1.5037 H   0  0  0  0  0  0  0  0  0  0  0  0
  1  2  2  0
  2  3  1  0
  3  4  1  0
  4  5  1  0
  5  6  1  0
  6  7  1  0
  7  8  2  0
  8  9  1  0
  9 10  2  0
 10 11  1  0
 11 12  2  0
  4 13  1  0
 13 14  2  0
 13 15  1  0
  2 16  1  0
 16 17  2  0
 17 18  1  0
 18 19  2  0
 19 20  1  0
 20 21  2  0
 21 22  1  0
 22 23  2  0
 23 24  1  0
 23 25  1  0
 25 26  2  0
 19 27  1  0
 27 28  2  0
 12  7  1  0
 28 16  1  0
 26 20  1  0
  3 29  1  0
  3 30  1  0
  4 31  1  0
  5 32  1  0
  5 33  1  0
  8 34  1  0
  9 35  1  0
 10 36  1  0
 11 37  1  0
 12 38  1  0
 15 39  1  0
 17 40  1  0
 18 41  1  0
 21 42  1  0
 22 43  1  0
 25 44  1  0
 26 45  1  0
 27 46  1  0
 28 47  1  0
M  END
$$$$
