
     RDKit          3D

 35 37  0  0  0  0  0  0  0  0999 V2000
    2.3108   -1.9928   -0.3519 O   0  0  0  0  0  0  0  0  0  0  0  0
    2.5854   -0.8423   -0.0530 C   0  0  0  0  0  0  0  0  0  0  0  0
    1.6960    0.1621    0.1407 O   0  0  0  0  0  0  0  0  0  0  0  0
    0.3260   -0.2290   -0.0371 C   0  0  0  0  0  0  0  0  0  0  0  0
   -0.5646    0.9863    0.2095 C   0  0  0  0  0  0  0  0  0  0  0  0
   -1.9697    0.6747    0.0488 N   0  0  0  0  0  0  0  0  0  0  0  0
   -2.6289    0.7182   -1.1488 C   0  0  0  0  0  0  0  0  0  0  0  0
   -2.2067    1.0408   -2.2422 O   0  0  0  0  0  0  0  0  0  0  0  0
   -3.9935    0.2633   -0.8873 C   0  0  0  0  0  0  0  0  0  0  0  0
   -5.0733    0.1343   -1.7383 C   0  0  0  0  0  0  0  0  0  0  0  0
   -6.2658   -0.3458   -1.1871 C   0  0  0  0  0  0  0  0  0  0  0  0
   -6.3474   -0.6833    0.1805 C   0  0  0  0  0  0  0  0  0  0  0  0
   -5.2379   -0.5465    1.0211 C   0  0  0  0  0  0  0  0  0  0  0  0
   -4.0735   -0.0676    0.4540 C   0  0  0  0  0  0  0  0  0  0  0  0
   -2.7599    0.1763    1.0477 C   0  0  0  0  0  0  0  0  0  0  0  0
   -2.4720   -0.0566    2.2056 O   0  0  0  0  0  0  0  0  0  0  0  0
    3.9784   -0.3592    0.1489 C   0  0  0  0  0  0  0  0  0  0  0  0
    4.2731    0.9675    0.4904 C   0  0  0  0  0  0  0  0  0  0  0  0
    5.6009    1.3683    0.6682 C   0  0  0  0  0  0  0  0  0  0  0  0
    6.6424    0.4497    0.5070 C   0  0  0  0  0  0  0  0  0  0  0  0
    8.2567    1.0166    0.7426 Cl  0  0  0  0  0  0  0  0  0  0  0  0
    6.3528   -0.8763    0.1660 C   0  0  0  0  0  0  0  0  0  0  0  0
    7.5875   -2.0656   -0.0496 Cl  0  0  0  0  0  0  0  0  0  0  0  0
    5.0249   -1.2782   -0.0122 C   0  0  0  0  0  0  0  0  0  0  0  0
    0.1802   -0.6009   -1.0585 H   0  0  0  0  0  0  0  0  0  0  0  0
    0.0772   -1.0275    0.6724 H   0  0  0  0  0  0  0  0  0  0  0  0
   -0.2933    1.7885   -0.4868 H   0  0  0  0  0  0  0  0  0  0  0  0
   -0.3953    1.3666    1.2237 H   0  0  0  0  0  0  0  0  0  0  0  0
   -4.9956    0.3936   -2.7892 H   0  0  0  0  0  0  0  0  0  0  0  0
   -7.1434   -0.4639   -1.8208 H   0  0  0  0  0  0  0  0  0  0  0  0
   -7.2869   -1.0573    0.5843 H   0  0  0  0  0  0  0  0  0  0  0  0
   -5.2857   -0.8062    2.0738 H   0  0  0  0  0  0  0  0  0  0  0  0
    3.4817    1.7023    0.6218 H   0  0  0  0  0  0  0  0  0  0  0  0
    5.8165    2.4015    0.9333 H   0  0  0  0  0  0  0  0  0  0  0  0
    4.8031   -2.3111   -0.2775 H   0  0  0  0  0  0  0  0  0  0  0  0
  1  2  2  0
  2  3  1  0
  3  4  1  0
  4  5  1  0
  5  6  1  0
  6  7  1  0
  7  8  2  0
  7  9  1  0
  9 10  2  0
 10 11  1  0
 11 12  2  0
 12 13  1  0
 13 14  2  0
 14 15  1  0
 15 16  2  0
  2 17  1  0
 17 18  2  0
 18 19  1  0
 19 20  2  0
 20 21  1  0
 20 22  1  0
 22 23  1  0
 22 24  2  0
 15  6  1  0
 24 17  1  0
 14  9  1  0
  4 25  1  0
  4 26  1  0
  5 27  1  0
  5 28  1  0
 10 29  1  0
 11 30  1  0
 12 31  1  0
 13 32  1  0
 18 33  1  0
 19 34  1  0
 24 35  1  0
M  END
$$$$
