
     RDKit          3D

 28 29  0  0  0  0  0  0  0  0999 V2000
    0.1310    1.2717   -0.5683 O   0  0  0  0  0  0  0  0  0  0  0  0
    0.0249    0.1172   -0.1784 C   0  0  0  0  0  0  0  0  0  0  0  0
    1.0864   -0.7160    0.1467 N   0  0  0  0  0  0  0  0  0  0  0  0
    2.4630   -0.4502   -0.0087 C   0  0  0  0  0  0  0  0  0  0  0  0
    2.9717    0.6491   -0.7051 C   0  0  0  0  0  0  0  0  0  0  0  0
    4.3538    0.8375   -0.8246 C   0  0  0  0  0  0  0  0  0  0  0  0
    5.2324   -0.0768   -0.2517 C   0  0  0  0  0  0  0  0  0  0  0  0
    6.9300    0.1545   -0.3998 Cl  0  0  0  0  0  0  0  0  0  0  0  0
    4.7411   -1.1810    0.4382 C   0  0  0  0  0  0  0  0  0  0  0  0
    3.3601   -1.3675    0.5566 C   0  0  0  0  0  0  0  0  0  0  0  0
   -1.1790   -0.5515    0.0029 N   0  0  0  0  0  0  0  0  0  0  0  0
   -2.4803   -0.0181   -0.1120 C   0  0  0  0  0  0  0  0  0  0  0  0
   -2.7551    1.3446   -0.2414 C   0  0  0  0  0  0  0  0  0  0  0  0
   -4.0757    1.7986   -0.3399 C   0  0  0  0  0  0  0  0  0  0  0  0
   -5.1374    0.8942   -0.3043 C   0  0  0  0  0  0  0  0  0  0  0  0
   -6.7405    1.5229   -0.4294 Cl  0  0  0  0  0  0  0  0  0  0  0  0
   -4.8728   -0.4704   -0.1664 C   0  0  0  0  0  0  0  0  0  0  0  0
   -6.1291   -1.6566   -0.1075 Cl  0  0  0  0  0  0  0  0  0  0  0  0
   -3.5499   -0.9214   -0.0684 C   0  0  0  0  0  0  0  0  0  0  0  0
    0.8546   -1.5336    0.6895 H   0  0  0  0  0  0  0  0  0  0  0  0
    2.3198    1.3790   -1.1759 H   0  0  0  0  0  0  0  0  0  0  0  0
    4.7306    1.6999   -1.3683 H   0  0  0  0  0  0  0  0  0  0  0  0
    5.4239   -1.8986    0.8852 H   0  0  0  0  0  0  0  0  0  0  0  0
    3.0010   -2.2377    1.0999 H   0  0  0  0  0  0  0  0  0  0  0  0
   -1.1136   -1.5558    0.0724 H   0  0  0  0  0  0  0  0  0  0  0  0
   -1.9630    2.0882   -0.2624 H   0  0  0  0  0  0  0  0  0  0  0  0
   -4.2629    2.8653   -0.4426 H   0  0  0  0  0  0  0  0  0  0  0  0
   -3.3653   -1.9873    0.0386 H   0  0  0  0  0  0  0  0  0  0  0  0
  1  2  2  0
  2  3  1  0
  3  4  1  0
  4  5  2  0
  5  6  1  0
  6  7  2  0
  7  8  1  0
  7  9  1  0
  9 10  2  0
  2 11  1  0
 11 12  1  0
 12 13  2  0
 13 14  1  0
 14 15  2  0
 15 16  1  0
 15 17  1  0
 17 18  1  0
 17 19  2  0
 10  4  1  0
 19 12  1  0
  3 20  1  0
  5 21  1  0
  6 22  1  0
  9 23  1  0
 10 24  1  0
 11 25  1  0
 13 26  1  0
 14 27  1  0
 19 28  1  0
M  END
$$$$
