
     RDKit          3D

 57 60  0  0  0  0  0  0  0  0999 V2000
    8.5418   -0.8347   -0.3135 C   0  0  0  0  0  0  0  0  0  0  0  0
    7.6075   -0.4320   -1.3102 O   0  0  0  0  0  0  0  0  0  0  0  0
    6.3379   -0.2278   -0.8092 C   0  0  0  0  0  0  0  0  0  0  0  0
    5.3789    0.1871   -1.7232 C   0  0  0  0  0  0  0  0  0  0  0  0
    4.0774    0.4006   -1.2732 C   0  0  0  0  0  0  0  0  0  0  0  0
    3.7842    0.1778    0.0717 C   0  0  0  0  0  0  0  0  0  0  0  0
    2.4419    0.3993    0.6389 C   0  0  0  0  0  0  0  0  0  0  0  0
    2.3600    1.1155    1.6335 O   0  0  0  0  0  0  0  0  0  0  0  0
    1.3343   -0.2044    0.0384 N   0  0  0  0  0  0  0  0  0  0  0  0
    1.4349   -1.3312   -0.8940 C   0  0  0  0  0  0  0  0  0  0  0  0
    0.1815   -2.2006   -0.9175 C   0  0  0  0  0  0  0  0  0  0  0  0
   -1.0598   -1.3707   -1.2328 C   0  0  0  0  0  0  0  0  0  0  0  0
   -1.1248   -0.0675   -0.4132 C   0  0  0  0  0  0  0  0  0  0  0  0
   -2.4659    0.2402    0.1471 N   0  0  0  0  0  0  0  0  0  0  0  0
   -3.1674   -0.5622    1.0635 C   0  0  0  0  0  0  0  0  0  0  0  0
   -4.2224   -0.2117    1.5819 O   0  0  0  0  0  0  0  0  0  0  0  0
   -2.6417   -1.9177    1.4148 C   0  0  0  0  0  0  0  0  0  0  0  0
   -3.4602   -2.8441    2.2952 C   0  0  0  0  0  0  0  0  0  0  0  0
   -3.3048   -3.1508    0.8389 C   0  0  0  0  0  0  0  0  0  0  0  0
   -3.0011    1.5956   -0.1439 C   0  0  0  0  0  0  0  0  0  0  0  0
   -4.3717    1.5806   -0.8338 C   0  0  0  0  0  0  0  0  0  0  0  0
   -4.8103    3.0085   -1.1337 C   0  0  0  0  0  0  0  0  0  0  0  0
   -4.8198    3.8035    0.0508 O   0  0  0  0  0  0  0  0  0  0  0  0
   -3.5345    3.9019    0.6623 C   0  0  0  0  0  0  0  0  0  0  0  0
   -3.0132    2.5304    1.0725 C   0  0  0  0  0  0  0  0  0  0  0  0
    0.0177    0.0897    0.6106 C   0  0  0  0  0  0  0  0  0  0  0  0
    4.8155   -0.2038    0.9188 C   0  0  0  0  0  0  0  0  0  0  0  0
    6.0864   -0.4291    0.5031 N   0  0  0  0  0  0  0  0  0  0  0  0
    8.6583   -0.0649    0.4571 H   0  0  0  0  0  0  0  0  0  0  0  0
    9.5126   -0.9657   -0.8013 H   0  0  0  0  0  0  0  0  0  0  0  0
    8.2600   -1.7967    0.1287 H   0  0  0  0  0  0  0  0  0  0  0  0
    5.6465    0.3483   -2.7619 H   0  0  0  0  0  0  0  0  0  0  0  0
    3.3160    0.7548   -1.9609 H   0  0  0  0  0  0  0  0  0  0  0  0
    1.6039   -0.9123   -1.8919 H   0  0  0  0  0  0  0  0  0  0  0  0
    2.3023   -1.9463   -0.6320 H   0  0  0  0  0  0  0  0  0  0  0  0
    0.2940   -2.9941   -1.6651 H   0  0  0  0  0  0  0  0  0  0  0  0
    0.0598   -2.6958    0.0531 H   0  0  0  0  0  0  0  0  0  0  0  0
   -1.0323   -1.1024   -2.2982 H   0  0  0  0  0  0  0  0  0  0  0  0
   -1.9587   -1.9822   -1.1317 H   0  0  0  0  0  0  0  0  0  0  0  0
   -0.9242    0.7065   -1.1669 H   0  0  0  0  0  0  0  0  0  0  0  0
   -1.5818   -1.9711    1.6150 H   0  0  0  0  0  0  0  0  0  0  0  0
   -4.4317   -2.5084    2.6431 H   0  0  0  0  0  0  0  0  0  0  0  0
   -2.9301   -3.4635    3.0094 H   0  0  0  0  0  0  0  0  0  0  0  0
   -4.1735   -3.0171    0.2030 H   0  0  0  0  0  0  0  0  0  0  0  0
   -2.6729   -3.9852    0.5597 H   0  0  0  0  0  0  0  0  0  0  0  0
   -2.3188    2.0577   -0.8694 H   0  0  0  0  0  0  0  0  0  0  0  0
   -5.1264    1.1164   -0.1913 H   0  0  0  0  0  0  0  0  0  0  0  0
   -4.3293    0.9947   -1.7589 H   0  0  0  0  0  0  0  0  0  0  0  0
   -5.8258    3.0073   -1.5429 H   0  0  0  0  0  0  0  0  0  0  0  0
   -4.1567    3.4774   -1.8790 H   0  0  0  0  0  0  0  0  0  0  0  0
   -3.6333    4.5411    1.5455 H   0  0  0  0  0  0  0  0  0  0  0  0
   -2.8430    4.4000   -0.0276 H   0  0  0  0  0  0  0  0  0  0  0  0
   -2.0087    2.6208    1.5003 H   0  0  0  0  0  0  0  0  0  0  0  0
   -3.6643    2.1335    1.8582 H   0  0  0  0  0  0  0  0  0  0  0  0
   -0.1017   -0.5621    1.4798 H   0  0  0  0  0  0  0  0  0  0  0  0
    0.0122    1.1153    0.9993 H   0  0  0  0  0  0  0  0  0  0  0  0
    4.6451   -0.3486    1.9828 H   0  0  0  0  0  0  0  0  0  0  0  0
  1  2  1  0
  2  3  1  0
  3  4  2  0
  4  5  1  0
  5  6  2  0
  6  7  1  0
  7  8  2  0
  7  9  1  0
  9 10  1  0
 10 11  1  0
 11 12  1  0
 12 13  1  0
 13 14  1  0
 14 15  1  0
 15 16  2  0
 15 17  1  0
 17 18  1  0
 18 19  1  0
 14 20  1  0
 20 21  1  0
 21 22  1  0
 22 23  1  0
 23 24  1  0
 24 25  1  0
 13 26  1  0
  6 27  1  0
 27 28  2  0
 28  3  1  0
 26  9  1  0
 19 17  1  0
 25 20  1  0
  1 29  1  0
  1 30  1  0
  1 31  1  0
  4 32  1  0
  5 33  1  0
 10 34  1  0
 10 35  1  0
 11 36  1  0
 11 37  1  0
 12 38  1  0
 12 39  1  0
 13 40  1  0
 17 41  1  0
 18 42  1  0
 18 43  1  0
 19 44  1  0
 19 45  1  0
 20 46  1  0
 21 47  1  0
 21 48  1  0
 22 49  1  0
 22 50  1  0
 24 51  1  0
 24 52  1  0
 25 53  1  0
 25 54  1  0
 26 55  1  0
 26 56  1  0
 27 57  1  0
M  END
$$$$
