
     RDKit          3D

 62 66  0  0  0  0  0  0  0  0999 V2000
   10.6741    0.0120   -0.8107 C   0  0  0  0  0  0  0  0  0  0  0  0
    9.8127    0.3662    0.3747 C   0  0  0  0  0  0  0  0  0  0  0  0
   10.3116    0.6173    1.4704 O   0  0  0  0  0  0  0  0  0  0  0  0
    8.3307    0.4129    0.2024 C   0  0  0  0  0  0  0  0  0  0  0  0
    7.7114    0.1974   -1.0281 C   0  0  0  0  0  0  0  0  0  0  0  0
    6.3122    0.2480   -1.1325 C   0  0  0  0  0  0  0  0  0  0  0  0
    5.4862    0.5158   -0.0282 C   0  0  0  0  0  0  0  0  0  0  0  0
    4.1057    0.5627   -0.1388 N   0  0  0  0  0  0  0  0  0  0  0  0
    3.2882    1.2926    0.8500 C   0  0  0  0  0  0  0  0  0  0  0  0
    1.9511    1.7651    0.2502 C   0  0  0  0  0  0  0  0  0  0  0  0
    1.1774    0.6758   -0.3525 N   0  0  0  0  0  0  0  0  0  0  0  0
   -0.2107    0.7422   -0.3261 C   0  0  0  0  0  0  0  0  0  0  0  0
   -0.7966    1.7480    0.0797 O   0  0  0  0  0  0  0  0  0  0  0  0
   -0.9755   -0.4673   -0.8894 C   0  0  0  0  0  0  0  0  0  0  0  0
   -2.3776   -0.4732   -0.4835 N   0  0  0  0  0  0  0  0  0  0  0  0
   -3.3230    0.2216   -1.2477 C   0  0  0  0  0  0  0  0  0  0  0  0
   -4.6272    0.2893   -0.9204 C   0  0  0  0  0  0  0  0  0  0  0  0
   -4.9970   -0.3960    0.2575 C   0  0  0  0  0  0  0  0  0  0  0  0
   -4.0941   -1.0096    1.0981 C   0  0  0  0  0  0  0  0  0  0  0  0
   -4.8404   -1.4090    2.2161 C   0  0  0  0  0  0  0  0  0  0  0  0
   -4.3541   -2.0833    3.4439 C   0  0  0  0  0  0  0  0  0  0  0  0
   -6.1311   -1.0724    2.0872 N   0  0  0  0  0  0  0  0  0  0  0  0
   -6.2486   -0.5430    0.8284 N   0  0  0  0  0  0  0  0  0  0  0  0
   -7.5520   -0.2809    0.3096 C   0  0  0  0  0  0  0  0  0  0  0  0
   -8.6277   -0.1596    1.2055 C   0  0  0  0  0  0  0  0  0  0  0  0
   -9.9189    0.0895    0.7346 C   0  0  0  0  0  0  0  0  0  0  0  0
  -10.1523    0.2010   -0.6336 C   0  0  0  0  0  0  0  0  0  0  0  0
   -9.0979    0.0527   -1.5321 C   0  0  0  0  0  0  0  0  0  0  0  0
   -7.8023   -0.1943   -1.0655 C   0  0  0  0  0  0  0  0  0  0  0  0
   -2.6898   -1.0867    0.7504 C   0  0  0  0  0  0  0  0  0  0  0  0
   -1.8632   -1.6499    1.4626 O   0  0  0  0  0  0  0  0  0  0  0  0
    1.9538   -0.4430   -0.8965 C   0  0  0  0  0  0  0  0  0  0  0  0
    3.3995   -0.0589   -1.2694 C   0  0  0  0  0  0  0  0  0  0  0  0
    6.1380    0.7314    1.1963 C   0  0  0  0  0  0  0  0  0  0  0  0
    7.5339    0.6825    1.3159 C   0  0  0  0  0  0  0  0  0  0  0  0
   10.6007    0.7897   -1.5761 H   0  0  0  0  0  0  0  0  0  0  0  0
   11.7187   -0.0553   -0.4897 H   0  0  0  0  0  0  0  0  0  0  0  0
   10.3855   -0.9625   -1.2132 H   0  0  0  0  0  0  0  0  0  0  0  0
    8.2840   -0.0058   -1.9278 H   0  0  0  0  0  0  0  0  0  0  0  0
    5.8807    0.0955   -2.1184 H   0  0  0  0  0  0  0  0  0  0  0  0
    3.0933    0.6317    1.7037 H   0  0  0  0  0  0  0  0  0  0  0  0
    3.8163    2.1813    1.2157 H   0  0  0  0  0  0  0  0  0  0  0  0
    1.3600    2.2675    1.0236 H   0  0  0  0  0  0  0  0  0  0  0  0
    2.1377    2.4939   -0.5486 H   0  0  0  0  0  0  0  0  0  0  0  0
   -0.9157   -0.4444   -1.9834 H   0  0  0  0  0  0  0  0  0  0  0  0
   -0.5062   -1.3917   -0.5375 H   0  0  0  0  0  0  0  0  0  0  0  0
   -2.9486    0.7430   -2.1245 H   0  0  0  0  0  0  0  0  0  0  0  0
   -5.3121    0.8937   -1.5018 H   0  0  0  0  0  0  0  0  0  0  0  0
   -5.1737   -2.2939    4.1389 H   0  0  0  0  0  0  0  0  0  0  0  0
   -3.6240   -1.4530    3.9620 H   0  0  0  0  0  0  0  0  0  0  0  0
   -3.8737   -3.0343    3.1922 H   0  0  0  0  0  0  0  0  0  0  0  0
   -8.4708   -0.2438    2.2800 H   0  0  0  0  0  0  0  0  0  0  0  0
  -10.7409    0.1949    1.4390 H   0  0  0  0  0  0  0  0  0  0  0  0
  -11.1584    0.3882   -0.9992 H   0  0  0  0  0  0  0  0  0  0  0  0
   -9.2873    0.1109   -2.6013 H   0  0  0  0  0  0  0  0  0  0  0  0
   -7.0305   -0.3733   -1.8055 H   0  0  0  0  0  0  0  0  0  0  0  0
    1.9633   -1.2228   -0.1250 H   0  0  0  0  0  0  0  0  0  0  0  0
    1.4459   -0.8487   -1.7770 H   0  0  0  0  0  0  0  0  0  0  0  0
    3.9064   -0.9749   -1.5956 H   0  0  0  0  0  0  0  0  0  0  0  0
    3.3860    0.6445   -2.1112 H   0  0  0  0  0  0  0  0  0  0  0  0
    5.5681    0.9209    2.1025 H   0  0  0  0  0  0  0  0  0  0  0  0
    7.9888    0.8520    2.2904 H   0  0  0  0  0  0  0  0  0  0  0  0
  1  2  1  0
  2  3  2  0
  2  4  1  0
  4  5  2  0
  5  6  1  0
  6  7  2  0
  7  8  1  0
  8  9  1  0
  9 10  1  0
 10 11  1  0
 11 12  1  0
 12 13  2  0
 12 14  1  0
 14 15  1  0
 15 16  1  0
 16 17  2  0
 17 18  1  0
 18 19  2  0
 19 20  1  0
 20 21  1  0
 20 22  2  0
 22 23  1  0
 23 24  1  0
 24 25  2  0
 25 26  1  0
 26 27  2  0
 27 28  1  0
 28 29  2  0
 19 30  1  0
 30 31  2  0
 11 32  1  0
 32 33  1  0
  7 34  1  0
 34 35  2  0
 35  4  1  0
 33  8  1  0
 30 15  1  0
 23 18  1  0
 29 24  1  0
  1 36  1  0
  1 37  1  0
  1 38  1  0
  5 39  1  0
  6 40  1  0
  9 41  1  0
  9 42  1  0
 10 43  1  0
 10 44  1  0
 14 45  1  0
 14 46  1  0
 16 47  1  0
 17 48  1  0
 21 49  1  0
 21 50  1  0
 21 51  1  0
 25 52  1  0
 26 53  1  0
 27 54  1  0
 28 55  1  0
 29 56  1  0
 32 57  1  0
 32 58  1  0
 33 59  1  0
 33 60  1  0
 34 61  1  0
 35 62  1  0
M  END
$$$$
