
     RDKit          3D

 29 30  0  0  0  0  0  0  0  0999 V2000
    4.5094   -1.2974   -0.3674 C   0  0  0  0  0  0  0  0  0  0  0  0
    3.5376   -0.1548   -0.2946 C   0  0  0  0  0  0  0  0  0  0  0  0
    3.9976    1.1686   -0.3165 C   0  0  0  0  0  0  0  0  0  0  0  0
    3.0945    2.2248   -0.2196 C   0  0  0  0  0  0  0  0  0  0  0  0
    1.7370    1.9527   -0.0890 C   0  0  0  0  0  0  0  0  0  0  0  0
    0.8750    2.9793    0.0012 F   0  0  0  0  0  0  0  0  0  0  0  0
    1.2499    0.6406   -0.0456 C   0  0  0  0  0  0  0  0  0  0  0  0
   -0.1471    0.4794    0.0925 N   0  0  0  0  0  0  0  0  0  0  0  0
   -0.8488   -0.7022    0.2220 C   0  0  0  0  0  0  0  0  0  0  0  0
   -0.3758   -1.8294    0.3004 O   0  0  0  0  0  0  0  0  0  0  0  0
   -2.3301   -0.5503    0.3096 C   0  0  0  0  0  0  0  0  0  0  0  0
   -3.0473   -1.4589    1.1026 C   0  0  0  0  0  0  0  0  0  0  0  0
   -4.4354   -1.3539    1.2084 C   0  0  0  0  0  0  0  0  0  0  0  0
   -5.1007   -0.3500    0.5140 C   0  0  0  0  0  0  0  0  0  0  0  0
   -6.4323   -0.2500    0.6136 F   0  0  0  0  0  0  0  0  0  0  0  0
   -4.4059    0.5478   -0.2903 C   0  0  0  0  0  0  0  0  0  0  0  0
   -3.0164    0.4479   -0.3992 C   0  0  0  0  0  0  0  0  0  0  0  0
    2.1621   -0.4109   -0.1475 C   0  0  0  0  0  0  0  0  0  0  0  0
    4.0663   -2.1529   -0.8880 H   0  0  0  0  0  0  0  0  0  0  0  0
    5.4095   -1.0114   -0.9216 H   0  0  0  0  0  0  0  0  0  0  0  0
    4.7992   -1.6061    0.6416 H   0  0  0  0  0  0  0  0  0  0  0  0
    5.0606    1.3803   -0.4110 H   0  0  0  0  0  0  0  0  0  0  0  0
    3.4385    3.2535   -0.2423 H   0  0  0  0  0  0  0  0  0  0  0  0
   -0.6593    1.3515    0.1679 H   0  0  0  0  0  0  0  0  0  0  0  0
   -2.5235   -2.2485    1.6387 H   0  0  0  0  0  0  0  0  0  0  0  0
   -4.9989   -2.0498    1.8222 H   0  0  0  0  0  0  0  0  0  0  0  0
   -4.9528    1.3117   -0.8348 H   0  0  0  0  0  0  0  0  0  0  0  0
   -2.4920    1.1326   -1.0604 H   0  0  0  0  0  0  0  0  0  0  0  0
    1.8292   -1.4445   -0.1182 H   0  0  0  0  0  0  0  0  0  0  0  0
  1  2  1  0
  2  3  2  0
  3  4  1  0
  4  5  2  0
  5  6  1  0
  5  7  1  0
  7  8  1  0
  8  9  1  0
  9 10  2  0
  9 11  1  0
 11 12  2  0
 12 13  1  0
 13 14  2  0
 14 15  1  0
 14 16  1  0
 16 17  2  0
  7 18  2  0
 18  2  1  0
 17 11  1  0
  1 19  1  0
  1 20  1  0
  1 21  1  0
  3 22  1  0
  4 23  1  0
  8 24  1  0
 12 25  1  0
 13 26  1  0
 16 27  1  0
 17 28  1  0
 18 29  1  0
M  END
$$$$
