
     RDKit          3D

 34 34  0  0  0  0  0  0  0  0999 V2000
    4.6358   -1.6074    0.7471 C   0  0  0  0  0  0  0  0  0  0  0  0
    3.8026   -0.3314    0.6106 C   0  0  0  0  0  0  0  0  0  0  0  0
    4.5860    0.7173   -0.1808 C   0  0  0  0  0  0  0  0  0  0  0  0
    2.5341   -0.6935   -0.0355 N   0  0  0  0  0  0  0  0  0  0  0  0
    1.5253    0.3786    0.0377 C   0  0  0  0  0  0  0  0  0  0  0  0
    0.1808   -0.1566   -0.4929 C   0  0  0  0  0  0  0  0  0  0  0  0
   -0.1417   -1.3495    0.2408 O   0  0  0  0  0  0  0  0  0  0  0  0
   -0.9329    0.8839   -0.3268 C   0  0  0  0  0  0  0  0  0  0  0  0
   -2.0280    0.5691   -1.2025 O   0  0  0  0  0  0  0  0  0  0  0  0
   -3.2328    0.4222   -0.5745 C   0  0  0  0  0  0  0  0  0  0  0  0
   -3.4281   -0.4301    0.5118 C   0  0  0  0  0  0  0  0  0  0  0  0
   -4.6982   -0.5565    1.0780 C   0  0  0  0  0  0  0  0  0  0  0  0
   -5.7742    0.1551    0.5475 C   0  0  0  0  0  0  0  0  0  0  0  0
   -5.5837    0.9853   -0.5568 C   0  0  0  0  0  0  0  0  0  0  0  0
   -4.3142    1.1107   -1.1230 C   0  0  0  0  0  0  0  0  0  0  0  0
    5.5799   -1.3993    1.2624 H   0  0  0  0  0  0  0  0  0  0  0  0
    4.8753   -2.0405   -0.2309 H   0  0  0  0  0  0  0  0  0  0  0  0
    4.1011   -2.3648    1.3314 H   0  0  0  0  0  0  0  0  0  0  0  0
    3.6095    0.0475    1.6217 H   0  0  0  0  0  0  0  0  0  0  0  0
    4.0538    1.6729   -0.2195 H   0  0  0  0  0  0  0  0  0  0  0  0
    5.5579    0.9064    0.2882 H   0  0  0  0  0  0  0  0  0  0  0  0
    4.7705    0.3885   -1.2096 H   0  0  0  0  0  0  0  0  0  0  0  0
    2.7057   -0.9345   -1.0137 H   0  0  0  0  0  0  0  0  0  0  0  0
    1.8317    1.2519   -0.5471 H   0  0  0  0  0  0  0  0  0  0  0  0
    1.4002    0.6801    1.0847 H   0  0  0  0  0  0  0  0  0  0  0  0
    0.2737   -0.4452   -1.5467 H   0  0  0  0  0  0  0  0  0  0  0  0
    0.7209   -1.7964    0.3695 H   0  0  0  0  0  0  0  0  0  0  0  0
   -0.5695    1.8666   -0.6488 H   0  0  0  0  0  0  0  0  0  0  0  0
   -1.2348    0.9764    0.7240 H   0  0  0  0  0  0  0  0  0  0  0  0
   -2.6055   -1.0160    0.9119 H   0  0  0  0  0  0  0  0  0  0  0  0
   -4.8483   -1.2202    1.9254 H   0  0  0  0  0  0  0  0  0  0  0  0
   -6.7630    0.0523    0.9866 H   0  0  0  0  0  0  0  0  0  0  0  0
   -6.4232    1.5290   -0.9811 H   0  0  0  0  0  0  0  0  0  0  0  0
   -4.1665    1.7480   -1.9901 H   0  0  0  0  0  0  0  0  0  0  0  0
  1  2  1  0
  2  3  1  0
  2  4  1  0
  4  5  1  0
  5  6  1  0
  6  7  1  0
  6  8  1  0
  8  9  1  0
  9 10  1  0
 10 11  2  0
 11 12  1  0
 12 13  2  0
 13 14  1  0
 14 15  2  0
 15 10  1  0
  1 16  1  0
  1 17  1  0
  1 18  1  0
  2 19  1  0
  3 20  1  0
  3 21  1  0
  3 22  1  0
  4 23  1  0
  5 24  1  0
  5 25  1  0
  6 26  1  0
  7 27  1  0
  8 28  1  0
  8 29  1  0
 11 30  1  0
 12 31  1  0
 13 32  1  0
 14 33  1  0
 15 34  1  0
M  END
$$$$
