
     RDKit          3D

 43 43  0  0  0  0  0  0  0  0999 V2000
    1.0890    2.0366    1.5276 C   0  0  0  0  0  0  0  0  0  0  0  0
    2.4309    2.4710    1.0890 C   0  0  0  0  0  0  0  0  0  0  0  0
    3.1105    3.2100    1.8747 O   0  0  0  0  0  0  0  0  0  0  0  0
    3.0274    2.1119   -0.1781 C   0  0  0  0  0  0  0  0  0  0  0  0
    4.3016    2.5652   -0.5237 C   0  0  0  0  0  0  0  0  0  0  0  0
    4.8514    2.2147   -1.7374 C   0  0  0  0  0  0  0  0  0  0  0  0
    4.1602    1.4165   -2.6269 C   0  0  0  0  0  0  0  0  0  0  0  0
    2.9078    0.9738   -2.2815 C   0  0  0  0  0  0  0  0  0  0  0  0
    2.3312    1.3177   -1.0545 C   0  0  0  0  0  0  0  0  0  0  0  0
    1.0645    0.8581   -0.7273 O   0  0  0  0  0  0  0  0  0  0  0  0
    0.3950    0.0582   -1.6485 C   0  0  0  0  0  0  0  0  0  0  0  0
   -0.9716   -0.4007   -1.2282 C   0  0  0  0  0  0  0  0  0  0  0  0
   -1.8271    0.6475   -0.9704 O   0  0  0  0  0  0  0  0  0  0  0  0
   -0.8478   -1.3285   -0.0492 C   0  0  0  0  0  0  0  0  0  0  0  0
   -2.0686   -1.9375    0.3525 N   0  0  0  0  0  0  0  0  0  0  0  0
   -1.9306   -2.8302    1.4711 C   0  0  0  0  0  0  0  0  0  0  0  0
   -2.8447   -2.4647    2.6179 C   0  0  0  0  0  0  0  0  0  0  0  0
   -4.1318   -2.5216    2.1435 O   0  0  0  0  0  0  0  0  0  0  0  0
   -4.4131   -1.7322    1.0640 C   0  0  0  0  0  0  0  0  0  0  0  0
   -3.2295   -1.1369    0.3593 C   0  0  0  0  0  0  0  0  0  0  0  0
    0.6878    0.0000    0.0000 Cl  0  0  0  0  0  0  0  0  0  0  0  0
    1.0214    0.9361    1.6058 H   0  0  0  0  0  0  0  0  0  0  0  0
    0.2756    2.3666    0.8490 H   0  0  0  0  0  0  0  0  0  0  0  0
    0.8639    2.4351    2.5621 H   0  0  0  0  0  0  0  0  0  0  0  0
    4.8214    3.1857    0.1845 H   0  0  0  0  0  0  0  0  0  0  0  0
    5.8510    2.5692   -2.0107 H   0  0  0  0  0  0  0  0  0  0  0  0
    4.6129    1.1481   -3.5870 H   0  0  0  0  0  0  0  0  0  0  0  0
    2.3371    0.3394   -2.9677 H   0  0  0  0  0  0  0  0  0  0  0  0
    1.0007   -0.8575   -1.8327 H   0  0  0  0  0  0  0  0  0  0  0  0
    0.2761    0.6199   -2.6104 H   0  0  0  0  0  0  0  0  0  0  0  0
   -1.4615   -0.9752   -2.0789 H   0  0  0  0  0  0  0  0  0  0  0  0
   -1.3910    1.4775   -1.3337 H   0  0  0  0  0  0  0  0  0  0  0  0
   -0.3981   -0.7897    0.8040 H   0  0  0  0  0  0  0  0  0  0  0  0
   -0.1331   -2.1741   -0.2767 H   0  0  0  0  0  0  0  0  0  0  0  0
   -2.2106   -3.8495    1.1357 H   0  0  0  0  0  0  0  0  0  0  0  0
   -0.8947   -2.7867    1.8474 H   0  0  0  0  0  0  0  0  0  0  0  0
   -2.7426   -3.2969    3.3689 H   0  0  0  0  0  0  0  0  0  0  0  0
   -2.5698   -1.5264    3.1029 H   0  0  0  0  0  0  0  0  0  0  0  0
   -4.9541   -2.3637    0.3111 H   0  0  0  0  0  0  0  0  0  0  0  0
   -5.1558   -0.9211    1.3232 H   0  0  0  0  0  0  0  0  0  0  0  0
   -3.0326   -0.1581    0.8366 H   0  0  0  0  0  0  0  0  0  0  0  0
   -3.5210   -0.9077   -0.7073 H   0  0  0  0  0  0  0  0  0  0  0  0
   -0.6878    0.0000    0.0000 H   0  0  0  0  0  0  0  0  0  0  0  0
  1  2  1  0
  2  3  2  0
  2  4  1  0
  4  5  2  0
  5  6  1  0
  6  7  2  0
  7  8  1  0
  8  9  2  0
  9 10  1  0
 10 11  1  0
 11 12  1  0
 12 13  1  0
 12 14  1  0
 14 15  1  0
 15 16  1  0
 16 17  1  0
 17 18  1  0
 18 19  1  0
 19 20  1  0
  9  4  1  0
 20 15  1  0
  1 22  1  0
  1 23  1  0
  1 24  1  0
  5 25  1  0
  6 26  1  0
  7 27  1  0
  8 28  1  0
 11 29  1  0
 11 30  1  0
 12 31  1  0
 13 32  1  0
 14 33  1  0
 14 34  1  0
 16 35  1  0
 16 36  1  0
 17 37  1  0
 17 38  1  0
 19 39  1  0
 19 40  1  0
 20 41  1  0
 20 42  1  0
 21 43  1  0
M  END
$$$$
