
     RDKit          3D

 49 50  0  0  0  0  0  0  0  0999 V2000
    6.5250    0.1892   -1.1212 C   0  0  0  0  0  0  0  0  0  0  0  0
    5.7062   -0.1271   -0.0030 O   0  0  0  0  0  0  0  0  0  0  0  0
    4.3611    0.1229   -0.1023 C   0  0  0  0  0  0  0  0  0  0  0  0
    3.7451    0.6933   -1.2275 C   0  0  0  0  0  0  0  0  0  0  0  0
    2.3630    0.9427   -1.2485 C   0  0  0  0  0  0  0  0  0  0  0  0
    1.7538    1.5862   -2.4634 C   0  0  0  0  0  0  0  0  0  0  0  0
    1.5885    0.5437   -0.1426 C   0  0  0  0  0  0  0  0  0  0  0  0
    0.1386    0.8204   -0.1221 C   0  0  0  0  0  0  0  0  0  0  0  0
   -0.3347    1.9448   -0.0780 O   0  0  0  0  0  0  0  0  0  0  0  0
   -0.5210   -0.3883   -0.2605 O   0  0  0  0  0  0  0  0  0  0  0  0
   -1.9139   -0.2620   -0.1695 C   0  0  0  0  0  0  0  0  0  0  0  0
   -2.4967   -0.6487    1.0464 C   0  0  0  0  0  0  0  0  0  0  0  0
   -3.8854   -0.5837    1.2178 C   0  0  0  0  0  0  0  0  0  0  0  0
   -4.4898   -1.0252    2.5248 C   0  0  0  0  0  0  0  0  0  0  0  0
   -4.6728   -0.1178    0.1436 C   0  0  0  0  0  0  0  0  0  0  0  0
   -6.1380   -0.0291    0.3045 C   0  0  0  0  0  0  0  0  0  0  0  0
   -6.8839   -0.9368    0.6287 O   0  0  0  0  0  0  0  0  0  0  0  0
   -6.5727    1.2370    0.1501 O   0  0  0  0  0  0  0  0  0  0  0  0
   -4.0730    0.2557   -1.0751 C   0  0  0  0  0  0  0  0  0  0  0  0
   -4.8661    0.7002   -2.0978 O   0  0  0  0  0  0  0  0  0  0  0  0
   -2.6851    0.1551   -1.2665 C   0  0  0  0  0  0  0  0  0  0  0  0
   -2.0402    0.5142   -2.5746 C   0  0  0  0  0  0  0  0  0  0  0  0
    2.1898   -0.0718    0.9704 C   0  0  0  0  0  0  0  0  0  0  0  0
    1.4006   -0.4359    2.0391 O   0  0  0  0  0  0  0  0  0  0  0  0
    1.1944   -1.8533    2.0686 C   0  0  0  0  0  0  0  0  0  0  0  0
    3.5882   -0.2252    1.0284 C   0  0  0  0  0  0  0  0  0  0  0  0
    4.2641   -0.7543    2.2704 C   0  0  0  0  0  0  0  0  0  0  0  0
    7.5550   -0.0780   -0.8609 H   0  0  0  0  0  0  0  0  0  0  0  0
    6.5011    1.2670   -1.3392 H   0  0  0  0  0  0  0  0  0  0  0  0
    6.2393   -0.4034   -2.0027 H   0  0  0  0  0  0  0  0  0  0  0  0
    4.3316    0.9764   -2.1015 H   0  0  0  0  0  0  0  0  0  0  0  0
    1.0997    2.4181   -2.1831 H   0  0  0  0  0  0  0  0  0  0  0  0
    1.1860    0.8469   -3.0364 H   0  0  0  0  0  0  0  0  0  0  0  0
    2.5248    2.0049   -3.1222 H   0  0  0  0  0  0  0  0  0  0  0  0
   -1.8601   -0.9966    1.8594 H   0  0  0  0  0  0  0  0  0  0  0  0
   -5.1959   -0.2752    2.9013 H   0  0  0  0  0  0  0  0  0  0  0  0
   -3.7220   -1.1545    3.2993 H   0  0  0  0  0  0  0  0  0  0  0  0
   -5.0028   -1.9865    2.3963 H   0  0  0  0  0  0  0  0  0  0  0  0
   -7.5398    1.1686    0.2866 H   0  0  0  0  0  0  0  0  0  0  0  0
   -4.4321    1.4864   -2.4773 H   0  0  0  0  0  0  0  0  0  0  0  0
   -1.7780    1.5755   -2.5811 H   0  0  0  0  0  0  0  0  0  0  0  0
   -1.1372   -0.0798   -2.7488 H   0  0  0  0  0  0  0  0  0  0  0  0
   -2.7066    0.3091   -3.4189 H   0  0  0  0  0  0  0  0  0  0  0  0
    0.3337   -2.0502    2.7112 H   0  0  0  0  0  0  0  0  0  0  0  0
    2.0568   -2.3646    2.5050 H   0  0  0  0  0  0  0  0  0  0  0  0
    0.9768   -2.2622    1.0753 H   0  0  0  0  0  0  0  0  0  0  0  0
    4.4236   -1.8344    2.1838 H   0  0  0  0  0  0  0  0  0  0  0  0
    5.2307   -0.2621    2.4368 H   0  0  0  0  0  0  0  0  0  0  0  0
    3.6701   -0.5513    3.1677 H   0  0  0  0  0  0  0  0  0  0  0  0
  1  2  1  0
  2  3  1  0
  3  4  2  0
  4  5  1  0
  5  6  1  0
  5  7  2  0
  7  8  1  0
  8  9  2  0
  8 10  1  0
 10 11  1  0
 11 12  2  0
 12 13  1  0
 13 14  1  0
 13 15  2  0
 15 16  1  0
 16 17  2  0
 16 18  1  0
 15 19  1  0
 19 20  1  0
 19 21  2  0
 21 22  1  0
  7 23  1  0
 23 24  1  0
 24 25  1  0
 23 26  2  0
 26 27  1  0
 26  3  1  0
 21 11  1  0
  1 28  1  0
  1 29  1  0
  1 30  1  0
  4 31  1  0
  6 32  1  0
  6 33  1  0
  6 34  1  0
 12 35  1  0
 14 36  1  0
 14 37  1  0
 14 38  1  0
 18 39  1  0
 20 40  1  0
 22 41  1  0
 22 42  1  0
 22 43  1  0
 25 44  1  0
 25 45  1  0
 25 46  1  0
 27 47  1  0
 27 48  1  0
 27 49  1  0
M  END
$$$$
