
     RDKit          3D

 54 57  0  0  0  0  0  0  0  0999 V2000
   -2.5852   -1.8312    1.5457 C   0  0  0  0  0  0  0  0  0  0  0  0
   -2.0948   -1.3906    0.1526 C   0  0  0  0  0  0  0  0  0  0  0  0
   -1.9622   -2.6510   -0.7535 C   0  0  0  0  0  0  0  0  0  0  0  0
   -3.2980   -3.2395   -1.1874 C   0  0  0  0  0  0  0  0  0  0  0  0
   -4.1431   -2.1895   -1.8611 C   0  0  0  0  0  0  0  0  0  0  0  0
   -4.9685   -2.4670   -2.7287 O   0  0  0  0  0  0  0  0  0  0  0  0
   -4.0237   -0.7928   -1.3935 C   0  0  0  0  0  0  0  0  0  0  0  0
   -3.1330   -0.4282   -0.4521 C   0  0  0  0  0  0  0  0  0  0  0  0
   -3.1464    0.9927    0.0732 C   0  0  0  0  0  0  0  0  0  0  0  0
   -1.7556    1.6283    0.1111 C   0  0  0  0  0  0  0  0  0  0  0  0
   -0.7853    0.7327    0.8862 C   0  0  0  0  0  0  0  0  0  0  0  0
   -0.7012   -0.6578    0.1846 C   0  0  0  0  0  0  0  0  0  0  0  0
    0.4993   -1.4655    0.7324 C   0  0  0  0  0  0  0  0  0  0  0  0
    0.3532   -1.6278    2.1443 O   0  0  0  0  0  0  0  0  0  0  0  0
    1.8586   -0.7642    0.4668 C   0  0  0  0  0  0  0  0  0  0  0  0
    1.7309    0.7648    0.2487 C   0  0  0  0  0  0  0  0  0  0  0  0
    1.5013    1.0892   -1.2353 C   0  0  0  0  0  0  0  0  0  0  0  0
    1.8054    0.3241   -2.1498 O   0  0  0  0  0  0  0  0  0  0  0  0
    2.9494    1.5801    0.7366 C   0  0  0  0  0  0  0  0  0  0  0  0
    4.0921    1.6879   -0.2746 C   0  0  0  0  0  0  0  0  0  0  0  0
    4.3466    2.7338   -0.8782 O   0  0  0  0  0  0  0  0  0  0  0  0
    4.9194    0.4294   -0.5278 C   0  0  0  0  0  0  0  0  0  0  0  0
    6.2017    0.7446   -1.0459 O   0  0  0  0  0  0  0  0  0  0  0  0
    2.3666    2.9599    1.1465 C   0  0  0  0  0  0  0  0  0  0  0  0
    0.8386    2.8172    1.1703 C   0  0  0  0  0  0  0  0  0  0  0  0
    0.6171    1.3108    1.1557 C   0  0  0  0  0  0  0  0  0  0  0  0
   -1.9642   -2.6352    1.9534 H   0  0  0  0  0  0  0  0  0  0  0  0
   -2.5867   -1.0128    2.2705 H   0  0  0  0  0  0  0  0  0  0  0  0
   -3.6136   -2.2116    1.5077 H   0  0  0  0  0  0  0  0  0  0  0  0
   -1.3972   -2.3910   -1.6610 H   0  0  0  0  0  0  0  0  0  0  0  0
   -1.3876   -3.4355   -0.2453 H   0  0  0  0  0  0  0  0  0  0  0  0
   -3.8569   -3.6484   -0.3377 H   0  0  0  0  0  0  0  0  0  0  0  0
   -3.1166   -4.0527   -1.9014 H   0  0  0  0  0  0  0  0  0  0  0  0
   -4.7424   -0.1031   -1.8211 H   0  0  0  0  0  0  0  0  0  0  0  0
   -3.8056    1.6321   -0.5280 H   0  0  0  0  0  0  0  0  0  0  0  0
   -3.5679    0.9834    1.0871 H   0  0  0  0  0  0  0  0  0  0  0  0
   -1.8386    2.6113    0.5893 H   0  0  0  0  0  0  0  0  0  0  0  0
   -1.3947    1.7917   -0.9116 H   0  0  0  0  0  0  0  0  0  0  0  0
   -1.2278    0.6007    1.8825 H   0  0  0  0  0  0  0  0  0  0  0  0
   -0.4708   -0.4716   -0.8739 H   0  0  0  0  0  0  0  0  0  0  0  0
    0.5346   -2.4689    0.2919 H   0  0  0  0  0  0  0  0  0  0  0  0
    1.0016   -2.2953    2.4324 H   0  0  0  0  0  0  0  0  0  0  0  0
    2.5364   -0.9636    1.3075 H   0  0  0  0  0  0  0  0  0  0  0  0
    2.3216   -1.2390   -0.4073 H   0  0  0  0  0  0  0  0  0  0  0  0
    1.1165    2.1026   -1.4660 H   0  0  0  0  0  0  0  0  0  0  0  0
    3.3721    1.1303    1.6458 H   0  0  0  0  0  0  0  0  0  0  0  0
    4.3972   -0.2063   -1.2471 H   0  0  0  0  0  0  0  0  0  0  0  0
    5.0611   -0.1153    0.4119 H   0  0  0  0  0  0  0  0  0  0  0  0
    6.0828    1.5214   -1.6282 H   0  0  0  0  0  0  0  0  0  0  0  0
    2.6527    3.7804    0.4794 H   0  0  0  0  0  0  0  0  0  0  0  0
    2.7324    3.2253    2.1466 H   0  0  0  0  0  0  0  0  0  0  0  0
    0.4046    3.2884    2.0596 H   0  0  0  0  0  0  0  0  0  0  0  0
    0.4100    3.3116    0.2922 H   0  0  0  0  0  0  0  0  0  0  0  0
    0.8640    0.9809    2.1802 H   0  0  0  0  0  0  0  0  0  0  0  0
  1  2  1  0
  2  3  1  0
  3  4  1  0
  4  5  1  0
  5  6  2  0
  5  7  1  0
  7  8  2  0
  8  9  1  0
  9 10  1  0
 10 11  1  0
 11 12  1  0
 12 13  1  0
 13 14  1  0
 13 15  1  0
 15 16  1  0
 16 17  1  0
 17 18  2  0
 16 19  1  0
 19 20  1  0
 20 21  2  0
 20 22  1  0
 22 23  1  0
 19 24  1  0
 24 25  1  0
 25 26  1  0
  8  2  1  0
 26 11  1  0
 12  2  1  0
 26 16  1  0
  1 27  1  0
  1 28  1  0
  1 29  1  0
  3 30  1  0
  3 31  1  0
  4 32  1  0
  4 33  1  0
  7 34  1  0
  9 35  1  0
  9 36  1  0
 10 37  1  0
 10 38  1  0
 11 39  1  0
 12 40  1  0
 13 41  1  0
 14 42  1  0
 15 43  1  0
 15 44  1  0
 17 45  1  0
 19 46  1  0
 22 47  1  0
 22 48  1  0
 23 49  1  0
 24 50  1  0
 24 51  1  0
 25 52  1  0
 25 53  1  0
 26 54  1  0
M  END
$$$$
