
     RDKit          3D

 31 32  0  0  0  0  0  0  0  0999 V2000
   -1.2009    0.6032   -2.5142 C   0  0  0  0  0  0  0  0  0  0  0  0
   -0.6149    0.5838   -1.0789 C   0  0  0  0  0  0  0  0  0  0  0  0
   -0.5914    2.0540   -0.6023 C   0  0  0  0  0  0  0  0  0  0  0  0
    0.8484    0.0710   -1.1579 C   0  0  0  0  0  0  0  0  0  0  0  0
    1.3041   -0.4280   -2.1906 O   0  0  0  0  0  0  0  0  0  0  0  0
    1.7761    0.1630    0.0066 C   0  0  0  0  0  0  0  0  0  0  0  0
    3.1528    0.2252   -0.2395 C   0  0  0  0  0  0  0  0  0  0  0  0
    4.0479    0.3115    0.8246 C   0  0  0  0  0  0  0  0  0  0  0  0
    3.5360    0.3280    2.1098 C   0  0  0  0  0  0  0  0  0  0  0  0
    2.2166    0.2586    2.3878 N   0  0  0  0  0  0  0  0  0  0  0  0
    1.3675    0.1673    1.3325 C   0  0  0  0  0  0  0  0  0  0  0  0
   -1.5005   -0.3488   -0.2516 C   0  0  0  0  0  0  0  0  0  0  0  0
   -1.3965   -1.7436   -0.3796 C   0  0  0  0  0  0  0  0  0  0  0  0
   -2.2071   -2.5842    0.3783 C   0  0  0  0  0  0  0  0  0  0  0  0
   -3.1162   -2.0086    1.2451 C   0  0  0  0  0  0  0  0  0  0  0  0
   -3.2658   -0.6767    1.3900 N   0  0  0  0  0  0  0  0  0  0  0  0
   -2.4694    0.1167    0.6371 C   0  0  0  0  0  0  0  0  0  0  0  0
   -1.2093   -0.3951   -2.9685 H   0  0  0  0  0  0  0  0  0  0  0  0
   -0.6115    1.2516   -3.1737 H   0  0  0  0  0  0  0  0  0  0  0  0
   -2.2341    0.9714   -2.5198 H   0  0  0  0  0  0  0  0  0  0  0  0
   -0.3466    2.1482    0.4603 H   0  0  0  0  0  0  0  0  0  0  0  0
    0.1536    2.6351   -1.1593 H   0  0  0  0  0  0  0  0  0  0  0  0
   -1.5613    2.5430   -0.7525 H   0  0  0  0  0  0  0  0  0  0  0  0
    3.5323    0.2067   -1.2593 H   0  0  0  0  0  0  0  0  0  0  0  0
    5.1175    0.3621    0.6525 H   0  0  0  0  0  0  0  0  0  0  0  0
    4.1904    0.3951    2.9746 H   0  0  0  0  0  0  0  0  0  0  0  0
    0.3285    0.0866    1.6299 H   0  0  0  0  0  0  0  0  0  0  0  0
   -0.6887   -2.1911   -1.0763 H   0  0  0  0  0  0  0  0  0  0  0  0
   -2.1323   -3.6623    0.2897 H   0  0  0  0  0  0  0  0  0  0  0  0
   -3.7708   -2.6197    1.8597 H   0  0  0  0  0  0  0  0  0  0  0  0
   -2.6544    1.1761    0.7905 H   0  0  0  0  0  0  0  0  0  0  0  0
  1  2  1  0
  2  3  1  0
  2  4  1  0
  4  5  2  0
  4  6  1  0
  6  7  2  0
  7  8  1  0
  8  9  2  0
  9 10  1  0
 10 11  2  0
  2 12  1  0
 12 13  2  0
 13 14  1  0
 14 15  2  0
 15 16  1  0
 16 17  2  0
 11  6  1  0
 17 12  1  0
  1 18  1  0
  1 19  1  0
  1 20  1  0
  3 21  1  0
  3 22  1  0
  3 23  1  0
  7 24  1  0
  8 25  1  0
  9 26  1  0
 11 27  1  0
 13 28  1  0
 14 29  1  0
 15 30  1  0
 17 31  1  0
M  END
$$$$
