
     RDKit          3D

 54 55  0  0  0  0  0  0  0  0999 V2000
   -7.5309    1.7732    0.1332 C   0  0  0  0  0  0  0  0  0  0  0  0
   -6.6588    1.1361   -0.7909 O   0  0  0  0  0  0  0  0  0  0  0  0
   -5.5055    0.6022   -0.2848 C   0  0  0  0  0  0  0  0  0  0  0  0
   -4.6872   -0.0212   -1.2285 C   0  0  0  0  0  0  0  0  0  0  0  0
   -3.4784   -0.6076   -0.8471 C   0  0  0  0  0  0  0  0  0  0  0  0
   -3.0619   -0.5733    0.4899 C   0  0  0  0  0  0  0  0  0  0  0  0
   -1.7617   -1.2257    0.9145 C   0  0  0  0  0  0  0  0  0  0  0  0
   -0.6087   -0.8130    0.1016 N   0  0  0  0  0  0  0  0  0  0  0  0
    0.5303   -1.7261    0.3302 C   0  0  0  0  0  0  0  0  0  0  0  0
    1.8736   -1.1046   -0.1036 C   0  0  0  0  0  0  0  0  0  0  0  0
    2.2443    0.0751    0.7117 N   0  0  0  0  0  0  0  0  0  0  0  0
    3.1407    0.9755   -0.0312 C   0  0  0  0  0  0  0  0  0  0  0  0
    4.4767    0.3498   -0.3746 C   0  0  0  0  0  0  0  0  0  0  0  0
    5.3220   -0.1254    0.6393 C   0  0  0  0  0  0  0  0  0  0  0  0
    6.5587   -0.6911    0.3263 C   0  0  0  0  0  0  0  0  0  0  0  0
    6.9655   -0.7846   -1.0030 C   0  0  0  0  0  0  0  0  0  0  0  0
    6.1366   -0.3135   -2.0197 C   0  0  0  0  0  0  0  0  0  0  0  0
    4.8988    0.2523   -1.7085 C   0  0  0  0  0  0  0  0  0  0  0  0
    1.0430    0.7867    1.1941 C   0  0  0  0  0  0  0  0  0  0  0  0
   -0.2195    0.5954    0.3234 C   0  0  0  0  0  0  0  0  0  0  0  0
   -3.8914    0.0456    1.4351 C   0  0  0  0  0  0  0  0  0  0  0  0
   -5.1033    0.6324    1.0502 C   0  0  0  0  0  0  0  0  0  0  0  0
   -0.6787    0.4975   -1.1754 O   0  0  0  0  0  0  0  0  0  0  0  0
   -0.6421    0.0676   -0.0392 C   0  0  0  0  0  0  0  0  0  0  0  0
   -1.7461   -0.3487    0.5969 O   0  0  0  0  0  0  0  0  0  0  0  0
    0.6423   -0.0666    0.8346 C   0  0  0  0  0  0  0  0  0  0  0  0
    0.6775   -0.4911    1.9727 O   0  0  0  0  0  0  0  0  0  0  0  0
    1.7475    0.3432    0.1970 O   0  0  0  0  0  0  0  0  0  0  0  0
   -7.0475    2.6375    0.6008 H   0  0  0  0  0  0  0  0  0  0  0  0
   -7.8931    1.0662    0.8869 H   0  0  0  0  0  0  0  0  0  0  0  0
   -8.3993    2.1387   -0.4238 H   0  0  0  0  0  0  0  0  0  0  0  0
   -4.9923   -0.0511   -2.2713 H   0  0  0  0  0  0  0  0  0  0  0  0
   -2.8549   -1.0867   -1.5992 H   0  0  0  0  0  0  0  0  0  0  0  0
   -1.9175   -2.3087    0.8168 H   0  0  0  0  0  0  0  0  0  0  0  0
   -1.5660   -1.0325    1.9773 H   0  0  0  0  0  0  0  0  0  0  0  0
    0.6035   -2.0111    1.3887 H   0  0  0  0  0  0  0  0  0  0  0  0
    0.3620   -2.6469   -0.2402 H   0  0  0  0  0  0  0  0  0  0  0  0
    1.7997   -0.8456   -1.1688 H   0  0  0  0  0  0  0  0  0  0  0  0
    2.6587   -1.8636   -0.0078 H   0  0  0  0  0  0  0  0  0  0  0  0
    3.3658    1.8602    0.5795 H   0  0  0  0  0  0  0  0  0  0  0  0
    2.6478    1.3477   -0.9390 H   0  0  0  0  0  0  0  0  0  0  0  0
    5.0083   -0.0608    1.6792 H   0  0  0  0  0  0  0  0  0  0  0  0
    7.2025   -1.0594    1.1202 H   0  0  0  0  0  0  0  0  0  0  0  0
    7.9283   -1.2254   -1.2467 H   0  0  0  0  0  0  0  0  0  0  0  0
    6.4544   -0.3866   -3.0563 H   0  0  0  0  0  0  0  0  0  0  0  0
    4.2648    0.6148   -2.5142 H   0  0  0  0  0  0  0  0  0  0  0  0
    1.2370    1.8588    1.3242 H   0  0  0  0  0  0  0  0  0  0  0  0
    0.8239    0.4099    2.2018 H   0  0  0  0  0  0  0  0  0  0  0  0
   -1.0368    1.1874    0.7519 H   0  0  0  0  0  0  0  0  0  0  0  0
   -0.0259    1.0372   -0.6628 H   0  0  0  0  0  0  0  0  0  0  0  0
   -3.5998    0.0786    2.4821 H   0  0  0  0  0  0  0  0  0  0  0  0
   -5.7068    1.1033    1.8188 H   0  0  0  0  0  0  0  0  0  0  0  0
   -2.4687   -0.2115   -0.0491 H   0  0  0  0  0  0  0  0  0  0  0  0
    2.4684    0.2096    0.8452 H   0  0  0  0  0  0  0  0  0  0  0  0
  1  2  1  0
  2  3  1  0
  3  4  2  0
  4  5  1  0
  5  6  2  0
  6  7  1  0
  7  8  1  0
  8  9  1  0
  9 10  1  0
 10 11  1  0
 11 12  1  0
 12 13  1  0
 13 14  2  0
 14 15  1  0
 15 16  2  0
 16 17  1  0
 17 18  2  0
 11 19  1  0
 19 20  1  0
  6 21  1  0
 21 22  2  0
 23 24  2  0
 24 25  1  0
 24 26  1  0
 26 27  2  0
 26 28  1  0
 22  3  1  0
 20  8  1  0
 18 13  1  0
  1 29  1  0
  1 30  1  0
  1 31  1  0
  4 32  1  0
  5 33  1  0
  7 34  1  0
  7 35  1  0
  9 36  1  0
  9 37  1  0
 10 38  1  0
 10 39  1  0
 12 40  1  0
 12 41  1  0
 14 42  1  0
 15 43  1  0
 16 44  1  0
 17 45  1  0
 18 46  1  0
 19 47  1  0
 19 48  1  0
 20 49  1  0
 20 50  1  0
 21 51  1  0
 22 52  1  0
 25 53  1  0
 28 54  1  0
M  END
$$$$
