
     RDKit          3D

 61 65  0  0  0  0  0  0  0  0999 V2000
  -10.7506   -2.5276    1.0564 N   0  0  0  0  0  0  0  0  0  0  0  0
   -9.6011   -2.3920    1.1313 C   0  0  0  0  0  0  0  0  0  0  0  0
   -8.1809   -2.2269    1.2272 C   0  0  0  0  0  0  0  0  0  0  0  0
   -7.6269   -1.5281    2.3034 C   0  0  0  0  0  0  0  0  0  0  0  0
   -6.2412   -1.3744    2.3993 C   0  0  0  0  0  0  0  0  0  0  0  0
   -5.3904   -1.9058    1.4176 C   0  0  0  0  0  0  0  0  0  0  0  0
   -3.8953   -1.7538    1.5718 C   0  0  0  0  0  0  0  0  0  0  0  0
   -3.2378   -1.8209    0.3033 O   0  0  0  0  0  0  0  0  0  0  0  0
   -2.3404   -0.7294    0.1062 C   0  0  0  0  0  0  0  0  0  0  0  0
   -1.6084   -0.8982   -1.2300 C   0  0  1  0  0  0  0  0  0  0  0  0
   -0.7131    0.2159   -1.4256 O   0  0  0  0  0  0  0  0  0  0  0  0
    0.6375   -0.2413   -1.1992 C   0  0  1  0  0  0  0  0  0  0  0  0
    1.3595    0.6299   -0.2848 N   0  0  0  0  0  0  0  0  0  0  0  0
    2.7392    0.6576   -0.1606 C   0  0  0  0  0  0  0  0  0  0  0  0
    3.5288   -0.2006   -0.8524 N   0  0  0  0  0  0  0  0  0  0  0  0
    4.9528   -0.2354   -0.5466 C   0  0  0  0  0  0  0  0  0  0  0  0
    5.6810    0.9067   -1.2175 C   0  0  0  0  0  0  0  0  0  0  0  0
    5.8988    0.9031   -2.6025 C   0  0  0  0  0  0  0  0  0  0  0  0
    6.5505    1.9750   -3.2192 C   0  0  0  0  0  0  0  0  0  0  0  0
    6.9839    3.0682   -2.4597 C   0  0  0  0  0  0  0  0  0  0  0  0
    7.7797    4.3593   -3.2890 Cl  0  0  0  0  0  0  0  0  0  0  0  0
    6.7650    3.0861   -1.0788 C   0  0  0  0  0  0  0  0  0  0  0  0
    7.2622    4.4049   -0.0767 Cl  0  0  0  0  0  0  0  0  0  0  0  0
    6.1192    2.0084   -0.4636 C   0  0  0  0  0  0  0  0  0  0  0  0
    3.1221    1.5853    0.6888 N   0  0  0  0  0  0  0  0  0  0  0  0
    1.9606    2.1304    1.1826 C   0  0  0  0  0  0  0  0  0  0  0  0
    1.7272    3.1428    2.1283 C   0  0  0  0  0  0  0  0  0  0  0  0
    2.7491    3.8324    2.7716 N   0  0  0  0  0  0  0  0  0  0  0  0
    0.4503    3.4789    2.4161 N   0  0  0  0  0  0  0  0  0  0  0  0
   -0.5398    2.8016    1.7968 C   0  0  0  0  0  0  0  0  0  0  0  0
   -0.4383    1.8022    0.8981 N   0  0  0  0  0  0  0  0  0  0  0  0
    0.8486    1.5308    0.6137 C   0  0  0  0  0  0  0  0  0  0  0  0
    0.5619   -1.6766   -0.6751 C   0  0  2  0  0  0  0  0  0  0  0  0
    1.6700   -2.4744   -1.1069 O   0  0  0  0  0  0  0  0  0  0  0  0
   -0.7444   -2.1576   -1.2787 C   0  0  2  0  0  0  0  0  0  0  0  0
   -0.4580   -2.5501   -2.6347 O   0  0  0  0  0  0  0  0  0  0  0  0
   -5.9561   -2.6169    0.3492 C   0  0  0  0  0  0  0  0  0  0  0  0
   -7.3419   -2.7722    0.2507 C   0  0  0  0  0  0  0  0  0  0  0  0
   -8.2671   -1.1037    3.0757 H   0  0  0  0  0  0  0  0  0  0  0  0
   -5.8292   -0.8359    3.2504 H   0  0  0  0  0  0  0  0  0  0  0  0
   -3.6740   -0.8081    2.0815 H   0  0  0  0  0  0  0  0  0  0  0  0
   -3.5149   -2.5744    2.1900 H   0  0  0  0  0  0  0  0  0  0  0  0
   -2.9021    0.2139    0.0986 H   0  0  0  0  0  0  0  0  0  0  0  0
   -1.6263   -0.6851    0.9373 H   0  0  0  0  0  0  0  0  0  0  0  0
   -2.3351   -0.8964   -2.0504 H   0  0  0  0  0  0  0  0  0  0  0  0
    1.1545   -0.1853   -2.1656 H   0  0  0  0  0  0  0  0  0  0  0  0
    3.1576   -1.1366   -1.0352 H   0  0  0  0  0  0  0  0  0  0  0  0
    5.1301   -0.2446    0.5360 H   0  0  0  0  0  0  0  0  0  0  0  0
    5.3741   -1.1763   -0.9240 H   0  0  0  0  0  0  0  0  0  0  0  0
    5.5485    0.0678   -3.2089 H   0  0  0  0  0  0  0  0  0  0  0  0
    6.7088    1.9549   -4.2949 H   0  0  0  0  0  0  0  0  0  0  0  0
    5.9314    2.0303    0.6075 H   0  0  0  0  0  0  0  0  0  0  0  0
    2.4366    4.7352    3.1083 H   0  0  0  0  0  0  0  0  0  0  0  0
    3.6255    3.8078    2.2608 H   0  0  0  0  0  0  0  0  0  0  0  0
   -1.5503    3.1028    2.0579 H   0  0  0  0  0  0  0  0  0  0  0  0
    0.5192   -1.7034    0.4193 H   0  0  0  0  0  0  0  0  0  0  0  0
    1.3781   -2.8616   -1.9627 H   0  0  0  0  0  0  0  0  0  0  0  0
   -1.1627   -3.0298   -0.7697 H   0  0  0  0  0  0  0  0  0  0  0  0
   -1.3099   -2.7282   -3.0729 H   0  0  0  0  0  0  0  0  0  0  0  0
   -5.3176   -3.0560   -0.4157 H   0  0  0  0  0  0  0  0  0  0  0  0
   -7.7582   -3.3246   -0.5900 H   0  0  0  0  0  0  0  0  0  0  0  0
  1  2  3  0
  2  3  1  0
  3  4  2  0
  4  5  1  0
  5  6  2  0
  6  7  1  0
  7  8  1  0
  8  9  1  0
  9 10  1  0
 10 11  1  0
 11 12  1  0
 12 13  1  0
 13 14  1  0
 14 15  1  0
 15 16  1  0
 16 17  1  0
 17 18  2  0
 18 19  1  0
 19 20  2  0
 20 21  1  0
 20 22  1  0
 22 23  1  0
 22 24  2  0
 14 25  2  0
 25 26  1  0
 26 27  2  0
 27 28  1  0
 27 29  1  0
 29 30  2  0
 30 31  1  0
 31 32  2  0
 12 33  1  0
 33 34  1  0
 33 35  1  0
 35 36  1  0
  6 37  1  0
 37 38  2  0
 38  3  1  0
 35 10  1  0
 32 13  1  0
 24 17  1  0
 32 26  1  0
  4 39  1  0
  5 40  1  0
  7 41  1  0
  7 42  1  0
  9 43  1  0
  9 44  1  0
 10 45  1  6
 12 46  1  6
 15 47  1  0
 16 48  1  0
 16 49  1  0
 18 50  1  0
 19 51  1  0
 24 52  1  0
 28 53  1  0
 28 54  1  0
 30 55  1  0
 33 56  1  1
 34 57  1  0
 35 58  1  1
 36 59  1  0
 37 60  1  0
 38 61  1  0
M  END
$$$$
