
     RDKit          3D

 50 52  0  0  0  0  0  0  0  0999 V2000
   -6.5004    2.6602    2.1528 C   0  0  0  0  0  0  0  0  0  0  0  0
   -5.7328    1.4872    2.7396 C   0  0  0  0  0  0  0  0  0  0  0  0
   -5.4332    0.4810    1.7283 N   0  0  0  0  0  0  0  0  0  0  0  0
   -4.2582    0.6582    1.0252 N   0  0  0  0  0  0  0  0  0  0  0  0
   -3.9847   -0.1970    0.0917 C   0  0  0  0  0  0  0  0  0  0  0  0
   -2.7359   -0.0304   -0.6561 C   0  0  0  0  0  0  0  0  0  0  0  0
   -1.9755    1.1275   -0.5687 C   0  0  0  0  0  0  0  0  0  0  0  0
   -0.5657    1.0963   -1.5322 S   0  0  0  0  0  0  0  0  0  0  0  0
   -0.9124   -0.4785   -2.0851 C   0  0  0  0  0  0  0  0  0  0  0  0
    0.2644   -1.2029   -3.2088 S   0  0  0  0  0  6  0  0  0  0  0  0
    0.1389   -0.4284   -4.4212 O   0  0  0  0  0  0  0  0  0  0  0  0
   -0.0183   -2.6201   -3.1581 O   0  0  0  0  0  0  0  0  0  0  0  0
    1.8037   -0.9430   -2.5909 N   0  0  0  0  0  0  0  0  0  0  0  0
    2.1429   -1.6658   -1.3630 C   0  0  0  0  0  0  0  0  0  0  0  0
    3.3426   -1.0447   -0.6934 C   0  0  0  0  0  0  0  0  0  0  0  0
    3.1805   -0.1237    0.3535 C   0  0  0  0  0  0  0  0  0  0  0  0
    4.2944    0.4723    0.9467 C   0  0  0  0  0  0  0  0  0  0  0  0
    4.2678    1.3781    1.9725 O   0  0  0  0  0  0  0  0  0  0  0  0
    2.9919    1.7418    2.4844 C   0  0  0  0  0  0  0  0  0  0  0  0
    5.5777    0.1533    0.4875 C   0  0  0  0  0  0  0  0  0  0  0  0
    5.7549   -0.7500   -0.5602 C   0  0  0  0  0  0  0  0  0  0  0  0
    6.9516   -1.1345   -1.0992 O   0  0  0  0  0  0  0  0  0  0  0  0
    8.1237   -0.5516   -0.5430 C   0  0  0  0  0  0  0  0  0  0  0  0
    4.6348   -1.3408   -1.1478 C   0  0  0  0  0  0  0  0  0  0  0  0
   -2.0912   -0.9594   -1.5464 C   0  0  0  0  0  0  0  0  0  0  0  0
   -4.8388   -1.3348   -0.2896 C   0  0  0  0  0  0  0  0  0  0  0  0
   -5.9792   -1.4726    0.3901 C   0  0  0  0  0  0  0  0  0  0  0  0
   -6.3513   -0.5280    1.4649 C   0  0  0  0  0  0  0  0  0  0  0  0
   -7.4208   -0.6831    2.0474 O   0  0  0  0  0  0  0  0  0  0  0  0
   -6.7112    3.4035    2.9276 H   0  0  0  0  0  0  0  0  0  0  0  0
   -7.4529    2.3330    1.7230 H   0  0  0  0  0  0  0  0  0  0  0  0
   -5.9256    3.1467    1.3578 H   0  0  0  0  0  0  0  0  0  0  0  0
   -4.7897    1.8316    3.1787 H   0  0  0  0  0  0  0  0  0  0  0  0
   -6.3218    1.0277    3.5410 H   0  0  0  0  0  0  0  0  0  0  0  0
   -2.1943    2.0098    0.0206 H   0  0  0  0  0  0  0  0  0  0  0  0
    2.0495    0.0470   -2.5937 H   0  0  0  0  0  0  0  0  0  0  0  0
    1.3032   -1.6590   -0.6589 H   0  0  0  0  0  0  0  0  0  0  0  0
    2.3544   -2.7149   -1.5996 H   0  0  0  0  0  0  0  0  0  0  0  0
    2.1757    0.1130    0.6893 H   0  0  0  0  0  0  0  0  0  0  0  0
    2.3827    2.2289    1.7158 H   0  0  0  0  0  0  0  0  0  0  0  0
    3.1490    2.4636    3.2917 H   0  0  0  0  0  0  0  0  0  0  0  0
    2.4750    0.8746    2.9087 H   0  0  0  0  0  0  0  0  0  0  0  0
    6.4219    0.6342    0.9708 H   0  0  0  0  0  0  0  0  0  0  0  0
    8.2353   -0.8205    0.5126 H   0  0  0  0  0  0  0  0  0  0  0  0
    8.9859   -0.9559   -1.0822 H   0  0  0  0  0  0  0  0  0  0  0  0
    8.1265    0.5350   -0.6778 H   0  0  0  0  0  0  0  0  0  0  0  0
    4.7756   -2.0360   -1.9741 H   0  0  0  0  0  0  0  0  0  0  0  0
   -2.4493   -1.9524   -1.7920 H   0  0  0  0  0  0  0  0  0  0  0  0
   -4.5747   -2.0106   -1.0877 H   0  0  0  0  0  0  0  0  0  0  0  0
   -6.6863   -2.2662    0.1845 H   0  0  0  0  0  0  0  0  0  0  0  0
  1  2  1  0
  2  3  1  0
  3  4  1  0
  4  5  2  0
  5  6  1  0
  6  7  2  0
  7  8  1  0
  8  9  1  0
  9 10  1  0
 10 11  2  0
 10 12  2  0
 10 13  1  0
 13 14  1  0
 14 15  1  0
 15 16  2  0
 16 17  1  0
 17 18  1  0
 18 19  1  0
 17 20  2  0
 20 21  1  0
 21 22  1  0
 22 23  1  0
 21 24  2  0
  9 25  2  0
  5 26  1  0
 26 27  2  0
 27 28  1  0
 28 29  2  0
 28  3  1  0
 25  6  1  0
 24 15  1  0
  1 30  1  0
  1 31  1  0
  1 32  1  0
  2 33  1  0
  2 34  1  0
  7 35  1  0
 13 36  1  0
 14 37  1  0
 14 38  1  0
 16 39  1  0
 19 40  1  0
 19 41  1  0
 19 42  1  0
 20 43  1  0
 23 44  1  0
 23 45  1  0
 23 46  1  0
 24 47  1  0
 25 48  1  0
 26 49  1  0
 27 50  1  0
M  END
$$$$
