
     RDKit          3D

 95100  0  0  0  0  0  0  0  0999 V2000
  -11.4996    0.3587   -1.7290 C   0  0  0  0  0  0  0  0  0  0  0  0
  -11.4184    0.4790   -0.2111 C   0  0  0  0  0  0  0  0  0  0  0  0
  -10.0703    1.0380    0.3024 C   0  0  2  0  0  0  0  0  0  0  0  0
  -10.0071    2.5480   -0.0355 C   0  0  0  0  0  0  0  0  0  0  0  0
  -11.0325    3.2301   -0.1328 O   0  0  0  0  0  0  0  0  0  0  0  0
   -8.7468    3.1196   -0.1092 N   0  0  0  0  0  0  0  0  0  0  0  0
   -8.6250    4.5559   -0.3027 C   0  0  0  0  0  0  0  0  0  0  0  0
   -7.5853    2.3073   -0.0393 C   0  0  0  0  0  0  0  0  0  0  0  0
   -6.3064    2.8349    0.0237 C   0  0  0  0  0  0  0  0  0  0  0  0
   -5.1776    2.1040    0.0740 N   0  0  0  0  0  0  0  0  0  0  0  0
   -5.3268    0.7795    0.0468 C   0  0  0  0  0  0  0  0  0  0  0  0
   -4.2422   -0.0849    0.0600 N   0  0  0  0  0  0  0  0  0  0  0  0
   -2.8484    0.0743    0.0388 C   0  0  0  0  0  0  0  0  0  0  0  0
   -2.2096    1.3065    0.2013 C   0  0  0  0  0  0  0  0  0  0  0  0
   -0.8146    1.4004    0.1733 C   0  0  0  0  0  0  0  0  0  0  0  0
   -0.0280    0.2600   -0.0184 C   0  0  0  0  0  0  0  0  0  0  0  0
    1.4565    0.4223   -0.0383 C   0  0  0  0  0  0  0  0  0  0  0  0
    1.9489    1.5229   -0.2556 O   0  0  0  0  0  0  0  0  0  0  0  0
    2.2044   -0.7083    0.2280 N   0  0  0  0  0  0  0  0  0  0  0  0
    3.6590   -0.6549    0.3789 C   0  0  1  0  0  0  0  0  0  0  0  0
    4.0275   -0.2623    1.8133 C   0  0  0  0  0  0  0  0  0  0  0  0
    5.5264   -0.3516    2.1349 C   0  0  0  0  0  0  0  0  0  0  0  0
    6.3854   -1.0746    1.0641 C   0  0  2  0  0  0  0  0  0  0  0  0
    6.7274   -0.1917   -0.0750 N   0  0  0  0  0  0  0  0  0  0  0  0
    7.4798    1.0123    0.3714 C   0  0  0  0  0  0  0  0  0  0  0  0
    8.5413    1.5261   -0.6280 C   0  0  0  0  0  0  0  0  0  0  0  0
    9.5746    0.5285   -0.9740 N   0  0  0  0  0  0  0  0  0  0  0  0
   10.7255    0.5993   -0.0643 C   0  0  0  0  0  0  0  0  0  0  0  0
   11.8747   -0.2095   -0.6004 C   0  0  0  0  0  0  0  0  0  0  0  0
   12.7273    0.3254   -1.7259 C   0  0  0  0  0  0  0  0  0  0  0  0
   13.2976    0.2236   -0.3364 C   0  0  0  0  0  0  0  0  0  0  0  0
    8.9923   -0.8325   -1.0211 C   0  0  0  0  0  0  0  0  0  0  0  0
    7.4571   -0.8499   -1.1827 C   0  0  0  0  0  0  0  0  0  0  0  0
    5.5865   -2.3316    0.6672 C   0  0  0  0  0  0  0  0  0  0  0  0
    4.2673   -2.0053   -0.0339 C   0  0  0  0  0  0  0  0  0  0  0  0
   -0.6509   -0.9814   -0.2051 C   0  0  0  0  0  0  0  0  0  0  0  0
   -2.0471   -1.0782   -0.1578 C   0  0  0  0  0  0  0  0  0  0  0  0
   -2.7518   -2.2529   -0.3165 O   0  0  0  0  0  0  0  0  0  0  0  0
   -2.0093   -3.4665   -0.3211 C   0  0  0  0  0  0  0  0  0  0  0  0
   -6.5279    0.1828   -0.0105 N   0  0  0  0  0  0  0  0  0  0  0  0
   -7.6582    0.9169   -0.0483 C   0  0  0  0  0  0  0  0  0  0  0  0
   -8.8934    0.2490   -0.1606 N   0  0  0  0  0  0  0  0  0  0  0  0
   -8.9118   -1.2219    0.0645 C   0  0  0  0  0  0  0  0  0  0  0  0
   -8.1699   -2.0057   -1.0226 C   0  0  0  0  0  0  0  0  0  0  0  0
   -8.4893   -1.6228    1.4787 C   0  0  0  0  0  0  0  0  0  0  0  0
  -11.3881    1.3319   -2.2181 H   0  0  0  0  0  0  0  0  0  0  0  0
  -12.4692   -0.0522   -2.0214 H   0  0  0  0  0  0  0  0  0  0  0  0
  -10.7285   -0.3079   -2.1241 H   0  0  0  0  0  0  0  0  0  0  0  0
  -11.6277   -0.4963    0.2390 H   0  0  0  0  0  0  0  0  0  0  0  0
  -12.2401    1.1220    0.1271 H   0  0  0  0  0  0  0  0  0  0  0  0
  -10.0938    0.9960    1.4002 H   0  0  0  0  0  0  0  0  0  0  0  0
   -9.5983    5.0354   -0.4400 H   0  0  0  0  0  0  0  0  0  0  0  0
   -8.1503    4.9988    0.5788 H   0  0  0  0  0  0  0  0  0  0  0  0
   -8.0272    4.7547   -1.1985 H   0  0  0  0  0  0  0  0  0  0  0  0
   -6.1240    3.9046    0.0442 H   0  0  0  0  0  0  0  0  0  0  0  0
   -4.5512   -1.0411   -0.0692 H   0  0  0  0  0  0  0  0  0  0  0  0
   -2.7797    2.2171    0.3578 H   0  0  0  0  0  0  0  0  0  0  0  0
   -0.3452    2.3744    0.3034 H   0  0  0  0  0  0  0  0  0  0  0  0
    1.7382   -1.4961    0.6551 H   0  0  0  0  0  0  0  0  0  0  0  0
    4.0328    0.1224   -0.2990 H   0  0  0  0  0  0  0  0  0  0  0  0
    3.6713    0.7542    2.0275 H   0  0  0  0  0  0  0  0  0  0  0  0
    3.4840   -0.9131    2.5123 H   0  0  0  0  0  0  0  0  0  0  0  0
    5.9080    0.6501    2.3601 H   0  0  0  0  0  0  0  0  0  0  0  0
    5.6309   -0.8969    3.0837 H   0  0  0  0  0  0  0  0  0  0  0  0
    7.3163   -1.4037    1.5438 H   0  0  0  0  0  0  0  0  0  0  0  0
    6.7593    1.8174    0.5572 H   0  0  0  0  0  0  0  0  0  0  0  0
    7.9987    0.8169    1.3192 H   0  0  0  0  0  0  0  0  0  0  0  0
    8.0377    1.8271   -1.5551 H   0  0  0  0  0  0  0  0  0  0  0  0
    8.9946    2.4453   -0.2396 H   0  0  0  0  0  0  0  0  0  0  0  0
   11.0524    1.6447    0.0343 H   0  0  0  0  0  0  0  0  0  0  0  0
   10.4637    0.2520    0.9438 H   0  0  0  0  0  0  0  0  0  0  0  0
   11.6758   -1.2766   -0.5773 H   0  0  0  0  0  0  0  0  0  0  0  0
   12.5009    1.3136   -2.1177 H   0  0  0  0  0  0  0  0  0  0  0  0
   13.0728   -0.3800   -2.4739 H   0  0  0  0  0  0  0  0  0  0  0  0
   14.0337   -0.5501   -0.1462 H   0  0  0  0  0  0  0  0  0  0  0  0
   13.4758    1.1482    0.2049 H   0  0  0  0  0  0  0  0  0  0  0  0
    9.4415   -1.3651   -1.8684 H   0  0  0  0  0  0  0  0  0  0  0  0
    9.2366   -1.4095   -0.1178 H   0  0  0  0  0  0  0  0  0  0  0  0
    7.1949   -0.3245   -2.1128 H   0  0  0  0  0  0  0  0  0  0  0  0
    7.1255   -1.8766   -1.3577 H   0  0  0  0  0  0  0  0  0  0  0  0
    5.3570   -2.8989    1.5818 H   0  0  0  0  0  0  0  0  0  0  0  0
    6.1740   -3.0248    0.0571 H   0  0  0  0  0  0  0  0  0  0  0  0
    4.4166   -1.9984   -1.1206 H   0  0  0  0  0  0  0  0  0  0  0  0
    3.5659   -2.8288    0.1604 H   0  0  0  0  0  0  0  0  0  0  0  0
   -0.0489   -1.8552   -0.4174 H   0  0  0  0  0  0  0  0  0  0  0  0
   -1.3927   -3.5449   -1.2228 H   0  0  0  0  0  0  0  0  0  0  0  0
   -1.4020   -3.5631    0.5846 H   0  0  0  0  0  0  0  0  0  0  0  0
   -2.7233   -4.2965   -0.3305 H   0  0  0  0  0  0  0  0  0  0  0  0
   -9.9429   -1.5689   -0.0391 H   0  0  0  0  0  0  0  0  0  0  0  0
   -8.4182   -1.6256   -2.0192 H   0  0  0  0  0  0  0  0  0  0  0  0
   -8.4617   -3.0617   -0.9866 H   0  0  0  0  0  0  0  0  0  0  0  0
   -7.0834   -1.9803   -0.9094 H   0  0  0  0  0  0  0  0  0  0  0  0
   -8.6929   -2.6851    1.6469 H   0  0  0  0  0  0  0  0  0  0  0  0
   -7.4257   -1.4610    1.6673 H   0  0  0  0  0  0  0  0  0  0  0  0
   -9.0555   -1.0624    2.2319 H   0  0  0  0  0  0  0  0  0  0  0  0
  1  2  1  0
  2  3  1  0
  3  4  1  0
  4  5  2  0
  4  6  1  0
  6  7  1  0
  6  8  1  0
  8  9  2  0
  9 10  1  0
 10 11  2  0
 11 12  1  0
 12 13  1  0
 13 14  2  0
 14 15  1  0
 15 16  2  0
 16 17  1  0
 17 18  2  0
 17 19  1  0
 19 20  1  0
 20 21  1  0
 21 22  1  0
 22 23  1  0
 23 24  1  0
 24 25  1  0
 25 26  1  0
 26 27  1  0
 27 28  1  0
 28 29  1  0
 29 30  1  0
 30 31  1  0
 27 32  1  0
 32 33  1  0
 23 34  1  0
 34 35  1  0
 16 36  1  0
 36 37  2  0
 37 38  1  0
 38 39  1  0
 11 40  1  0
 40 41  2  0
 41 42  1  0
 42 43  1  0
 43 44  1  0
 43 45  1  0
 42  3  1  0
 41  8  1  0
 37 13  1  0
 35 20  1  0
 33 24  1  0
 31 29  1  0
  1 46  1  0
  1 47  1  0
  1 48  1  0
  2 49  1  0
  2 50  1  0
  3 51  1  1
  7 52  1  0
  7 53  1  0
  7 54  1  0
  9 55  1  0
 12 56  1  0
 14 57  1  0
 15 58  1  0
 19 59  1  0
 20 60  1  6
 21 61  1  0
 21 62  1  0
 22 63  1  0
 22 64  1  0
 23 65  1  1
 25 66  1  0
 25 67  1  0
 26 68  1  0
 26 69  1  0
 28 70  1  0
 28 71  1  0
 29 72  1  0
 30 73  1  0
 30 74  1  0
 31 75  1  0
 31 76  1  0
 32 77  1  0
 32 78  1  0
 33 79  1  0
 33 80  1  0
 34 81  1  0
 34 82  1  0
 35 83  1  0
 35 84  1  0
 36 85  1  0
 39 86  1  0
 39 87  1  0
 39 88  1  0
 43 89  1  0
 44 90  1  0
 44 91  1  0
 44 92  1  0
 45 93  1  0
 45 94  1  0
 45 95  1  0
M  END
$$$$
