
     RDKit          3D

 56 59  0  0  0  0  0  0  0  0999 V2000
    3.2759    2.4041   -0.7247 C   0  0  0  0  0  0  0  0  0  0  0  0
    4.4479    1.7622   -0.0283 C   0  0  0  0  0  0  0  0  0  0  0  0
    5.3282    2.4412    0.4961 O   0  0  0  0  0  0  0  0  0  0  0  0
    4.5419    0.2744    0.0077 C   0  0  0  0  0  0  0  0  0  0  0  0
    5.4290   -0.3149    0.9188 C   0  0  0  0  0  0  0  0  0  0  0  0
    5.5192   -1.7041    1.0174 C   0  0  0  0  0  0  0  0  0  0  0  0
    4.7287   -2.5115    0.2013 C   0  0  0  0  0  0  0  0  0  0  0  0
    3.8676   -1.9304   -0.7282 C   0  0  0  0  0  0  0  0  0  0  0  0
    3.0080   -2.7613   -1.5090 N   0  0  0  0  0  0  0  0  0  0  0  0
    1.6168   -3.3518   -0.7281 S   0  0  0  0  0  6  0  0  0  0  0  0
    1.9728   -4.0182    0.5031 O   0  0  0  0  0  0  0  0  0  0  0  0
    0.8035   -3.9775   -1.7485 O   0  0  0  0  0  0  0  0  0  0  0  0
    0.6897   -1.9713   -0.2411 C   0  0  0  0  0  0  0  0  0  0  0  0
    0.8836   -1.2271    0.9471 C   0  0  0  0  0  0  0  0  0  0  0  0
    0.0529   -0.1190    0.8926 C   0  0  0  0  0  0  0  0  0  0  0  0
   -0.0170    0.9867    1.8053 C   0  0  0  0  0  0  0  0  0  0  0  0
   -0.1451    2.2263    1.3811 N   0  0  0  0  0  0  0  0  0  0  0  0
   -0.1708    3.0956    2.4604 C   0  0  0  0  0  0  0  0  0  0  0  0
   -0.3442    4.5465    2.1977 C   0  0  0  0  0  0  0  0  0  0  0  0
   -0.0329    2.4895    3.6939 C   0  0  0  0  0  0  0  0  0  0  0  0
    0.1337    0.7957    3.5028 S   0  0  0  0  0  0  0  0  0  0  0  0
   -0.7213   -0.2457   -0.2461 N   0  0  0  0  0  0  0  0  0  0  0  0
   -1.8227    0.6135   -0.6655 C   0  0  0  0  0  0  0  0  0  0  0  0
   -3.1186    0.2491    0.0399 C   0  0  0  0  0  0  0  0  0  0  0  0
   -3.2758    0.4774    1.2412 O   0  0  0  0  0  0  0  0  0  0  0  0
   -4.1176   -0.3437   -0.7057 N   0  0  0  0  0  0  0  0  0  0  0  0
   -5.3892   -0.6971   -0.0957 C   0  0  0  0  0  0  0  0  0  0  0  0
   -6.2944   -1.0229   -1.2737 C   0  0  0  0  0  0  0  0  0  0  0  0
   -5.3231   -1.5979   -2.2959 C   0  0  0  0  0  0  0  0  0  0  0  0
   -4.0764   -0.7450   -2.1037 C   0  0  0  0  0  0  0  0  0  0  0  0
   -0.3007   -1.3421   -0.9659 C   0  0  0  0  0  0  0  0  0  0  0  0
    3.7686   -0.5391   -0.8293 C   0  0  0  0  0  0  0  0  0  0  0  0
    3.4264    2.3797   -1.8073 H   0  0  0  0  0  0  0  0  0  0  0  0
    2.3412    1.9072   -0.4539 H   0  0  0  0  0  0  0  0  0  0  0  0
    3.1959    3.4471   -0.4032 H   0  0  0  0  0  0  0  0  0  0  0  0
    6.0427    0.3083    1.5688 H   0  0  0  0  0  0  0  0  0  0  0  0
    6.1973   -2.1563    1.7373 H   0  0  0  0  0  0  0  0  0  0  0  0
    4.7864   -3.5935    0.2961 H   0  0  0  0  0  0  0  0  0  0  0  0
    2.7477   -2.3914   -2.4219 H   0  0  0  0  0  0  0  0  0  0  0  0
    1.6065   -1.4427    1.7261 H   0  0  0  0  0  0  0  0  0  0  0  0
   -1.2830    4.7237    1.6634 H   0  0  0  0  0  0  0  0  0  0  0  0
   -0.3676    5.1227    3.1282 H   0  0  0  0  0  0  0  0  0  0  0  0
    0.4800    4.9227    1.5833 H   0  0  0  0  0  0  0  0  0  0  0  0
   -0.0223    2.9471    4.6724 H   0  0  0  0  0  0  0  0  0  0  0  0
   -1.9050    0.5413   -1.7529 H   0  0  0  0  0  0  0  0  0  0  0  0
   -1.5782    1.6567   -0.4566 H   0  0  0  0  0  0  0  0  0  0  0  0
   -5.7728    0.1211    0.5213 H   0  0  0  0  0  0  0  0  0  0  0  0
   -5.2251   -1.5759    0.5382 H   0  0  0  0  0  0  0  0  0  0  0  0
   -7.0989   -1.7142   -1.0097 H   0  0  0  0  0  0  0  0  0  0  0  0
   -6.7445   -0.1038   -1.6679 H   0  0  0  0  0  0  0  0  0  0  0  0
   -5.1037   -2.6436   -2.0491 H   0  0  0  0  0  0  0  0  0  0  0  0
   -5.7051   -1.5606   -3.3197 H   0  0  0  0  0  0  0  0  0  0  0  0
   -4.1133    0.1623   -2.7155 H   0  0  0  0  0  0  0  0  0  0  0  0
   -3.1609   -1.2972   -2.3287 H   0  0  0  0  0  0  0  0  0  0  0  0
   -0.7415   -1.5991   -1.9210 H   0  0  0  0  0  0  0  0  0  0  0  0
    3.0797   -0.1032   -1.5447 H   0  0  0  0  0  0  0  0  0  0  0  0
  1  2  1  0
  2  3  2  0
  2  4  1  0
  4  5  2  0
  5  6  1  0
  6  7  2  0
  7  8  1  0
  8  9  1  0
  9 10  1  0
 10 11  2  0
 10 12  2  0
 10 13  1  0
 13 14  1  0
 14 15  2  0
 15 16  1  0
 16 17  2  0
 17 18  1  0
 18 19  1  0
 18 20  2  0
 20 21  1  0
 15 22  1  0
 22 23  1  0
 23 24  1  0
 24 25  2  0
 24 26  1  0
 26 27  1  0
 27 28  1  0
 28 29  1  0
 29 30  1  0
 22 31  1  0
  8 32  2  0
 32  4  1  0
 31 13  2  0
 21 16  1  0
 30 26  1  0
  1 33  1  0
  1 34  1  0
  1 35  1  0
  5 36  1  0
  6 37  1  0
  7 38  1  0
  9 39  1  0
 14 40  1  0
 19 41  1  0
 19 42  1  0
 19 43  1  0
 20 44  1  0
 23 45  1  0
 23 46  1  0
 27 47  1  0
 27 48  1  0
 28 49  1  0
 28 50  1  0
 29 51  1  0
 29 52  1  0
 30 53  1  0
 30 54  1  0
 31 55  1  0
 32 56  1  0
M  END
$$$$
