
     RDKit          3D

 66 70  0  0  0  0  0  0  0  0999 V2000
    7.0539    1.9974   -0.3201 C   0  0  0  0  0  0  0  0  0  0  0  0
    5.5929    1.7095   -0.0924 C   0  0  0  0  0  0  0  0  0  0  0  0
    4.6556    2.7221   -0.3510 C   0  0  0  0  0  0  0  0  0  0  0  0
    3.2932    2.5094   -0.1265 C   0  0  0  0  0  0  0  0  0  0  0  0
    2.8459    1.2724    0.3520 C   0  0  0  0  0  0  0  0  0  0  0  0
    1.3998    1.0023    0.6055 C   0  0  0  0  0  0  0  0  0  0  0  0
    1.0994    0.2325    1.5080 O   0  0  0  0  0  0  0  0  0  0  0  0
    0.5265    1.6474   -0.2519 N   0  0  0  0  0  0  0  0  0  0  0  0
   -0.8826    1.6606   -0.1938 C   0  0  0  0  0  0  0  0  0  0  0  0
   -1.5511    2.3602   -1.1987 C   0  0  0  0  0  0  0  0  0  0  0  0
   -2.9437    2.4499   -1.1963 C   0  0  0  0  0  0  0  0  0  0  0  0
   -3.7128    1.8292   -0.1972 C   0  0  0  0  0  0  0  0  0  0  0  0
   -5.2267    2.0056   -0.2154 C   0  0  0  0  0  0  0  0  0  0  0  0
   -5.8166    1.8390   -1.5536 N   0  0  0  0  0  0  0  0  0  0  0  0
   -5.8276    0.4266   -1.9998 C   0  0  0  0  0  0  0  0  0  0  0  0
   -6.8841   -0.4775   -1.3156 C   0  0  0  0  0  0  0  0  0  0  0  0
   -8.2434    0.0915   -1.3858 N   0  0  0  0  0  0  0  0  0  0  0  0
   -9.1944   -0.7413   -0.6551 C   0  0  0  0  0  0  0  0  0  0  0  0
   -8.2465    1.4725   -0.8715 C   0  0  0  0  0  0  0  0  0  0  0  0
   -7.2023    2.3551   -1.5950 C   0  0  0  0  0  0  0  0  0  0  0  0
   -3.0440    1.1236    0.8281 C   0  0  0  0  0  0  0  0  0  0  0  0
   -3.7993    0.4475    1.9492 C   0  0  0  0  0  0  0  0  0  0  0  0
   -3.0054   -0.1362    2.8892 F   0  0  0  0  0  0  0  0  0  0  0  0
   -4.6233   -0.5413    1.4974 F   0  0  0  0  0  0  0  0  0  0  0  0
   -4.6000    1.3148    2.6335 F   0  0  0  0  0  0  0  0  0  0  0  0
   -1.6331    1.0482    0.8105 C   0  0  0  0  0  0  0  0  0  0  0  0
    3.7766    0.2698    0.6468 C   0  0  0  0  0  0  0  0  0  0  0  0
    5.1439    0.4856    0.4350 C   0  0  0  0  0  0  0  0  0  0  0  0
    6.0584   -0.5592    0.7888 C   0  0  0  0  0  0  0  0  0  0  0  0
    6.8196   -1.4311    1.1097 C   0  0  0  0  0  0  0  0  0  0  0  0
    7.7186   -2.4526    1.5155 C   0  0  0  0  0  0  0  0  0  0  0  0
    8.8565   -2.3323    2.2836 C   0  0  0  0  0  0  0  0  0  0  0  0
    9.4614   -3.5506    2.4784 N   0  0  0  0  0  0  0  0  0  0  0  0
    8.6987   -4.4132    1.8383 C   0  0  0  0  0  0  0  0  0  0  0  0
    8.8098   -5.8149    1.6924 C   0  0  0  0  0  0  0  0  0  0  0  0
    7.8885   -6.4758    0.9805 C   0  0  0  0  0  0  0  0  0  0  0  0
    6.7933   -5.6744    0.3807 C   0  0  0  0  0  0  0  0  0  0  0  0
    6.6362   -4.3924    0.4790 N   0  0  0  0  0  0  0  0  0  0  0  0
    7.6171   -3.7923    1.2255 N   0  0  0  0  0  0  0  0  0  0  0  0
    7.5184    2.3302    0.6121 H   0  0  0  0  0  0  0  0  0  0  0  0
    7.5833    1.1168   -0.6974 H   0  0  0  0  0  0  0  0  0  0  0  0
    7.1805    2.7819   -1.0728 H   0  0  0  0  0  0  0  0  0  0  0  0
    4.9872    3.6928   -0.7170 H   0  0  0  0  0  0  0  0  0  0  0  0
    2.6046    3.3310   -0.2993 H   0  0  0  0  0  0  0  0  0  0  0  0
    0.9329    2.1289   -1.0424 H   0  0  0  0  0  0  0  0  0  0  0  0
   -1.0040    2.8549   -1.9967 H   0  0  0  0  0  0  0  0  0  0  0  0
   -3.4374    3.0114   -1.9886 H   0  0  0  0  0  0  0  0  0  0  0  0
   -5.4002    3.0308    0.1370 H   0  0  0  0  0  0  0  0  0  0  0  0
   -5.7169    1.3495    0.5057 H   0  0  0  0  0  0  0  0  0  0  0  0
   -6.0230    0.4239   -3.0814 H   0  0  0  0  0  0  0  0  0  0  0  0
   -4.8359   -0.0259   -1.8853 H   0  0  0  0  0  0  0  0  0  0  0  0
   -6.5907   -0.6537   -0.2719 H   0  0  0  0  0  0  0  0  0  0  0  0
   -6.8752   -1.4527   -1.8209 H   0  0  0  0  0  0  0  0  0  0  0  0
   -9.2390   -1.7449   -1.0958 H   0  0  0  0  0  0  0  0  0  0  0  0
  -10.2052   -0.3229   -0.7245 H   0  0  0  0  0  0  0  0  0  0  0  0
   -8.9336   -0.8388    0.4059 H   0  0  0  0  0  0  0  0  0  0  0  0
   -9.2363    1.9178   -1.0298 H   0  0  0  0  0  0  0  0  0  0  0  0
   -8.0542    1.4840    0.2098 H   0  0  0  0  0  0  0  0  0  0  0  0
   -7.4957    2.4530   -2.6498 H   0  0  0  0  0  0  0  0  0  0  0  0
   -7.2384    3.3749   -1.1909 H   0  0  0  0  0  0  0  0  0  0  0  0
   -1.1373    0.5050    1.6112 H   0  0  0  0  0  0  0  0  0  0  0  0
    3.4339   -0.6829    1.0487 H   0  0  0  0  0  0  0  0  0  0  0  0
    9.2709   -1.4282    2.7117 H   0  0  0  0  0  0  0  0  0  0  0  0
    9.6415   -6.3234    2.1672 H   0  0  0  0  0  0  0  0  0  0  0  0
    7.9045   -7.5457    0.8281 H   0  0  0  0  0  0  0  0  0  0  0  0
    6.0563   -6.2554   -0.2005 H   0  0  0  0  0  0  0  0  0  0  0  0
  1  2  1  0
  2  3  2  0
  3  4  1  0
  4  5  2  0
  5  6  1  0
  6  7  2  0
  6  8  1  0
  8  9  1  0
  9 10  2  0
 10 11  1  0
 11 12  2  0
 12 13  1  0
 13 14  1  0
 14 15  1  0
 15 16  1  0
 16 17  1  0
 17 18  1  0
 17 19  1  0
 19 20  1  0
 12 21  1  0
 21 22  1  0
 22 23  1  0
 22 24  1  0
 22 25  1  0
 21 26  2  0
  5 27  1  0
 27 28  2  0
 28 29  1  0
 29 30  3  0
 30 31  1  0
 31 32  2  0
 32 33  1  0
 33 34  2  0
 34 35  1  0
 35 36  2  0
 36 37  1  0
 37 38  2  0
 38 39  1  0
 28  2  1  0
 39 31  1  0
 26  9  1  0
 39 34  1  0
 20 14  1  0
  1 40  1  0
  1 41  1  0
  1 42  1  0
  3 43  1  0
  4 44  1  0
  8 45  1  0
 10 46  1  0
 11 47  1  0
 13 48  1  0
 13 49  1  0
 15 50  1  0
 15 51  1  0
 16 52  1  0
 16 53  1  0
 18 54  1  0
 18 55  1  0
 18 56  1  0
 19 57  1  0
 19 58  1  0
 20 59  1  0
 20 60  1  0
 26 61  1  0
 27 62  1  0
 32 63  1  0
 35 64  1  0
 36 65  1  0
 37 66  1  0
M  END
$$$$
