
     RDKit          3D

 29 30  0  0  0  0  0  0  0  0999 V2000
    1.2961   -1.4288   -0.2658 O   0  0  0  0  0  0  0  0  0  0  0  0
    1.6852   -0.2797   -0.0838 C   0  0  0  0  0  0  0  0  0  0  0  0
    0.8814    0.8236    0.1919 N   0  0  0  0  0  0  0  0  0  0  0  0
   -0.4756    0.7740    0.3901 N   0  0  0  0  0  0  0  0  0  0  0  0
   -1.1637   -0.0512   -0.3396 C   0  0  0  0  0  0  0  0  0  0  0  0
   -2.6234   -0.2014   -0.1570 C   0  0  0  0  0  0  0  0  0  0  0  0
   -3.2971   -1.1085   -0.9831 C   0  0  0  0  0  0  0  0  0  0  0  0
   -4.6770   -1.2801   -0.8496 C   0  0  0  0  0  0  0  0  0  0  0  0
   -5.3839   -0.5488    0.1060 C   0  0  0  0  0  0  0  0  0  0  0  0
   -4.7143    0.3546    0.9323 C   0  0  0  0  0  0  0  0  0  0  0  0
   -3.3384    0.5264    0.8019 C   0  0  0  0  0  0  0  0  0  0  0  0
   -2.7504    1.4264    1.6483 O   0  0  0  0  0  0  0  0  0  0  0  0
    3.1477   -0.0052   -0.1102 C   0  0  0  0  0  0  0  0  0  0  0  0
    4.0215   -1.0346    0.2416 C   0  0  0  0  0  0  0  0  0  0  0  0
    5.3780   -0.7740    0.2106 C   0  0  0  0  0  0  0  0  0  0  0  0
    5.9013    0.4181   -0.1480 N   0  0  0  0  0  0  0  0  0  0  0  0
    5.0351    1.3896   -0.5050 C   0  0  0  0  0  0  0  0  0  0  0  0
    3.6606    1.2317   -0.5051 C   0  0  0  0  0  0  0  0  0  0  0  0
    1.3207    1.6187    0.6469 H   0  0  0  0  0  0  0  0  0  0  0  0
   -0.7123   -0.6551   -1.1454 H   0  0  0  0  0  0  0  0  0  0  0  0
   -2.7595   -1.6884   -1.7293 H   0  0  0  0  0  0  0  0  0  0  0  0
   -5.2019   -1.9858   -1.4893 H   0  0  0  0  0  0  0  0  0  0  0  0
   -6.4577   -0.6833    0.2104 H   0  0  0  0  0  0  0  0  0  0  0  0
   -5.2623    0.9232    1.6788 H   0  0  0  0  0  0  0  0  0  0  0  0
   -1.7881    1.4145    1.4537 H   0  0  0  0  0  0  0  0  0  0  0  0
    3.6543   -2.0133    0.5341 H   0  0  0  0  0  0  0  0  0  0  0  0
    6.1027   -1.5377    0.4794 H   0  0  0  0  0  0  0  0  0  0  0  0
    5.4936    2.3275   -0.8074 H   0  0  0  0  0  0  0  0  0  0  0  0
    3.0273    2.0474   -0.8334 H   0  0  0  0  0  0  0  0  0  0  0  0
  1  2  2  0
  2  3  1  0
  3  4  1  0
  4  5  2  0
  5  6  1  0
  6  7  2  0
  7  8  1  0
  8  9  2  0
  9 10  1  0
 10 11  2  0
 11 12  1  0
  2 13  1  0
 13 14  2  0
 14 15  1  0
 15 16  2  0
 16 17  1  0
 17 18  2  0
 11  6  1  0
 18 13  1  0
  3 19  1  0
  5 20  1  0
  7 21  1  0
  8 22  1  0
  9 23  1  0
 10 24  1  0
 12 25  1  0
 14 26  1  0
 15 27  1  0
 17 28  1  0
 18 29  1  0
M  END
$$$$
