
     RDKit          3D

 66 69  0  0  0  0  0  0  0  0999 V2000
   -0.7923    4.1462    2.8571 C   0  0  0  0  0  0  0  0  0  0  0  0
   -0.3448    4.9061    1.6088 C   0  0  0  0  0  0  0  0  0  0  0  0
    1.0763    5.4361    1.7984 C   0  0  0  0  0  0  0  0  0  0  0  0
   -0.5191    4.0904    0.3070 C   0  0  0  0  0  0  0  0  0  0  0  0
    0.2989    2.8789    0.2167 N   0  0  0  0  0  0  0  0  0  0  0  0
    1.5556    2.9717   -0.3828 C   0  0  0  0  0  0  0  0  0  0  0  0
    2.0188    4.0065   -0.8564 O   0  0  0  0  0  0  0  0  0  0  0  0
    2.3663    1.7298   -0.4575 C   0  0  0  0  0  0  0  0  0  0  0  0
    3.6494    1.7679   -1.0215 C   0  0  0  0  0  0  0  0  0  0  0  0
    4.4106    0.6015   -1.1006 C   0  0  0  0  0  0  0  0  0  0  0  0
    3.8857   -0.6011   -0.6147 C   0  0  0  0  0  0  0  0  0  0  0  0
    4.6695   -1.8598   -0.6690 C   0  0  0  0  0  0  0  0  0  0  0  0
    4.6540   -2.6277    0.2835 O   0  0  0  0  0  0  0  0  0  0  0  0
    5.3634   -2.0832   -1.8381 N   0  0  0  0  0  0  0  0  0  0  0  0
    6.2305   -3.2408   -2.0056 C   0  0  0  0  0  0  0  0  0  0  0  0
    7.6260   -2.9405   -1.4651 C   0  0  0  0  0  0  0  0  0  0  0  0
    6.2908   -3.6425   -3.4751 C   0  0  0  0  0  0  0  0  0  0  0  0
    2.6085   -0.6348   -0.0368 C   0  0  0  0  0  0  0  0  0  0  0  0
    1.8385    0.5311    0.0333 C   0  0  0  0  0  0  0  0  0  0  0  0
    0.5484    0.5649    0.5639 N   0  0  0  0  0  0  0  0  0  0  0  0
   -0.2399   -0.4603    1.0371 C   0  0  0  0  0  0  0  0  0  0  0  0
    0.0031   -1.6541    1.1200 O   0  0  0  0  0  0  0  0  0  0  0  0
   -1.4414    0.1561    1.4079 N   0  0  0  0  0  0  0  0  0  0  0  0
   -2.6522   -0.5519    1.7301 C   0  0  0  0  0  0  0  0  0  0  0  0
   -3.3726   -1.0113    0.4600 C   0  0  0  0  0  0  0  0  0  0  0  0
   -2.9862   -0.7706   -0.6809 O   0  0  0  0  0  0  0  0  0  0  0  0
   -4.5191   -1.7461    0.7196 N   0  0  0  0  0  0  0  0  0  0  0  0
   -5.3823   -2.1987   -0.3604 C   0  0  0  0  0  0  0  0  0  0  0  0
   -6.3068   -3.3229    0.0968 C   0  0  0  0  0  0  0  0  0  0  0  0
   -7.4803   -2.6195    0.7764 C   0  0  0  0  0  0  0  0  0  0  0  0
   -7.4813   -1.1824    0.2534 C   0  0  0  0  0  0  0  0  0  0  0  0
   -6.3682   -1.1141   -0.7882 C   0  0  0  0  0  0  0  0  0  0  0  0
   -1.4007    1.5019    1.1303 N   0  0  0  0  0  0  0  0  0  0  0  0
   -0.2076    1.6804    0.6407 C   0  0  0  0  0  0  0  0  0  0  0  0
   -1.8212    3.7888    2.7495 H   0  0  0  0  0  0  0  0  0  0  0  0
   -0.1445    3.2886    3.0648 H   0  0  0  0  0  0  0  0  0  0  0  0
   -0.7632    4.8016    3.7346 H   0  0  0  0  0  0  0  0  0  0  0  0
   -1.0030    5.7807    1.5154 H   0  0  0  0  0  0  0  0  0  0  0  0
    1.7919    4.6252    1.9685 H   0  0  0  0  0  0  0  0  0  0  0  0
    1.4006    6.0082    0.9233 H   0  0  0  0  0  0  0  0  0  0  0  0
    1.1240    6.1048    2.6650 H   0  0  0  0  0  0  0  0  0  0  0  0
   -0.2850    4.7381   -0.5470 H   0  0  0  0  0  0  0  0  0  0  0  0
   -1.5757    3.8163    0.1993 H   0  0  0  0  0  0  0  0  0  0  0  0
    4.0583    2.7060   -1.3936 H   0  0  0  0  0  0  0  0  0  0  0  0
    5.4153    0.6481   -1.5128 H   0  0  0  0  0  0  0  0  0  0  0  0
    5.3460   -1.3887   -2.5739 H   0  0  0  0  0  0  0  0  0  0  0  0
    5.8073   -4.0740   -1.4322 H   0  0  0  0  0  0  0  0  0  0  0  0
    8.2862   -3.8050   -1.5856 H   0  0  0  0  0  0  0  0  0  0  0  0
    8.0779   -2.0881   -1.9856 H   0  0  0  0  0  0  0  0  0  0  0  0
    7.5873   -2.6907   -0.3991 H   0  0  0  0  0  0  0  0  0  0  0  0
    5.2894   -3.8765   -3.8521 H   0  0  0  0  0  0  0  0  0  0  0  0
    6.9204   -4.5275   -3.6136 H   0  0  0  0  0  0  0  0  0  0  0  0
    6.6941   -2.8339   -4.0938 H   0  0  0  0  0  0  0  0  0  0  0  0
    2.2376   -1.5848    0.3435 H   0  0  0  0  0  0  0  0  0  0  0  0
   -2.3978   -1.4350    2.3255 H   0  0  0  0  0  0  0  0  0  0  0  0
   -3.3076    0.1078    2.3071 H   0  0  0  0  0  0  0  0  0  0  0  0
   -4.8797   -1.7665    1.6654 H   0  0  0  0  0  0  0  0  0  0  0  0
   -4.7536   -2.5158   -1.1989 H   0  0  0  0  0  0  0  0  0  0  0  0
   -5.8192   -4.0423    0.7612 H   0  0  0  0  0  0  0  0  0  0  0  0
   -6.6774   -3.8716   -0.7767 H   0  0  0  0  0  0  0  0  0  0  0  0
   -8.4237   -3.1298    0.5564 H   0  0  0  0  0  0  0  0  0  0  0  0
   -7.3553   -2.6236    1.8657 H   0  0  0  0  0  0  0  0  0  0  0  0
   -7.2742   -0.4882    1.0759 H   0  0  0  0  0  0  0  0  0  0  0  0
   -8.4497   -0.9031   -0.1742 H   0  0  0  0  0  0  0  0  0  0  0  0
   -6.7797   -1.3605   -1.7746 H   0  0  0  0  0  0  0  0  0  0  0  0
   -5.9251   -0.1158   -0.8482 H   0  0  0  0  0  0  0  0  0  0  0  0
  1  2  1  0
  2  3  1  0
  2  4  1  0
  4  5  1  0
  5  6  1  0
  6  7  2  0
  6  8  1  0
  8  9  2  0
  9 10  1  0
 10 11  2  0
 11 12  1  0
 12 13  2  0
 12 14  1  0
 14 15  1  0
 15 16  1  0
 15 17  1  0
 11 18  1  0
 18 19  2  0
 19 20  1  0
 20 21  1  0
 21 22  2  0
 21 23  1  0
 23 24  1  0
 24 25  1  0
 25 26  2  0
 25 27  1  0
 27 28  1  0
 28 29  1  0
 29 30  1  0
 30 31  1  0
 31 32  1  0
 23 33  1  0
 33 34  2  0
 34  5  1  0
 19  8  1  0
 34 20  1  0
 32 28  1  0
  1 35  1  0
  1 36  1  0
  1 37  1  0
  2 38  1  0
  3 39  1  0
  3 40  1  0
  3 41  1  0
  4 42  1  0
  4 43  1  0
  9 44  1  0
 10 45  1  0
 14 46  1  0
 15 47  1  0
 16 48  1  0
 16 49  1  0
 16 50  1  0
 17 51  1  0
 17 52  1  0
 17 53  1  0
 18 54  1  0
 24 55  1  0
 24 56  1  0
 27 57  1  0
 28 58  1  0
 29 59  1  0
 29 60  1  0
 30 61  1  0
 30 62  1  0
 31 63  1  0
 31 64  1  0
 32 65  1  0
 32 66  1  0
M  END
$$$$
