
     RDKit          3D

 40 38  0  0  0  0  0  0  0  0999 V2000
    0.7684    0.0000    0.0000 Br  0  0  0  0  0  0  0  0  0  0  0  0
    0.7686    0.0000    0.0000 Br  0  0  0  0  0  0  0  0  0  0  0  0
    4.7472    1.1509    1.9836 N   0  0  0  0  0  0  0  0  0  0  0  0
    4.4981    0.7121    0.8137 C   0  0  0  0  0  0  0  0  0  0  0  0
    4.7848    1.5080   -0.3176 N   0  0  0  0  0  0  0  0  0  0  0  0
    3.7889   -0.9035    0.6093 S   0  0  0  0  0  0  0  0  0  0  0  0
    3.5456   -1.2279   -1.1419 C   0  0  0  0  0  0  0  0  0  0  0  0
    2.4848   -0.2984   -1.7239 C   0  0  0  0  0  0  0  0  0  0  0  0
    1.2315   -0.5938   -0.9457 C   0  0  0  0  0  0  0  0  0  0  0  0
    0.9045    0.0778    0.2123 C   0  0  0  0  0  0  0  0  0  0  0  0
   -0.2527   -0.2127    0.9084 C   0  0  0  0  0  0  0  0  0  0  0  0
   -1.1282   -1.1844    0.4760 C   0  0  0  0  0  0  0  0  0  0  0  0
   -2.3624   -1.5003    1.2083 C   0  0  0  0  0  0  0  0  0  0  0  0
   -3.4641   -0.6144    0.6621 C   0  0  0  0  0  0  0  0  0  0  0  0
   -3.0762    1.1369    0.8760 S   0  0  0  0  0  0  0  0  0  0  0  0
   -4.4027    2.1032    0.2128 C   0  0  0  0  0  0  0  0  0  0  0  0
   -4.3578    3.3833    0.2519 N   0  0  0  0  0  0  0  0  0  0  0  0
   -5.5216    1.4694   -0.3645 N   0  0  0  0  0  0  0  0  0  0  0  0
   -0.8078   -1.8599   -0.6808 C   0  0  0  0  0  0  0  0  0  0  0  0
    0.3476   -1.5723   -1.3789 C   0  0  0  0  0  0  0  0  0  0  0  0
   -0.7684    0.0000    0.0000 H   0  0  0  0  0  0  0  0  0  0  0  0
   -0.7686    0.0000    0.0000 H   0  0  0  0  0  0  0  0  0  0  0  0
    4.5616    0.6184    2.8639 H   0  0  0  0  0  0  0  0  0  0  0  0
    4.7085    2.5584   -0.3336 H   0  0  0  0  0  0  0  0  0  0  0  0
    5.1031    1.1027   -1.2486 H   0  0  0  0  0  0  0  0  0  0  0  0
    3.2835   -2.2861   -1.3015 H   0  0  0  0  0  0  0  0  0  0  0  0
    4.4706   -1.0449   -1.7359 H   0  0  0  0  0  0  0  0  0  0  0  0
    2.3443   -0.4547   -2.7936 H   0  0  0  0  0  0  0  0  0  0  0  0
    2.7463    0.7417   -1.4797 H   0  0  0  0  0  0  0  0  0  0  0  0
    1.6051    0.8452    0.5453 H   0  0  0  0  0  0  0  0  0  0  0  0
   -0.4661    0.3418    1.8122 H   0  0  0  0  0  0  0  0  0  0  0  0
   -2.6112   -2.5563    1.0070 H   0  0  0  0  0  0  0  0  0  0  0  0
   -2.2637   -1.3630    2.3056 H   0  0  0  0  0  0  0  0  0  0  0  0
   -4.3930   -0.8815    1.2141 H   0  0  0  0  0  0  0  0  0  0  0  0
   -3.6305   -0.8063   -0.3990 H   0  0  0  0  0  0  0  0  0  0  0  0
   -3.5922    3.9556    0.6490 H   0  0  0  0  0  0  0  0  0  0  0  0
   -6.0349    1.8126   -1.1936 H   0  0  0  0  0  0  0  0  0  0  0  0
   -5.8827    0.5727    0.0653 H   0  0  0  0  0  0  0  0  0  0  0  0
   -1.5083   -2.6246   -1.0103 H   0  0  0  0  0  0  0  0  0  0  0  0
    0.5998   -2.1054   -2.2910 H   0  0  0  0  0  0  0  0  0  0  0  0
  3  4  2  3
  4  5  1  0
  4  6  1  0
  6  7  1  0
  7  8  1  0
  8  9  1  0
  9 10  2  0
 10 11  1  0
 11 12  2  0
 12 13  1  0
 13 14  1  0
 14 15  1  0
 15 16  1  0
 16 17  2  3
 16 18  1  0
 12 19  1  0
 19 20  2  0
 20  9  1  0
  1 21  1  0
  2 22  1  0
  3 23  1  0
  5 24  1  0
  5 25  1  0
  7 26  1  0
  7 27  1  0
  8 28  1  0
  8 29  1  0
 10 30  1  0
 11 31  1  0
 13 32  1  0
 13 33  1  0
 14 34  1  0
 14 35  1  0
 17 36  1  0
 18 37  1  0
 18 38  1  0
 19 39  1  0
 20 40  1  0
M  END
$$$$
