
     RDKit          3D

 45 48  0  0  0  0  0  0  0  0999 V2000
   -6.0942    3.1302    1.3403 C   0  0  0  0  0  0  0  0  0  0  0  0
   -5.4468    3.0289    0.0846 O   0  0  0  0  0  0  0  0  0  0  0  0
   -4.4612    2.0889   -0.0379 C   0  0  0  0  0  0  0  0  0  0  0  0
   -3.8462    2.0581   -1.2912 C   0  0  0  0  0  0  0  0  0  0  0  0
   -2.8368    1.1348   -1.5722 C   0  0  0  0  0  0  0  0  0  0  0  0
   -2.4230    0.2336   -0.5948 C   0  0  0  0  0  0  0  0  0  0  0  0
   -1.4315   -0.7494   -0.8077 N   0  0  0  0  0  0  0  0  0  0  0  0
   -0.7634   -1.0552   -1.9765 C   0  0  0  0  0  0  0  0  0  0  0  0
   -0.8290   -0.4439   -3.0422 O   0  0  0  0  0  0  0  0  0  0  0  0
    0.1888   -2.2401   -1.8163 C   0  0  0  0  0  0  0  0  0  0  0  0
    1.5003   -1.7606   -1.3896 N   0  0  0  0  0  0  0  0  0  0  0  0
    2.4438   -1.4274   -2.3435 C   0  0  0  0  0  0  0  0  0  0  0  0
    3.6488   -0.9645   -1.9909 C   0  0  0  0  0  0  0  0  0  0  0  0
    3.9877   -0.7965   -0.5898 C   0  0  0  0  0  0  0  0  0  0  0  0
    3.0698   -1.0859    0.3509 C   0  0  0  0  0  0  0  0  0  0  0  0
    3.4872   -0.8785    1.7611 C   0  0  0  0  0  0  0  0  0  0  0  0
    4.6516   -0.4565    2.1627 N   0  0  0  0  0  0  0  0  0  0  0  0
    5.5553   -0.1827    1.1753 C   0  0  0  0  0  0  0  0  0  0  0  0
    6.8539    0.2663    1.2305 C   0  0  0  0  0  0  0  0  0  0  0  0
    7.2656    0.3624   -0.1010 C   0  0  0  0  0  0  0  0  0  0  0  0
    6.3149    0.0018   -0.9629 N   0  0  0  0  0  0  0  0  0  0  0  0
    5.2513   -0.3374   -0.1843 N   0  0  0  0  0  0  0  0  0  0  0  0
    1.7248   -1.5880   -0.0261 C   0  0  0  0  0  0  0  0  0  0  0  0
    0.8801   -1.8299    0.8281 O   0  0  0  0  0  0  0  0  0  0  0  0
   -3.0248    0.2733    0.6807 C   0  0  0  0  0  0  0  0  0  0  0  0
   -2.5425   -0.6508    1.5735 O   0  0  0  0  0  0  0  0  0  0  0  0
   -3.1342   -0.6787    2.8701 C   0  0  0  0  0  0  0  0  0  0  0  0
   -4.0453    1.1967    0.9525 C   0  0  0  0  0  0  0  0  0  0  0  0
   -6.8509    3.9160    1.2567 H   0  0  0  0  0  0  0  0  0  0  0  0
   -5.3881    3.4258    2.1246 H   0  0  0  0  0  0  0  0  0  0  0  0
   -6.6058    2.1974    1.6050 H   0  0  0  0  0  0  0  0  0  0  0  0
   -4.1616    2.7551   -2.0649 H   0  0  0  0  0  0  0  0  0  0  0  0
   -2.3953    1.1497   -2.5607 H   0  0  0  0  0  0  0  0  0  0  0  0
   -1.1778   -1.2684    0.0320 H   0  0  0  0  0  0  0  0  0  0  0  0
    0.2620   -2.7801   -2.7680 H   0  0  0  0  0  0  0  0  0  0  0  0
   -0.2129   -2.9452   -1.0786 H   0  0  0  0  0  0  0  0  0  0  0  0
    2.1665   -1.5496   -3.3886 H   0  0  0  0  0  0  0  0  0  0  0  0
    4.3860   -0.7022   -2.7468 H   0  0  0  0  0  0  0  0  0  0  0  0
    2.7242   -1.1098    2.5233 H   0  0  0  0  0  0  0  0  0  0  0  0
    7.4139    0.4922    2.1225 H   0  0  0  0  0  0  0  0  0  0  0  0
    8.2262    0.6823   -0.4833 H   0  0  0  0  0  0  0  0  0  0  0  0
   -4.1975   -0.9353    2.8121 H   0  0  0  0  0  0  0  0  0  0  0  0
   -2.6342   -1.4621    3.4448 H   0  0  0  0  0  0  0  0  0  0  0  0
   -2.9833    0.2688    3.3987 H   0  0  0  0  0  0  0  0  0  0  0  0
   -4.5167    1.2165    1.9243 H   0  0  0  0  0  0  0  0  0  0  0  0
  1  2  1  0
  2  3  1  0
  3  4  2  0
  4  5  1  0
  5  6  2  0
  6  7  1  0
  7  8  1  0
  8  9  2  0
  8 10  1  0
 10 11  1  0
 11 12  1  0
 12 13  2  0
 13 14  1  0
 14 15  2  0
 15 16  1  0
 16 17  2  0
 17 18  1  0
 18 19  2  0
 19 20  1  0
 20 21  2  0
 21 22  1  0
 15 23  1  0
 23 24  2  0
  6 25  1  0
 25 26  1  0
 26 27  1  0
 25 28  2  0
 28  3  1  0
 23 11  1  0
 22 14  1  0
 22 18  1  0
  1 29  1  0
  1 30  1  0
  1 31  1  0
  4 32  1  0
  5 33  1  0
  7 34  1  0
 10 35  1  0
 10 36  1  0
 12 37  1  0
 13 38  1  0
 16 39  1  0
 19 40  1  0
 20 41  1  0
 27 42  1  0
 27 43  1  0
 27 44  1  0
 28 45  1  0
M  END
$$$$
