
     RDKit          3D

  8  4  0  0  0  0  0  0  0  0999 V2000
   -0.1358   -0.1352    1.7737 O   0  0  0  0  0  0  0  0  0  0  0  0
   -0.0014    0.0062    0.0373 V   0  0  0  0  0  5  0  0  0  0  0  0
    1.6198   -0.9231   -0.5725 O   0  0  0  0  0  1  0  0  0  0  0  0
    0.1067    1.8950   -0.4823 O   0  0  0  0  0  1  0  0  0  0  0  0
   -1.5893   -0.8430   -0.7562 O   0  0  0  0  0  1  0  0  0  0  0  0
    0.0000    0.0000    0.0000 Na  0  0  0  0  0 15  0  0  0  0  0  0
    0.0000    0.0000    0.0000 Na  0  0  0  0  0 15  0  0  0  0  0  0
    0.0000    0.0000    0.0000 Na  0  0  0  0  0 15  0  0  0  0  0  0
  1  2  2  0
  2  3  1  0
  2  4  1  0
  2  5  1  0
M  CHG  6   3  -1   4  -1   5  -1   6   1   7   1   8   1
M  RAD  1   2   2
M  END
$$$$
