
     RDKit          3D

 30 32  0  0  0  0  0  0  0  0999 V2000
    4.3380   -1.3628    1.2788 C   0  0  0  0  0  0  0  0  0  0  0  0
    4.1737   -0.1058    0.5794 N   0  0  0  0  0  0  0  0  0  0  0  0
    2.9408    0.4028    0.3616 C   0  0  0  0  0  0  0  0  0  0  0  0
    1.8586   -0.4070    0.5611 O   0  0  0  0  0  0  0  0  0  0  0  0
    0.7670    0.3726    0.2568 C   0  0  0  0  0  0  0  0  0  0  0  0
   -0.5438   -0.2760    0.4012 C   0  0  0  0  0  0  0  0  0  0  0  0
   -0.6542   -1.3533    1.3054 C   0  0  0  0  0  0  0  0  0  0  0  0
   -1.8650   -2.0055    1.5106 C   0  0  0  0  0  0  0  0  0  0  0  0
   -2.9939   -1.5931    0.8142 C   0  0  0  0  0  0  0  0  0  0  0  0
   -2.9304   -0.5305   -0.0972 C   0  0  0  0  0  0  0  0  0  0  0  0
   -4.0937   -0.1475   -0.7863 C   0  0  0  0  0  0  0  0  0  0  0  0
   -4.0749    0.8965   -1.7072 C   0  0  0  0  0  0  0  0  0  0  0  0
   -2.8888    1.5703   -1.9530 C   0  0  0  0  0  0  0  0  0  0  0  0
   -1.7236    1.2013   -1.2746 C   0  0  0  0  0  0  0  0  0  0  0  0
   -1.7018    0.1487   -0.3233 C   0  0  0  0  0  0  0  0  0  0  0  0
    1.0786    1.6027   -0.1093 N   0  0  0  0  0  0  0  0  0  0  0  0
    2.4527    1.6233   -0.0498 C   0  0  0  0  0  0  0  0  0  0  0  0
    3.2060    2.7864   -0.3796 C   0  0  0  0  0  0  0  0  0  0  0  0
    3.8453    3.7221   -0.6370 N   0  0  0  0  0  0  0  0  0  0  0  0
    3.7921   -2.1716    0.7816 H   0  0  0  0  0  0  0  0  0  0  0  0
    3.9951   -1.2801    2.3153 H   0  0  0  0  0  0  0  0  0  0  0  0
    5.3973   -1.6377    1.2928 H   0  0  0  0  0  0  0  0  0  0  0  0
    4.9743    0.5206    0.6312 H   0  0  0  0  0  0  0  0  0  0  0  0
    0.2134   -1.6894    1.8710 H   0  0  0  0  0  0  0  0  0  0  0  0
   -1.9291   -2.8313    2.2144 H   0  0  0  0  0  0  0  0  0  0  0  0
   -3.9334   -2.1143    0.9886 H   0  0  0  0  0  0  0  0  0  0  0  0
   -5.0341   -0.6663   -0.6103 H   0  0  0  0  0  0  0  0  0  0  0  0
   -4.9837    1.1796   -2.2312 H   0  0  0  0  0  0  0  0  0  0  0  0
   -2.8611    2.3853   -2.6717 H   0  0  0  0  0  0  0  0  0  0  0  0
   -0.8213    1.7601   -1.5105 H   0  0  0  0  0  0  0  0  0  0  0  0
  1  2  1  0
  2  3  1  0
  3  4  1  0
  4  5  1  0
  5  6  1  0
  6  7  2  0
  7  8  1  0
  8  9  2  0
  9 10  1  0
 10 11  2  0
 11 12  1  0
 12 13  2  0
 13 14  1  0
 14 15  2  0
  5 16  2  0
 16 17  1  0
 17 18  1  0
 18 19  3  0
 17  3  2  0
 15  6  1  0
 15 10  1  0
  1 20  1  0
  1 21  1  0
  1 22  1  0
  2 23  1  0
  7 24  1  0
  8 25  1  0
  9 26  1  0
 11 27  1  0
 12 28  1  0
 13 29  1  0
 14 30  1  0
M  END
$$$$
