
     RDKit          3D

 49 49  0  0  0  0  0  0  0  0999 V2000
    5.4695   -2.6382    0.6199 C   0  0  0  0  0  0  0  0  0  0  0  0
    4.8265   -1.7086   -0.2027 O   0  0  0  0  0  0  0  0  0  0  0  0
    3.5749   -1.1676   -0.0122 C   0  0  0  0  0  0  0  0  0  0  0  0
    2.8264   -1.5198    1.0643 C   0  0  0  0  0  0  0  0  0  0  0  0
    1.5744   -0.9783    1.2605 C   0  0  0  0  0  0  0  0  0  0  0  0
    1.0003   -0.0592    0.3980 C   0  0  0  0  0  0  0  0  0  0  0  0
   -0.3259    0.5577    0.6252 C   0  0  0  0  0  0  0  0  0  0  0  0
   -0.3063    2.0235    0.6346 C   0  0  0  0  0  0  0  0  0  0  0  0
    0.1120    2.7544   -0.4944 N   0  0  0  0  0  0  0  0  0  0  0  0
   -0.7205    2.7737   -1.6477 C   0  0  0  0  0  0  0  0  0  0  0  0
    0.4326    4.1160   -0.1229 C   0  0  0  0  0  0  0  0  0  0  0  0
   -1.3666   -0.1631   -0.1582 C   0  0  0  0  0  0  0  0  0  0  0  0
   -1.1227   -0.1569   -1.5310 O   0  0  0  0  0  0  0  0  0  0  0  0
   -1.2987   -1.6228    0.2482 C   0  0  0  0  0  0  0  0  0  0  0  0
   -2.3838   -2.4649   -0.3434 C   0  0  0  0  0  0  0  0  0  0  0  0
   -3.7597   -1.8795   -0.2247 C   0  0  0  0  0  0  0  0  0  0  0  0
   -3.6461   -0.7302    0.7785 C   0  0  0  0  0  0  0  0  0  0  0  0
   -2.7687    0.3035    0.1066 C   0  0  0  0  0  0  0  0  0  0  0  0
    1.7828    0.2809   -0.6898 C   0  0  0  0  0  0  0  0  0  0  0  0
    3.0395   -0.2526   -0.8996 C   0  0  0  0  0  0  0  0  0  0  0  0
    0.6867    0.0000    0.0000 Cl  0  0  0  0  0  0  0  0  0  0  0  0
    6.5702   -2.4030    0.6685 H   0  0  0  0  0  0  0  0  0  0  0  0
    5.3498   -3.6707    0.2017 H   0  0  0  0  0  0  0  0  0  0  0  0
    5.1402   -2.6005    1.6718 H   0  0  0  0  0  0  0  0  0  0  0  0
    3.1854   -2.2376    1.7982 H   0  0  0  0  0  0  0  0  0  0  0  0
    1.0202   -1.2981    2.1407 H   0  0  0  0  0  0  0  0  0  0  0  0
   -0.5720    0.2729    1.7177 H   0  0  0  0  0  0  0  0  0  0  0  0
   -1.2519    2.4306    1.0833 H   0  0  0  0  0  0  0  0  0  0  0  0
    0.4457    2.2935    1.4537 H   0  0  0  0  0  0  0  0  0  0  0  0
   -1.7668    2.4950   -1.4407 H   0  0  0  0  0  0  0  0  0  0  0  0
   -0.2803    2.2398   -2.5214 H   0  0  0  0  0  0  0  0  0  0  0  0
   -0.8132    3.8392   -2.0392 H   0  0  0  0  0  0  0  0  0  0  0  0
    0.2499    4.8209   -0.9633 H   0  0  0  0  0  0  0  0  0  0  0  0
   -0.2934    4.4402    0.6723 H   0  0  0  0  0  0  0  0  0  0  0  0
    1.4355    4.2228    0.3085 H   0  0  0  0  0  0  0  0  0  0  0  0
   -1.9095    0.1339   -2.0589 H   0  0  0  0  0  0  0  0  0  0  0  0
   -1.1825   -1.7491    1.3351 H   0  0  0  0  0  0  0  0  0  0  0  0
   -0.3343   -2.0001   -0.1921 H   0  0  0  0  0  0  0  0  0  0  0  0
   -2.1227   -2.7674   -1.3630 H   0  0  0  0  0  0  0  0  0  0  0  0
   -2.4034   -3.4089    0.2788 H   0  0  0  0  0  0  0  0  0  0  0  0
   -4.0148   -1.3773   -1.1943 H   0  0  0  0  0  0  0  0  0  0  0  0
   -4.5395   -2.5931    0.0585 H   0  0  0  0  0  0  0  0  0  0  0  0
   -3.2291   -1.0403    1.7407 H   0  0  0  0  0  0  0  0  0  0  0  0
   -4.6312   -0.2735    0.9767 H   0  0  0  0  0  0  0  0  0  0  0  0
   -3.2633    0.5438   -0.8632 H   0  0  0  0  0  0  0  0  0  0  0  0
   -2.8338    1.2136    0.7260 H   0  0  0  0  0  0  0  0  0  0  0  0
    1.4588    0.9781   -1.4350 H   0  0  0  0  0  0  0  0  0  0  0  0
    3.6460    0.0273   -1.7586 H   0  0  0  0  0  0  0  0  0  0  0  0
   -0.6867    0.0000    0.0000 H   0  0  0  0  0  0  0  0  0  0  0  0
  1  2  1  0
  2  3  1  0
  3  4  2  0
  4  5  1  0
  5  6  2  0
  6  7  1  0
  7  8  1  0
  8  9  1  0
  9 10  1  0
  9 11  1  0
  7 12  1  0
 12 13  1  0
 12 14  1  0
 14 15  1  0
 15 16  1  0
 16 17  1  0
 17 18  1  0
  6 19  1  0
 19 20  2  0
 20  3  1  0
 18 12  1  0
  1 22  1  0
  1 23  1  0
  1 24  1  0
  4 25  1  0
  5 26  1  0
  7 27  1  0
  8 28  1  0
  8 29  1  0
 10 30  1  0
 10 31  1  0
 10 32  1  0
 11 33  1  0
 11 34  1  0
 11 35  1  0
 13 36  1  0
 14 37  1  0
 14 38  1  0
 15 39  1  0
 15 40  1  0
 16 41  1  0
 16 42  1  0
 17 43  1  0
 17 44  1  0
 18 45  1  0
 18 46  1  0
 19 47  1  0
 20 48  1  0
 21 49  1  0
M  END
$$$$
