
     RDKit          3D

 71 73  0  0  0  0  0  0  0  0999 V2000
   -2.5097    4.7651    2.2927 C   0  0  0  0  0  0  0  0  0  0  0  0
   -3.5532    3.8385    1.9794 O   0  0  0  0  0  0  0  0  0  0  0  0
   -3.5734    3.6156    0.6258 C   0  0  0  0  0  0  0  0  0  0  0  0
   -4.3476    4.4473   -0.1837 C   0  0  0  0  0  0  0  0  0  0  0  0
   -4.3894    4.2271   -1.5606 C   0  0  0  0  0  0  0  0  0  0  0  0
   -3.6604    3.1775   -2.1218 C   0  0  0  0  0  0  0  0  0  0  0  0
   -2.9031    2.3314   -1.3071 C   0  0  0  0  0  0  0  0  0  0  0  0
   -2.8822    2.5304    0.0770 C   0  0  0  0  0  0  0  0  0  0  0  0
   -2.1541    1.7361    0.9359 O   0  0  0  0  0  0  0  0  0  0  0  0
   -2.2092    0.3814    0.7690 C   0  0  0  0  0  0  0  0  0  0  0  0
   -1.0590   -0.3752    0.8543 C   0  0  0  0  0  0  0  0  0  0  0  0
    0.2440    0.1292    1.1018 N   0  0  0  0  0  0  0  0  0  0  0  0
    0.8141    1.2771    0.0087 S   0  0  0  0  0  6  0  0  0  0  0  0
    0.7123    2.5896    0.6107 O   0  0  0  0  0  0  0  0  0  0  0  0
    0.2740    0.9965   -1.3057 O   0  0  0  0  0  0  0  0  0  0  0  0
    2.5402    0.8461   -0.0310 C   0  0  0  0  0  0  0  0  0  0  0  0
    3.3977    1.3542    0.9420 C   0  0  0  0  0  0  0  0  0  0  0  0
    4.7518    1.0099    0.9098 C   0  0  0  0  0  0  0  0  0  0  0  0
    5.2764    0.1641   -0.0905 C   0  0  0  0  0  0  0  0  0  0  0  0
    6.7757   -0.1887   -0.0922 C   0  0  0  0  0  0  0  0  0  0  0  0
    7.1977   -1.1206   -1.2512 C   0  0  0  0  0  0  0  0  0  0  0  0
    7.6133    1.1027   -0.2185 C   0  0  0  0  0  0  0  0  0  0  0  0
    7.1423   -0.9055    1.2250 C   0  0  0  0  0  0  0  0  0  0  0  0
    4.3843   -0.3207   -1.0640 C   0  0  0  0  0  0  0  0  0  0  0  0
    3.0271    0.0170   -1.0402 C   0  0  0  0  0  0  0  0  0  0  0  0
   -1.0117   -1.7142    0.7962 N   0  0  0  0  0  0  0  0  0  0  0  0
   -2.1872   -2.3457    0.6045 C   0  0  0  0  0  0  0  0  0  0  0  0
   -2.1853   -3.8325    0.4893 C   0  0  0  0  0  0  0  0  0  0  0  0
   -1.0182   -4.4960    0.6695 N   0  0  0  0  0  0  0  0  0  0  0  0
   -1.0621   -5.8366    0.5565 C   0  0  0  0  0  0  0  0  0  0  0  0
   -2.2092   -6.5392    0.2727 C   0  0  0  0  0  0  0  0  0  0  0  0
   -3.3427   -5.7825    0.1031 C   0  0  0  0  0  0  0  0  0  0  0  0
   -3.3615   -4.4416    0.2061 N   0  0  0  0  0  0  0  0  0  0  0  0
   -3.3765   -1.7077    0.5123 N   0  0  0  0  0  0  0  0  0  0  0  0
   -3.3638   -0.3661    0.6319 C   0  0  0  0  0  0  0  0  0  0  0  0
   -4.5717    0.2950    0.6336 O   0  0  0  0  0  0  0  0  0  0  0  0
   -5.7540   -0.5126    0.6439 C   0  0  0  0  0  0  0  0  0  0  0  0
   -6.1267   -0.9853   -0.7636 C   0  0  0  0  0  0  0  0  0  0  0  0
   -5.6792   -2.3153   -1.0190 O   0  0  0  0  0  0  0  0  0  0  0  0
    0.0006    0.3978    0.0000 O   0  0  0  0  0  0  0  0  0  0  0  0
   -2.7675    5.7691    1.9358 H   0  0  0  0  0  0  0  0  0  0  0  0
   -1.5427    4.4509    1.8824 H   0  0  0  0  0  0  0  0  0  0  0  0
   -2.4160    4.8064    3.3824 H   0  0  0  0  0  0  0  0  0  0  0  0
   -4.9147    5.2615    0.2572 H   0  0  0  0  0  0  0  0  0  0  0  0
   -4.9840    4.8771   -2.1969 H   0  0  0  0  0  0  0  0  0  0  0  0
   -3.6809    3.0150   -3.1967 H   0  0  0  0  0  0  0  0  0  0  0  0
   -2.3335    1.5278   -1.7659 H   0  0  0  0  0  0  0  0  0  0  0  0
    0.8837   -0.6561    1.2210 H   0  0  0  0  0  0  0  0  0  0  0  0
    3.0262    2.0141    1.7233 H   0  0  0  0  0  0  0  0  0  0  0  0
    5.4006    1.4189    1.6825 H   0  0  0  0  0  0  0  0  0  0  0  0
    7.0085   -0.6621   -2.2293 H   0  0  0  0  0  0  0  0  0  0  0  0
    8.2701   -1.3462   -1.2046 H   0  0  0  0  0  0  0  0  0  0  0  0
    6.6658   -2.0787   -1.2134 H   0  0  0  0  0  0  0  0  0  0  0  0
    7.4706    1.7745    0.6347 H   0  0  0  0  0  0  0  0  0  0  0  0
    7.3458    1.6590   -1.1248 H   0  0  0  0  0  0  0  0  0  0  0  0
    8.6837    0.8747   -0.2718 H   0  0  0  0  0  0  0  0  0  0  0  0
    8.1993   -1.1957    1.2359 H   0  0  0  0  0  0  0  0  0  0  0  0
    6.5453   -1.8159    1.3581 H   0  0  0  0  0  0  0  0  0  0  0  0
    6.9763   -0.2716    2.1030 H   0  0  0  0  0  0  0  0  0  0  0  0
    4.7216   -0.9685   -1.8696 H   0  0  0  0  0  0  0  0  0  0  0  0
    2.3668   -0.3708   -1.8132 H   0  0  0  0  0  0  0  0  0  0  0  0
   -0.1140   -6.3453    0.7069 H   0  0  0  0  0  0  0  0  0  0  0  0
   -2.2185   -7.6166    0.1857 H   0  0  0  0  0  0  0  0  0  0  0  0
   -4.3009   -6.2416   -0.1262 H   0  0  0  0  0  0  0  0  0  0  0  0
   -5.6790   -1.3328    1.3682 H   0  0  0  0  0  0  0  0  0  0  0  0
   -6.5467    0.1552    0.9997 H   0  0  0  0  0  0  0  0  0  0  0  0
   -5.7077   -0.3307   -1.5341 H   0  0  0  0  0  0  0  0  0  0  0  0
   -7.2152   -1.0011   -0.8725 H   0  0  0  0  0  0  0  0  0  0  0  0
   -4.8030   -2.4165   -0.5905 H   0  0  0  0  0  0  0  0  0  0  0  0
   -0.7637   -0.1978    0.0000 H   0  0  0  0  0  0  0  0  0  0  0  0
    0.7631   -0.2000    0.0000 H   0  0  0  0  0  0  0  0  0  0  0  0
  1  2  1  0
  2  3  1  0
  3  4  2  0
  4  5  1  0
  5  6  2  0
  6  7  1  0
  7  8  2  0
  8  9  1  0
  9 10  1  0
 10 11  1  0
 11 12  1  0
 12 13  1  0
 13 14  2  0
 13 15  2  0
 13 16  1  0
 16 17  2  0
 17 18  1  0
 18 19  2  0
 19 20  1  0
 20 21  1  0
 20 22  1  0
 20 23  1  0
 19 24  1  0
 24 25  2  0
 11 26  2  0
 26 27  1  0
 27 28  1  0
 28 29  2  0
 29 30  1  0
 30 31  2  0
 31 32  1  0
 32 33  2  0
 27 34  2  0
 34 35  1  0
 35 36  1  0
 36 37  1  0
 37 38  1  0
 38 39  1  0
  8  3  1  0
 35 10  2  0
 25 16  1  0
 33 28  1  0
  1 41  1  0
  1 42  1  0
  1 43  1  0
  4 44  1  0
  5 45  1  0
  6 46  1  0
  7 47  1  0
 12 48  1  0
 17 49  1  0
 18 50  1  0
 21 51  1  0
 21 52  1  0
 21 53  1  0
 22 54  1  0
 22 55  1  0
 22 56  1  0
 23 57  1  0
 23 58  1  0
 23 59  1  0
 24 60  1  0
 25 61  1  0
 30 62  1  0
 31 63  1  0
 32 64  1  0
 37 65  1  0
 37 66  1  0
 38 67  1  0
 38 68  1  0
 39 69  1  0
 40 70  1  0
 40 71  1  0
M  END
$$$$
