
     RDKit          3D

 58 61  0  0  0  0  0  0  0  0999 V2000
    3.3227    3.5132    1.4757 C   0  0  0  0  0  0  0  0  0  0  0  0
    4.0307    3.0144    0.2729 C   0  0  0  0  0  0  0  0  0  0  0  0
    4.6483    3.8770   -0.5424 N   0  0  0  0  0  0  0  0  0  0  0  0
    5.2117    3.1122   -1.5436 O   0  0  0  0  0  0  0  0  0  0  0  0
    4.9333    1.8005   -1.3269 C   0  0  0  0  0  0  0  0  0  0  0  0
    5.4787    0.8572   -2.3203 C   0  0  0  0  0  0  0  0  0  0  0  0
    4.1783    1.6729   -0.1799 C   0  0  0  0  0  0  0  0  0  0  0  0
    3.6426    0.4263    0.4369 C   0  0  0  0  0  0  0  0  0  0  0  0
    2.2454    0.0918   -0.0808 C   0  0  0  0  0  0  0  0  0  0  0  0
    1.7211   -1.2013    0.5135 C   0  0  0  0  0  0  0  0  0  0  0  0
    2.3628   -1.8509    1.3367 O   0  0  0  0  0  0  0  0  0  0  0  0
    0.4810   -1.6092    0.0750 N   0  0  0  0  0  0  0  0  0  0  0  0
   -0.1005   -2.8669    0.5112 C   0  0  0  0  0  0  0  0  0  0  0  0
   -1.3343   -3.0680   -0.3782 C   0  0  1  0  0  0  0  0  0  0  0  0
   -2.3960   -3.9330    0.2991 C   0  0  0  0  0  0  0  0  0  0  0  0
   -3.7326   -3.9900   -0.4416 C   0  0  0  0  0  0  0  0  0  0  0  0
   -4.3989   -2.6503   -0.7568 C   0  0  0  0  0  0  0  0  0  0  0  0
   -4.0572   -1.5396    0.2210 C   0  0  0  0  0  0  0  0  0  0  0  0
   -4.9194   -1.0952    0.9771 O   0  0  0  0  0  0  0  0  0  0  0  0
   -2.7372   -1.0821    0.2150 N   0  0  0  0  0  0  0  0  0  0  0  0
   -2.3366   -0.1660    1.2897 C   0  0  0  0  0  0  0  0  0  0  0  0
   -2.1852    1.2739    0.8565 C   0  0  0  0  0  0  0  0  0  0  0  0
   -3.1212    1.8952    0.0148 C   0  0  0  0  0  0  0  0  0  0  0  0
   -2.9748    3.2368   -0.3513 C   0  0  0  0  0  0  0  0  0  0  0  0
   -1.8980    3.9773    0.1316 C   0  0  0  0  0  0  0  0  0  0  0  0
   -0.9831    3.3733    0.9840 C   0  0  0  0  0  0  0  0  0  0  0  0
    0.0461    4.0840    1.4619 F   0  0  0  0  0  0  0  0  0  0  0  0
   -1.1203    2.0396    1.3555 C   0  0  0  0  0  0  0  0  0  0  0  0
   -1.7498   -1.6260   -0.7412 C   0  0  1  0  0  0  0  0  0  0  0  0
   -0.3851   -0.9283   -0.8738 C   0  0  0  0  0  0  0  0  0  0  0  0
    2.9996    4.5522    1.3483 H   0  0  0  0  0  0  0  0  0  0  0  0
    3.9817    3.4624    2.3481 H   0  0  0  0  0  0  0  0  0  0  0  0
    2.4329    2.9111    1.6827 H   0  0  0  0  0  0  0  0  0  0  0  0
    6.5719    0.8990   -2.3267 H   0  0  0  0  0  0  0  0  0  0  0  0
    5.1181    1.1069   -3.3229 H   0  0  0  0  0  0  0  0  0  0  0  0
    5.1792   -0.1717   -2.1010 H   0  0  0  0  0  0  0  0  0  0  0  0
    3.6194    0.5382    1.5284 H   0  0  0  0  0  0  0  0  0  0  0  0
    4.3281   -0.4065    0.2351 H   0  0  0  0  0  0  0  0  0  0  0  0
    2.2653   -0.0094   -1.1724 H   0  0  0  0  0  0  0  0  0  0  0  0
    1.5560    0.9026    0.1777 H   0  0  0  0  0  0  0  0  0  0  0  0
   -0.3550   -2.7686    1.5725 H   0  0  0  0  0  0  0  0  0  0  0  0
    0.6251   -3.6799    0.4025 H   0  0  0  0  0  0  0  0  0  0  0  0
   -1.0102   -3.5645   -1.3041 H   0  0  0  0  0  0  0  0  0  0  0  0
   -2.5724   -3.5857    1.3256 H   0  0  0  0  0  0  0  0  0  0  0  0
   -2.0077   -4.9545    0.4010 H   0  0  0  0  0  0  0  0  0  0  0  0
   -4.4243   -4.5830    0.1711 H   0  0  0  0  0  0  0  0  0  0  0  0
   -3.6096   -4.5492   -1.3774 H   0  0  0  0  0  0  0  0  0  0  0  0
   -5.4879   -2.7848   -0.7511 H   0  0  0  0  0  0  0  0  0  0  0  0
   -4.1649   -2.3240   -1.7752 H   0  0  0  0  0  0  0  0  0  0  0  0
   -3.0720   -0.1878    2.1025 H   0  0  0  0  0  0  0  0  0  0  0  0
   -1.4057   -0.5439    1.7235 H   0  0  0  0  0  0  0  0  0  0  0  0
   -3.9831    1.3403   -0.3518 H   0  0  0  0  0  0  0  0  0  0  0  0
   -3.7089    3.7043   -1.0030 H   0  0  0  0  0  0  0  0  0  0  0  0
   -1.7741    5.0206   -0.1403 H   0  0  0  0  0  0  0  0  0  0  0  0
   -0.3909    1.6100    2.0361 H   0  0  0  0  0  0  0  0  0  0  0  0
   -2.2244   -1.6019   -1.7274 H   0  0  0  0  0  0  0  0  0  0  0  0
    0.0375   -1.1210   -1.8678 H   0  0  0  0  0  0  0  0  0  0  0  0
   -0.3960    0.1499   -0.7256 H   0  0  0  0  0  0  0  0  0  0  0  0
  1  2  1  0
  2  3  2  0
  3  4  1  0
  4  5  1  0
  5  6  1  0
  5  7  2  0
  7  8  1  0
  8  9  1  0
  9 10  1  0
 10 11  2  0
 10 12  1  0
 12 13  1  0
 13 14  1  0
 14 15  1  0
 15 16  1  0
 16 17  1  0
 17 18  1  0
 18 19  2  0
 18 20  1  0
 20 21  1  0
 21 22  1  0
 22 23  2  0
 23 24  1  0
 24 25  2  0
 25 26  1  0
 26 27  1  0
 26 28  2  0
 20 29  1  0
 29 30  1  0
  7  2  1  0
 30 12  1  0
 29 14  1  0
 28 22  1  0
  1 31  1  0
  1 32  1  0
  1 33  1  0
  6 34  1  0
  6 35  1  0
  6 36  1  0
  8 37  1  0
  8 38  1  0
  9 39  1  0
  9 40  1  0
 13 41  1  0
 13 42  1  0
 14 43  1  6
 15 44  1  0
 15 45  1  0
 16 46  1  0
 16 47  1  0
 17 48  1  0
 17 49  1  0
 21 50  1  0
 21 51  1  0
 23 52  1  0
 24 53  1  0
 25 54  1  0
 28 55  1  0
 29 56  1  6
 30 57  1  0
 30 58  1  0
M  END
$$$$
