
     RDKit          3D

 30 31  0  0  0  0  0  0  0  0999 V2000
   -5.9560    0.6316    0.1973 O   0  0  0  0  0  0  0  0  0  0  0  0
   -5.0805   -0.4789   -0.1511 B   0  0  0  0  0  0  0  0  0  0  0  0
   -5.6838   -1.7988   -0.2951 O   0  0  0  0  0  0  0  0  0  0  0  0
   -3.5440   -0.2973   -0.1641 C   0  0  0  0  0  0  0  0  0  0  0  0
   -2.9648    0.8124   -0.7271 C   0  0  0  0  0  0  0  0  0  0  0  0
   -1.5743    0.9437   -0.7207 C   0  0  0  0  0  0  0  0  0  0  0  0
   -0.7791   -0.0262   -0.1568 C   0  0  0  0  0  0  0  0  0  0  0  0
    0.6589    0.1358   -0.1625 C   0  0  0  0  0  0  0  0  0  0  0  0
    1.2180    1.3881   -0.0879 C   0  0  0  0  0  0  0  0  0  0  0  0
    2.6101    1.4806   -0.0956 C   0  0  0  0  0  0  0  0  0  0  0  0
    3.4351    0.3839   -0.1730 C   0  0  0  0  0  0  0  0  0  0  0  0
    4.9961    0.5096   -0.1792 B   0  0  0  0  0  0  0  0  0  0  0  0
    5.8087   -0.6673    0.1213 O   0  0  0  0  0  0  0  0  0  0  0  0
    5.6562    1.7677   -0.4992 O   0  0  0  0  0  0  0  0  0  0  0  0
    2.8372   -0.8608   -0.2465 C   0  0  0  0  0  0  0  0  0  0  0  0
    1.4527   -0.9828   -0.2412 C   0  0  0  0  0  0  0  0  0  0  0  0
   -1.3585   -1.1408    0.4083 C   0  0  0  0  0  0  0  0  0  0  0  0
   -2.7536   -1.2704    0.4007 C   0  0  0  0  0  0  0  0  0  0  0  0
   -5.4619    1.4246    0.5314 H   0  0  0  0  0  0  0  0  0  0  0  0
   -4.9847   -2.4920   -0.4221 H   0  0  0  0  0  0  0  0  0  0  0  0
   -3.5407    1.5997   -1.1796 H   0  0  0  0  0  0  0  0  0  0  0  0
   -1.1661    1.8355   -1.1742 H   0  0  0  0  0  0  0  0  0  0  0  0
    0.6252    2.2996   -0.0228 H   0  0  0  0  0  0  0  0  0  0  0  0
    3.0705    2.4504   -0.0398 H   0  0  0  0  0  0  0  0  0  0  0  0
    5.4716   -1.4676   -0.3487 H   0  0  0  0  0  0  0  0  0  0  0  0
    6.6005    1.6260   -0.6811 H   0  0  0  0  0  0  0  0  0  0  0  0
    3.4531   -1.7567   -0.3103 H   0  0  0  0  0  0  0  0  0  0  0  0
    0.9990   -1.9807   -0.3021 H   0  0  0  0  0  0  0  0  0  0  0  0
   -0.8011   -1.9419    0.8677 H   0  0  0  0  0  0  0  0  0  0  0  0
   -3.2437   -2.1269    0.8329 H   0  0  0  0  0  0  0  0  0  0  0  0
  1  2  1  0
  2  3  1  0
  2  4  1  0
  4  5  2  0
  5  6  1  0
  6  7  2  0
  7  8  1  0
  8  9  2  0
  9 10  1  0
 10 11  2  0
 11 12  1  0
 12 13  1  0
 12 14  1  0
 11 15  1  0
 15 16  2  0
  7 17  1  0
 17 18  2  0
 18  4  1  0
 16  8  1  0
  1 19  1  0
  3 20  1  0
  5 21  1  0
  6 22  1  0
  9 23  1  0
 10 24  1  0
 13 25  1  0
 14 26  1  0
 15 27  1  0
 16 28  1  0
 17 29  1  0
 18 30  1  0
M  END
$$$$
