
     RDKit          3D

 47 50  0  0  0  0  0  0  0  0999 V2000
   -1.8404    2.2946   -0.8810 C   0  0  0  0  0  0  0  0  0  0  0  0
   -2.8878    1.2616   -1.3179 C   0  0  0  0  0  0  0  0  0  0  0  0
   -4.2299    1.5353   -0.6375 C   0  0  0  0  0  0  0  0  0  0  0  0
   -2.4578   -0.1787   -1.0816 C   0  0  0  0  0  0  0  0  0  0  0  0
   -1.8077   -0.5383    0.1135 C   0  0  0  0  0  0  0  0  0  0  0  0
   -1.3460   -1.8476    0.3221 C   0  0  0  0  0  0  0  0  0  0  0  0
   -0.6771   -2.1656    1.5909 C   0  0  0  0  0  0  0  0  0  0  0  0
   -1.2207   -2.9783    2.4575 N   0  0  0  0  0  0  0  0  0  0  0  0
   -0.3878   -2.9229    3.5293 N   0  0  0  0  0  0  0  0  0  0  0  0
    0.6721   -2.0528    3.2989 C   0  0  0  0  0  0  0  0  0  0  0  0
    1.5594   -1.8340    4.1101 O   0  0  0  0  0  0  0  0  0  0  0  0
    0.4857   -1.5679    2.0152 N   0  0  0  0  0  0  0  0  0  0  0  0
    1.3723   -0.6857    1.3421 C   0  0  0  0  0  0  0  0  0  0  0  0
    2.1709    0.2081    2.0696 C   0  0  0  0  0  0  0  0  0  0  0  0
    3.0418    1.1165    1.4498 C   0  0  0  0  0  0  0  0  0  0  0  0
    3.1079    1.1105    0.0526 C   0  0  0  0  0  0  0  0  0  0  0  0
    2.3501    0.2256   -0.7130 C   0  0  0  0  0  0  0  0  0  0  0  0
    2.6659    0.4696   -2.0774 C   0  0  0  0  0  0  0  0  0  0  0  0
    3.5891    1.4896   -2.1178 C   0  0  0  0  0  0  0  0  0  0  0  0
    3.8523    1.8678   -0.8277 N   0  0  0  0  0  0  0  0  0  0  0  0
    4.7830    2.9065   -0.4463 C   0  0  0  0  0  0  0  0  0  0  0  0
    1.4899   -0.6830   -0.0581 C   0  0  0  0  0  0  0  0  0  0  0  0
   -1.5621   -2.8290   -0.6435 C   0  0  0  0  0  0  0  0  0  0  0  0
   -1.0837   -4.0940   -0.4586 O   0  0  0  0  0  0  0  0  0  0  0  0
   -2.2376   -2.5047   -1.8151 C   0  0  0  0  0  0  0  0  0  0  0  0
   -2.6894   -1.1979   -2.0202 C   0  0  0  0  0  0  0  0  0  0  0  0
   -3.3682   -0.9957   -3.1895 O   0  0  0  0  0  0  0  0  0  0  0  0
   -0.8618    2.0723   -1.3212 H   0  0  0  0  0  0  0  0  0  0  0  0
   -1.7223    2.3340    0.2069 H   0  0  0  0  0  0  0  0  0  0  0  0
   -2.1352    3.2972   -1.2107 H   0  0  0  0  0  0  0  0  0  0  0  0
   -3.0124    1.4212   -2.3954 H   0  0  0  0  0  0  0  0  0  0  0  0
   -4.1597    1.4257    0.4507 H   0  0  0  0  0  0  0  0  0  0  0  0
   -5.0006    0.8418   -0.9920 H   0  0  0  0  0  0  0  0  0  0  0  0
   -4.5725    2.5534   -0.8514 H   0  0  0  0  0  0  0  0  0  0  0  0
   -1.6471    0.2004    0.8958 H   0  0  0  0  0  0  0  0  0  0  0  0
   -0.5351   -3.4657    4.3684 H   0  0  0  0  0  0  0  0  0  0  0  0
    2.1181    0.2442    3.1562 H   0  0  0  0  0  0  0  0  0  0  0  0
    3.6377    1.7987    2.0476 H   0  0  0  0  0  0  0  0  0  0  0  0
    2.2574   -0.0459   -2.9365 H   0  0  0  0  0  0  0  0  0  0  0  0
    4.0776    1.9665   -2.9575 H   0  0  0  0  0  0  0  0  0  0  0  0
    5.5584    2.4623    0.1829 H   0  0  0  0  0  0  0  0  0  0  0  0
    4.2345    3.6779    0.1004 H   0  0  0  0  0  0  0  0  0  0  0  0
    5.2363    3.3394   -1.3417 H   0  0  0  0  0  0  0  0  0  0  0  0
    0.9665   -1.4008   -0.6777 H   0  0  0  0  0  0  0  0  0  0  0  0
   -1.4363   -4.6751   -1.1531 H   0  0  0  0  0  0  0  0  0  0  0  0
   -2.4228   -3.2507   -2.5823 H   0  0  0  0  0  0  0  0  0  0  0  0
   -3.9252   -0.2062   -3.1042 H   0  0  0  0  0  0  0  0  0  0  0  0
  1  2  1  0
  2  3  1  0
  2  4  1  0
  4  5  2  0
  5  6  1  0
  6  7  1  0
  7  8  2  0
  8  9  1  0
  9 10  1  0
 10 11  2  0
 10 12  1  0
 12 13  1  0
 13 14  2  0
 14 15  1  0
 15 16  2  0
 16 17  1  0
 17 18  1  0
 18 19  2  0
 19 20  1  0
 20 21  1  0
 17 22  2  0
  6 23  2  0
 23 24  1  0
 23 25  1  0
 25 26  2  0
 26 27  1  0
 26  4  1  0
 12  7  1  0
 22 13  1  0
 20 16  1  0
  1 28  1  0
  1 29  1  0
  1 30  1  0
  2 31  1  0
  3 32  1  0
  3 33  1  0
  3 34  1  0
  5 35  1  0
  9 36  1  0
 14 37  1  0
 15 38  1  0
 18 39  1  0
 19 40  1  0
 21 41  1  0
 21 42  1  0
 21 43  1  0
 22 44  1  0
 24 45  1  0
 25 46  1  0
 27 47  1  0
M  END
$$$$
