
     RDKit          3D

 48 51  0  0  0  0  0  0  0  0999 V2000
   -5.5470   -1.3298   -0.3831 C   0  0  0  0  0  0  0  0  0  0  0  0
   -4.1068   -1.1625   -0.2465 N   0  0  0  0  0  0  0  0  0  0  0  0
   -3.5633   -2.0921    0.7449 C   0  0  0  0  0  0  0  0  0  0  0  0
   -2.1784   -1.5415    1.0132 C   0  0  0  0  0  0  0  0  0  0  0  0
   -2.4005   -0.0287    1.0304 C   0  0  1  0  0  0  0  0  0  0  0  0
   -2.5224    0.5256    2.4525 C   0  0  0  0  0  0  0  0  0  0  0  0
   -1.3835    0.7228    0.2262 C   0  0  0  0  0  0  0  0  0  0  0  0
   -0.0048    0.7577    0.3955 C   0  0  0  0  0  0  0  0  0  0  0  0
    0.7384    1.5061   -0.5133 C   0  0  0  0  0  0  0  0  0  0  0  0
    2.1295    1.6448   -0.3847 O   0  0  0  0  0  0  0  0  0  0  0  0
    2.8960    0.4809   -0.3823 C   0  0  0  0  0  0  0  0  0  0  0  0
    2.4506   -0.6491   -0.5200 O   0  0  0  0  0  0  0  0  0  0  0  0
    4.2060    0.8438   -0.2016 N   0  0  0  0  0  0  0  0  0  0  0  0
    5.3408    0.0179   -0.1325 C   0  0  0  0  0  0  0  0  0  0  0  0
    5.3004   -1.3725   -0.2510 C   0  0  0  0  0  0  0  0  0  0  0  0
    6.4773   -2.1241   -0.1707 C   0  0  0  0  0  0  0  0  0  0  0  0
    7.7024   -1.4922    0.0285 C   0  0  0  0  0  0  0  0  0  0  0  0
    7.7532   -0.1062    0.1475 C   0  0  0  0  0  0  0  0  0  0  0  0
    6.5776    0.6450    0.0671 C   0  0  0  0  0  0  0  0  0  0  0  0
    0.1186    2.2315   -1.5363 C   0  0  0  0  0  0  0  0  0  0  0  0
   -1.2722    2.1854   -1.6814 C   0  0  0  0  0  0  0  0  0  0  0  0
   -2.0261    1.4194   -0.8012 C   0  0  0  0  0  0  0  0  0  0  0  0
   -3.4208    1.2812   -0.7663 N   0  0  0  0  0  0  0  0  0  0  0  0
   -4.1429    1.3365   -2.0206 C   0  0  0  0  0  0  0  0  0  0  0  0
   -3.7178    0.1964    0.1931 C   0  0  1  0  0  0  0  0  0  0  0  0
   -6.0832   -1.1241    0.5505 H   0  0  0  0  0  0  0  0  0  0  0  0
   -5.9529   -0.6781   -1.1609 H   0  0  0  0  0  0  0  0  0  0  0  0
   -5.7815   -2.3559   -0.6886 H   0  0  0  0  0  0  0  0  0  0  0  0
   -4.1532   -2.0933    1.6707 H   0  0  0  0  0  0  0  0  0  0  0  0
   -3.5176   -3.1159    0.3600 H   0  0  0  0  0  0  0  0  0  0  0  0
   -1.7644   -1.9247    1.9519 H   0  0  0  0  0  0  0  0  0  0  0  0
   -1.4989   -1.8459    0.2062 H   0  0  0  0  0  0  0  0  0  0  0  0
   -3.3244    0.0250    3.0059 H   0  0  0  0  0  0  0  0  0  0  0  0
   -1.5917    0.3847    3.0139 H   0  0  0  0  0  0  0  0  0  0  0  0
   -2.7413    1.5998    2.4461 H   0  0  0  0  0  0  0  0  0  0  0  0
    0.4730    0.2093    1.1992 H   0  0  0  0  0  0  0  0  0  0  0  0
    4.3430    1.8401   -0.1076 H   0  0  0  0  0  0  0  0  0  0  0  0
    4.3683   -1.9065   -0.4087 H   0  0  0  0  0  0  0  0  0  0  0  0
    6.4318   -3.2063   -0.2655 H   0  0  0  0  0  0  0  0  0  0  0  0
    8.6145   -2.0800    0.0899 H   0  0  0  0  0  0  0  0  0  0  0  0
    8.7071    0.3911    0.3026 H   0  0  0  0  0  0  0  0  0  0  0  0
    6.6451    1.7254    0.1631 H   0  0  0  0  0  0  0  0  0  0  0  0
    0.7127    2.8340   -2.2166 H   0  0  0  0  0  0  0  0  0  0  0  0
   -1.7432    2.7615   -2.4695 H   0  0  0  0  0  0  0  0  0  0  0  0
   -3.8781    0.5004   -2.6770 H   0  0  0  0  0  0  0  0  0  0  0  0
   -5.2212    1.3101   -1.8361 H   0  0  0  0  0  0  0  0  0  0  0  0
   -3.9539    2.2747   -2.5528 H   0  0  0  0  0  0  0  0  0  0  0  0
   -4.4941    0.5782    0.8719 H   0  0  0  0  0  0  0  0  0  0  0  0
  1  2  1  0
  2  3  1  0
  3  4  1  0
  4  5  1  0
  5  6  1  1
  5  7  1  0
  7  8  2  0
  8  9  1  0
  9 10  1  0
 10 11  1  0
 11 12  2  0
 11 13  1  0
 13 14  1  0
 14 15  2  0
 15 16  1  0
 16 17  2  0
 17 18  1  0
 18 19  2  0
  9 20  2  0
 20 21  1  0
 21 22  2  0
 22 23  1  0
 23 24  1  0
 23 25  1  0
 25  2  1  0
 25  5  1  0
 22  7  1  0
 19 14  1  0
  1 26  1  0
  1 27  1  0
  1 28  1  0
  3 29  1  0
  3 30  1  0
  4 31  1  0
  4 32  1  0
  6 33  1  0
  6 34  1  0
  6 35  1  0
  8 36  1  0
 13 37  1  0
 15 38  1  0
 16 39  1  0
 17 40  1  0
 18 41  1  0
 19 42  1  0
 20 43  1  0
 21 44  1  0
 24 45  1  0
 24 46  1  0
 24 47  1  0
 25 48  1  1
M  END
$$$$
