
     RDKit          3D

 51 54  0  0  0  0  0  0  0  0999 V2000
    2.8958    0.4007   -1.4448 O   0  0  0  0  0  0  0  0  0  0  0  0
    2.5671    1.0366   -0.4492 C   0  0  0  0  0  0  0  0  0  0  0  0
    3.3774    1.1328    0.6638 N   0  0  0  0  0  0  0  0  0  0  0  0
    4.7185    0.5726    0.6664 C   0  0  0  0  0  0  0  0  0  0  0  0
    4.7331   -0.9561    0.6834 C   0  0  0  0  0  0  0  0  0  0  0  0
    6.0812   -1.4749    0.7856 N   0  0  0  0  0  0  0  0  0  0  0  0
    6.7353   -1.8132    1.9363 C   0  0  0  0  0  0  0  0  0  0  0  0
    7.9766   -2.2381    1.5230 C   0  0  0  0  0  0  0  0  0  0  0  0
    8.0855   -2.1671    0.1581 N   0  0  0  0  0  0  0  0  0  0  0  0
    6.9249   -1.7145   -0.2605 C   0  0  0  0  0  0  0  0  0  0  0  0
    1.2348    1.7801   -0.3176 C   0  0  0  0  0  0  0  0  0  0  0  0
    0.4114    1.1779    0.8268 C   0  0  0  0  0  0  0  0  0  0  0  0
   -1.0561    1.6033    0.8281 C   0  0  0  0  0  0  0  0  0  0  0  0
   -1.9630    0.8226   -0.1044 C   0  0  0  0  0  0  0  0  0  0  0  0
   -3.2102    0.6101    0.4426 N   0  0  0  0  0  0  0  0  0  0  0  0
   -4.0615   -0.1178   -0.2041 C   0  0  0  0  0  0  0  0  0  0  0  0
   -5.4172   -0.3797    0.3502 C   0  0  0  0  0  0  0  0  0  0  0  0
   -5.9853    0.5680    1.2113 C   0  0  0  0  0  0  0  0  0  0  0  0
   -7.2569    0.3585    1.7478 C   0  0  0  0  0  0  0  0  0  0  0  0
   -7.9628   -0.8018    1.4341 C   0  0  0  0  0  0  0  0  0  0  0  0
   -7.3969   -1.7572    0.5904 C   0  0  0  0  0  0  0  0  0  0  0  0
   -6.1248   -1.5513    0.0500 C   0  0  0  0  0  0  0  0  0  0  0  0
   -3.7727   -0.6651   -1.4234 N   0  0  0  0  0  0  0  0  0  0  0  0
   -2.5821   -0.4652   -2.0490 C   0  0  0  0  0  0  0  0  0  0  0  0
   -2.3660   -0.9365   -3.1607 O   0  0  0  0  0  0  0  0  0  0  0  0
   -1.5805    0.3485   -1.3075 C   0  0  0  0  0  0  0  0  0  0  0  0
   -0.2752    0.5699   -2.0293 C   0  0  0  0  0  0  0  0  0  0  0  0
    0.4944    1.8411   -1.6604 C   0  0  0  0  0  0  0  0  0  0  0  0
    3.1508    1.8266    1.3658 H   0  0  0  0  0  0  0  0  0  0  0  0
    5.2500    0.9534   -0.2140 H   0  0  0  0  0  0  0  0  0  0  0  0
    5.2249    0.9691    1.5538 H   0  0  0  0  0  0  0  0  0  0  0  0
    4.2853   -1.3805   -0.2215 H   0  0  0  0  0  0  0  0  0  0  0  0
    4.1620   -1.3395    1.5373 H   0  0  0  0  0  0  0  0  0  0  0  0
    6.2874   -1.7303    2.9164 H   0  0  0  0  0  0  0  0  0  0  0  0
    8.7969   -2.5920    2.1339 H   0  0  0  0  0  0  0  0  0  0  0  0
    6.6497   -1.5411   -1.2935 H   0  0  0  0  0  0  0  0  0  0  0  0
    1.4912    2.8166   -0.0557 H   0  0  0  0  0  0  0  0  0  0  0  0
    0.4870    0.0821    0.8254 H   0  0  0  0  0  0  0  0  0  0  0  0
    0.8581    1.4993    1.7773 H   0  0  0  0  0  0  0  0  0  0  0  0
   -1.1570    2.6772    0.6293 H   0  0  0  0  0  0  0  0  0  0  0  0
   -1.4191    1.4539    1.8550 H   0  0  0  0  0  0  0  0  0  0  0  0
   -5.4410    1.4756    1.4641 H   0  0  0  0  0  0  0  0  0  0  0  0
   -7.6941    1.0997    2.4122 H   0  0  0  0  0  0  0  0  0  0  0  0
   -8.9520   -0.9658    1.8552 H   0  0  0  0  0  0  0  0  0  0  0  0
   -7.9445   -2.6685    0.3613 H   0  0  0  0  0  0  0  0  0  0  0  0
   -5.6963   -2.3289   -0.5751 H   0  0  0  0  0  0  0  0  0  0  0  0
   -4.4561   -1.1765   -1.9589 H   0  0  0  0  0  0  0  0  0  0  0  0
   -0.4832    0.6532   -3.1043 H   0  0  0  0  0  0  0  0  0  0  0  0
    0.3562   -0.3177   -1.9071 H   0  0  0  0  0  0  0  0  0  0  0  0
    1.2155    2.0552   -2.4604 H   0  0  0  0  0  0  0  0  0  0  0  0
   -0.1964    2.6948   -1.6577 H   0  0  0  0  0  0  0  0  0  0  0  0
  1  2  2  0
  2  3  1  0
  3  4  1  0
  4  5  1  0
  5  6  1  0
  6  7  1  0
  7  8  2  0
  8  9  1  0
  9 10  2  0
  2 11  1  0
 11 12  1  0
 12 13  1  0
 13 14  1  0
 14 15  1  0
 15 16  2  0
 16 17  1  0
 17 18  2  0
 18 19  1  0
 19 20  2  0
 20 21  1  0
 21 22  2  0
 16 23  1  0
 23 24  1  0
 24 25  2  0
 24 26  1  0
 26 27  1  0
 27 28  1  0
 10  6  1  0
 28 11  1  0
 26 14  2  0
 22 17  1  0
  3 29  1  0
  4 30  1  0
  4 31  1  0
  5 32  1  0
  5 33  1  0
  7 34  1  0
  8 35  1  0
 10 36  1  0
 11 37  1  0
 12 38  1  0
 12 39  1  0
 13 40  1  0
 13 41  1  0
 18 42  1  0
 19 43  1  0
 20 44  1  0
 21 45  1  0
 22 46  1  0
 23 47  1  0
 27 48  1  0
 27 49  1  0
 28 50  1  0
 28 51  1  0
M  END
$$$$
