
     RDKit          3D

 70 72  0  0  0  0  0  0  0  0999 V2000
   -2.8197    1.5078   -3.6945 C   0  0  0  0  0  0  0  0  0  0  0  0
   -1.9259    0.5151   -2.9431 C   0  0  0  0  0  0  0  0  0  0  0  0
   -1.7221   -0.7369   -3.7944 C   0  0  0  0  0  0  0  0  0  0  0  0
   -2.5437    0.2147   -1.5656 C   0  0  0  0  0  0  0  0  0  0  0  0
   -1.7497   -0.6986   -0.7186 N   0  0  0  0  0  0  0  0  0  0  0  0
   -0.3616   -0.3088   -0.3545 C   0  0  0  0  0  0  0  0  0  0  0  0
   -0.2758    0.1306    1.1235 C   0  0  1  0  0  0  0  0  0  0  0  0
   -0.2751   -0.9877    2.0304 O   0  0  0  0  0  0  0  0  0  0  0  0
    0.9586    1.0056    1.4817 C   0  0  2  0  0  0  0  0  0  0  0  0
    0.9694    2.3594    0.7387 C   0  0  0  0  0  0  0  0  0  0  0  0
    1.9471    3.3505    1.3305 C   0  0  0  0  0  0  0  0  0  0  0  0
    1.6118    4.0840    2.4774 C   0  0  0  0  0  0  0  0  0  0  0  0
    2.5225    4.9857    3.0305 C   0  0  0  0  0  0  0  0  0  0  0  0
    3.7744    5.1620    2.4443 C   0  0  0  0  0  0  0  0  0  0  0  0
    4.1173    4.4380    1.3041 C   0  0  0  0  0  0  0  0  0  0  0  0
    3.2085    3.5362    0.7491 C   0  0  0  0  0  0  0  0  0  0  0  0
    2.2179    0.2598    1.4056 N   0  0  0  0  0  0  0  0  0  0  0  0
    2.8679   -0.0993    0.2717 C   0  0  0  0  0  0  0  0  0  0  0  0
    2.5704    0.2486   -0.8601 O   0  0  0  0  0  0  0  0  0  0  0  0
    3.8859   -0.9320    0.5903 O   0  0  0  0  0  0  0  0  0  0  0  0
    4.6390   -1.4214   -0.5198 C   0  0  1  0  0  0  0  0  0  0  0  0
    5.8037   -2.2497   -0.0282 C   0  0  0  0  0  0  0  0  0  0  0  0
    6.1177   -3.0982   -1.2382 C   0  0  0  0  0  0  0  0  0  0  0  0
    4.8720   -3.3462   -1.9033 O   0  0  0  0  0  0  0  0  0  0  0  0
    3.8924   -2.4370   -1.3747 C   0  0  0  0  0  0  0  0  0  0  0  0
   -2.2857   -2.2699   -0.4221 S   0  0  0  0  0  6  0  0  0  0  0  0
   -2.6164   -2.8855   -1.6877 O   0  0  0  0  0  0  0  0  0  0  0  0
   -1.3570   -2.8928    0.4993 O   0  0  0  0  0  0  0  0  0  0  0  0
   -3.8061   -1.9999    0.4642 C   0  0  0  0  0  0  0  0  0  0  0  0
   -5.0285   -2.2792   -0.1513 C   0  0  0  0  0  0  0  0  0  0  0  0
   -6.2177   -2.0808    0.5556 C   0  0  0  0  0  0  0  0  0  0  0  0
   -6.1998   -1.5747    1.8588 C   0  0  0  0  0  0  0  0  0  0  0  0
   -7.3844   -1.4957    2.5982 N   0  0  0  0  0  0  0  0  0  0  0  0
   -4.9658   -1.3675    2.4833 C   0  0  0  0  0  0  0  0  0  0  0  0
   -3.7685   -1.5619    1.7883 C   0  0  0  0  0  0  0  0  0  0  0  0
   -2.3791    1.7752   -4.6609 H   0  0  0  0  0  0  0  0  0  0  0  0
   -3.8135    1.0862   -3.8816 H   0  0  0  0  0  0  0  0  0  0  0  0
   -2.9439    2.4317   -3.1186 H   0  0  0  0  0  0  0  0  0  0  0  0
   -0.9501    0.9963   -2.8187 H   0  0  0  0  0  0  0  0  0  0  0  0
   -1.0005   -1.4170   -3.3310 H   0  0  0  0  0  0  0  0  0  0  0  0
   -1.3281   -0.4734   -4.7823 H   0  0  0  0  0  0  0  0  0  0  0  0
   -2.6642   -1.2744   -3.9433 H   0  0  0  0  0  0  0  0  0  0  0  0
   -3.5550   -0.1839   -1.7041 H   0  0  0  0  0  0  0  0  0  0  0  0
   -2.6689    1.1515   -1.0074 H   0  0  0  0  0  0  0  0  0  0  0  0
   -0.0438    0.5088   -1.0015 H   0  0  0  0  0  0  0  0  0  0  0  0
    0.3047   -1.1544   -0.5573 H   0  0  0  0  0  0  0  0  0  0  0  0
   -1.1758    0.7096    1.3659 H   0  0  0  0  0  0  0  0  0  0  0  0
   -0.4665   -1.8088    1.5266 H   0  0  0  0  0  0  0  0  0  0  0  0
    0.8679    1.2207    2.5563 H   0  0  0  0  0  0  0  0  0  0  0  0
   -0.0320    2.8086    0.7839 H   0  0  0  0  0  0  0  0  0  0  0  0
    1.1847    2.2402   -0.3282 H   0  0  0  0  0  0  0  0  0  0  0  0
    0.6397    3.9581    2.9481 H   0  0  0  0  0  0  0  0  0  0  0  0
    2.2555    5.5505    3.9195 H   0  0  0  0  0  0  0  0  0  0  0  0
    4.4847    5.8623    2.8761 H   0  0  0  0  0  0  0  0  0  0  0  0
    5.0939    4.5744    0.8471 H   0  0  0  0  0  0  0  0  0  0  0  0
    3.4920    2.9754   -0.1395 H   0  0  0  0  0  0  0  0  0  0  0  0
    2.5163   -0.2323    2.2386 H   0  0  0  0  0  0  0  0  0  0  0  0
    5.0169   -0.5893   -1.1286 H   0  0  0  0  0  0  0  0  0  0  0  0
    5.4953   -2.8785    0.8161 H   0  0  0  0  0  0  0  0  0  0  0  0
    6.6533   -1.6488    0.3078 H   0  0  0  0  0  0  0  0  0  0  0  0
    6.7707   -2.5661   -1.9387 H   0  0  0  0  0  0  0  0  0  0  0  0
    6.5893   -4.0485   -0.9747 H   0  0  0  0  0  0  0  0  0  0  0  0
    3.3572   -1.9678   -2.2053 H   0  0  0  0  0  0  0  0  0  0  0  0
    3.1668   -3.0120   -0.7887 H   0  0  0  0  0  0  0  0  0  0  0  0
   -5.0681   -2.6663   -1.1666 H   0  0  0  0  0  0  0  0  0  0  0  0
   -7.1623   -2.3323    0.0802 H   0  0  0  0  0  0  0  0  0  0  0  0
   -7.3420   -0.8559    3.3849 H   0  0  0  0  0  0  0  0  0  0  0  0
   -8.2187   -1.3640    2.0357 H   0  0  0  0  0  0  0  0  0  0  0  0
   -4.9264   -1.0601    3.5258 H   0  0  0  0  0  0  0  0  0  0  0  0
   -2.8231   -1.3902    2.2953 H   0  0  0  0  0  0  0  0  0  0  0  0
  1  2  1  0
  2  3  1  0
  2  4  1  0
  4  5  1  0
  5  6  1  0
  6  7  1  0
  7  8  1  0
  7  9  1  0
  9 10  1  0
 10 11  1  0
 11 12  2  0
 12 13  1  0
 13 14  2  0
 14 15  1  0
 15 16  2  0
  9 17  1  0
 17 18  1  0
 18 19  2  0
 18 20  1  0
 20 21  1  0
 21 22  1  0
 22 23  1  0
 23 24  1  0
 24 25  1  0
  5 26  1  0
 26 27  2  0
 26 28  2  0
 26 29  1  0
 29 30  2  0
 30 31  1  0
 31 32  2  0
 32 33  1  0
 32 34  1  0
 34 35  2  0
 16 11  1  0
 25 21  1  0
 35 29  1  0
  1 36  1  0
  1 37  1  0
  1 38  1  0
  2 39  1  0
  3 40  1  0
  3 41  1  0
  3 42  1  0
  4 43  1  0
  4 44  1  0
  6 45  1  0
  6 46  1  0
  7 47  1  1
  8 48  1  0
  9 49  1  1
 10 50  1  0
 10 51  1  0
 12 52  1  0
 13 53  1  0
 14 54  1  0
 15 55  1  0
 16 56  1  0
 17 57  1  0
 21 58  1  6
 22 59  1  0
 22 60  1  0
 23 61  1  0
 23 62  1  0
 25 63  1  0
 25 64  1  0
 30 65  1  0
 31 66  1  0
 33 67  1  0
 33 68  1  0
 34 69  1  0
 35 70  1  0
M  END
$$$$
