
     RDKit          3D

 52 54  0  0  0  0  0  0  0  0999 V2000
    1.0448   -0.1791   -0.3912 C   0  0  0  0  0  0  0  0  0  0  0  0
   -0.6379   -0.3372    0.1601 S   0  0  0  0  0  6  0  0  0  0  0  0
   -1.4009   -1.0808   -0.8137 O   0  0  0  0  0  0  0  0  0  0  0  0
   -0.6568   -0.6495    1.5708 O   0  0  0  0  0  0  0  0  0  0  0  0
   -1.0573    1.2175    0.0492 O   0  0  0  0  0  0  0  0  0  0  0  0
   -4.0509    0.4099    1.4282 O   0  0  0  0  0  0  0  0  0  0  0  0
   -3.9256    0.4276    0.2117 C   0  0  0  0  0  0  0  0  0  0  0  0
   -4.9579    0.1886   -0.6914 N   0  0  0  0  0  0  0  0  0  0  0  0
   -6.2851   -0.1955   -0.3998 C   0  0  0  0  0  0  0  0  0  0  0  0
   -6.7372   -0.5410    0.8763 C   0  0  0  0  0  0  0  0  0  0  0  0
   -8.0682   -0.9204    1.0833 C   0  0  0  0  0  0  0  0  0  0  0  0
   -8.9596   -0.9619    0.0141 C   0  0  0  0  0  0  0  0  0  0  0  0
   -8.5131   -0.6248   -1.2596 C   0  0  0  0  0  0  0  0  0  0  0  0
   -9.6057   -0.6771   -2.5891 Cl  0  0  0  0  0  0  0  0  0  0  0  0
   -7.1861   -0.2453   -1.4714 C   0  0  0  0  0  0  0  0  0  0  0  0
   -2.7507    0.6831   -0.4681 N   0  0  0  0  0  0  0  0  0  0  0  0
   -1.5868    1.0107    0.1696 C   0  0  0  0  0  0  0  0  0  0  0  0
   -1.3604    1.2584    1.4320 N   0  0  0  0  0  0  0  0  0  0  0  0
   -0.0245    1.5537    1.6109 C   0  0  0  0  0  0  0  0  0  0  0  0
    0.7508    1.5296    0.4679 C   0  0  0  0  0  0  0  0  0  0  0  0
    2.2129    1.7972    0.3124 C   0  0  0  0  0  0  0  0  0  0  0  0
    3.0504    0.5294    0.5197 C   0  0  0  0  0  0  0  0  0  0  0  0
    4.4668    0.8405    0.3547 N   0  0  0  0  0  0  0  0  0  0  0  0
    5.3437   -0.2287    0.5620 C   0  0  0  0  0  0  0  0  0  0  0  0
    4.9831   -1.2703    1.3428 N   0  0  0  0  0  0  0  0  0  0  0  0
    5.8551   -2.2715    1.5349 C   0  0  0  0  0  0  0  0  0  0  0  0
    7.0855   -2.3895    1.0291 N   0  0  0  0  0  0  0  0  0  0  0  0
    7.4559   -1.3495    0.2445 C   0  0  0  0  0  0  0  0  0  0  0  0
    8.7165   -1.2289   -0.4116 C   0  0  0  0  0  0  0  0  0  0  0  0
    8.8198   -0.0686   -1.1439 C   0  0  0  0  0  0  0  0  0  0  0  0
    7.3996    0.8763   -1.0450 S   0  0  0  0  0  0  0  0  0  0  0  0
    6.6241   -0.2638   -0.0097 C   0  0  0  0  0  0  0  0  0  0  0  0
   -0.2390    1.1255   -0.8761 S   0  0  0  0  0  0  0  0  0  0  0  0
    1.5738    0.5002    0.2796 H   0  0  0  0  0  0  0  0  0  0  0  0
    1.5046   -1.1690   -0.3606 H   0  0  0  0  0  0  0  0  0  0  0  0
    1.0459    0.2028   -1.4138 H   0  0  0  0  0  0  0  0  0  0  0  0
   -1.4162    1.4951    0.9197 H   0  0  0  0  0  0  0  0  0  0  0  0
   -4.7699    0.4272   -1.6526 H   0  0  0  0  0  0  0  0  0  0  0  0
   -6.0765   -0.5310    1.7388 H   0  0  0  0  0  0  0  0  0  0  0  0
   -8.4028   -1.1835    2.0841 H   0  0  0  0  0  0  0  0  0  0  0  0
   -9.9918   -1.2569    0.1807 H   0  0  0  0  0  0  0  0  0  0  0  0
   -6.8668    0.0120   -2.4770 H   0  0  0  0  0  0  0  0  0  0  0  0
   -2.6800    0.5003   -1.4529 H   0  0  0  0  0  0  0  0  0  0  0  0
    0.3330    1.7812    2.6087 H   0  0  0  0  0  0  0  0  0  0  0  0
    2.4197    2.2238   -0.6777 H   0  0  0  0  0  0  0  0  0  0  0  0
    2.5195    2.5613    1.0387 H   0  0  0  0  0  0  0  0  0  0  0  0
    2.8565    0.1378    1.5267 H   0  0  0  0  0  0  0  0  0  0  0  0
    2.7502   -0.2390   -0.2043 H   0  0  0  0  0  0  0  0  0  0  0  0
    4.7094    1.3502   -0.4899 H   0  0  0  0  0  0  0  0  0  0  0  0
    5.5188   -3.0808    2.1757 H   0  0  0  0  0  0  0  0  0  0  0  0
    9.5053   -1.9666   -0.3405 H   0  0  0  0  0  0  0  0  0  0  0  0
    9.6619    0.2703   -1.7322 H   0  0  0  0  0  0  0  0  0  0  0  0
  1  2  1  0
  2  3  2  0
  2  4  2  0
  2  5  1  0
  6  7  2  0
  7  8  1  0
  8  9  1  0
  9 10  2  0
 10 11  1  0
 11 12  2  0
 12 13  1  0
 13 14  1  0
 13 15  2  0
  7 16  1  0
 16 17  1  0
 17 18  2  0
 18 19  1  0
 19 20  2  0
 20 21  1  0
 21 22  1  0
 22 23  1  0
 23 24  1  0
 24 25  2  0
 25 26  1  0
 26 27  2  0
 27 28  1  0
 28 29  1  0
 29 30  2  0
 30 31  1  0
 31 32  1  0
 20 33  1  0
 15  9  1  0
 33 17  1  0
 32 24  1  0
 32 28  2  0
  1 34  1  0
  1 35  1  0
  1 36  1  0
  5 37  1  0
  8 38  1  0
 10 39  1  0
 11 40  1  0
 12 41  1  0
 15 42  1  0
 16 43  1  0
 19 44  1  0
 21 45  1  0
 21 46  1  0
 22 47  1  0
 22 48  1  0
 23 49  1  0
 26 50  1  0
 29 51  1  0
 30 52  1  0
M  END
$$$$
