
     RDKit          3D

 37 40  0  0  0  0  0  0  0  0999 V2000
   -2.4862   -3.2715   -1.3727 C   0  0  0  0  0  0  0  0  0  0  0  0
   -1.6650   -2.0707   -0.9763 C   0  0  0  0  0  0  0  0  0  0  0  0
   -0.4569   -2.0347   -1.2151 O   0  0  0  0  0  0  0  0  0  0  0  0
   -2.3345   -0.9134   -0.2876 C   0  0  0  0  0  0  0  0  0  0  0  0
   -3.7375   -0.8950   -0.1894 C   0  0  0  0  0  0  0  0  0  0  0  0
   -4.3295    0.1752    0.4434 C   0  0  0  0  0  0  0  0  0  0  0  0
   -3.5921    1.2054    0.9671 C   0  0  0  0  0  0  0  0  0  0  0  0
   -2.2152    1.2288    0.8902 C   0  0  0  0  0  0  0  0  0  0  0  0
   -1.5599    0.1610    0.2580 C   0  0  0  0  0  0  0  0  0  0  0  0
   -0.1472    0.1213    0.1365 N   0  0  0  0  0  0  0  0  0  0  0  0
    0.7865    1.0070    0.6352 C   0  0  0  0  0  0  0  0  0  0  0  0
    0.5602    1.9782    1.3472 O   0  0  0  0  0  0  0  0  0  0  0  0
    2.2065    0.7038    0.2843 C   0  0  0  0  0  0  0  0  0  0  0  0
    2.5601    0.0685   -0.9289 C   0  0  0  0  0  0  0  0  0  0  0  0
    3.9014   -0.1962   -1.2298 C   0  0  0  0  0  0  0  0  0  0  0  0
    4.8539    0.1909   -0.3124 C   0  0  0  0  0  0  0  0  0  0  0  0
    4.5156    0.8216    0.8618 C   0  0  0  0  0  0  0  0  0  0  0  0
    3.2052    1.0973    1.1885 C   0  0  0  0  0  0  0  0  0  0  0  0
    5.6038    1.1223    1.6200 O   0  0  0  0  0  0  0  0  0  0  0  0
    6.6659    0.6136    0.7869 C   0  0  0  0  0  0  0  0  0  0  0  0
    6.1961    0.0170   -0.4403 O   0  0  0  0  0  0  0  0  0  0  0  0
   -4.3724    2.1591    1.5426 O   0  0  0  0  0  0  0  0  0  0  0  0
   -5.6868    1.6094    1.3236 C   0  0  0  0  0  0  0  0  0  0  0  0
   -5.6663    0.3474    0.6218 O   0  0  0  0  0  0  0  0  0  0  0  0
   -3.0377   -3.6601   -0.5126 H   0  0  0  0  0  0  0  0  0  0  0  0
   -3.1637   -3.0119   -2.1899 H   0  0  0  0  0  0  0  0  0  0  0  0
   -1.8161   -4.0641   -1.7208 H   0  0  0  0  0  0  0  0  0  0  0  0
   -4.3707   -1.6763   -0.5921 H   0  0  0  0  0  0  0  0  0  0  0  0
   -1.6877    2.0737    1.3163 H   0  0  0  0  0  0  0  0  0  0  0  0
    0.2044   -0.7047   -0.3520 H   0  0  0  0  0  0  0  0  0  0  0  0
    1.8036   -0.2071   -1.6602 H   0  0  0  0  0  0  0  0  0  0  0  0
    4.1841   -0.6828   -2.1568 H   0  0  0  0  0  0  0  0  0  0  0  0
    2.9594    1.6012    2.1179 H   0  0  0  0  0  0  0  0  0  0  0  0
    7.3432    1.4389    0.5388 H   0  0  0  0  0  0  0  0  0  0  0  0
    7.2239   -0.1416    1.3524 H   0  0  0  0  0  0  0  0  0  0  0  0
   -6.1734    1.4625    2.2947 H   0  0  0  0  0  0  0  0  0  0  0  0
   -6.2751    2.3259    0.7390 H   0  0  0  0  0  0  0  0  0  0  0  0
  1  2  1  0
  2  3  2  0
  2  4  1  0
  4  5  2  0
  5  6  1  0
  6  7  2  0
  7  8  1  0
  8  9  2  0
  9 10  1  0
 10 11  1  0
 11 12  2  0
 11 13  1  0
 13 14  2  0
 14 15  1  0
 15 16  2  0
 16 17  1  0
 17 18  2  0
 17 19  1  0
 19 20  1  0
 20 21  1  0
  7 22  1  0
 22 23  1  0
 23 24  1  0
  9  4  1  0
 18 13  1  0
 24  6  1  0
 21 16  1  0
  1 25  1  0
  1 26  1  0
  1 27  1  0
  5 28  1  0
  8 29  1  0
 10 30  1  0
 14 31  1  0
 15 32  1  0
 18 33  1  0
 20 34  1  0
 20 35  1  0
 23 36  1  0
 23 37  1  0
M  END
$$$$
