
     RDKit          3D

 32 34  0  0  0  0  0  0  0  0999 V2000
   -0.8079   -1.4474    1.0737 O   0  0  0  0  0  0  0  0  0  0  0  0
   -0.6785   -0.4584    0.3507 C   0  0  0  0  0  0  0  0  0  0  0  0
   -1.7132    0.2883   -0.1667 N   0  0  0  0  0  0  0  0  0  0  0  0
   -3.1000    0.0964    0.0078 C   0  0  0  0  0  0  0  0  0  0  0  0
   -3.9510    1.0071   -0.6335 C   0  0  0  0  0  0  0  0  0  0  0  0
   -5.3387    0.8939   -0.5162 C   0  0  0  0  0  0  0  0  0  0  0  0
   -5.8902   -0.1326    0.2447 C   0  0  0  0  0  0  0  0  0  0  0  0
   -5.0534   -1.0426    0.8860 C   0  0  0  0  0  0  0  0  0  0  0  0
   -3.6637   -0.9292    0.7684 C   0  0  0  0  0  0  0  0  0  0  0  0
    0.7093   -0.0007   -0.0173 C   0  0  0  0  0  0  0  0  0  0  0  0
    1.7639   -0.6948    0.4613 C   0  0  0  0  0  0  0  0  0  0  0  0
    1.6745   -1.8111    1.2759 O   0  0  0  0  0  0  0  0  0  0  0  0
    3.1349   -0.2959    0.1365 C   0  0  0  0  0  0  0  0  0  0  0  0
    4.2653   -0.9777    0.6042 C   0  0  0  0  0  0  0  0  0  0  0  0
    5.5512   -0.5477    0.2589 C   0  0  0  0  0  0  0  0  0  0  0  0
    5.7216    0.5694   -0.5584 C   0  0  0  0  0  0  0  0  0  0  0  0
    4.6067    1.2569   -1.0307 C   0  0  0  0  0  0  0  0  0  0  0  0
    3.3327    0.8136   -0.6759 C   0  0  0  0  0  0  0  0  0  0  0  0
    2.2432    1.5397   -1.1770 O   0  0  0  0  0  0  0  0  0  0  0  0
    0.9382    1.1793   -0.8818 C   0  0  0  0  0  0  0  0  0  0  0  0
   -0.0009    1.8327   -1.3338 O   0  0  0  0  0  0  0  0  0  0  0  0
   -1.4597    1.0853   -0.7531 H   0  0  0  0  0  0  0  0  0  0  0  0
   -3.5453    1.8181   -1.2340 H   0  0  0  0  0  0  0  0  0  0  0  0
   -5.9864    1.6072   -1.0191 H   0  0  0  0  0  0  0  0  0  0  0  0
   -6.9690   -0.2243    0.3386 H   0  0  0  0  0  0  0  0  0  0  0  0
   -5.4792   -1.8463    1.4816 H   0  0  0  0  0  0  0  0  0  0  0  0
   -3.0537   -1.6616    1.2861 H   0  0  0  0  0  0  0  0  0  0  0  0
    0.7238   -2.0073    1.4427 H   0  0  0  0  0  0  0  0  0  0  0  0
    4.1559   -1.8520    1.2433 H   0  0  0  0  0  0  0  0  0  0  0  0
    6.4190   -1.0879    0.6303 H   0  0  0  0  0  0  0  0  0  0  0  0
    6.7217    0.9017   -0.8253 H   0  0  0  0  0  0  0  0  0  0  0  0
    4.7290    2.1281   -1.6678 H   0  0  0  0  0  0  0  0  0  0  0  0
  1  2  2  0
  2  3  1  0
  3  4  1  0
  4  5  2  0
  5  6  1  0
  6  7  2  0
  7  8  1  0
  8  9  2  0
  2 10  1  0
 10 11  2  0
 11 12  1  0
 11 13  1  0
 13 14  2  0
 14 15  1  0
 15 16  2  0
 16 17  1  0
 17 18  2  0
 18 19  1  0
 19 20  1  0
 20 21  2  0
  9  4  1  0
 20 10  1  0
 18 13  1  0
  3 22  1  0
  5 23  1  0
  6 24  1  0
  7 25  1  0
  8 26  1  0
  9 27  1  0
 12 28  1  0
 14 29  1  0
 15 30  1  0
 16 31  1  0
 17 32  1  0
M  END
$$$$
