
     RDKit          3D

 27 26  0  0  0  0  0  0  0  0999 V2000
    4.3077    1.2120   -0.5014 C   0  0  0  0  0  0  0  0  0  0  0  0
    3.1642    0.9875   -0.1873 C   0  0  0  0  0  0  0  0  0  0  0  0
    1.7542    0.7326    0.2137 C   0  0  0  0  0  0  0  0  0  0  0  0
    1.3017   -0.5346   -0.1037 N   0  0  0  0  0  0  0  0  0  0  0  0
    1.8610   -1.6052    0.5989 C   0  0  0  0  0  0  0  0  0  0  0  0
    0.2409   -0.8134   -0.9394 C   0  0  0  0  0  0  0  0  0  0  0  0
   -1.0806   -0.2522   -0.5388 C   0  0  0  0  0  0  0  0  0  0  0  0
   -1.9470   -0.9419    0.2849 C   0  0  0  0  0  0  0  0  0  0  0  0
   -3.1678   -0.4060    0.6408 C   0  0  0  0  0  0  0  0  0  0  0  0
   -3.5449    0.8441    0.1724 C   0  0  0  0  0  0  0  0  0  0  0  0
   -2.6563    1.5032   -0.6459 C   0  0  0  0  0  0  0  0  0  0  0  0
   -1.4229    0.9946   -1.0229 C   0  0  0  0  0  0  0  0  0  0  0  0
    0.6856    0.0000    0.0000 Cl  0  0  0  0  0  0  0  0  0  0  0  0
    5.3048    1.4214   -0.7856 H   0  0  0  0  0  0  0  0  0  0  0  0
    1.1926    1.5841   -0.2348 H   0  0  0  0  0  0  0  0  0  0  0  0
    1.7702    0.8549    1.3292 H   0  0  0  0  0  0  0  0  0  0  0  0
    2.8712   -1.8371    0.1473 H   0  0  0  0  0  0  0  0  0  0  0  0
    1.2524   -2.5340    0.6305 H   0  0  0  0  0  0  0  0  0  0  0  0
    2.0859   -1.2545    1.6493 H   0  0  0  0  0  0  0  0  0  0  0  0
    0.0778   -1.9334   -1.0101 H   0  0  0  0  0  0  0  0  0  0  0  0
    0.4075   -0.4880   -2.0128 H   0  0  0  0  0  0  0  0  0  0  0  0
   -1.7050   -1.9189    0.6788 H   0  0  0  0  0  0  0  0  0  0  0  0
   -3.8794   -0.9171    1.2852 H   0  0  0  0  0  0  0  0  0  0  0  0
   -4.5077    1.2642    0.4553 H   0  0  0  0  0  0  0  0  0  0  0  0
   -2.9181    2.4782   -1.0298 H   0  0  0  0  0  0  0  0  0  0  0  0
   -0.7626    1.5593   -1.6705 H   0  0  0  0  0  0  0  0  0  0  0  0
   -0.6856    0.0000    0.0000 H   0  0  0  0  0  0  0  0  0  0  0  0
  1  2  3  0
  2  3  1  0
  3  4  1  0
  4  5  1  0
  4  6  1  0
  6  7  1  0
  7  8  2  0
  8  9  1  0
  9 10  2  0
 10 11  1  0
 11 12  2  0
 12  7  1  0
  1 14  1  0
  3 15  1  0
  3 16  1  0
  5 17  1  0
  5 18  1  0
  5 19  1  0
  6 20  1  0
  6 21  1  0
  8 22  1  0
  9 23  1  0
 10 24  1  0
 11 25  1  0
 12 26  1  0
 13 27  1  0
M  END
$$$$
