
     RDKit          3D

 42 42  0  0  0  0  0  0  0  0999 V2000
   -3.5216    1.5410   -0.2793 C   0  0  0  0  0  0  0  0  0  0  0  0
   -2.8596    0.9482    0.9356 C   0  0  0  0  0  0  0  0  0  0  0  0
   -1.6643    0.1427    0.5497 N   0  0  0  0  0  0  0  0  0  0  0  0
   -1.9715   -1.2088    0.2169 C   0  0  0  0  0  0  0  0  0  0  0  0
   -2.3897   -1.3220   -1.2645 C   0  0  0  0  0  0  0  0  0  0  0  0
   -0.4539    0.8371    0.4992 C   0  0  0  0  0  0  0  0  0  0  0  0
   -0.5915    2.1217    0.7022 O   0  0  0  0  0  0  0  0  0  0  0  0
    0.9237    0.4375    0.2641 C   0  0  2  0  0  0  0  0  0  0  0  0
    1.2795   -0.9969    0.3022 C   0  0  0  0  0  0  0  0  0  0  0  0
    1.8554   -1.5842   -0.7980 C   0  0  0  0  0  0  0  0  0  0  0  0
    2.2765   -2.9239   -0.7473 C   0  0  0  0  0  0  0  0  0  0  0  0
    2.1063   -3.6451    0.4186 C   0  0  0  0  0  0  0  0  0  0  0  0
    1.5353   -3.0548    1.5020 C   0  0  0  0  0  0  0  0  0  0  0  0
    1.1301   -1.7451    1.4339 C   0  0  0  0  0  0  0  0  0  0  0  0
    1.9525    1.3823    0.9405 C   0  0  0  0  0  0  0  0  0  0  0  0
    1.8287    1.2642   -0.5739 C   0  0  2  0  0  0  0  0  0  0  0  0
    1.3543    2.5240   -1.2442 C   0  0  0  0  0  0  0  0  0  0  0  0
    2.4452    3.1222   -1.9935 N   0  0  0  0  0  0  0  0  0  0  0  0
    0.6851    0.0000    0.0000 Cl  0  0  0  0  0  0  0  0  0  0  0  0
   -4.2418    0.8249   -0.6973 H   0  0  0  0  0  0  0  0  0  0  0  0
   -2.8008    1.9421   -1.0210 H   0  0  0  0  0  0  0  0  0  0  0  0
   -4.1351    2.4101    0.1028 H   0  0  0  0  0  0  0  0  0  0  0  0
   -3.5968    0.2970    1.4361 H   0  0  0  0  0  0  0  0  0  0  0  0
   -2.5647    1.7297    1.6621 H   0  0  0  0  0  0  0  0  0  0  0  0
   -1.2561   -1.9827    0.3684 H   0  0  0  0  0  0  0  0  0  0  0  0
   -2.8796   -1.5096    0.8331 H   0  0  0  0  0  0  0  0  0  0  0  0
   -1.6846   -1.9465   -1.8375 H   0  0  0  0  0  0  0  0  0  0  0  0
   -2.3494   -0.3115   -1.7079 H   0  0  0  0  0  0  0  0  0  0  0  0
   -3.3784   -1.8010   -1.3358 H   0  0  0  0  0  0  0  0  0  0  0  0
    2.0158   -1.0744   -1.7370 H   0  0  0  0  0  0  0  0  0  0  0  0
    2.7289   -3.4135   -1.5851 H   0  0  0  0  0  0  0  0  0  0  0  0
    2.4241   -4.6912    0.4900 H   0  0  0  0  0  0  0  0  0  0  0  0
    1.4091   -3.6402    2.4145 H   0  0  0  0  0  0  0  0  0  0  0  0
    0.6822   -1.2986    2.2989 H   0  0  0  0  0  0  0  0  0  0  0  0
    2.8172    0.9014    1.4352 H   0  0  0  0  0  0  0  0  0  0  0  0
    1.5845    2.2751    1.4465 H   0  0  0  0  0  0  0  0  0  0  0  0
    2.6778    0.7584   -1.0557 H   0  0  0  0  0  0  0  0  0  0  0  0
    1.0363    3.3088   -0.5025 H   0  0  0  0  0  0  0  0  0  0  0  0
    0.5143    2.3847   -1.9260 H   0  0  0  0  0  0  0  0  0  0  0  0
    2.4126    4.1556   -2.0008 H   0  0  0  0  0  0  0  0  0  0  0  0
    3.3491    2.8411   -1.5528 H   0  0  0  0  0  0  0  0  0  0  0  0
   -0.6851    0.0000    0.0000 H   0  0  0  0  0  0  0  0  0  0  0  0
  1  2  1  0
  2  3  1  0
  3  4  1  0
  4  5  1  0
  3  6  1  0
  6  7  2  0
  8  6  1  6
  8  9  1  0
  9 10  2  0
 10 11  1  0
 11 12  2  0
 12 13  1  0
 13 14  2  0
  8 15  1  0
 15 16  1  0
 16 17  1  0
 17 18  1  0
 16  8  1  0
 14  9  1  0
  1 20  1  0
  1 21  1  0
  1 22  1  0
  2 23  1  0
  2 24  1  0
  4 25  1  0
  4 26  1  0
  5 27  1  0
  5 28  1  0
  5 29  1  0
 10 30  1  0
 11 31  1  0
 12 32  1  0
 13 33  1  0
 14 34  1  0
 15 35  1  0
 15 36  1  0
 16 37  1  6
 17 38  1  0
 17 39  1  0
 18 40  1  0
 18 41  1  0
 19 42  1  0
M  END
$$$$
