
     RDKit          3D

 32 33  0  0  0  0  0  0  0  0999 V2000
    5.0524   -0.9447   -0.6713 O   0  0  0  0  0  0  0  0  0  0  0  0
    4.5172    0.1359   -0.8539 C   0  0  0  0  0  0  0  0  0  0  0  0
    4.3030    0.5969   -2.0994 O   0  0  0  0  0  0  0  0  0  0  0  0
    4.0706    1.0925    0.2161 C   0  0  0  0  0  0  0  0  0  0  0  0
    2.5809    1.4193    0.1444 C   0  0  0  0  0  0  0  0  0  0  0  0
    1.6980    0.2033    0.4453 C   0  0  0  0  0  0  0  0  0  0  0  0
    0.2113    0.5817    0.4249 C   0  0  0  0  0  0  0  0  0  0  0  0
   -0.7185   -0.5850    0.7782 C   0  0  2  0  0  0  0  0  0  0  0  0
   -0.7389   -1.9015   -0.4839 S   0  0  0  0  0  0  0  0  0  0  0  0
   -2.5339   -2.1368   -0.4781 C   0  0  0  0  0  0  0  0  0  0  0  0
   -3.0946   -1.3640    0.7188 C   0  0  2  0  0  0  0  0  0  0  0  0
   -4.3364   -0.7016    0.3850 N   0  0  0  0  0  0  0  0  0  0  0  0
   -4.0839    0.5795   -0.0828 C   0  0  0  0  0  0  0  0  0  0  0  0
   -4.8989    1.3386   -0.5686 O   0  0  0  0  0  0  0  0  0  0  0  0
   -2.7351    0.8443    0.1172 N   0  0  0  0  0  0  0  0  0  0  0  0
   -2.1748   -0.1684    0.9866 C   0  0  2  0  0  0  0  0  0  0  0  0
    4.6396   -0.1181   -2.6796 H   0  0  0  0  0  0  0  0  0  0  0  0
    4.6661    2.0071    0.1167 H   0  0  0  0  0  0  0  0  0  0  0  0
    4.3153    0.6567    1.1916 H   0  0  0  0  0  0  0  0  0  0  0  0
    2.3277    1.8198   -0.8446 H   0  0  0  0  0  0  0  0  0  0  0  0
    2.3648    2.2103    0.8729 H   0  0  0  0  0  0  0  0  0  0  0  0
    1.8968   -0.5815   -0.2921 H   0  0  0  0  0  0  0  0  0  0  0  0
    1.9577   -0.2027    1.4304 H   0  0  0  0  0  0  0  0  0  0  0  0
    0.0507    1.3875    1.1531 H   0  0  0  0  0  0  0  0  0  0  0  0
   -0.0458    0.9940   -0.5593 H   0  0  0  0  0  0  0  0  0  0  0  0
   -0.3658   -1.0627    1.7004 H   0  0  0  0  0  0  0  0  0  0  0  0
   -2.9316   -1.7764   -1.4332 H   0  0  0  0  0  0  0  0  0  0  0  0
   -2.7773   -3.2012   -0.4038 H   0  0  0  0  0  0  0  0  0  0  0  0
   -3.2276   -2.0037    1.5968 H   0  0  0  0  0  0  0  0  0  0  0  0
   -5.2245   -1.1434    0.1843 H   0  0  0  0  0  0  0  0  0  0  0  0
   -2.4496    1.8150    0.0886 H   0  0  0  0  0  0  0  0  0  0  0  0
   -2.3149    0.2090    2.0084 H   0  0  0  0  0  0  0  0  0  0  0  0
  1  2  2  0
  2  3  1  0
  2  4  1  0
  4  5  1  0
  5  6  1  0
  6  7  1  0
  7  8  1  0
  8  9  1  0
  9 10  1  0
 10 11  1  0
 11 12  1  0
 12 13  1  0
 13 14  2  0
 13 15  1  0
 15 16  1  0
 16  8  1  0
 16 11  1  0
  3 17  1  0
  4 18  1  0
  4 19  1  0
  5 20  1  0
  5 21  1  0
  6 22  1  0
  6 23  1  0
  7 24  1  0
  7 25  1  0
  8 26  1  1
 10 27  1  0
 10 28  1  0
 11 29  1  1
 12 30  1  0
 15 31  1  0
 16 32  1  1
M  END
$$$$
