
     RDKit          3D

 49 52  0  0  0  0  0  0  0  0999 V2000
    5.5394    2.4535    1.6715 C   0  0  0  0  0  0  0  0  0  0  0  0
    5.1977    1.2921    0.8220 C   0  0  0  0  0  0  0  0  0  0  0  0
    5.9156    0.0831    0.6839 C   0  0  0  0  0  0  0  0  0  0  0  0
    5.3415   -0.7645   -0.1730 N   0  0  0  0  0  0  0  0  0  0  0  0
    4.2350   -0.1044   -0.5791 N   0  0  0  0  0  0  0  0  0  0  0  0
    3.3365   -0.7163   -1.5497 C   0  0  0  0  0  0  0  0  0  0  0  0
    2.2950   -1.5325   -0.8687 C   0  0  0  0  0  0  0  0  0  0  0  0
    0.9284   -1.1943   -0.5831 C   0  0  0  0  0  0  0  0  0  0  0  0
    0.2486    0.0814   -0.8876 C   0  0  0  0  0  0  0  0  0  0  0  0
    0.8980    1.0400   -1.3137 O   0  0  0  0  0  0  0  0  0  0  0  0
   -1.1232    0.2131   -0.7043 N   0  0  0  0  0  0  0  0  0  0  0  0
   -2.0923   -0.8117   -0.3381 C   0  0  0  0  0  0  0  0  0  0  0  0
   -3.4687   -0.1686   -0.5673 C   0  0  1  0  0  0  0  0  0  0  0  0
   -4.5425   -0.7731    0.3415 C   0  0  0  0  0  0  0  0  0  0  0  0
   -5.8379    0.0359    0.4252 C   0  0  0  0  0  0  0  0  0  0  0  0
   -5.7277    1.4625    0.9733 C   0  0  0  0  0  0  0  0  0  0  0  0
   -4.4486    1.7658    1.7264 C   0  0  0  0  0  0  0  0  0  0  0  0
   -4.4310    2.0319    2.9239 O   0  0  0  0  0  0  0  0  0  0  0  0
   -3.2856    1.7339    1.0055 N   0  0  0  0  0  0  0  0  0  0  0  0
   -3.1898    1.3301   -0.3882 C   0  0  1  0  0  0  0  0  0  0  0  0
   -1.7777    1.4842   -0.9612 C   0  0  0  0  0  0  0  0  0  0  0  0
    0.3271   -2.2168    0.0483 N   0  0  0  0  0  0  0  0  0  0  0  0
    1.2668   -3.2097    0.1859 O   0  0  0  0  0  0  0  0  0  0  0  0
    2.4396   -2.8055   -0.3567 C   0  0  0  0  0  0  0  0  0  0  0  0
    3.5648   -3.7566   -0.2635 C   0  0  0  0  0  0  0  0  0  0  0  0
    4.1167    1.1368   -0.0193 C   0  0  0  0  0  0  0  0  0  0  0  0
    4.7006    3.1533    1.7445 H   0  0  0  0  0  0  0  0  0  0  0  0
    6.3968    2.9908    1.2540 H   0  0  0  0  0  0  0  0  0  0  0  0
    5.7962    2.1285    2.6846 H   0  0  0  0  0  0  0  0  0  0  0  0
    6.8360   -0.2102    1.1731 H   0  0  0  0  0  0  0  0  0  0  0  0
    3.9491   -1.3411   -2.2112 H   0  0  0  0  0  0  0  0  0  0  0  0
    2.9217    0.0810   -2.1712 H   0  0  0  0  0  0  0  0  0  0  0  0
   -1.9309   -1.0651    0.7153 H   0  0  0  0  0  0  0  0  0  0  0  0
   -1.9666   -1.7031   -0.9596 H   0  0  0  0  0  0  0  0  0  0  0  0
   -3.7555   -0.3318   -1.6160 H   0  0  0  0  0  0  0  0  0  0  0  0
   -4.1513   -0.9179    1.3571 H   0  0  0  0  0  0  0  0  0  0  0  0
   -4.7796   -1.7804   -0.0244 H   0  0  0  0  0  0  0  0  0  0  0  0
   -6.5339   -0.5206    1.0664 H   0  0  0  0  0  0  0  0  0  0  0  0
   -6.3134    0.0714   -0.5629 H   0  0  0  0  0  0  0  0  0  0  0  0
   -6.5742    1.6605    1.6421 H   0  0  0  0  0  0  0  0  0  0  0  0
   -5.8262    2.1898    0.1585 H   0  0  0  0  0  0  0  0  0  0  0  0
   -2.4439    1.8631    1.5578 H   0  0  0  0  0  0  0  0  0  0  0  0
   -3.8943    1.9438   -0.9594 H   0  0  0  0  0  0  0  0  0  0  0  0
   -1.8110    1.6168   -2.0490 H   0  0  0  0  0  0  0  0  0  0  0  0
   -1.2134    2.3119   -0.5201 H   0  0  0  0  0  0  0  0  0  0  0  0
    4.1428   -3.5721    0.6472 H   0  0  0  0  0  0  0  0  0  0  0  0
    3.2039   -4.7898   -0.2366 H   0  0  0  0  0  0  0  0  0  0  0  0
    4.2340   -3.6584   -1.1237 H   0  0  0  0  0  0  0  0  0  0  0  0
    3.2878    1.7895   -0.2596 H   0  0  0  0  0  0  0  0  0  0  0  0
  1  2  1  0
  2  3  1  0
  3  4  2  0
  4  5  1  0
  5  6  1  0
  6  7  1  0
  7  8  1  0
  8  9  1  0
  9 10  2  0
  9 11  1  0
 11 12  1  0
 12 13  1  0
 13 14  1  0
 14 15  1  0
 15 16  1  0
 16 17  1  0
 17 18  2  0
 17 19  1  0
 19 20  1  0
 20 21  1  0
  8 22  2  0
 22 23  1  0
 23 24  1  0
 24 25  1  0
  5 26  1  0
 26  2  2  0
 24  7  2  0
 21 11  1  0
 20 13  1  0
  1 27  1  0
  1 28  1  0
  1 29  1  0
  3 30  1  0
  6 31  1  0
  6 32  1  0
 12 33  1  0
 12 34  1  0
 13 35  1  6
 14 36  1  0
 14 37  1  0
 15 38  1  0
 15 39  1  0
 16 40  1  0
 16 41  1  0
 19 42  1  0
 20 43  1  6
 21 44  1  0
 21 45  1  0
 25 46  1  0
 25 47  1  0
 25 48  1  0
 26 49  1  0
M  END
$$$$
