
     RDKit          3D

 26 27  0  0  0  0  0  0  0  0999 V2000
    4.8228    0.8032   -0.1252 N   0  0  0  0  0  0  0  0  0  0  0  0
    3.4584    0.7187   -0.1413 C   0  0  0  0  0  0  0  0  0  0  0  0
    2.8066   -0.6007   -0.0362 C   0  0  0  0  0  0  0  0  0  0  0  0
    1.4754   -0.5961   -0.0754 C   0  0  0  0  0  0  0  0  0  0  0  0
    0.7729    0.5805   -0.2084 N   0  0  0  0  0  0  0  0  0  0  0  0
   -0.6855    0.6139   -0.2126 C   0  0  2  0  0  0  0  0  0  0  0  0
   -1.2634    0.9929    1.1564 C   0  0  0  0  0  0  0  0  0  0  0  0
   -2.9831    0.4513    1.0627 S   0  0  0  0  0  0  0  0  0  0  0  0
   -2.6377   -0.6227   -0.3642 C   0  0  2  0  0  0  0  0  0  0  0  0
   -3.1851   -2.0361   -0.1359 C   0  0  0  0  0  0  0  0  0  0  0  0
   -4.6026   -2.0490    0.0165 O   0  0  0  0  0  0  0  0  0  0  0  0
   -1.2209   -0.6770   -0.5616 O   0  0  0  0  0  0  0  0  0  0  0  0
    1.4281    1.8148   -0.2618 C   0  0  0  0  0  0  0  0  0  0  0  0
    0.7858    2.8624   -0.3098 O   0  0  0  0  0  0  0  0  0  0  0  0
    2.8014    1.8311   -0.2409 N   0  0  0  0  0  0  0  0  0  0  0  0
    5.3204    0.1286    0.4421 H   0  0  0  0  0  0  0  0  0  0  0  0
    5.1429    1.7568    0.0184 H   0  0  0  0  0  0  0  0  0  0  0  0
    3.3993   -1.4991    0.0502 H   0  0  0  0  0  0  0  0  0  0  0  0
    0.9127   -1.5220   -0.0114 H   0  0  0  0  0  0  0  0  0  0  0  0
   -1.0119    1.3290   -0.9813 H   0  0  0  0  0  0  0  0  0  0  0  0
   -0.7748    0.4363    1.9628 H   0  0  0  0  0  0  0  0  0  0  0  0
   -1.1836    2.0619    1.3699 H   0  0  0  0  0  0  0  0  0  0  0  0
   -3.1071   -0.1753   -1.2475 H   0  0  0  0  0  0  0  0  0  0  0  0
   -2.7278   -2.5070    0.7422 H   0  0  0  0  0  0  0  0  0  0  0  0
   -2.9328   -2.6721   -0.9914 H   0  0  0  0  0  0  0  0  0  0  0  0
   -4.8101   -1.4244    0.7376 H   0  0  0  0  0  0  0  0  0  0  0  0
  1  2  1  0
  2  3  1  0
  3  4  2  0
  4  5  1  0
  5  6  1  0
  6  7  1  0
  7  8  1  0
  8  9  1  0
  9 10  1  0
 10 11  1  0
  9 12  1  0
  5 13  1  0
 13 14  2  0
 13 15  1  0
 15  2  2  0
 12  6  1  0
  1 16  1  0
  1 17  1  0
  3 18  1  0
  4 19  1  0
  6 20  1  6
  7 21  1  0
  7 22  1  0
  9 23  1  6
 10 24  1  0
 10 25  1  0
 11 26  1  0
M  END
$$$$
