
     RDKit          3D

 47 48  0  0  0  0  0  0  0  0999 V2000
    4.2475    0.3097    1.6577 C   0  0  0  0  0  0  0  0  0  0  0  0
    4.1573   -0.5554    0.4996 N   0  0  0  0  0  0  0  0  0  0  0  0
    5.4030   -0.5222   -0.2437 C   0  0  0  0  0  0  0  0  0  0  0  0
    3.1203   -0.1227   -0.4027 C   0  0  0  0  0  0  0  0  0  0  0  0
    1.7240   -0.3282    0.2492 C   0  0  0  0  0  0  0  0  0  0  0  0
    0.6507    0.1070   -0.6475 C   0  0  0  0  0  0  0  0  0  0  0  0
   -0.7133    0.0436   -0.3336 N   0  0  0  0  0  0  0  0  0  0  0  0
   -1.4381   -1.1960   -0.3036 C   0  0  0  0  0  0  0  0  0  0  0  0
   -0.6386   -2.2398   -0.6904 C   0  0  0  0  0  0  0  0  0  0  0  0
   -1.1115   -3.5309   -0.7462 C   0  0  0  0  0  0  0  0  0  0  0  0
   -2.4300   -3.7624   -0.4004 C   0  0  0  0  0  0  0  0  0  0  0  0
   -3.2637   -2.7436   -0.0083 C   0  0  0  0  0  0  0  0  0  0  0  0
   -2.7768   -1.4651    0.0417 C   0  0  0  0  0  0  0  0  0  0  0  0
   -3.8302   -0.5102    0.4690 C   0  0  0  0  0  0  0  0  0  0  0  0
   -3.8143    0.6588   -0.5066 C   0  0  0  0  0  0  0  0  0  0  0  0
   -2.7331    1.6041   -0.1174 C   0  0  0  0  0  0  0  0  0  0  0  0
   -3.1862    2.8551    0.2004 C   0  0  0  0  0  0  0  0  0  0  0  0
   -2.2694    3.8053    0.6120 C   0  0  0  0  0  0  0  0  0  0  0  0
   -0.9288    3.5215    0.7076 C   0  0  0  0  0  0  0  0  0  0  0  0
    0.2575    4.6768    1.2182 Cl  0  0  0  0  0  0  0  0  0  0  0  0
   -0.4964    2.2356    0.3761 C   0  0  0  0  0  0  0  0  0  0  0  0
   -1.3739    1.2731   -0.0355 C   0  0  0  0  0  0  0  0  0  0  0  0
    0.6859    0.0000    0.0000 Cl  0  0  0  0  0  0  0  0  0  0  0  0
    5.3340    0.4714    1.8612 H   0  0  0  0  0  0  0  0  0  0  0  0
    3.8189   -0.1351    2.5635 H   0  0  0  0  0  0  0  0  0  0  0  0
    3.8096    1.2957    1.4378 H   0  0  0  0  0  0  0  0  0  0  0  0
    5.4669   -1.4670   -0.8208 H   0  0  0  0  0  0  0  0  0  0  0  0
    6.2877   -0.4884    0.4267 H   0  0  0  0  0  0  0  0  0  0  0  0
    5.4459    0.3736   -0.9246 H   0  0  0  0  0  0  0  0  0  0  0  0
    3.2916    0.9557   -0.6009 H   0  0  0  0  0  0  0  0  0  0  0  0
    3.1183   -0.7004   -1.3223 H   0  0  0  0  0  0  0  0  0  0  0  0
    1.7519    0.2004    1.2458 H   0  0  0  0  0  0  0  0  0  0  0  0
    1.8121   -1.3871    0.5438 H   0  0  0  0  0  0  0  0  0  0  0  0
    0.9829    1.1151   -1.0768 H   0  0  0  0  0  0  0  0  0  0  0  0
    0.7559   -0.3997   -1.6893 H   0  0  0  0  0  0  0  0  0  0  0  0
    0.3448   -2.0591   -0.9607 H   0  0  0  0  0  0  0  0  0  0  0  0
   -0.4878   -4.3523   -1.0484 H   0  0  0  0  0  0  0  0  0  0  0  0
   -2.7998   -4.7864   -0.4462 H   0  0  0  0  0  0  0  0  0  0  0  0
   -4.2826   -2.9370    0.2564 H   0  0  0  0  0  0  0  0  0  0  0  0
   -3.6176   -0.1720    1.4871 H   0  0  0  0  0  0  0  0  0  0  0  0
   -4.8135   -0.9924    0.4087 H   0  0  0  0  0  0  0  0  0  0  0  0
   -4.7909    1.1718   -0.4087 H   0  0  0  0  0  0  0  0  0  0  0  0
   -3.6633    0.3136   -1.5296 H   0  0  0  0  0  0  0  0  0  0  0  0
   -4.2270    3.1045    0.1352 H   0  0  0  0  0  0  0  0  0  0  0  0
   -2.6221    4.7783    0.8592 H   0  0  0  0  0  0  0  0  0  0  0  0
    0.5279    1.9825    0.4583 H   0  0  0  0  0  0  0  0  0  0  0  0
   -0.6859    0.0000    0.0000 H   0  0  0  0  0  0  0  0  0  0  0  0
  1  2  1  0
  2  3  1  0
  2  4  1  0
  4  5  1  0
  5  6  1  0
  6  7  1  0
  7  8  1  0
  8  9  2  0
  9 10  1  0
 10 11  2  0
 11 12  1  0
 12 13  2  0
 13 14  1  0
 14 15  1  0
 15 16  1  0
 16 17  2  0
 17 18  1  0
 18 19  2  0
 19 20  1  0
 19 21  1  0
 21 22  2  0
 22  7  1  0
 13  8  1  0
 22 16  1  0
  1 24  1  0
  1 25  1  0
  1 26  1  0
  3 27  1  0
  3 28  1  0
  3 29  1  0
  4 30  1  0
  4 31  1  0
  5 32  1  0
  5 33  1  0
  6 34  1  0
  6 35  1  0
  9 36  1  0
 10 37  1  0
 11 38  1  0
 12 39  1  0
 14 40  1  0
 14 41  1  0
 15 42  1  0
 15 43  1  0
 17 44  1  0
 18 45  1  0
 21 46  1  0
 23 47  1  0
M  END
$$$$
