
     RDKit          3D

 39 39  0  0  0  0  0  0  0  0999 V2000
    0.6864    0.0000    0.0000 Cl  0  0  0  0  0  0  0  0  0  0  0  0
   -6.4826   -0.0211   -0.0591 N   0  0  0  0  0  0  0  0  0  0  0  0
   -5.3010   -0.6508   -0.6262 C   0  0  0  0  0  0  0  0  0  0  0  0
   -4.1306   -0.2623    0.2509 C   0  0  0  0  0  0  0  0  0  0  0  0
   -2.8382   -0.8693   -0.2530 C   0  0  0  0  0  0  0  0  0  0  0  0
   -1.6656   -0.5051    0.5900 C   0  0  0  0  0  0  0  0  0  0  0  0
   -1.4115    0.8977    0.6714 N   0  0  0  0  0  0  0  0  0  0  0  0
   -0.0672    1.2998    1.6391 S   0  0  0  0  0  6  0  0  0  0  0  0
   -0.3459    0.8613    3.0449 O   0  0  0  0  0  0  0  0  0  0  0  0
    0.0287    2.8170    1.6801 O   0  0  0  0  0  0  0  0  0  0  0  0
    1.4231    0.6273    1.0309 C   0  0  0  0  0  0  0  0  0  0  0  0
    1.8698   -0.6184    1.4210 C   0  0  0  0  0  0  0  0  0  0  0  0
    3.0513   -1.1725    0.9503 C   0  0  0  0  0  0  0  0  0  0  0  0
    3.8287   -0.4813    0.0619 C   0  0  0  0  0  0  0  0  0  0  0  0
    5.0058   -1.0471   -0.3995 C   0  0  0  0  0  0  0  0  0  0  0  0
    5.5329   -2.6392    0.1278 Cl  0  0  0  0  0  0  0  0  0  0  0  0
    5.7666   -0.3288   -1.2919 C   0  0  0  0  0  0  0  0  0  0  0  0
    5.3910    0.9101   -1.7249 C   0  0  0  0  0  0  0  0  0  0  0  0
    4.2115    1.4400   -1.2422 C   0  0  0  0  0  0  0  0  0  0  0  0
    3.4067    0.7673   -0.3460 C   0  0  0  0  0  0  0  0  0  0  0  0
    2.2304    1.3142    0.1252 C   0  0  0  0  0  0  0  0  0  0  0  0
   -0.6864    0.0000    0.0000 H   0  0  0  0  0  0  0  0  0  0  0  0
   -7.0974   -0.7049    0.4298 H   0  0  0  0  0  0  0  0  0  0  0  0
   -6.2183    0.7871    0.5389 H   0  0  0  0  0  0  0  0  0  0  0  0
   -5.1543   -0.1738   -1.6273 H   0  0  0  0  0  0  0  0  0  0  0  0
   -5.4341   -1.7439   -0.7033 H   0  0  0  0  0  0  0  0  0  0  0  0
   -4.0316    0.8442    0.1678 H   0  0  0  0  0  0  0  0  0  0  0  0
   -4.3190   -0.6120    1.2695 H   0  0  0  0  0  0  0  0  0  0  0  0
   -2.9388   -1.9545   -0.4082 H   0  0  0  0  0  0  0  0  0  0  0  0
   -2.6756   -0.4337   -1.2805 H   0  0  0  0  0  0  0  0  0  0  0  0
   -1.8316   -0.9088    1.6130 H   0  0  0  0  0  0  0  0  0  0  0  0
   -0.7726   -1.0026    0.1820 H   0  0  0  0  0  0  0  0  0  0  0  0
   -2.2260    1.4603    0.9937 H   0  0  0  0  0  0  0  0  0  0  0  0
    1.2505   -1.1572    2.1223 H   0  0  0  0  0  0  0  0  0  0  0  0
    3.3934   -2.1501    1.2619 H   0  0  0  0  0  0  0  0  0  0  0  0
    6.6966   -0.7713   -1.6589 H   0  0  0  0  0  0  0  0  0  0  0  0
    6.0058    1.4737   -2.4368 H   0  0  0  0  0  0  0  0  0  0  0  0
    3.9346    2.4196   -1.5978 H   0  0  0  0  0  0  0  0  0  0  0  0
    1.9147    2.2889   -0.2022 H   0  0  0  0  0  0  0  0  0  0  0  0
  2  3  1  0
  3  4  1  0
  4  5  1  0
  5  6  1  0
  6  7  1  0
  7  8  1  0
  8  9  2  0
  8 10  2  0
  8 11  1  0
 11 12  2  0
 12 13  1  0
 13 14  2  0
 14 15  1  0
 15 16  1  0
 15 17  2  0
 17 18  1  0
 18 19  2  0
 19 20  1  0
 20 21  2  0
 21 11  1  0
 20 14  1  0
  1 22  1  0
  2 23  1  0
  2 24  1  0
  3 25  1  0
  3 26  1  0
  4 27  1  0
  4 28  1  0
  5 29  1  0
  5 30  1  0
  6 31  1  0
  6 32  1  0
  7 33  1  0
 12 34  1  0
 13 35  1  0
 17 36  1  0
 18 37  1  0
 19 38  1  0
 21 39  1  0
M  END
$$$$
