
     RDKit          3D

 57 60  0  0  0  0  0  0  0  0999 V2000
    5.8515   -4.1794    0.9344 C   0  0  0  0  0  0  0  0  0  0  0  0
    4.7108   -4.0842    0.0953 O   0  0  0  0  0  0  0  0  0  0  0  0
    4.2916   -2.7388   -0.0854 C   0  0  0  0  0  0  0  0  0  0  0  0
    3.0667   -2.5981   -1.0067 C   0  0  0  0  0  0  0  0  0  0  0  0
    2.5638   -3.5521   -1.5998 O   0  0  0  0  0  0  0  0  0  0  0  0
    2.5497   -1.3187   -1.1415 N   0  0  0  0  0  0  0  0  0  0  0  0
    3.0315   -0.1106   -0.4861 C   0  0  0  0  0  0  0  0  0  0  0  0
    2.2878    1.0202   -1.1893 C   0  0  0  0  0  0  0  0  0  0  0  0
    2.1965    2.2729   -0.4130 C   0  0  0  0  0  0  0  0  0  0  0  0
    2.0601    3.5022   -0.8552 N   0  0  0  0  0  0  0  0  0  0  0  0
    2.0145    4.2246    0.3094 C   0  0  0  0  0  0  0  0  0  0  0  0
    1.8558    5.6900    0.3323 C   0  0  0  0  0  0  0  0  0  0  0  0
    2.1294    3.4969    1.4273 N   0  0  0  0  0  0  0  0  0  0  0  0
    2.2436    2.1929    0.9491 O   0  0  0  0  0  0  0  0  0  0  0  0
    0.9674    0.3407   -1.5479 C   0  0  0  0  0  0  0  0  0  0  0  0
    1.3646   -1.0840   -1.9552 C   0  0  0  0  0  0  0  0  0  0  0  0
   -0.2063    0.3598   -0.5296 C   0  0  0  0  0  0  0  0  0  0  0  0
   -1.0673    0.6286   -1.6720 N   0  0  0  0  0  0  0  0  0  0  0  0
   -2.2668    0.0799   -2.0526 C   0  0  0  0  0  0  0  0  0  0  0  0
   -2.6612    0.0743   -3.2162 O   0  0  0  0  0  0  0  0  0  0  0  0
   -3.0909   -0.5764   -1.0127 C   0  0  0  0  0  0  0  0  0  0  0  0
   -3.5756   -1.8589   -1.2946 C   0  0  0  0  0  0  0  0  0  0  0  0
   -4.3462   -2.5351   -0.3510 C   0  0  0  0  0  0  0  0  0  0  0  0
   -4.6414   -1.9342    0.8762 C   0  0  0  0  0  0  0  0  0  0  0  0
   -4.1816   -0.6447    1.1646 C   0  0  0  0  0  0  0  0  0  0  0  0
   -4.4215    0.0270    2.3357 O   0  0  0  0  0  0  0  0  0  0  0  0
   -5.1076   -0.6737    3.3643 C   0  0  0  0  0  0  0  0  0  0  0  0
   -3.4243    0.0442    0.1992 C   0  0  0  0  0  0  0  0  0  0  0  0
   -2.9751    1.3140    0.4754 O   0  0  0  0  0  0  0  0  0  0  0  0
   -3.9605    2.2755    0.0950 C   0  0  0  0  0  0  0  0  0  0  0  0
    0.0218    1.0551   -2.5377 C   0  0  0  0  0  0  0  0  0  0  0  0
    5.6305   -3.7805    1.9291 H   0  0  0  0  0  0  0  0  0  0  0  0
    6.6978   -3.6437    0.4937 H   0  0  0  0  0  0  0  0  0  0  0  0
    6.1201   -5.2345    1.0334 H   0  0  0  0  0  0  0  0  0  0  0  0
    4.0345   -2.3154    0.8919 H   0  0  0  0  0  0  0  0  0  0  0  0
    5.1124   -2.1675   -0.5334 H   0  0  0  0  0  0  0  0  0  0  0  0
    4.1180   -0.0200   -0.5781 H   0  0  0  0  0  0  0  0  0  0  0  0
    2.7775   -0.2022    0.5760 H   0  0  0  0  0  0  0  0  0  0  0  0
    2.8231    1.2448   -2.1234 H   0  0  0  0  0  0  0  0  0  0  0  0
    2.7401    6.1653    0.7678 H   0  0  0  0  0  0  0  0  0  0  0  0
    1.7220    6.0840   -0.6799 H   0  0  0  0  0  0  0  0  0  0  0  0
    0.9809    5.9745    0.9250 H   0  0  0  0  0  0  0  0  0  0  0  0
    0.5980   -1.8417   -1.7645 H   0  0  0  0  0  0  0  0  0  0  0  0
    1.6724   -1.1369   -3.0055 H   0  0  0  0  0  0  0  0  0  0  0  0
   -0.2256    1.1818    0.1910 H   0  0  0  0  0  0  0  0  0  0  0  0
   -0.3994   -0.5827   -0.0102 H   0  0  0  0  0  0  0  0  0  0  0  0
   -3.3470   -2.3322   -2.2478 H   0  0  0  0  0  0  0  0  0  0  0  0
   -4.7158   -3.5344   -0.5702 H   0  0  0  0  0  0  0  0  0  0  0  0
   -5.2399   -2.4995    1.5835 H   0  0  0  0  0  0  0  0  0  0  0  0
   -4.5579   -1.5707    3.6680 H   0  0  0  0  0  0  0  0  0  0  0  0
   -5.1712   -0.0125    4.2338 H   0  0  0  0  0  0  0  0  0  0  0  0
   -6.1297   -0.9193    3.0583 H   0  0  0  0  0  0  0  0  0  0  0  0
   -4.1872    2.2116   -0.9750 H   0  0  0  0  0  0  0  0  0  0  0  0
   -4.8769    2.1638    0.6841 H   0  0  0  0  0  0  0  0  0  0  0  0
   -3.5500    3.2699    0.2940 H   0  0  0  0  0  0  0  0  0  0  0  0
   -0.0078    0.6429   -3.5499 H   0  0  0  0  0  0  0  0  0  0  0  0
    0.1003    2.1452   -2.5860 H   0  0  0  0  0  0  0  0  0  0  0  0
  1  2  1  0
  2  3  1  0
  3  4  1  0
  4  5  2  0
  4  6  1  0
  6  7  1  0
  7  8  1  0
  8  9  1  0
  9 10  2  0
 10 11  1  0
 11 12  1  0
 11 13  2  0
 13 14  1  0
  8 15  1  0
 15 16  1  0
 15 17  1  0
 17 18  1  0
 18 19  1  0
 19 20  2  0
 19 21  1  0
 21 22  2  0
 22 23  1  0
 23 24  2  0
 24 25  1  0
 25 26  1  0
 26 27  1  0
 25 28  2  0
 28 29  1  0
 29 30  1  0
 18 31  1  0
 16  6  1  0
 28 21  1  0
 14  9  1  0
 31 15  1  0
  1 32  1  0
  1 33  1  0
  1 34  1  0
  3 35  1  0
  3 36  1  0
  7 37  1  0
  7 38  1  0
  8 39  1  0
 12 40  1  0
 12 41  1  0
 12 42  1  0
 16 43  1  0
 16 44  1  0
 17 45  1  0
 17 46  1  0
 22 47  1  0
 23 48  1  0
 24 49  1  0
 27 50  1  0
 27 51  1  0
 27 52  1  0
 30 53  1  0
 30 54  1  0
 30 55  1  0
 31 56  1  0
 31 57  1  0
M  END
$$$$
