
     RDKit          3D

 32 33  0  0  0  0  0  0  0  0999 V2000
    5.2137    1.0368   -0.4857 N   0  0  0  0  0  0  0  0  0  0  0  0
    4.6682   -0.3025    0.3693 S   0  0  0  0  0  6  0  0  0  0  0  0
    4.9955   -0.0474    1.7523 O   0  0  0  0  0  0  0  0  0  0  0  0
    5.1635   -1.4542   -0.3475 O   0  0  0  0  0  0  0  0  0  0  0  0
    2.9171   -0.1826    0.1482 C   0  0  0  0  0  0  0  0  0  0  0  0
    2.3063   -0.8515   -0.9169 C   0  0  0  0  0  0  0  0  0  0  0  0
    0.9204   -0.7750   -1.0745 C   0  0  0  0  0  0  0  0  0  0  0  0
    0.1530   -0.0252   -0.1768 C   0  0  0  0  0  0  0  0  0  0  0  0
   -1.2793    0.0393   -0.2750 N   0  0  0  0  0  0  0  0  0  0  0  0
   -1.8455    0.4145   -1.5879 C   0  0  0  0  0  0  0  0  0  0  0  0
   -3.2011    1.0936   -1.3711 C   0  0  0  0  0  0  0  0  0  0  0  0
   -3.9441    0.6487   -0.1050 C   0  0  0  0  0  0  0  0  0  0  0  0
   -3.7914   -0.8372    0.1761 C   0  0  0  0  0  0  0  0  0  0  0  0
   -2.0796   -1.2908    0.4564 S   0  0  0  0  0  6  0  0  0  0  0  0
   -1.8037   -2.4726   -0.3355 O   0  0  0  0  0  0  0  0  0  0  0  0
   -1.8148   -1.2538    1.8788 O   0  0  0  0  0  0  0  0  0  0  0  0
    0.7668    0.6061    0.9082 C   0  0  0  0  0  0  0  0  0  0  0  0
    2.1517    0.5341    1.0723 C   0  0  0  0  0  0  0  0  0  0  0  0
    5.7997    0.7307   -1.2629 H   0  0  0  0  0  0  0  0  0  0  0  0
    5.6818    1.6816    0.1520 H   0  0  0  0  0  0  0  0  0  0  0  0
    2.8955   -1.4423   -1.6148 H   0  0  0  0  0  0  0  0  0  0  0  0
    0.4470   -1.3221   -1.8854 H   0  0  0  0  0  0  0  0  0  0  0  0
   -1.1819    1.1056   -2.1211 H   0  0  0  0  0  0  0  0  0  0  0  0
   -1.9572   -0.4719   -2.2240 H   0  0  0  0  0  0  0  0  0  0  0  0
   -3.0591    2.1803   -1.3179 H   0  0  0  0  0  0  0  0  0  0  0  0
   -3.8275    0.9136   -2.2533 H   0  0  0  0  0  0  0  0  0  0  0  0
   -3.5645    1.2200    0.7519 H   0  0  0  0  0  0  0  0  0  0  0  0
   -5.0056    0.9030   -0.2031 H   0  0  0  0  0  0  0  0  0  0  0  0
   -4.1535   -1.4249   -0.6737 H   0  0  0  0  0  0  0  0  0  0  0  0
   -4.3547   -1.1261    1.0683 H   0  0  0  0  0  0  0  0  0  0  0  0
    0.1646    1.1468    1.6344 H   0  0  0  0  0  0  0  0  0  0  0  0
    2.6189    1.0255    1.9227 H   0  0  0  0  0  0  0  0  0  0  0  0
  1  2  1  0
  2  3  2  0
  2  4  2  0
  2  5  1  0
  5  6  2  0
  6  7  1  0
  7  8  2  0
  8  9  1  0
  9 10  1  0
 10 11  1  0
 11 12  1  0
 12 13  1  0
 13 14  1  0
 14 15  2  0
 14 16  2  0
  8 17  1  0
 17 18  2  0
 18  5  1  0
 14  9  1  0
  1 19  1  0
  1 20  1  0
  6 21  1  0
  7 22  1  0
 10 23  1  0
 10 24  1  0
 11 25  1  0
 11 26  1  0
 12 27  1  0
 12 28  1  0
 13 29  1  0
 13 30  1  0
 17 31  1  0
 18 32  1  0
M  END
$$$$
