
     RDKit          3D

143144  0  0  0  0  0  0  0  0999 V2000
   -0.9589   -0.0763   -0.0161 C   0  0  0  0  0  0  0  0  0  0  0  0
    0.4857    0.2941   -0.0401 C   0  0  0  0  0  0  0  0  0  0  0  0
    0.9448    1.4060   -0.2346 O   0  0  0  0  0  0  0  0  0  0  0  0
    1.2895   -0.7620    0.1813 O   0  0  0  0  0  0  0  0  0  0  0  0
   -7.8956   -3.6183   -2.3108 C   0  0  0  0  0  0  0  0  0  0  0  0
   -6.8986   -2.5090   -1.9992 C   0  0  0  0  0  0  0  0  0  0  0  0
   -7.1112   -1.8684   -0.6102 C   0  0  2  0  0  0  0  0  0  0  0  0
   -8.4272   -1.0806   -0.5559 C   0  0  0  0  0  0  0  0  0  0  0  0
   -5.9255   -0.9662   -0.1752 C   0  0  0  0  0  0  0  0  0  0  0  0
   -5.6303    0.0709   -1.1692 N   0  0  0  0  0  0  0  0  0  0  0  0
   -5.1534    1.3298   -0.9556 C   0  0  0  0  0  0  0  0  0  0  0  0
   -4.7049    1.9426   -1.9295 O   0  0  0  0  0  0  0  0  0  0  0  0
   -5.2115    1.9700    0.4414 C   0  0  2  0  0  0  0  0  0  0  0  0
   -6.6484    2.3736    0.8294 C   0  0  0  0  0  0  0  0  0  0  0  0
   -7.2077    3.5747    0.0977 C   0  0  0  0  0  0  0  0  0  0  0  0
   -7.7259    3.4490   -1.1993 C   0  0  0  0  0  0  0  0  0  0  0  0
   -8.2379    4.5653   -1.8650 C   0  0  0  0  0  0  0  0  0  0  0  0
   -8.2377    5.8061   -1.2385 C   0  0  0  0  0  0  0  0  0  0  0  0
   -8.7511    6.8659   -1.9248 O   0  0  0  0  0  0  0  0  0  0  0  0
   -7.7301    5.9513    0.0457 C   0  0  0  0  0  0  0  0  0  0  0  0
   -7.2158    4.8357    0.7119 C   0  0  0  0  0  0  0  0  0  0  0  0
   -4.2748    3.0923    0.4394 N   0  0  0  0  0  0  0  0  0  0  0  0
   -3.8984    3.7428    1.5888 C   0  0  0  0  0  0  0  0  0  0  0  0
   -4.2602    3.3772    2.7058 O   0  0  0  0  0  0  0  0  0  0  0  0
   -3.0047    4.9765    1.3549 C   0  0  1  0  0  0  0  0  0  0  0  0
   -3.0753    5.8937    2.5152 N   0  0  0  0  0  0  0  0  0  0  0  0
   -1.5795    4.5232    0.9979 C   0  0  0  0  0  0  0  0  0  0  0  0
   -0.6230    3.9190    2.4436 S   0  0  0  0  0  0  0  0  0  0  0  0
    0.9515    2.9540    1.5472 S   0  0  0  0  0  0  0  0  0  0  0  0
    0.4941    1.1934    1.7388 C   0  0  0  0  0  0  0  0  0  0  0  0
    1.4670    0.1783    1.1106 C   0  0  1  0  0  0  0  0  0  0  0  0
    2.9092    0.6813    0.8627 C   0  0  0  0  0  0  0  0  0  0  0  0
    3.2899    0.8478   -0.3030 O   0  0  0  0  0  0  0  0  0  0  0  0
    3.7493    0.9767    1.9129 N   0  0  0  0  0  0  0  0  0  0  0  0
    3.4960    0.9968    3.3450 C   0  0  0  0  0  0  0  0  0  0  0  0
    4.3378    2.1611    3.8382 C   0  0  0  0  0  0  0  0  0  0  0  0
    5.5868    2.0635    2.9709 C   0  0  0  0  0  0  0  0  0  0  0  0
    5.0548    1.5728    1.6186 C   0  0  1  0  0  0  0  0  0  0  0  0
    6.0267    0.5364    1.0299 C   0  0  0  0  0  0  0  0  0  0  0  0
    6.1012   -0.6195    1.4382 O   0  0  0  0  0  0  0  0  0  0  0  0
    6.8696    1.0401    0.0555 N   0  0  0  0  0  0  0  0  0  0  0  0
    7.8172    0.1577   -0.6455 C   0  0  1  0  0  0  0  0  0  0  0  0
    8.0500    0.6603   -2.0847 C   0  0  0  0  0  0  0  0  0  0  0  0
    8.0475   -0.4257   -3.1816 C   0  0  0  0  0  0  0  0  0  0  0  0
    6.6712   -1.0745   -3.3402 C   0  0  0  0  0  0  0  0  0  0  0  0
    9.1197   -1.4889   -2.9798 C   0  0  0  0  0  0  0  0  0  0  0  0
    9.1635    0.1392    0.1177 C   0  0  0  0  0  0  0  0  0  0  0  0
   10.0186   -0.7277   -0.0477 O   0  0  0  0  0  0  0  0  0  0  0  0
    9.4306    1.2869    0.8377 N   0  0  0  0  0  0  0  0  0  0  0  0
   10.6049    1.4063    1.6916 C   0  0  0  0  0  0  0  0  0  0  0  0
   11.9186    1.7127    0.9579 C   0  0  0  0  0  0  0  0  0  0  0  0
   12.0575    1.1880   -0.2946 N   0  0  0  0  0  0  0  0  0  0  0  0
   12.8565    2.2988    1.4946 O   0  0  0  0  0  0  0  0  0  0  0  0
    1.5176   -1.0809    1.8788 N   0  0  0  0  0  0  0  0  0  0  0  0
    1.6004   -2.3539    1.3855 C   0  0  0  0  0  0  0  0  0  0  0  0
    2.3967   -3.0945    1.9690 O   0  0  0  0  0  0  0  0  0  0  0  0
    0.5626   -2.9258    0.3804 C   0  0  2  0  0  0  0  0  0  0  0  0
    1.1125   -4.2230   -0.2415 C   0  0  0  0  0  0  0  0  0  0  0  0
    0.6229   -5.4434    0.5049 C   0  0  0  0  0  0  0  0  0  0  0  0
    1.1310   -6.6228    0.0537 N   0  0  0  0  0  0  0  0  0  0  0  0
   -0.1843   -5.4159    1.4298 O   0  0  0  0  0  0  0  0  0  0  0  0
    0.1131   -2.0066   -0.6705 N   0  0  0  0  0  0  0  0  0  0  0  0
   -1.1681   -1.6226   -0.9562 C   0  0  0  0  0  0  0  0  0  0  0  0
   -1.3346   -0.6294   -1.6692 O   0  0  0  0  0  0  0  0  0  0  0  0
   -2.3655   -2.4632   -0.4580 C   0  0  2  0  0  0  0  0  0  0  0  0
   -2.4376   -3.7657   -1.2731 C   0  0  0  0  0  0  0  0  0  0  0  0
   -3.3123   -4.8429   -0.6359 C   0  0  0  0  0  0  0  0  0  0  0  0
   -3.0771   -6.1991   -1.2698 C   0  0  0  0  0  0  0  0  0  0  0  0
   -3.9437   -7.1643   -0.8503 N   0  0  0  0  0  0  0  0  0  0  0  0
   -2.1908   -6.4515   -2.0761 O   0  0  0  0  0  0  0  0  0  0  0  0
   -3.5834   -1.6663   -0.6176 N   0  0  0  0  0  0  0  0  0  0  0  0
   -4.6967   -1.8442    0.1702 C   0  0  0  0  0  0  0  0  0  0  0  0
   -4.7358   -2.6845    1.0654 O   0  0  0  0  0  0  0  0  0  0  0  0
   -1.1699   -0.7972   -0.8087 H   0  0  0  0  0  0  0  0  0  0  0  0
   -1.2179   -0.4944    0.9589 H   0  0  0  0  0  0  0  0  0  0  0  0
   -1.5679    0.8159   -0.1839 H   0  0  0  0  0  0  0  0  0  0  0  0
    2.1945   -0.3860    0.1431 H   0  0  0  0  0  0  0  0  0  0  0  0
   -7.8411   -4.4164   -1.5637 H   0  0  0  0  0  0  0  0  0  0  0  0
   -8.9220   -3.2443   -2.3447 H   0  0  0  0  0  0  0  0  0  0  0  0
   -7.6742   -4.0554   -3.2897 H   0  0  0  0  0  0  0  0  0  0  0  0
   -6.9740   -1.7495   -2.7851 H   0  0  0  0  0  0  0  0  0  0  0  0
   -5.8934   -2.9377   -2.0659 H   0  0  0  0  0  0  0  0  0  0  0  0
   -7.1985   -2.6842    0.1225 H   0  0  0  0  0  0  0  0  0  0  0  0
   -9.2898   -1.7414   -0.6740 H   0  0  0  0  0  0  0  0  0  0  0  0
   -8.4700   -0.3225   -1.3440 H   0  0  0  0  0  0  0  0  0  0  0  0
   -8.5413   -0.5782    0.4106 H   0  0  0  0  0  0  0  0  0  0  0  0
   -6.1867   -0.4758    0.7695 H   0  0  0  0  0  0  0  0  0  0  0  0
   -5.5038   -0.2246   -2.1303 H   0  0  0  0  0  0  0  0  0  0  0  0
   -4.8289    1.2430    1.1679 H   0  0  0  0  0  0  0  0  0  0  0  0
   -6.6819    2.5799    1.9059 H   0  0  0  0  0  0  0  0  0  0  0  0
   -7.3401    1.5362    0.6841 H   0  0  0  0  0  0  0  0  0  0  0  0
   -7.7421    2.4866   -1.7065 H   0  0  0  0  0  0  0  0  0  0  0  0
   -8.6397    4.4658   -2.8699 H   0  0  0  0  0  0  0  0  0  0  0  0
   -8.7206    7.6497   -1.3533 H   0  0  0  0  0  0  0  0  0  0  0  0
   -7.7266    6.9140    0.5457 H   0  0  0  0  0  0  0  0  0  0  0  0
   -6.8269    4.9541    1.7224 H   0  0  0  0  0  0  0  0  0  0  0  0
   -4.1630    3.5545   -0.4608 H   0  0  0  0  0  0  0  0  0  0  0  0
   -3.4197    5.5191    0.4977 H   0  0  0  0  0  0  0  0  0  0  0  0
   -2.5676    5.4442    3.2848 H   0  0  0  0  0  0  0  0  0  0  0  0
   -4.0419    5.9118    2.8462 H   0  0  0  0  0  0  0  0  0  0  0  0
   -1.0270    5.3738    0.5777 H   0  0  0  0  0  0  0  0  0  0  0  0
   -1.6124    3.7332    0.2394 H   0  0  0  0  0  0  0  0  0  0  0  0
    0.3678    0.9886    2.8041 H   0  0  0  0  0  0  0  0  0  0  0  0
   -0.4894    1.0504    1.2782 H   0  0  0  0  0  0  0  0  0  0  0  0
    1.0905   -0.0306    0.1133 H   0  0  0  0  0  0  0  0  0  0  0  0
    2.4428    1.1070    3.5970 H   0  0  0  0  0  0  0  0  0  0  0  0
    3.8635    0.0516    3.7575 H   0  0  0  0  0  0  0  0  0  0  0  0
    4.5565    2.1022    4.9073 H   0  0  0  0  0  0  0  0  0  0  0  0
    3.8243    3.1085    3.6396 H   0  0  0  0  0  0  0  0  0  0  0  0
    6.1099    3.0212    2.8857 H   0  0  0  0  0  0  0  0  0  0  0  0
    6.2867    1.3438    3.4146 H   0  0  0  0  0  0  0  0  0  0  0  0
    4.9061    2.4093    0.9264 H   0  0  0  0  0  0  0  0  0  0  0  0
    6.6174    1.9204   -0.3848 H   0  0  0  0  0  0  0  0  0  0  0  0
    7.4134   -0.8585   -0.6227 H   0  0  0  0  0  0  0  0  0  0  0  0
    9.0013    1.2061   -2.1420 H   0  0  0  0  0  0  0  0  0  0  0  0
    7.2754    1.3929   -2.3591 H   0  0  0  0  0  0  0  0  0  0  0  0
    8.2705    0.0850   -4.1278 H   0  0  0  0  0  0  0  0  0  0  0  0
    5.8936   -0.3147   -3.4661 H   0  0  0  0  0  0  0  0  0  0  0  0
    6.4070   -1.6910   -2.4770 H   0  0  0  0  0  0  0  0  0  0  0  0
    6.6510   -1.7183   -4.2253 H   0  0  0  0  0  0  0  0  0  0  0  0
    9.1684   -2.1567   -3.8478 H   0  0  0  0  0  0  0  0  0  0  0  0
    8.9171   -2.1105   -2.1023 H   0  0  0  0  0  0  0  0  0  0  0  0
   10.1081   -1.0314   -2.8607 H   0  0  0  0  0  0  0  0  0  0  0  0
    8.6197    1.8433    1.0733 H   0  0  0  0  0  0  0  0  0  0  0  0
   10.4063    2.2358    2.3815 H   0  0  0  0  0  0  0  0  0  0  0  0
   10.7287    0.4812    2.2643 H   0  0  0  0  0  0  0  0  0  0  0  0
   11.5514    0.3233   -0.4776 H   0  0  0  0  0  0  0  0  0  0  0  0
   12.9958    1.2241   -0.6761 H   0  0  0  0  0  0  0  0  0  0  0  0
    2.1888   -1.0350    2.6355 H   0  0  0  0  0  0  0  0  0  0  0  0
   -0.3047   -3.1327    1.0093 H   0  0  0  0  0  0  0  0  0  0  0  0
    2.2086   -4.2325   -0.2621 H   0  0  0  0  0  0  0  0  0  0  0  0
    0.7779   -4.3298   -1.2804 H   0  0  0  0  0  0  0  0  0  0  0  0
    0.7958   -7.4760    0.4820 H   0  0  0  0  0  0  0  0  0  0  0  0
    1.6839   -6.6956   -0.7889 H   0  0  0  0  0  0  0  0  0  0  0  0
    0.8212   -1.4856   -1.1743 H   0  0  0  0  0  0  0  0  0  0  0  0
   -2.2462   -2.6715    0.6093 H   0  0  0  0  0  0  0  0  0  0  0  0
   -2.8020   -3.5575   -2.2880 H   0  0  0  0  0  0  0  0  0  0  0  0
   -1.4306   -4.1651   -1.4041 H   0  0  0  0  0  0  0  0  0  0  0  0
   -3.0846   -4.9372    0.4325 H   0  0  0  0  0  0  0  0  0  0  0  0
   -4.3688   -4.5911   -0.7516 H   0  0  0  0  0  0  0  0  0  0  0  0
   -3.8388   -8.0981   -1.2281 H   0  0  0  0  0  0  0  0  0  0  0  0
   -4.6683   -6.9957   -0.1653 H   0  0  0  0  0  0  0  0  0  0  0  0
   -3.5710   -0.9479   -1.3349 H   0  0  0  0  0  0  0  0  0  0  0  0
  1  2  1  0
  2  3  2  0
  2  4  1  0
  5  6  1  0
  6  7  1  0
  7  8  1  0
  7  9  1  0
  9 10  1  0
 10 11  1  0
 11 12  2  0
 11 13  1  0
 13 14  1  0
 14 15  1  0
 15 16  2  0
 16 17  1  0
 17 18  2  0
 18 19  1  0
 18 20  1  0
 20 21  2  0
 13 22  1  0
 22 23  1  0
 23 24  2  0
 23 25  1  0
 25 26  1  0
 25 27  1  0
 27 28  1  0
 28 29  1  0
 29 30  1  0
 30 31  1  0
 31 32  1  0
 32 33  2  0
 32 34  1  0
 34 35  1  0
 35 36  1  0
 36 37  1  0
 37 38  1  0
 38 39  1  0
 39 40  2  0
 39 41  1  0
 41 42  1  0
 42 43  1  0
 43 44  1  0
 44 45  1  0
 44 46  1  0
 42 47  1  0
 47 48  2  0
 47 49  1  0
 49 50  1  0
 50 51  1  0
 51 52  1  0
 51 53  2  0
 31 54  1  0
 54 55  1  0
 55 56  2  0
 55 57  1  0
 57 58  1  0
 58 59  1  0
 59 60  1  0
 59 61  2  0
 57 62  1  0
 62 63  1  0
 63 64  2  0
 63 65  1  0
 65 66  1  0
 66 67  1  0
 67 68  1  0
 68 69  1  0
 68 70  2  0
 65 71  1  0
 71 72  1  0
 72 73  2  0
 72  9  1  0
 21 15  1  0
 38 34  1  0
  1 74  1  0
  1 75  1  0
  1 76  1  0
  4 77  1  0
  5 78  1  0
  5 79  1  0
  5 80  1  0
  6 81  1  0
  6 82  1  0
  7 83  1  1
  8 84  1  0
  8 85  1  0
  8 86  1  0
  9 87  1  0
 10 88  1  0
 13 89  1  1
 14 90  1  0
 14 91  1  0
 16 92  1  0
 17 93  1  0
 19 94  1  0
 20 95  1  0
 21 96  1  0
 22 97  1  0
 25 98  1  6
 26 99  1  0
 26100  1  0
 27101  1  0
 27102  1  0
 30103  1  0
 30104  1  0
 31105  1  6
 35106  1  0
 35107  1  0
 36108  1  0
 36109  1  0
 37110  1  0
 37111  1  0
 38112  1  6
 41113  1  0
 42114  1  6
 43115  1  0
 43116  1  0
 44117  1  0
 45118  1  0
 45119  1  0
 45120  1  0
 46121  1  0
 46122  1  0
 46123  1  0
 49124  1  0
 50125  1  0
 50126  1  0
 52127  1  0
 52128  1  0
 54129  1  0
 57130  1  1
 58131  1  0
 58132  1  0
 60133  1  0
 60134  1  0
 62135  1  0
 65136  1  1
 66137  1  0
 66138  1  0
 67139  1  0
 67140  1  0
 69141  1  0
 69142  1  0
 71143  1  0
M  END
$$$$
