
     RDKit          3D

 24 25  0  0  0  0  0  0  0  0999 V2000
    3.5404    0.5382    1.5377 N   0  0  0  0  0  0  0  0  0  0  0  0
    3.0938    1.0984    0.0122 S   0  0  0  0  0  6  0  0  0  0  0  0
    2.9206    2.5288    0.0962 O   0  0  0  0  0  0  0  0  0  0  0  0
    4.0158    0.4786   -0.9119 O   0  0  0  0  0  0  0  0  0  0  0  0
    1.4999    0.3460   -0.1847 C   0  0  0  0  0  0  0  0  0  0  0  0
    1.3868   -0.8690   -0.8851 C   0  0  0  0  0  0  0  0  0  0  0  0
    0.1371   -1.4730   -1.0389 C   0  0  0  0  0  0  0  0  0  0  0  0
   -0.9717   -0.8358   -0.5049 C   0  0  0  0  0  0  0  0  0  0  0  0
   -0.8540    0.3795    0.1811 C   0  0  0  0  0  0  0  0  0  0  0  0
    0.3777    0.9863    0.3539 C   0  0  0  0  0  0  0  0  0  0  0  0
   -2.1871    0.8385    0.6846 C   0  0  0  0  0  0  0  0  0  0  0  0
   -3.1380   -0.0001   -0.1816 C   0  0  0  0  0  0  0  0  0  0  0  0
   -2.3954   -1.3008   -0.5198 C   0  0  0  0  0  0  0  0  0  0  0  0
    2.7808    0.0665    2.0272 H   0  0  0  0  0  0  0  0  0  0  0  0
    4.3609   -0.0619    1.4383 H   0  0  0  0  0  0  0  0  0  0  0  0
    2.2670   -1.3466   -1.3111 H   0  0  0  0  0  0  0  0  0  0  0  0
    0.0396   -2.4148   -1.5708 H   0  0  0  0  0  0  0  0  0  0  0  0
    0.4666    1.9303    0.8848 H   0  0  0  0  0  0  0  0  0  0  0  0
   -2.3472    1.9093    0.5309 H   0  0  0  0  0  0  0  0  0  0  0  0
   -2.2945    0.5902    1.7454 H   0  0  0  0  0  0  0  0  0  0  0  0
   -4.0988   -0.1830    0.3095 H   0  0  0  0  0  0  0  0  0  0  0  0
   -3.3500    0.5446   -1.1124 H   0  0  0  0  0  0  0  0  0  0  0  0
   -2.5515   -2.0591    0.2542 H   0  0  0  0  0  0  0  0  0  0  0  0
   -2.6986   -1.6911   -1.4953 H   0  0  0  0  0  0  0  0  0  0  0  0
  1  2  1  0
  2  3  2  0
  2  4  2  0
  2  5  1  0
  5  6  2  0
  6  7  1  0
  7  8  2  0
  8  9  1  0
  9 10  2  0
  9 11  1  0
 11 12  1  0
 12 13  1  0
 10  5  1  0
 13  8  1  0
  1 14  1  0
  1 15  1  0
  6 16  1  0
  7 17  1  0
 10 18  1  0
 11 19  1  0
 11 20  1  0
 12 21  1  0
 12 22  1  0
 13 23  1  0
 13 24  1  0
M  END
$$$$
