
     RDKit          3D

 50 52  0  0  0  0  0  0  0  0999 V2000
   -2.1196    1.7758   -4.8379 C   0  0  0  0  0  0  0  0  0  0  0  0
   -2.2678    0.7372   -3.8820 O   0  0  0  0  0  0  0  0  0  0  0  0
   -1.8407    1.1380   -2.5857 C   0  0  0  0  0  0  0  0  0  0  0  0
   -2.0234    0.0410   -1.5150 C   0  0  0  0  0  0  0  0  0  0  0  0
   -2.4932   -1.0590   -1.8127 O   0  0  0  0  0  0  0  0  0  0  0  0
   -1.6440    0.3587   -0.1889 N   0  0  0  0  0  0  0  0  0  0  0  0
   -1.7937   -0.7075    0.8333 C   0  0  0  0  0  0  0  0  0  0  0  0
   -0.8561   -1.9052    0.6080 C   0  0  0  0  0  0  0  0  0  0  0  0
   -1.4490   -3.1882    1.1760 C   0  0  0  0  0  0  0  0  0  0  0  0
   -2.1327   -2.9011    2.3924 O   0  0  0  0  0  0  0  0  0  0  0  0
   -3.3398   -2.1655    2.1819 C   0  0  0  0  0  0  0  0  0  0  0  0
   -3.2474   -1.1591    1.0356 C   0  0  0  0  0  0  0  0  0  0  0  0
   -0.7568    1.5197    0.0875 C   0  0  0  0  0  0  0  0  0  0  0  0
   -0.7761    2.0976    1.5085 C   0  0  0  0  0  0  0  0  0  0  0  0
    0.4245    1.4799    2.2120 C   0  0  0  0  0  0  0  0  0  0  0  0
    1.3362    1.0823    1.1588 N   0  0  0  0  0  0  0  0  0  0  0  0
    2.5908    0.5778    1.4769 C   0  0  0  0  0  0  0  0  0  0  0  0
    2.9315    0.4259    2.6525 O   0  0  0  0  0  0  0  0  0  0  0  0
    3.5681    0.1961    0.3980 C   0  0  0  0  0  0  0  0  0  0  0  0
    4.6679   -0.5913    0.7469 C   0  0  0  0  0  0  0  0  0  0  0  0
    5.5932   -0.9343   -0.2382 C   0  0  0  0  0  0  0  0  0  0  0  0
    5.3931   -0.4768   -1.5301 C   0  0  0  0  0  0  0  0  0  0  0  0
    6.2619   -0.7854   -2.4998 F   0  0  0  0  0  0  0  0  0  0  0  0
    4.2837    0.3054   -1.7992 C   0  0  0  0  0  0  0  0  0  0  0  0
    3.3646    0.6574   -0.8667 N   0  0  0  0  0  0  0  0  0  0  0  0
    0.7325    1.2143   -0.1582 C   0  0  0  0  0  0  0  0  0  0  0  0
   -2.4604    1.4036   -5.8078 H   0  0  0  0  0  0  0  0  0  0  0  0
   -2.7300    2.6412   -4.5621 H   0  0  0  0  0  0  0  0  0  0  0  0
   -1.0690    2.0691   -4.9260 H   0  0  0  0  0  0  0  0  0  0  0  0
   -2.4305    2.0084   -2.2776 H   0  0  0  0  0  0  0  0  0  0  0  0
   -0.7777    1.3942   -2.6406 H   0  0  0  0  0  0  0  0  0  0  0  0
   -1.5228   -0.2729    1.7967 H   0  0  0  0  0  0  0  0  0  0  0  0
    0.0927   -1.6913    1.1163 H   0  0  0  0  0  0  0  0  0  0  0  0
   -0.5977   -2.0611   -0.4443 H   0  0  0  0  0  0  0  0  0  0  0  0
   -0.6507   -3.9059    1.3905 H   0  0  0  0  0  0  0  0  0  0  0  0
   -2.1363   -3.6657    0.4672 H   0  0  0  0  0  0  0  0  0  0  0  0
   -4.1596   -2.8713    2.0078 H   0  0  0  0  0  0  0  0  0  0  0  0
   -3.5589   -1.6435    3.1194 H   0  0  0  0  0  0  0  0  0  0  0  0
   -3.6414   -1.6411    0.1352 H   0  0  0  0  0  0  0  0  0  0  0  0
   -3.9072   -0.3052    1.2299 H   0  0  0  0  0  0  0  0  0  0  0  0
   -1.0677    2.3212   -0.5882 H   0  0  0  0  0  0  0  0  0  0  0  0
   -0.6144    3.1820    1.4461 H   0  0  0  0  0  0  0  0  0  0  0  0
   -1.7161    1.9466    2.0470 H   0  0  0  0  0  0  0  0  0  0  0  0
    0.9146    2.1899    2.8866 H   0  0  0  0  0  0  0  0  0  0  0  0
    0.1606    0.5924    2.7952 H   0  0  0  0  0  0  0  0  0  0  0  0
    4.8035   -0.9317    1.7697 H   0  0  0  0  0  0  0  0  0  0  0  0
    6.4581   -1.5457   -0.0034 H   0  0  0  0  0  0  0  0  0  0  0  0
    4.1059    0.6787   -2.8026 H   0  0  0  0  0  0  0  0  0  0  0  0
    0.8867    0.3077   -0.7500 H   0  0  0  0  0  0  0  0  0  0  0  0
    1.2109    2.0663   -0.6538 H   0  0  0  0  0  0  0  0  0  0  0  0
  1  2  1  0
  2  3  1  0
  3  4  1  0
  4  5  2  0
  4  6  1  0
  6  7  1  0
  7  8  1  0
  8  9  1  0
  9 10  1  0
 10 11  1  0
 11 12  1  0
  6 13  1  0
 13 14  1  0
 14 15  1  0
 15 16  1  0
 16 17  1  0
 17 18  2  0
 17 19  1  0
 19 20  2  0
 20 21  1  0
 21 22  2  0
 22 23  1  0
 22 24  1  0
 24 25  2  0
 16 26  1  0
 12  7  1  0
 26 13  1  0
 25 19  1  0
  1 27  1  0
  1 28  1  0
  1 29  1  0
  3 30  1  0
  3 31  1  0
  7 32  1  0
  8 33  1  0
  8 34  1  0
  9 35  1  0
  9 36  1  0
 11 37  1  0
 11 38  1  0
 12 39  1  0
 12 40  1  0
 13 41  1  0
 14 42  1  0
 14 43  1  0
 15 44  1  0
 15 45  1  0
 20 46  1  0
 21 47  1  0
 24 48  1  0
 26 49  1  0
 26 50  1  0
M  END
$$$$
