
     RDKit          3D

 86 91  0  0  0  0  0  0  0  0999 V2000
   12.7225    0.7871   -0.8860 C   0  0  0  0  0  0  0  0  0  0  0  0
   12.1642   -0.5509   -0.6943 N   0  0  0  0  0  0  0  0  0  0  0  0
   12.3320   -1.3483   -1.9108 C   0  0  0  0  0  0  0  0  0  0  0  0
   10.7669   -0.5578   -0.2127 C   0  0  0  0  0  0  0  0  0  0  0  0
    9.7849    0.3478   -0.9717 C   0  0  0  0  0  0  0  0  0  0  0  0
    8.3799    0.1967   -0.3891 C   0  0  0  0  0  0  0  0  0  0  0  0
    8.3390    0.3408    1.0675 N   0  0  0  0  0  0  0  0  0  0  0  0
    7.1630    0.6600    1.7583 C   0  0  0  0  0  0  0  0  0  0  0  0
    7.1546    1.1934    2.8657 O   0  0  0  0  0  0  0  0  0  0  0  0
    5.8501    0.3456    1.1455 C   0  0  0  0  0  0  0  0  0  0  0  0
    5.5709   -0.9284    0.6554 C   0  0  0  0  0  0  0  0  0  0  0  0
    4.3027   -1.2149    0.1419 C   0  0  0  0  0  0  0  0  0  0  0  0
    3.2902   -0.2422    0.1442 C   0  0  0  0  0  0  0  0  0  0  0  0
    2.0304   -0.6272   -0.3601 N   0  0  0  0  0  0  0  0  0  0  0  0
    0.8286    0.0656   -0.2667 C   0  0  0  0  0  0  0  0  0  0  0  0
    0.6832    1.1475    0.2883 O   0  0  0  0  0  0  0  0  0  0  0  0
   -0.1876   -0.6618   -0.8730 N   0  0  0  0  0  0  0  0  0  0  0  0
   -1.5764   -0.4265   -0.8119 C   0  0  0  0  0  0  0  0  0  0  0  0
   -2.3993   -1.2979   -1.5258 C   0  0  0  0  0  0  0  0  0  0  0  0
   -3.7925   -1.1800   -1.4647 C   0  0  0  0  0  0  0  0  0  0  0  0
   -4.4178   -0.1847   -0.6933 C   0  0  0  0  0  0  0  0  0  0  0  0
   -5.8917   -0.0908   -0.6112 C   0  0  0  0  0  0  0  0  0  0  0  0
   -6.4230    0.9707   -0.0109 N   0  0  0  0  0  0  0  0  0  0  0  0
   -7.7486    1.0048    0.0254 C   0  0  0  0  0  0  0  0  0  0  0  0
   -8.3778    2.0728    0.6405 N   0  0  0  0  0  0  0  0  0  0  0  0
   -9.7425    2.4065    0.2063 C   0  0  0  0  0  0  0  0  0  0  0  0
   -9.8217    3.8866   -0.2124 C   0  0  0  0  0  0  0  0  0  0  0  0
   -9.4480    4.7972    0.8289 O   0  0  0  0  0  0  0  0  0  0  0  0
   -8.4201    4.2860    1.6973 C   0  0  0  0  0  0  0  0  0  0  0  0
   -7.5388    3.2054    1.0494 C   0  0  0  0  0  0  0  0  0  0  0  0
   -8.5087    0.0315   -0.4689 N   0  0  0  0  0  0  0  0  0  0  0  0
   -7.9072   -1.0103   -1.0331 C   0  0  0  0  0  0  0  0  0  0  0  0
   -8.6901   -2.0411   -1.5608 N   0  0  0  0  0  0  0  0  0  0  0  0
  -10.0403   -2.1635   -0.9812 C   0  0  0  0  0  0  0  0  0  0  0  0
   -9.9795   -2.9110    0.3646 C   0  0  0  0  0  0  0  0  0  0  0  0
   -9.3471   -4.1989    0.2188 O   0  0  0  0  0  0  0  0  0  0  0  0
   -8.0118   -4.0566   -0.2982 C   0  0  0  0  0  0  0  0  0  0  0  0
   -8.0179   -3.3496   -1.6657 C   0  0  0  0  0  0  0  0  0  0  0  0
   -6.5897   -1.0997   -1.1312 N   0  0  0  0  0  0  0  0  0  0  0  0
   -3.5720    0.6970   -0.0027 C   0  0  0  0  0  0  0  0  0  0  0  0
   -2.1733    0.5768   -0.0549 C   0  0  0  0  0  0  0  0  0  0  0  0
    3.5716    1.0292    0.6541 C   0  0  0  0  0  0  0  0  0  0  0  0
    4.8444    1.3188    1.1608 C   0  0  0  0  0  0  0  0  0  0  0  0
    9.6004    0.6380    1.7360 C   0  0  0  0  0  0  0  0  0  0  0  0
   10.7267   -0.2970    1.3086 C   0  0  0  0  0  0  0  0  0  0  0  0
   13.8067    0.7201   -1.0410 H   0  0  0  0  0  0  0  0  0  0  0  0
   12.5785    1.4155    0.0027 H   0  0  0  0  0  0  0  0  0  0  0  0
   12.2876    1.3061   -1.7522 H   0  0  0  0  0  0  0  0  0  0  0  0
   13.3867   -1.3975   -2.1936 H   0  0  0  0  0  0  0  0  0  0  0  0
   11.7718   -0.9380   -2.7598 H   0  0  0  0  0  0  0  0  0  0  0  0
   12.0058   -2.3832   -1.7466 H   0  0  0  0  0  0  0  0  0  0  0  0
   10.3956   -1.5867   -0.3297 H   0  0  0  0  0  0  0  0  0  0  0  0
   10.0920    1.3976   -0.8999 H   0  0  0  0  0  0  0  0  0  0  0  0
    9.7579    0.0928   -2.0352 H   0  0  0  0  0  0  0  0  0  0  0  0
    7.9951   -0.7967   -0.6365 H   0  0  0  0  0  0  0  0  0  0  0  0
    7.7090    0.9373   -0.8362 H   0  0  0  0  0  0  0  0  0  0  0  0
    6.3138   -1.7138    0.7139 H   0  0  0  0  0  0  0  0  0  0  0  0
    4.1075   -2.2185   -0.2227 H   0  0  0  0  0  0  0  0  0  0  0  0
    1.9674   -1.5758   -0.7027 H   0  0  0  0  0  0  0  0  0  0  0  0
    0.0998   -1.4200   -1.4717 H   0  0  0  0  0  0  0  0  0  0  0  0
   -1.9763   -2.0946   -2.1311 H   0  0  0  0  0  0  0  0  0  0  0  0
   -4.3953   -1.8875   -2.0298 H   0  0  0  0  0  0  0  0  0  0  0  0
  -10.4159    2.2322    1.0511 H   0  0  0  0  0  0  0  0  0  0  0  0
  -10.0989    1.7962   -0.6311 H   0  0  0  0  0  0  0  0  0  0  0  0
  -10.8377    4.1360   -0.5272 H   0  0  0  0  0  0  0  0  0  0  0  0
   -9.1623    4.0757   -1.0658 H   0  0  0  0  0  0  0  0  0  0  0  0
   -8.9147    3.8839    2.5906 H   0  0  0  0  0  0  0  0  0  0  0  0
   -7.8077    5.1370    2.0140 H   0  0  0  0  0  0  0  0  0  0  0  0
   -6.7814    2.8817    1.7742 H   0  0  0  0  0  0  0  0  0  0  0  0
   -7.0289    3.6323    0.1748 H   0  0  0  0  0  0  0  0  0  0  0  0
  -10.5529   -1.1994   -0.8773 H   0  0  0  0  0  0  0  0  0  0  0  0
  -10.6443   -2.7556   -1.6835 H   0  0  0  0  0  0  0  0  0  0  0  0
  -10.9933   -3.0842    0.7385 H   0  0  0  0  0  0  0  0  0  0  0  0
   -9.4359   -2.3344    1.1241 H   0  0  0  0  0  0  0  0  0  0  0  0
   -7.5895   -5.0615   -0.4027 H   0  0  0  0  0  0  0  0  0  0  0  0
   -7.4037   -3.5142    0.4359 H   0  0  0  0  0  0  0  0  0  0  0  0
   -7.0071   -3.2792   -2.0843 H   0  0  0  0  0  0  0  0  0  0  0  0
   -8.6011   -3.9605   -2.3682 H   0  0  0  0  0  0  0  0  0  0  0  0
   -3.9937    1.4901    0.6124 H   0  0  0  0  0  0  0  0  0  0  0  0
   -1.5862    1.2828    0.5220 H   0  0  0  0  0  0  0  0  0  0  0  0
    2.8191    1.8119    0.6862 H   0  0  0  0  0  0  0  0  0  0  0  0
    5.0411    2.3046    1.5814 H   0  0  0  0  0  0  0  0  0  0  0  0
    9.4803    0.5777    2.8242 H   0  0  0  0  0  0  0  0  0  0  0  0
    9.8545    1.6798    1.5027 H   0  0  0  0  0  0  0  0  0  0  0  0
   11.6751    0.1053    1.6872 H   0  0  0  0  0  0  0  0  0  0  0  0
   10.5989   -1.2620    1.8159 H   0  0  0  0  0  0  0  0  0  0  0  0
  1  2  1  0
  2  3  1  0
  2  4  1  0
  4  5  1  0
  5  6  1  0
  6  7  1  0
  7  8  1  0
  8  9  2  0
  8 10  1  0
 10 11  2  0
 11 12  1  0
 12 13  2  0
 13 14  1  0
 14 15  1  0
 15 16  2  0
 15 17  1  0
 17 18  1  0
 18 19  2  0
 19 20  1  0
 20 21  2  0
 21 22  1  0
 22 23  2  0
 23 24  1  0
 24 25  1  0
 25 26  1  0
 26 27  1  0
 27 28  1  0
 28 29  1  0
 29 30  1  0
 24 31  2  0
 31 32  1  0
 32 33  1  0
 33 34  1  0
 34 35  1  0
 35 36  1  0
 36 37  1  0
 37 38  1  0
 32 39  2  0
 21 40  1  0
 40 41  2  0
 13 42  1  0
 42 43  2  0
  7 44  1  0
 44 45  1  0
 45  4  1  0
 43 10  1  0
 41 18  1  0
 39 22  1  0
 30 25  1  0
 38 33  1  0
  1 46  1  0
  1 47  1  0
  1 48  1  0
  3 49  1  0
  3 50  1  0
  3 51  1  0
  4 52  1  0
  5 53  1  0
  5 54  1  0
  6 55  1  0
  6 56  1  0
 11 57  1  0
 12 58  1  0
 14 59  1  0
 17 60  1  0
 19 61  1  0
 20 62  1  0
 26 63  1  0
 26 64  1  0
 27 65  1  0
 27 66  1  0
 29 67  1  0
 29 68  1  0
 30 69  1  0
 30 70  1  0
 34 71  1  0
 34 72  1  0
 35 73  1  0
 35 74  1  0
 37 75  1  0
 37 76  1  0
 38 77  1  0
 38 78  1  0
 40 79  1  0
 41 80  1  0
 42 81  1  0
 43 82  1  0
 44 83  1  0
 44 84  1  0
 45 85  1  0
 45 86  1  0
M  END
$$$$
