
     RDKit          3D

 56 59  0  0  0  0  0  0  0  0999 V2000
    4.8577   -0.5734   -1.0148 O   0  0  0  0  0  0  0  0  0  0  0  0
    3.7413   -0.3216   -1.4600 C   0  0  0  0  0  0  0  0  0  0  0  0
    3.3482    0.9638   -1.7874 N   0  0  0  0  0  0  0  0  0  0  0  0
    4.1891    2.1053   -1.5063 C   0  0  0  0  0  0  0  0  0  0  0  0
    3.7632    2.7831   -0.2266 C   0  0  0  0  0  0  0  0  0  0  0  0
    4.2048    2.2945    1.0109 C   0  0  0  0  0  0  0  0  0  0  0  0
    3.8053    2.9073    2.1985 C   0  0  0  0  0  0  0  0  0  0  0  0
    2.9579    4.0143    2.1611 C   0  0  0  0  0  0  0  0  0  0  0  0
    2.4917    4.4931    0.9394 C   0  0  0  0  0  0  0  0  0  0  0  0
    2.8892    3.8790   -0.2495 C   0  0  0  0  0  0  0  0  0  0  0  0
    2.7230   -1.3510   -1.6548 C   0  0  0  0  0  0  0  0  0  0  0  0
    1.4403   -1.2281   -2.1554 C   0  0  0  0  0  0  0  0  0  0  0  0
    0.9195   -2.4823   -2.0511 N   0  0  0  0  0  0  0  0  0  0  0  0
   -0.4570   -2.8895   -2.2572 C   0  0  0  0  0  0  0  0  0  0  0  0
   -1.1787   -2.9974   -0.9072 C   0  0  2  0  0  0  0  0  0  0  0  0
   -1.4931   -4.4452   -0.4981 C   0  0  0  0  0  0  0  0  0  0  0  0
   -2.9303   -4.6558   -0.9485 C   0  0  0  0  0  0  0  0  0  0  0  0
   -3.5760   -3.3125   -0.6356 C   0  0  0  0  0  0  0  0  0  0  0  0
   -2.5211   -2.3500   -0.9947 N   0  0  0  0  0  0  0  0  0  0  0  0
   -2.6817   -0.7188   -0.6064 S   0  0  0  0  0  6  0  0  0  0  0  0
   -1.5576   -0.0547   -1.2398 O   0  0  0  0  0  0  0  0  0  0  0  0
   -4.0475   -0.3534   -0.9178 O   0  0  0  0  0  0  0  0  0  0  0  0
   -2.4519   -0.7019    1.1840 C   0  0  0  0  0  0  0  0  0  0  0  0
   -2.5045    0.7218    1.6730 C   0  0  0  0  0  0  0  0  0  0  0  0
   -1.3320    1.4881    1.7662 C   0  0  0  0  0  0  0  0  0  0  0  0
   -1.3835    2.8085    2.2152 C   0  0  0  0  0  0  0  0  0  0  0  0
   -2.6043    3.3760    2.5742 C   0  0  0  0  0  0  0  0  0  0  0  0
   -3.7749    2.6249    2.4823 C   0  0  0  0  0  0  0  0  0  0  0  0
   -3.7276    1.3049    2.0323 C   0  0  0  0  0  0  0  0  0  0  0  0
    1.8146   -3.3517   -1.5570 N   0  0  0  0  0  0  0  0  0  0  0  0
    2.9263   -2.6715   -1.3092 N   0  0  0  0  0  0  0  0  0  0  0  0
    2.3748    1.1455   -1.9860 H   0  0  0  0  0  0  0  0  0  0  0  0
    4.0926    2.7951   -2.3510 H   0  0  0  0  0  0  0  0  0  0  0  0
    5.2448    1.8120   -1.4514 H   0  0  0  0  0  0  0  0  0  0  0  0
    4.8677    1.4290    1.0525 H   0  0  0  0  0  0  0  0  0  0  0  0
    4.1622    2.5261    3.1515 H   0  0  0  0  0  0  0  0  0  0  0  0
    2.6564    4.4996    3.0872 H   0  0  0  0  0  0  0  0  0  0  0  0
    1.8282    5.3549    0.9106 H   0  0  0  0  0  0  0  0  0  0  0  0
    2.5191    4.2691   -1.1957 H   0  0  0  0  0  0  0  0  0  0  0  0
    0.8591   -0.3931   -2.5202 H   0  0  0  0  0  0  0  0  0  0  0  0
   -0.4352   -3.8405   -2.8028 H   0  0  0  0  0  0  0  0  0  0  0  0
   -0.9157   -2.1433   -2.9166 H   0  0  0  0  0  0  0  0  0  0  0  0
   -0.5917   -2.5358   -0.1048 H   0  0  0  0  0  0  0  0  0  0  0  0
   -1.4414   -4.5327    0.5951 H   0  0  0  0  0  0  0  0  0  0  0  0
   -0.8020   -5.1823   -0.9203 H   0  0  0  0  0  0  0  0  0  0  0  0
   -2.9599   -4.8529   -2.0273 H   0  0  0  0  0  0  0  0  0  0  0  0
   -3.4210   -5.4853   -0.4331 H   0  0  0  0  0  0  0  0  0  0  0  0
   -4.4798   -3.1565   -1.2290 H   0  0  0  0  0  0  0  0  0  0  0  0
   -3.8154   -3.2436    0.4293 H   0  0  0  0  0  0  0  0  0  0  0  0
   -3.2431   -1.3026    1.6418 H   0  0  0  0  0  0  0  0  0  0  0  0
   -1.4825   -1.1494    1.4188 H   0  0  0  0  0  0  0  0  0  0  0  0
   -0.3686    1.0685    1.4815 H   0  0  0  0  0  0  0  0  0  0  0  0
   -0.4705    3.3969    2.2792 H   0  0  0  0  0  0  0  0  0  0  0  0
   -2.6455    4.4055    2.9203 H   0  0  0  0  0  0  0  0  0  0  0  0
   -4.7278    3.0704    2.7558 H   0  0  0  0  0  0  0  0  0  0  0  0
   -4.6549    0.7398    1.9547 H   0  0  0  0  0  0  0  0  0  0  0  0
  1  2  2  0
  2  3  1  0
  3  4  1  0
  4  5  1  0
  5  6  2  0
  6  7  1  0
  7  8  2  0
  8  9  1  0
  9 10  2  0
  2 11  1  0
 11 12  2  0
 12 13  1  0
 13 14  1  0
 14 15  1  0
 15 16  1  0
 16 17  1  0
 17 18  1  0
 18 19  1  0
 19 20  1  0
 20 21  2  0
 20 22  2  0
 20 23  1  0
 23 24  1  0
 24 25  2  0
 25 26  1  0
 26 27  2  0
 27 28  1  0
 28 29  2  0
 13 30  1  0
 30 31  2  0
 10  5  1  0
 31 11  1  0
 19 15  1  0
 29 24  1  0
  3 32  1  0
  4 33  1  0
  4 34  1  0
  6 35  1  0
  7 36  1  0
  8 37  1  0
  9 38  1  0
 10 39  1  0
 12 40  1  0
 14 41  1  0
 14 42  1  0
 15 43  1  1
 16 44  1  0
 16 45  1  0
 17 46  1  0
 17 47  1  0
 18 48  1  0
 18 49  1  0
 23 50  1  0
 23 51  1  0
 25 52  1  0
 26 53  1  0
 27 54  1  0
 28 55  1  0
 29 56  1  0
M  END
$$$$
