
     RDKit          3D

 62 65  0  0  0  0  0  0  0  0999 V2000
   -7.6569   -0.6208    3.8343 C   0  0  0  0  0  0  0  0  0  0  0  0
   -7.2891    0.0960    2.6386 N   0  0  0  0  0  0  0  0  0  0  0  0
   -5.9935    0.0424    2.1645 C   0  0  0  0  0  0  0  0  0  0  0  0
   -5.0795   -0.5314    2.7496 O   0  0  0  0  0  0  0  0  0  0  0  0
   -5.7393    0.6863    0.8440 C   0  0  0  0  0  0  0  0  0  0  0  0
   -6.4707    1.8288    0.4755 C   0  0  0  0  0  0  0  0  0  0  0  0
   -6.2506    2.4369   -0.7598 C   0  0  0  0  0  0  0  0  0  0  0  0
   -5.3061    1.9074   -1.6336 C   0  0  0  0  0  0  0  0  0  0  0  0
   -4.5632    0.7828   -1.2660 C   0  0  0  0  0  0  0  0  0  0  0  0
   -4.7344    0.1753   -0.0098 C   0  0  0  0  0  0  0  0  0  0  0  0
   -4.0122   -1.0111    0.3173 N   0  0  0  0  0  0  0  0  0  0  0  0
   -2.6940   -1.3341   -0.0919 C   0  0  0  0  0  0  0  0  0  0  0  0
   -1.6789   -0.3674   -0.0779 C   0  0  0  0  0  0  0  0  0  0  0  0
   -0.3718   -0.7094   -0.4195 C   0  0  0  0  0  0  0  0  0  0  0  0
    0.6019    0.3101   -0.3840 N   0  0  0  0  0  0  0  0  0  0  0  0
    2.0024    0.2247   -0.5771 C   0  0  0  0  0  0  0  0  0  0  0  0
    2.7448   -0.9061   -0.2415 C   0  0  0  0  0  0  0  0  0  0  0  0
    4.1383   -0.9270   -0.3923 C   0  0  0  0  0  0  0  0  0  0  0  0
    4.8486    0.1895   -0.8479 C   0  0  0  0  0  0  0  0  0  0  0  0
    6.2363    0.2066   -1.0157 N   0  0  0  0  0  0  0  0  0  0  0  0
    7.0177   -1.0488   -0.9660 C   0  0  0  0  0  0  0  0  0  0  0  0
    7.4808   -1.3617    0.4675 C   0  0  0  0  0  0  0  0  0  0  0  0
    8.2143   -0.2642    1.0383 O   0  0  0  0  0  0  0  0  0  0  0  0
    7.4034    0.9232    1.0531 C   0  0  0  0  0  0  0  0  0  0  0  0
    6.9699    1.3219   -0.3677 C   0  0  0  0  0  0  0  0  0  0  0  0
    4.0893    1.3259   -1.1850 C   0  0  0  0  0  0  0  0  0  0  0  0
    2.6944    1.3612   -1.0404 C   0  0  0  0  0  0  0  0  0  0  0  0
    1.8955    2.4430   -1.3435 O   0  0  0  0  0  0  0  0  0  0  0  0
    2.5532    3.6347   -1.7546 C   0  0  0  0  0  0  0  0  0  0  0  0
   -0.0526   -1.9811   -0.7275 N   0  0  0  0  0  0  0  0  0  0  0  0
   -1.0301   -2.9153   -0.6979 C   0  0  0  0  0  0  0  0  0  0  0  0
   -2.3528   -2.6569   -0.3755 C   0  0  0  0  0  0  0  0  0  0  0  0
   -3.3518   -3.7689   -0.3795 C   0  0  0  0  0  0  0  0  0  0  0  0
   -4.2885   -3.6455   -1.3616 F   0  0  0  0  0  0  0  0  0  0  0  0
   -4.0386   -3.8860    0.7918 F   0  0  0  0  0  0  0  0  0  0  0  0
   -2.7841   -4.9959   -0.5813 F   0  0  0  0  0  0  0  0  0  0  0  0
   -6.9012   -0.4747    4.6105 H   0  0  0  0  0  0  0  0  0  0  0  0
   -7.7329   -1.6849    3.5961 H   0  0  0  0  0  0  0  0  0  0  0  0
   -8.6238   -0.2480    4.1796 H   0  0  0  0  0  0  0  0  0  0  0  0
   -8.0274    0.3249    1.9863 H   0  0  0  0  0  0  0  0  0  0  0  0
   -7.2001    2.2670    1.1518 H   0  0  0  0  0  0  0  0  0  0  0  0
   -6.8183    3.3201   -1.0428 H   0  0  0  0  0  0  0  0  0  0  0  0
   -5.1462    2.3658   -2.6069 H   0  0  0  0  0  0  0  0  0  0  0  0
   -3.8509    0.3744   -1.9798 H   0  0  0  0  0  0  0  0  0  0  0  0
   -4.0968   -1.1728    1.3364 H   0  0  0  0  0  0  0  0  0  0  0  0
   -1.9047    0.6537    0.2143 H   0  0  0  0  0  0  0  0  0  0  0  0
    0.2613    1.1618   -0.8249 H   0  0  0  0  0  0  0  0  0  0  0  0
    2.2517   -1.7909    0.1510 H   0  0  0  0  0  0  0  0  0  0  0  0
    4.6428   -1.8470   -0.1180 H   0  0  0  0  0  0  0  0  0  0  0  0
    7.9079   -0.8984   -1.5902 H   0  0  0  0  0  0  0  0  0  0  0  0
    6.4767   -1.8928   -1.4077 H   0  0  0  0  0  0  0  0  0  0  0  0
    8.1461   -2.2308    0.4576 H   0  0  0  0  0  0  0  0  0  0  0  0
    6.6384   -1.5985    1.1262 H   0  0  0  0  0  0  0  0  0  0  0  0
    8.0045    1.7246    1.4939 H   0  0  0  0  0  0  0  0  0  0  0  0
    6.5370    0.7566    1.7039 H   0  0  0  0  0  0  0  0  0  0  0  0
    7.8654    1.5204   -0.9697 H   0  0  0  0  0  0  0  0  0  0  0  0
    6.4001    2.2555   -0.3333 H   0  0  0  0  0  0  0  0  0  0  0  0
    4.6132    2.1788   -1.6013 H   0  0  0  0  0  0  0  0  0  0  0  0
    3.0694    3.4898   -2.7090 H   0  0  0  0  0  0  0  0  0  0  0  0
    3.2392    3.9964   -0.9814 H   0  0  0  0  0  0  0  0  0  0  0  0
    1.7883    4.4027   -1.9047 H   0  0  0  0  0  0  0  0  0  0  0  0
   -0.6919   -3.9186   -0.9505 H   0  0  0  0  0  0  0  0  0  0  0  0
  1  2  1  0
  2  3  1  0
  3  4  2  0
  3  5  1  0
  5  6  2  0
  6  7  1  0
  7  8  2  0
  8  9  1  0
  9 10  2  0
 10 11  1  0
 11 12  1  0
 12 13  2  0
 13 14  1  0
 14 15  1  0
 15 16  1  0
 16 17  2  0
 17 18  1  0
 18 19  2  0
 19 20  1  0
 20 21  1  0
 21 22  1  0
 22 23  1  0
 23 24  1  0
 24 25  1  0
 19 26  1  0
 26 27  2  0
 27 28  1  0
 28 29  1  0
 14 30  2  0
 30 31  1  0
 31 32  2  0
 32 33  1  0
 33 34  1  0
 33 35  1  0
 33 36  1  0
 10  5  1  0
 32 12  1  0
 27 16  1  0
 25 20  1  0
  1 37  1  0
  1 38  1  0
  1 39  1  0
  2 40  1  0
  6 41  1  0
  7 42  1  0
  8 43  1  0
  9 44  1  0
 11 45  1  0
 13 46  1  0
 15 47  1  0
 17 48  1  0
 18 49  1  0
 21 50  1  0
 21 51  1  0
 22 52  1  0
 22 53  1  0
 24 54  1  0
 24 55  1  0
 25 56  1  0
 25 57  1  0
 26 58  1  0
 29 59  1  0
 29 60  1  0
 29 61  1  0
 31 62  1  0
M  END
$$$$
