
     RDKit          3D

 99102  0  0  0  0  0  0  0  0999 V2000
   -2.4878   -0.7031   -4.4576 C   0  0  0  0  0  0  0  0  0  0  0  0
   -3.2703    0.4319   -3.7740 C   0  0  0  0  0  0  0  0  0  0  0  0
   -2.5538    1.7613   -4.0564 C   0  0  0  0  0  0  0  0  0  0  0  0
   -4.6898    0.4610   -4.3624 C   0  0  0  0  0  0  0  0  0  0  0  0
   -3.3018    0.1553   -2.3350 N   0  0  0  0  0  0  0  0  0  0  0  0
   -3.9171    0.9438   -1.3787 C   0  0  0  0  0  0  0  0  0  0  0  0
   -4.6397    1.9014   -1.6298 O   0  0  0  0  0  0  0  0  0  0  0  0
   -3.6562    0.4331    0.0519 C   0  0  2  0  0  0  0  0  0  0  0  0
   -4.1071    1.4529    1.1340 C   0  0  0  0  0  0  0  0  0  0  0  0
   -3.4392    1.2504    2.4344 N   0  0  0  0  0  0  0  0  0  0  0  0
   -4.0537    1.9542    3.5593 C   0  0  0  0  0  0  0  0  0  0  0  0
   -5.3970    1.4533    4.0243 C   0  0  0  0  0  0  0  0  0  0  0  0
   -5.5189    0.4013    4.9388 C   0  0  0  0  0  0  0  0  0  0  0  0
   -6.7812   -0.0223    5.3461 C   0  0  0  0  0  0  0  0  0  0  0  0
   -7.8893    0.6283    4.8290 C   0  0  0  0  0  0  0  0  0  0  0  0
   -7.8165    1.6513    3.9520 N   0  0  0  0  0  0  0  0  0  0  0  0
   -6.5770    2.0396    3.5727 C   0  0  0  0  0  0  0  0  0  0  0  0
   -3.0927   -0.1500    2.6667 C   0  0  0  0  0  0  0  0  0  0  0  0
   -2.1889   -0.7392    1.5396 C   0  0  0  0  0  0  0  0  0  0  0  0
   -2.2406   -0.0678    0.2099 N   0  0  0  0  0  0  0  0  0  0  0  0
   -1.2714    1.0609    0.1634 C   0  0  0  0  0  0  0  0  0  0  0  0
    0.0018    0.7446   -0.6639 C   0  0  1  0  0  0  0  0  0  0  0  0
    0.7756    1.9360   -0.7468 O   0  0  0  0  0  0  0  0  0  0  0  0
    0.8600   -0.4240   -0.1465 C   0  0  0  0  0  0  0  0  0  0  0  0
    1.6017   -0.1620    1.1822 C   0  0  1  0  0  0  0  0  0  0  0  0
    1.9228   -1.4472    1.9804 C   0  0  0  0  0  0  0  0  0  0  0  0
    2.7762   -2.5036    1.3152 C   0  0  0  0  0  0  0  0  0  0  0  0
    4.1316   -2.6262    1.6519 C   0  0  0  0  0  0  0  0  0  0  0  0
    4.9346   -3.5870    1.0339 C   0  0  0  0  0  0  0  0  0  0  0  0
    4.3922   -4.4396    0.0773 C   0  0  0  0  0  0  0  0  0  0  0  0
    3.0433   -4.3425   -0.2524 C   0  0  0  0  0  0  0  0  0  0  0  0
    2.2377   -3.3860    0.3690 C   0  0  0  0  0  0  0  0  0  0  0  0
    2.8392    0.7191    1.0022 C   0  0  0  0  0  0  0  0  0  0  0  0
    2.9322    1.8240    1.5344 O   0  0  0  0  0  0  0  0  0  0  0  0
    3.8352    0.2277    0.1992 N   0  0  0  0  0  0  0  0  0  0  0  0
    4.9764    1.0439   -0.1704 C   0  0  1  0  0  0  0  0  0  0  0  0
    6.0775    0.2015   -0.7454 C   0  0  0  0  0  0  0  0  0  0  0  0
    6.9605   -0.6241   -0.0665 C   0  0  0  0  0  0  0  0  0  0  0  0
    7.8978   -1.3462   -0.8071 C   0  0  0  0  0  0  0  0  0  0  0  0
    7.9374   -1.2408   -2.2058 C   0  0  0  0  0  0  0  0  0  0  0  0
    7.0424   -0.4104   -2.8835 C   0  0  0  0  0  0  0  0  0  0  0  0
    6.1230    0.3108   -2.1399 C   0  0  0  0  0  0  0  0  0  0  0  0
    5.0635    1.2396   -2.6432 C   0  0  0  0  0  0  0  0  0  0  0  0
    4.6764    2.0067   -1.3637 C   0  0  1  0  0  0  0  0  0  0  0  0
    3.3156    2.4297   -1.4340 O   0  0  0  0  0  0  0  0  0  0  0  0
   -1.4535   -0.7428   -0.4744 O   0  0  0  0  0  0  0  0  0  0  0  0
   -0.2774   -0.2826    0.2196 S   0  0  0  0  0  6  0  0  0  0  0  0
    0.0368   -0.6281    1.5825 O   0  0  0  0  0  0  0  0  0  0  0  0
   -0.2787    1.3163    0.0943 O   0  0  0  0  0  0  0  0  0  0  0  0
    1.0120   -0.6611   -0.6579 O   0  0  0  0  0  0  0  0  0  0  0  0
   -2.9579   -1.6750   -4.2703 H   0  0  0  0  0  0  0  0  0  0  0  0
   -1.4621   -0.7610   -4.0753 H   0  0  0  0  0  0  0  0  0  0  0  0
   -2.4326   -0.5566   -5.5417 H   0  0  0  0  0  0  0  0  0  0  0  0
   -3.0944    2.6132   -3.6297 H   0  0  0  0  0  0  0  0  0  0  0  0
   -2.4589    1.9386   -5.1335 H   0  0  0  0  0  0  0  0  0  0  0  0
   -1.5461    1.7663   -3.6241 H   0  0  0  0  0  0  0  0  0  0  0  0
   -5.2782    1.2992   -3.9763 H   0  0  0  0  0  0  0  0  0  0  0  0
   -4.6619    0.5599   -5.4532 H   0  0  0  0  0  0  0  0  0  0  0  0
   -5.2336   -0.4598   -4.1211 H   0  0  0  0  0  0  0  0  0  0  0  0
   -2.5873   -0.4548   -1.9428 H   0  0  0  0  0  0  0  0  0  0  0  0
   -4.3085   -0.4504    0.1379 H   0  0  0  0  0  0  0  0  0  0  0  0
   -5.1953    1.3621    1.2272 H   0  0  0  0  0  0  0  0  0  0  0  0
   -3.8975    2.4777    0.8046 H   0  0  0  0  0  0  0  0  0  0  0  0
   -4.1337    3.0225    3.3132 H   0  0  0  0  0  0  0  0  0  0  0  0
   -3.3622    1.9314    4.4132 H   0  0  0  0  0  0  0  0  0  0  0  0
   -4.6336   -0.0877    5.3391 H   0  0  0  0  0  0  0  0  0  0  0  0
   -6.8978   -0.8373    6.0526 H   0  0  0  0  0  0  0  0  0  0  0  0
   -8.8955    0.3359    5.1172 H   0  0  0  0  0  0  0  0  0  0  0  0
   -6.5613    2.8682    2.8678 H   0  0  0  0  0  0  0  0  0  0  0  0
   -2.5589   -0.2588    3.6188 H   0  0  0  0  0  0  0  0  0  0  0  0
   -4.0039   -0.7587    2.7286 H   0  0  0  0  0  0  0  0  0  0  0  0
   -1.1568   -0.7877    1.8999 H   0  0  0  0  0  0  0  0  0  0  0  0
   -2.4892   -1.7836    1.3874 H   0  0  0  0  0  0  0  0  0  0  0  0
   -0.9929    1.4206    1.1620 H   0  0  0  0  0  0  0  0  0  0  0  0
   -1.7243    1.9404   -0.3148 H   0  0  0  0  0  0  0  0  0  0  0  0
   -0.3164    0.5039   -1.6856 H   0  0  0  0  0  0  0  0  0  0  0  0
    1.5067    1.8002   -1.3843 H   0  0  0  0  0  0  0  0  0  0  0  0
    1.5903   -0.6664   -0.9282 H   0  0  0  0  0  0  0  0  0  0  0  0
    0.2101   -1.2991   -0.0495 H   0  0  0  0  0  0  0  0  0  0  0  0
    0.9336    0.4174    1.8335 H   0  0  0  0  0  0  0  0  0  0  0  0
    2.4013   -1.1574    2.9268 H   0  0  0  0  0  0  0  0  0  0  0  0
    0.9796   -1.9246    2.2787 H   0  0  0  0  0  0  0  0  0  0  0  0
    4.5765   -1.9661    2.3930 H   0  0  0  0  0  0  0  0  0  0  0  0
    5.9854   -3.6662    1.2977 H   0  0  0  0  0  0  0  0  0  0  0  0
    5.0196   -5.1831   -0.4075 H   0  0  0  0  0  0  0  0  0  0  0  0
    2.6161   -5.0153   -0.9909 H   0  0  0  0  0  0  0  0  0  0  0  0
    1.1837   -3.3467    0.1073 H   0  0  0  0  0  0  0  0  0  0  0  0
    3.7119   -0.6532   -0.2854 H   0  0  0  0  0  0  0  0  0  0  0  0
    5.3169    1.6197    0.6974 H   0  0  0  0  0  0  0  0  0  0  0  0
    6.9247   -0.7100    1.0150 H   0  0  0  0  0  0  0  0  0  0  0  0
    8.6037   -1.9974   -0.2970 H   0  0  0  0  0  0  0  0  0  0  0  0
    8.6724   -1.8134   -2.7670 H   0  0  0  0  0  0  0  0  0  0  0  0
    7.0736   -0.3341   -3.9660 H   0  0  0  0  0  0  0  0  0  0  0  0
    4.2166    0.6793   -3.0527 H   0  0  0  0  0  0  0  0  0  0  0  0
    5.4445    1.9246   -3.4067 H   0  0  0  0  0  0  0  0  0  0  0  0
    5.3126    2.8985   -1.2781 H   0  0  0  0  0  0  0  0  0  0  0  0
    3.0962    2.7832   -0.5426 H   0  0  0  0  0  0  0  0  0  0  0  0
   -0.8378    1.5425   -0.6780 H   0  0  0  0  0  0  0  0  0  0  0  0
    1.7985   -0.5443   -0.0861 H   0  0  0  0  0  0  0  0  0  0  0  0
  1  2  1  0
  2  3  1  0
  2  4  1  0
  2  5  1  0
  5  6  1  0
  6  7  2  0
  6  8  1  0
  8  9  1  0
  9 10  1  0
 10 11  1  0
 11 12  1  0
 12 13  2  0
 13 14  1  0
 14 15  2  0
 15 16  1  0
 16 17  2  0
 10 18  1  0
 18 19  1  0
 19 20  1  0
 20 21  1  0
 21 22  1  0
 22 23  1  0
 22 24  1  0
 24 25  1  0
 25 26  1  0
 26 27  1  0
 27 28  2  0
 28 29  1  0
 29 30  2  0
 30 31  1  0
 31 32  2  0
 25 33  1  0
 33 34  2  0
 33 35  1  0
 35 36  1  0
 36 37  1  0
 37 38  2  0
 38 39  1  0
 39 40  2  0
 40 41  1  0
 41 42  2  0
 42 43  1  0
 43 44  1  0
 44 45  1  0
 46 47  2  0
 47 48  2  0
 47 49  1  0
 47 50  1  0
 20  8  1  0
 32 27  1  0
 44 36  1  0
 17 12  1  0
 42 37  1  0
  1 51  1  0
  1 52  1  0
  1 53  1  0
  3 54  1  0
  3 55  1  0
  3 56  1  0
  4 57  1  0
  4 58  1  0
  4 59  1  0
  5 60  1  0
  8 61  1  1
  9 62  1  0
  9 63  1  0
 11 64  1  0
 11 65  1  0
 13 66  1  0
 14 67  1  0
 15 68  1  0
 17 69  1  0
 18 70  1  0
 18 71  1  0
 19 72  1  0
 19 73  1  0
 21 74  1  0
 21 75  1  0
 22 76  1  6
 23 77  1  0
 24 78  1  0
 24 79  1  0
 25 80  1  1
 26 81  1  0
 26 82  1  0
 28 83  1  0
 29 84  1  0
 30 85  1  0
 31 86  1  0
 32 87  1  0
 35 88  1  0
 36 89  1  1
 38 90  1  0
 39 91  1  0
 40 92  1  0
 41 93  1  0
 43 94  1  0
 43 95  1  0
 44 96  1  1
 45 97  1  0
 49 98  1  0
 50 99  1  0
M  END
$$$$
