
     RDKit          3D

 31 32  0  0  0  0  0  0  0  0999 V2000
   -5.3950    0.2609   -0.4720 C   0  0  0  0  0  0  0  0  0  0  0  0
   -4.7333    0.2100    0.8980 C   0  0  0  0  0  0  0  0  0  0  0  0
   -3.2922    0.7153    0.8672 C   0  0  0  0  0  0  0  0  0  0  0  0
   -2.5173   -0.1515    0.0402 O   0  0  0  0  0  0  0  0  0  0  0  0
   -1.1866    0.1340   -0.0897 C   0  0  0  0  0  0  0  0  0  0  0  0
   -0.5171    1.2137    0.4855 C   0  0  0  0  0  0  0  0  0  0  0  0
    0.8550    1.3886    0.2668 C   0  0  0  0  0  0  0  0  0  0  0  0
    1.5707    0.4825   -0.5224 C   0  0  0  0  0  0  0  0  0  0  0  0
    2.9975    0.7069   -0.7631 C   0  0  0  0  0  0  0  0  0  0  0  0
    4.0062   -0.0606   -0.3276 C   0  0  0  0  0  0  0  0  0  0  0  0
    5.6670    0.3035   -0.6755 S   0  0  0  0  0  0  0  0  0  0  0  0
    6.2485   -1.0862    0.2143 C   0  0  0  0  0  0  0  0  0  0  0  0
    7.4255   -1.3733    0.3483 O   0  0  0  0  0  0  0  0  0  0  0  0
    5.1982   -1.7739    0.7241 N   0  0  0  0  0  0  0  0  0  0  0  0
    3.9393   -1.2952    0.5069 C   0  0  0  0  0  0  0  0  0  0  0  0
    2.9342   -1.8221    0.9520 O   0  0  0  0  0  0  0  0  0  0  0  0
    0.8969   -0.5938   -1.1045 C   0  0  0  0  0  0  0  0  0  0  0  0
   -0.4725   -0.7652   -0.8847 C   0  0  0  0  0  0  0  0  0  0  0  0
   -4.8758   -0.3817   -1.1898 H   0  0  0  0  0  0  0  0  0  0  0  0
   -6.4323   -0.0819   -0.4026 H   0  0  0  0  0  0  0  0  0  0  0  0
   -5.4009    1.2822   -0.8659 H   0  0  0  0  0  0  0  0  0  0  0  0
   -5.3149    0.8151    1.6022 H   0  0  0  0  0  0  0  0  0  0  0  0
   -4.7512   -0.8268    1.2538 H   0  0  0  0  0  0  0  0  0  0  0  0
   -2.8973    0.7056    1.8902 H   0  0  0  0  0  0  0  0  0  0  0  0
   -3.2720    1.7382    0.4721 H   0  0  0  0  0  0  0  0  0  0  0  0
   -1.0295    1.9382    1.1090 H   0  0  0  0  0  0  0  0  0  0  0  0
    1.3574    2.2381    0.7240 H   0  0  0  0  0  0  0  0  0  0  0  0
    3.2083    1.6012   -1.3469 H   0  0  0  0  0  0  0  0  0  0  0  0
    5.3450   -2.5990    1.2814 H   0  0  0  0  0  0  0  0  0  0  0  0
    1.4252   -1.3119   -1.7263 H   0  0  0  0  0  0  0  0  0  0  0  0
   -0.9868   -1.6110   -1.3346 H   0  0  0  0  0  0  0  0  0  0  0  0
  1  2  1  0
  2  3  1  0
  3  4  1  0
  4  5  1  0
  5  6  2  0
  6  7  1  0
  7  8  2  0
  8  9  1  0
  9 10  2  0
 10 11  1  0
 11 12  1  0
 12 13  2  0
 12 14  1  0
 14 15  1  0
 15 16  2  0
  8 17  1  0
 17 18  2  0
 18  5  1  0
 15 10  1  0
  1 19  1  0
  1 20  1  0
  1 21  1  0
  2 22  1  0
  2 23  1  0
  3 24  1  0
  3 25  1  0
  6 26  1  0
  7 27  1  0
  9 28  1  0
 14 29  1  0
 17 30  1  0
 18 31  1  0
M  END
$$$$
