
     RDKit          3D

 36 36  0  0  0  0  0  0  0  0999 V2000
    5.3871    0.0022    1.9527 C   0  0  0  0  0  0  0  0  0  0  0  0
    4.0715    0.1596    1.2048 C   0  0  0  0  0  0  0  0  0  0  0  0
    4.2114   -0.2537   -0.2611 C   0  0  0  0  0  0  0  0  0  0  0  0
    2.9417   -0.0139   -1.0817 C   0  0  0  0  0  0  0  0  0  0  0  0
    1.7598   -0.8671   -0.6317 C   0  0  0  0  0  0  0  0  0  0  0  0
    0.6184   -0.7463   -1.6202 C   0  0  0  0  0  0  0  0  0  0  0  0
    0.4868   -1.5506   -2.5454 O   0  0  0  0  0  0  0  0  0  0  0  0
   -0.3432    0.3995   -1.4548 C   0  0  0  0  0  0  0  0  0  0  0  0
   -1.4342    0.0816   -0.4690 C   0  0  0  0  0  0  0  0  0  0  0  0
   -1.1967   -0.2417    0.6908 O   0  0  0  0  0  0  0  0  0  0  0  0
   -2.7129    0.2079   -0.9594 N   0  0  0  0  0  0  0  0  0  0  0  0
   -3.8524   -0.2048   -0.1574 C   0  0  1  0  0  0  0  0  0  0  0  0
   -4.1464    0.7117    1.0098 C   0  0  0  0  0  0  0  0  0  0  0  0
   -5.6210    0.4781    1.2210 C   0  0  0  0  0  0  0  0  0  0  0  0
   -6.1646    0.2700   -0.0848 O   0  0  0  0  0  0  0  0  0  0  0  0
   -5.1573   -0.1142   -0.9255 C   0  0  0  0  0  0  0  0  0  0  0  0
   -5.3019   -0.3534   -2.1143 O   0  0  0  0  0  0  0  0  0  0  0  0
    5.7293   -1.0376    1.9280 H   0  0  0  0  0  0  0  0  0  0  0  0
    5.2645    0.2974    2.9990 H   0  0  0  0  0  0  0  0  0  0  0  0
    6.1672    0.6316    1.5107 H   0  0  0  0  0  0  0  0  0  0  0  0
    3.3084   -0.4491    1.7015 H   0  0  0  0  0  0  0  0  0  0  0  0
    3.7466    1.2044    1.2673 H   0  0  0  0  0  0  0  0  0  0  0  0
    4.4949   -1.3115   -0.3237 H   0  0  0  0  0  0  0  0  0  0  0  0
    5.0284    0.3188   -0.7188 H   0  0  0  0  0  0  0  0  0  0  0  0
    2.6716    1.0486   -1.0403 H   0  0  0  0  0  0  0  0  0  0  0  0
    3.1645   -0.2300   -2.1350 H   0  0  0  0  0  0  0  0  0  0  0  0
    2.0417   -1.9245   -0.5708 H   0  0  0  0  0  0  0  0  0  0  0  0
    1.4062   -0.5722    0.3604 H   0  0  0  0  0  0  0  0  0  0  0  0
   -0.7583    0.6452   -2.4385 H   0  0  0  0  0  0  0  0  0  0  0  0
    0.1937    1.2900   -1.1126 H   0  0  0  0  0  0  0  0  0  0  0  0
   -2.8448    0.1829   -1.9683 H   0  0  0  0  0  0  0  0  0  0  0  0
   -3.7121   -1.2421    0.1685 H   0  0  0  0  0  0  0  0  0  0  0  0
   -3.5516    0.4977    1.9022 H   0  0  0  0  0  0  0  0  0  0  0  0
   -3.9703    1.7590    0.7317 H   0  0  0  0  0  0  0  0  0  0  0  0
   -6.1069    1.3394    1.6883 H   0  0  0  0  0  0  0  0  0  0  0  0
   -5.8188   -0.4129    1.8268 H   0  0  0  0  0  0  0  0  0  0  0  0
  1  2  1  0
  2  3  1  0
  3  4  1  0
  4  5  1  0
  5  6  1  0
  6  7  2  0
  6  8  1  0
  8  9  1  0
  9 10  2  0
  9 11  1  0
 11 12  1  0
 12 13  1  0
 13 14  1  0
 14 15  1  0
 15 16  1  0
 16 17  2  0
 16 12  1  0
  1 18  1  0
  1 19  1  0
  1 20  1  0
  2 21  1  0
  2 22  1  0
  3 23  1  0
  3 24  1  0
  4 25  1  0
  4 26  1  0
  5 27  1  0
  5 28  1  0
  8 29  1  0
  8 30  1  0
 11 31  1  0
 12 32  1  1
 13 33  1  0
 13 34  1  0
 14 35  1  0
 14 36  1  0
M  END
$$$$
