
     RDKit          3D

 50 54  0  0  0  0  0  0  0  0999 V2000
   -0.5769    1.3346   -2.3412 O   0  0  0  0  0  0  0  0  0  0  0  0
   -0.9276   -0.0659   -2.4183 S   0  0  0  0  0  6  0  0  0  0  0  0
   -1.2018   -0.7009   -3.6895 O   0  0  0  0  0  0  0  0  0  0  0  0
   -2.3513   -0.3435   -1.3908 C   0  0  0  0  0  0  0  0  0  0  0  0
   -2.8937   -1.6342   -1.3258 C   0  0  0  0  0  0  0  0  0  0  0  0
   -4.0151   -1.8756   -0.5298 C   0  0  0  0  0  0  0  0  0  0  0  0
   -4.5937   -0.8301    0.1899 C   0  0  0  0  0  0  0  0  0  0  0  0
   -4.0390    0.4653    0.1123 C   0  0  0  0  0  0  0  0  0  0  0  0
   -2.9208    0.7170   -0.6805 C   0  0  0  0  0  0  0  0  0  0  0  0
   -4.7109    1.4515    0.8994 C   0  0  0  0  0  0  0  0  0  0  0  0
   -4.3110    2.7331    1.0081 O   0  0  0  0  0  0  0  0  0  0  0  0
   -5.2016    3.3887    1.8659 N   0  0  0  0  0  0  0  0  0  0  0  0
   -6.0983    2.4581    2.2284 C   0  0  0  0  0  0  0  0  0  0  0  0
   -5.8256    1.2159    1.6419 C   0  0  0  0  0  0  0  0  0  0  0  0
   -6.4368   -0.1216    1.6631 C   0  0  0  0  0  0  0  0  0  0  0  0
   -5.6912   -1.1624    0.9595 O   0  0  0  0  0  0  0  0  0  0  0  0
    0.2804   -0.9650   -1.6203 N   0  0  0  0  0  0  0  0  0  0  0  0
    0.6848   -0.4928   -0.2584 C   0  0  0  0  0  0  0  0  0  0  0  0
    1.7772    0.5959   -0.3033 C   0  0  0  0  0  0  0  0  0  0  0  0
    2.9646    0.2624   -1.1199 N   0  0  0  0  0  0  0  0  0  0  0  0
    3.8269   -0.7546   -0.4949 C   0  0  0  0  0  0  0  0  0  0  0  0
    4.5039   -0.2771    0.7734 C   0  0  0  0  0  0  0  0  0  0  0  0
    4.4011   -1.0184    1.9597 C   0  0  0  0  0  0  0  0  0  0  0  0
    5.0390   -0.5847    3.1237 C   0  0  0  0  0  0  0  0  0  0  0  0
    5.7890    0.5899    3.1136 C   0  0  0  0  0  0  0  0  0  0  0  0
    5.9043    1.3320    1.9399 C   0  0  0  0  0  0  0  0  0  0  0  0
    5.2683    0.8996    0.7755 C   0  0  0  0  0  0  0  0  0  0  0  0
    2.5136   -0.1605   -2.4630 C   0  0  0  0  0  0  0  0  0  0  0  0
    1.4711   -1.2948   -2.4619 C   0  0  0  0  0  0  0  0  0  0  0  0
   -2.4464   -2.4477   -1.8940 H   0  0  0  0  0  0  0  0  0  0  0  0
   -4.4385   -2.8752   -0.4745 H   0  0  0  0  0  0  0  0  0  0  0  0
   -2.5024    1.7190   -0.7438 H   0  0  0  0  0  0  0  0  0  0  0  0
   -6.8973    2.7426    2.8988 H   0  0  0  0  0  0  0  0  0  0  0  0
   -6.5539   -0.4660    2.6962 H   0  0  0  0  0  0  0  0  0  0  0  0
   -7.4333   -0.0872    1.2094 H   0  0  0  0  0  0  0  0  0  0  0  0
   -0.1824   -0.1213    0.2956 H   0  0  0  0  0  0  0  0  0  0  0  0
    1.0420   -1.3657    0.3012 H   0  0  0  0  0  0  0  0  0  0  0  0
    2.0681    0.8535    0.7216 H   0  0  0  0  0  0  0  0  0  0  0  0
    1.3490    1.5205   -0.7075 H   0  0  0  0  0  0  0  0  0  0  0  0
    3.2759   -1.6808   -0.2947 H   0  0  0  0  0  0  0  0  0  0  0  0
    4.6348   -1.0250   -1.1882 H   0  0  0  0  0  0  0  0  0  0  0  0
    3.8241   -1.9395    1.9869 H   0  0  0  0  0  0  0  0  0  0  0  0
    4.9525   -1.1642    4.0391 H   0  0  0  0  0  0  0  0  0  0  0  0
    6.2846    0.9274    4.0200 H   0  0  0  0  0  0  0  0  0  0  0  0
    6.4878    2.2488    1.9296 H   0  0  0  0  0  0  0  0  0  0  0  0
    5.3596    1.4884   -0.1355 H   0  0  0  0  0  0  0  0  0  0  0  0
    2.0911    0.7155   -2.9712 H   0  0  0  0  0  0  0  0  0  0  0  0
    3.3773   -0.4594   -3.0696 H   0  0  0  0  0  0  0  0  0  0  0  0
    1.1689   -1.5238   -3.4891 H   0  0  0  0  0  0  0  0  0  0  0  0
    1.9096   -2.2216   -2.0729 H   0  0  0  0  0  0  0  0  0  0  0  0
  1  2  2  0
  2  3  2  0
  2  4  1  0
  4  5  2  0
  5  6  1  0
  6  7  2  0
  7  8  1  0
  8  9  2  0
  8 10  1  0
 10 11  1  0
 11 12  1  0
 12 13  2  0
 13 14  1  0
 14 15  1  0
 15 16  1  0
  2 17  1  0
 17 18  1  0
 18 19  1  0
 19 20  1  0
 20 21  1  0
 21 22  1  0
 22 23  2  0
 23 24  1  0
 24 25  2  0
 25 26  1  0
 26 27  2  0
 20 28  1  0
 28 29  1  0
  9  4  1  0
 14 10  2  0
 29 17  1  0
 16  7  1  0
 27 22  1  0
  5 30  1  0
  6 31  1  0
  9 32  1  0
 13 33  1  0
 15 34  1  0
 15 35  1  0
 18 36  1  0
 18 37  1  0
 19 38  1  0
 19 39  1  0
 21 40  1  0
 21 41  1  0
 23 42  1  0
 24 43  1  0
 25 44  1  0
 26 45  1  0
 27 46  1  0
 28 47  1  0
 28 48  1  0
 29 49  1  0
 29 50  1  0
M  END
$$$$
