
     RDKit          3D

 29 30  0  0  0  0  0  0  0  0999 V2000
    4.3022    0.0010   -1.6507 C   0  0  0  0  0  0  0  0  0  0  0  0
    2.9475   -0.4358   -1.7036 O   0  0  0  0  0  0  0  0  0  0  0  0
    2.4097   -0.6542   -0.4482 C   0  0  0  0  0  0  0  0  0  0  0  0
    3.2159   -0.7046    0.6385 N   0  0  0  0  0  0  0  0  0  0  0  0
    2.5782   -0.9371    1.8101 C   0  0  0  0  0  0  0  0  0  0  0  0
    1.2053   -1.1310    1.8923 C   0  0  0  0  0  0  0  0  0  0  0  0
    0.3944   -1.1020    0.8082 N   0  0  0  0  0  0  0  0  0  0  0  0
    1.0270   -0.8682   -0.3601 C   0  0  0  0  0  0  0  0  0  0  0  0
    0.1736   -0.7576   -1.4864 N   0  0  0  0  0  0  0  0  0  0  0  0
   -0.5641    0.7504   -1.6369 S   0  0  0  0  0  6  0  0  0  0  0  0
    0.3762    1.7844   -1.2735 O   0  0  0  0  0  0  0  0  0  0  0  0
   -1.1388    0.7567   -2.9694 O   0  0  0  0  0  0  0  0  0  0  0  0
   -1.9279    0.6550   -0.5017 C   0  0  0  0  0  0  0  0  0  0  0  0
   -3.0552   -0.0589   -0.9590 C   0  0  0  0  0  0  0  0  0  0  0  0
   -4.1903   -0.1845   -0.1639 C   0  0  0  0  0  0  0  0  0  0  0  0
   -4.2110    0.4045    1.0940 C   0  0  0  0  0  0  0  0  0  0  0  0
   -3.0987    1.1198    1.5553 C   0  0  0  0  0  0  0  0  0  0  0  0
   -3.2339    1.8074    3.1426 Cl  0  0  0  0  0  0  0  0  0  0  0  0
   -1.9422    1.2609    0.7616 C   0  0  0  0  0  0  0  0  0  0  0  0
   -0.6029    2.1529    1.4060 Cl  0  0  0  0  0  0  0  0  0  0  0  0
    4.6191    0.2274   -2.6731 H   0  0  0  0  0  0  0  0  0  0  0  0
    4.9570   -0.7888   -1.2667 H   0  0  0  0  0  0  0  0  0  0  0  0
    4.4032    0.9185   -1.0601 H   0  0  0  0  0  0  0  0  0  0  0  0
    3.2052   -0.9631    2.6949 H   0  0  0  0  0  0  0  0  0  0  0  0
    0.7177   -1.3106    2.8447 H   0  0  0  0  0  0  0  0  0  0  0  0
    0.6335   -0.9806   -2.3689 H   0  0  0  0  0  0  0  0  0  0  0  0
   -3.0502   -0.5267   -1.9433 H   0  0  0  0  0  0  0  0  0  0  0  0
   -5.0533   -0.7396   -0.5247 H   0  0  0  0  0  0  0  0  0  0  0  0
   -5.0976    0.3043    1.7166 H   0  0  0  0  0  0  0  0  0  0  0  0
  1  2  1  0
  2  3  1  0
  3  4  2  0
  4  5  1  0
  5  6  2  0
  6  7  1  0
  7  8  2  0
  8  9  1  0
  9 10  1  0
 10 11  2  0
 10 12  2  0
 10 13  1  0
 13 14  2  0
 14 15  1  0
 15 16  2  0
 16 17  1  0
 17 18  1  0
 17 19  2  0
 19 20  1  0
  8  3  1  0
 19 13  1  0
  1 21  1  0
  1 22  1  0
  1 23  1  0
  5 24  1  0
  6 25  1  0
  9 26  1  0
 14 27  1  0
 15 28  1  0
 16 29  1  0
M  END
$$$$
