
     RDKit          3D

 50 52  0  0  0  0  0  0  0  0999 V2000
   -2.6249   -3.4591    1.3969 C   0  0  0  0  0  0  0  0  0  0  0  0
   -3.2513   -2.3381    0.6047 C   0  0  0  0  0  0  0  0  0  0  0  0
   -4.4119   -2.4632    0.2147 O   0  0  0  0  0  0  0  0  0  0  0  0
   -2.4774   -1.2017    0.3511 N   0  0  0  0  0  0  0  0  0  0  0  0
   -3.0798   -0.0768   -0.4088 C   0  0  0  0  0  0  0  0  0  0  0  0
   -3.4351   -0.4389   -1.8565 C   0  0  0  0  0  0  0  0  0  0  0  0
   -4.0023    0.7831   -2.5675 C   0  0  0  0  0  0  0  0  0  0  0  0
   -5.1228    1.3149   -1.8624 O   0  0  0  0  0  0  0  0  0  0  0  0
   -4.7966    1.7354   -0.5391 C   0  0  0  0  0  0  0  0  0  0  0  0
   -4.2797    0.5705    0.2956 C   0  0  0  0  0  0  0  0  0  0  0  0
   -1.0841   -1.0614    0.8152 C   0  0  0  0  0  0  0  0  0  0  0  0
   -0.8704    0.0722    1.8277 C   0  0  0  0  0  0  0  0  0  0  0  0
    0.6392    0.2718    1.7972 C   0  0  0  0  0  0  0  0  0  0  0  0
    1.0270   -0.0598    0.4351 N   0  0  0  0  0  0  0  0  0  0  0  0
    2.2382    0.1954   -0.1793 C   0  0  0  0  0  0  0  0  0  0  0  0
    2.4324   -0.1256   -1.3510 O   0  0  0  0  0  0  0  0  0  0  0  0
    3.2826    0.9053    0.6748 C   0  0  0  0  0  0  0  0  0  0  0  0
    4.6626    0.9531    0.0597 C   0  0  0  0  0  0  0  0  0  0  0  0
    5.5815   -0.0821    0.2952 C   0  0  0  0  0  0  0  0  0  0  0  0
    6.8522   -0.0407   -0.2805 C   0  0  0  0  0  0  0  0  0  0  0  0
    7.2018    1.0292   -1.0952 C   0  0  0  0  0  0  0  0  0  0  0  0
    8.4222    1.0675   -1.6462 F   0  0  0  0  0  0  0  0  0  0  0  0
    6.3035    2.0583   -1.3490 C   0  0  0  0  0  0  0  0  0  0  0  0
    5.0322    2.0201   -0.7746 C   0  0  0  0  0  0  0  0  0  0  0  0
   -0.0369   -0.7610   -0.2702 C   0  0  0  0  0  0  0  0  0  0  0  0
   -2.3243   -3.1054    2.3865 H   0  0  0  0  0  0  0  0  0  0  0  0
   -3.3620   -4.2563    1.5376 H   0  0  0  0  0  0  0  0  0  0  0  0
   -1.7758   -3.8803    0.8526 H   0  0  0  0  0  0  0  0  0  0  0  0
   -2.3156    0.7074   -0.4709 H   0  0  0  0  0  0  0  0  0  0  0  0
   -4.1868   -1.2348   -1.8807 H   0  0  0  0  0  0  0  0  0  0  0  0
   -2.5531   -0.8113   -2.3893 H   0  0  0  0  0  0  0  0  0  0  0  0
   -4.3407    0.5057   -3.5709 H   0  0  0  0  0  0  0  0  0  0  0  0
   -3.2422    1.5651   -2.6815 H   0  0  0  0  0  0  0  0  0  0  0  0
   -5.7054    2.1432   -0.0852 H   0  0  0  0  0  0  0  0  0  0  0  0
   -4.0611    2.5470   -0.5879 H   0  0  0  0  0  0  0  0  0  0  0  0
   -5.0921   -0.1528    0.4198 H   0  0  0  0  0  0  0  0  0  0  0  0
   -3.9993    0.9168    1.2965 H   0  0  0  0  0  0  0  0  0  0  0  0
   -0.7580   -1.9813    1.3086 H   0  0  0  0  0  0  0  0  0  0  0  0
   -1.2398   -0.1790    2.8266 H   0  0  0  0  0  0  0  0  0  0  0  0
   -1.3676    0.9964    1.5139 H   0  0  0  0  0  0  0  0  0  0  0  0
    0.9330    1.2926    2.0555 H   0  0  0  0  0  0  0  0  0  0  0  0
    1.1461   -0.4287    2.4696 H   0  0  0  0  0  0  0  0  0  0  0  0
    3.3527    0.4059    1.6485 H   0  0  0  0  0  0  0  0  0  0  0  0
    2.9355    1.9287    0.8620 H   0  0  0  0  0  0  0  0  0  0  0  0
    5.3114   -0.9292    0.9214 H   0  0  0  0  0  0  0  0  0  0  0  0
    7.5678   -0.8372   -0.1048 H   0  0  0  0  0  0  0  0  0  0  0  0
    6.5952    2.8780   -1.9972 H   0  0  0  0  0  0  0  0  0  0  0  0
    4.3287    2.8211   -0.9905 H   0  0  0  0  0  0  0  0  0  0  0  0
    0.3476   -1.6763   -0.7328 H   0  0  0  0  0  0  0  0  0  0  0  0
   -0.3963   -0.1038   -1.0673 H   0  0  0  0  0  0  0  0  0  0  0  0
  1  2  1  0
  2  3  2  0
  2  4  1  0
  4  5  1  0
  5  6  1  0
  6  7  1  0
  7  8  1  0
  8  9  1  0
  9 10  1  0
  4 11  1  0
 11 12  1  0
 12 13  1  0
 13 14  1  0
 14 15  1  0
 15 16  2  0
 15 17  1  0
 17 18  1  0
 18 19  2  0
 19 20  1  0
 20 21  2  0
 21 22  1  0
 21 23  1  0
 23 24  2  0
 14 25  1  0
 10  5  1  0
 25 11  1  0
 24 18  1  0
  1 26  1  0
  1 27  1  0
  1 28  1  0
  5 29  1  0
  6 30  1  0
  6 31  1  0
  7 32  1  0
  7 33  1  0
  9 34  1  0
  9 35  1  0
 10 36  1  0
 10 37  1  0
 11 38  1  0
 12 39  1  0
 12 40  1  0
 13 41  1  0
 13 42  1  0
 17 43  1  0
 17 44  1  0
 19 45  1  0
 20 46  1  0
 23 47  1  0
 24 48  1  0
 25 49  1  0
 25 50  1  0
M  END
$$$$
