
     RDKit          3D

 59 62  0  0  0  0  0  0  0  0999 V2000
   -9.1403   -1.7612    0.1289 C   0  0  0  0  0  0  0  0  0  0  0  0
   -7.9675   -0.9389    0.3713 N   0  0  0  0  0  0  0  0  0  0  0  0
   -8.1407    0.1670    1.3038 C   0  0  0  0  0  0  0  0  0  0  0  0
   -6.7466   -1.3534   -0.1570 C   0  0  0  0  0  0  0  0  0  0  0  0
   -6.5825   -2.4241   -0.7361 O   0  0  0  0  0  0  0  0  0  0  0  0
   -5.5789   -0.4531   -0.0476 C   0  0  0  0  0  0  0  0  0  0  0  0
   -5.6251    0.8269   -0.6150 C   0  0  0  0  0  0  0  0  0  0  0  0
   -4.5195    1.6817   -0.5478 C   0  0  0  0  0  0  0  0  0  0  0  0
   -3.3761    1.1927    0.0987 C   0  0  0  0  0  0  0  0  0  0  0  0
   -3.3082   -0.0864    0.6454 C   0  0  0  0  0  0  0  0  0  0  0  0
   -4.4188   -0.9367    0.5700 C   0  0  0  0  0  0  0  0  0  0  0  0
   -2.0769   -0.3187    1.2016 N   0  0  0  0  0  0  0  0  0  0  0  0
   -1.3753    0.7812    1.0023 C   0  0  0  0  0  0  0  0  0  0  0  0
    0.0522    0.9829    1.4231 C   0  0  0  0  0  0  0  0  0  0  0  0
    0.9565    1.2719    0.2941 N   0  0  0  0  0  0  0  0  0  0  0  0
    0.9969    0.1340   -0.6604 C   0  0  0  0  0  0  0  0  0  0  0  0
    2.2980    0.0585   -1.4781 C   0  0  0  0  0  0  0  0  0  0  0  0
    3.4701   -0.0907   -0.6122 N   0  0  0  0  0  0  0  0  0  0  0  0
    4.6323   -0.6184   -1.1640 C   0  0  0  0  0  0  0  0  0  0  0  0
    4.7170   -0.8506   -2.3668 O   0  0  0  0  0  0  0  0  0  0  0  0
    5.6286   -0.8552   -0.2462 N   0  0  0  0  0  0  0  0  0  0  0  0
    6.9614   -1.2628   -0.4869 C   0  0  0  0  0  0  0  0  0  0  0  0
    7.5398   -1.2614   -1.7593 C   0  0  0  0  0  0  0  0  0  0  0  0
    8.8682   -1.6623   -1.9404 C   0  0  0  0  0  0  0  0  0  0  0  0
    9.6379   -2.0626   -0.8509 C   0  0  0  0  0  0  0  0  0  0  0  0
    9.0822   -2.0606    0.4262 C   0  0  0  0  0  0  0  0  0  0  0  0
    7.7540   -1.6607    0.6062 C   0  0  0  0  0  0  0  0  0  0  0  0
    7.0603   -1.6736    2.3800 Br  0  0  0  0  0  0  0  0  0  0  0  0
    3.3566    0.5064    0.7225 C   0  0  0  0  0  0  0  0  0  0  0  0
    2.3077    1.6343    0.7691 C   0  0  0  0  0  0  0  0  0  0  0  0
   -2.1324    1.7291    0.3467 N   0  0  0  0  0  0  0  0  0  0  0  0
   -1.6908    3.0454   -0.0481 C   0  0  0  0  0  0  0  0  0  0  0  0
   -9.3720   -2.3193    1.0422 H   0  0  0  0  0  0  0  0  0  0  0  0
   -8.9790   -2.4697   -0.6893 H   0  0  0  0  0  0  0  0  0  0  0  0
   -9.9834   -1.1119   -0.1293 H   0  0  0  0  0  0  0  0  0  0  0  0
   -7.1915    0.5680    1.6639 H   0  0  0  0  0  0  0  0  0  0  0  0
   -8.7071   -0.1866    2.1719 H   0  0  0  0  0  0  0  0  0  0  0  0
   -8.7079    0.9566    0.8024 H   0  0  0  0  0  0  0  0  0  0  0  0
   -6.5254    1.1585   -1.1285 H   0  0  0  0  0  0  0  0  0  0  0  0
   -4.5528    2.6710   -0.9917 H   0  0  0  0  0  0  0  0  0  0  0  0
   -4.3706   -1.9405    0.9764 H   0  0  0  0  0  0  0  0  0  0  0  0
    0.0643    1.8209    2.1318 H   0  0  0  0  0  0  0  0  0  0  0  0
    0.3963    0.1008    1.9788 H   0  0  0  0  0  0  0  0  0  0  0  0
    0.1510    0.2191   -1.3519 H   0  0  0  0  0  0  0  0  0  0  0  0
    0.8906   -0.8195   -0.1250 H   0  0  0  0  0  0  0  0  0  0  0  0
    2.4369    0.9704   -2.0712 H   0  0  0  0  0  0  0  0  0  0  0  0
    2.2494   -0.7852   -2.1751 H   0  0  0  0  0  0  0  0  0  0  0  0
    5.3287   -0.9458    0.7127 H   0  0  0  0  0  0  0  0  0  0  0  0
    6.9823   -0.9456   -2.6364 H   0  0  0  0  0  0  0  0  0  0  0  0
    9.2985   -1.6581   -2.9393 H   0  0  0  0  0  0  0  0  0  0  0  0
   10.6694   -2.3725   -0.9977 H   0  0  0  0  0  0  0  0  0  0  0  0
    9.6894   -2.3704    1.2727 H   0  0  0  0  0  0  0  0  0  0  0  0
    3.0830   -0.2975    1.4158 H   0  0  0  0  0  0  0  0  0  0  0  0
    4.3265    0.9082    1.0341 H   0  0  0  0  0  0  0  0  0  0  0  0
    2.6597    2.4452    0.1172 H   0  0  0  0  0  0  0  0  0  0  0  0
    2.2788    2.0657    1.7775 H   0  0  0  0  0  0  0  0  0  0  0  0
   -2.5523    3.7158   -0.1118 H   0  0  0  0  0  0  0  0  0  0  0  0
   -0.9997    3.4415    0.7000 H   0  0  0  0  0  0  0  0  0  0  0  0
   -1.2029    2.9656   -1.0233 H   0  0  0  0  0  0  0  0  0  0  0  0
  1  2  1  0
  2  3  1  0
  2  4  1  0
  4  5  2  0
  4  6  1  0
  6  7  2  0
  7  8  1  0
  8  9  2  0
  9 10  1  0
 10 11  2  0
 10 12  1  0
 12 13  2  0
 13 14  1  0
 14 15  1  0
 15 16  1  0
 16 17  1  0
 17 18  1  0
 18 19  1  0
 19 20  2  0
 19 21  1  0
 21 22  1  0
 22 23  2  0
 23 24  1  0
 24 25  2  0
 25 26  1  0
 26 27  2  0
 27 28  1  0
 18 29  1  0
 29 30  1  0
 13 31  1  0
 31 32  1  0
 11  6  1  0
 30 15  1  0
 31  9  1  0
 27 22  1  0
  1 33  1  0
  1 34  1  0
  1 35  1  0
  3 36  1  0
  3 37  1  0
  3 38  1  0
  7 39  1  0
  8 40  1  0
 11 41  1  0
 14 42  1  0
 14 43  1  0
 16 44  1  0
 16 45  1  0
 17 46  1  0
 17 47  1  0
 21 48  1  0
 23 49  1  0
 24 50  1  0
 25 51  1  0
 26 52  1  0
 29 53  1  0
 29 54  1  0
 30 55  1  0
 30 56  1  0
 32 57  1  0
 32 58  1  0
 32 59  1  0
M  END
$$$$
