
     RDKit          3D

 78 82  0  0  0  0  0  0  0  0999 V2000
    5.2598    2.4245    0.8112 C   0  0  0  0  0  0  0  0  0  0  0  0
    5.9667    1.1835    0.4163 C   0  0  0  0  0  0  0  0  0  0  0  0
    7.2765    1.0779    0.3305 N   0  0  0  0  0  0  0  0  0  0  0  0
    7.5824   -0.1876   -0.0728 N   0  0  0  0  0  0  0  0  0  0  0  0
    6.4609   -0.8559   -0.2428 C   0  0  0  0  0  0  0  0  0  0  0  0
    6.3671   -2.2830   -0.7040 C   0  0  0  0  0  0  0  0  0  0  0  0
    7.5533   -2.6522   -1.5999 C   0  0  0  0  0  0  0  0  0  0  0  0
    6.3024   -3.2278    0.4972 C   0  0  0  0  0  0  0  0  0  0  0  0
    5.3987   -0.0305    0.0845 N   0  0  0  0  0  0  0  0  0  0  0  0
    3.9873   -0.3978    0.0718 C   0  0  1  0  0  0  0  0  0  0  0  0
    3.3102   -0.3331    1.4626 C   0  0  0  0  0  0  0  0  0  0  0  0
    1.7735   -0.4056    1.3681 C   0  0  2  0  0  0  0  0  0  0  0  0
    1.3169   -1.6859    0.6654 C   0  0  0  0  0  0  0  0  0  0  0  0
    1.2471   -1.3165   -0.8144 C   0  0  0  0  0  0  0  0  0  0  0  0
    1.6687    0.1547   -0.8734 C   0  0  2  0  0  0  0  0  0  0  0  0
    3.1917    0.2964   -1.0591 C   0  0  0  0  0  0  0  0  0  0  0  0
    1.4077    0.6858    0.4640 N   0  0  0  0  0  0  0  0  0  0  0  0
    0.1127    1.3287    0.6879 C   0  0  0  0  0  0  0  0  0  0  0  0
   -1.1688    0.5213    0.4502 C   0  0  0  0  0  0  0  0  0  0  0  0
   -2.4417    1.3281    0.7939 C   0  0  2  0  0  0  0  0  0  0  0  0
   -3.6305    0.4904    0.6834 N   0  0  0  0  0  0  0  0  0  0  0  0
   -3.9804   -0.4164    1.6530 C   0  0  0  0  0  0  0  0  0  0  0  0
   -3.3141   -0.6000    2.6686 O   0  0  0  0  0  0  0  0  0  0  0  0
   -5.2613   -1.2041    1.3869 C   0  0  0  0  0  0  0  0  0  0  0  0
   -5.1032   -2.1247    0.1650 C   0  0  0  0  0  0  0  0  0  0  0  0
   -6.4637   -2.6175   -0.3158 C   0  0  0  0  0  0  0  0  0  0  0  0
   -7.3430   -1.4617   -0.7756 C   0  0  0  0  0  0  0  0  0  0  0  0
   -7.2172   -1.3096   -2.1208 F   0  0  0  0  0  0  0  0  0  0  0  0
   -8.6423   -1.7853   -0.5500 F   0  0  0  0  0  0  0  0  0  0  0  0
   -7.0269   -0.1248   -0.1169 C   0  0  0  0  0  0  0  0  0  0  0  0
   -6.5023   -0.2916    1.3074 C   0  0  0  0  0  0  0  0  0  0  0  0
   -2.6454    2.5632   -0.0690 C   0  0  0  0  0  0  0  0  0  0  0  0
   -2.6108    2.5008   -1.4720 C   0  0  0  0  0  0  0  0  0  0  0  0
   -2.8242    3.6470   -2.2403 C   0  0  0  0  0  0  0  0  0  0  0  0
   -3.0857    4.8660   -1.6196 C   0  0  0  0  0  0  0  0  0  0  0  0
   -3.1337    4.9418   -0.2296 C   0  0  0  0  0  0  0  0  0  0  0  0
   -2.9182    3.7983    0.5414 C   0  0  0  0  0  0  0  0  0  0  0  0
    4.7265    2.3063    1.7568 H   0  0  0  0  0  0  0  0  0  0  0  0
    4.5595    2.7568    0.0426 H   0  0  0  0  0  0  0  0  0  0  0  0
    5.9818    3.2365    0.9563 H   0  0  0  0  0  0  0  0  0  0  0  0
    5.4662   -2.4145   -1.3135 H   0  0  0  0  0  0  0  0  0  0  0  0
    8.5048   -2.5957   -1.0581 H   0  0  0  0  0  0  0  0  0  0  0  0
    7.4448   -3.6733   -1.9819 H   0  0  0  0  0  0  0  0  0  0  0  0
    7.6187   -1.9771   -2.4610 H   0  0  0  0  0  0  0  0  0  0  0  0
    7.1878   -3.1210    1.1359 H   0  0  0  0  0  0  0  0  0  0  0  0
    5.4231   -3.0228    1.1169 H   0  0  0  0  0  0  0  0  0  0  0  0
    6.2457   -4.2736    0.1722 H   0  0  0  0  0  0  0  0  0  0  0  0
    3.9677   -1.4625   -0.1835 H   0  0  0  0  0  0  0  0  0  0  0  0
    3.5784    0.5824    1.9959 H   0  0  0  0  0  0  0  0  0  0  0  0
    3.6843   -1.1579    2.0840 H   0  0  0  0  0  0  0  0  0  0  0  0
    1.3451   -0.3082    2.3717 H   0  0  0  0  0  0  0  0  0  0  0  0
    0.3279   -1.9974    1.0171 H   0  0  0  0  0  0  0  0  0  0  0  0
    1.9954   -2.5271    0.8406 H   0  0  0  0  0  0  0  0  0  0  0  0
    0.2232   -1.4491   -1.1786 H   0  0  0  0  0  0  0  0  0  0  0  0
    1.8898   -1.9631   -1.4215 H   0  0  0  0  0  0  0  0  0  0  0  0
    1.1549    0.7016   -1.6717 H   0  0  0  0  0  0  0  0  0  0  0  0
    3.4898   -0.1297   -2.0265 H   0  0  0  0  0  0  0  0  0  0  0  0
    3.4379    1.3613   -1.1170 H   0  0  0  0  0  0  0  0  0  0  0  0
    0.0939    2.2227    0.0532 H   0  0  0  0  0  0  0  0  0  0  0  0
    0.1016    1.7121    1.7162 H   0  0  0  0  0  0  0  0  0  0  0  0
   -1.2161    0.1742   -0.5874 H   0  0  0  0  0  0  0  0  0  0  0  0
   -1.1519   -0.3739    1.0792 H   0  0  0  0  0  0  0  0  0  0  0  0
   -2.3627    1.6367    1.8445 H   0  0  0  0  0  0  0  0  0  0  0  0
   -4.2370    0.6483   -0.1074 H   0  0  0  0  0  0  0  0  0  0  0  0
   -5.3989   -1.8439    2.2709 H   0  0  0  0  0  0  0  0  0  0  0  0
   -4.5873   -1.6165   -0.6587 H   0  0  0  0  0  0  0  0  0  0  0  0
   -4.4728   -2.9806    0.4370 H   0  0  0  0  0  0  0  0  0  0  0  0
   -6.9608   -3.1626    0.4956 H   0  0  0  0  0  0  0  0  0  0  0  0
   -6.3282   -3.3265   -1.1397 H   0  0  0  0  0  0  0  0  0  0  0  0
   -6.2897    0.4165   -0.7218 H   0  0  0  0  0  0  0  0  0  0  0  0
   -7.9307    0.4968   -0.1021 H   0  0  0  0  0  0  0  0  0  0  0  0
   -7.3020   -0.7366    1.9153 H   0  0  0  0  0  0  0  0  0  0  0  0
   -6.2997    0.6931    1.7450 H   0  0  0  0  0  0  0  0  0  0  0  0
   -2.4207    1.5596   -1.9837 H   0  0  0  0  0  0  0  0  0  0  0  0
   -2.7907    3.5868   -3.3258 H   0  0  0  0  0  0  0  0  0  0  0  0
   -3.2552    5.7564   -2.2198 H   0  0  0  0  0  0  0  0  0  0  0  0
   -3.3454    5.8906    0.2548 H   0  0  0  0  0  0  0  0  0  0  0  0
   -2.9692    3.8782    1.6258 H   0  0  0  0  0  0  0  0  0  0  0  0
  1  2  1  0
  2  3  2  0
  3  4  1  0
  4  5  2  0
  5  6  1  0
  6  7  1  0
  6  8  1  0
  5  9  1  0
  9 10  1  0
 10 11  1  0
 11 12  1  0
 12 13  1  0
 13 14  1  0
 14 15  1  0
 15 16  1  0
 15 17  1  0
 17 18  1  0
 18 19  1  0
 19 20  1  0
 20 21  1  0
 21 22  1  0
 22 23  2  0
 22 24  1  0
 24 25  1  0
 25 26  1  0
 26 27  1  0
 27 28  1  0
 27 29  1  0
 27 30  1  0
 30 31  1  0
 20 32  1  0
 32 33  2  0
 33 34  1  0
 34 35  2  0
 35 36  1  0
 36 37  2  0
  9  2  1  0
 16 10  1  0
 31 24  1  0
 37 32  1  0
 17 12  1  0
  1 38  1  0
  1 39  1  0
  1 40  1  0
  6 41  1  0
  7 42  1  0
  7 43  1  0
  7 44  1  0
  8 45  1  0
  8 46  1  0
  8 47  1  0
 10 48  1  6
 11 49  1  0
 11 50  1  0
 12 51  1  1
 13 52  1  0
 13 53  1  0
 14 54  1  0
 14 55  1  0
 15 56  1  6
 16 57  1  0
 16 58  1  0
 18 59  1  0
 18 60  1  0
 19 61  1  0
 19 62  1  0
 20 63  1  1
 21 64  1  0
 24 65  1  0
 25 66  1  0
 25 67  1  0
 26 68  1  0
 26 69  1  0
 30 70  1  0
 30 71  1  0
 31 72  1  0
 31 73  1  0
 33 74  1  0
 34 75  1  0
 35 76  1  0
 36 77  1  0
 37 78  1  0
M  END
$$$$
