
     RDKit          3D

 47 48  0  0  0  0  0  0  0  0999 V2000
    4.3621    0.3987   -0.3432 C   0  0  0  0  0  0  0  0  0  0  0  0
    3.4414   -0.6399   -0.9928 C   0  0  0  0  0  0  0  0  0  0  0  0
    3.6318   -2.0353   -0.3882 C   0  0  0  0  0  0  0  0  0  0  0  0
    3.7614   -0.7084   -2.4939 C   0  0  0  0  0  0  0  0  0  0  0  0
    2.0517   -0.2263   -0.9318 O   0  0  0  0  0  0  0  0  0  0  0  0
    1.4241   -0.0532    0.2691 C   0  0  0  0  0  0  0  0  0  0  0  0
    1.9397   -0.2275    1.3633 O   0  0  0  0  0  0  0  0  0  0  0  0
   -0.0144    0.3938    0.0007 C   0  0  0  0  0  0  0  0  0  0  0  0
   -0.8783    0.3880    1.2043 N   0  0  0  0  0  0  0  0  0  0  0  0
   -2.1801    1.0166    0.9361 C   0  0  0  0  0  0  0  0  0  0  0  0
   -2.0851    2.5181    0.7400 C   0  0  0  0  0  0  0  0  0  0  0  0
   -1.4547    3.3254    1.7009 C   0  0  0  0  0  0  0  0  0  0  0  0
   -1.3790    4.7090    1.5280 C   0  0  0  0  0  0  0  0  0  0  0  0
   -1.9402    5.2951    0.3964 C   0  0  0  0  0  0  0  0  0  0  0  0
   -1.8477    6.9997    0.1807 Cl  0  0  0  0  0  0  0  0  0  0  0  0
   -2.5778    4.5103   -0.5623 C   0  0  0  0  0  0  0  0  0  0  0  0
   -2.6528    3.1257   -0.3900 C   0  0  0  0  0  0  0  0  0  0  0  0
   -1.0201   -0.9256    1.8579 C   0  0  0  0  0  0  0  0  0  0  0  0
   -1.4930   -2.0569    0.9799 C   0  0  0  0  0  0  0  0  0  0  0  0
   -0.7235   -2.9764    0.2867 C   0  0  0  0  0  0  0  0  0  0  0  0
   -1.5148   -3.9253   -0.4275 C   0  0  0  0  0  0  0  0  0  0  0  0
   -2.8606   -3.7052   -0.2329 C   0  0  0  0  0  0  0  0  0  0  0  0
   -3.9449   -4.4674   -0.7967 N   0  0  0  0  0  4  0  0  0  0  0  0
   -3.6260   -5.4272   -1.5119 O   0  0  0  0  0  0  0  0  0  0  0  0
   -5.1046   -4.1187   -0.5414 O   0  0  0  0  0  1  0  0  0  0  0  0
   -3.1686   -2.3911    0.7968 S   0  0  0  0  0  0  0  0  0  0  0  0
    4.2305    0.4410    0.7421 H   0  0  0  0  0  0  0  0  0  0  0  0
    4.1459    1.4028   -0.7252 H   0  0  0  0  0  0  0  0  0  0  0  0
    5.4163    0.1722   -0.5357 H   0  0  0  0  0  0  0  0  0  0  0  0
    4.6411   -2.4167   -0.5766 H   0  0  0  0  0  0  0  0  0  0  0  0
    2.9080   -2.7428   -0.8084 H   0  0  0  0  0  0  0  0  0  0  0  0
    3.4785   -2.0369    0.6950 H   0  0  0  0  0  0  0  0  0  0  0  0
    4.7965   -1.0158   -2.6760 H   0  0  0  0  0  0  0  0  0  0  0  0
    3.0956   -1.4156   -3.0024 H   0  0  0  0  0  0  0  0  0  0  0  0
    3.6002    0.2652   -2.9714 H   0  0  0  0  0  0  0  0  0  0  0  0
    0.0744    1.4144   -0.3897 H   0  0  0  0  0  0  0  0  0  0  0  0
   -0.4417   -0.2340   -0.7895 H   0  0  0  0  0  0  0  0  0  0  0  0
   -2.6597    0.5561    0.0636 H   0  0  0  0  0  0  0  0  0  0  0  0
   -2.8609    0.8693    1.7851 H   0  0  0  0  0  0  0  0  0  0  0  0
   -1.0115    2.8721    2.5862 H   0  0  0  0  0  0  0  0  0  0  0  0
   -0.8822    5.3189    2.2775 H   0  0  0  0  0  0  0  0  0  0  0  0
   -3.0192    4.9691   -1.4429 H   0  0  0  0  0  0  0  0  0  0  0  0
   -3.1575    2.5264   -1.1447 H   0  0  0  0  0  0  0  0  0  0  0  0
   -0.0629   -1.2177    2.3051 H   0  0  0  0  0  0  0  0  0  0  0  0
   -1.6860   -0.8293    2.7266 H   0  0  0  0  0  0  0  0  0  0  0  0
    0.3612   -2.9697    0.2932 H   0  0  0  0  0  0  0  0  0  0  0  0
   -1.1125   -4.7248   -1.0400 H   0  0  0  0  0  0  0  0  0  0  0  0
  1  2  1  0
  2  3  1  0
  2  4  1  0
  2  5  1  0
  5  6  1  0
  6  7  2  0
  6  8  1  0
  8  9  1  0
  9 10  1  0
 10 11  1  0
 11 12  2  0
 12 13  1  0
 13 14  2  0
 14 15  1  0
 14 16  1  0
 16 17  2  0
  9 18  1  0
 18 19  1  0
 19 20  2  0
 20 21  1  0
 21 22  2  0
 22 23  1  0
 23 24  2  0
 23 25  1  0
 22 26  1  0
 17 11  1  0
 26 19  1  0
  1 27  1  0
  1 28  1  0
  1 29  1  0
  3 30  1  0
  3 31  1  0
  3 32  1  0
  4 33  1  0
  4 34  1  0
  4 35  1  0
  8 36  1  0
  8 37  1  0
 10 38  1  0
 10 39  1  0
 12 40  1  0
 13 41  1  0
 16 42  1  0
 17 43  1  0
 18 44  1  0
 18 45  1  0
 20 46  1  0
 21 47  1  0
M  CHG  2  23   1  25  -1
M  END
$$$$
