
     RDKit          3D

 53 56  0  0  0  0  0  0  0  0999 V2000
    1.9213   -1.2240   -1.8723 O   0  0  0  0  0  0  0  0  0  0  0  0
    1.9551   -1.9044   -0.8524 C   0  0  0  0  0  0  0  0  0  0  0  0
    0.8589   -2.5628   -0.3455 N   0  0  0  0  0  0  0  0  0  0  0  0
   -0.4707   -2.3979   -0.9013 C   0  0  0  0  0  0  0  0  0  0  0  0
   -1.1562   -1.1300   -0.3820 C   0  0  2  0  0  0  0  0  0  0  0  0
   -1.4924   -1.3218    1.0016 O   0  0  0  0  0  0  0  0  0  0  0  0
   -2.4493   -0.8360   -1.1768 C   0  0  0  0  0  0  0  0  0  0  0  0
   -3.3469    0.0923   -0.4493 N   0  0  0  0  0  0  0  0  0  0  0  0
   -2.8433    1.4762   -0.4293 C   0  0  0  0  0  0  0  0  0  0  0  0
   -3.6917    2.3240    0.5288 C   0  0  0  0  0  0  0  0  0  0  0  0
   -5.1700    2.1756    0.2798 C   0  0  0  0  0  0  0  0  0  0  0  0
   -6.0771    3.0908    0.8300 C   0  0  0  0  0  0  0  0  0  0  0  0
   -7.4445    2.9458    0.6101 C   0  0  0  0  0  0  0  0  0  0  0  0
   -7.9223    1.8766   -0.1473 C   0  0  0  0  0  0  0  0  0  0  0  0
   -7.0266    0.9477   -0.6789 C   0  0  0  0  0  0  0  0  0  0  0  0
   -5.6488    1.0796   -0.4594 C   0  0  0  0  0  0  0  0  0  0  0  0
   -4.6887    0.0782   -1.0693 C   0  0  0  0  0  0  0  0  0  0  0  0
    3.2124   -2.0717   -0.0582 C   0  0  0  0  0  0  0  0  0  0  0  0
    4.3580   -1.4212   -0.4676 C   0  0  0  0  0  0  0  0  0  0  0  0
    5.4670   -1.6218    0.3201 C   0  0  0  0  0  0  0  0  0  0  0  0
    6.6936   -1.0044    0.0396 N   0  0  0  0  0  0  0  0  0  0  0  0
    6.8131    0.3852   -0.3425 C   0  0  0  0  0  0  0  0  0  0  0  0
    6.6851    1.3560    0.8418 C   0  0  0  0  0  0  0  0  0  0  0  0
    8.0982    1.6715    0.7944 O   0  0  0  0  0  0  0  0  0  0  0  0
    8.2654    0.8745   -0.4020 C   0  0  0  0  0  0  0  0  0  0  0  0
    5.4491   -2.4216    1.3964 N   0  0  0  0  0  0  0  0  0  0  0  0
    4.2818   -3.0066    1.7019 C   0  0  0  0  0  0  0  0  0  0  0  0
    3.1358   -2.8699    1.0313 N   0  0  0  0  0  0  0  0  0  0  0  0
    0.9562   -2.9865    0.5727 H   0  0  0  0  0  0  0  0  0  0  0  0
   -1.0389   -3.2846   -0.6022 H   0  0  0  0  0  0  0  0  0  0  0  0
   -0.3891   -2.3757   -1.9930 H   0  0  0  0  0  0  0  0  0  0  0  0
   -0.4751   -0.2755   -0.4374 H   0  0  0  0  0  0  0  0  0  0  0  0
   -2.2936   -0.7705    1.1360 H   0  0  0  0  0  0  0  0  0  0  0  0
   -2.9809   -1.7888   -1.2995 H   0  0  0  0  0  0  0  0  0  0  0  0
   -2.2096   -0.4650   -2.1803 H   0  0  0  0  0  0  0  0  0  0  0  0
   -2.8531    1.9097   -1.4355 H   0  0  0  0  0  0  0  0  0  0  0  0
   -1.8085    1.5161   -0.0759 H   0  0  0  0  0  0  0  0  0  0  0  0
   -3.3967    3.3780    0.4364 H   0  0  0  0  0  0  0  0  0  0  0  0
   -3.4884    2.0157    1.5634 H   0  0  0  0  0  0  0  0  0  0  0  0
   -5.7170    3.9224    1.4321 H   0  0  0  0  0  0  0  0  0  0  0  0
   -8.1450    3.6628    1.0337 H   0  0  0  0  0  0  0  0  0  0  0  0
   -8.9905    1.7677   -0.3231 H   0  0  0  0  0  0  0  0  0  0  0  0
   -7.4104    0.1179   -1.2692 H   0  0  0  0  0  0  0  0  0  0  0  0
   -4.6219    0.2832   -2.1464 H   0  0  0  0  0  0  0  0  0  0  0  0
   -5.1151   -0.9259   -0.9409 H   0  0  0  0  0  0  0  0  0  0  0  0
    4.3719   -0.8020   -1.3527 H   0  0  0  0  0  0  0  0  0  0  0  0
    7.3189   -1.2705    0.8061 H   0  0  0  0  0  0  0  0  0  0  0  0
    6.2264    0.6463   -1.2301 H   0  0  0  0  0  0  0  0  0  0  0  0
    6.0681    2.2429    0.6525 H   0  0  0  0  0  0  0  0  0  0  0  0
    6.4053    0.9198    1.8090 H   0  0  0  0  0  0  0  0  0  0  0  0
    8.5065    1.5056   -1.2625 H   0  0  0  0  0  0  0  0  0  0  0  0
    9.0465    0.1184   -0.2731 H   0  0  0  0  0  0  0  0  0  0  0  0
    4.2676   -3.6417    2.5831 H   0  0  0  0  0  0  0  0  0  0  0  0
  1  2  2  0
  2  3  1  0
  3  4  1  0
  4  5  1  0
  5  6  1  0
  5  7  1  0
  7  8  1  0
  8  9  1  0
  9 10  1  0
 10 11  1  0
 11 12  2  0
 12 13  1  0
 13 14  2  0
 14 15  1  0
 15 16  2  0
 16 17  1  0
  2 18  1  0
 18 19  2  0
 19 20  1  0
 20 21  1  0
 21 22  1  0
 22 23  1  0
 23 24  1  0
 24 25  1  0
 20 26  2  0
 26 27  1  0
 27 28  2  0
 17  8  1  0
 28 18  1  0
 16 11  1  0
 25 22  1  0
  3 29  1  0
  4 30  1  0
  4 31  1  0
  5 32  1  1
  6 33  1  0
  7 34  1  0
  7 35  1  0
  9 36  1  0
  9 37  1  0
 10 38  1  0
 10 39  1  0
 12 40  1  0
 13 41  1  0
 14 42  1  0
 15 43  1  0
 17 44  1  0
 17 45  1  0
 19 46  1  0
 21 47  1  0
 22 48  1  0
 23 49  1  0
 23 50  1  0
 25 51  1  0
 25 52  1  0
 27 53  1  0
M  END
$$$$
