
     RDKit          3D

 70 73  0  0  0  0  0  0  0  0999 V2000
    6.7349   -0.2970   -3.2625 C   0  0  0  0  0  0  0  0  0  0  0  0
    5.6164   -0.4146   -2.2676 C   0  0  0  0  0  0  0  0  0  0  0  0
    5.8400   -0.2214   -0.8954 C   0  0  0  0  0  0  0  0  0  0  0  0
    4.7867   -0.3575    0.0159 C   0  0  0  0  0  0  0  0  0  0  0  0
    3.4990   -0.6529   -0.4398 C   0  0  0  0  0  0  0  0  0  0  0  0
    2.4150   -0.8488    0.5517 C   0  0  0  0  0  0  0  0  0  0  0  0
    2.6258   -1.6644    1.4481 O   0  0  0  0  0  0  0  0  0  0  0  0
    1.1915   -0.1581    0.3724 N   0  0  0  0  0  0  0  0  0  0  0  0
    1.2799    1.2528   -0.0693 C   0  0  0  0  0  0  0  0  0  0  0  0
    1.3895    2.3236    1.0320 C   0  0  0  0  0  0  0  0  0  0  0  0
    2.7863    2.5594    1.6074 C   0  0  0  0  0  0  0  0  0  0  0  0
    3.2250    1.4975    2.4983 N   0  0  0  0  0  0  0  0  0  0  0  0
    0.0648   -0.5449    1.2807 C   0  0  1  0  0  0  0  0  0  0  0  0
   -1.2576    0.2965    1.1245 C   0  0  0  0  0  0  0  0  0  0  0  0
   -1.6278    0.8984    2.2190 N   0  0  0  0  0  0  0  0  0  0  0  0
   -2.7616    1.7093    2.2281 C   0  0  0  0  0  0  0  0  0  0  0  0
   -3.1831    2.2746    3.4348 C   0  0  0  0  0  0  0  0  0  0  0  0
   -4.2919    3.1177    3.4604 C   0  0  0  0  0  0  0  0  0  0  0  0
   -4.8110    3.8051    4.9456 Cl  0  0  0  0  0  0  0  0  0  0  0  0
   -4.9861    3.4116    2.2866 C   0  0  0  0  0  0  0  0  0  0  0  0
   -4.5683    2.8517    1.0776 C   0  0  0  0  0  0  0  0  0  0  0  0
   -3.4582    1.9989    1.0640 C   0  0  0  0  0  0  0  0  0  0  0  0
   -2.9672    1.3861   -0.1796 C   0  0  0  0  0  0  0  0  0  0  0  0
   -3.4182    1.7954   -1.2478 O   0  0  0  0  0  0  0  0  0  0  0  0
   -1.9712    0.4063   -0.0554 N   0  0  0  0  0  0  0  0  0  0  0  0
   -1.5833   -0.2241   -1.3173 C   0  0  0  0  0  0  0  0  0  0  0  0
   -2.6847   -1.0308   -1.9868 C   0  0  0  0  0  0  0  0  0  0  0  0
   -2.9160   -0.8738   -3.3663 C   0  0  0  0  0  0  0  0  0  0  0  0
   -3.9008   -1.6160   -4.0163 C   0  0  0  0  0  0  0  0  0  0  0  0
   -4.6549   -2.5479   -3.3009 C   0  0  0  0  0  0  0  0  0  0  0  0
   -4.4509   -2.7044   -1.9334 C   0  0  0  0  0  0  0  0  0  0  0  0
   -3.4790   -1.9440   -1.2797 C   0  0  0  0  0  0  0  0  0  0  0  0
   -0.2028   -2.0785    1.4966 C   0  0  0  0  0  0  0  0  0  0  0  0
   -1.4519   -2.3598    2.3379 C   0  0  0  0  0  0  0  0  0  0  0  0
   -0.1925   -2.9664    0.2562 C   0  0  0  0  0  0  0  0  0  0  0  0
    3.2660   -0.8492   -1.8070 C   0  0  0  0  0  0  0  0  0  0  0  0
    4.3230   -0.7260   -2.7162 C   0  0  0  0  0  0  0  0  0  0  0  0
    6.7786   -1.1870   -3.8969 H   0  0  0  0  0  0  0  0  0  0  0  0
    7.7032   -0.1993   -2.7641 H   0  0  0  0  0  0  0  0  0  0  0  0
    6.5864    0.5837   -3.8942 H   0  0  0  0  0  0  0  0  0  0  0  0
    6.8338    0.0183   -0.5186 H   0  0  0  0  0  0  0  0  0  0  0  0
    4.9604   -0.2340    1.0839 H   0  0  0  0  0  0  0  0  0  0  0  0
    2.1059    1.3941   -0.7717 H   0  0  0  0  0  0  0  0  0  0  0  0
    0.3829    1.4646   -0.6538 H   0  0  0  0  0  0  0  0  0  0  0  0
    0.6807    2.1436    1.8467 H   0  0  0  0  0  0  0  0  0  0  0  0
    1.0758    3.2745    0.5807 H   0  0  0  0  0  0  0  0  0  0  0  0
    3.5181    2.6945    0.8038 H   0  0  0  0  0  0  0  0  0  0  0  0
    2.7657    3.4832    2.1948 H   0  0  0  0  0  0  0  0  0  0  0  0
    4.0486    1.7999    3.0176 H   0  0  0  0  0  0  0  0  0  0  0  0
    2.5053    1.3107    3.1982 H   0  0  0  0  0  0  0  0  0  0  0  0
    0.4512   -0.2233    2.2627 H   0  0  0  0  0  0  0  0  0  0  0  0
   -2.6357    2.0528    4.3457 H   0  0  0  0  0  0  0  0  0  0  0  0
   -5.8518    4.0723    2.3049 H   0  0  0  0  0  0  0  0  0  0  0  0
   -5.1038    3.0749    0.1576 H   0  0  0  0  0  0  0  0  0  0  0  0
   -1.2752    0.5843   -1.9952 H   0  0  0  0  0  0  0  0  0  0  0  0
   -0.7137   -0.8687   -1.1982 H   0  0  0  0  0  0  0  0  0  0  0  0
   -2.3307   -0.1577   -3.9417 H   0  0  0  0  0  0  0  0  0  0  0  0
   -4.0722   -1.4810   -5.0803 H   0  0  0  0  0  0  0  0  0  0  0  0
   -5.4076   -3.1352   -3.8118 H   0  0  0  0  0  0  0  0  0  0  0  0
   -5.0486   -3.4201   -1.3712 H   0  0  0  0  0  0  0  0  0  0  0  0
   -3.3449   -2.0817   -0.2095 H   0  0  0  0  0  0  0  0  0  0  0  0
    0.6164   -2.4544    2.1206 H   0  0  0  0  0  0  0  0  0  0  0  0
   -1.5607   -3.4352    2.5190 H   0  0  0  0  0  0  0  0  0  0  0  0
   -2.3691   -2.0078    1.8572 H   0  0  0  0  0  0  0  0  0  0  0  0
   -1.3679   -1.8763    3.3199 H   0  0  0  0  0  0  0  0  0  0  0  0
   -0.1366   -4.0199    0.5568 H   0  0  0  0  0  0  0  0  0  0  0  0
    0.6697   -2.7758   -0.3865 H   0  0  0  0  0  0  0  0  0  0  0  0
   -1.0989   -2.8680   -0.3379 H   0  0  0  0  0  0  0  0  0  0  0  0
    2.2762   -1.1316   -2.1583 H   0  0  0  0  0  0  0  0  0  0  0  0
    4.1332   -0.8987   -3.7766 H   0  0  0  0  0  0  0  0  0  0  0  0
  1  2  1  0
  2  3  2  0
  3  4  1  0
  4  5  2  0
  5  6  1  0
  6  7  2  0
  6  8  1  0
  8  9  1  0
  9 10  1  0
 10 11  1  0
 11 12  1  0
  8 13  1  0
 13 14  1  0
 14 15  2  0
 15 16  1  0
 16 17  2  0
 17 18  1  0
 18 19  1  0
 18 20  2  0
 20 21  1  0
 21 22  2  0
 22 23  1  0
 23 24  2  0
 23 25  1  0
 25 26  1  0
 26 27  1  0
 27 28  2  0
 28 29  1  0
 29 30  2  0
 30 31  1  0
 31 32  2  0
 13 33  1  0
 33 34  1  0
 33 35  1  0
  5 36  1  0
 36 37  2  0
 37  2  1  0
 25 14  1  0
 32 27  1  0
 22 16  1  0
  1 38  1  0
  1 39  1  0
  1 40  1  0
  3 41  1  0
  4 42  1  0
  9 43  1  0
  9 44  1  0
 10 45  1  0
 10 46  1  0
 11 47  1  0
 11 48  1  0
 12 49  1  0
 12 50  1  0
 13 51  1  1
 17 52  1  0
 20 53  1  0
 21 54  1  0
 26 55  1  0
 26 56  1  0
 28 57  1  0
 29 58  1  0
 30 59  1  0
 31 60  1  0
 32 61  1  0
 33 62  1  0
 34 63  1  0
 34 64  1  0
 34 65  1  0
 35 66  1  0
 35 67  1  0
 35 68  1  0
 36 69  1  0
 37 70  1  0
M  END
$$$$
