
     RDKit          3D

 45 47  0  0  0  0  0  0  0  0999 V2000
   -2.9072    1.7428   -2.4347 C   0  0  0  0  0  0  0  0  0  0  0  0
   -2.9349    1.1721   -1.1007 N   0  0  0  0  0  0  0  0  0  0  0  0
   -3.5119    2.0217   -0.0680 C   0  0  0  0  0  0  0  0  0  0  0  0
   -1.9325    0.2479   -0.7960 C   0  0  0  0  0  0  0  0  0  0  0  0
   -1.0440   -0.0479   -1.5915 O   0  0  0  0  0  0  0  0  0  0  0  0
   -2.0325   -0.3243    0.4815 N   0  0  0  0  0  0  0  0  0  0  0  0
   -3.2107   -1.1810    0.6403 C   0  0  0  0  0  0  0  0  0  0  0  0
   -2.9681   -2.5674    0.0388 C   0  0  0  0  0  0  0  0  0  0  0  0
   -1.7029   -3.2189    0.5942 C   0  0  0  0  0  0  0  0  0  0  0  0
   -0.4928   -2.2807    0.5148 C   0  0  0  0  0  0  0  0  0  0  0  0
   -0.7836   -0.8724    1.1035 C   0  0  0  0  0  0  0  0  0  0  0  0
   -0.9619   -0.9884    2.6443 C   0  0  0  0  0  0  0  0  0  0  0  0
    0.3931    0.0805    0.8906 C   0  0  0  0  0  0  0  0  0  0  0  0
    0.3175    1.3991    1.1469 N   0  0  0  0  0  0  0  0  0  0  0  0
    1.5935    1.8615    0.8269 O   0  0  0  0  0  0  0  0  0  0  0  0
    2.3248    0.7714    0.4474 C   0  0  0  0  0  0  0  0  0  0  0  0
    3.7130    0.9996    0.0613 C   0  0  0  0  0  0  0  0  0  0  0  0
    4.5001   -0.0872   -0.3585 C   0  0  0  0  0  0  0  0  0  0  0  0
    5.8336    0.0970   -0.7335 C   0  0  0  0  0  0  0  0  0  0  0  0
    6.3860    1.3703   -0.6906 C   0  0  0  0  0  0  0  0  0  0  0  0
    7.6638    1.5487   -1.0491 F   0  0  0  0  0  0  0  0  0  0  0  0
    5.6307    2.4620   -0.2810 C   0  0  0  0  0  0  0  0  0  0  0  0
    4.2963    2.2781    0.0941 C   0  0  0  0  0  0  0  0  0  0  0  0
    1.6446   -0.3519    0.5088 N   0  0  0  0  0  0  0  0  0  0  0  0
   -3.8990    2.1292   -2.6859 H   0  0  0  0  0  0  0  0  0  0  0  0
   -2.6287    0.9847   -3.1730 H   0  0  0  0  0  0  0  0  0  0  0  0
   -2.1727    2.5536   -2.4619 H   0  0  0  0  0  0  0  0  0  0  0  0
   -3.5555    1.5324    0.9068 H   0  0  0  0  0  0  0  0  0  0  0  0
   -4.5253    2.3057   -0.3657 H   0  0  0  0  0  0  0  0  0  0  0  0
   -2.8921    2.9187    0.0301 H   0  0  0  0  0  0  0  0  0  0  0  0
   -3.4600   -1.2502    1.7033 H   0  0  0  0  0  0  0  0  0  0  0  0
   -4.0805   -0.7369    0.1440 H   0  0  0  0  0  0  0  0  0  0  0  0
   -2.8725   -2.4815   -1.0509 H   0  0  0  0  0  0  0  0  0  0  0  0
   -3.8329   -3.2119    0.2319 H   0  0  0  0  0  0  0  0  0  0  0  0
   -1.8738   -3.5223    1.6332 H   0  0  0  0  0  0  0  0  0  0  0  0
   -1.4891   -4.1386    0.0373 H   0  0  0  0  0  0  0  0  0  0  0  0
    0.3559   -2.7463    1.0324 H   0  0  0  0  0  0  0  0  0  0  0  0
   -0.1942   -2.1982   -0.5381 H   0  0  0  0  0  0  0  0  0  0  0  0
   -1.7316   -1.7069    2.9383 H   0  0  0  0  0  0  0  0  0  0  0  0
   -1.2469   -0.0230    3.0803 H   0  0  0  0  0  0  0  0  0  0  0  0
   -0.0275   -1.3042    3.1245 H   0  0  0  0  0  0  0  0  0  0  0  0
    4.0709   -1.0879   -0.3979 H   0  0  0  0  0  0  0  0  0  0  0  0
    6.4390   -0.7431   -1.0589 H   0  0  0  0  0  0  0  0  0  0  0  0
    6.0825    3.4488   -0.2568 H   0  0  0  0  0  0  0  0  0  0  0  0
    3.7196    3.1452    0.4104 H   0  0  0  0  0  0  0  0  0  0  0  0
  1  2  1  0
  2  3  1  0
  2  4  1  0
  4  5  2  0
  4  6  1  0
  6  7  1  0
  7  8  1  0
  8  9  1  0
  9 10  1  0
 10 11  1  0
 11 12  1  0
 11 13  1  0
 13 14  2  0
 14 15  1  0
 15 16  1  0
 16 17  1  0
 17 18  2  0
 18 19  1  0
 19 20  2  0
 20 21  1  0
 20 22  1  0
 22 23  2  0
 16 24  2  0
 11  6  1  0
 24 13  1  0
 23 17  1  0
  1 25  1  0
  1 26  1  0
  1 27  1  0
  3 28  1  0
  3 29  1  0
  3 30  1  0
  7 31  1  0
  7 32  1  0
  8 33  1  0
  8 34  1  0
  9 35  1  0
  9 36  1  0
 10 37  1  0
 10 38  1  0
 12 39  1  0
 12 40  1  0
 12 41  1  0
 18 42  1  0
 19 43  1  0
 22 44  1  0
 23 45  1  0
M  END
$$$$
