
     RDKit          3D

 64 67  0  0  0  0  0  0  0  0999 V2000
    4.5212    3.0564    0.6216 C   0  0  0  0  0  0  0  0  0  0  0  0
    4.0446    2.6563   -0.7616 C   0  0  0  0  0  0  0  0  0  0  0  0
    3.8547    1.1674   -0.8415 C   0  0  0  0  0  0  0  0  0  0  0  0
    4.7032    0.3738   -1.2271 O   0  0  0  0  0  0  0  0  0  0  0  0
    2.6138    0.8150   -0.4020 O   0  0  0  0  0  0  0  0  0  0  0  0
    2.3382   -0.6245   -0.2890 C   0  0  2  0  0  0  0  0  0  0  0  0
    3.3907   -1.1453    0.7420 C   0  0  0  0  0  0  0  0  0  0  0  0
    3.6150   -0.4660    1.7544 O   0  0  0  0  0  0  0  0  0  0  0  0
    4.1078   -2.4517    0.4975 C   0  0  0  0  0  0  0  0  0  0  0  0
    4.9219   -3.0350    1.9717 Cl  0  0  0  0  0  0  0  0  0  0  0  0
    2.1332   -1.1449   -1.7659 C   0  0  1  0  0  0  0  0  0  0  0  0
    2.8073   -2.4176   -2.2512 C   0  0  0  0  0  0  0  0  0  0  0  0
    0.5974   -1.2579   -1.9794 C   0  0  0  0  0  0  0  0  0  0  0  0
    0.0100   -0.3917   -0.8766 C   0  0  1  0  0  0  0  0  0  0  0  0
   -1.4996   -0.4860   -0.5964 C   0  0  2  0  0  0  0  0  0  0  0  0
   -2.3045   -0.1756   -1.8725 C   0  0  0  0  0  0  0  0  0  0  0  0
   -3.8082   -0.1551   -1.6199 C   0  0  0  0  0  0  0  0  0  0  0  0
   -4.1455    0.7903   -0.4956 C   0  0  0  0  0  0  0  0  0  0  0  0
   -4.9894    1.8172   -0.7011 C   0  0  0  0  0  0  0  0  0  0  0  0
   -5.2956    2.8009    0.3564 C   0  0  0  0  0  0  0  0  0  0  0  0
   -6.0814    3.7200    0.1631 O   0  0  0  0  0  0  0  0  0  0  0  0
   -4.6181    2.6307    1.6548 C   0  0  0  0  0  0  0  0  0  0  0  0
   -3.7796    1.6076    1.8660 C   0  0  0  0  0  0  0  0  0  0  0  0
   -3.4280    0.5287    0.8415 C   0  0  1  0  0  0  0  0  0  0  0  0
   -3.9783   -0.7966    1.4172 C   0  0  0  0  0  0  0  0  0  0  0  0
   -1.8701    0.5069    0.5560 C   0  0  2  0  0  0  0  0  0  0  0  0
   -1.5455    1.7687    0.0769 F   0  0  0  0  0  0  0  0  0  0  0  0
   -0.9601    0.3116    1.8080 C   0  0  1  0  0  0  0  0  0  0  0  0
   -1.3049   -0.8492    2.5566 O   0  0  0  0  0  0  0  0  0  0  0  0
    0.5445    0.2659    1.4593 C   0  0  0  0  0  0  0  0  0  0  0  0
    0.8900   -0.7490    0.3416 C   0  0  2  0  0  0  0  0  0  0  0  0
    0.6693   -2.2011    0.8482 C   0  0  0  0  0  0  0  0  0  0  0  0
    3.7979    2.7636    1.3908 H   0  0  0  0  0  0  0  0  0  0  0  0
    4.6633    4.1396    0.6789 H   0  0  0  0  0  0  0  0  0  0  0  0
    5.4749    2.5714    0.8608 H   0  0  0  0  0  0  0  0  0  0  0  0
    3.1049    3.1592   -1.0181 H   0  0  0  0  0  0  0  0  0  0  0  0
    4.7774    2.9480   -1.5227 H   0  0  0  0  0  0  0  0  0  0  0  0
    4.8733   -2.3236   -0.2696 H   0  0  0  0  0  0  0  0  0  0  0  0
    3.3968   -3.2328    0.2345 H   0  0  0  0  0  0  0  0  0  0  0  0
    2.4635   -0.3562   -2.4567 H   0  0  0  0  0  0  0  0  0  0  0  0
    2.5406   -2.6044   -3.2986 H   0  0  0  0  0  0  0  0  0  0  0  0
    3.8956   -2.3287   -2.2212 H   0  0  0  0  0  0  0  0  0  0  0  0
    2.4917   -3.2990   -1.6886 H   0  0  0  0  0  0  0  0  0  0  0  0
    0.3188   -0.8962   -2.9755 H   0  0  0  0  0  0  0  0  0  0  0  0
    0.2477   -2.2936   -1.8985 H   0  0  0  0  0  0  0  0  0  0  0  0
    0.2083    0.6532   -1.1647 H   0  0  0  0  0  0  0  0  0  0  0  0
   -1.7505   -1.5079   -0.2965 H   0  0  0  0  0  0  0  0  0  0  0  0
   -1.9923    0.7932   -2.2840 H   0  0  0  0  0  0  0  0  0  0  0  0
   -2.0920   -0.9272   -2.6420 H   0  0  0  0  0  0  0  0  0  0  0  0
   -4.1630   -1.1629   -1.3753 H   0  0  0  0  0  0  0  0  0  0  0  0
   -4.3177    0.1320   -2.5482 H   0  0  0  0  0  0  0  0  0  0  0  0
   -5.4785    1.9955   -1.6519 H   0  0  0  0  0  0  0  0  0  0  0  0
   -4.8463    3.3655    2.4168 H   0  0  0  0  0  0  0  0  0  0  0  0
   -3.3308    1.5197    2.8530 H   0  0  0  0  0  0  0  0  0  0  0  0
   -3.7166   -0.9332    2.4716 H   0  0  0  0  0  0  0  0  0  0  0  0
   -5.0751   -0.8220    1.3723 H   0  0  0  0  0  0  0  0  0  0  0  0
   -3.6178   -1.6751    0.8748 H   0  0  0  0  0  0  0  0  0  0  0  0
   -1.0970    1.1696    2.4761 H   0  0  0  0  0  0  0  0  0  0  0  0
   -0.7421   -0.8628    3.3526 H   0  0  0  0  0  0  0  0  0  0  0  0
    1.1192    0.0289    2.3620 H   0  0  0  0  0  0  0  0  0  0  0  0
    0.8393    1.2775    1.1549 H   0  0  0  0  0  0  0  0  0  0  0  0
    1.0404   -2.9507    0.1452 H   0  0  0  0  0  0  0  0  0  0  0  0
   -0.3803   -2.4454    1.0183 H   0  0  0  0  0  0  0  0  0  0  0  0
    1.1926   -2.3654    1.7965 H   0  0  0  0  0  0  0  0  0  0  0  0
  1  2  1  0
  2  3  1  0
  3  4  2  0
  3  5  1  0
  6  5  1  6
  6  7  1  0
  7  8  2  0
  7  9  1  0
  9 10  1  0
  6 11  1  0
 11 12  1  0
 11 13  1  0
 13 14  1  0
 14 15  1  0
 15 16  1  0
 16 17  1  0
 17 18  1  0
 18 19  2  0
 19 20  1  0
 20 21  2  0
 20 22  1  0
 22 23  2  0
 23 24  1  0
 24 25  1  1
 24 26  1  0
 26 27  1  6
 26 28  1  0
 28 29  1  0
 28 30  1  0
 30 31  1  0
 31 32  1  1
 31  6  1  0
 31 14  1  0
 26 15  1  0
 24 18  1  0
  1 33  1  0
  1 34  1  0
  1 35  1  0
  2 36  1  0
  2 37  1  0
  9 38  1  0
  9 39  1  0
 11 40  1  6
 12 41  1  0
 12 42  1  0
 12 43  1  0
 13 44  1  0
 13 45  1  0
 14 46  1  6
 15 47  1  1
 16 48  1  0
 16 49  1  0
 17 50  1  0
 17 51  1  0
 19 52  1  0
 22 53  1  0
 23 54  1  0
 25 55  1  0
 25 56  1  0
 25 57  1  0
 28 58  1  1
 29 59  1  0
 30 60  1  0
 30 61  1  0
 32 62  1  0
 32 63  1  0
 32 64  1  0
M  END
$$$$
