
     RDKit          3D

 33 34  0  0  0  0  0  0  0  0999 V2000
   -4.2527    1.4595   -2.7960 C   0  0  0  0  0  0  0  0  0  0  0  0
   -3.0136    1.4644   -2.0989 O   0  0  0  0  0  0  0  0  0  0  0  0
   -2.7846    0.4266   -1.2343 C   0  0  0  0  0  0  0  0  0  0  0  0
   -3.6553   -0.6322   -0.9798 C   0  0  0  0  0  0  0  0  0  0  0  0
   -3.3184   -1.6465   -0.0730 C   0  0  0  0  0  0  0  0  0  0  0  0
   -2.0786   -1.5626    0.5692 C   0  0  0  0  0  0  0  0  0  0  0  0
   -1.4972   -2.4014    1.4907 N   0  0  0  0  0  0  0  0  0  0  0  0
   -0.2643   -1.9283    1.8488 C   0  0  0  0  0  0  0  0  0  0  0  0
   -0.0291   -0.7573    1.1551 C   0  0  0  0  0  0  0  0  0  0  0  0
    1.2005    0.0904    1.2402 C   0  0  0  0  0  0  0  0  0  0  0  0
    2.2085   -0.2427    0.1373 C   0  0  0  0  0  0  0  0  0  0  0  0
    3.3555    0.6481    0.1452 N   0  0  0  0  0  0  0  0  0  0  0  0
    4.3834    0.4966    1.0468 C   0  0  0  0  0  0  0  0  0  0  0  0
    5.4518    1.5494    0.9303 C   0  0  0  0  0  0  0  0  0  0  0  0
    4.4272   -0.3917    1.8905 O   0  0  0  0  0  0  0  0  0  0  0  0
   -1.1826   -0.5195    0.3406 C   0  0  0  0  0  0  0  0  0  0  0  0
   -1.5483    0.4875   -0.5763 C   0  0  0  0  0  0  0  0  0  0  0  0
   -4.2773    2.3440   -3.4396 H   0  0  0  0  0  0  0  0  0  0  0  0
   -4.3404    0.5777   -3.4393 H   0  0  0  0  0  0  0  0  0  0  0  0
   -5.0967    1.5296   -2.1018 H   0  0  0  0  0  0  0  0  0  0  0  0
   -4.6191   -0.7046   -1.4736 H   0  0  0  0  0  0  0  0  0  0  0  0
   -4.0021   -2.4670    0.1196 H   0  0  0  0  0  0  0  0  0  0  0  0
   -1.9224   -3.2459    1.8474 H   0  0  0  0  0  0  0  0  0  0  0  0
    0.3450   -2.4628    2.5663 H   0  0  0  0  0  0  0  0  0  0  0  0
    0.9191    1.1493    1.1768 H   0  0  0  0  0  0  0  0  0  0  0  0
    1.6671   -0.0367    2.2252 H   0  0  0  0  0  0  0  0  0  0  0  0
    1.7469   -0.1536   -0.8524 H   0  0  0  0  0  0  0  0  0  0  0  0
    2.5653   -1.2738    0.2463 H   0  0  0  0  0  0  0  0  0  0  0  0
    3.3271    1.4718   -0.4414 H   0  0  0  0  0  0  0  0  0  0  0  0
    5.1983    2.3944    1.5758 H   0  0  0  0  0  0  0  0  0  0  0  0
    5.5500    1.8958   -0.1026 H   0  0  0  0  0  0  0  0  0  0  0  0
    6.4116    1.1262    1.2397 H   0  0  0  0  0  0  0  0  0  0  0  0
   -0.8749    1.3154   -0.7761 H   0  0  0  0  0  0  0  0  0  0  0  0
  1  2  1  0
  2  3  1  0
  3  4  2  0
  4  5  1  0
  5  6  2  0
  6  7  1  0
  7  8  1  0
  8  9  2  0
  9 10  1  0
 10 11  1  0
 11 12  1  0
 12 13  1  0
 13 14  1  0
 13 15  2  0
  9 16  1  0
 16 17  2  0
 17  3  1  0
 16  6  1  0
  1 18  1  0
  1 19  1  0
  1 20  1  0
  4 21  1  0
  5 22  1  0
  7 23  1  0
  8 24  1  0
 10 25  1  0
 10 26  1  0
 11 27  1  0
 11 28  1  0
 12 29  1  0
 14 30  1  0
 14 31  1  0
 14 32  1  0
 17 33  1  0
M  END
$$$$
