
     RDKit          3D

 56 59  0  0  0  0  0  0  0  0999 V2000
   -4.5554   -1.9012    2.9026 C   0  0  0  0  0  0  0  0  0  0  0  0
   -4.5507   -1.5041    1.5014 N   0  0  0  0  0  0  0  0  0  0  0  0
   -3.2335   -1.1884    0.9275 C   0  0  0  0  0  0  0  0  0  0  0  0
   -2.7945    0.2516    1.2026 C   0  0  0  0  0  0  0  0  0  0  0  0
   -1.4821    0.5406    0.5801 C   0  0  0  0  0  0  0  0  0  0  0  0
   -1.3660    1.0233   -0.6635 N   0  0  0  0  0  0  0  0  0  0  0  0
    0.0165    1.1388   -0.8288 O   0  0  0  0  0  0  0  0  0  0  0  0
    0.5897    0.6981    0.3336 C   0  0  0  0  0  0  0  0  0  0  0  0
    2.0465    0.7109    0.4058 C   0  0  0  0  0  0  0  0  0  0  0  0
    2.6869    0.1780    1.5368 C   0  0  0  0  0  0  0  0  0  0  0  0
    4.0816    0.1734    1.6360 C   0  0  0  0  0  0  0  0  0  0  0  0
    4.8546    0.6929    0.5953 C   0  0  0  0  0  0  0  0  0  0  0  0
    6.3288    0.6954    0.7381 C   0  0  0  0  0  0  0  0  0  0  0  0
    6.8105    1.1507    1.7728 O   0  0  0  0  0  0  0  0  0  0  0  0
    7.0947    0.1693   -0.2854 N   0  0  0  0  0  0  0  0  0  0  0  0
    6.6383   -0.6499   -1.4011 C   0  0  0  0  0  0  0  0  0  0  0  0
    7.8846   -1.3987   -1.8574 C   0  0  0  0  0  0  0  0  0  0  0  0
    9.0107   -0.4358   -1.5017 C   0  0  0  0  0  0  0  0  0  0  0  0
    8.5432    0.1452   -0.1765 C   0  0  0  0  0  0  0  0  0  0  0  0
    4.2340    1.2533   -0.5243 C   0  0  0  0  0  0  0  0  0  0  0  0
    2.8379    1.2535   -0.6206 C   0  0  0  0  0  0  0  0  0  0  0  0
   -0.2961    0.3039    1.2246 N   0  0  0  0  0  0  0  0  0  0  0  0
   -5.7509   -0.9798    1.0018 C   0  0  0  0  0  0  0  0  0  0  0  0
   -6.7417   -0.8522    1.7155 O   0  0  0  0  0  0  0  0  0  0  0  0
   -5.7004   -0.6359   -0.3314 N   0  0  0  0  0  0  0  0  0  0  0  0
   -6.6641    0.0951   -1.0577 C   0  0  0  0  0  0  0  0  0  0  0  0
   -6.5474    0.1006   -2.4561 C   0  0  0  0  0  0  0  0  0  0  0  0
   -7.4533    0.8138   -3.2474 C   0  0  0  0  0  0  0  0  0  0  0  0
   -8.4792    1.5347   -2.6440 C   0  0  0  0  0  0  0  0  0  0  0  0
   -8.5844    1.5390   -1.2584 C   0  0  0  0  0  0  0  0  0  0  0  0
   -9.5648    2.2458   -0.6799 F   0  0  0  0  0  0  0  0  0  0  0  0
   -7.6878    0.8314   -0.4614 C   0  0  0  0  0  0  0  0  0  0  0  0
   -4.3526   -1.0233    3.5234 H   0  0  0  0  0  0  0  0  0  0  0  0
   -5.5252   -2.3213    3.1874 H   0  0  0  0  0  0  0  0  0  0  0  0
   -3.7871   -2.6620    3.0697 H   0  0  0  0  0  0  0  0  0  0  0  0
   -2.5042   -1.8999    1.3356 H   0  0  0  0  0  0  0  0  0  0  0  0
   -3.2523   -1.3744   -0.1511 H   0  0  0  0  0  0  0  0  0  0  0  0
   -2.7273    0.4216    2.2839 H   0  0  0  0  0  0  0  0  0  0  0  0
   -3.5454    0.9582    0.8286 H   0  0  0  0  0  0  0  0  0  0  0  0
    2.0985   -0.2329    2.3565 H   0  0  0  0  0  0  0  0  0  0  0  0
    4.5634   -0.2292    2.5251 H   0  0  0  0  0  0  0  0  0  0  0  0
    6.2824    0.0201   -2.1905 H   0  0  0  0  0  0  0  0  0  0  0  0
    5.8314   -1.3235   -1.0995 H   0  0  0  0  0  0  0  0  0  0  0  0
    7.8574   -1.6537   -2.9203 H   0  0  0  0  0  0  0  0  0  0  0  0
    7.9959   -2.3272   -1.2836 H   0  0  0  0  0  0  0  0  0  0  0  0
    9.9860   -0.9248   -1.4282 H   0  0  0  0  0  0  0  0  0  0  0  0
    9.0757    0.3547   -2.2588 H   0  0  0  0  0  0  0  0  0  0  0  0
    8.9340    1.1491    0.0151 H   0  0  0  0  0  0  0  0  0  0  0  0
    8.8121   -0.5080    0.6618 H   0  0  0  0  0  0  0  0  0  0  0  0
    4.8281    1.7102   -1.3115 H   0  0  0  0  0  0  0  0  0  0  0  0
    2.3780    1.6972   -1.5020 H   0  0  0  0  0  0  0  0  0  0  0  0
   -5.0398   -1.1572   -0.8851 H   0  0  0  0  0  0  0  0  0  0  0  0
   -5.7519   -0.4527   -2.9495 H   0  0  0  0  0  0  0  0  0  0  0  0
   -7.3564    0.8064   -4.3299 H   0  0  0  0  0  0  0  0  0  0  0  0
   -9.1931    2.0955   -3.2393 H   0  0  0  0  0  0  0  0  0  0  0  0
   -7.8138    0.8837    0.6140 H   0  0  0  0  0  0  0  0  0  0  0  0
  1  2  1  0
  2  3  1  0
  3  4  1  0
  4  5  1  0
  5  6  2  0
  6  7  1  0
  7  8  1  0
  8  9  1  0
  9 10  2  0
 10 11  1  0
 11 12  2  0
 12 13  1  0
 13 14  2  0
 13 15  1  0
 15 16  1  0
 16 17  1  0
 17 18  1  0
 18 19  1  0
 12 20  1  0
 20 21  2  0
  8 22  2  0
  2 23  1  0
 23 24  2  0
 23 25  1  0
 25 26  1  0
 26 27  2  0
 27 28  1  0
 28 29  2  0
 29 30  1  0
 30 31  1  0
 30 32  2  0
 22  5  1  0
 32 26  1  0
 21  9  1  0
 19 15  1  0
  1 33  1  0
  1 34  1  0
  1 35  1  0
  3 36  1  0
  3 37  1  0
  4 38  1  0
  4 39  1  0
 10 40  1  0
 11 41  1  0
 16 42  1  0
 16 43  1  0
 17 44  1  0
 17 45  1  0
 18 46  1  0
 18 47  1  0
 19 48  1  0
 19 49  1  0
 20 50  1  0
 21 51  1  0
 25 52  1  0
 27 53  1  0
 28 54  1  0
 29 55  1  0
 32 56  1  0
M  END
$$$$
