
     RDKit          3D

 46 48  0  0  0  0  0  0  0  0999 V2000
   -3.6589    2.9615    0.2559 C   0  0  0  0  0  0  0  0  0  0  0  0
   -2.1773    2.6791    0.2771 C   0  0  0  0  0  0  0  0  0  0  0  0
   -1.3882    3.6140    0.4323 O   0  0  0  0  0  0  0  0  0  0  0  0
   -1.7464    1.3526    0.1200 N   0  0  0  0  0  0  0  0  0  0  0  0
   -2.6860    0.2291   -0.1275 C   0  0  0  0  0  0  0  0  0  0  0  0
   -2.3892   -0.6071   -1.3825 C   0  0  0  0  0  0  0  0  0  0  0  0
   -2.9423   -2.0211   -1.2445 C   0  0  0  0  0  0  0  0  0  0  0  0
   -4.1733   -1.9855   -0.5321 O   0  0  0  0  0  0  0  0  0  0  0  0
   -4.0029   -1.6813    0.8531 C   0  0  0  0  0  0  0  0  0  0  0  0
   -2.9209   -0.6335    1.1153 C   0  0  0  0  0  0  0  0  0  0  0  0
   -0.2858    1.1579    0.2363 C   0  0  0  0  0  0  0  0  0  0  0  0
    0.4785    1.5554   -1.0353 C   0  0  0  0  0  0  0  0  0  0  0  0
    1.8715    0.9987   -0.7824 C   0  0  0  0  0  0  0  0  0  0  0  0
    1.6475   -0.2049    0.0065 N   0  0  0  0  0  0  0  0  0  0  0  0
    2.5925   -1.1119    0.4437 C   0  0  0  0  0  0  0  0  0  0  0  0
    2.3539   -1.9920    1.2654 O   0  0  0  0  0  0  0  0  0  0  0  0
    3.9643   -1.0054   -0.0852 C   0  0  0  0  0  0  0  0  0  0  0  0
    5.0048   -0.7481    0.8026 C   0  0  0  0  0  0  0  0  0  0  0  0
    6.2819   -0.6762    0.2817 C   0  0  0  0  0  0  0  0  0  0  0  0
    6.5674   -0.8502   -1.0283 N   0  0  0  0  0  0  0  0  0  0  0  0
    5.5354   -1.1296   -1.8548 C   0  0  0  0  0  0  0  0  0  0  0  0
    4.2222   -1.2228   -1.4360 C   0  0  0  0  0  0  0  0  0  0  0  0
    0.3046   -0.2203    0.5707 C   0  0  0  0  0  0  0  0  0  0  0  0
   -4.0622    2.7876   -0.7450 H   0  0  0  0  0  0  0  0  0  0  0  0
   -4.1779    2.3544    1.0019 H   0  0  0  0  0  0  0  0  0  0  0  0
   -3.8272    4.0129    0.5107 H   0  0  0  0  0  0  0  0  0  0  0  0
   -3.6644    0.6714   -0.3388 H   0  0  0  0  0  0  0  0  0  0  0  0
   -1.3322   -0.6626   -1.6471 H   0  0  0  0  0  0  0  0  0  0  0  0
   -2.8721   -0.1117   -2.2355 H   0  0  0  0  0  0  0  0  0  0  0  0
   -2.2347   -2.6816   -0.7288 H   0  0  0  0  0  0  0  0  0  0  0  0
   -3.1274   -2.4489   -2.2349 H   0  0  0  0  0  0  0  0  0  0  0  0
   -4.9693   -1.3176    1.2181 H   0  0  0  0  0  0  0  0  0  0  0  0
   -3.7817   -2.6067    1.3966 H   0  0  0  0  0  0  0  0  0  0  0  0
   -3.1976   -0.0208    1.9815 H   0  0  0  0  0  0  0  0  0  0  0  0
   -2.0049   -1.1546    1.4076 H   0  0  0  0  0  0  0  0  0  0  0  0
    0.0584    1.8311    1.0360 H   0  0  0  0  0  0  0  0  0  0  0  0
    0.0377    1.0857   -1.9213 H   0  0  0  0  0  0  0  0  0  0  0  0
    0.4967    2.6351   -1.2103 H   0  0  0  0  0  0  0  0  0  0  0  0
    2.3980    0.7786   -1.7133 H   0  0  0  0  0  0  0  0  0  0  0  0
    2.4765    1.6880   -0.1830 H   0  0  0  0  0  0  0  0  0  0  0  0
    4.8234   -0.6141    1.8630 H   0  0  0  0  0  0  0  0  0  0  0  0
    7.1380   -0.4749    0.9196 H   0  0  0  0  0  0  0  0  0  0  0  0
    5.8064   -1.2861   -2.8952 H   0  0  0  0  0  0  0  0  0  0  0  0
    3.4309   -1.4680   -2.1341 H   0  0  0  0  0  0  0  0  0  0  0  0
   -0.2098   -1.0652    0.1125 H   0  0  0  0  0  0  0  0  0  0  0  0
    0.3421   -0.3904    1.6522 H   0  0  0  0  0  0  0  0  0  0  0  0
  1  2  1  0
  2  3  2  0
  2  4  1  0
  4  5  1  0
  5  6  1  0
  6  7  1  0
  7  8  1  0
  8  9  1  0
  9 10  1  0
  4 11  1  0
 11 12  1  0
 12 13  1  0
 13 14  1  0
 14 15  1  0
 15 16  2  0
 15 17  1  0
 17 18  2  0
 18 19  1  0
 19 20  2  0
 20 21  1  0
 21 22  2  0
 14 23  1  0
 10  5  1  0
 23 11  1  0
 22 17  1  0
  1 24  1  0
  1 25  1  0
  1 26  1  0
  5 27  1  0
  6 28  1  0
  6 29  1  0
  7 30  1  0
  7 31  1  0
  9 32  1  0
  9 33  1  0
 10 34  1  0
 10 35  1  0
 11 36  1  0
 12 37  1  0
 12 38  1  0
 13 39  1  0
 13 40  1  0
 18 41  1  0
 19 42  1  0
 21 43  1  0
 22 44  1  0
 23 45  1  0
 23 46  1  0
M  END
$$$$
