
     RDKit          3D

 43 45  0  0  0  0  0  0  0  0999 V2000
   -1.8271   -3.9604   -1.2453 N   0  0  0  0  0  0  0  0  0  0  0  0
   -1.6899   -2.9318   -0.7265 C   0  0  0  0  0  0  0  0  0  0  0  0
   -1.4806   -1.6397   -0.1833 C   0  0  0  0  0  0  0  0  0  0  0  0
   -0.4251   -0.9100   -0.5961 C   0  0  0  0  0  0  0  0  0  0  0  0
   -0.1139    0.4031   -0.1690 C   0  0  0  0  0  0  0  0  0  0  0  0
   -0.3921    1.6268   -0.7570 C   0  0  0  0  0  0  0  0  0  0  0  0
    0.1482    2.6470    0.0638 C   0  0  0  0  0  0  0  0  0  0  0  0
    0.7742    2.0324    1.1245 C   0  0  0  0  0  0  0  0  0  0  0  0
    0.6113    0.6738    0.9833 N   0  0  0  0  0  0  0  0  0  0  0  0
    1.4778   -0.4558    1.9392 S   0  0  0  0  0  6  0  0  0  0  0  0
    1.8549    0.2326    3.1570 O   0  0  0  0  0  0  0  0  0  0  0  0
    0.7015   -1.6809    1.9347 O   0  0  0  0  0  0  0  0  0  0  0  0
    2.9599   -0.7327    0.9974 C   0  0  0  0  0  0  0  0  0  0  0  0
    3.1846   -1.9828    0.4089 C   0  0  0  0  0  0  0  0  0  0  0  0
    4.3518   -2.2033   -0.3244 C   0  0  0  0  0  0  0  0  0  0  0  0
    5.2959   -1.1833   -0.4639 C   0  0  0  0  0  0  0  0  0  0  0  0
    5.0688    0.0608    0.1424 C   0  0  0  0  0  0  0  0  0  0  0  0
    6.0629    1.1320   -0.0035 N   0  0  0  0  0  4  0  0  0  0  0  0
    7.1387    0.8496   -0.5480 O   0  0  0  0  0  0  0  0  0  0  0  0
    5.7577    2.2560    0.4185 O   0  0  0  0  0  1  0  0  0  0  0  0
    3.9022    0.2946    0.8819 C   0  0  0  0  0  0  0  0  0  0  0  0
   -2.6605   -1.1024    0.9700 S   0  0  0  0  0  6  0  0  0  0  0  0
   -3.4641   -2.2200    1.4312 O   0  0  0  0  0  0  0  0  0  0  0  0
   -2.0726   -0.1990    1.9441 O   0  0  0  0  0  0  0  0  0  0  0  0
   -3.7624   -0.1189   -0.0424 C   0  0  0  0  0  0  0  0  0  0  0  0
   -3.7823    1.2741    0.0959 C   0  0  0  0  0  0  0  0  0  0  0  0
   -4.6521    2.0280   -0.6927 C   0  0  0  0  0  0  0  0  0  0  0  0
   -5.4977    1.3857   -1.5925 C   0  0  0  0  0  0  0  0  0  0  0  0
   -6.3298    2.1137   -2.3477 F   0  0  0  0  0  0  0  0  0  0  0  0
   -5.4986   -0.0010   -1.7154 C   0  0  0  0  0  0  0  0  0  0  0  0
   -4.6323   -0.7642   -0.9319 C   0  0  0  0  0  0  0  0  0  0  0  0
    0.2402   -1.3342   -1.3496 H   0  0  0  0  0  0  0  0  0  0  0  0
   -0.9372    1.7764   -1.6824 H   0  0  0  0  0  0  0  0  0  0  0  0
    0.0973    3.7160   -0.1068 H   0  0  0  0  0  0  0  0  0  0  0  0
    1.3149    2.4484    1.9664 H   0  0  0  0  0  0  0  0  0  0  0  0
    2.4673   -2.7947    0.5226 H   0  0  0  0  0  0  0  0  0  0  0  0
    4.5315   -3.1753   -0.7813 H   0  0  0  0  0  0  0  0  0  0  0  0
    6.2015   -1.3751   -1.0378 H   0  0  0  0  0  0  0  0  0  0  0  0
    3.7354    1.2523    1.3722 H   0  0  0  0  0  0  0  0  0  0  0  0
   -3.1357    1.7782    0.8116 H   0  0  0  0  0  0  0  0  0  0  0  0
   -4.6842    3.1101   -0.6053 H   0  0  0  0  0  0  0  0  0  0  0  0
   -6.1832   -0.4765   -2.4120 H   0  0  0  0  0  0  0  0  0  0  0  0
   -4.6574   -1.8496   -1.0102 H   0  0  0  0  0  0  0  0  0  0  0  0
  1  2  3  0
  2  3  1  0
  3  4  2  3
  4  5  1  0
  5  6  2  0
  6  7  1  0
  7  8  2  0
  8  9  1  0
  9 10  1  0
 10 11  2  0
 10 12  2  0
 10 13  1  0
 13 14  2  0
 14 15  1  0
 15 16  2  0
 16 17  1  0
 17 18  1  0
 18 19  2  0
 18 20  1  0
 17 21  2  0
  3 22  1  0
 22 23  2  0
 22 24  2  0
 22 25  1  0
 25 26  2  0
 26 27  1  0
 27 28  2  0
 28 29  1  0
 28 30  1  0
 30 31  2  0
  9  5  1  0
 21 13  1  0
 31 25  1  0
  4 32  1  0
  6 33  1  0
  7 34  1  0
  8 35  1  0
 14 36  1  0
 15 37  1  0
 16 38  1  0
 21 39  1  0
 26 40  1  0
 27 41  1  0
 30 42  1  0
 31 43  1  0
M  CHG  2  18   1  20  -1
M  END
$$$$
