
     RDKit          3D

 34 37  0  0  0  0  0  0  0  0999 V2000
   -2.9898   -2.4449    1.1550 C   0  0  0  0  0  0  0  0  0  0  0  0
   -2.8871   -1.0037    0.7404 C   0  0  0  0  0  0  0  0  0  0  0  0
   -1.7270   -0.4819    0.2928 C   0  0  0  0  0  0  0  0  0  0  0  0
   -1.6385    0.9679   -0.1197 C   0  0  0  0  0  0  0  0  0  0  0  0
   -0.6007    1.6079   -0.5660 N   0  0  0  0  0  0  0  0  0  0  0  0
    0.6193    0.9389   -0.7086 C   0  0  0  0  0  0  0  0  0  0  0  0
    0.9495    0.3326   -1.9201 C   0  0  0  0  0  0  0  0  0  0  0  0
    2.1660   -0.3377   -2.0662 C   0  0  0  0  0  0  0  0  0  0  0  0
    3.0791   -0.4003   -1.0023 C   0  0  0  0  0  0  0  0  0  0  0  0
    4.3058   -1.0715   -1.1288 C   0  0  0  0  0  0  0  0  0  0  0  0
    5.2064   -1.1177   -0.0634 C   0  0  0  0  0  0  0  0  0  0  0  0
    4.8937   -0.4922    1.1400 C   0  0  0  0  0  0  0  0  0  0  0  0
    3.6788    0.1801    1.2820 C   0  0  0  0  0  0  0  0  0  0  0  0
    2.7603    0.2332    0.2212 C   0  0  0  0  0  0  0  0  0  0  0  0
    1.5328    0.9037    0.3484 C   0  0  0  0  0  0  0  0  0  0  0  0
   -2.8701    1.6340    0.0273 N   0  0  0  0  0  0  0  0  0  0  0  0
   -3.0820    2.9431   -0.2682 N   0  0  0  0  0  0  0  0  0  0  0  0
   -4.3750    3.0744    0.0389 C   0  0  0  0  0  0  0  0  0  0  0  0
   -5.0018    1.9514    0.5066 N   0  0  0  0  0  0  0  0  0  0  0  0
   -4.0391    1.0651    0.4897 C   0  0  0  0  0  0  0  0  0  0  0  0
   -4.0317   -0.2356    0.8373 N   0  0  0  0  0  0  0  0  0  0  0  0
   -3.2937   -2.5171    2.2045 H   0  0  0  0  0  0  0  0  0  0  0  0
   -3.7341   -2.9639    0.5419 H   0  0  0  0  0  0  0  0  0  0  0  0
   -2.0376   -2.9746    1.0451 H   0  0  0  0  0  0  0  0  0  0  0  0
   -0.8275   -1.0801    0.2152 H   0  0  0  0  0  0  0  0  0  0  0  0
    0.2573    0.3879   -2.7559 H   0  0  0  0  0  0  0  0  0  0  0  0
    2.3983   -0.8036   -3.0211 H   0  0  0  0  0  0  0  0  0  0  0  0
    4.5710   -1.5619   -2.0628 H   0  0  0  0  0  0  0  0  0  0  0  0
    6.1538   -1.6386   -0.1758 H   0  0  0  0  0  0  0  0  0  0  0  0
    5.5965   -0.5238    1.9685 H   0  0  0  0  0  0  0  0  0  0  0  0
    3.4543    0.6665    2.2288 H   0  0  0  0  0  0  0  0  0  0  0  0
    1.2773    1.4104    1.2758 H   0  0  0  0  0  0  0  0  0  0  0  0
   -4.8820    4.0238   -0.0818 H   0  0  0  0  0  0  0  0  0  0  0  0
   -4.8826   -0.6716    1.1800 H   0  0  0  0  0  0  0  0  0  0  0  0
  1  2  1  0
  2  3  2  0
  3  4  1  0
  4  5  2  0
  5  6  1  0
  6  7  2  0
  7  8  1  0
  8  9  2  0
  9 10  1  0
 10 11  2  0
 11 12  1  0
 12 13  2  0
 13 14  1  0
 14 15  2  0
  4 16  1  0
 16 17  1  0
 17 18  2  0
 18 19  1  0
 19 20  2  0
 20 21  1  0
 21  2  1  0
 15  6  1  0
 20 16  1  0
 14  9  1  0
  1 22  1  0
  1 23  1  0
  1 24  1  0
  3 25  1  0
  7 26  1  0
  8 27  1  0
 10 28  1  0
 11 29  1  0
 12 30  1  0
 13 31  1  0
 15 32  1  0
 18 33  1  0
 21 34  1  0
M  END
$$$$
