
     RDKit          3D

 51 54  0  0  0  0  0  0  0  0999 V2000
    9.3917   -1.8104   -0.9528 C   0  0  0  0  0  0  0  0  0  0  0  0
    8.5657   -2.9326   -0.6724 O   0  0  0  0  0  0  0  0  0  0  0  0
    7.2562   -2.5908   -0.4137 C   0  0  0  0  0  0  0  0  0  0  0  0
    6.4519   -3.6300   -0.1668 N   0  0  0  0  0  0  0  0  0  0  0  0
    5.1709   -3.3297    0.0865 C   0  0  0  0  0  0  0  0  0  0  0  0
    4.6853   -2.0348    0.0978 C   0  0  0  0  0  0  0  0  0  0  0  0
    3.3431   -1.7023    0.3579 C   0  0  0  0  0  0  0  0  0  0  0  0
    2.9517   -0.3647    0.3462 C   0  0  0  0  0  0  0  0  0  0  0  0
    1.5248   -0.0252    0.6142 C   0  0  0  0  0  0  0  0  0  0  0  0
    0.7434   -0.9576    0.7725 O   0  0  0  0  0  0  0  0  0  0  0  0
    1.1997    1.3149    0.6562 N   0  0  0  0  0  0  0  0  0  0  0  0
   -0.0665    1.9057    0.8918 C   0  0  0  0  0  0  0  0  0  0  0  0
   -1.2209    1.1657    1.1685 C   0  0  0  0  0  0  0  0  0  0  0  0
   -2.4518    1.8106    1.3709 C   0  0  0  0  0  0  0  0  0  0  0  0
   -3.6525    0.9807    1.6556 C   0  0  0  0  0  0  0  0  0  0  0  0
   -3.5471   -0.0555    2.2992 O   0  0  0  0  0  0  0  0  0  0  0  0
   -4.8386    1.4432    1.1258 N   0  0  0  0  0  0  0  0  0  0  0  0
   -6.0433    0.6456    1.1845 C   0  0  0  0  0  0  0  0  0  0  0  0
   -6.2367   -0.1238   -0.0968 C   0  0  0  0  0  0  0  0  0  0  0  0
   -5.5617   -1.3369   -0.3012 C   0  0  0  0  0  0  0  0  0  0  0  0
   -5.7121   -2.0430   -1.4959 C   0  0  0  0  0  0  0  0  0  0  0  0
   -6.5343   -1.5404   -2.5033 C   0  0  0  0  0  0  0  0  0  0  0  0
   -7.2017   -0.3330   -2.3107 C   0  0  0  0  0  0  0  0  0  0  0  0
   -8.2076    0.2950   -3.5577 Cl  0  0  0  0  0  0  0  0  0  0  0  0
   -7.0557    0.3775   -1.1186 C   0  0  0  0  0  0  0  0  0  0  0  0
   -2.5335    3.2067    1.3258 C   0  0  0  0  0  0  0  0  0  0  0  0
   -1.3887    3.9563    1.0622 C   0  0  0  0  0  0  0  0  0  0  0  0
   -0.1676    3.3108    0.8444 C   0  0  0  0  0  0  0  0  0  0  0  0
    1.2158    4.2996    0.5164 Cl  0  0  0  0  0  0  0  0  0  0  0  0
    3.9533    0.5491    0.0724 C   0  0  0  0  0  0  0  0  0  0  0  0
    3.7287    1.8881    0.0268 O   0  0  0  0  0  0  0  0  0  0  0  0
    5.2436    0.2507   -0.1802 N   0  0  0  0  0  0  0  0  0  0  0  0
    5.6162   -1.0306   -0.1707 C   0  0  0  0  0  0  0  0  0  0  0  0
    6.8868   -1.3037   -0.4240 N   0  0  0  0  0  0  0  0  0  0  0  0
    9.4478   -1.1318   -0.0942 H   0  0  0  0  0  0  0  0  0  0  0  0
   10.4026   -2.1809   -1.1482 H   0  0  0  0  0  0  0  0  0  0  0  0
    9.0536   -1.2812   -1.8509 H   0  0  0  0  0  0  0  0  0  0  0  0
    4.5298   -4.1841    0.2850 H   0  0  0  0  0  0  0  0  0  0  0  0
    2.6143   -2.4841    0.5663 H   0  0  0  0  0  0  0  0  0  0  0  0
    1.9543    1.9799    0.4780 H   0  0  0  0  0  0  0  0  0  0  0  0
   -1.1997    0.0812    1.2306 H   0  0  0  0  0  0  0  0  0  0  0  0
   -4.8039    2.1639    0.4190 H   0  0  0  0  0  0  0  0  0  0  0  0
   -6.0178   -0.0381    2.0403 H   0  0  0  0  0  0  0  0  0  0  0  0
   -6.8800    1.3344    1.3447 H   0  0  0  0  0  0  0  0  0  0  0  0
   -4.9050   -1.7324    0.4740 H   0  0  0  0  0  0  0  0  0  0  0  0
   -5.1832   -2.9822   -1.6399 H   0  0  0  0  0  0  0  0  0  0  0  0
   -6.6473   -2.0916   -3.4324 H   0  0  0  0  0  0  0  0  0  0  0  0
   -7.5785    1.3220   -0.9881 H   0  0  0  0  0  0  0  0  0  0  0  0
   -3.4717    3.7192    1.5219 H   0  0  0  0  0  0  0  0  0  0  0  0
   -1.4502    5.0416    1.0342 H   0  0  0  0  0  0  0  0  0  0  0  0
    4.6264    2.2095   -0.1924 H   0  0  0  0  0  0  0  0  0  0  0  0
  1  2  1  0
  2  3  1  0
  3  4  2  0
  4  5  1  0
  5  6  2  0
  6  7  1  0
  7  8  2  0
  8  9  1  0
  9 10  2  0
  9 11  1  0
 11 12  1  0
 12 13  2  0
 13 14  1  0
 14 15  1  0
 15 16  2  0
 15 17  1  0
 17 18  1  0
 18 19  1  0
 19 20  2  0
 20 21  1  0
 21 22  2  0
 22 23  1  0
 23 24  1  0
 23 25  2  0
 14 26  2  0
 26 27  1  0
 27 28  2  0
 28 29  1  0
  8 30  1  0
 30 31  1  0
 30 32  2  0
 32 33  1  0
 33 34  2  0
 34  3  1  0
 33  6  1  0
 28 12  1  0
 25 19  1  0
  1 35  1  0
  1 36  1  0
  1 37  1  0
  5 38  1  0
  7 39  1  0
 11 40  1  0
 13 41  1  0
 17 42  1  0
 18 43  1  0
 18 44  1  0
 20 45  1  0
 21 46  1  0
 22 47  1  0
 25 48  1  0
 26 49  1  0
 27 50  1  0
 31 51  1  0
M  END
$$$$
