
     RDKit          3D

 62 63  0  0  0  0  0  0  0  0999 V2000
   10.1066    1.5964    0.7880 C   0  0  0  0  0  0  0  0  0  0  0  0
    9.8647    0.7635   -0.4756 C   0  0  0  0  0  0  0  0  0  0  0  0
   10.5591    1.4561   -1.6586 C   0  0  0  0  0  0  0  0  0  0  0  0
   10.4261   -0.6568   -0.3442 C   0  0  0  0  0  0  0  0  0  0  0  0
    8.4582    0.7453   -0.8358 O   0  0  0  0  0  0  0  0  0  0  0  0
    7.5333    0.1947   -0.0077 C   0  0  0  0  0  0  0  0  0  0  0  0
    7.7813   -0.3133    1.0727 O   0  0  0  0  0  0  0  0  0  0  0  0
    6.3144    0.3223   -0.6119 N   0  0  0  0  0  0  0  0  0  0  0  0
    5.0586   -0.0992   -0.1472 C   0  0  0  0  0  0  0  0  0  0  0  0
    3.9531    0.1526   -0.9652 C   0  0  0  0  0  0  0  0  0  0  0  0
    2.6663   -0.2396   -0.5726 C   0  0  0  0  0  0  0  0  0  0  0  0
    2.4541   -0.8937    0.6483 C   0  0  0  0  0  0  0  0  0  0  0  0
    1.1118   -1.3007    1.0515 C   0  0  0  0  0  0  0  0  0  0  0  0
   -0.1473   -1.1831    0.5089 C   0  0  0  0  0  0  0  0  0  0  0  0
   -1.0192   -1.8179    1.4384 C   0  0  0  0  0  0  0  0  0  0  0  0
   -2.4772   -1.9962    1.3756 C   0  0  0  0  0  0  0  0  0  0  0  0
   -3.0947   -2.7542    2.1192 O   0  0  0  0  0  0  0  0  0  0  0  0
   -3.1233   -1.2320    0.4138 N   0  0  0  0  0  0  0  0  0  0  0  0
   -4.5680   -1.2399    0.2934 C   0  0  0  0  0  0  0  0  0  0  0  0
   -5.2172   -0.2687    1.2782 C   0  0  0  0  0  0  0  0  0  0  0  0
   -6.7471   -0.3154    1.2596 C   0  0  0  0  0  0  0  0  0  0  0  0
   -7.3545    0.1550   -0.0639 C   0  0  0  0  0  0  0  0  0  0  0  0
   -8.8823    0.1984    0.0131 C   0  0  0  0  0  0  0  0  0  0  0  0
   -9.4943    0.6603   -1.3077 C   0  0  0  0  0  0  0  0  0  0  0  0
  -11.0066    0.7132   -1.2492 C   0  0  0  0  0  0  0  0  0  0  0  0
  -11.6798    0.4355   -0.2604 O   0  0  0  0  0  0  0  0  0  0  0  0
  -11.5837    1.1056   -2.4377 N   0  0  0  0  0  0  0  0  0  0  0  0
  -12.9861    1.2986   -2.3803 O   0  0  0  0  0  0  0  0  0  0  0  0
   -0.3122   -2.2927    2.4768 N   0  0  0  0  0  0  0  0  0  0  0  0
    1.0046   -1.9655    2.2353 O   0  0  0  0  0  0  0  0  0  0  0  0
    3.5689   -1.1408    1.4612 C   0  0  0  0  0  0  0  0  0  0  0  0
    4.8568   -0.7484    1.0691 C   0  0  0  0  0  0  0  0  0  0  0  0
   11.1767    1.7507    0.9645 H   0  0  0  0  0  0  0  0  0  0  0  0
    9.6948    1.1159    1.6805 H   0  0  0  0  0  0  0  0  0  0  0  0
    9.6219    2.5759    0.7067 H   0  0  0  0  0  0  0  0  0  0  0  0
   11.6410    1.5332   -1.5074 H   0  0  0  0  0  0  0  0  0  0  0  0
   10.3779    0.9090   -2.5912 H   0  0  0  0  0  0  0  0  0  0  0  0
   10.1578    2.4651   -1.8097 H   0  0  0  0  0  0  0  0  0  0  0  0
   10.1637   -1.2608   -1.2201 H   0  0  0  0  0  0  0  0  0  0  0  0
   11.5167   -0.6462   -0.2421 H   0  0  0  0  0  0  0  0  0  0  0  0
   10.0220   -1.1781    0.5288 H   0  0  0  0  0  0  0  0  0  0  0  0
    6.3629    0.7827   -1.5095 H   0  0  0  0  0  0  0  0  0  0  0  0
    4.0741    0.6562   -1.9212 H   0  0  0  0  0  0  0  0  0  0  0  0
    1.8373   -0.0253   -1.2419 H   0  0  0  0  0  0  0  0  0  0  0  0
   -0.4002   -0.7199   -0.4311 H   0  0  0  0  0  0  0  0  0  0  0  0
   -2.6155   -0.4999   -0.0590 H   0  0  0  0  0  0  0  0  0  0  0  0
   -4.7941   -0.9584   -0.7394 H   0  0  0  0  0  0  0  0  0  0  0  0
   -4.9361   -2.2584    0.4591 H   0  0  0  0  0  0  0  0  0  0  0  0
   -4.8739    0.7524    1.0700 H   0  0  0  0  0  0  0  0  0  0  0  0
   -4.8798   -0.5022    2.2959 H   0  0  0  0  0  0  0  0  0  0  0  0
   -7.1179    0.3233    2.0710 H   0  0  0  0  0  0  0  0  0  0  0  0
   -7.0859   -1.3348    1.4810 H   0  0  0  0  0  0  0  0  0  0  0  0
   -7.0559   -0.5190   -0.8747 H   0  0  0  0  0  0  0  0  0  0  0  0
   -6.9713    1.1524   -0.3109 H   0  0  0  0  0  0  0  0  0  0  0  0
   -9.2675   -0.7962    0.2703 H   0  0  0  0  0  0  0  0  0  0  0  0
   -9.1925    0.8748    0.8193 H   0  0  0  0  0  0  0  0  0  0  0  0
   -9.2060   -0.0249   -2.1134 H   0  0  0  0  0  0  0  0  0  0  0  0
   -9.1261    1.6615   -1.5600 H   0  0  0  0  0  0  0  0  0  0  0  0
  -11.0858    1.6867   -3.1040 H   0  0  0  0  0  0  0  0  0  0  0  0
  -13.1994    1.0274   -1.4593 H   0  0  0  0  0  0  0  0  0  0  0  0
    3.4574   -1.6462    2.4196 H   0  0  0  0  0  0  0  0  0  0  0  0
    5.6793   -0.9696    1.7433 H   0  0  0  0  0  0  0  0  0  0  0  0
  1  2  1  0
  2  3  1  0
  2  4  1  0
  2  5  1  0
  5  6  1  0
  6  7  2  0
  6  8  1  0
  8  9  1  0
  9 10  2  0
 10 11  1  0
 11 12  2  0
 12 13  1  0
 13 14  2  0
 14 15  1  0
 15 16  1  0
 16 17  2  0
 16 18  1  0
 18 19  1  0
 19 20  1  0
 20 21  1  0
 21 22  1  0
 22 23  1  0
 23 24  1  0
 24 25  1  0
 25 26  2  0
 25 27  1  0
 27 28  1  0
 15 29  2  0
 29 30  1  0
 12 31  1  0
 31 32  2  0
 32  9  1  0
 30 13  1  0
  1 33  1  0
  1 34  1  0
  1 35  1  0
  3 36  1  0
  3 37  1  0
  3 38  1  0
  4 39  1  0
  4 40  1  0
  4 41  1  0
  8 42  1  0
 10 43  1  0
 11 44  1  0
 14 45  1  0
 18 46  1  0
 19 47  1  0
 19 48  1  0
 20 49  1  0
 20 50  1  0
 21 51  1  0
 21 52  1  0
 22 53  1  0
 22 54  1  0
 23 55  1  0
 23 56  1  0
 24 57  1  0
 24 58  1  0
 27 59  1  0
 28 60  1  0
 31 61  1  0
 32 62  1  0
M  END
$$$$
