
     RDKit          3D

 58 61  0  0  0  0  0  0  0  0999 V2000
    5.9359    1.2327    3.3035 C   0  0  0  0  0  0  0  0  0  0  0  0
    6.6325    0.4876    2.3114 O   0  0  0  0  0  0  0  0  0  0  0  0
    5.8722   -0.2458    1.4423 C   0  0  0  0  0  0  0  0  0  0  0  0
    6.5909   -0.8999    0.4429 C   0  0  0  0  0  0  0  0  0  0  0  0
    5.9376   -1.6728   -0.5231 C   0  0  0  0  0  0  0  0  0  0  0  0
    4.5477   -1.8086   -0.4976 C   0  0  0  0  0  0  0  0  0  0  0  0
    3.8169   -2.5151   -1.4165 O   0  0  0  0  0  0  0  0  0  0  0  0
    4.5357   -3.2785   -2.3777 C   0  0  0  0  0  0  0  0  0  0  0  0
    3.8134   -1.1719    0.5179 C   0  0  0  0  0  0  0  0  0  0  0  0
    2.3100   -1.2681    0.5925 C   0  0  0  0  0  0  0  0  0  0  0  0
    1.6973   -0.1056   -0.0089 N   0  0  0  0  0  0  0  0  0  0  0  0
    0.4141    0.2598    0.3052 C   0  0  0  0  0  0  0  0  0  0  0  0
   -0.2741   -0.2928    1.1544 O   0  0  0  0  0  0  0  0  0  0  0  0
   -0.1168    1.3951   -0.4999 C   0  0  0  0  0  0  0  0  0  0  0  0
    0.6233    2.5159   -0.5195 C   0  0  0  0  0  0  0  0  0  0  0  0
    0.1450    3.7426   -1.1902 C   0  0  0  0  0  0  0  0  0  0  0  0
    0.8393    4.7535   -1.2117 O   0  0  0  0  0  0  0  0  0  0  0  0
   -1.0954    3.6928   -1.7587 N   0  0  0  0  0  0  0  0  0  0  0  0
   -1.9111    2.5560   -1.7450 C   0  0  0  0  0  0  0  0  0  0  0  0
   -3.1682    2.6122   -2.3505 C   0  0  0  0  0  0  0  0  0  0  0  0
   -3.9881    1.4845   -2.3437 C   0  0  0  0  0  0  0  0  0  0  0  0
   -3.5417    0.3100   -1.7302 C   0  0  0  0  0  0  0  0  0  0  0  0
   -4.5701   -1.1475   -1.7530 S   0  0  0  0  0  6  0  0  0  0  0  0
   -3.6875   -2.2901   -1.8485 O   0  0  0  0  0  0  0  0  0  0  0  0
   -5.6076   -0.9181   -2.7364 O   0  0  0  0  0  0  0  0  0  0  0  0
   -5.2932   -1.1521   -0.2379 N   0  0  0  0  0  0  0  0  0  0  0  0
   -4.5063   -1.5131    0.9572 C   0  0  0  0  0  0  0  0  0  0  0  0
   -5.3714   -1.0292    2.1131 C   0  0  0  0  0  0  0  0  0  0  0  0
   -5.9702    0.2489    1.5564 C   0  0  0  0  0  0  0  0  0  0  0  0
   -6.2841   -0.1141    0.1097 C   0  0  0  0  0  0  0  0  0  0  0  0
   -2.2662    0.2441   -1.1569 C   0  0  0  0  0  0  0  0  0  0  0  0
   -1.4484    1.3797   -1.1321 C   0  0  0  0  0  0  0  0  0  0  0  0
    4.4866   -0.3844    1.4780 C   0  0  0  0  0  0  0  0  0  0  0  0
    5.4127    0.5665    3.9975 H   0  0  0  0  0  0  0  0  0  0  0  0
    6.6755    1.7993    3.8772 H   0  0  0  0  0  0  0  0  0  0  0  0
    5.2454    1.9503    2.8471 H   0  0  0  0  0  0  0  0  0  0  0  0
    7.6738   -0.8010    0.4096 H   0  0  0  0  0  0  0  0  0  0  0  0
    6.5491   -2.1501   -1.2820 H   0  0  0  0  0  0  0  0  0  0  0  0
    5.1818   -4.0202   -1.8926 H   0  0  0  0  0  0  0  0  0  0  0  0
    3.8069   -3.8196   -2.9898 H   0  0  0  0  0  0  0  0  0  0  0  0
    5.1086   -2.6276   -3.0448 H   0  0  0  0  0  0  0  0  0  0  0  0
    1.9252   -2.1569    0.0826 H   0  0  0  0  0  0  0  0  0  0  0  0
    1.9919   -1.3529    1.6388 H   0  0  0  0  0  0  0  0  0  0  0  0
    2.1199    0.2443   -0.8581 H   0  0  0  0  0  0  0  0  0  0  0  0
    1.5824    2.6054   -0.0223 H   0  0  0  0  0  0  0  0  0  0  0  0
   -1.4097    4.5454   -2.2031 H   0  0  0  0  0  0  0  0  0  0  0  0
   -3.5169    3.5220   -2.8319 H   0  0  0  0  0  0  0  0  0  0  0  0
   -4.9648    1.5261   -2.8220 H   0  0  0  0  0  0  0  0  0  0  0  0
   -4.3409   -2.5924    1.0094 H   0  0  0  0  0  0  0  0  0  0  0  0
   -3.5455   -0.9931    0.9755 H   0  0  0  0  0  0  0  0  0  0  0  0
   -4.7951   -0.8651    3.0293 H   0  0  0  0  0  0  0  0  0  0  0  0
   -6.1644   -1.7567    2.3275 H   0  0  0  0  0  0  0  0  0  0  0  0
   -6.8552    0.5797    2.1067 H   0  0  0  0  0  0  0  0  0  0  0  0
   -5.2258    1.0541    1.5880 H   0  0  0  0  0  0  0  0  0  0  0  0
   -6.2335    0.7682   -0.5312 H   0  0  0  0  0  0  0  0  0  0  0  0
   -7.2860   -0.5490    0.0264 H   0  0  0  0  0  0  0  0  0  0  0  0
   -1.9256   -0.6959   -0.7260 H   0  0  0  0  0  0  0  0  0  0  0  0
    3.8926    0.1112    2.2409 H   0  0  0  0  0  0  0  0  0  0  0  0
  1  2  1  0
  2  3  1  0
  3  4  2  0
  4  5  1  0
  5  6  2  0
  6  7  1  0
  7  8  1  0
  6  9  1  0
  9 10  1  0
 10 11  1  0
 11 12  1  0
 12 13  2  0
 12 14  1  0
 14 15  2  0
 15 16  1  0
 16 17  2  0
 16 18  1  0
 18 19  1  0
 19 20  2  0
 20 21  1  0
 21 22  2  0
 22 23  1  0
 23 24  2  0
 23 25  2  0
 23 26  1  0
 26 27  1  0
 27 28  1  0
 28 29  1  0
 29 30  1  0
 22 31  1  0
 31 32  2  0
  9 33  2  0
 33  3  1  0
 32 14  1  0
 32 19  1  0
 30 26  1  0
  1 34  1  0
  1 35  1  0
  1 36  1  0
  4 37  1  0
  5 38  1  0
  8 39  1  0
  8 40  1  0
  8 41  1  0
 10 42  1  0
 10 43  1  0
 11 44  1  0
 15 45  1  0
 18 46  1  0
 20 47  1  0
 21 48  1  0
 27 49  1  0
 27 50  1  0
 28 51  1  0
 28 52  1  0
 29 53  1  0
 29 54  1  0
 30 55  1  0
 30 56  1  0
 31 57  1  0
 33 58  1  0
M  END
$$$$
