
     RDKit          3D

 63 66  0  0  0  0  0  0  0  0999 V2000
    2.4893    2.1504   -1.4428 C   0  0  0  0  0  0  0  0  0  0  0  0
    1.6453    0.8859   -1.4975 C   0  0  0  0  0  0  0  0  0  0  0  0
    0.9819    0.5781   -0.2263 N   0  0  0  0  0  0  0  0  0  0  0  0
    1.5609   -0.1038    0.8486 C   0  0  0  0  0  0  0  0  0  0  0  0
    1.0569   -0.2296    1.9644 O   0  0  0  0  0  0  0  0  0  0  0  0
    2.8696   -0.7501    0.6338 C   0  0  0  0  0  0  0  0  0  0  0  0
    2.8768   -2.0117    0.0230 C   0  0  0  0  0  0  0  0  0  0  0  0
    4.0829   -2.6806   -0.1666 C   0  0  0  0  0  0  0  0  0  0  0  0
    5.2725   -2.0932    0.2618 C   0  0  0  0  0  0  0  0  0  0  0  0
    5.2603   -0.8419    0.8901 C   0  0  0  0  0  0  0  0  0  0  0  0
    4.0544   -0.1643    1.0981 C   0  0  0  0  0  0  0  0  0  0  0  0
    3.9608    1.0688    1.6850 O   0  0  0  0  0  0  0  0  0  0  0  0
    4.9942    1.4095    2.6018 C   0  0  0  0  0  0  0  0  0  0  0  0
   -0.4046    0.8962   -0.1381 C   0  0  0  0  0  0  0  0  0  0  0  0
   -0.7607    2.2390    0.0561 C   0  0  0  0  0  0  0  0  0  0  0  0
   -2.1017    2.5219    0.1701 C   0  0  0  0  0  0  0  0  0  0  0  0
   -3.0736    1.5254    0.0924 C   0  0  0  0  0  0  0  0  0  0  0  0
   -2.7508    0.1972   -0.1058 C   0  0  0  0  0  0  0  0  0  0  0  0
   -1.3919   -0.1478   -0.2263 C   0  0  0  0  0  0  0  0  0  0  0  0
   -0.9923   -1.4717   -0.5201 N   0  0  0  0  0  0  0  0  0  0  0  0
   -0.8189   -1.7017   -1.9735 C   0  0  0  0  0  0  0  0  0  0  0  0
   -1.8246   -2.7418   -2.5102 C   0  0  0  0  0  0  0  0  0  0  0  0
   -1.7481   -4.0628   -1.8584 N   0  0  0  0  0  0  0  0  0  0  0  0
   -1.3013   -3.9423   -0.4554 C   0  0  0  0  0  0  0  0  0  0  0  0
   -1.6370   -2.5838    0.2267 C   0  0  1  0  0  0  0  0  0  0  0  0
   -1.1460   -2.6087    1.6737 C   0  0  0  0  0  0  0  0  0  0  0  0
   -4.3270    2.1355    0.2389 N   0  0  0  0  0  0  0  0  0  0  0  0
   -5.5871    1.4526    0.2438 C   0  0  0  0  0  0  0  0  0  0  0  0
   -4.1457    3.5234    0.4253 C   0  0  0  0  0  0  0  0  0  0  0  0
   -5.0177    4.3607    0.5957 O   0  0  0  0  0  0  0  0  0  0  0  0
   -2.7530    3.7456    0.3723 N   0  0  0  0  0  0  0  0  0  0  0  0
   -2.1024    5.0123    0.5384 C   0  0  0  0  0  0  0  0  0  0  0  0
    2.9819    2.3143   -2.4066 H   0  0  0  0  0  0  0  0  0  0  0  0
    1.8768    3.0304   -1.2273 H   0  0  0  0  0  0  0  0  0  0  0  0
    3.2639    2.0893   -0.6755 H   0  0  0  0  0  0  0  0  0  0  0  0
    0.8890    0.9911   -2.2850 H   0  0  0  0  0  0  0  0  0  0  0  0
    2.2790    0.0437   -1.7902 H   0  0  0  0  0  0  0  0  0  0  0  0
    1.9410   -2.4678   -0.2907 H   0  0  0  0  0  0  0  0  0  0  0  0
    4.0951   -3.6588   -0.6405 H   0  0  0  0  0  0  0  0  0  0  0  0
    6.2162   -2.6127    0.1116 H   0  0  0  0  0  0  0  0  0  0  0  0
    6.2098   -0.4162    1.1990 H   0  0  0  0  0  0  0  0  0  0  0  0
    5.1821    0.6024    3.3186 H   0  0  0  0  0  0  0  0  0  0  0  0
    5.9099    1.6830    2.0680 H   0  0  0  0  0  0  0  0  0  0  0  0
    4.6639    2.2870    3.1659 H   0  0  0  0  0  0  0  0  0  0  0  0
   -0.0092    3.0108    0.1518 H   0  0  0  0  0  0  0  0  0  0  0  0
   -3.5340   -0.5425   -0.1949 H   0  0  0  0  0  0  0  0  0  0  0  0
   -0.9250   -0.7769   -2.5553 H   0  0  0  0  0  0  0  0  0  0  0  0
    0.2031   -2.0623   -2.1429 H   0  0  0  0  0  0  0  0  0  0  0  0
   -2.8411   -2.3480   -2.3828 H   0  0  0  0  0  0  0  0  0  0  0  0
   -1.6694   -2.8790   -3.5854 H   0  0  0  0  0  0  0  0  0  0  0  0
   -2.6732   -4.4901   -1.8856 H   0  0  0  0  0  0  0  0  0  0  0  0
   -1.7389   -4.7680    0.1180 H   0  0  0  0  0  0  0  0  0  0  0  0
   -0.2148   -4.0975   -0.4405 H   0  0  0  0  0  0  0  0  0  0  0  0
   -2.7287   -2.4832    0.2259 H   0  0  0  0  0  0  0  0  0  0  0  0
   -1.6105   -3.4327    2.2258 H   0  0  0  0  0  0  0  0  0  0  0  0
   -1.3946   -1.6796    2.1963 H   0  0  0  0  0  0  0  0  0  0  0  0
   -0.0602   -2.7421    1.7220 H   0  0  0  0  0  0  0  0  0  0  0  0
   -6.4070    2.1657    0.3659 H   0  0  0  0  0  0  0  0  0  0  0  0
   -5.7151    0.9208   -0.7034 H   0  0  0  0  0  0  0  0  0  0  0  0
   -5.6089    0.7407    1.0740 H   0  0  0  0  0  0  0  0  0  0  0  0
   -1.5003    5.2300   -0.3485 H   0  0  0  0  0  0  0  0  0  0  0  0
   -2.8426    5.8063    0.6707 H   0  0  0  0  0  0  0  0  0  0  0  0
   -1.4594    4.9748    1.4226 H   0  0  0  0  0  0  0  0  0  0  0  0
  1  2  1  0
  2  3  1  0
  3  4  1  0
  4  5  2  0
  4  6  1  0
  6  7  2  0
  7  8  1  0
  8  9  2  0
  9 10  1  0
 10 11  2  0
 11 12  1  0
 12 13  1  0
  3 14  1  0
 14 15  2  0
 15 16  1  0
 16 17  2  0
 17 18  1  0
 18 19  2  0
 19 20  1  0
 20 21  1  0
 21 22  1  0
 22 23  1  0
 23 24  1  0
 24 25  1  0
 25 26  1  0
 17 27  1  0
 27 28  1  0
 27 29  1  0
 29 30  2  0
 29 31  1  0
 31 32  1  0
 11  6  1  0
 19 14  1  0
 25 20  1  0
 31 16  1  0
  1 33  1  0
  1 34  1  0
  1 35  1  0
  2 36  1  0
  2 37  1  0
  7 38  1  0
  8 39  1  0
  9 40  1  0
 10 41  1  0
 13 42  1  0
 13 43  1  0
 13 44  1  0
 15 45  1  0
 18 46  1  0
 21 47  1  0
 21 48  1  0
 22 49  1  0
 22 50  1  0
 23 51  1  0
 24 52  1  0
 24 53  1  0
 25 54  1  1
 26 55  1  0
 26 56  1  0
 26 57  1  0
 28 58  1  0
 28 59  1  0
 28 60  1  0
 32 61  1  0
 32 62  1  0
 32 63  1  0
M  END
$$$$
