
     RDKit          3D

 30 32  0  0  0  0  0  0  0  0999 V2000
    1.5381    2.4938    1.3804 O   0  0  0  0  0  0  0  0  0  0  0  0
    1.4503    1.3838    0.8677 C   0  0  0  0  0  0  0  0  0  0  0  0
    0.2614    0.6958    0.8181 N   0  0  0  0  0  0  0  0  0  0  0  0
    0.0601   -0.5491    0.2733 C   0  0  0  0  0  0  0  0  0  0  0  0
   -1.1821   -1.1501    0.3134 N   0  0  0  0  0  0  0  0  0  0  0  0
   -2.4544   -0.5578    0.1756 C   0  0  0  0  0  0  0  0  0  0  0  0
   -3.5763   -1.2928    0.5959 C   0  0  0  0  0  0  0  0  0  0  0  0
   -4.8619   -0.7500    0.5243 C   0  0  0  0  0  0  0  0  0  0  0  0
   -5.0325    0.5374    0.0359 C   0  0  0  0  0  0  0  0  0  0  0  0
   -6.2634    1.0600   -0.0351 F   0  0  0  0  0  0  0  0  0  0  0  0
   -3.9427    1.2893   -0.3800 C   0  0  0  0  0  0  0  0  0  0  0  0
   -2.6574    0.7436   -0.3057 C   0  0  0  0  0  0  0  0  0  0  0  0
    1.1241   -1.1933   -0.2454 C   0  0  0  0  0  0  0  0  0  0  0  0
    2.4497   -0.5697   -0.2747 C   0  0  0  0  0  0  0  0  0  0  0  0
    3.5501   -1.2247   -0.8379 C   0  0  0  0  0  0  0  0  0  0  0  0
    4.8033   -0.6047   -0.8534 C   0  0  0  0  0  0  0  0  0  0  0  0
    4.9661    0.6698   -0.3075 C   0  0  0  0  0  0  0  0  0  0  0  0
    3.8755    1.3304    0.2568 C   0  0  0  0  0  0  0  0  0  0  0  0
    2.6235    0.7079    0.2697 C   0  0  0  0  0  0  0  0  0  0  0  0
   -0.5225    1.1425    1.2744 H   0  0  0  0  0  0  0  0  0  0  0  0
   -1.1846   -2.1324    0.0563 H   0  0  0  0  0  0  0  0  0  0  0  0
   -3.4526   -2.2952    0.9991 H   0  0  0  0  0  0  0  0  0  0  0  0
   -5.7249   -1.3204    0.8519 H   0  0  0  0  0  0  0  0  0  0  0  0
   -4.0958    2.2932   -0.7632 H   0  0  0  0  0  0  0  0  0  0  0  0
   -1.8243    1.3431   -0.6636 H   0  0  0  0  0  0  0  0  0  0  0  0
    1.0296   -2.1865   -0.6700 H   0  0  0  0  0  0  0  0  0  0  0  0
    3.4461   -2.2175   -1.2689 H   0  0  0  0  0  0  0  0  0  0  0  0
    5.6562   -1.1174   -1.2925 H   0  0  0  0  0  0  0  0  0  0  0  0
    5.9426    1.1482   -0.3209 H   0  0  0  0  0  0  0  0  0  0  0  0
    3.9988    2.3227    0.6847 H   0  0  0  0  0  0  0  0  0  0  0  0
  1  2  2  0
  2  3  1  0
  3  4  1  0
  4  5  1  0
  5  6  1  0
  6  7  2  0
  7  8  1  0
  8  9  2  0
  9 10  1  0
  9 11  1  0
 11 12  2  0
  4 13  2  0
 13 14  1  0
 14 15  2  0
 15 16  1  0
 16 17  2  0
 17 18  1  0
 18 19  2  0
 19  2  1  0
 12  6  1  0
 19 14  1  0
  3 20  1  0
  5 21  1  0
  7 22  1  0
  8 23  1  0
 11 24  1  0
 12 25  1  0
 13 26  1  0
 15 27  1  0
 16 28  1  0
 17 29  1  0
 18 30  1  0
M  END
$$$$
