
     RDKit          3D

 38 40  0  0  0  0  0  0  0  0999 V2000
   -0.1027   -3.0787    0.4686 C   0  0  0  0  0  0  0  0  0  0  0  0
   -1.2353   -2.0969    0.4699 C   0  0  0  0  0  0  0  0  0  0  0  0
   -2.4719   -2.5807    0.7185 N   0  0  0  0  0  0  0  0  0  0  0  0
   -3.4998   -1.6963    0.7207 C   0  0  0  0  0  0  0  0  0  0  0  0
   -3.3746   -0.3268    0.4857 C   0  0  0  0  0  0  0  0  0  0  0  0
   -4.5779    0.5771    0.5091 C   0  0  0  0  0  0  0  0  0  0  0  0
   -5.7792   -0.1303    0.7884 O   0  0  0  0  0  0  0  0  0  0  0  0
   -2.0802    0.1551    0.2293 C   0  0  0  0  0  0  0  0  0  0  0  0
   -1.7717    1.5585   -0.0366 C   0  0  0  0  0  0  0  0  0  0  0  0
   -0.5177    1.9798   -0.2777 C   0  0  0  0  0  0  0  0  0  0  0  0
   -0.3580    3.4450   -0.5327 C   0  0  0  0  0  0  0  0  0  0  0  0
    0.8993    3.8929   -0.7786 N   0  0  0  0  0  0  0  0  0  0  0  0
   -1.3029    4.2289   -0.5261 O   0  0  0  0  0  0  0  0  0  0  0  0
    0.6085    1.0165   -0.2810 C   0  0  0  0  0  0  0  0  0  0  0  0
    1.8394    1.3708   -0.5083 N   0  0  0  0  0  0  0  0  0  0  0  0
    2.8240    0.3722   -0.4863 C   0  0  0  0  0  0  0  0  0  0  0  0
    3.1694   -0.3038   -1.6595 C   0  0  0  0  0  0  0  0  0  0  0  0
    4.1570   -1.2905   -1.6412 C   0  0  0  0  0  0  0  0  0  0  0  0
    4.8124   -1.5975   -0.4494 C   0  0  0  0  0  0  0  0  0  0  0  0
    4.4851   -0.9150    0.7215 C   0  0  0  0  0  0  0  0  0  0  0  0
    3.4972    0.0713    0.7006 C   0  0  0  0  0  0  0  0  0  0  0  0
    0.2936   -0.3121   -0.0261 O   0  0  0  0  0  0  0  0  0  0  0  0
   -1.0184   -0.7453    0.2249 C   0  0  0  0  0  0  0  0  0  0  0  0
    0.6305   -2.8145    1.2371 H   0  0  0  0  0  0  0  0  0  0  0  0
   -0.4647   -4.0902    0.6796 H   0  0  0  0  0  0  0  0  0  0  0  0
    0.3879   -3.0921   -0.5097 H   0  0  0  0  0  0  0  0  0  0  0  0
   -4.4689   -2.1469    0.9269 H   0  0  0  0  0  0  0  0  0  0  0  0
   -4.4535    1.3384    1.2862 H   0  0  0  0  0  0  0  0  0  0  0  0
   -4.6969    1.0599   -0.4664 H   0  0  0  0  0  0  0  0  0  0  0  0
   -6.4980    0.5251    0.7841 H   0  0  0  0  0  0  0  0  0  0  0  0
   -2.5929    2.2692   -0.0355 H   0  0  0  0  0  0  0  0  0  0  0  0
    1.7010    3.2638   -0.7899 H   0  0  0  0  0  0  0  0  0  0  0  0
    1.0453    4.8765   -0.9552 H   0  0  0  0  0  0  0  0  0  0  0  0
    2.6654   -0.0621   -2.5909 H   0  0  0  0  0  0  0  0  0  0  0  0
    4.4166   -1.8158   -2.5566 H   0  0  0  0  0  0  0  0  0  0  0  0
    5.5828   -2.3645   -0.4345 H   0  0  0  0  0  0  0  0  0  0  0  0
    5.0007   -1.1473    1.6496 H   0  0  0  0  0  0  0  0  0  0  0  0
    3.2493    0.6061    1.6131 H   0  0  0  0  0  0  0  0  0  0  0  0
  1  2  1  0
  2  3  2  0
  3  4  1  0
  4  5  2  0
  5  6  1  0
  6  7  1  0
  5  8  1  0
  8  9  1  0
  9 10  2  0
 10 11  1  0
 11 12  1  0
 11 13  2  0
 10 14  1  0
 14 15  2  0
 15 16  1  0
 16 17  2  0
 17 18  1  0
 18 19  2  0
 19 20  1  0
 20 21  2  0
 14 22  1  0
 22 23  1  0
 23  2  1  0
 23  8  2  0
 21 16  1  0
  1 24  1  0
  1 25  1  0
  1 26  1  0
  4 27  1  0
  6 28  1  0
  6 29  1  0
  7 30  1  0
  9 31  1  0
 12 32  1  0
 12 33  1  0
 17 34  1  0
 18 35  1  0
 19 36  1  0
 20 37  1  0
 21 38  1  0
M  END
$$$$
