
     RDKit          3D

 26 27  0  0  0  0  0  0  0  0999 V2000
    0.3281   -1.0991   -1.9306 O   0  0  0  0  0  0  0  0  0  0  0  0
    0.6065   -0.8878   -0.7560 C   0  0  0  0  0  0  0  0  0  0  0  0
   -0.3613   -1.3557    0.3064 C   0  0  0  0  0  0  0  0  0  0  0  0
    0.0299   -2.1748    1.1299 O   0  0  0  0  0  0  0  0  0  0  0  0
   -1.7386   -0.7970    0.3550 C   0  0  0  0  0  0  0  0  0  0  0  0
   -2.6026   -1.2465    1.3653 C   0  0  0  0  0  0  0  0  0  0  0  0
   -3.9020   -0.7406    1.4620 C   0  0  0  0  0  0  0  0  0  0  0  0
   -4.3410    0.2157    0.5495 C   0  0  0  0  0  0  0  0  0  0  0  0
   -5.9388    0.8405    0.6669 Cl  0  0  0  0  0  0  0  0  0  0  0  0
   -3.4920    0.6691   -0.4589 C   0  0  0  0  0  0  0  0  0  0  0  0
   -2.1902    0.1651   -0.5578 C   0  0  0  0  0  0  0  0  0  0  0  0
    1.8432   -0.1596   -0.3660 C   0  0  0  0  0  0  0  0  0  0  0  0
    2.1591    0.1199    0.9700 C   0  0  0  0  0  0  0  0  0  0  0  0
    3.3290    0.8215    1.2820 C   0  0  0  0  0  0  0  0  0  0  0  0
    4.1814    1.2449    0.2635 C   0  0  0  0  0  0  0  0  0  0  0  0
    5.6164    2.1084    0.6533 Cl  0  0  0  0  0  0  0  0  0  0  0  0
    3.8767    0.9721   -1.0680 C   0  0  0  0  0  0  0  0  0  0  0  0
    2.7092    0.2709   -1.3827 C   0  0  0  0  0  0  0  0  0  0  0  0
   -2.2699   -1.9960    2.0822 H   0  0  0  0  0  0  0  0  0  0  0  0
   -4.5628   -1.0982    2.2478 H   0  0  0  0  0  0  0  0  0  0  0  0
   -3.8377    1.4114   -1.1747 H   0  0  0  0  0  0  0  0  0  0  0  0
   -1.5577    0.5323   -1.3626 H   0  0  0  0  0  0  0  0  0  0  0  0
    1.5219   -0.2051    1.7891 H   0  0  0  0  0  0  0  0  0  0  0  0
    3.5708    1.0297    2.3218 H   0  0  0  0  0  0  0  0  0  0  0  0
    4.5409    1.2986   -1.8644 H   0  0  0  0  0  0  0  0  0  0  0  0
    2.4815    0.0603   -2.4269 H   0  0  0  0  0  0  0  0  0  0  0  0
  1  2  2  0
  2  3  1  0
  3  4  2  0
  3  5  1  0
  5  6  2  0
  6  7  1  0
  7  8  2  0
  8  9  1  0
  8 10  1  0
 10 11  2  0
  2 12  1  0
 12 13  2  0
 13 14  1  0
 14 15  2  0
 15 16  1  0
 15 17  1  0
 17 18  2  0
 11  5  1  0
 18 12  1  0
  6 19  1  0
  7 20  1  0
 10 21  1  0
 11 22  1  0
 13 23  1  0
 14 24  1  0
 17 25  1  0
 18 26  1  0
M  END
$$$$
