
     RDKit          3D

 49 51  0  0  0  0  0  0  0  0999 V2000
   -5.7779   -0.9339   -1.3121 C   0  0  0  0  0  0  0  0  0  0  0  0
   -4.9814   -1.7008   -0.2670 C   0  0  0  0  0  0  0  0  0  0  0  0
   -3.5741   -1.1776   -0.1328 C   0  0  0  0  0  0  0  0  0  0  0  0
   -2.4630   -1.7010   -0.7080 C   0  0  0  0  0  0  0  0  0  0  0  0
   -2.4960   -2.8833   -1.6457 C   0  0  0  0  0  0  0  0  0  0  0  0
   -1.2032   -1.1596   -0.4868 N   0  0  0  0  0  0  0  0  0  0  0  0
   -1.0144   -0.0714    0.2946 C   0  0  0  0  0  0  0  0  0  0  0  0
    0.0794    0.6806    0.6566 C   0  0  0  0  0  0  0  0  0  0  0  0
    1.4375    0.4209    0.2230 C   0  0  0  0  0  0  0  0  0  0  0  0
    2.1605    1.4099   -0.4461 C   0  0  0  0  0  0  0  0  0  0  0  0
    3.4666    1.1611   -0.8758 C   0  0  0  0  0  0  0  0  0  0  0  0
    4.0652   -0.0804   -0.6388 C   0  0  0  0  0  0  0  0  0  0  0  0
    5.3376   -0.4144   -1.0303 O   0  0  0  0  0  0  0  0  0  0  0  0
    6.1251    0.5979   -1.6400 C   0  0  0  0  0  0  0  0  0  0  0  0
    3.3434   -1.0804    0.0438 C   0  0  0  0  0  0  0  0  0  0  0  0
    3.9968   -2.2741    0.2328 O   0  0  0  0  0  0  0  0  0  0  0  0
    3.3726   -3.2429    1.0630 C   0  0  0  0  0  0  0  0  0  0  0  0
    2.0351   -0.8220    0.4704 C   0  0  0  0  0  0  0  0  0  0  0  0
   -0.4569    1.7101    1.4833 C   0  0  0  0  0  0  0  0  0  0  0  0
    0.2782    2.8299    2.1561 C   0  0  0  0  0  0  0  0  0  0  0  0
    0.5765    3.9258    1.2788 O   0  0  0  0  0  0  0  0  0  0  0  0
   -0.5744    4.7096    0.9872 C   0  0  0  0  0  0  0  0  0  0  0  0
   -1.7861    1.5892    1.6432 N   0  0  0  0  0  0  0  0  0  0  0  0
   -2.1135    0.4988    0.8982 N   0  0  0  0  0  0  0  0  0  0  0  0
   -3.4290    0.0265    0.7650 C   0  0  0  0  0  0  0  0  0  0  0  0
   -4.3642    0.5721    1.3390 O   0  0  0  0  0  0  0  0  0  0  0  0
   -6.7928   -1.3392   -1.3866 H   0  0  0  0  0  0  0  0  0  0  0  0
   -5.3114   -1.0081   -2.2997 H   0  0  0  0  0  0  0  0  0  0  0  0
   -5.8591    0.1272   -1.0554 H   0  0  0  0  0  0  0  0  0  0  0  0
   -4.9828   -2.7653   -0.5231 H   0  0  0  0  0  0  0  0  0  0  0  0
   -5.4960   -1.6442    0.6996 H   0  0  0  0  0  0  0  0  0  0  0  0
   -1.8248   -2.7145   -2.4958 H   0  0  0  0  0  0  0  0  0  0  0  0
   -2.1644   -3.7860   -1.1227 H   0  0  0  0  0  0  0  0  0  0  0  0
   -3.4859   -3.0691   -2.0693 H   0  0  0  0  0  0  0  0  0  0  0  0
   -0.4281   -1.5730   -1.0051 H   0  0  0  0  0  0  0  0  0  0  0  0
    1.7136    2.3814   -0.6521 H   0  0  0  0  0  0  0  0  0  0  0  0
    3.9854    1.9579   -1.3990 H   0  0  0  0  0  0  0  0  0  0  0  0
    5.6991    0.8997   -2.6023 H   0  0  0  0  0  0  0  0  0  0  0  0
    7.1174    0.1777   -1.8331 H   0  0  0  0  0  0  0  0  0  0  0  0
    6.2526    1.4575   -0.9738 H   0  0  0  0  0  0  0  0  0  0  0  0
    2.4536   -3.6206    0.6030 H   0  0  0  0  0  0  0  0  0  0  0  0
    4.0615   -4.0860    1.1683 H   0  0  0  0  0  0  0  0  0  0  0  0
    3.1805   -2.8452    2.0652 H   0  0  0  0  0  0  0  0  0  0  0  0
    1.4618   -1.5755    1.0013 H   0  0  0  0  0  0  0  0  0  0  0  0
   -0.2657    3.1953    3.0364 H   0  0  0  0  0  0  0  0  0  0  0  0
    1.2377    2.4515    2.5255 H   0  0  0  0  0  0  0  0  0  0  0  0
   -0.2532    5.5843    0.4145 H   0  0  0  0  0  0  0  0  0  0  0  0
   -1.0545    5.0575    1.9070 H   0  0  0  0  0  0  0  0  0  0  0  0
   -1.2850    4.1462    0.3764 H   0  0  0  0  0  0  0  0  0  0  0  0
  1  2  1  0
  2  3  1  0
  3  4  2  0
  4  5  1  0
  4  6  1  0
  6  7  1  0
  7  8  2  0
  8  9  1  0
  9 10  2  0
 10 11  1  0
 11 12  2  0
 12 13  1  0
 13 14  1  0
 12 15  1  0
 15 16  1  0
 16 17  1  0
 15 18  2  0
  8 19  1  0
 19 20  1  0
 20 21  1  0
 21 22  1  0
 19 23  2  0
 23 24  1  0
 24 25  1  0
 25 26  2  0
 25  3  1  0
 24  7  1  0
 18  9  1  0
  1 27  1  0
  1 28  1  0
  1 29  1  0
  2 30  1  0
  2 31  1  0
  5 32  1  0
  5 33  1  0
  5 34  1  0
  6 35  1  0
 10 36  1  0
 11 37  1  0
 14 38  1  0
 14 39  1  0
 14 40  1  0
 17 41  1  0
 17 42  1  0
 17 43  1  0
 18 44  1  0
 20 45  1  0
 20 46  1  0
 22 47  1  0
 22 48  1  0
 22 49  1  0
M  END
$$$$
