
     RDKit          3D

 61 63  0  0  0  0  0  0  0  0999 V2000
   -1.1037   -1.0432   -2.8524 C   0  0  0  0  0  0  0  0  0  0  0  0
   -0.9780   -0.1942   -1.5749 C   0  0  2  0  0  0  0  0  0  0  0  0
    0.2178   -0.6349   -0.8516 N   0  0  0  0  0  0  0  0  0  0  0  0
    1.3715    0.1343   -0.7926 C   0  0  0  0  0  0  0  0  0  0  0  0
    1.3842    1.2793   -1.2570 O   0  0  0  0  0  0  0  0  0  0  0  0
    2.5729   -0.4640    0.0120 C   0  0  0  0  0  0  0  0  0  0  0  0
    2.6843   -1.9763   -0.2062 C   0  0  0  0  0  0  0  0  0  0  0  0
    2.2827   -0.0906    1.4741 C   0  0  0  0  0  0  0  0  0  0  0  0
    3.7054    0.2135   -0.5626 O   0  0  0  0  0  0  0  0  0  0  0  0
    4.9600    0.0446   -0.0282 C   0  0  0  0  0  0  0  0  0  0  0  0
    6.0162    0.5587   -0.7651 C   0  0  0  0  0  0  0  0  0  0  0  0
    7.3101    0.4153   -0.2630 C   0  0  0  0  0  0  0  0  0  0  0  0
    7.5112   -0.2383    0.9579 C   0  0  0  0  0  0  0  0  0  0  0  0
    8.8739   -0.3952    1.5666 C   0  0  0  0  0  0  0  0  0  0  0  0
    9.2625    0.7079    2.2692 F   0  0  0  0  0  0  0  0  0  0  0  0
    8.9578   -1.4412    2.4397 F   0  0  0  0  0  0  0  0  0  0  0  0
    9.8484   -0.6117    0.6404 F   0  0  0  0  0  0  0  0  0  0  0  0
    6.3831   -0.6846    1.6339 C   0  0  0  0  0  0  0  0  0  0  0  0
    5.1194   -0.5706    1.1573 N   0  0  0  0  0  0  0  0  0  0  0  0
   -2.2631   -0.2808   -0.6906 C   0  0  1  0  0  0  0  0  0  0  0  0
   -2.0474    0.3341    0.7191 C   0  0  0  0  0  0  0  0  0  0  0  0
   -3.2416    0.1568    1.6378 C   0  0  0  0  0  0  0  0  0  0  0  0
   -3.5278   -1.0948    2.2060 C   0  0  0  0  0  0  0  0  0  0  0  0
   -4.6463   -1.2629    3.0267 C   0  0  0  0  0  0  0  0  0  0  0  0
   -5.4847   -0.1817    3.2823 C   0  0  0  0  0  0  0  0  0  0  0  0
   -6.8675   -0.3906    4.2853 Cl  0  0  0  0  0  0  0  0  0  0  0  0
   -5.2117    1.0686    2.7298 C   0  0  0  0  0  0  0  0  0  0  0  0
   -4.0909    1.2391    1.9127 C   0  0  0  0  0  0  0  0  0  0  0  0
   -3.4595    0.3570   -1.4025 C   0  0  0  0  0  0  0  0  0  0  0  0
   -4.5122   -0.4503   -1.8635 C   0  0  0  0  0  0  0  0  0  0  0  0
   -5.6195    0.1156   -2.5042 C   0  0  0  0  0  0  0  0  0  0  0  0
   -5.6909    1.4967   -2.6915 C   0  0  0  0  0  0  0  0  0  0  0  0
   -4.6506    2.3169   -2.2462 C   0  0  0  0  0  0  0  0  0  0  0  0
   -4.7336    3.7379   -2.4110 C   0  0  0  0  0  0  0  0  0  0  0  0
   -4.8053    4.8927   -2.5261 N   0  0  0  0  0  0  0  0  0  0  0  0
   -3.5385    1.7468   -1.6095 C   0  0  0  0  0  0  0  0  0  0  0  0
   -1.9298   -0.7021   -3.4814 H   0  0  0  0  0  0  0  0  0  0  0  0
   -1.2773   -2.1005   -2.6078 H   0  0  0  0  0  0  0  0  0  0  0  0
   -0.1895   -0.9732   -3.4515 H   0  0  0  0  0  0  0  0  0  0  0  0
   -0.8315    0.8436   -1.8976 H   0  0  0  0  0  0  0  0  0  0  0  0
    0.1993   -1.5547   -0.4319 H   0  0  0  0  0  0  0  0  0  0  0  0
    3.6087   -2.3876    0.2017 H   0  0  0  0  0  0  0  0  0  0  0  0
    1.8596   -2.5196    0.2614 H   0  0  0  0  0  0  0  0  0  0  0  0
    2.6778   -2.2108   -1.2790 H   0  0  0  0  0  0  0  0  0  0  0  0
    2.3569    0.9914    1.6214 H   0  0  0  0  0  0  0  0  0  0  0  0
    2.9766   -0.5573    2.1779 H   0  0  0  0  0  0  0  0  0  0  0  0
    1.2788   -0.4116    1.7785 H   0  0  0  0  0  0  0  0  0  0  0  0
    5.8327    1.0541   -1.7144 H   0  0  0  0  0  0  0  0  0  0  0  0
    8.1592    0.7897   -0.8365 H   0  0  0  0  0  0  0  0  0  0  0  0
    6.4551   -1.1933    2.5930 H   0  0  0  0  0  0  0  0  0  0  0  0
   -2.4856   -1.3512   -0.5446 H   0  0  0  0  0  0  0  0  0  0  0  0
   -1.1969   -0.1485    1.2163 H   0  0  0  0  0  0  0  0  0  0  0  0
   -1.7735    1.3980    0.6497 H   0  0  0  0  0  0  0  0  0  0  0  0
   -2.8818   -1.9482    2.0146 H   0  0  0  0  0  0  0  0  0  0  0  0
   -4.8529   -2.2365    3.4603 H   0  0  0  0  0  0  0  0  0  0  0  0
   -5.8642    1.9132    2.9302 H   0  0  0  0  0  0  0  0  0  0  0  0
   -3.8910    2.2202    1.4861 H   0  0  0  0  0  0  0  0  0  0  0  0
   -4.4818   -1.5291   -1.7144 H   0  0  0  0  0  0  0  0  0  0  0  0
   -6.4366   -0.5219   -2.8407 H   0  0  0  0  0  0  0  0  0  0  0  0
   -6.5640    1.9263   -3.1796 H   0  0  0  0  0  0  0  0  0  0  0  0
   -2.7373    2.3995   -1.2639 H   0  0  0  0  0  0  0  0  0  0  0  0
  1  2  1  0
  2  3  1  0
  3  4  1  0
  4  5  2  0
  4  6  1  0
  6  7  1  0
  6  8  1  0
  6  9  1  0
  9 10  1  0
 10 11  2  0
 11 12  1  0
 12 13  2  0
 13 14  1  0
 14 15  1  0
 14 16  1  0
 14 17  1  0
 13 18  1  0
 18 19  2  0
  2 20  1  0
 20 21  1  0
 21 22  1  0
 22 23  2  0
 23 24  1  0
 24 25  2  0
 25 26  1  0
 25 27  1  0
 27 28  2  0
 20 29  1  0
 29 30  2  0
 30 31  1  0
 31 32  2  0
 32 33  1  0
 33 34  1  0
 34 35  3  0
 33 36  2  0
 19 10  1  0
 28 22  1  0
 36 29  1  0
  1 37  1  0
  1 38  1  0
  1 39  1  0
  2 40  1  6
  3 41  1  0
  7 42  1  0
  7 43  1  0
  7 44  1  0
  8 45  1  0
  8 46  1  0
  8 47  1  0
 11 48  1  0
 12 49  1  0
 18 50  1  0
 20 51  1  1
 21 52  1  0
 21 53  1  0
 23 54  1  0
 24 55  1  0
 27 56  1  0
 28 57  1  0
 30 58  1  0
 31 59  1  0
 32 60  1  0
 36 61  1  0
M  END
$$$$
