
     RDKit          3D

 71 73  0  0  0  0  0  0  0  0999 V2000
   -6.6818   -0.6505   -4.3224 C   0  0  0  0  0  0  0  0  0  0  0  0
   -5.8864   -1.2938   -3.3350 O   0  0  0  0  0  0  0  0  0  0  0  0
   -5.3171   -0.4936   -2.3823 C   0  0  0  0  0  0  0  0  0  0  0  0
   -5.4575    0.8888   -2.2831 C   0  0  0  0  0  0  0  0  0  0  0  0
   -4.8083    1.5827   -1.2609 C   0  0  0  0  0  0  0  0  0  0  0  0
   -4.0234    0.8981   -0.3298 C   0  0  0  0  0  0  0  0  0  0  0  0
   -3.8873   -0.4917   -0.3973 C   0  0  0  0  0  0  0  0  0  0  0  0
   -3.0546   -1.2409    0.4808 N   0  0  0  0  0  0  0  0  0  0  0  0
   -2.4671   -0.7573    1.6920 C   0  0  0  0  0  0  0  0  0  0  0  0
   -3.0604   -1.0554    2.9298 C   0  0  0  0  0  0  0  0  0  0  0  0
   -4.2264   -1.9596    3.0317 C   0  0  0  0  0  0  0  0  0  0  0  0
   -5.1256   -1.7303    4.0372 N   0  0  0  0  0  0  0  0  0  0  0  0
   -4.3973   -2.8652    2.2231 O   0  0  0  0  0  0  0  0  0  0  0  0
   -2.4953   -0.5139    4.0673 C   0  0  0  0  0  0  0  0  0  0  0  0
   -1.4278    0.3155    4.0601 N   0  0  0  0  0  0  0  0  0  0  0  0
   -0.8482    0.6211    2.8845 C   0  0  0  0  0  0  0  0  0  0  0  0
    0.2631    1.4770    2.8715 C   0  0  0  0  0  0  0  0  0  0  0  0
    0.7934    2.0388    4.1664 C   0  0  0  0  0  0  0  0  0  0  0  0
    0.9087    1.8088    1.6697 C   0  0  0  0  0  0  0  0  0  0  0  0
    0.4480    1.2766    0.4714 C   0  0  0  0  0  0  0  0  0  0  0  0
    1.2493    1.7063   -1.0552 S   0  0  0  0  0  6  0  0  0  0  0  0
    0.2686    1.5824   -2.1180 O   0  0  0  0  0  0  0  0  0  0  0  0
    1.9370    2.9681   -0.8467 O   0  0  0  0  0  0  0  0  0  0  0  0
    2.4899    0.4638   -1.3264 C   0  0  0  0  0  0  0  0  0  0  0  0
    2.1649   -0.6948   -2.0410 C   0  0  0  0  0  0  0  0  0  0  0  0
    3.1379   -1.6744   -2.2461 C   0  0  0  0  0  0  0  0  0  0  0  0
    4.4315   -1.4867   -1.7548 C   0  0  0  0  0  0  0  0  0  0  0  0
    4.7564   -0.3048   -1.0761 C   0  0  0  0  0  0  0  0  0  0  0  0
    6.1081   -0.1046   -0.5109 C   0  0  0  0  0  0  0  0  0  0  0  0
    6.1766    0.1161    0.6959 O   0  0  0  0  0  0  0  0  0  0  0  0
    7.2176   -0.1899   -1.3474 N   0  0  0  0  0  0  0  0  0  0  0  0
    7.1742   -0.1613   -2.8042 C   0  0  0  0  0  0  0  0  0  0  0  0
    8.5402   -0.1228   -0.7493 C   0  0  0  0  0  0  0  0  0  0  0  0
    3.7845    0.6708   -0.8448 C   0  0  0  0  0  0  0  0  0  0  0  0
   -0.6621    0.4353    0.4580 C   0  0  0  0  0  0  0  0  0  0  0  0
   -1.3313    0.1004    1.6576 C   0  0  0  0  0  0  0  0  0  0  0  0
   -4.5276   -1.1702   -1.4457 C   0  0  0  0  0  0  0  0  0  0  0  0
    0.9798    1.2702   -0.7460 O   0  0  0  0  0  0  0  0  0  0  0  0
    0.5333    0.2567   -0.2220 C   0  0  0  0  0  0  0  0  0  0  0  0
    1.3982   -0.7356    0.1144 O   0  0  0  0  0  0  0  0  0  0  0  0
   -0.9250   -0.0255    0.1557 C   0  0  0  0  0  0  0  0  0  0  0  0
   -1.8079    0.7545   -0.5291 F   0  0  0  0  0  0  0  0  0  0  0  0
   -1.2919   -1.3163   -0.0860 F   0  0  0  0  0  0  0  0  0  0  0  0
   -1.1636    0.1981    1.4793 F   0  0  0  0  0  0  0  0  0  0  0  0
   -7.0534   -1.4200   -5.0064 H   0  0  0  0  0  0  0  0  0  0  0  0
   -7.5502   -0.1597   -3.8706 H   0  0  0  0  0  0  0  0  0  0  0  0
   -6.0872    0.0579   -4.9090 H   0  0  0  0  0  0  0  0  0  0  0  0
   -6.0556    1.4581   -2.9866 H   0  0  0  0  0  0  0  0  0  0  0  0
   -4.9067    2.6633   -1.1928 H   0  0  0  0  0  0  0  0  0  0  0  0
   -3.5297    1.4741    0.4461 H   0  0  0  0  0  0  0  0  0  0  0  0
   -3.5253   -2.1400    0.6669 H   0  0  0  0  0  0  0  0  0  0  0  0
   -5.1873   -0.8388    4.5104 H   0  0  0  0  0  0  0  0  0  0  0  0
   -5.9790   -2.2757    3.9909 H   0  0  0  0  0  0  0  0  0  0  0  0
   -2.8760   -0.7382    5.0593 H   0  0  0  0  0  0  0  0  0  0  0  0
   -0.0015    2.5580    4.7132 H   0  0  0  0  0  0  0  0  0  0  0  0
    1.1994    1.2330    4.7877 H   0  0  0  0  0  0  0  0  0  0  0  0
    1.5954    2.7642    3.9908 H   0  0  0  0  0  0  0  0  0  0  0  0
    1.7681    2.4773    1.6792 H   0  0  0  0  0  0  0  0  0  0  0  0
    1.1600   -0.8461   -2.4320 H   0  0  0  0  0  0  0  0  0  0  0  0
    2.8863   -2.5865   -2.7829 H   0  0  0  0  0  0  0  0  0  0  0  0
    5.1803   -2.2627   -1.8932 H   0  0  0  0  0  0  0  0  0  0  0  0
    7.5335   -1.1239   -3.1795 H   0  0  0  0  0  0  0  0  0  0  0  0
    7.8316    0.6373   -3.1620 H   0  0  0  0  0  0  0  0  0  0  0  0
    6.1729    0.0323   -3.1927 H   0  0  0  0  0  0  0  0  0  0  0  0
    8.5085   -0.2926    0.3307 H   0  0  0  0  0  0  0  0  0  0  0  0
    9.1772   -0.8870   -1.2056 H   0  0  0  0  0  0  0  0  0  0  0  0
    8.9602    0.8691   -0.9402 H   0  0  0  0  0  0  0  0  0  0  0  0
    4.0442    1.5723   -0.2931 H   0  0  0  0  0  0  0  0  0  0  0  0
   -1.0173    0.0329   -0.4902 H   0  0  0  0  0  0  0  0  0  0  0  0
   -4.4129   -2.2474   -1.5417 H   0  0  0  0  0  0  0  0  0  0  0  0
    2.2770   -0.4021   -0.1664 H   0  0  0  0  0  0  0  0  0  0  0  0
  1  2  1  0
  2  3  1  0
  3  4  2  0
  4  5  1  0
  5  6  2  0
  6  7  1  0
  7  8  1  0
  8  9  1  0
  9 10  2  0
 10 11  1  0
 11 12  1  0
 11 13  2  0
 10 14  1  0
 14 15  2  0
 15 16  1  0
 16 17  2  0
 17 18  1  0
 17 19  1  0
 19 20  2  0
 20 21  1  0
 21 22  2  0
 21 23  2  0
 21 24  1  0
 24 25  2  0
 25 26  1  0
 26 27  2  0
 27 28  1  0
 28 29  1  0
 29 30  2  0
 29 31  1  0
 31 32  1  0
 31 33  1  0
 28 34  2  0
 20 35  1  0
 35 36  2  0
  7 37  2  0
 38 39  2  0
 39 40  1  0
 39 41  1  0
 41 42  1  0
 41 43  1  0
 41 44  1  0
 37  3  1  0
 36  9  1  0
 36 16  1  0
 34 24  1  0
  1 45  1  0
  1 46  1  0
  1 47  1  0
  4 48  1  0
  5 49  1  0
  6 50  1  0
  8 51  1  0
 12 52  1  0
 12 53  1  0
 14 54  1  0
 18 55  1  0
 18 56  1  0
 18 57  1  0
 19 58  1  0
 25 59  1  0
 26 60  1  0
 27 61  1  0
 32 62  1  0
 32 63  1  0
 32 64  1  0
 33 65  1  0
 33 66  1  0
 33 67  1  0
 34 68  1  0
 35 69  1  0
 37 70  1  0
 40 71  1  0
M  END
$$$$
