
     RDKit          3D

 41 41  0  0  0  0  0  0  0  0999 V2000
   -4.5481    0.0558   -0.2115 C   0  0  0  0  0  0  0  0  0  0  0  0
   -4.5196   -1.1256    0.7605 C   0  0  0  0  0  0  0  0  0  0  0  0
   -5.8791   -1.8317    0.7520 C   0  0  0  0  0  0  0  0  0  0  0  0
   -3.4942   -2.1160    0.4219 N   0  0  0  0  0  0  0  0  0  0  0  0
   -2.1053   -1.6291    0.3989 C   0  0  0  0  0  0  0  0  0  0  0  0
   -1.5784   -1.0610    1.7361 C   0  0  0  0  0  0  0  0  0  0  0  0
   -1.7668   -2.0186    2.7849 O   0  0  0  0  0  0  0  0  0  0  0  0
   -0.0881   -0.7069    1.6475 C   0  0  0  0  0  0  0  0  0  0  0  0
    0.1014    0.2824    0.6368 O   0  0  0  0  0  0  0  0  0  0  0  0
    1.3782    0.7208    0.4218 C   0  0  0  0  0  0  0  0  0  0  0  0
    1.5007    1.6847   -0.5828 C   0  0  0  0  0  0  0  0  0  0  0  0
    2.7474    2.2261   -0.9040 C   0  0  0  0  0  0  0  0  0  0  0  0
    3.8965    1.8069   -0.2228 C   0  0  0  0  0  0  0  0  0  0  0  0
    5.2454    2.3840   -0.5807 C   0  0  0  0  0  0  0  0  0  0  0  0
    5.7080    1.9929   -1.9713 C   0  0  0  0  0  0  0  0  0  0  0  0
    5.8871    0.6535   -2.1846 N   0  0  0  0  0  0  0  0  0  0  0  0
    5.9426    2.8060   -2.8615 O   0  0  0  0  0  0  0  0  0  0  0  0
    3.7718    0.8363    0.7817 C   0  0  0  0  0  0  0  0  0  0  0  0
    2.5198    0.2971    1.1019 C   0  0  0  0  0  0  0  0  0  0  0  0
   -4.6578   -0.2805   -1.2485 H   0  0  0  0  0  0  0  0  0  0  0  0
   -5.3892    0.7199    0.0134 H   0  0  0  0  0  0  0  0  0  0  0  0
   -3.6357    0.6583   -0.1419 H   0  0  0  0  0  0  0  0  0  0  0  0
   -4.3557   -0.7466    1.7755 H   0  0  0  0  0  0  0  0  0  0  0  0
   -5.8981   -2.6622    1.4656 H   0  0  0  0  0  0  0  0  0  0  0  0
   -6.6770   -1.1374    1.0353 H   0  0  0  0  0  0  0  0  0  0  0  0
   -6.1188   -2.2308   -0.2394 H   0  0  0  0  0  0  0  0  0  0  0  0
   -3.5618   -2.9338    1.0264 H   0  0  0  0  0  0  0  0  0  0  0  0
   -1.9790   -0.9003   -0.4086 H   0  0  0  0  0  0  0  0  0  0  0  0
   -1.4872   -2.4936    0.1215 H   0  0  0  0  0  0  0  0  0  0  0  0
   -2.1355   -0.1533    1.9991 H   0  0  0  0  0  0  0  0  0  0  0  0
   -2.7275   -2.1534    2.8557 H   0  0  0  0  0  0  0  0  0  0  0  0
    0.2386   -0.3211    2.6205 H   0  0  0  0  0  0  0  0  0  0  0  0
    0.4903   -1.6106    1.4208 H   0  0  0  0  0  0  0  0  0  0  0  0
    0.6155    2.0240   -1.1172 H   0  0  0  0  0  0  0  0  0  0  0  0
    2.8136    2.9784   -1.6880 H   0  0  0  0  0  0  0  0  0  0  0  0
    6.0131    2.0691    0.1369 H   0  0  0  0  0  0  0  0  0  0  0  0
    5.1930    3.4781   -0.5223 H   0  0  0  0  0  0  0  0  0  0  0  0
    6.0741    0.3977   -3.1460 H   0  0  0  0  0  0  0  0  0  0  0  0
    5.3454   -0.0098   -1.6420 H   0  0  0  0  0  0  0  0  0  0  0  0
    4.6476    0.4939    1.3309 H   0  0  0  0  0  0  0  0  0  0  0  0
    2.4728   -0.4439    1.8928 H   0  0  0  0  0  0  0  0  0  0  0  0
  1  2  1  0
  2  3  1  0
  2  4  1  0
  4  5  1  0
  5  6  1  0
  6  7  1  0
  6  8  1  0
  8  9  1  0
  9 10  1  0
 10 11  2  0
 11 12  1  0
 12 13  2  0
 13 14  1  0
 14 15  1  0
 15 16  1  0
 15 17  2  0
 13 18  1  0
 18 19  2  0
 19 10  1  0
  1 20  1  0
  1 21  1  0
  1 22  1  0
  2 23  1  0
  3 24  1  0
  3 25  1  0
  3 26  1  0
  4 27  1  0
  5 28  1  0
  5 29  1  0
  6 30  1  0
  7 31  1  0
  8 32  1  0
  8 33  1  0
 11 34  1  0
 12 35  1  0
 14 36  1  0
 14 37  1  0
 16 38  1  0
 16 39  1  0
 18 40  1  0
 19 41  1  0
M  END
$$$$
