
     RDKit          3D

 60 64  0  0  0  0  0  0  0  0999 V2000
   -4.0642   -3.4744   -0.6441 C   0  0  0  0  0  0  0  0  0  0  0  0
   -3.6899   -2.9001    0.7134 C   0  0  0  0  0  0  0  0  0  0  0  0
   -2.1868   -2.6611    0.8854 C   0  0  0  0  0  0  0  0  0  0  0  0
   -1.5817   -1.6309   -0.0694 C   0  0  0  0  0  0  0  0  0  0  0  0
   -2.0868   -0.2330    0.1950 C   0  0  0  0  0  0  0  0  0  0  0  0
   -3.0842    0.2500   -0.4829 N   0  0  0  0  0  0  0  0  0  0  0  0
   -3.3037    1.6109    0.0712 C   0  0  0  0  0  0  0  0  0  0  0  0
   -3.1619    2.6670   -1.0277 C   0  0  0  0  0  0  0  0  0  0  0  0
   -4.5848    3.1484   -1.2887 C   0  0  0  0  0  0  0  0  0  0  0  0
   -5.2470    3.0506    0.0754 C   0  0  0  0  0  0  0  0  0  0  0  0
   -4.7238    1.7309    0.6314 C   0  0  0  0  0  0  0  0  0  0  0  0
   -2.2420    1.7434    1.1462 C   0  0  0  0  0  0  0  0  0  0  0  0
   -2.0442    2.7131    1.8621 O   0  0  0  0  0  0  0  0  0  0  0  0
   -1.5542    0.5636    1.1381 N   0  0  0  0  0  0  0  0  0  0  0  0
   -0.4310    0.3158    2.0281 C   0  0  0  0  0  0  0  0  0  0  0  0
    0.9167    0.3805    1.3405 C   0  0  0  0  0  0  0  0  0  0  0  0
    1.2059    1.3328    0.3517 C   0  0  0  0  0  0  0  0  0  0  0  0
    2.4609    1.3621   -0.2651 C   0  0  0  0  0  0  0  0  0  0  0  0
    3.4658    0.4525    0.1036 C   0  0  0  0  0  0  0  0  0  0  0  0
    4.7782    0.4573   -0.5663 C   0  0  0  0  0  0  0  0  0  0  0  0
    5.6221    1.5729   -0.3676 C   0  0  0  0  0  0  0  0  0  0  0  0
    6.9022    1.6247   -0.9206 C   0  0  0  0  0  0  0  0  0  0  0  0
    7.3699    0.5593   -1.6824 C   0  0  0  0  0  0  0  0  0  0  0  0
    6.5518   -0.5517   -1.8984 C   0  0  0  0  0  0  0  0  0  0  0  0
    5.2503   -0.6186   -1.3616 C   0  0  0  0  0  0  0  0  0  0  0  0
    4.4641   -1.8181   -1.6663 C   0  0  0  0  0  0  0  0  0  0  0  0
    4.9198   -3.0425   -1.8796 N   0  0  0  0  0  0  0  0  0  0  0  0
    3.8249   -3.8325   -2.1422 N   0  0  0  0  0  0  0  0  0  0  0  0
    2.7085   -3.1181   -2.1163 N   0  0  0  0  0  0  0  0  0  0  0  0
    3.1039   -1.8667   -1.8347 N   0  0  0  0  0  0  0  0  0  0  0  0
    3.1892   -0.4651    1.1287 C   0  0  0  0  0  0  0  0  0  0  0  0
    1.9319   -0.5015    1.7380 C   0  0  0  0  0  0  0  0  0  0  0  0
   -3.4913   -4.3845   -0.8543 H   0  0  0  0  0  0  0  0  0  0  0  0
   -3.8837   -2.7551   -1.4487 H   0  0  0  0  0  0  0  0  0  0  0  0
   -5.1288   -3.7335   -0.6638 H   0  0  0  0  0  0  0  0  0  0  0  0
   -4.0142   -3.6081    1.4865 H   0  0  0  0  0  0  0  0  0  0  0  0
   -4.2465   -1.9735    0.8866 H   0  0  0  0  0  0  0  0  0  0  0  0
   -1.6603   -3.6143    0.7481 H   0  0  0  0  0  0  0  0  0  0  0  0
   -2.0088   -2.3561    1.9233 H   0  0  0  0  0  0  0  0  0  0  0  0
   -1.7887   -1.8924   -1.1134 H   0  0  0  0  0  0  0  0  0  0  0  0
   -0.4922   -1.6465    0.0403 H   0  0  0  0  0  0  0  0  0  0  0  0
   -2.5510    3.5126   -0.6868 H   0  0  0  0  0  0  0  0  0  0  0  0
   -2.7036    2.2799   -1.9454 H   0  0  0  0  0  0  0  0  0  0  0  0
   -4.6107    4.1649   -1.6938 H   0  0  0  0  0  0  0  0  0  0  0  0
   -5.0839    2.4804   -2.0031 H   0  0  0  0  0  0  0  0  0  0  0  0
   -6.3379    3.0703    0.0113 H   0  0  0  0  0  0  0  0  0  0  0  0
   -4.9261    3.8816    0.7149 H   0  0  0  0  0  0  0  0  0  0  0  0
   -4.7619    1.7260    1.7273 H   0  0  0  0  0  0  0  0  0  0  0  0
   -5.3577    0.9084    0.2746 H   0  0  0  0  0  0  0  0  0  0  0  0
   -0.4379    1.0431    2.8485 H   0  0  0  0  0  0  0  0  0  0  0  0
   -0.5706   -0.6790    2.4629 H   0  0  0  0  0  0  0  0  0  0  0  0
    0.4610    2.0634    0.0485 H   0  0  0  0  0  0  0  0  0  0  0  0
    2.6487    2.1037   -1.0399 H   0  0  0  0  0  0  0  0  0  0  0  0
    5.2870    2.4085    0.2473 H   0  0  0  0  0  0  0  0  0  0  0  0
    7.5397    2.4900   -0.7396 H   0  0  0  0  0  0  0  0  0  0  0  0
    8.3712    0.5877   -2.1059 H   0  0  0  0  0  0  0  0  0  0  0  0
    6.9372   -1.3785   -2.4975 H   0  0  0  0  0  0  0  0  0  0  0  0
    2.4168   -1.1245   -1.7728 H   0  0  0  0  0  0  0  0  0  0  0  0
    3.9574   -1.1666    1.4609 H   0  0  0  0  0  0  0  0  0  0  0  0
    1.7569   -1.2295    2.5293 H   0  0  0  0  0  0  0  0  0  0  0  0
  1  2  1  0
  2  3  1  0
  3  4  1  0
  4  5  1  0
  5  6  2  0
  6  7  1  0
  7  8  1  0
  8  9  1  0
  9 10  1  0
 10 11  1  0
  7 12  1  0
 12 13  2  0
 12 14  1  0
 14 15  1  0
 15 16  1  0
 16 17  2  0
 17 18  1  0
 18 19  2  0
 19 20  1  0
 20 21  2  0
 21 22  1  0
 22 23  2  0
 23 24  1  0
 24 25  2  0
 25 26  1  0
 26 27  2  0
 27 28  1  0
 28 29  2  0
 29 30  1  0
 19 31  1  0
 31 32  2  0
 14  5  1  0
 32 16  1  0
 11  7  1  0
 25 20  1  0
 30 26  1  0
  1 33  1  0
  1 34  1  0
  1 35  1  0
  2 36  1  0
  2 37  1  0
  3 38  1  0
  3 39  1  0
  4 40  1  0
  4 41  1  0
  8 42  1  0
  8 43  1  0
  9 44  1  0
  9 45  1  0
 10 46  1  0
 10 47  1  0
 11 48  1  0
 11 49  1  0
 15 50  1  0
 15 51  1  0
 17 52  1  0
 18 53  1  0
 21 54  1  0
 22 55  1  0
 23 56  1  0
 24 57  1  0
 30 58  1  0
 31 59  1  0
 32 60  1  0
M  END
$$$$
