
     RDKit          3D

 18 18  0  0  0  0  0  0  0  0999 V2000
    3.3454    0.0993   -1.0457 O   0  0  0  0  0  0  0  0  0  0  0  0
    2.4935   -0.6734   -0.6480 C   0  0  0  0  0  0  0  0  0  0  0  0
    2.7522   -1.9843   -0.5032 O   0  0  0  0  0  0  0  0  0  0  0  0
    1.1039   -0.3155   -0.2776 C   0  0  0  0  0  0  0  0  0  0  0  0
    0.7208    1.0320   -0.3763 C   0  0  0  0  0  0  0  0  0  0  0  0
   -0.5780    1.3996   -0.0473 C   0  0  0  0  0  0  0  0  0  0  0  0
   -0.9570    2.7013   -0.1995 O   0  0  0  0  0  0  0  0  0  0  0  0
   -1.4840    0.4508    0.4100 C   0  0  0  0  0  0  0  0  0  0  0  0
   -2.7401    0.8077    0.8164 O   0  0  0  0  0  0  0  0  0  0  0  0
   -1.1074   -0.8845    0.4931 C   0  0  0  0  0  0  0  0  0  0  0  0
   -1.9988   -1.8218    0.9288 O   0  0  0  0  0  0  0  0  0  0  0  0
    0.1801   -1.2803    0.1522 C   0  0  0  0  0  0  0  0  0  0  0  0
    3.6891   -2.0736   -0.7766 H   0  0  0  0  0  0  0  0  0  0  0  0
    1.4269    1.7840   -0.7210 H   0  0  0  0  0  0  0  0  0  0  0  0
   -1.8096    2.6874   -0.6726 H   0  0  0  0  0  0  0  0  0  0  0  0
   -2.6668    1.7286    1.1331 H   0  0  0  0  0  0  0  0  0  0  0  0
   -2.8250   -1.3287    1.1032 H   0  0  0  0  0  0  0  0  0  0  0  0
    0.4550   -2.3284    0.2310 H   0  0  0  0  0  0  0  0  0  0  0  0
  1  2  2  0
  2  3  1  0
  2  4  1  0
  4  5  2  0
  5  6  1  0
  6  7  1  0
  6  8  2  0
  8  9  1  0
  8 10  1  0
 10 11  1  0
 10 12  2  0
 12  4  1  0
  3 13  1  0
  5 14  1  0
  7 15  1  0
  9 16  1  0
 11 17  1  0
 12 18  1  0
M  END
$$$$
