
     RDKit          3D

 55 59  0  0  0  0  0  0  0  0999 V2000
   -0.9835   -3.6923    0.1271 O   0  0  0  0  0  0  0  0  0  0  0  0
   -0.6771   -2.5423   -0.2013 C   0  0  0  0  0  0  0  0  0  0  0  0
    0.7565   -2.2243   -0.4356 C   0  0  0  0  0  0  0  0  0  0  0  0
    1.8348   -3.1630   -0.2153 C   0  0  0  0  0  0  0  0  0  0  0  0
    2.9657   -2.4795   -0.5517 C   0  0  0  0  0  0  0  0  0  0  0  0
    2.5549   -1.2491   -0.9147 N   0  0  0  0  0  0  0  0  0  0  0  0
    1.2451   -1.0454   -0.8988 N   0  0  0  0  0  0  0  0  0  0  0  0
    3.6068   -0.3535   -1.3558 C   0  0  0  0  0  0  0  0  0  0  0  0
    4.8765   -1.1161   -0.9037 C   0  0  1  0  0  0  0  0  0  0  0  0
    5.3543   -0.6068    0.3525 O   0  0  0  0  0  0  0  0  0  0  0  0
    6.1511    0.5026    0.3513 C   0  0  0  0  0  0  0  0  0  0  0  0
    6.6248    0.8738    1.6066 C   0  0  0  0  0  0  0  0  0  0  0  0
    7.4387    1.9879    1.7063 C   0  0  0  0  0  0  0  0  0  0  0  0
    7.8034    2.7422    0.6495 N   0  0  0  0  0  0  0  0  0  0  0  0
    7.3278    2.3648   -0.5545 C   0  0  0  0  0  0  0  0  0  0  0  0
    6.5051    1.2658   -0.7546 C   0  0  0  0  0  0  0  0  0  0  0  0
    4.4293   -2.6005   -0.6693 C   0  0  0  0  0  0  0  0  0  0  0  0
   -1.6701   -1.5556   -0.3372 N   0  0  0  0  0  0  0  0  0  0  0  0
   -3.0643   -1.9410   -0.1665 C   0  0  0  0  0  0  0  0  0  0  0  0
   -3.8288   -0.9709    0.7336 C   0  0  0  0  0  0  0  0  0  0  0  0
   -3.4702    0.5102    0.4796 C   0  0  0  0  0  0  0  0  0  0  0  0
   -4.5840    1.4640    0.5689 N   0  0  0  0  0  0  0  0  0  0  0  0
   -5.6236    1.3568   -0.4513 C   0  0  0  0  0  0  0  0  0  0  0  0
   -6.7914    2.1561    0.1201 C   0  0  0  0  0  0  0  0  0  0  0  0
   -6.4375    2.4101    1.5797 C   0  0  0  0  0  0  0  0  0  0  0  0
   -5.2726    1.4776    1.8571 C   0  0  0  0  0  0  0  0  0  0  0  0
   -2.6868    0.6756   -0.8302 C   0  0  0  0  0  0  0  0  0  0  0  0
   -1.4232   -0.1862   -0.7892 C   0  0  0  0  0  0  0  0  0  0  0  0
    1.7415   -4.1823    0.1336 H   0  0  0  0  0  0  0  0  0  0  0  0
    3.4640    0.6173   -0.8757 H   0  0  0  0  0  0  0  0  0  0  0  0
    3.5328   -0.2889   -2.4444 H   0  0  0  0  0  0  0  0  0  0  0  0
    5.6799   -1.1002   -1.6493 H   0  0  0  0  0  0  0  0  0  0  0  0
    6.3655    0.3027    2.4904 H   0  0  0  0  0  0  0  0  0  0  0  0
    7.8310    2.3112    2.6657 H   0  0  0  0  0  0  0  0  0  0  0  0
    7.6343    2.9927   -1.3864 H   0  0  0  0  0  0  0  0  0  0  0  0
    6.1726    1.0485   -1.7600 H   0  0  0  0  0  0  0  0  0  0  0  0
    4.8811   -3.0335    0.2280 H   0  0  0  0  0  0  0  0  0  0  0  0
    4.6783   -3.2136   -1.5424 H   0  0  0  0  0  0  0  0  0  0  0  0
   -3.5146   -1.9644   -1.1669 H   0  0  0  0  0  0  0  0  0  0  0  0
   -3.1602   -2.9538    0.2386 H   0  0  0  0  0  0  0  0  0  0  0  0
   -3.6072   -1.2007    1.7844 H   0  0  0  0  0  0  0  0  0  0  0  0
   -4.8984   -1.1701    0.6080 H   0  0  0  0  0  0  0  0  0  0  0  0
   -2.7709    0.7996    1.2783 H   0  0  0  0  0  0  0  0  0  0  0  0
   -5.2997    1.7748   -1.4094 H   0  0  0  0  0  0  0  0  0  0  0  0
   -5.9441    0.3236   -0.6215 H   0  0  0  0  0  0  0  0  0  0  0  0
   -7.7236    1.5870    0.0378 H   0  0  0  0  0  0  0  0  0  0  0  0
   -6.9289    3.1052   -0.4094 H   0  0  0  0  0  0  0  0  0  0  0  0
   -6.1288    3.4548    1.7083 H   0  0  0  0  0  0  0  0  0  0  0  0
   -7.2849    2.2257    2.2471 H   0  0  0  0  0  0  0  0  0  0  0  0
   -4.6386    1.8602    2.6627 H   0  0  0  0  0  0  0  0  0  0  0  0
   -5.6480    0.4882    2.1420 H   0  0  0  0  0  0  0  0  0  0  0  0
   -2.4015    1.7235   -0.9867 H   0  0  0  0  0  0  0  0  0  0  0  0
   -3.3034    0.3807   -1.6891 H   0  0  0  0  0  0  0  0  0  0  0  0
   -0.7064    0.2721   -0.0988 H   0  0  0  0  0  0  0  0  0  0  0  0
   -0.9835   -0.2214   -1.7918 H   0  0  0  0  0  0  0  0  0  0  0  0
  1  2  2  0
  2  3  1  0
  3  4  1  0
  4  5  2  0
  5  6  1  0
  6  7  1  0
  6  8  1  0
  8  9  1  0
  9 10  1  0
 10 11  1  0
 11 12  2  0
 12 13  1  0
 13 14  2  0
 14 15  1  0
 15 16  2  0
  9 17  1  0
  2 18  1  0
 18 19  1  0
 19 20  1  0
 20 21  1  0
 21 22  1  0
 22 23  1  0
 23 24  1  0
 24 25  1  0
 25 26  1  0
 21 27  1  0
 27 28  1  0
  7  3  2  0
 16 11  1  0
 28 18  1  0
 17  5  1  0
 26 22  1  0
  4 29  1  0
  8 30  1  0
  8 31  1  0
  9 32  1  6
 12 33  1  0
 13 34  1  0
 15 35  1  0
 16 36  1  0
 17 37  1  0
 17 38  1  0
 19 39  1  0
 19 40  1  0
 20 41  1  0
 20 42  1  0
 21 43  1  0
 23 44  1  0
 23 45  1  0
 24 46  1  0
 24 47  1  0
 25 48  1  0
 25 49  1  0
 26 50  1  0
 26 51  1  0
 27 52  1  0
 27 53  1  0
 28 54  1  0
 28 55  1  0
M  END
$$$$
