
     RDKit          3D

 37 38  0  0  0  0  0  0  0  0999 V2000
   -2.5391    2.4251    1.6265 C   0  0  0  0  0  0  0  0  0  0  0  0
   -2.7285    1.4786    0.4392 C   0  0  0  0  0  0  0  0  0  0  0  0
   -4.1937    1.3613    0.0412 C   0  0  0  0  0  0  0  0  0  0  0  0
   -4.9631    0.5374    1.0357 C   0  0  0  0  0  0  0  0  0  0  0  0
   -6.1564    0.7189    1.2615 O   0  0  0  0  0  0  0  0  0  0  0  0
   -4.2554   -0.4800    1.6244 N   0  0  0  0  0  0  0  0  0  0  0  0
   -2.9535   -0.7924    1.3799 N   0  0  0  0  0  0  0  0  0  0  0  0
   -2.2041    0.0914    0.7874 C   0  0  0  0  0  0  0  0  0  0  0  0
   -0.7810   -0.2702    0.4751 C   0  0  0  0  0  0  0  0  0  0  0  0
    0.1790    0.6810    0.1280 C   0  0  0  0  0  0  0  0  0  0  0  0
    1.4999    0.2971   -0.1583 C   0  0  0  0  0  0  0  0  0  0  0  0
    1.9249   -1.0390   -0.0833 C   0  0  0  0  0  0  0  0  0  0  0  0
    3.2204   -1.4183   -0.4585 N   0  0  0  0  0  0  0  0  0  0  0  0
    4.3361   -0.4712   -0.4608 C   0  0  0  0  0  0  0  0  0  0  0  0
    4.5833    0.0955   -1.8612 C   0  0  0  0  0  0  0  0  0  0  0  0
    5.6184    1.0729   -1.8136 O   0  0  0  0  0  0  0  0  0  0  0  0
    0.9260   -1.9865    0.2400 C   0  0  0  0  0  0  0  0  0  0  0  0
    1.2422   -3.4147    0.2996 N   0  0  0  0  0  4  0  0  0  0  0  0
    0.3576   -4.2121   -0.0443 O   0  0  0  0  0  0  0  0  0  0  0  0
    2.3686   -3.7420    0.7066 O   0  0  0  0  0  1  0  0  0  0  0  0
   -0.4013   -1.6141    0.5272 C   0  0  0  0  0  0  0  0  0  0  0  0
   -2.9139    3.4258    1.3877 H   0  0  0  0  0  0  0  0  0  0  0  0
   -1.4814    2.5185    1.8933 H   0  0  0  0  0  0  0  0  0  0  0  0
   -3.0643    2.0709    2.5201 H   0  0  0  0  0  0  0  0  0  0  0  0
   -2.1885    1.8808   -0.4244 H   0  0  0  0  0  0  0  0  0  0  0  0
   -4.6552    2.3515   -0.0397 H   0  0  0  0  0  0  0  0  0  0  0  0
   -4.2847    0.8621   -0.9315 H   0  0  0  0  0  0  0  0  0  0  0  0
   -4.7760   -1.1228    2.2138 H   0  0  0  0  0  0  0  0  0  0  0  0
   -0.0581    1.7397    0.0705 H   0  0  0  0  0  0  0  0  0  0  0  0
    2.1915    1.0865   -0.4441 H   0  0  0  0  0  0  0  0  0  0  0  0
    3.4937   -2.3160   -0.0385 H   0  0  0  0  0  0  0  0  0  0  0  0
    4.2127    0.3265    0.2823 H   0  0  0  0  0  0  0  0  0  0  0  0
    5.2430   -1.0043   -0.1465 H   0  0  0  0  0  0  0  0  0  0  0  0
    4.8861   -0.7029   -2.5470 H   0  0  0  0  0  0  0  0  0  0  0  0
    3.6831    0.5700   -2.2645 H   0  0  0  0  0  0  0  0  0  0  0  0
    5.7678    1.3711   -2.7280 H   0  0  0  0  0  0  0  0  0  0  0  0
   -1.1365   -2.3760    0.7847 H   0  0  0  0  0  0  0  0  0  0  0  0
  1  2  1  0
  2  3  1  0
  3  4  1  0
  4  5  2  0
  4  6  1  0
  6  7  1  0
  7  8  2  0
  8  9  1  0
  9 10  2  0
 10 11  1  0
 11 12  2  0
 12 13  1  0
 13 14  1  0
 14 15  1  0
 15 16  1  0
 12 17  1  0
 17 18  1  0
 18 19  2  0
 18 20  1  0
 17 21  2  0
  8  2  1  0
 21  9  1  0
  1 22  1  0
  1 23  1  0
  1 24  1  0
  2 25  1  0
  3 26  1  0
  3 27  1  0
  6 28  1  0
 10 29  1  0
 11 30  1  0
 13 31  1  0
 14 32  1  0
 14 33  1  0
 15 34  1  0
 15 35  1  0
 16 36  1  0
 21 37  1  0
M  CHG  2  18   1  20  -1
M  END
$$$$
