
     RDKit          3D

 67 69  0  0  0  0  0  0  0  0999 V2000
    4.7220    0.9954    3.1507 C   0  0  0  0  0  0  0  0  0  0  0  0
    3.7688    1.5965    2.1383 C   0  0  0  0  0  0  0  0  0  0  0  0
    2.4558    0.9462    2.1209 C   0  0  0  0  0  0  0  0  0  0  0  0
    1.4089    1.3368    2.8911 N   0  0  0  0  0  0  0  0  0  0  0  0
    0.3946    0.5316    2.6130 N   0  0  0  0  0  0  0  0  0  0  0  0
   -0.8929    0.6897    3.2580 C   0  0  0  0  0  0  0  0  0  0  0  0
   -1.7064    1.6783    2.4871 C   0  0  0  0  0  0  0  0  0  0  0  0
   -1.9084    1.2158    1.0680 C   0  0  0  0  0  0  0  0  0  0  0  0
   -2.6894    2.1103    0.2681 N   0  0  0  0  0  0  0  0  0  0  0  0
   -4.0681    2.2181    0.6119 C   0  0  0  0  0  0  0  0  0  0  0  0
   -4.9491    1.1638    0.0251 C   0  0  0  0  0  0  0  0  0  0  0  0
   -4.3079    0.2539   -0.8697 N   0  0  0  0  0  0  0  0  0  0  0  0
   -5.0603   -0.8983   -1.2923 C   0  0  0  0  0  0  0  0  0  0  0  0
   -4.5132   -1.8644   -2.1018 C   0  0  0  0  0  0  0  0  0  0  0  0
   -5.2755   -2.9579   -2.4897 C   0  0  0  0  0  0  0  0  0  0  0  0
   -6.5672   -3.1282   -2.1013 C   0  0  0  0  0  0  0  0  0  0  0  0
   -7.1197   -2.1638   -1.2908 C   0  0  0  0  0  0  0  0  0  0  0  0
   -8.7957   -2.3059   -0.7386 Cl  0  0  0  0  0  0  0  0  0  0  0  0
   -6.3849   -1.0700   -0.8924 C   0  0  0  0  0  0  0  0  0  0  0  0
   -2.9722    0.4028   -1.3811 C   0  0  0  0  0  0  0  0  0  0  0  0
   -2.5023    1.8385   -1.1312 C   0  0  0  0  0  0  0  0  0  0  0  0
    0.7864   -0.3599    1.6808 C   0  0  0  0  0  0  0  0  0  0  0  0
    0.0636   -1.2723    1.1926 O   0  0  0  0  0  0  0  0  0  0  0  0
    2.0700   -0.1008    1.3747 N   0  0  0  0  0  0  0  0  0  0  0  0
    2.9237   -0.7922    0.4247 C   0  0  0  0  0  0  0  0  0  0  0  0
    2.8354   -0.2051   -0.9469 C   0  0  0  0  0  0  0  0  0  0  0  0
    3.6048   -0.7749   -1.9281 O   0  0  0  0  0  0  0  0  0  0  0  0
    4.9246   -0.9242   -2.1323 C   0  0  0  0  0  0  0  0  0  0  0  0
    5.3223   -1.6074   -3.2877 C   0  0  0  0  0  0  0  0  0  0  0  0
    6.6354   -1.8242   -3.6117 C   0  0  0  0  0  0  0  0  0  0  0  0
    7.5906   -1.3355   -2.7406 C   0  0  0  0  0  0  0  0  0  0  0  0
    7.2244   -0.6657   -1.6075 C   0  0  0  0  0  0  0  0  0  0  0  0
    5.9024   -0.4579   -1.2998 C   0  0  0  0  0  0  0  0  0  0  0  0
    0.6846    0.0000    0.0000 Cl  0  0  0  0  0  0  0  0  0  0  0  0
    4.6763    1.5677    4.1037 H   0  0  0  0  0  0  0  0  0  0  0  0
    4.5477   -0.0810    3.3000 H   0  0  0  0  0  0  0  0  0  0  0  0
    5.7596    1.1075    2.7709 H   0  0  0  0  0  0  0  0  0  0  0  0
    3.6845    2.6874    2.4133 H   0  0  0  0  0  0  0  0  0  0  0  0
    4.2653    1.6012    1.1325 H   0  0  0  0  0  0  0  0  0  0  0  0
   -0.7588    1.1065    4.2969 H   0  0  0  0  0  0  0  0  0  0  0  0
   -1.4073   -0.2748    3.3921 H   0  0  0  0  0  0  0  0  0  0  0  0
   -1.1799    2.6707    2.4107 H   0  0  0  0  0  0  0  0  0  0  0  0
   -2.6755    1.9160    2.9741 H   0  0  0  0  0  0  0  0  0  0  0  0
   -2.2816    0.1834    1.1043 H   0  0  0  0  0  0  0  0  0  0  0  0
   -0.8947    1.1760    0.5778 H   0  0  0  0  0  0  0  0  0  0  0  0
   -4.1823    2.3049    1.7001 H   0  0  0  0  0  0  0  0  0  0  0  0
   -4.4200    3.2119    0.1965 H   0  0  0  0  0  0  0  0  0  0  0  0
   -5.8454    1.5696   -0.4857 H   0  0  0  0  0  0  0  0  0  0  0  0
   -5.3352    0.5483    0.8846 H   0  0  0  0  0  0  0  0  0  0  0  0
   -3.4734   -1.7675   -2.4386 H   0  0  0  0  0  0  0  0  0  0  0  0
   -4.8470   -3.7297   -3.1335 H   0  0  0  0  0  0  0  0  0  0  0  0
   -7.1993   -3.9722   -2.3839 H   0  0  0  0  0  0  0  0  0  0  0  0
   -6.8120   -0.2945   -0.2474 H   0  0  0  0  0  0  0  0  0  0  0  0
   -2.2304   -0.2577   -0.8887 H   0  0  0  0  0  0  0  0  0  0  0  0
   -2.8964    0.1749   -2.4810 H   0  0  0  0  0  0  0  0  0  0  0  0
   -3.0363    2.5595   -1.7557 H   0  0  0  0  0  0  0  0  0  0  0  0
   -1.4020    1.8651   -1.3210 H   0  0  0  0  0  0  0  0  0  0  0  0
    2.4891   -1.8384    0.3288 H   0  0  0  0  0  0  0  0  0  0  0  0
    3.9394   -0.9506    0.7716 H   0  0  0  0  0  0  0  0  0  0  0  0
    1.7619   -0.2336   -1.3198 H   0  0  0  0  0  0  0  0  0  0  0  0
    3.0454    0.9053   -0.9393 H   0  0  0  0  0  0  0  0  0  0  0  0
    4.5760   -1.9894   -3.9689 H   0  0  0  0  0  0  0  0  0  0  0  0
    6.9556   -2.3512   -4.5020 H   0  0  0  0  0  0  0  0  0  0  0  0
    8.6328   -1.5030   -2.9896 H   0  0  0  0  0  0  0  0  0  0  0  0
    7.9844   -0.2866   -0.9312 H   0  0  0  0  0  0  0  0  0  0  0  0
    5.6392    0.1052   -0.3734 H   0  0  0  0  0  0  0  0  0  0  0  0
   -0.6846    0.0000    0.0000 H   0  0  0  0  0  0  0  0  0  0  0  0
  1  2  1  0
  2  3  1  0
  3  4  2  0
  4  5  1  0
  5  6  1  0
  6  7  1  0
  7  8  1  0
  8  9  1  0
  9 10  1  0
 10 11  1  0
 11 12  1  0
 12 13  1  0
 13 14  2  0
 14 15  1  0
 15 16  2  0
 16 17  1  0
 17 18  1  0
 17 19  2  0
 12 20  1  0
 20 21  1  0
  5 22  1  0
 22 23  2  0
 22 24  1  0
 24 25  1  0
 25 26  1  0
 26 27  1  0
 27 28  1  0
 28 29  2  0
 29 30  1  0
 30 31  2  0
 31 32  1  0
 32 33  2  0
 24  3  1  0
 33 28  1  0
 21  9  1  0
 19 13  1  0
  1 35  1  0
  1 36  1  0
  1 37  1  0
  2 38  1  0
  2 39  1  0
  6 40  1  0
  6 41  1  0
  7 42  1  0
  7 43  1  0
  8 44  1  0
  8 45  1  0
 10 46  1  0
 10 47  1  0
 11 48  1  0
 11 49  1  0
 14 50  1  0
 15 51  1  0
 16 52  1  0
 19 53  1  0
 20 54  1  0
 20 55  1  0
 21 56  1  0
 21 57  1  0
 25 58  1  0
 25 59  1  0
 26 60  1  0
 26 61  1  0
 29 62  1  0
 30 63  1  0
 31 64  1  0
 32 65  1  0
 33 66  1  0
 34 67  1  0
M  END
$$$$
