
     RDKit          3D

 60 63  0  0  0  0  0  0  0  0999 V2000
    5.6261    4.8634   -0.3655 C   0  0  0  0  0  0  0  0  0  0  0  0
    5.6335    3.6168   -1.0493 O   0  0  0  0  0  0  0  0  0  0  0  0
    6.3782    2.6279   -0.3280 C   0  0  0  0  0  0  0  0  0  0  0  0
    6.2833    1.2950   -1.0731 C   0  0  0  0  0  0  0  0  0  0  0  0
    4.9319    0.7700   -1.0868 N   0  0  0  0  0  0  0  0  0  0  0  0
    4.3759    0.1643    0.0171 C   0  0  0  0  0  0  0  0  0  0  0  0
    5.0145   -0.1160    1.0277 O   0  0  0  0  0  0  0  0  0  0  0  0
    2.9500   -0.0939   -0.1107 C   0  0  0  0  0  0  0  0  0  0  0  0
    2.1071   -0.6388    0.8360 C   0  0  0  0  0  0  0  0  0  0  0  0
    0.8910   -0.6640    0.2231 N   0  0  0  0  0  0  0  0  0  0  0  0
   -0.3735   -1.0746    0.7870 C   0  0  0  0  0  0  0  0  0  0  0  0
   -0.8927   -2.4776    0.4024 C   0  0  2  0  0  0  0  0  0  0  0  0
    0.1535   -3.5923    0.5085 C   0  0  0  0  0  0  0  0  0  0  0  0
    0.7518   -3.6854   -0.8925 C   0  0  0  0  0  0  0  0  0  0  0  0
   -0.3943   -3.2927   -1.8144 C   0  0  0  0  0  0  0  0  0  0  0  0
   -1.3561   -2.5929   -0.9783 N   0  0  0  0  0  0  0  0  0  0  0  0
   -2.5785   -2.2282   -1.5154 C   0  0  0  0  0  0  0  0  0  0  0  0
   -2.8142   -2.2916   -2.7196 O   0  0  0  0  0  0  0  0  0  0  0  0
   -3.6958   -1.8152   -0.5712 C   0  0  0  0  0  0  0  0  0  0  0  0
   -3.7396   -0.3463   -0.1406 C   0  0  0  0  0  0  0  0  0  0  0  0
   -3.7592    0.0547    1.2082 C   0  0  0  0  0  0  0  0  0  0  0  0
   -3.7889    1.4067    1.5777 C   0  0  0  0  0  0  0  0  0  0  0  0
   -3.7997    2.3997    0.6019 C   0  0  0  0  0  0  0  0  0  0  0  0
   -3.8269    3.7478    0.8224 O   0  0  0  0  0  0  0  0  0  0  0  0
   -3.7703    4.1813    2.1746 C   0  0  0  0  0  0  0  0  0  0  0  0
   -3.7902    2.0256   -0.7406 C   0  0  0  0  0  0  0  0  0  0  0  0
   -3.7635    0.6761   -1.1044 C   0  0  0  0  0  0  0  0  0  0  0  0
   -5.0756   -2.4215   -0.8872 C   0  0  0  0  0  0  0  0  0  0  0  0
   -4.3187   -2.9075    0.3016 C   0  0  0  0  0  0  0  0  0  0  0  0
    0.9557   -0.1426   -1.0134 N   0  0  0  0  0  0  0  0  0  0  0  0
    2.2178    0.1979   -1.2382 N   0  0  0  0  0  0  0  0  0  0  0  0
    5.1428    4.7609    0.6114 H   0  0  0  0  0  0  0  0  0  0  0  0
    6.6462    5.2407   -0.2437 H   0  0  0  0  0  0  0  0  0  0  0  0
    5.0568    5.5820   -0.9624 H   0  0  0  0  0  0  0  0  0  0  0  0
    7.4265    2.9428   -0.2735 H   0  0  0  0  0  0  0  0  0  0  0  0
    5.9797    2.5345    0.6887 H   0  0  0  0  0  0  0  0  0  0  0  0
    6.5789    1.4209   -2.1198 H   0  0  0  0  0  0  0  0  0  0  0  0
    6.9416    0.5562   -0.6033 H   0  0  0  0  0  0  0  0  0  0  0  0
    4.2854    1.1326   -1.7813 H   0  0  0  0  0  0  0  0  0  0  0  0
    2.2789   -0.9863    1.8439 H   0  0  0  0  0  0  0  0  0  0  0  0
   -0.2569   -1.0305    1.8773 H   0  0  0  0  0  0  0  0  0  0  0  0
   -1.0899   -0.2980    0.5129 H   0  0  0  0  0  0  0  0  0  0  0  0
   -1.7288   -2.7024    1.0721 H   0  0  0  0  0  0  0  0  0  0  0  0
    0.9036   -3.4250    1.2866 H   0  0  0  0  0  0  0  0  0  0  0  0
   -0.3511   -4.5399    0.7374 H   0  0  0  0  0  0  0  0  0  0  0  0
    1.1335   -4.6866   -1.1151 H   0  0  0  0  0  0  0  0  0  0  0  0
    1.5894   -2.9917   -1.0086 H   0  0  0  0  0  0  0  0  0  0  0  0
   -0.8829   -4.1769   -2.2391 H   0  0  0  0  0  0  0  0  0  0  0  0
   -0.0683   -2.6460   -2.6352 H   0  0  0  0  0  0  0  0  0  0  0  0
   -3.7468   -0.6933    1.9973 H   0  0  0  0  0  0  0  0  0  0  0  0
   -3.8051    1.6472    2.6358 H   0  0  0  0  0  0  0  0  0  0  0  0
   -2.8438    3.8510    2.6564 H   0  0  0  0  0  0  0  0  0  0  0  0
   -4.6482    3.8433    2.7365 H   0  0  0  0  0  0  0  0  0  0  0  0
   -3.7746    5.2754    2.1762 H   0  0  0  0  0  0  0  0  0  0  0  0
   -3.8025    2.7889   -1.5161 H   0  0  0  0  0  0  0  0  0  0  0  0
   -3.7555    0.4176   -2.1637 H   0  0  0  0  0  0  0  0  0  0  0  0
   -5.1597   -3.0780   -1.7477 H   0  0  0  0  0  0  0  0  0  0  0  0
   -5.9596   -1.8148   -0.7206 H   0  0  0  0  0  0  0  0  0  0  0  0
   -3.8993   -3.9074    0.2483 H   0  0  0  0  0  0  0  0  0  0  0  0
   -4.7231   -2.6635    1.2758 H   0  0  0  0  0  0  0  0  0  0  0  0
  1  2  1  0
  2  3  1  0
  3  4  1  0
  4  5  1  0
  5  6  1  0
  6  7  2  0
  6  8  1  0
  8  9  2  0
  9 10  1  0
 10 11  1  0
 11 12  1  0
 12 13  1  0
 13 14  1  0
 14 15  1  0
 15 16  1  0
 16 17  1  0
 17 18  2  0
 17 19  1  0
 19 20  1  0
 20 21  2  0
 21 22  1  0
 22 23  2  0
 23 24  1  0
 24 25  1  0
 23 26  1  0
 26 27  2  0
 19 28  1  0
 28 29  1  0
 10 30  1  0
 30 31  2  0
 31  8  1  0
 16 12  1  0
 29 19  1  0
 27 20  1  0
  1 32  1  0
  1 33  1  0
  1 34  1  0
  3 35  1  0
  3 36  1  0
  4 37  1  0
  4 38  1  0
  5 39  1  0
  9 40  1  0
 11 41  1  0
 11 42  1  0
 12 43  1  1
 13 44  1  0
 13 45  1  0
 14 46  1  0
 14 47  1  0
 15 48  1  0
 15 49  1  0
 21 50  1  0
 22 51  1  0
 25 52  1  0
 25 53  1  0
 25 54  1  0
 26 55  1  0
 27 56  1  0
 28 57  1  0
 28 58  1  0
 29 59  1  0
 29 60  1  0
M  END
$$$$
