
     RDKit          3D

 25 26  0  0  0  0  0  0  0  0999 V2000
    0.7881   -2.2730    0.1015 C   0  0  0  0  0  0  0  0  0  0  0  0
   -0.1819   -1.2428    0.6181 C   0  0  0  0  0  0  0  0  0  0  0  0
   -1.0521   -1.7078    1.5860 N   0  0  0  0  0  0  0  0  0  0  0  0
   -2.0241   -0.9587    2.2065 C   0  0  0  0  0  0  0  0  0  0  0  0
   -2.7574   -1.4487    3.0576 O   0  0  0  0  0  0  0  0  0  0  0  0
   -2.1215    0.4611    1.7805 C   0  0  0  0  0  0  0  0  0  0  0  0
   -3.0963    1.3068    2.3685 C   0  0  0  0  0  0  0  0  0  0  0  0
   -3.8722    2.0478    2.8119 N   0  0  0  0  0  0  0  0  0  0  0  0
   -1.2723    0.9067    0.8390 C   0  0  0  0  0  0  0  0  0  0  0  0
   -0.2639    0.0493    0.2244 C   0  0  0  0  0  0  0  0  0  0  0  0
    0.6434    0.5896   -0.8048 C   0  0  0  0  0  0  0  0  0  0  0  0
    1.8586    1.1707   -0.4394 C   0  0  0  0  0  0  0  0  0  0  0  0
    2.6696    1.6746   -1.4418 C   0  0  0  0  0  0  0  0  0  0  0  0
    2.3502    1.6396   -2.7531 N   0  0  0  0  0  0  0  0  0  0  0  0
    1.1658    1.0800   -3.0797 C   0  0  0  0  0  0  0  0  0  0  0  0
    0.2852    0.5486   -2.1531 C   0  0  0  0  0  0  0  0  0  0  0  0
    1.4025   -2.6558    0.9238 H   0  0  0  0  0  0  0  0  0  0  0  0
    1.4691   -1.8900   -0.6627 H   0  0  0  0  0  0  0  0  0  0  0  0
    0.2426   -3.1144   -0.3395 H   0  0  0  0  0  0  0  0  0  0  0  0
   -1.0002   -2.6744    1.8892 H   0  0  0  0  0  0  0  0  0  0  0  0
   -1.3140    1.9407    0.5020 H   0  0  0  0  0  0  0  0  0  0  0  0
    2.1719    1.2308    0.5973 H   0  0  0  0  0  0  0  0  0  0  0  0
    3.6264    2.1347   -1.2109 H   0  0  0  0  0  0  0  0  0  0  0  0
    0.9356    1.0708   -4.1414 H   0  0  0  0  0  0  0  0  0  0  0  0
   -0.6532    0.1138   -2.4797 H   0  0  0  0  0  0  0  0  0  0  0  0
  1  2  1  0
  2  3  1  0
  3  4  1  0
  4  5  2  0
  4  6  1  0
  6  7  1  0
  7  8  3  0
  6  9  2  0
  9 10  1  0
 10 11  1  0
 11 12  2  0
 12 13  1  0
 13 14  2  0
 14 15  1  0
 15 16  2  0
 10  2  2  0
 16 11  1  0
  1 17  1  0
  1 18  1  0
  1 19  1  0
  3 20  1  0
  9 21  1  0
 12 22  1  0
 13 23  1  0
 15 24  1  0
 16 25  1  0
M  END
$$$$
