
     RDKit          3D

 50 53  0  0  0  0  0  0  0  0999 V2000
   -2.1630    4.6674   -0.4860 C   0  0  0  0  0  0  0  0  0  0  0  0
   -2.7387    3.3706   -0.4052 O   0  0  0  0  0  0  0  0  0  0  0  0
   -2.1557    2.3823   -1.1534 C   0  0  0  0  0  0  0  0  0  0  0  0
   -1.1458    2.5776   -2.0978 C   0  0  0  0  0  0  0  0  0  0  0  0
   -0.6187    1.4791   -2.7866 C   0  0  0  0  0  0  0  0  0  0  0  0
    0.4349    1.7155   -3.7924 C   0  0  0  0  0  0  0  0  0  0  0  0
    1.5595    1.0768   -3.9482 N   0  0  0  0  0  0  0  0  0  0  0  0
    1.9627    0.2188   -2.9529 N   0  0  0  0  0  0  0  0  0  0  0  0
    2.2431    0.7111   -1.6746 C   0  0  0  0  0  0  0  0  0  0  0  0
    2.0324    1.8582   -1.2878 O   0  0  0  0  0  0  0  0  0  0  0  0
    2.9005   -0.2569   -0.7525 C   0  0  0  0  0  0  0  0  0  0  0  0
    2.7078   -1.6525   -0.8800 C   0  0  0  0  0  0  0  0  0  0  0  0
    3.3420   -2.5402   -0.0027 C   0  0  0  0  0  0  0  0  0  0  0  0
    4.1438   -2.0054    0.9825 C   0  0  0  0  0  0  0  0  0  0  0  0
    4.3158   -0.6476    1.1212 C   0  0  0  0  0  0  0  0  0  0  0  0
    3.7074    0.2540    0.2757 C   0  0  0  0  0  0  0  0  0  0  0  0
    5.1288   -0.3327    2.1631 O   0  0  0  0  0  0  0  0  0  0  0  0
    5.4543   -1.6472    2.6641 C   0  0  0  0  0  0  0  0  0  0  0  0
    4.8361   -2.7141    1.9138 O   0  0  0  0  0  0  0  0  0  0  0  0
   -1.1189    0.1909   -2.5860 C   0  0  0  0  0  0  0  0  0  0  0  0
   -2.1393   -0.0075   -1.6615 C   0  0  0  0  0  0  0  0  0  0  0  0
   -2.6328    1.0790   -0.9369 C   0  0  0  0  0  0  0  0  0  0  0  0
   -3.6516    0.8337   -0.0496 O   0  0  0  0  0  0  0  0  0  0  0  0
   -3.1508    0.7452    1.2934 C   0  0  0  0  0  0  0  0  0  0  0  0
   -2.9707   -0.7034    1.6861 C   0  0  0  0  0  0  0  0  0  0  0  0
   -1.7301   -1.1797    2.1295 C   0  0  0  0  0  0  0  0  0  0  0  0
   -1.5746   -2.5219    2.4833 C   0  0  0  0  0  0  0  0  0  0  0  0
   -2.6533   -3.3998    2.3951 C   0  0  0  0  0  0  0  0  0  0  0  0
   -3.8899   -2.9388    1.9471 C   0  0  0  0  0  0  0  0  0  0  0  0
   -4.0492   -1.5969    1.5987 C   0  0  0  0  0  0  0  0  0  0  0  0
   -2.7006    5.3194    0.2123 H   0  0  0  0  0  0  0  0  0  0  0  0
   -2.2824    5.0896   -1.4866 H   0  0  0  0  0  0  0  0  0  0  0  0
   -1.1107    4.6510   -0.1852 H   0  0  0  0  0  0  0  0  0  0  0  0
   -0.7338    3.5607   -2.2975 H   0  0  0  0  0  0  0  0  0  0  0  0
    0.2124    2.5138   -4.5221 H   0  0  0  0  0  0  0  0  0  0  0  0
    2.6307   -0.4676   -3.2868 H   0  0  0  0  0  0  0  0  0  0  0  0
    2.0440   -2.0569   -1.6410 H   0  0  0  0  0  0  0  0  0  0  0  0
    3.2021   -3.6138   -0.0868 H   0  0  0  0  0  0  0  0  0  0  0  0
    3.8513    1.3221    0.4032 H   0  0  0  0  0  0  0  0  0  0  0  0
    6.5429   -1.7767    2.6277 H   0  0  0  0  0  0  0  0  0  0  0  0
    5.1252   -1.7185    3.7082 H   0  0  0  0  0  0  0  0  0  0  0  0
   -0.7307   -0.6485   -3.1558 H   0  0  0  0  0  0  0  0  0  0  0  0
   -2.5500   -0.9991   -1.4994 H   0  0  0  0  0  0  0  0  0  0  0  0
   -3.9020    1.1958    1.9535 H   0  0  0  0  0  0  0  0  0  0  0  0
   -2.2230    1.3163    1.4411 H   0  0  0  0  0  0  0  0  0  0  0  0
   -0.8776   -0.5113    2.1917 H   0  0  0  0  0  0  0  0  0  0  0  0
   -0.6083   -2.8833    2.8279 H   0  0  0  0  0  0  0  0  0  0  0  0
   -2.5285   -4.4412    2.6743 H   0  0  0  0  0  0  0  0  0  0  0  0
   -4.7312   -3.6211    1.8622 H   0  0  0  0  0  0  0  0  0  0  0  0
   -5.0160   -1.2460    1.2433 H   0  0  0  0  0  0  0  0  0  0  0  0
  1  2  1  0
  2  3  1  0
  3  4  2  0
  4  5  1  0
  5  6  1  0
  6  7  2  0
  7  8  1  0
  8  9  1  0
  9 10  2  0
  9 11  1  0
 11 12  2  0
 12 13  1  0
 13 14  2  0
 14 15  1  0
 15 16  2  0
 15 17  1  0
 17 18  1  0
 18 19  1  0
  5 20  2  0
 20 21  1  0
 21 22  2  0
 22 23  1  0
 23 24  1  0
 24 25  1  0
 25 26  2  0
 26 27  1  0
 27 28  2  0
 28 29  1  0
 29 30  2  0
 22  3  1  0
 30 25  1  0
 16 11  1  0
 19 14  1  0
  1 31  1  0
  1 32  1  0
  1 33  1  0
  4 34  1  0
  6 35  1  0
  8 36  1  0
 12 37  1  0
 13 38  1  0
 16 39  1  0
 18 40  1  0
 18 41  1  0
 20 42  1  0
 21 43  1  0
 24 44  1  0
 24 45  1  0
 26 46  1  0
 27 47  1  0
 28 48  1  0
 29 49  1  0
 30 50  1  0
M  END
$$$$
