
     RDKit          3D

 39 38  0  0  0  0  0  0  0  0999 V2000
    6.0709   -0.6020   -0.4351 C   0  0  0  0  0  0  0  0  0  0  0  0
    4.8726    0.2324   -0.4713 C   0  0  0  0  0  0  0  0  0  0  0  0
    5.0401    1.6304   -0.3345 C   0  0  0  0  0  0  0  0  0  0  0  0
    3.8580    2.3536   -0.3223 C   0  0  0  0  0  0  0  0  0  0  0  0
    2.6221    1.8171   -0.4054 C   0  0  0  0  0  0  0  0  0  0  0  0
    2.4224    0.3923   -0.5300 C   0  0  0  0  0  0  0  0  0  0  0  0
    1.2522   -0.1261   -0.5653 O   0  0  0  0  0  0  0  0  0  0  0  0
    0.0532   -0.6215   -0.5988 C   0  0  0  0  0  0  0  0  0  0  0  0
   -0.9212   -0.3224    0.5610 C   0  0  0  0  0  0  0  0  0  0  0  0
   -0.6852   -1.2848    1.5294 O   0  0  0  0  0  0  0  0  0  0  0  0
   -2.2706   -0.1234    0.1452 C   0  0  0  0  0  0  0  0  0  0  0  0
   -2.9941   -1.0850   -0.6302 N   0  0  0  0  0  0  0  0  0  0  0  0
   -4.4030   -0.6816   -0.5611 C   0  0  0  0  0  0  0  0  0  0  0  0
   -4.9159   -0.8237    0.8869 C   0  0  0  0  0  0  0  0  0  0  0  0
   -4.4913    0.8352   -0.7964 C   0  0  0  0  0  0  0  0  0  0  0  0
    3.6354   -0.3493   -0.5712 C   0  0  0  0  0  0  0  0  0  0  0  0
    0.6917    0.0000    0.0000 Cl  0  0  0  0  0  0  0  0  0  0  0  0
    6.7643   -0.3846   -1.2861 H   0  0  0  0  0  0  0  0  0  0  0  0
    6.6424   -0.4745    0.4946 H   0  0  0  0  0  0  0  0  0  0  0  0
    5.7976   -1.6944   -0.5967 H   0  0  0  0  0  0  0  0  0  0  0  0
    6.0033    2.0327   -0.2388 H   0  0  0  0  0  0  0  0  0  0  0  0
    4.0215    3.4291   -0.3045 H   0  0  0  0  0  0  0  0  0  0  0  0
    1.7636    2.4863   -0.3555 H   0  0  0  0  0  0  0  0  0  0  0  0
   -0.4930   -0.5033   -1.6074 H   0  0  0  0  0  0  0  0  0  0  0  0
    0.1201   -1.7979   -0.5374 H   0  0  0  0  0  0  0  0  0  0  0  0
   -0.5445    0.6142    1.0503 H   0  0  0  0  0  0  0  0  0  0  0  0
   -1.0112   -2.2138    1.3326 H   0  0  0  0  0  0  0  0  0  0  0  0
   -2.3027    0.8441   -0.4646 H   0  0  0  0  0  0  0  0  0  0  0  0
   -2.9036    0.1706    1.0557 H   0  0  0  0  0  0  0  0  0  0  0  0
   -2.9091   -2.0997   -0.3605 H   0  0  0  0  0  0  0  0  0  0  0  0
   -5.0455   -1.1586   -1.2853 H   0  0  0  0  0  0  0  0  0  0  0  0
   -5.0185    0.1234    1.4052 H   0  0  0  0  0  0  0  0  0  0  0  0
   -4.1594   -1.5143    1.3647 H   0  0  0  0  0  0  0  0  0  0  0  0
   -5.8954   -1.3211    0.8570 H   0  0  0  0  0  0  0  0  0  0  0  0
   -3.8429    1.1688   -1.6044 H   0  0  0  0  0  0  0  0  0  0  0  0
   -5.5248    1.1219   -0.9972 H   0  0  0  0  0  0  0  0  0  0  0  0
   -4.1672    1.3767    0.1369 H   0  0  0  0  0  0  0  0  0  0  0  0
    3.5596   -1.4469   -0.5741 H   0  0  0  0  0  0  0  0  0  0  0  0
   -0.6917    0.0000    0.0000 H   0  0  0  0  0  0  0  0  0  0  0  0
  1  2  1  0
  2  3  2  0
  3  4  1  0
  4  5  2  0
  5  6  1  0
  6  7  1  0
  7  8  1  0
  8  9  1  0
  9 10  1  0
  9 11  1  0
 11 12  1  0
 12 13  1  0
 13 14  1  0
 13 15  1  0
  6 16  2  0
 16  2  1  0
  1 18  1  0
  1 19  1  0
  1 20  1  0
  3 21  1  0
  4 22  1  0
  5 23  1  0
  8 24  1  0
  8 25  1  0
  9 26  1  0
 10 27  1  0
 11 28  1  0
 11 29  1  0
 12 30  1  0
 13 31  1  0
 14 32  1  0
 14 33  1  0
 14 34  1  0
 15 35  1  0
 15 36  1  0
 15 37  1  0
 16 38  1  0
 17 39  1  0
M  END
$$$$
