
     RDKit          3D

 35 35  0  0  0  0  0  0  0  0999 V2000
   -3.6495    0.9702   -0.0989 C   0  0  0  0  0  0  0  0  0  0  0  0
   -2.6049   -0.0708   -0.4894 C   0  0  0  0  0  0  0  0  0  0  0  0
   -1.6062   -0.4570    0.6318 C   0  0  0  0  0  0  0  0  0  0  0  0
   -2.3842   -1.0939    1.8114 C   0  0  0  0  0  0  0  0  0  0  0  0
   -0.6425   -1.5402    0.1208 C   0  0  0  0  0  0  0  0  0  0  0  0
   -0.8495    0.7831    1.1693 C   0  0  0  0  0  0  0  0  0  0  0  0
   -1.0066    1.1575    2.3425 O   0  0  0  0  0  0  0  0  0  0  0  0
   -0.0415    1.5478    0.3631 N   0  0  0  0  0  0  0  0  0  0  0  0
    0.5293    2.6706    1.0335 O   0  0  0  0  0  0  0  0  0  0  0  0
    0.6542    1.2780   -0.8938 C   0  0  0  0  0  0  0  0  0  0  0  0
    1.9241    0.4571   -0.7802 C   0  0  0  0  0  0  0  0  0  0  0  0
    2.3693   -0.2586   -1.9057 C   0  0  0  0  0  0  0  0  0  0  0  0
    3.5427   -1.0140   -1.8582 C   0  0  0  0  0  0  0  0  0  0  0  0
    4.2971   -1.0552   -0.6891 C   0  0  0  0  0  0  0  0  0  0  0  0
    3.8822   -0.3359    0.4286 C   0  0  0  0  0  0  0  0  0  0  0  0
    2.7084    0.4203    0.3817 C   0  0  0  0  0  0  0  0  0  0  0  0
   -4.3129    0.6027    0.6888 H   0  0  0  0  0  0  0  0  0  0  0  0
   -3.1849    1.9004    0.2409 H   0  0  0  0  0  0  0  0  0  0  0  0
   -4.2747    1.2097   -0.9657 H   0  0  0  0  0  0  0  0  0  0  0  0
   -2.0731    0.3095   -1.3662 H   0  0  0  0  0  0  0  0  0  0  0  0
   -3.1322   -0.9718   -0.8298 H   0  0  0  0  0  0  0  0  0  0  0  0
   -2.9981   -1.9371    1.4748 H   0  0  0  0  0  0  0  0  0  0  0  0
   -1.6948   -1.4690    2.5778 H   0  0  0  0  0  0  0  0  0  0  0  0
   -3.0481   -0.3766    2.3057 H   0  0  0  0  0  0  0  0  0  0  0  0
   -1.1414   -2.5145    0.0536 H   0  0  0  0  0  0  0  0  0  0  0  0
    0.2184   -1.6542    0.7886 H   0  0  0  0  0  0  0  0  0  0  0  0
   -0.2706   -1.3259   -0.8829 H   0  0  0  0  0  0  0  0  0  0  0  0
    0.1496    2.5758    1.9361 H   0  0  0  0  0  0  0  0  0  0  0  0
    0.9023    2.2424   -1.3533 H   0  0  0  0  0  0  0  0  0  0  0  0
   -0.0396    0.7661   -1.5619 H   0  0  0  0  0  0  0  0  0  0  0  0
    1.8001   -0.2344   -2.8330 H   0  0  0  0  0  0  0  0  0  0  0  0
    3.8701   -1.5665   -2.7351 H   0  0  0  0  0  0  0  0  0  0  0  0
    5.2119   -1.6405   -0.6505 H   0  0  0  0  0  0  0  0  0  0  0  0
    4.4753   -0.3569    1.3395 H   0  0  0  0  0  0  0  0  0  0  0  0
    2.4201    0.9816    1.2674 H   0  0  0  0  0  0  0  0  0  0  0  0
  1  2  1  0
  2  3  1  0
  3  4  1  0
  3  5  1  0
  3  6  1  0
  6  7  2  0
  6  8  1  0
  8  9  1  0
  8 10  1  0
 10 11  1  0
 11 12  2  0
 12 13  1  0
 13 14  2  0
 14 15  1  0
 15 16  2  0
 16 11  1  0
  1 17  1  0
  1 18  1  0
  1 19  1  0
  2 20  1  0
  2 21  1  0
  4 22  1  0
  4 23  1  0
  4 24  1  0
  5 25  1  0
  5 26  1  0
  5 27  1  0
  9 28  1  0
 10 29  1  0
 10 30  1  0
 12 31  1  0
 13 32  1  0
 14 33  1  0
 15 34  1  0
 16 35  1  0
M  END
$$$$
