
     RDKit          3D

 56 59  0  0  0  0  0  0  0  0999 V2000
    1.3927   -6.4893   -0.9992 C   0  0  0  0  0  0  0  0  0  0  0  0
    1.6906   -5.0472   -1.0762 C   0  0  0  0  0  0  0  0  0  0  0  0
    2.6838   -4.5568   -1.8297 N   0  0  0  0  0  0  0  0  0  0  0  0
    2.6080   -3.1837   -1.6032 O   0  0  0  0  0  0  0  0  0  0  0  0
    1.5616   -2.9878   -0.7443 C   0  0  0  0  0  0  0  0  0  0  0  0
    1.2783   -1.5870   -0.3301 C   0  0  2  0  0  0  0  0  0  0  0  0
   -0.1380   -1.4433    0.2649 C   0  0  0  0  0  0  0  0  0  0  0  0
   -0.5197    0.0038   -0.0197 C   0  0  2  0  0  0  0  0  0  0  0  0
   -1.9383    0.2455    0.1183 N   0  0  0  0  0  0  0  0  0  0  0  0
   -2.4387    1.5375    0.1419 C   0  0  0  0  0  0  0  0  0  0  0  0
   -1.6850    2.5079    0.1073 O   0  0  0  0  0  0  0  0  0  0  0  0
   -3.8852    1.6343    0.1581 C   0  0  0  0  0  0  0  0  0  0  0  0
   -4.6375    2.9850   -0.5938 S   0  0  0  0  0  0  0  0  0  0  0  0
   -6.1770    2.3561   -0.1860 C   0  0  0  0  0  0  0  0  0  0  0  0
   -7.4122    3.0900   -0.5732 C   0  0  0  0  0  0  0  0  0  0  0  0
   -6.1653    1.2221    0.4792 N   0  0  0  0  0  0  0  0  0  0  0  0
   -4.8587    0.8136    0.7107 C   0  0  0  0  0  0  0  0  0  0  0  0
   -4.6681   -0.4166    1.5253 C   0  0  0  0  0  0  0  0  0  0  0  0
   -0.0244    0.1916   -1.4502 C   0  0  0  0  0  0  0  0  0  0  0  0
    1.3049   -0.5776   -1.5196 C   0  0  1  0  0  0  0  0  0  0  0  0
    2.5119    0.3218   -1.2599 C   0  0  0  0  0  0  0  0  0  0  0  0
    2.7428    0.2259    0.1648 N   0  0  0  0  0  0  0  0  0  0  0  0
    3.6017    1.0077    0.9146 C   0  0  0  0  0  0  0  0  0  0  0  0
    3.9746    0.6486    2.0320 O   0  0  0  0  0  0  0  0  0  0  0  0
    4.0159    2.3563    0.3254 C   0  0  0  0  0  0  0  0  0  0  0  0
    5.2572    2.9009    1.0337 C   0  0  0  0  0  0  0  0  0  0  0  0
    2.8638    3.3535    0.4495 C   0  0  0  0  0  0  0  0  0  0  0  0
    2.3568   -1.0858    0.6477 C   0  0  0  0  0  0  0  0  0  0  0  0
    0.9664   -4.1054   -0.3906 N   0  0  0  0  0  0  0  0  0  0  0  0
    0.8619   -6.8165   -1.8996 H   0  0  0  0  0  0  0  0  0  0  0  0
    2.3137   -7.0761   -0.9057 H   0  0  0  0  0  0  0  0  0  0  0  0
    0.7630   -6.7099   -0.1307 H   0  0  0  0  0  0  0  0  0  0  0  0
   -0.8461   -2.1192   -0.2345 H   0  0  0  0  0  0  0  0  0  0  0  0
   -0.1822   -1.6766    1.3349 H   0  0  0  0  0  0  0  0  0  0  0  0
    0.0133    0.6825    0.6574 H   0  0  0  0  0  0  0  0  0  0  0  0
   -2.5789   -0.4968   -0.1286 H   0  0  0  0  0  0  0  0  0  0  0  0
   -8.2875    2.4362   -0.4854 H   0  0  0  0  0  0  0  0  0  0  0  0
   -7.3591    3.4417   -1.6097 H   0  0  0  0  0  0  0  0  0  0  0  0
   -7.5646    3.9529    0.0845 H   0  0  0  0  0  0  0  0  0  0  0  0
   -3.8346   -0.3013    2.2241 H   0  0  0  0  0  0  0  0  0  0  0  0
   -4.4724   -1.2765    0.8771 H   0  0  0  0  0  0  0  0  0  0  0  0
   -5.5659   -0.6341    2.1139 H   0  0  0  0  0  0  0  0  0  0  0  0
   -0.7368   -0.2577   -2.1552 H   0  0  0  0  0  0  0  0  0  0  0  0
    0.0708    1.2477   -1.7248 H   0  0  0  0  0  0  0  0  0  0  0  0
    1.3929   -1.0403   -2.5094 H   0  0  0  0  0  0  0  0  0  0  0  0
    2.3693    1.3519   -1.5923 H   0  0  0  0  0  0  0  0  0  0  0  0
    3.4029   -0.0764   -1.7587 H   0  0  0  0  0  0  0  0  0  0  0  0
    4.2776    2.2189   -0.7297 H   0  0  0  0  0  0  0  0  0  0  0  0
    5.5873    3.8383    0.5737 H   0  0  0  0  0  0  0  0  0  0  0  0
    5.0637    3.0934    2.0952 H   0  0  0  0  0  0  0  0  0  0  0  0
    6.0841    2.1856    0.9716 H   0  0  0  0  0  0  0  0  0  0  0  0
    3.1340    4.3164    0.0033 H   0  0  0  0  0  0  0  0  0  0  0  0
    2.6052    3.5262    1.5000 H   0  0  0  0  0  0  0  0  0  0  0  0
    1.9566    2.9952   -0.0481 H   0  0  0  0  0  0  0  0  0  0  0  0
    2.0106   -1.0153    1.6850 H   0  0  0  0  0  0  0  0  0  0  0  0
    3.2583   -1.7117    0.6419 H   0  0  0  0  0  0  0  0  0  0  0  0
  1  2  1  0
  2  3  2  0
  3  4  1  0
  4  5  1  0
  6  5  1  6
  6  7  1  0
  7  8  1  0
  8  9  1  0
  9 10  1  0
 10 11  2  0
 10 12  1  0
 12 13  1  0
 13 14  1  0
 14 15  1  0
 14 16  2  0
 16 17  1  0
 17 18  1  0
  8 19  1  0
 19 20  1  0
 20 21  1  0
 21 22  1  0
 22 23  1  0
 23 24  2  0
 23 25  1  0
 25 26  1  0
 25 27  1  0
 22 28  1  0
  5 29  2  0
 29  2  1  0
 20  6  1  0
 28  6  1  0
 17 12  2  0
  1 30  1  0
  1 31  1  0
  1 32  1  0
  7 33  1  0
  7 34  1  0
  8 35  1  1
  9 36  1  0
 15 37  1  0
 15 38  1  0
 15 39  1  0
 18 40  1  0
 18 41  1  0
 18 42  1  0
 19 43  1  0
 19 44  1  0
 20 45  1  6
 21 46  1  0
 21 47  1  0
 25 48  1  0
 26 49  1  0
 26 50  1  0
 26 51  1  0
 27 52  1  0
 27 53  1  0
 27 54  1  0
 28 55  1  0
 28 56  1  0
M  END
$$$$
