
     RDKit          3D

 55 57  0  0  0  0  0  0  0  0999 V2000
   -1.6076    4.6000    2.1007 C   0  0  0  0  0  0  0  0  0  0  0  0
   -0.4949    3.7185    1.6757 C   0  0  0  0  0  0  0  0  0  0  0  0
    0.7547    4.1985    1.7673 N   0  0  0  0  0  0  0  0  0  0  0  0
    1.5828    3.2029    1.3003 O   0  0  0  0  0  0  0  0  0  0  0  0
    0.8420    2.1225    0.9396 C   0  0  0  0  0  0  0  0  0  0  0  0
    1.6058    0.9812    0.4599 C   0  0  0  0  0  0  0  0  0  0  0  0
    1.3499   -0.3069    0.9465 C   0  0  0  0  0  0  0  0  0  0  0  0
    2.0812   -1.4031    0.4786 C   0  0  0  0  0  0  0  0  0  0  0  0
    3.0861   -1.2329   -0.4839 C   0  0  0  0  0  0  0  0  0  0  0  0
    3.8770   -2.4122   -0.9934 C   0  0  0  0  0  0  0  0  0  0  0  0
    4.9673   -3.1607    0.2619 S   0  0  0  0  0  0  0  0  0  0  0  0
    6.1991   -1.8271    0.4998 C   0  0  0  0  0  0  0  0  0  0  0  0
    7.4832   -2.0647   -0.2857 C   0  0  0  0  0  0  0  0  0  0  0  0
    7.3757   -1.6478   -1.7240 C   0  0  0  0  0  0  0  0  0  0  0  0
    6.6032   -0.8349   -2.2022 O   0  0  0  0  0  0  0  0  0  0  0  0
    8.3050   -2.2438   -2.4972 O   0  0  0  0  0  0  0  0  0  0  0  0
    3.3420    0.0566   -0.9687 C   0  0  0  0  0  0  0  0  0  0  0  0
    2.6134    1.1524   -0.4971 C   0  0  0  0  0  0  0  0  0  0  0  0
   -0.4993    2.3950    1.1426 C   0  0  0  0  0  0  0  0  0  0  0  0
   -1.5030    1.4931    0.8261 N   0  0  0  0  0  0  0  0  0  0  0  0
   -2.8466    1.6372    0.9864 C   0  0  0  0  0  0  0  0  0  0  0  0
   -3.4490    2.5712    1.4867 O   0  0  0  0  0  0  0  0  0  0  0  0
   -3.4444    0.5239    0.4891 O   0  0  0  0  0  0  0  0  0  0  0  0
   -4.8852    0.5281    0.4783 C   0  0  0  0  0  0  0  0  0  0  0  0
   -5.3930    0.0717    1.8496 C   0  0  0  0  0  0  0  0  0  0  0  0
   -5.3001   -0.3453   -0.6967 C   0  0  0  0  0  0  0  0  0  0  0  0
   -5.7086   -1.6813   -0.5181 C   0  0  0  0  0  0  0  0  0  0  0  0
   -6.0741   -2.4807   -1.6053 C   0  0  0  0  0  0  0  0  0  0  0  0
   -6.0295   -1.9681   -2.8973 C   0  0  0  0  0  0  0  0  0  0  0  0
   -5.6131   -0.6553   -3.1036 C   0  0  0  0  0  0  0  0  0  0  0  0
   -5.2475    0.1482   -2.0168 C   0  0  0  0  0  0  0  0  0  0  0  0
   -4.7205    1.7570   -2.3776 Cl  0  0  0  0  0  0  0  0  0  0  0  0
   -2.2950    4.7853    1.2697 H   0  0  0  0  0  0  0  0  0  0  0  0
   -2.1524    4.1587    2.9405 H   0  0  0  0  0  0  0  0  0  0  0  0
   -1.2385    5.5767    2.4349 H   0  0  0  0  0  0  0  0  0  0  0  0
    0.5965   -0.4701    1.7146 H   0  0  0  0  0  0  0  0  0  0  0  0
    1.8715   -2.3932    0.8797 H   0  0  0  0  0  0  0  0  0  0  0  0
    4.4582   -2.1545   -1.8823 H   0  0  0  0  0  0  0  0  0  0  0  0
    3.1697   -3.1846   -1.3170 H   0  0  0  0  0  0  0  0  0  0  0  0
    5.7683   -0.8441    0.2962 H   0  0  0  0  0  0  0  0  0  0  0  0
    6.4461   -1.8450    1.5671 H   0  0  0  0  0  0  0  0  0  0  0  0
    8.2866   -1.4600    0.1525 H   0  0  0  0  0  0  0  0  0  0  0  0
    7.7874   -3.1158   -0.2272 H   0  0  0  0  0  0  0  0  0  0  0  0
    8.1565   -1.8726   -3.3923 H   0  0  0  0  0  0  0  0  0  0  0  0
    4.1195    0.2215   -1.7137 H   0  0  0  0  0  0  0  0  0  0  0  0
    2.8378    2.1435   -0.8884 H   0  0  0  0  0  0  0  0  0  0  0  0
   -1.2294    0.6284    0.3782 H   0  0  0  0  0  0  0  0  0  0  0  0
   -5.2795    1.5384    0.3081 H   0  0  0  0  0  0  0  0  0  0  0  0
   -6.4808   -0.0543    1.8526 H   0  0  0  0  0  0  0  0  0  0  0  0
   -4.9222   -0.8663    2.1639 H   0  0  0  0  0  0  0  0  0  0  0  0
   -5.1363    0.8076    2.6191 H   0  0  0  0  0  0  0  0  0  0  0  0
   -5.7454   -2.1313    0.4713 H   0  0  0  0  0  0  0  0  0  0  0  0
   -6.3894   -3.5089   -1.4400 H   0  0  0  0  0  0  0  0  0  0  0  0
   -6.3111   -2.5908   -3.7428 H   0  0  0  0  0  0  0  0  0  0  0  0
   -5.5701   -0.2615   -4.1169 H   0  0  0  0  0  0  0  0  0  0  0  0
  1  2  1  0
  2  3  2  0
  3  4  1  0
  4  5  1  0
  5  6  1  0
  6  7  2  0
  7  8  1  0
  8  9  2  0
  9 10  1  0
 10 11  1  0
 11 12  1  0
 12 13  1  0
 13 14  1  0
 14 15  2  0
 14 16  1  0
  9 17  1  0
 17 18  2  0
  5 19  2  0
 19 20  1  0
 20 21  1  0
 21 22  2  0
 21 23  1  0
 23 24  1  0
 24 25  1  0
 24 26  1  0
 26 27  2  0
 27 28  1  0
 28 29  2  0
 29 30  1  0
 30 31  2  0
 31 32  1  0
 19  2  1  0
 31 26  1  0
 18  6  1  0
  1 33  1  0
  1 34  1  0
  1 35  1  0
  7 36  1  0
  8 37  1  0
 10 38  1  0
 10 39  1  0
 12 40  1  0
 12 41  1  0
 13 42  1  0
 13 43  1  0
 16 44  1  0
 17 45  1  0
 18 46  1  0
 20 47  1  0
 24 48  1  0
 25 49  1  0
 25 50  1  0
 25 51  1  0
 27 52  1  0
 28 53  1  0
 29 54  1  0
 30 55  1  0
M  END
$$$$
