
     RDKit          3D

 56 60  0  0  0  0  0  0  0  0999 V2000
    3.8495   -0.3422   -2.0100 O   0  0  0  0  0  0  0  0  0  0  0  0
    3.0747    0.1364   -1.1870 C   0  0  0  0  0  0  0  0  0  0  0  0
    1.7402   -0.1475   -1.2950 N   0  0  0  0  0  0  0  0  0  0  0  0
    0.6927    0.5867   -0.6006 C   0  0  2  0  0  0  0  0  0  0  0  0
   -0.6335   -0.1926   -0.7081 C   0  0  0  0  0  0  0  0  0  0  0  0
   -1.3916   -0.5607    0.4142 C   0  0  0  0  0  0  0  0  0  0  0  0
   -2.5945   -1.2767    0.2864 C   0  0  0  0  0  0  0  0  0  0  0  0
   -3.1007   -1.6531   -0.9612 C   0  0  0  0  0  0  0  0  0  0  0  0
   -4.2937   -2.3608   -1.1367 N   0  0  0  0  0  0  0  0  0  0  0  0
   -4.8787   -3.1372   -0.0247 C   0  0  0  0  0  0  0  0  0  0  0  0
   -6.1123   -2.4188    0.5397 C   0  0  0  0  0  0  0  0  0  0  0  0
   -7.1626   -2.2331   -0.4248 O   0  0  0  0  0  0  0  0  0  0  0  0
   -6.6952   -2.2518   -1.7833 C   0  0  0  0  0  0  0  0  0  0  0  0
   -5.2986   -1.6318   -1.9530 C   0  0  0  0  0  0  0  0  0  0  0  0
   -2.3462   -1.2835   -2.0818 C   0  0  0  0  0  0  0  0  0  0  0  0
   -1.1442   -0.5732   -1.9641 C   0  0  0  0  0  0  0  0  0  0  0  0
    0.3946    1.9130   -1.3310 C   0  0  0  0  0  0  0  0  0  0  0  0
   -0.5913    2.8795   -0.8963 C   0  0  0  0  0  0  0  0  0  0  0  0
   -0.6673    3.9860   -1.7111 C   0  0  0  0  0  0  0  0  0  0  0  0
    0.4336    3.8980   -3.0086 S   0  0  0  0  0  0  0  0  0  0  0  0
    1.0125    2.3772   -2.4853 C   0  0  0  0  0  0  0  0  0  0  0  0
    1.1805    0.8532    0.8497 C   0  0  0  0  0  0  0  0  0  0  0  0
    2.5980    1.3737    0.8882 C   0  0  0  0  0  0  0  0  0  0  0  0
    2.9112    2.2196    1.9417 O   0  0  0  0  0  0  0  0  0  0  0  0
    3.4985    1.0393   -0.0581 C   0  0  0  0  0  0  0  0  0  0  0  0
    5.1460    1.5875   -0.1021 S   0  0  0  0  0  0  0  0  0  0  0  0
    5.7357    1.0733    1.5108 C   0  0  0  0  0  0  0  0  0  0  0  0
    6.1517    2.0970    2.3796 C   0  0  0  0  0  0  0  0  0  0  0  0
    6.6476    1.8060    3.6529 C   0  0  0  0  0  0  0  0  0  0  0  0
    6.7447    0.4842    4.0751 C   0  0  0  0  0  0  0  0  0  0  0  0
    6.3493   -0.5454    3.2219 C   0  0  0  0  0  0  0  0  0  0  0  0
    5.8513   -0.2581    1.9438 C   0  0  0  0  0  0  0  0  0  0  0  0
    5.4153   -1.6111    0.9590 Cl  0  0  0  0  0  0  0  0  0  0  0  0
    1.5079   -0.7042   -2.1056 H   0  0  0  0  0  0  0  0  0  0  0  0
   -1.0804   -0.3020    1.4223 H   0  0  0  0  0  0  0  0  0  0  0  0
   -3.1361   -1.5058    1.1990 H   0  0  0  0  0  0  0  0  0  0  0  0
   -5.1880   -4.1076   -0.4332 H   0  0  0  0  0  0  0  0  0  0  0  0
   -4.1563   -3.3640    0.7658 H   0  0  0  0  0  0  0  0  0  0  0  0
   -6.5337   -2.9906    1.3725 H   0  0  0  0  0  0  0  0  0  0  0  0
   -5.8399   -1.4294    0.9244 H   0  0  0  0  0  0  0  0  0  0  0  0
   -6.7024   -3.2919   -2.1296 H   0  0  0  0  0  0  0  0  0  0  0  0
   -7.4251   -1.7034   -2.3873 H   0  0  0  0  0  0  0  0  0  0  0  0
   -5.0213   -1.6643   -3.0122 H   0  0  0  0  0  0  0  0  0  0  0  0
   -5.3445   -0.5825   -1.6323 H   0  0  0  0  0  0  0  0  0  0  0  0
   -2.6800   -1.5700   -3.0766 H   0  0  0  0  0  0  0  0  0  0  0  0
   -0.6169   -0.3133   -2.8805 H   0  0  0  0  0  0  0  0  0  0  0  0
   -1.2260    2.7572   -0.0263 H   0  0  0  0  0  0  0  0  0  0  0  0
   -1.3204    4.8418   -1.6079 H   0  0  0  0  0  0  0  0  0  0  0  0
    1.7914    1.8985   -3.0646 H   0  0  0  0  0  0  0  0  0  0  0  0
    1.1780   -0.0762    1.4353 H   0  0  0  0  0  0  0  0  0  0  0  0
    0.5086    1.5532    1.3616 H   0  0  0  0  0  0  0  0  0  0  0  0
    2.1540    2.2923    2.5465 H   0  0  0  0  0  0  0  0  0  0  0  0
    6.0819    3.1380    2.0691 H   0  0  0  0  0  0  0  0  0  0  0  0
    6.9594    2.6141    4.3100 H   0  0  0  0  0  0  0  0  0  0  0  0
    7.1340    0.2537    5.0636 H   0  0  0  0  0  0  0  0  0  0  0  0
    6.4388   -1.5768    3.5548 H   0  0  0  0  0  0  0  0  0  0  0  0
  1  2  2  0
  2  3  1  0
  3  4  1  0
  4  5  1  1
  5  6  2  0
  6  7  1  0
  7  8  2  0
  8  9  1  0
  9 10  1  0
 10 11  1  0
 11 12  1  0
 12 13  1  0
 13 14  1  0
  8 15  1  0
 15 16  2  0
  4 17  1  0
 17 18  1  0
 18 19  2  0
 19 20  1  0
 20 21  1  0
  4 22  1  0
 22 23  1  0
 23 24  1  0
 23 25  2  0
 25 26  1  0
 26 27  1  0
 27 28  2  0
 28 29  1  0
 29 30  2  0
 30 31  1  0
 31 32  2  0
 32 33  1  0
 25  2  1  0
 32 27  1  0
 16  5  1  0
 21 17  2  0
 14  9  1  0
  3 34  1  0
  6 35  1  0
  7 36  1  0
 10 37  1  0
 10 38  1  0
 11 39  1  0
 11 40  1  0
 13 41  1  0
 13 42  1  0
 14 43  1  0
 14 44  1  0
 15 45  1  0
 16 46  1  0
 18 47  1  0
 19 48  1  0
 21 49  1  0
 22 50  1  0
 22 51  1  0
 24 52  1  0
 28 53  1  0
 29 54  1  0
 30 55  1  0
 31 56  1  0
M  END
$$$$
