
     RDKit          3D

 32 34  0  0  0  0  0  0  0  0999 V2000
    4.8654   -2.0841   -0.9196 N   0  0  0  0  0  0  0  0  0  0  0  0
    4.0293   -0.9803   -0.8165 C   0  0  0  0  0  0  0  0  0  0  0  0
    4.5154    0.2258   -1.1790 N   0  0  0  0  0  0  0  0  0  0  0  0
    3.6906    1.2880   -1.0820 C   0  0  0  0  0  0  0  0  0  0  0  0
    4.3676    2.7878   -1.5547 Cl  0  0  0  0  0  0  0  0  0  0  0  0
    2.4166    1.3438   -0.6458 N   0  0  0  0  0  0  0  0  0  0  0  0
    1.9898    0.1223   -0.2896 C   0  0  0  0  0  0  0  0  0  0  0  0
    2.7100   -1.0611   -0.3355 C   0  0  0  0  0  0  0  0  0  0  0  0
    1.9522   -2.1142    0.1328 N   0  0  0  0  0  0  0  0  0  0  0  0
    0.7916   -1.5777    0.4486 C   0  0  0  0  0  0  0  0  0  0  0  0
    0.7601   -0.2320    0.1942 N   0  0  0  0  0  0  0  0  0  0  0  0
   -0.3627    0.6655    0.3766 C   0  0  2  0  0  0  0  0  0  0  0  0
   -1.1478    0.2160    1.5077 O   0  0  0  0  0  0  0  0  0  0  0  0
   -2.5458    0.3856    1.1781 C   0  0  2  0  0  0  0  0  0  0  0  0
   -3.2066   -0.9938    1.1260 C   0  0  0  0  0  0  0  0  0  0  0  0
   -4.5810   -0.8686    0.7936 O   0  0  0  0  0  0  0  0  0  0  0  0
   -2.6050    1.1275   -0.1581 C   0  0  1  0  0  0  0  0  0  0  0  0
   -2.5314    2.5514    0.0470 O   0  0  0  0  0  0  0  0  0  0  0  0
   -1.3104    0.6968   -0.8245 C   0  0  1  0  0  0  0  0  0  0  0  0
   -0.9268    1.6070   -1.8483 O   0  0  0  0  0  0  0  0  0  0  0  0
    4.5833   -2.8682   -0.3419 H   0  0  0  0  0  0  0  0  0  0  0  0
    5.8452   -1.8331   -0.9328 H   0  0  0  0  0  0  0  0  0  0  0  0
   -0.0526   -2.1140    0.8627 H   0  0  0  0  0  0  0  0  0  0  0  0
    0.0366    1.6582    0.6168 H   0  0  0  0  0  0  0  0  0  0  0  0
   -3.0092    0.9842    1.9706 H   0  0  0  0  0  0  0  0  0  0  0  0
   -2.7195   -1.6417    0.3894 H   0  0  0  0  0  0  0  0  0  0  0  0
   -3.1180   -1.4867    2.1004 H   0  0  0  0  0  0  0  0  0  0  0  0
   -4.9762   -1.7570    0.8606 H   0  0  0  0  0  0  0  0  0  0  0  0
   -3.4909    0.9297   -0.7677 H   0  0  0  0  0  0  0  0  0  0  0  0
   -3.3798    2.8244    0.4445 H   0  0  0  0  0  0  0  0  0  0  0  0
   -1.4216   -0.2992   -1.2687 H   0  0  0  0  0  0  0  0  0  0  0  0
   -1.1685    2.4979   -1.5179 H   0  0  0  0  0  0  0  0  0  0  0  0
  1  2  1  0
  2  3  2  0
  3  4  1  0
  4  5  1  0
  4  6  2  0
  6  7  1  0
  7  8  2  0
  8  9  1  0
  9 10  2  0
 10 11  1  0
 11 12  1  0
 12 13  1  0
 13 14  1  0
 14 15  1  0
 15 16  1  0
 14 17  1  0
 17 18  1  0
 17 19  1  0
 19 20  1  0
  8  2  1  0
 19 12  1  0
 11  7  1  0
  1 21  1  0
  1 22  1  0
 10 23  1  0
 12 24  1  1
 14 25  1  1
 15 26  1  0
 15 27  1  0
 16 28  1  0
 17 29  1  6
 18 30  1  0
 19 31  1  6
 20 32  1  0
M  END
$$$$
