
     RDKit          3D

 33 35  0  0  0  0  0  0  0  0999 V2000
   -4.1851    2.0671    0.7874 C   0  0  0  0  0  0  0  0  0  0  0  0
   -3.0839    1.2161    0.4939 O   0  0  0  0  0  0  0  0  0  0  0  0
   -3.3682   -0.0764    0.1202 C   0  0  0  0  0  0  0  0  0  0  0  0
   -4.6552   -0.6105    0.0088 C   0  0  0  0  0  0  0  0  0  0  0  0
   -4.8277   -1.9405   -0.3803 C   0  0  0  0  0  0  0  0  0  0  0  0
   -3.7167   -2.7335   -0.6568 C   0  0  0  0  0  0  0  0  0  0  0  0
   -3.9444   -4.3717   -1.1354 Cl  0  0  0  0  0  0  0  0  0  0  0  0
   -2.4268   -2.2147   -0.5500 C   0  0  0  0  0  0  0  0  0  0  0  0
   -2.2438   -0.8855   -0.1617 C   0  0  0  0  0  0  0  0  0  0  0  0
   -0.9769   -0.2805   -0.0284 N   0  0  0  0  0  0  0  0  0  0  0  0
    0.2737   -0.8232   -0.2357 C   0  0  0  0  0  0  0  0  0  0  0  0
    0.5130   -1.9737   -0.5866 O   0  0  0  0  0  0  0  0  0  0  0  0
    1.3601    0.1333    0.0086 C   0  0  0  0  0  0  0  0  0  0  0  0
    2.7529   -0.1017   -0.1125 C   0  0  0  0  0  0  0  0  0  0  0  0
    3.3404    1.0927    0.2210 C   0  0  0  0  0  0  0  0  0  0  0  0
    4.8559    1.4279    0.2649 C   0  0  0  0  0  0  0  0  0  0  0  0
    5.7980    0.8142   -0.7367 C   0  0  0  0  0  0  0  0  0  0  0  0
    5.8510    0.3861    0.7028 C   0  0  0  0  0  0  0  0  0  0  0  0
    2.3666    1.9932    0.5246 O   0  0  0  0  0  0  0  0  0  0  0  0
    1.1235    1.4005    0.3942 N   0  0  0  0  0  0  0  0  0  0  0  0
   -3.7848    3.0473    1.0641 H   0  0  0  0  0  0  0  0  0  0  0  0
   -4.8229    2.2043   -0.0919 H   0  0  0  0  0  0  0  0  0  0  0  0
   -4.7592    1.6895    1.6399 H   0  0  0  0  0  0  0  0  0  0  0  0
   -5.5429   -0.0224    0.2162 H   0  0  0  0  0  0  0  0  0  0  0  0
   -5.8304   -2.3517   -0.4656 H   0  0  0  0  0  0  0  0  0  0  0  0
   -1.5864   -2.8630   -0.7736 H   0  0  0  0  0  0  0  0  0  0  0  0
   -0.9939    0.6966    0.2627 H   0  0  0  0  0  0  0  0  0  0  0  0
    3.2384   -1.0211   -0.4038 H   0  0  0  0  0  0  0  0  0  0  0  0
    5.0614    2.4524    0.5620 H   0  0  0  0  0  0  0  0  0  0  0  0
    6.6056    1.4325   -1.1130 H   0  0  0  0  0  0  0  0  0  0  0  0
    5.4124    0.1102   -1.4647 H   0  0  0  0  0  0  0  0  0  0  0  0
    5.5015   -0.6087    0.9527 H   0  0  0  0  0  0  0  0  0  0  0  0
    6.6944    0.7149    1.2999 H   0  0  0  0  0  0  0  0  0  0  0  0
  1  2  1  0
  2  3  1  0
  3  4  2  0
  4  5  1  0
  5  6  2  0
  6  7  1  0
  6  8  1  0
  8  9  2  0
  9 10  1  0
 10 11  1  0
 11 12  2  0
 11 13  1  0
 13 14  1  0
 14 15  2  0
 15 16  1  0
 16 17  1  0
 17 18  1  0
 15 19  1  0
 19 20  1  0
  9  3  1  0
 20 13  2  0
 18 16  1  0
  1 21  1  0
  1 22  1  0
  1 23  1  0
  4 24  1  0
  5 25  1  0
  8 26  1  0
 10 27  1  0
 14 28  1  0
 16 29  1  0
 17 30  1  0
 17 31  1  0
 18 32  1  0
 18 33  1  0
M  END
$$$$
