
     RDKit          3D

 60 62  0  0  0  0  0  0  0  0999 V2000
    6.1527   -2.0504    1.0074 C   0  0  0  0  0  0  0  0  0  0  0  0
    5.0117   -1.6688    0.3117 O   0  0  0  0  0  0  0  0  0  0  0  0
    5.0803   -1.9637   -1.0159 C   0  0  0  0  0  0  0  0  0  0  0  0
    3.8754   -1.5712   -1.7417 C   0  0  0  0  0  0  0  0  0  0  0  0
    3.8105   -1.8784   -3.0051 O   0  0  0  0  0  0  0  0  0  0  0  0
    2.7852   -0.8879   -1.1729 N   0  0  0  0  0  0  0  0  0  0  0  0
    1.6188   -0.6122   -2.0212 C   0  0  0  0  0  0  0  0  0  0  0  0
    1.2730    0.8318   -1.8435 C   0  0  0  0  0  0  0  0  0  0  0  0
    0.8379    1.0635   -0.4129 C   0  0  1  0  0  0  0  0  0  0  0  0
    0.8873    2.5592   -0.2462 C   0  0  0  0  0  0  0  0  0  0  0  0
    1.6950    3.3339    0.4714 N   0  0  0  0  0  0  0  0  0  0  0  0
    1.3112    4.6115    0.2587 C   0  0  0  0  0  0  0  0  0  0  0  0
    1.8715    5.8838    0.8047 C   0  0  0  0  0  0  0  0  0  0  0  0
    0.2742    4.5915   -0.5867 N   0  0  0  0  0  0  0  0  0  0  0  0
    0.0153    3.3472   -0.8941 N   0  0  0  0  0  0  0  0  0  0  0  0
   -0.6201    0.6896   -0.2365 C   0  0  0  0  0  0  0  0  0  0  0  0
   -0.6848   -0.3991    0.6925 N   0  0  0  0  0  0  0  0  0  0  0  0
   -1.8594   -1.1293    1.0075 C   0  0  0  0  0  0  0  0  0  0  0  0
   -1.7450   -2.0624    1.8189 O   0  0  0  0  0  0  0  0  0  0  0  0
   -3.0944   -0.8136    0.4261 N   0  0  0  0  0  0  0  0  0  0  0  0
   -4.3070   -1.4914    0.6581 C   0  0  0  0  0  0  0  0  0  0  0  0
   -4.3506   -2.6925    1.3046 C   0  0  0  0  0  0  0  0  0  0  0  0
   -5.5885   -3.3376    1.4589 C   0  0  0  0  0  0  0  0  0  0  0  0
   -6.7313   -2.7746    0.9695 C   0  0  0  0  0  0  0  0  0  0  0  0
   -6.6674   -1.5664    0.3224 C   0  0  0  0  0  0  0  0  0  0  0  0
   -7.7686   -0.9432   -0.1890 F   0  0  0  0  0  0  0  0  0  0  0  0
   -5.4802   -0.9205    0.1610 C   0  0  0  0  0  0  0  0  0  0  0  0
   -5.3718    0.4003   -0.5213 C   0  0  0  0  0  0  0  0  0  0  0  0
    0.6175   -0.6394    1.2591 C   0  0  0  0  0  0  0  0  0  0  0  0
    1.5709    0.3050    0.6047 C   0  0  1  0  0  0  0  0  0  0  0  0
    2.7926   -0.4488    0.1725 C   0  0  0  0  0  0  0  0  0  0  0  0
    0.6872    0.0000    0.0000 Cl  0  0  0  0  0  0  0  0  0  0  0  0
    5.9520   -1.7593    2.0814 H   0  0  0  0  0  0  0  0  0  0  0  0
    7.0507   -1.5236    0.6474 H   0  0  0  0  0  0  0  0  0  0  0  0
    6.3289   -3.1579    0.9380 H   0  0  0  0  0  0  0  0  0  0  0  0
    5.2662   -3.0493   -1.1913 H   0  0  0  0  0  0  0  0  0  0  0  0
    5.9657   -1.4453   -1.5112 H   0  0  0  0  0  0  0  0  0  0  0  0
    0.8165   -1.3084   -1.7275 H   0  0  0  0  0  0  0  0  0  0  0  0
    1.8601   -0.7616   -3.0958 H   0  0  0  0  0  0  0  0  0  0  0  0
    0.4200    1.1291   -2.4819 H   0  0  0  0  0  0  0  0  0  0  0  0
    2.1534    1.4458   -2.0776 H   0  0  0  0  0  0  0  0  0  0  0  0
    2.5467    5.7415    1.6449 H   0  0  0  0  0  0  0  0  0  0  0  0
    2.4024    6.3961   -0.0318 H   0  0  0  0  0  0  0  0  0  0  0  0
    1.0145    6.5001    1.1070 H   0  0  0  0  0  0  0  0  0  0  0  0
   -0.7617    3.0436   -1.5522 H   0  0  0  0  0  0  0  0  0  0  0  0
   -1.2009    1.5602    0.1977 H   0  0  0  0  0  0  0  0  0  0  0  0
   -1.0784    0.4285   -1.2190 H   0  0  0  0  0  0  0  0  0  0  0  0
   -3.1195    0.0130   -0.2618 H   0  0  0  0  0  0  0  0  0  0  0  0
   -3.4867   -3.2048    1.7110 H   0  0  0  0  0  0  0  0  0  0  0  0
   -5.5998   -4.2826    1.9707 H   0  0  0  0  0  0  0  0  0  0  0  0
   -7.6843   -3.2833    1.0909 H   0  0  0  0  0  0  0  0  0  0  0  0
   -4.7677    0.2563   -1.4381 H   0  0  0  0  0  0  0  0  0  0  0  0
   -6.3721    0.8204   -0.7518 H   0  0  0  0  0  0  0  0  0  0  0  0
   -4.8035    1.0658    0.1592 H   0  0  0  0  0  0  0  0  0  0  0  0
    0.5752   -0.4951    2.3471 H   0  0  0  0  0  0  0  0  0  0  0  0
    0.8724   -1.6963    0.9727 H   0  0  0  0  0  0  0  0  0  0  0  0
    1.9128    1.0344    1.4033 H   0  0  0  0  0  0  0  0  0  0  0  0
    3.6930    0.1382    0.4216 H   0  0  0  0  0  0  0  0  0  0  0  0
    2.8324   -1.3717    0.8244 H   0  0  0  0  0  0  0  0  0  0  0  0
   -0.6872    0.0000    0.0000 H   0  0  0  0  0  0  0  0  0  0  0  0
  1  2  1  0
  2  3  1  0
  3  4  1  0
  4  5  2  0
  4  6  1  0
  6  7  1  0
  7  8  1  0
  8  9  1  0
  9 10  1  1
 10 11  2  0
 11 12  1  0
 12 13  1  0
 12 14  2  0
 14 15  1  0
  9 16  1  0
 16 17  1  0
 17 18  1  0
 18 19  2  0
 18 20  1  0
 20 21  1  0
 21 22  2  0
 22 23  1  0
 23 24  2  0
 24 25  1  0
 25 26  1  0
 25 27  2  0
 27 28  1  0
 17 29  1  0
 29 30  1  0
 30 31  1  0
 31  6  1  0
 30  9  1  0
 15 10  1  0
 27 21  1  0
  1 33  1  0
  1 34  1  0
  1 35  1  0
  3 36  1  0
  3 37  1  0
  7 38  1  0
  7 39  1  0
  8 40  1  0
  8 41  1  0
 13 42  1  0
 13 43  1  0
 13 44  1  0
 15 45  1  0
 16 46  1  0
 16 47  1  0
 20 48  1  0
 22 49  1  0
 23 50  1  0
 24 51  1  0
 28 52  1  0
 28 53  1  0
 28 54  1  0
 29 55  1  0
 29 56  1  0
 30 57  1  1
 31 58  1  0
 31 59  1  0
 32 60  1  0
M  END
$$$$
