
     RDKit          3D

 41 42  0  0  0  0  0  0  0  0999 V2000
   -0.6350    1.2794    3.5667 C   0  0  0  0  0  0  0  0  0  0  0  0
   -1.6455    0.2936    3.0006 C   0  0  0  0  0  0  0  0  0  0  0  0
   -1.6308    0.2602    1.5118 C   0  0  0  0  0  0  0  0  0  0  0  0
   -2.4510    1.0446    0.8026 N   0  0  0  0  0  0  0  0  0  0  0  0
   -2.1776    0.7374   -0.4863 N   0  0  0  0  0  0  0  0  0  0  0  0
   -2.9389    1.4170   -1.5229 C   0  0  0  0  0  0  0  0  0  0  0  0
   -2.3475    2.7812   -1.8526 C   0  0  0  0  0  0  0  0  0  0  0  0
   -1.2195    2.6440   -2.7160 O   0  0  0  0  0  0  0  0  0  0  0  0
   -1.2067   -0.2275   -0.6279 C   0  0  0  0  0  0  0  0  0  0  0  0
   -0.7603   -0.7846   -1.9381 C   0  0  0  0  0  0  0  0  0  0  0  0
   -1.5498   -2.0303   -2.3109 C   0  0  0  0  0  0  0  0  0  0  0  0
   -0.8149   -0.5137    0.6635 C   0  0  0  0  0  0  0  0  0  0  0  0
    0.1141   -1.4170    1.0370 O   0  0  0  0  0  0  0  0  0  0  0  0
    1.4430   -1.2334    0.7314 C   0  0  0  0  0  0  0  0  0  0  0  0
    2.2339   -2.3838    0.7211 C   0  0  0  0  0  0  0  0  0  0  0  0
    3.5993   -2.2936    0.4347 C   0  0  0  0  0  0  0  0  0  0  0  0
    4.4080   -3.4770    0.4156 C   0  0  0  0  0  0  0  0  0  0  0  0
    5.0662   -4.4321    0.3985 N   0  0  0  0  0  0  0  0  0  0  0  0
    4.1739   -1.0458    0.1666 C   0  0  0  0  0  0  0  0  0  0  0  0
    3.3836    0.1094    0.1907 C   0  0  0  0  0  0  0  0  0  0  0  0
    3.9719    1.3889   -0.0786 C   0  0  0  0  0  0  0  0  0  0  0  0
    4.4530    2.4217   -0.2974 N   0  0  0  0  0  0  0  0  0  0  0  0
    2.0183    0.0154    0.4793 C   0  0  0  0  0  0  0  0  0  0  0  0
   -0.8350    2.2971    3.2147 H   0  0  0  0  0  0  0  0  0  0  0  0
   -0.6792    1.2822    4.6603 H   0  0  0  0  0  0  0  0  0  0  0  0
    0.3856    1.0162    3.2690 H   0  0  0  0  0  0  0  0  0  0  0  0
   -2.6483    0.5594    3.3568 H   0  0  0  0  0  0  0  0  0  0  0  0
   -1.4317   -0.7082    3.3919 H   0  0  0  0  0  0  0  0  0  0  0  0
   -2.9793    0.7688   -2.4028 H   0  0  0  0  0  0  0  0  0  0  0  0
   -3.9590    1.5291   -1.1375 H   0  0  0  0  0  0  0  0  0  0  0  0
   -3.0901    3.3836   -2.3853 H   0  0  0  0  0  0  0  0  0  0  0  0
   -2.0369    3.3228   -0.9530 H   0  0  0  0  0  0  0  0  0  0  0  0
   -0.8388    3.5335   -2.8279 H   0  0  0  0  0  0  0  0  0  0  0  0
   -0.8530   -0.0403   -2.7352 H   0  0  0  0  0  0  0  0  0  0  0  0
    0.3037   -1.0406   -1.8933 H   0  0  0  0  0  0  0  0  0  0  0  0
   -1.4272   -2.8169   -1.5584 H   0  0  0  0  0  0  0  0  0  0  0  0
   -1.2041   -2.4243   -3.2719 H   0  0  0  0  0  0  0  0  0  0  0  0
   -2.6197   -1.8130   -2.3979 H   0  0  0  0  0  0  0  0  0  0  0  0
    1.7759   -3.3490    0.9321 H   0  0  0  0  0  0  0  0  0  0  0  0
    5.2383   -0.9729   -0.0578 H   0  0  0  0  0  0  0  0  0  0  0  0
    1.4110    0.9185    0.5069 H   0  0  0  0  0  0  0  0  0  0  0  0
  1  2  1  0
  2  3  1  0
  3  4  2  0
  4  5  1  0
  5  6  1  0
  6  7  1  0
  7  8  1  0
  5  9  1  0
  9 10  1  0
 10 11  1  0
  9 12  2  0
 12 13  1  0
 13 14  1  0
 14 15  2  0
 15 16  1  0
 16 17  1  0
 17 18  3  0
 16 19  2  0
 19 20  1  0
 20 21  1  0
 21 22  3  0
 20 23  2  0
 12  3  1  0
 23 14  1  0
  1 24  1  0
  1 25  1  0
  1 26  1  0
  2 27  1  0
  2 28  1  0
  6 29  1  0
  6 30  1  0
  7 31  1  0
  7 32  1  0
  8 33  1  0
 10 34  1  0
 10 35  1  0
 11 36  1  0
 11 37  1  0
 11 38  1  0
 15 39  1  0
 19 40  1  0
 23 41  1  0
M  END
$$$$
