
     RDKit          3D

 48 50  0  0  0  0  0  0  0  0999 V2000
    9.0010    1.2682    0.6818 O   0  0  0  0  0  0  0  0  0  0  0  0
    7.8038    1.0646    0.5816 C   0  0  0  0  0  0  0  0  0  0  0  0
    6.9439    1.6852    1.4153 O   0  0  0  0  0  0  0  0  0  0  0  0
    7.1626    0.1313   -0.3830 C   0  0  0  0  0  0  0  0  0  0  0  0
    8.0367   -0.7214   -1.0829 C   0  0  0  0  0  0  0  0  0  0  0  0
    7.5481   -1.6310   -2.0194 C   0  0  0  0  0  0  0  0  0  0  0  0
    6.1828   -1.6936   -2.2690 C   0  0  0  0  0  0  0  0  0  0  0  0
    5.3078   -0.8505   -1.5789 C   0  0  0  0  0  0  0  0  0  0  0  0
    5.7712    0.0625   -0.6128 C   0  0  0  0  0  0  0  0  0  0  0  0
    4.8684    0.9564    0.0165 N   0  0  0  0  0  0  0  0  0  0  0  0
    3.5457    0.6398    0.0283 N   0  0  0  0  0  0  0  0  0  0  0  0
    2.8269    1.3789    0.8135 C   0  0  0  0  0  0  0  0  0  0  0  0
    1.3732    1.1729    0.9673 C   0  0  0  0  0  0  0  0  0  0  0  0
    0.6892    1.9032    1.9459 C   0  0  0  0  0  0  0  0  0  0  0  0
   -0.6841    1.7114    2.1216 C   0  0  0  0  0  0  0  0  0  0  0  0
   -1.3683    0.7968    1.3143 C   0  0  0  0  0  0  0  0  0  0  0  0
   -2.8158    0.6009    1.5280 C   0  0  0  0  0  0  0  0  0  0  0  0
   -3.5324   -0.1117    0.7201 N   0  0  0  0  0  0  0  0  0  0  0  0
   -4.8411   -0.2162    1.0622 N   0  0  0  0  0  0  0  0  0  0  0  0
   -5.7695   -0.7083    0.1118 C   0  0  0  0  0  0  0  0  0  0  0  0
   -5.3196   -1.3400   -1.0626 C   0  0  0  0  0  0  0  0  0  0  0  0
   -6.2127   -1.8921   -1.9852 C   0  0  0  0  0  0  0  0  0  0  0  0
   -7.5792   -1.8500   -1.7376 C   0  0  0  0  0  0  0  0  0  0  0  0
   -8.0521   -1.2541   -0.5703 C   0  0  0  0  0  0  0  0  0  0  0  0
   -7.1598   -0.6832    0.3564 C   0  0  0  0  0  0  0  0  0  0  0  0
   -7.7793   -0.0761    1.5637 C   0  0  0  0  0  0  0  0  0  0  0  0
   -8.9357   -0.2221    1.9178 O   0  0  0  0  0  0  0  0  0  0  0  0
   -6.9561    0.7238    2.2722 O   0  0  0  0  0  0  0  0  0  0  0  0
   -0.6867    0.0787    0.3272 C   0  0  0  0  0  0  0  0  0  0  0  0
    0.6882    0.2602    0.1576 C   0  0  0  0  0  0  0  0  0  0  0  0
    7.5465    2.2274    1.9701 H   0  0  0  0  0  0  0  0  0  0  0  0
    9.1101   -0.6735   -0.9029 H   0  0  0  0  0  0  0  0  0  0  0  0
    8.2338   -2.2835   -2.5568 H   0  0  0  0  0  0  0  0  0  0  0  0
    5.7922   -2.3889   -3.0082 H   0  0  0  0  0  0  0  0  0  0  0  0
    4.2446   -0.9003   -1.8050 H   0  0  0  0  0  0  0  0  0  0  0  0
    5.2906    1.3892    0.8474 H   0  0  0  0  0  0  0  0  0  0  0  0
    3.2780    2.1908    1.4113 H   0  0  0  0  0  0  0  0  0  0  0  0
    1.2147    2.6182    2.5750 H   0  0  0  0  0  0  0  0  0  0  0  0
   -1.2087    2.2808    2.8852 H   0  0  0  0  0  0  0  0  0  0  0  0
   -3.2589    1.0919    2.4148 H   0  0  0  0  0  0  0  0  0  0  0  0
   -5.2702    0.4533    1.7107 H   0  0  0  0  0  0  0  0  0  0  0  0
   -4.2541   -1.3952   -1.2672 H   0  0  0  0  0  0  0  0  0  0  0  0
   -5.8333   -2.3596   -2.8899 H   0  0  0  0  0  0  0  0  0  0  0  0
   -8.2764   -2.2866   -2.4470 H   0  0  0  0  0  0  0  0  0  0  0  0
   -9.1244   -1.2399   -0.3816 H   0  0  0  0  0  0  0  0  0  0  0  0
   -7.5420    1.0312    2.9988 H   0  0  0  0  0  0  0  0  0  0  0  0
   -1.2165   -0.6326   -0.3027 H   0  0  0  0  0  0  0  0  0  0  0  0
    1.2165   -0.3071   -0.6025 H   0  0  0  0  0  0  0  0  0  0  0  0
  1  2  2  0
  2  3  1  0
  2  4  1  0
  4  5  2  0
  5  6  1  0
  6  7  2  0
  7  8  1  0
  8  9  2  0
  9 10  1  0
 10 11  1  0
 11 12  2  0
 12 13  1  0
 13 14  2  0
 14 15  1  0
 15 16  2  0
 16 17  1  0
 17 18  2  0
 18 19  1  0
 19 20  1  0
 20 21  2  0
 21 22  1  0
 22 23  2  0
 23 24  1  0
 24 25  2  0
 25 26  1  0
 26 27  2  0
 26 28  1  0
 16 29  1  0
 29 30  2  0
  9  4  1  0
 30 13  1  0
 25 20  1  0
  3 31  1  0
  5 32  1  0
  6 33  1  0
  7 34  1  0
  8 35  1  0
 10 36  1  0
 12 37  1  0
 14 38  1  0
 15 39  1  0
 17 40  1  0
 19 41  1  0
 21 42  1  0
 22 43  1  0
 23 44  1  0
 24 45  1  0
 28 46  1  0
 29 47  1  0
 30 48  1  0
M  END
$$$$
