
     RDKit          3D

 49 51  0  0  0  0  0  0  0  0999 V2000
    5.2298    2.3765    1.1940 C   0  0  0  0  0  0  0  0  0  0  0  0
    3.8955    1.8916    1.7398 C   0  0  0  0  0  0  0  0  0  0  0  0
    3.1545    1.0420    0.7379 C   0  0  0  0  0  0  0  0  0  0  0  0
    3.3591   -0.3445    0.6951 C   0  0  0  0  0  0  0  0  0  0  0  0
    2.6898   -1.1312   -0.2436 C   0  0  0  0  0  0  0  0  0  0  0  0
    1.7989   -0.5298   -1.1355 C   0  0  0  0  0  0  0  0  0  0  0  0
    0.9547   -1.5246   -2.3403 S   0  0  0  0  0  6  0  0  0  0  0  0
    0.5466   -0.6543   -3.4278 O   0  0  0  0  0  0  0  0  0  0  0  0
    1.8215   -2.6553   -2.6251 O   0  0  0  0  0  0  0  0  0  0  0  0
   -0.5108   -2.1619   -1.5684 C   0  0  0  0  0  0  0  0  0  0  0  0
   -0.2093   -3.4531   -0.8148 C   0  0  0  0  0  0  0  0  0  0  0  0
   -1.5926   -3.6911    0.2692 S   0  0  0  0  0  6  0  0  0  0  0  0
   -1.0970   -3.7733    1.6265 O   0  0  0  0  0  0  0  0  0  0  0  0
   -2.4687   -4.6897   -0.3035 O   0  0  0  0  0  0  0  0  0  0  0  0
   -2.3311   -2.0902    0.0344 C   0  0  0  0  0  0  0  0  0  0  0  0
   -1.2121   -1.2291   -0.5588 C   0  0  0  0  0  0  0  0  0  0  0  0
   -1.6990   -0.0024   -1.1791 N   0  0  0  0  0  0  0  0  0  0  0  0
   -2.2171    1.0671   -0.3341 C   0  0  0  0  0  0  0  0  0  0  0  0
   -1.6677    1.2368    1.0817 C   0  0  0  0  0  0  0  0  0  0  0  0
   -2.6150    2.2674    1.6835 C   0  0  0  0  0  0  0  0  0  0  0  0
   -3.9823    1.9669    1.0686 C   0  0  0  0  0  0  0  0  0  0  0  0
   -3.7312    1.0273   -0.1137 C   0  0  0  0  0  0  0  0  0  0  0  0
    1.6124    0.8540   -1.1285 C   0  0  0  0  0  0  0  0  0  0  0  0
    2.2859    1.6352   -0.1888 C   0  0  0  0  0  0  0  0  0  0  0  0
    5.8829    1.5358    0.9364 H   0  0  0  0  0  0  0  0  0  0  0  0
    5.0934    2.9840    0.2928 H   0  0  0  0  0  0  0  0  0  0  0  0
    5.7442    2.9890    1.9412 H   0  0  0  0  0  0  0  0  0  0  0  0
    4.0578    1.3183    2.6607 H   0  0  0  0  0  0  0  0  0  0  0  0
    3.2761    2.7512    2.0233 H   0  0  0  0  0  0  0  0  0  0  0  0
    4.0539   -0.8167    1.3875 H   0  0  0  0  0  0  0  0  0  0  0  0
    2.8852   -2.2006   -0.2768 H   0  0  0  0  0  0  0  0  0  0  0  0
   -1.1996   -2.3940   -2.3931 H   0  0  0  0  0  0  0  0  0  0  0  0
   -0.1183   -4.3141   -1.4819 H   0  0  0  0  0  0  0  0  0  0  0  0
    0.6863   -3.3787   -0.1921 H   0  0  0  0  0  0  0  0  0  0  0  0
   -2.6987   -1.7246    0.9952 H   0  0  0  0  0  0  0  0  0  0  0  0
   -3.1663   -2.2111   -0.6633 H   0  0  0  0  0  0  0  0  0  0  0  0
   -0.4931   -0.9866    0.2324 H   0  0  0  0  0  0  0  0  0  0  0  0
   -2.3285   -0.1694   -1.9672 H   0  0  0  0  0  0  0  0  0  0  0  0
   -2.0002    1.9972   -0.8787 H   0  0  0  0  0  0  0  0  0  0  0  0
   -1.7302    0.3126    1.6657 H   0  0  0  0  0  0  0  0  0  0  0  0
   -0.6299    1.5816    1.0935 H   0  0  0  0  0  0  0  0  0  0  0  0
   -2.6344    2.2214    2.7765 H   0  0  0  0  0  0  0  0  0  0  0  0
   -2.2972    3.2777    1.3992 H   0  0  0  0  0  0  0  0  0  0  0  0
   -4.6449    1.4892    1.7986 H   0  0  0  0  0  0  0  0  0  0  0  0
   -4.4680    2.8932    0.7433 H   0  0  0  0  0  0  0  0  0  0  0  0
   -4.2835    1.3431   -1.0052 H   0  0  0  0  0  0  0  0  0  0  0  0
   -4.0805    0.0230    0.1466 H   0  0  0  0  0  0  0  0  0  0  0  0
    0.9453    1.3312   -1.8439 H   0  0  0  0  0  0  0  0  0  0  0  0
    2.1339    2.7128   -0.1871 H   0  0  0  0  0  0  0  0  0  0  0  0
  1  2  1  0
  2  3  1  0
  3  4  2  0
  4  5  1  0
  5  6  2  0
  6  7  1  0
  7  8  2  0
  7  9  2  0
  7 10  1  0
 10 11  1  0
 11 12  1  0
 12 13  2  0
 12 14  2  0
 12 15  1  0
 15 16  1  0
 16 17  1  0
 17 18  1  0
 18 19  1  0
 19 20  1  0
 20 21  1  0
 21 22  1  0
  6 23  1  0
 23 24  2  0
 24  3  1  0
 16 10  1  0
 22 18  1  0
  1 25  1  0
  1 26  1  0
  1 27  1  0
  2 28  1  0
  2 29  1  0
  4 30  1  0
  5 31  1  0
 10 32  1  0
 11 33  1  0
 11 34  1  0
 15 35  1  0
 15 36  1  0
 16 37  1  0
 17 38  1  0
 18 39  1  0
 19 40  1  0
 19 41  1  0
 20 42  1  0
 20 43  1  0
 21 44  1  0
 21 45  1  0
 22 46  1  0
 22 47  1  0
 23 48  1  0
 24 49  1  0
M  END
$$$$
