
     RDKit          3D

 51 53  0  0  0  0  0  0  0  0999 V2000
    0.6851    0.0000    0.0000 Cl  0  0  0  0  0  0  0  0  0  0  0  0
   -3.5816   -3.8444   -0.5933 O   0  0  0  0  0  0  0  0  0  0  0  0
   -3.6998   -2.6148   -0.3851 C   0  0  0  0  0  0  0  0  0  0  0  0
   -4.9814   -2.0361   -0.2549 N   0  0  0  0  0  0  0  0  0  0  0  0
   -5.0997   -0.6622   -0.0183 C   0  0  0  0  0  0  0  0  0  0  0  0
   -6.3553   -0.1057    0.0727 C   0  0  0  0  0  0  0  0  0  0  0  0
   -6.5169    1.2515    0.2713 C   0  0  0  0  0  0  0  0  0  0  0  0
   -5.3920    2.0476    0.3806 C   0  0  0  0  0  0  0  0  0  0  0  0
   -4.1415    1.4503    0.2863 C   0  0  0  0  0  0  0  0  0  0  0  0
   -3.9610    0.1116    0.0880 C   0  0  0  0  0  0  0  0  0  0  0  0
   -2.6005   -0.4432    0.0144 C   0  0  0  0  0  0  0  0  0  0  0  0
   -1.9992   -0.3958    1.4210 C   0  0  0  0  0  0  0  0  0  0  0  0
   -0.5062   -0.6808    1.1374 C   0  0  0  0  0  0  0  0  0  0  0  0
    0.0081    0.6465    0.7747 N   0  0  0  0  0  0  0  0  0  0  0  0
    1.4117    0.6752    0.7646 C   0  0  0  0  0  0  0  0  0  0  0  0
    2.0563    0.0138   -0.3955 C   0  0  0  0  0  0  0  0  0  0  0  0
    3.5486    0.0018   -0.2746 C   0  0  0  0  0  0  0  0  0  0  0  0
    4.1667   -1.1703    0.0458 C   0  0  0  0  0  0  0  0  0  0  0  0
    5.5385   -1.2115    0.2013 C   0  0  0  0  0  0  0  0  0  0  0  0
    6.3355   -0.0718    0.0377 C   0  0  0  0  0  0  0  0  0  0  0  0
    7.8022   -0.0916    0.2036 C   0  0  0  0  0  0  0  0  0  0  0  0
    8.1208    0.7395    1.2837 F   0  0  0  0  0  0  0  0  0  0  0  0
    8.3066   -1.3390    0.4436 F   0  0  0  0  0  0  0  0  0  0  0  0
    8.3247    0.4834   -0.9542 F   0  0  0  0  0  0  0  0  0  0  0  0
    5.6570    1.0840   -0.2881 C   0  0  0  0  0  0  0  0  0  0  0  0
    4.2890    1.1462   -0.4480 C   0  0  0  0  0  0  0  0  0  0  0  0
   -0.6626    1.1298   -0.4056 C   0  0  0  0  0  0  0  0  0  0  0  0
   -1.7168    0.2239   -0.9774 C   0  0  0  0  0  0  0  0  0  0  0  0
   -2.5898   -1.8382   -0.2885 O   0  0  0  0  0  0  0  0  0  0  0  0
   -0.6851    0.0000    0.0000 H   0  0  0  0  0  0  0  0  0  0  0  0
   -5.7947   -2.6962   -0.3358 H   0  0  0  0  0  0  0  0  0  0  0  0
   -7.2114   -0.7365   -0.0167 H   0  0  0  0  0  0  0  0  0  0  0  0
   -7.4841    1.7014    0.3441 H   0  0  0  0  0  0  0  0  0  0  0  0
   -5.5184    3.1093    0.5362 H   0  0  0  0  0  0  0  0  0  0  0  0
   -3.3082    2.1449    0.3797 H   0  0  0  0  0  0  0  0  0  0  0  0
   -2.0451    0.6126    1.8720 H   0  0  0  0  0  0  0  0  0  0  0  0
   -2.3625   -1.2014    2.0630 H   0  0  0  0  0  0  0  0  0  0  0  0
   -0.4224   -1.2899    0.2454 H   0  0  0  0  0  0  0  0  0  0  0  0
    0.0179   -1.0076    2.0328 H   0  0  0  0  0  0  0  0  0  0  0  0
    1.7581    1.7314    0.9093 H   0  0  0  0  0  0  0  0  0  0  0  0
    1.7523    0.0834    1.6800 H   0  0  0  0  0  0  0  0  0  0  0  0
    1.8674    0.4898   -1.3807 H   0  0  0  0  0  0  0  0  0  0  0  0
    1.7140   -1.0221   -0.4854 H   0  0  0  0  0  0  0  0  0  0  0  0
    3.6270   -2.1108    0.1936 H   0  0  0  0  0  0  0  0  0  0  0  0
    6.0434   -2.1275    0.4595 H   0  0  0  0  0  0  0  0  0  0  0  0
    6.2728    1.9939   -0.4132 H   0  0  0  0  0  0  0  0  0  0  0  0
    3.8533    2.0912   -0.6989 H   0  0  0  0  0  0  0  0  0  0  0  0
    0.0998    1.2701   -1.1951 H   0  0  0  0  0  0  0  0  0  0  0  0
   -1.0535    2.1483   -0.1984 H   0  0  0  0  0  0  0  0  0  0  0  0
   -2.3468    0.8311   -1.6567 H   0  0  0  0  0  0  0  0  0  0  0  0
   -1.2199   -0.5153   -1.6831 H   0  0  0  0  0  0  0  0  0  0  0  0
  2  3  2  0
  3  4  1  0
  4  5  1  0
  5  6  2  0
  6  7  1  0
  7  8  2  0
  8  9  1  0
  9 10  2  0
 10 11  1  0
 11 12  1  0
 12 13  1  0
 13 14  1  0
 14 15  1  0
 15 16  1  0
 16 17  1  0
 17 18  2  0
 18 19  1  0
 19 20  2  0
 20 21  1  0
 21 22  1  0
 21 23  1  0
 21 24  1  0
 20 25  1  0
 25 26  2  0
 14 27  1  0
 27 28  1  0
 11 29  1  0
 29  3  1  0
 10  5  1  0
 28 11  1  0
 26 17  1  0
  1 30  1  0
  4 31  1  0
  6 32  1  0
  7 33  1  0
  8 34  1  0
  9 35  1  0
 12 36  1  0
 12 37  1  0
 13 38  1  0
 13 39  1  0
 15 40  1  0
 15 41  1  0
 16 42  1  0
 16 43  1  0
 18 44  1  0
 19 45  1  0
 25 46  1  0
 26 47  1  0
 27 48  1  0
 27 49  1  0
 28 50  1  0
 28 51  1  0
M  END
$$$$
