
     RDKit          3D

 74 77  0  0  0  0  0  0  0  0999 V2000
    7.7113    0.6750   -2.5279 C   0  0  0  0  0  0  0  0  0  0  0  0
    7.1902    0.1282   -1.1962 C   0  0  0  0  0  0  0  0  0  0  0  0
    7.9856    0.7404   -0.0422 C   0  0  0  0  0  0  0  0  0  0  0  0
    5.6792    0.4000   -1.0770 C   0  0  0  0  0  0  0  0  0  0  0  0
    5.0325   -0.2710    0.1400 C   0  0  0  0  0  0  0  0  0  0  0  0
    3.5147   -0.0331    0.1596 C   0  0  0  0  0  0  0  0  0  0  0  0
    2.8250   -0.7172    1.3563 C   0  0  0  0  0  0  0  0  0  0  0  0
    3.0346    0.0785    2.6524 C   0  0  0  0  0  0  0  0  0  0  0  0
    1.3308   -1.0966    1.1592 C   0  0  0  0  0  0  0  0  0  0  0  0
    1.1639   -2.2791    0.1824 C   0  0  0  0  0  0  0  0  0  0  0  0
   -0.2782   -2.1948   -0.2911 C   0  0  0  0  0  0  0  0  0  0  0  0
   -0.4552   -0.6930   -0.5145 C   0  0  0  0  0  0  0  0  0  0  0  0
   -1.8887   -0.1946   -0.8314 C   0  0  0  0  0  0  0  0  0  0  0  0
   -2.5116   -0.9659   -2.0109 C   0  0  0  0  0  0  0  0  0  0  0  0
   -4.0023   -0.8911   -2.1126 C   0  0  0  0  0  0  0  0  0  0  0  0
   -4.8082   -0.3089   -1.2079 C   0  0  0  0  0  0  0  0  0  0  0  0
   -6.3066   -0.4892   -1.3314 C   0  0  0  0  0  0  0  0  0  0  0  0
   -7.1313    0.5284   -0.5457 C   0  0  0  0  0  0  0  0  0  0  0  0
   -8.5157    0.1782   -0.5802 O   0  0  0  0  0  0  0  0  0  0  0  0
   -6.6966    0.6325    0.9173 C   0  0  0  0  0  0  0  0  0  0  0  0
   -5.2502    0.1962    1.1900 C   0  0  0  0  0  0  0  0  0  0  0  0
   -4.2613    0.4284    0.0165 C   0  0  0  0  0  0  0  0  0  0  0  0
   -4.1807    1.9440   -0.2979 C   0  0  0  0  0  0  0  0  0  0  0  0
   -2.8348   -0.1488    0.3951 C   0  0  0  0  0  0  0  0  0  0  0  0
   -2.1590    0.6153    1.5499 C   0  0  0  0  0  0  0  0  0  0  0  0
   -0.8099    0.0105    1.9194 C   0  0  0  0  0  0  0  0  0  0  0  0
    0.2088   -0.0596    0.7477 C   0  0  0  0  0  0  0  0  0  0  0  0
    0.6728    1.3609    0.3981 C   0  0  0  0  0  0  0  0  0  0  0  0
    7.5750    1.7598   -2.5930 H   0  0  0  0  0  0  0  0  0  0  0  0
    7.1836    0.2158   -3.3706 H   0  0  0  0  0  0  0  0  0  0  0  0
    8.7783    0.4585   -2.6472 H   0  0  0  0  0  0  0  0  0  0  0  0
    7.3559   -0.9565   -1.1914 H   0  0  0  0  0  0  0  0  0  0  0  0
    7.7982    1.8163    0.0423 H   0  0  0  0  0  0  0  0  0  0  0  0
    9.0610    0.5968   -0.1930 H   0  0  0  0  0  0  0  0  0  0  0  0
    7.7291    0.2737    0.9126 H   0  0  0  0  0  0  0  0  0  0  0  0
    5.4997    1.4822   -1.0361 H   0  0  0  0  0  0  0  0  0  0  0  0
    5.1816    0.0330   -1.9843 H   0  0  0  0  0  0  0  0  0  0  0  0
    5.4750    0.1227    1.0601 H   0  0  0  0  0  0  0  0  0  0  0  0
    5.2355   -1.3481    0.1123 H   0  0  0  0  0  0  0  0  0  0  0  0
    3.0945   -0.3956   -0.7844 H   0  0  0  0  0  0  0  0  0  0  0  0
    3.3481    1.0482    0.1945 H   0  0  0  0  0  0  0  0  0  0  0  0
    3.3427   -1.6751    1.5157 H   0  0  0  0  0  0  0  0  0  0  0  0
    4.0990    0.1528    2.8979 H   0  0  0  0  0  0  0  0  0  0  0  0
    2.6432    1.0961    2.5857 H   0  0  0  0  0  0  0  0  0  0  0  0
    2.5450   -0.4165    3.4977 H   0  0  0  0  0  0  0  0  0  0  0  0
    1.0367   -1.5187    2.1324 H   0  0  0  0  0  0  0  0  0  0  0  0
    1.3719   -3.2394    0.6662 H   0  0  0  0  0  0  0  0  0  0  0  0
    1.8379   -2.1921   -0.6765 H   0  0  0  0  0  0  0  0  0  0  0  0
   -0.4089   -2.7833   -1.2035 H   0  0  0  0  0  0  0  0  0  0  0  0
   -0.9650   -2.5795    0.4704 H   0  0  0  0  0  0  0  0  0  0  0  0
    0.1607   -0.4403   -1.3923 H   0  0  0  0  0  0  0  0  0  0  0  0
   -1.7630    0.8403   -1.1770 H   0  0  0  0  0  0  0  0  0  0  0  0
   -2.2752   -2.0320   -1.9464 H   0  0  0  0  0  0  0  0  0  0  0  0
   -2.0688   -0.6062   -2.9476 H   0  0  0  0  0  0  0  0  0  0  0  0
   -4.4372   -1.4285   -2.9532 H   0  0  0  0  0  0  0  0  0  0  0  0
   -6.5662   -1.4968   -0.9784 H   0  0  0  0  0  0  0  0  0  0  0  0
   -6.6135   -0.4565   -2.3849 H   0  0  0  0  0  0  0  0  0  0  0  0
   -7.0530    1.5108   -1.0235 H   0  0  0  0  0  0  0  0  0  0  0  0
   -8.7768    0.0975   -1.5139 H   0  0  0  0  0  0  0  0  0  0  0  0
   -7.3669    0.0522    1.5643 H   0  0  0  0  0  0  0  0  0  0  0  0
   -6.8248    1.6743    1.2391 H   0  0  0  0  0  0  0  0  0  0  0  0
   -5.2615   -0.8746    1.4392 H   0  0  0  0  0  0  0  0  0  0  0  0
   -4.9150    0.7112    2.0973 H   0  0  0  0  0  0  0  0  0  0  0  0
   -3.9413    2.5252    0.5990 H   0  0  0  0  0  0  0  0  0  0  0  0
   -3.4243    2.1701   -1.0551 H   0  0  0  0  0  0  0  0  0  0  0  0
   -5.1189    2.3500   -0.6836 H   0  0  0  0  0  0  0  0  0  0  0  0
   -2.9809   -1.1857    0.7336 H   0  0  0  0  0  0  0  0  0  0  0  0
   -2.0243    1.6713    1.3000 H   0  0  0  0  0  0  0  0  0  0  0  0
   -2.7904    0.5863    2.4436 H   0  0  0  0  0  0  0  0  0  0  0  0
   -0.3736    0.5800    2.7504 H   0  0  0  0  0  0  0  0  0  0  0  0
   -1.0086   -0.9942    2.3158 H   0  0  0  0  0  0  0  0  0  0  0  0
    1.3269    1.3678   -0.4776 H   0  0  0  0  0  0  0  0  0  0  0  0
   -0.1688    2.0109    0.1380 H   0  0  0  0  0  0  0  0  0  0  0  0
    1.1886    1.8419    1.2309 H   0  0  0  0  0  0  0  0  0  0  0  0
  1  2  1  0
  2  3  1  0
  2  4  1  0
  4  5  1  0
  5  6  1  0
  6  7  1  0
  7  8  1  0
  7  9  1  0
  9 10  1  0
 10 11  1  0
 11 12  1  0
 12 13  1  0
 13 14  1  0
 14 15  1  0
 15 16  2  0
 16 17  1  0
 17 18  1  0
 18 19  1  0
 18 20  1  0
 20 21  1  0
 21 22  1  0
 22 23  1  0
 22 24  1  0
 24 25  1  0
 25 26  1  0
 26 27  1  0
 27 28  1  0
 27  9  1  0
 27 12  1  0
 24 13  1  0
 22 16  1  0
  1 29  1  0
  1 30  1  0
  1 31  1  0
  2 32  1  0
  3 33  1  0
  3 34  1  0
  3 35  1  0
  4 36  1  0
  4 37  1  0
  5 38  1  0
  5 39  1  0
  6 40  1  0
  6 41  1  0
  7 42  1  0
  8 43  1  0
  8 44  1  0
  8 45  1  0
  9 46  1  0
 10 47  1  0
 10 48  1  0
 11 49  1  0
 11 50  1  0
 12 51  1  0
 13 52  1  0
 14 53  1  0
 14 54  1  0
 15 55  1  0
 17 56  1  0
 17 57  1  0
 18 58  1  0
 19 59  1  0
 20 60  1  0
 20 61  1  0
 21 62  1  0
 21 63  1  0
 23 64  1  0
 23 65  1  0
 23 66  1  0
 24 67  1  0
 25 68  1  0
 25 69  1  0
 26 70  1  0
 26 71  1  0
 28 72  1  0
 28 73  1  0
 28 74  1  0
M  END
$$$$
