
     RDKit          3D

 49 51  0  0  0  0  0  0  0  0999 V2000
   -6.0008   -1.3757   -1.8957 C   0  0  0  0  0  0  0  0  0  0  0  0
   -4.7228   -1.4455   -1.2772 O   0  0  0  0  0  0  0  0  0  0  0  0
   -4.5101   -0.6853   -0.1570 C   0  0  0  0  0  0  0  0  0  0  0  0
   -5.4174    0.2747    0.3085 C   0  0  0  0  0  0  0  0  0  0  0  0
   -5.1638    0.9866    1.4816 C   0  0  0  0  0  0  0  0  0  0  0  0
   -4.0065    0.7382    2.2125 C   0  0  0  0  0  0  0  0  0  0  0  0
   -3.0805   -0.2189    1.7733 C   0  0  0  0  0  0  0  0  0  0  0  0
   -1.8362   -0.4633    2.5885 C   0  0  0  0  0  0  0  0  0  0  0  0
   -0.6912    0.1912    1.9993 N   0  0  0  0  0  0  0  0  0  0  0  0
    0.4667    0.3766    2.7142 C   0  0  0  0  0  0  0  0  0  0  0  0
    0.5799    0.2039    3.9201 O   0  0  0  0  0  0  0  0  0  0  0  0
    1.6168    0.8731    1.9288 C   0  0  0  0  0  0  0  0  0  0  0  0
    2.1490    2.0944    2.3340 C   0  0  0  0  0  0  0  0  0  0  0  0
    3.1869    2.6089    1.5957 C   0  0  0  0  0  0  0  0  0  0  0  0
    3.7077    1.9945    0.5128 N   0  0  0  0  0  0  0  0  0  0  0  0
    3.2113    0.7895    0.1368 C   0  0  0  0  0  0  0  0  0  0  0  0
    3.7739    0.1424   -0.9780 C   0  0  0  0  0  0  0  0  0  0  0  0
    4.8255    0.8366   -1.6273 N   0  0  0  0  0  0  0  0  0  0  0  0
    5.5350    0.4694   -2.7478 C   0  0  0  0  0  0  0  0  0  0  0  0
    6.5888    1.4799   -3.1267 C   0  0  0  0  0  0  0  0  0  0  0  0
    5.3627   -0.5377   -3.4262 O   0  0  0  0  0  0  0  0  0  0  0  0
    3.3140   -1.1094   -1.3940 C   0  0  0  0  0  0  0  0  0  0  0  0
    2.2900   -1.7405   -0.6981 C   0  0  0  0  0  0  0  0  0  0  0  0
    1.7161   -1.1147    0.4042 C   0  0  0  0  0  0  0  0  0  0  0  0
    2.1530    0.1641    0.8283 C   0  0  0  0  0  0  0  0  0  0  0  0
   -3.3163   -0.9037    0.5620 C   0  0  0  0  0  0  0  0  0  0  0  0
   -2.3387   -1.8036    0.2023 O   0  0  0  0  0  0  0  0  0  0  0  0
   -2.0185   -1.8422   -1.1857 C   0  0  0  0  0  0  0  0  0  0  0  0
   -6.1676   -0.3890   -2.3394 H   0  0  0  0  0  0  0  0  0  0  0  0
   -6.0193   -2.1107   -2.7061 H   0  0  0  0  0  0  0  0  0  0  0  0
   -6.7992   -1.6362   -1.1931 H   0  0  0  0  0  0  0  0  0  0  0  0
   -6.3395    0.4940   -0.2198 H   0  0  0  0  0  0  0  0  0  0  0  0
   -5.8765    1.7300    1.8306 H   0  0  0  0  0  0  0  0  0  0  0  0
   -3.8269    1.2948    3.1305 H   0  0  0  0  0  0  0  0  0  0  0  0
   -1.6212   -1.5361    2.6588 H   0  0  0  0  0  0  0  0  0  0  0  0
   -1.9649   -0.1073    3.6177 H   0  0  0  0  0  0  0  0  0  0  0  0
   -0.6765    0.2716    0.9909 H   0  0  0  0  0  0  0  0  0  0  0  0
    1.7554    2.6255    3.1942 H   0  0  0  0  0  0  0  0  0  0  0  0
    3.6423    3.5606    1.8559 H   0  0  0  0  0  0  0  0  0  0  0  0
    5.0413    1.7253   -1.1787 H   0  0  0  0  0  0  0  0  0  0  0  0
    6.1917    2.1376   -3.9042 H   0  0  0  0  0  0  0  0  0  0  0  0
    7.4705    0.9543   -3.5047 H   0  0  0  0  0  0  0  0  0  0  0  0
    6.8977    2.0818   -2.2673 H   0  0  0  0  0  0  0  0  0  0  0  0
    3.7464   -1.6218   -2.2478 H   0  0  0  0  0  0  0  0  0  0  0  0
    1.9465   -2.7239   -1.0110 H   0  0  0  0  0  0  0  0  0  0  0  0
    0.9324   -1.6469    0.9414 H   0  0  0  0  0  0  0  0  0  0  0  0
   -0.9702   -2.1437   -1.2734 H   0  0  0  0  0  0  0  0  0  0  0  0
   -2.6170   -2.6034   -1.6939 H   0  0  0  0  0  0  0  0  0  0  0  0
   -2.1198   -0.8645   -1.6698 H   0  0  0  0  0  0  0  0  0  0  0  0
  1  2  1  0
  2  3  1  0
  3  4  2  0
  4  5  1  0
  5  6  2  0
  6  7  1  0
  7  8  1  0
  8  9  1  0
  9 10  1  0
 10 11  2  0
 10 12  1  0
 12 13  2  0
 13 14  1  0
 14 15  2  0
 15 16  1  0
 16 17  2  0
 17 18  1  0
 18 19  1  0
 19 20  1  0
 19 21  2  0
 17 22  1  0
 22 23  2  0
 23 24  1  0
 24 25  2  0
  7 26  2  0
 26 27  1  0
 27 28  1  0
 26  3  1  0
 25 12  1  0
 25 16  1  0
  1 29  1  0
  1 30  1  0
  1 31  1  0
  4 32  1  0
  5 33  1  0
  6 34  1  0
  8 35  1  0
  8 36  1  0
  9 37  1  0
 13 38  1  0
 14 39  1  0
 18 40  1  0
 20 41  1  0
 20 42  1  0
 20 43  1  0
 22 44  1  0
 23 45  1  0
 24 46  1  0
 28 47  1  0
 28 48  1  0
 28 49  1  0
M  END
$$$$
