
     RDKit          3D

 54 57  0  0  0  0  0  0  0  0999 V2000
    7.0300   -0.4274    0.6060 C   0  0  0  0  0  0  0  0  0  0  0  0
    6.4016   -0.3206   -0.5716 C   0  0  0  0  0  0  0  0  0  0  0  0
    5.1128   -1.0246   -0.8018 C   0  0  0  0  0  0  0  0  0  0  0  0
    4.8523   -2.0514   -0.1783 O   0  0  0  0  0  0  0  0  0  0  0  0
    4.2619   -0.4719   -1.7548 N   0  0  0  0  0  0  0  0  0  0  0  0
    4.2286    0.9536   -2.0814 C   0  0  0  0  0  0  0  0  0  0  0  0
    3.1879    1.6586   -1.2167 C   0  0  0  0  0  0  0  0  0  0  0  0
    1.8130    0.9785   -1.3255 C   0  0  0  0  0  0  0  0  0  0  0  0
    0.8806    1.7385   -0.5314 O   0  0  0  0  0  0  0  0  0  0  0  0
    0.1985    1.0699    0.4421 C   0  0  0  0  0  0  0  0  0  0  0  0
   -1.1298    0.7444    0.1803 C   0  0  0  0  0  0  0  0  0  0  0  0
   -1.9143    0.0845    1.1559 C   0  0  0  0  0  0  0  0  0  0  0  0
   -3.2576   -0.3084    0.9871 C   0  0  0  0  0  0  0  0  0  0  0  0
   -3.8918   -0.0696   -0.2603 N   0  0  0  0  0  0  0  0  0  0  0  0
   -5.2646   -0.1886   -0.5829 C   0  0  0  0  0  0  0  0  0  0  0  0
   -6.2859    0.0890    0.3302 C   0  0  0  0  0  0  0  0  0  0  0  0
   -7.6289    0.0156   -0.0546 C   0  0  0  0  0  0  0  0  0  0  0  0
   -7.9710   -0.3158   -1.3685 C   0  0  0  0  0  0  0  0  0  0  0  0
   -9.6511   -0.3841   -1.7656 Cl  0  0  0  0  0  0  0  0  0  0  0  0
   -6.9668   -0.5678   -2.3057 C   0  0  0  0  0  0  0  0  0  0  0  0
   -7.3185   -0.9658   -3.9501 Cl  0  0  0  0  0  0  0  0  0  0  0  0
   -5.6303   -0.4921   -1.9051 C   0  0  0  0  0  0  0  0  0  0  0  0
   -4.6465   -0.7228   -2.7939 F   0  0  0  0  0  0  0  0  0  0  0  0
   -3.9541   -0.9036    1.9721 N   0  0  0  0  0  0  0  0  0  0  0  0
   -3.3054   -1.1255    3.1183 C   0  0  0  0  0  0  0  0  0  0  0  0
   -2.0338   -0.8078    3.3808 N   0  0  0  0  0  0  0  0  0  0  0  0
   -1.3496   -0.2050    2.4057 C   0  0  0  0  0  0  0  0  0  0  0  0
   -0.0284    0.1552    2.6529 C   0  0  0  0  0  0  0  0  0  0  0  0
    0.7598    0.7908    1.6892 C   0  0  0  0  0  0  0  0  0  0  0  0
    2.0525    1.1928    1.8896 O   0  0  0  0  0  0  0  0  0  0  0  0
    2.7758    0.5222    2.9152 C   0  0  0  0  0  0  0  0  0  0  0  0
    1.9089   -0.5448   -1.0968 C   0  0  0  0  0  0  0  0  0  0  0  0
    2.9908   -1.1504   -1.9862 C   0  0  0  0  0  0  0  0  0  0  0  0
    6.6076   -1.0068    1.4221 H   0  0  0  0  0  0  0  0  0  0  0  0
    7.9862    0.0550    0.7731 H   0  0  0  0  0  0  0  0  0  0  0  0
    6.8451    0.2284   -1.3905 H   0  0  0  0  0  0  0  0  0  0  0  0
    5.1995    1.4322   -1.9422 H   0  0  0  0  0  0  0  0  0  0  0  0
    3.9707    1.0460   -3.1432 H   0  0  0  0  0  0  0  0  0  0  0  0
    3.5184    1.6596   -0.1721 H   0  0  0  0  0  0  0  0  0  0  0  0
    3.1069    2.7125   -1.5084 H   0  0  0  0  0  0  0  0  0  0  0  0
    1.4682    1.1179   -2.3595 H   0  0  0  0  0  0  0  0  0  0  0  0
   -1.5521    1.0212   -0.7823 H   0  0  0  0  0  0  0  0  0  0  0  0
   -3.3157   -0.4425   -1.0132 H   0  0  0  0  0  0  0  0  0  0  0  0
   -6.0494    0.3726    1.3533 H   0  0  0  0  0  0  0  0  0  0  0  0
   -8.4035    0.2265    0.6803 H   0  0  0  0  0  0  0  0  0  0  0  0
   -3.8635   -1.6096    3.9127 H   0  0  0  0  0  0  0  0  0  0  0  0
    0.3671   -0.0609    3.6410 H   0  0  0  0  0  0  0  0  0  0  0  0
    2.6884   -0.5662    2.8248 H   0  0  0  0  0  0  0  0  0  0  0  0
    3.8330    0.7817    2.8013 H   0  0  0  0  0  0  0  0  0  0  0  0
    2.4528    0.8641    3.9038 H   0  0  0  0  0  0  0  0  0  0  0  0
    0.9453   -1.0223   -1.3047 H   0  0  0  0  0  0  0  0  0  0  0  0
    2.1530   -0.7662   -0.0525 H   0  0  0  0  0  0  0  0  0  0  0  0
    3.0831   -2.2243   -1.7926 H   0  0  0  0  0  0  0  0  0  0  0  0
    2.7327   -1.0320   -3.0453 H   0  0  0  0  0  0  0  0  0  0  0  0
  1  2  2  3
  2  3  1  0
  3  4  2  0
  3  5  1  0
  5  6  1  0
  6  7  1  0
  7  8  1  0
  8  9  1  0
  9 10  1  0
 10 11  2  0
 11 12  1  0
 12 13  2  0
 13 14  1  0
 14 15  1  0
 15 16  2  0
 16 17  1  0
 17 18  2  0
 18 19  1  0
 18 20  1  0
 20 21  1  0
 20 22  2  0
 22 23  1  0
 13 24  1  0
 24 25  2  0
 25 26  1  0
 26 27  2  0
 27 28  1  0
 28 29  2  0
 29 30  1  0
 30 31  1  0
  8 32  1  0
 32 33  1  0
 33  5  1  0
 29 10  1  0
 27 12  1  0
 22 15  1  0
  1 34  1  0
  1 35  1  0
  2 36  1  0
  6 37  1  0
  6 38  1  0
  7 39  1  0
  7 40  1  0
  8 41  1  0
 11 42  1  0
 14 43  1  0
 16 44  1  0
 17 45  1  0
 25 46  1  0
 28 47  1  0
 31 48  1  0
 31 49  1  0
 31 50  1  0
 32 51  1  0
 32 52  1  0
 33 53  1  0
 33 54  1  0
M  END
$$$$
