
     RDKit          3D

 41 43  0  0  0  0  0  0  0  0999 V2000
   -2.9718    0.8142    1.3732 C   0  0  0  0  0  0  0  0  0  0  0  0
   -1.8835    0.5883    0.4749 O   0  0  0  0  0  0  0  0  0  0  0  0
   -2.2758    0.7482   -0.8244 C   0  0  0  0  0  0  0  0  0  0  0  0
   -2.4572    2.0503   -1.3059 C   0  0  0  0  0  0  0  0  0  0  0  0
   -2.8082    2.2683   -2.6387 C   0  0  0  0  0  0  0  0  0  0  0  0
   -2.9681    1.1869   -3.5029 C   0  0  0  0  0  0  0  0  0  0  0  0
   -2.7631   -0.1126   -3.0367 C   0  0  0  0  0  0  0  0  0  0  0  0
   -2.3959   -0.3336   -1.6985 C   0  0  0  0  0  0  0  0  0  0  0  0
   -2.1641   -2.0155   -1.1689 S   0  0  0  0  0  6  0  0  0  0  0  0
   -2.9171   -2.8539   -2.0828 O   0  0  0  0  0  0  0  0  0  0  0  0
   -2.3838   -2.1266    0.2574 O   0  0  0  0  0  0  0  0  0  0  0  0
   -0.5413   -2.3243   -1.5250 N   0  0  0  0  0  0  0  0  0  0  0  0
    0.4734   -1.4785   -1.0027 C   0  0  0  0  0  0  0  0  0  0  0  0
    1.2702   -0.7533   -1.8921 C   0  0  0  0  0  0  0  0  0  0  0  0
    2.2528    0.1103   -1.4033 C   0  0  0  0  0  0  0  0  0  0  0  0
    2.4352    0.2346   -0.0272 C   0  0  0  0  0  0  0  0  0  0  0  0
    1.6500   -0.4869    0.8659 C   0  0  0  0  0  0  0  0  0  0  0  0
    0.6647   -1.3508    0.3730 C   0  0  0  0  0  0  0  0  0  0  0  0
    1.8118   -0.2373    2.3312 C   0  0  0  0  0  0  0  0  0  0  0  0
    3.0901    0.3634    2.6788 N   0  0  0  0  0  0  0  0  0  0  0  0
    3.3993    0.4661    4.0910 C   0  0  0  0  0  0  0  0  0  0  0  0
    3.7700    1.1736    1.7929 C   0  0  0  0  0  0  0  0  0  0  0  0
    4.6889    1.9265    2.1140 O   0  0  0  0  0  0  0  0  0  0  0  0
    3.4111    1.0880    0.4779 N   0  0  0  0  0  0  0  0  0  0  0  0
   -3.8442    0.2056    1.1100 H   0  0  0  0  0  0  0  0  0  0  0  0
   -2.6415    0.5224    2.3747 H   0  0  0  0  0  0  0  0  0  0  0  0
   -3.2439    1.8746    1.4048 H   0  0  0  0  0  0  0  0  0  0  0  0
   -2.3146    2.9013   -0.6439 H   0  0  0  0  0  0  0  0  0  0  0  0
   -2.9546    3.2826   -3.0023 H   0  0  0  0  0  0  0  0  0  0  0  0
   -3.2503    1.3559   -4.5404 H   0  0  0  0  0  0  0  0  0  0  0  0
   -2.8941   -0.9470   -3.7231 H   0  0  0  0  0  0  0  0  0  0  0  0
   -0.4231   -2.6987   -2.4642 H   0  0  0  0  0  0  0  0  0  0  0  0
    1.1291   -0.8407   -2.9653 H   0  0  0  0  0  0  0  0  0  0  0  0
    2.8659    0.6751   -2.1001 H   0  0  0  0  0  0  0  0  0  0  0  0
    0.0387   -1.9081    1.0667 H   0  0  0  0  0  0  0  0  0  0  0  0
    1.7300   -1.1851    2.8760 H   0  0  0  0  0  0  0  0  0  0  0  0
    1.0197    0.4403    2.6729 H   0  0  0  0  0  0  0  0  0  0  0  0
    3.2646   -0.5114    4.5625 H   0  0  0  0  0  0  0  0  0  0  0  0
    4.4311    0.7928    4.2500 H   0  0  0  0  0  0  0  0  0  0  0  0
    2.7220    1.1935    4.5478 H   0  0  0  0  0  0  0  0  0  0  0  0
    3.9779    1.6435   -0.1472 H   0  0  0  0  0  0  0  0  0  0  0  0
  1  2  1  0
  2  3  1  0
  3  4  2  0
  4  5  1  0
  5  6  2  0
  6  7  1  0
  7  8  2  0
  8  9  1  0
  9 10  2  0
  9 11  2  0
  9 12  1  0
 12 13  1  0
 13 14  2  0
 14 15  1  0
 15 16  2  0
 16 17  1  0
 17 18  2  0
 17 19  1  0
 19 20  1  0
 20 21  1  0
 20 22  1  0
 22 23  2  0
 22 24  1  0
  8  3  1  0
 18 13  1  0
 24 16  1  0
  1 25  1  0
  1 26  1  0
  1 27  1  0
  4 28  1  0
  5 29  1  0
  6 30  1  0
  7 31  1  0
 12 32  1  0
 14 33  1  0
 15 34  1  0
 18 35  1  0
 19 36  1  0
 19 37  1  0
 21 38  1  0
 21 39  1  0
 21 40  1  0
 24 41  1  0
M  END
$$$$
