
     RDKit          3D

 45 48  0  0  0  0  0  0  0  0999 V2000
    1.1575    1.8776    1.7641 O   0  0  0  0  0  0  0  0  0  0  0  0
    1.7038    1.0455    1.0448 C   0  0  0  0  0  0  0  0  0  0  0  0
    1.1148   -0.3103    0.9703 C   0  0  0  0  0  0  0  0  0  0  0  0
    1.8969   -1.4499    1.2284 C   0  0  0  0  0  0  0  0  0  0  0  0
    1.3309   -2.7207    1.1351 C   0  0  0  0  0  0  0  0  0  0  0  0
   -0.0178   -2.8161    0.8217 C   0  0  0  0  0  0  0  0  0  0  0  0
   -0.8107   -1.6813    0.6259 C   0  0  0  0  0  0  0  0  0  0  0  0
   -0.2504   -0.4193    0.6720 C   0  0  0  0  0  0  0  0  0  0  0  0
   -2.1407   -2.0750    0.2609 N   0  0  0  0  0  0  0  0  0  0  0  0
   -3.4823   -1.1766    0.7914 S   0  0  0  0  0  6  0  0  0  0  0  0
   -3.2737   -0.8569    2.1905 O   0  0  0  0  0  0  0  0  0  0  0  0
   -4.6854   -1.8738    0.3816 O   0  0  0  0  0  0  0  0  0  0  0  0
   -3.4304    0.3217   -0.1287 C   0  0  0  0  0  0  0  0  0  0  0  0
   -3.4308    1.5578    0.5274 C   0  0  0  0  0  0  0  0  0  0  0  0
   -3.3867    2.7336   -0.2237 C   0  0  0  0  0  0  0  0  0  0  0  0
   -3.3517    2.6726   -1.6183 C   0  0  0  0  0  0  0  0  0  0  0  0
   -3.3618    1.4352   -2.2645 C   0  0  0  0  0  0  0  0  0  0  0  0
   -3.4031    0.2618   -1.5156 C   0  0  0  0  0  0  0  0  0  0  0  0
   -3.4053   -0.9102   -2.1643 F   0  0  0  0  0  0  0  0  0  0  0  0
   -2.2441   -3.5428    0.5511 C   0  0  0  0  0  0  0  0  0  0  0  0
   -0.8029   -4.0684    0.5936 C   0  0  0  0  0  0  0  0  0  0  0  0
    2.8238    1.3214    0.2839 N   0  0  0  0  0  0  0  0  0  0  0  0
    3.4250    2.6430    0.3187 C   0  0  0  0  0  0  0  0  0  0  0  0
    4.6444    2.5266   -0.5824 C   0  0  0  0  0  0  0  0  0  0  0  0
    4.1921    1.5113   -1.6244 C   0  0  0  0  0  0  0  0  0  0  0  0
    3.3732    0.5223   -0.8040 C   0  0  0  0  0  0  0  0  0  0  0  0
    2.9437   -1.3442    1.5020 H   0  0  0  0  0  0  0  0  0  0  0  0
    1.9328   -3.6087    1.3021 H   0  0  0  0  0  0  0  0  0  0  0  0
   -0.8176    0.4819    0.4866 H   0  0  0  0  0  0  0  0  0  0  0  0
   -3.4568    1.6133    1.6142 H   0  0  0  0  0  0  0  0  0  0  0  0
   -3.3783    3.6984    0.2796 H   0  0  0  0  0  0  0  0  0  0  0  0
   -3.3187    3.5903   -2.2011 H   0  0  0  0  0  0  0  0  0  0  0  0
   -3.3387    1.3779   -3.3486 H   0  0  0  0  0  0  0  0  0  0  0  0
   -2.7200   -3.7059    1.5263 H   0  0  0  0  0  0  0  0  0  0  0  0
   -2.8308   -4.0522   -0.2194 H   0  0  0  0  0  0  0  0  0  0  0  0
   -0.5222   -4.5136   -0.3668 H   0  0  0  0  0  0  0  0  0  0  0  0
   -0.6680   -4.8018    1.3936 H   0  0  0  0  0  0  0  0  0  0  0  0
    3.6749    2.9273    1.3452 H   0  0  0  0  0  0  0  0  0  0  0  0
    2.6990    3.3594   -0.0825 H   0  0  0  0  0  0  0  0  0  0  0  0
    4.9409    3.4846   -1.0176 H   0  0  0  0  0  0  0  0  0  0  0  0
    5.4944    2.1251   -0.0177 H   0  0  0  0  0  0  0  0  0  0  0  0
    3.5521    2.0030   -2.3670 H   0  0  0  0  0  0  0  0  0  0  0  0
    5.0246    1.0356   -2.1498 H   0  0  0  0  0  0  0  0  0  0  0  0
    4.0213   -0.2444   -0.3677 H   0  0  0  0  0  0  0  0  0  0  0  0
    2.5828    0.0450   -1.3900 H   0  0  0  0  0  0  0  0  0  0  0  0
  1  2  2  0
  2  3  1  0
  3  4  2  0
  4  5  1  0
  5  6  2  0
  6  7  1  0
  7  8  2  0
  7  9  1  0
  9 10  1  0
 10 11  2  0
 10 12  2  0
 10 13  1  0
 13 14  2  0
 14 15  1  0
 15 16  2  0
 16 17  1  0
 17 18  2  0
 18 19  1  0
  9 20  1  0
 20 21  1  0
  2 22  1  0
 22 23  1  0
 23 24  1  0
 24 25  1  0
 25 26  1  0
  8  3  1  0
 18 13  1  0
 26 22  1  0
 21  6  1  0
  4 27  1  0
  5 28  1  0
  8 29  1  0
 14 30  1  0
 15 31  1  0
 16 32  1  0
 17 33  1  0
 20 34  1  0
 20 35  1  0
 21 36  1  0
 21 37  1  0
 23 38  1  0
 23 39  1  0
 24 40  1  0
 24 41  1  0
 25 42  1  0
 25 43  1  0
 26 44  1  0
 26 45  1  0
M  END
$$$$
