
     RDKit          3D

 34 34  0  0  0  0  0  0  0  0999 V2000
    4.4819    0.9539   -1.1612 C   0  0  0  0  0  0  0  0  0  0  0  0
    4.2233   -0.5263   -0.9189 C   0  0  0  0  0  0  0  0  0  0  0  0
    2.7958   -0.9544   -1.2709 C   0  0  0  0  0  0  0  0  0  0  0  0
    1.8322   -1.0236   -0.0801 C   0  0  0  0  0  0  0  0  0  0  0  0
    1.5763    0.3235    0.5986 C   0  0  0  0  0  0  0  0  0  0  0  0
    0.5222    0.2348    1.7055 C   0  0  0  0  0  0  0  0  0  0  0  0
   -0.8092   -0.0657    1.2098 N   0  0  0  0  0  0  0  0  0  0  0  0
   -1.5687    0.9150    0.5861 C   0  0  0  0  0  0  0  0  0  0  0  0
   -1.1776    2.0769    0.5139 O   0  0  0  0  0  0  0  0  0  0  0  0
   -2.8299    0.4850    0.1663 N   0  0  0  0  0  0  0  0  0  0  0  0
   -3.5385   -0.4843    0.8674 C   0  0  0  0  0  0  0  0  0  0  0  0
   -4.7483   -0.8949    0.4907 C   0  0  0  0  0  0  0  0  0  0  0  0
   -5.4315   -1.8353    1.1675 F   0  0  0  0  0  0  0  0  0  0  0  0
   -5.3850   -0.3099   -0.7006 C   0  0  0  0  0  0  0  0  0  0  0  0
   -6.4505   -0.7111   -1.1498 O   0  0  0  0  0  0  0  0  0  0  0  0
   -4.6744    0.7090   -1.2757 N   0  0  0  0  0  0  0  0  0  0  0  0
   -3.3748    1.0679   -0.9792 C   0  0  0  0  0  0  0  0  0  0  0  0
   -2.7829    1.7923   -1.7762 O   0  0  0  0  0  0  0  0  0  0  0  0
    3.8397    1.5893   -0.5472 H   0  0  0  0  0  0  0  0  0  0  0  0
    4.3120    1.2121   -2.2116 H   0  0  0  0  0  0  0  0  0  0  0  0
    5.5220    1.1970   -0.9209 H   0  0  0  0  0  0  0  0  0  0  0  0
    4.4656   -0.7866    0.1175 H   0  0  0  0  0  0  0  0  0  0  0  0
    4.9193   -1.0887   -1.5538 H   0  0  0  0  0  0  0  0  0  0  0  0
    2.3783   -0.3107   -2.0543 H   0  0  0  0  0  0  0  0  0  0  0  0
    2.8450   -1.9643   -1.6985 H   0  0  0  0  0  0  0  0  0  0  0  0
    2.2176   -1.7372    0.6586 H   0  0  0  0  0  0  0  0  0  0  0  0
    0.8848   -1.4361   -0.4470 H   0  0  0  0  0  0  0  0  0  0  0  0
    1.2766    1.0637   -0.1520 H   0  0  0  0  0  0  0  0  0  0  0  0
    2.5060    0.6785    1.0564 H   0  0  0  0  0  0  0  0  0  0  0  0
    0.4815    1.1864    2.2475 H   0  0  0  0  0  0  0  0  0  0  0  0
    0.7838   -0.5497    2.4234 H   0  0  0  0  0  0  0  0  0  0  0  0
   -0.9552   -1.0087    0.8786 H   0  0  0  0  0  0  0  0  0  0  0  0
   -3.0896   -0.8910    1.7676 H   0  0  0  0  0  0  0  0  0  0  0  0
   -5.0476    1.0932   -2.1317 H   0  0  0  0  0  0  0  0  0  0  0  0
  1  2  1  0
  2  3  1  0
  3  4  1  0
  4  5  1  0
  5  6  1  0
  6  7  1  0
  7  8  1  0
  8  9  2  0
  8 10  1  0
 10 11  1  0
 11 12  2  0
 12 13  1  0
 12 14  1  0
 14 15  2  0
 14 16  1  0
 16 17  1  0
 17 18  2  0
 17 10  1  0
  1 19  1  0
  1 20  1  0
  1 21  1  0
  2 22  1  0
  2 23  1  0
  3 24  1  0
  3 25  1  0
  4 26  1  0
  4 27  1  0
  5 28  1  0
  5 29  1  0
  6 30  1  0
  6 31  1  0
  7 32  1  0
 11 33  1  0
 16 34  1  0
M  END
$$$$
