
     RDKit          3D

 20 21  0  0  0  0  0  0  0  0999 V2000
   -2.2378   -2.7279   -0.9388 O   0  0  0  0  0  0  0  0  0  0  0  0
   -1.4807   -2.3470   -0.0364 N   0  0  0  0  0  4  0  0  0  0  0  0
   -0.9750   -3.0697    0.8321 O   0  0  0  0  0  1  0  0  0  0  0  0
   -1.1818   -0.9267    0.0171 C   0  0  0  0  0  0  0  0  0  0  0  0
   -2.2757   -0.0539    0.1128 C   0  0  0  0  0  0  0  0  0  0  0  0
   -2.0374    1.3107    0.1774 C   0  0  0  0  0  0  0  0  0  0  0  0
   -0.7228    1.7658    0.1412 C   0  0  0  0  0  0  0  0  0  0  0  0
   -0.5178    3.1240    0.2073 O   0  0  0  0  0  0  0  0  0  0  0  0
    0.3812    0.9187    0.0377 C   0  0  0  0  0  0  0  0  0  0  0  0
    1.6063    1.4834    0.0026 N   0  0  0  0  0  0  0  0  0  0  0  0
    2.6784    0.6704   -0.1079 C   0  0  0  0  0  0  0  0  0  0  0  0
    2.5899   -0.7032   -0.1901 C   0  0  0  0  0  0  0  0  0  0  0  0
    1.3244   -1.2790   -0.1533 C   0  0  0  0  0  0  0  0  0  0  0  0
    0.1660   -0.4720   -0.0304 C   0  0  0  0  0  0  0  0  0  0  0  0
   -3.2969   -0.4284    0.1385 H   0  0  0  0  0  0  0  0  0  0  0  0
   -2.8576    2.0192    0.2543 H   0  0  0  0  0  0  0  0  0  0  0  0
    0.4583    3.2215    0.1638 H   0  0  0  0  0  0  0  0  0  0  0  0
    3.6424    1.1717   -0.1304 H   0  0  0  0  0  0  0  0  0  0  0  0
    3.4816   -1.3143   -0.2793 H   0  0  0  0  0  0  0  0  0  0  0  0
    1.2550   -2.3633   -0.2184 H   0  0  0  0  0  0  0  0  0  0  0  0
  1  2  2  0
  2  3  1  0
  2  4  1  0
  4  5  2  0
  5  6  1  0
  6  7  2  0
  7  8  1  0
  7  9  1  0
  9 10  2  0
 10 11  1  0
 11 12  2  0
 12 13  1  0
 13 14  2  0
 14  4  1  0
 14  9  1  0
  5 15  1  0
  6 16  1  0
  8 17  1  0
 11 18  1  0
 12 19  1  0
 13 20  1  0
M  CHG  2   2   1   3  -1
M  END
$$$$
