
     RDKit          3D

 32 33  0  0  0  0  0  0  0  0999 V2000
    3.7327    0.9384   -1.6921 C   0  0  0  0  0  0  0  0  0  0  0  0
    2.9291    0.0321   -0.8091 C   0  0  0  0  0  0  0  0  0  0  0  0
    1.4917    0.2538   -0.7620 C   0  0  0  0  0  0  0  0  0  0  0  0
    0.6859   -0.5067    0.0074 C   0  0  0  0  0  0  0  0  0  0  0  0
   -0.8290   -0.3406    0.1007 C   0  0  0  0  0  0  0  0  0  0  0  0
   -1.4861    0.3240   -1.1285 C   0  0  0  0  0  0  0  0  0  0  0  0
   -3.0035    0.4151   -0.9695 C   0  0  0  0  0  0  0  0  0  0  0  0
   -3.3848    1.1646    0.3030 C   0  0  0  0  0  0  0  0  0  0  0  0
   -2.7274    0.5511    1.5347 C   0  0  0  0  0  0  0  0  0  0  0  0
   -1.2117    0.4358    1.3757 C   0  0  0  0  0  0  0  0  0  0  0  0
    1.2841   -1.5137    0.7421 N   0  0  0  0  0  0  0  0  0  0  0  0
    0.4476   -2.3220    1.5436 O   0  0  0  0  0  0  0  0  0  0  0  0
    2.6304   -1.8112    0.7708 C   0  0  0  0  0  0  0  0  0  0  0  0
    3.1131   -2.7190    1.4446 O   0  0  0  0  0  0  0  0  0  0  0  0
    3.4861   -0.9504   -0.0816 C   0  0  0  0  0  0  0  0  0  0  0  0
    3.4028    0.8533   -2.7331 H   0  0  0  0  0  0  0  0  0  0  0  0
    3.6216    1.9812   -1.3763 H   0  0  0  0  0  0  0  0  0  0  0  0
    4.8003    0.6949   -1.6619 H   0  0  0  0  0  0  0  0  0  0  0  0
    1.0999    1.0650   -1.3671 H   0  0  0  0  0  0  0  0  0  0  0  0
   -1.2738   -1.3442    0.1608 H   0  0  0  0  0  0  0  0  0  0  0  0
   -1.2525   -0.2472   -2.0351 H   0  0  0  0  0  0  0  0  0  0  0  0
   -1.0967    1.3391   -1.2747 H   0  0  0  0  0  0  0  0  0  0  0  0
   -3.4316   -0.5944   -0.9444 H   0  0  0  0  0  0  0  0  0  0  0  0
   -3.4347    0.9239   -1.8390 H   0  0  0  0  0  0  0  0  0  0  0  0
   -3.0802    2.2146    0.2128 H   0  0  0  0  0  0  0  0  0  0  0  0
   -4.4739    1.1575    0.4236 H   0  0  0  0  0  0  0  0  0  0  0  0
   -2.9592    1.1593    2.4164 H   0  0  0  0  0  0  0  0  0  0  0  0
   -3.1499   -0.4452    1.7150 H   0  0  0  0  0  0  0  0  0  0  0  0
   -0.8016   -0.0541    2.2667 H   0  0  0  0  0  0  0  0  0  0  0  0
   -0.7752    1.4429    1.3435 H   0  0  0  0  0  0  0  0  0  0  0  0
    1.0998   -2.9330    1.9461 H   0  0  0  0  0  0  0  0  0  0  0  0
    4.5466   -1.1650   -0.0741 H   0  0  0  0  0  0  0  0  0  0  0  0
  1  2  1  0
  2  3  1  0
  3  4  2  0
  4  5  1  0
  5  6  1  0
  6  7  1  0
  7  8  1  0
  8  9  1  0
  9 10  1  0
  4 11  1  0
 11 12  1  0
 11 13  1  0
 13 14  2  0
 13 15  1  0
 15  2  2  0
 10  5  1  0
  1 16  1  0
  1 17  1  0
  1 18  1  0
  3 19  1  0
  5 20  1  0
  6 21  1  0
  6 22  1  0
  7 23  1  0
  7 24  1  0
  8 25  1  0
  8 26  1  0
  9 27  1  0
  9 28  1  0
 10 29  1  0
 10 30  1  0
 12 31  1  0
 15 32  1  0
M  END
$$$$
