
     RDKit          3D

 23 23  0  0  0  0  0  0  0  0999 V2000
    4.4400    0.2104   -0.3432 N   0  0  0  0  0  0  0  0  0  0  0  0
    3.0075    0.4385   -0.1461 C   0  0  0  0  0  0  0  0  0  0  0  0
    2.2369   -0.8815    0.0082 C   0  0  0  0  0  0  0  0  0  0  0  0
    0.8285   -0.6743    0.2935 N   0  0  0  0  0  0  0  0  0  0  0  0
   -0.0474   -0.2744   -0.7042 C   0  0  0  0  0  0  0  0  0  0  0  0
    0.2932   -0.1343   -1.8733 O   0  0  0  0  0  0  0  0  0  0  0  0
   -1.4537    0.0016   -0.2646 C   0  0  0  0  0  0  0  0  0  0  0  0
   -2.0770   -0.8235    0.6698 C   0  0  0  0  0  0  0  0  0  0  0  0
   -3.3880   -0.5291    1.0469 C   0  0  0  0  0  0  0  0  0  0  0  0
   -4.0277    0.5688    0.4810 C   0  0  0  0  0  0  0  0  0  0  0  0
   -5.6393    0.9606    0.9187 Cl  0  0  0  0  0  0  0  0  0  0  0  0
   -3.3330    1.3336   -0.4440 C   0  0  0  0  0  0  0  0  0  0  0  0
   -2.0596    1.0780   -0.8287 N   0  0  0  0  0  0  0  0  0  0  0  0
    4.8989    1.1120   -0.4751 H   0  0  0  0  0  0  0  0  0  0  0  0
    4.5746   -0.2929   -1.2215 H   0  0  0  0  0  0  0  0  0  0  0  0
    2.6147    1.0148   -0.9909 H   0  0  0  0  0  0  0  0  0  0  0  0
    2.8681    1.0508    0.7519 H   0  0  0  0  0  0  0  0  0  0  0  0
    2.6445   -1.4688    0.8383 H   0  0  0  0  0  0  0  0  0  0  0  0
    2.3228   -1.4795   -0.9066 H   0  0  0  0  0  0  0  0  0  0  0  0
    0.5601   -0.5583    1.2617 H   0  0  0  0  0  0  0  0  0  0  0  0
   -1.5722   -1.6921    1.0790 H   0  0  0  0  0  0  0  0  0  0  0  0
   -3.9027   -1.1589    1.7674 H   0  0  0  0  0  0  0  0  0  0  0  0
   -3.7891    2.1983   -0.9183 H   0  0  0  0  0  0  0  0  0  0  0  0
  1  2  1  0
  2  3  1  0
  3  4  1  0
  4  5  1  0
  5  6  2  0
  5  7  1  0
  7  8  2  0
  8  9  1  0
  9 10  2  0
 10 11  1  0
 10 12  1  0
 12 13  2  0
 13  7  1  0
  1 14  1  0
  1 15  1  0
  2 16  1  0
  2 17  1  0
  3 18  1  0
  3 19  1  0
  4 20  1  0
  8 21  1  0
  9 22  1  0
 12 23  1  0
M  END
$$$$
