
     RDKit          3D

 54 57  0  0  0  0  0  0  0  0999 V2000
    0.4921   -4.9298    1.1748 C   0  0  0  0  0  0  0  0  0  0  0  0
   -0.9504   -4.4799    1.1569 C   0  0  0  0  0  0  0  0  0  0  0  0
   -1.8269   -5.3309    1.3409 O   0  0  0  0  0  0  0  0  0  0  0  0
   -1.2568   -3.1455    0.8509 N   0  0  0  0  0  0  0  0  0  0  0  0
   -0.2989   -2.0902    0.7475 C   0  0  0  0  0  0  0  0  0  0  0  0
    0.7836   -1.9881    1.6268 C   0  0  0  0  0  0  0  0  0  0  0  0
    1.7611   -1.0021    1.4538 C   0  0  0  0  0  0  0  0  0  0  0  0
    1.6870   -0.0891    0.3954 C   0  0  0  0  0  0  0  0  0  0  0  0
    2.7265    0.9343    0.1945 C   0  0  0  0  0  0  0  0  0  0  0  0
    3.1206    1.7835    1.2427 C   0  0  0  0  0  0  0  0  0  0  0  0
    4.1069    2.7586    1.0536 C   0  0  0  0  0  0  0  0  0  0  0  0
    4.7204    2.9020   -0.1944 C   0  0  0  0  0  0  0  0  0  0  0  0
    5.7700    3.9188   -0.4458 C   0  0  0  0  0  0  0  0  0  0  0  0
    6.3486    4.1010   -1.5010 O   0  0  0  0  0  0  0  0  0  0  0  0
    6.0484    4.6620    0.6399 O   0  0  0  0  0  0  0  0  0  0  0  0
    4.3396    2.0657   -1.2481 C   0  0  0  0  0  0  0  0  0  0  0  0
    3.3524    1.0936   -1.0534 C   0  0  0  0  0  0  0  0  0  0  0  0
    0.5768   -0.1711   -0.4584 C   0  0  0  0  0  0  0  0  0  0  0  0
   -0.4419   -1.1243   -0.2640 C   0  0  0  0  0  0  0  0  0  0  0  0
   -1.6671   -1.1991   -1.1449 C   0  0  2  0  0  0  0  0  0  0  0  0
   -1.9097   -0.0245   -1.9968 N   0  0  0  0  0  0  0  0  0  0  0  0
   -2.3695    1.2226   -1.5853 C   0  0  0  0  0  0  0  0  0  0  0  0
   -2.8718    2.0963   -2.5654 C   0  0  0  0  0  0  0  0  0  0  0  0
   -3.2964    3.3921   -2.2506 C   0  0  0  0  0  0  0  0  0  0  0  0
   -3.1981    3.8476   -0.9426 C   0  0  0  0  0  0  0  0  0  0  0  0
   -3.7139    5.4387   -0.5445 Cl  0  0  0  0  0  0  0  0  0  0  0  0
   -2.6693    3.0217    0.0415 C   0  0  0  0  0  0  0  0  0  0  0  0
   -2.2476    1.7261   -0.2854 C   0  0  0  0  0  0  0  0  0  0  0  0
   -2.8748   -1.5442   -0.2845 C   0  0  0  0  0  0  0  0  0  0  0  0
   -2.6567   -2.8696    0.4585 C   0  0  2  0  0  0  0  0  0  0  0  0
   -3.5958   -2.9022    1.6757 C   0  0  0  0  0  0  0  0  0  0  0  0
    0.9052   -4.8347    2.1810 H   0  0  0  0  0  0  0  0  0  0  0  0
    1.0992   -4.3953    0.4414 H   0  0  0  0  0  0  0  0  0  0  0  0
    0.5280   -5.9884    0.8943 H   0  0  0  0  0  0  0  0  0  0  0  0
    0.8765   -2.6502    2.4822 H   0  0  0  0  0  0  0  0  0  0  0  0
    2.5965   -0.9655    2.1508 H   0  0  0  0  0  0  0  0  0  0  0  0
    2.6480    1.7015    2.2199 H   0  0  0  0  0  0  0  0  0  0  0  0
    4.3833    3.4011    1.8861 H   0  0  0  0  0  0  0  0  0  0  0  0
    6.7427    5.2796    0.3280 H   0  0  0  0  0  0  0  0  0  0  0  0
    4.8082    2.1650   -2.2253 H   0  0  0  0  0  0  0  0  0  0  0  0
    3.0794    0.4506   -1.8885 H   0  0  0  0  0  0  0  0  0  0  0  0
    0.4844    0.5439   -1.2759 H   0  0  0  0  0  0  0  0  0  0  0  0
   -1.4865   -2.0319   -1.8394 H   0  0  0  0  0  0  0  0  0  0  0  0
   -2.3219   -0.2998   -2.8851 H   0  0  0  0  0  0  0  0  0  0  0  0
   -2.9377    1.7721   -3.6017 H   0  0  0  0  0  0  0  0  0  0  0  0
   -3.6901    4.0354   -3.0324 H   0  0  0  0  0  0  0  0  0  0  0  0
   -2.5678    3.3763    1.0635 H   0  0  0  0  0  0  0  0  0  0  0  0
   -1.8115    1.1311    0.5105 H   0  0  0  0  0  0  0  0  0  0  0  0
   -3.7834   -1.6112   -0.8969 H   0  0  0  0  0  0  0  0  0  0  0  0
   -3.0659   -0.7524    0.4493 H   0  0  0  0  0  0  0  0  0  0  0  0
   -2.9561   -3.6803   -0.2201 H   0  0  0  0  0  0  0  0  0  0  0  0
   -4.6283   -2.6945    1.3744 H   0  0  0  0  0  0  0  0  0  0  0  0
   -3.2986   -2.1530    2.4183 H   0  0  0  0  0  0  0  0  0  0  0  0
   -3.5920   -3.8735    2.1776 H   0  0  0  0  0  0  0  0  0  0  0  0
  1  2  1  0
  2  3  2  0
  2  4  1  0
  4  5  1  0
  5  6  2  0
  6  7  1  0
  7  8  2  0
  8  9  1  0
  9 10  2  0
 10 11  1  0
 11 12  2  0
 12 13  1  0
 13 14  2  0
 13 15  1  0
 12 16  1  0
 16 17  2  0
  8 18  1  0
 18 19  2  0
 19 20  1  0
 20 21  1  0
 21 22  1  0
 22 23  2  0
 23 24  1  0
 24 25  2  0
 25 26  1  0
 25 27  1  0
 27 28  2  0
 20 29  1  0
 29 30  1  0
 30 31  1  0
 30  4  1  0
 19  5  1  0
 28 22  1  0
 17  9  1  0
  1 32  1  0
  1 33  1  0
  1 34  1  0
  6 35  1  0
  7 36  1  0
 10 37  1  0
 11 38  1  0
 15 39  1  0
 16 40  1  0
 17 41  1  0
 18 42  1  0
 20 43  1  6
 21 44  1  0
 23 45  1  0
 24 46  1  0
 27 47  1  0
 28 48  1  0
 29 49  1  0
 29 50  1  0
 30 51  1  6
 31 52  1  0
 31 53  1  0
 31 54  1  0
M  END
$$$$
