
     RDKit          3D

 47 51  0  0  0  0  0  0  0  0999 V2000
    0.0140    4.5390   -0.4404 C   0  0  0  0  0  0  0  0  0  0  0  0
   -0.5053    3.1536   -0.3677 C   0  0  0  0  0  0  0  0  0  0  0  0
   -0.0866    2.1161   -1.0686 N   0  0  0  0  0  0  0  0  0  0  0  0
   -0.8732    1.0628   -0.6630 C   0  0  0  0  0  0  0  0  0  0  0  0
   -0.6971   -0.2396   -1.2847 C   0  0  0  0  0  0  0  0  0  0  0  0
   -1.7347   -0.9924   -1.8640 C   0  0  0  0  0  0  0  0  0  0  0  0
   -1.3101   -2.1692   -2.3266 N   0  0  0  0  0  0  0  0  0  0  0  0
    0.0110   -2.1628   -2.0403 N   0  0  0  0  0  0  0  0  0  0  0  0
    0.8038   -3.3125   -2.4148 C   0  0  0  0  0  0  0  0  0  0  0  0
    0.4463   -1.0091   -1.4234 C   0  0  0  0  0  0  0  0  0  0  0  0
    1.8214   -0.7882   -1.0030 C   0  0  0  0  0  0  0  0  0  0  0  0
    2.5230    0.3683   -1.3111 C   0  0  0  0  0  0  0  0  0  0  0  0
    3.8364    0.4951   -0.8624 C   0  0  0  0  0  0  0  0  0  0  0  0
    4.4196   -0.5389   -0.1263 C   0  0  0  0  0  0  0  0  0  0  0  0
    5.8132   -0.4545    0.4118 C   0  0  0  0  0  0  0  0  0  0  0  0
    5.8477   -0.0019    1.6948 F   0  0  0  0  0  0  0  0  0  0  0  0
    6.6155    0.3827   -0.3026 F   0  0  0  0  0  0  0  0  0  0  0  0
    6.4515   -1.6580    0.4235 F   0  0  0  0  0  0  0  0  0  0  0  0
    3.6403   -1.6576    0.1298 C   0  0  0  0  0  0  0  0  0  0  0  0
    2.3649   -1.8093   -0.2985 N   0  0  0  0  0  0  0  0  0  0  0  0
   -1.7574    1.4634    0.3133 C   0  0  0  0  0  0  0  0  0  0  0  0
   -2.7684    0.8434    1.1147 C   0  0  0  0  0  0  0  0  0  0  0  0
   -3.0303   -0.5163    1.0393 N   0  0  0  0  0  0  0  0  0  0  0  0
   -2.1238   -1.3590    1.7906 C   0  0  0  0  0  0  0  0  0  0  0  0
   -3.3129   -2.3065    1.9746 C   0  0  0  0  0  0  0  0  0  0  0  0
   -4.1559   -1.0426    1.7776 C   0  0  0  0  0  0  0  0  0  0  0  0
   -3.4381    1.6284    1.9125 N   0  0  0  0  0  0  0  0  0  0  0  0
   -3.1396    2.9649    1.9764 C   0  0  0  0  0  0  0  0  0  0  0  0
   -2.2201    3.5915    1.3126 N   0  0  0  0  0  0  0  0  0  0  0  0
   -1.5327    2.7957    0.4740 N   0  0  0  0  0  0  0  0  0  0  0  0
    0.3958    4.8616    0.5332 H   0  0  0  0  0  0  0  0  0  0  0  0
   -0.7720    5.2315   -0.7569 H   0  0  0  0  0  0  0  0  0  0  0  0
    0.8334    4.6031   -1.1631 H   0  0  0  0  0  0  0  0  0  0  0  0
   -2.7825   -0.7393   -1.9610 H   0  0  0  0  0  0  0  0  0  0  0  0
    0.2620   -3.8936   -3.1663 H   0  0  0  0  0  0  0  0  0  0  0  0
    1.7511   -2.9734   -2.8407 H   0  0  0  0  0  0  0  0  0  0  0  0
    0.9677   -3.9209   -1.5223 H   0  0  0  0  0  0  0  0  0  0  0  0
    2.0646    1.1628   -1.8917 H   0  0  0  0  0  0  0  0  0  0  0  0
    4.3947    1.4014   -1.0888 H   0  0  0  0  0  0  0  0  0  0  0  0
    4.0266   -2.4966    0.7056 H   0  0  0  0  0  0  0  0  0  0  0  0
   -1.2948   -1.7557    1.2023 H   0  0  0  0  0  0  0  0  0  0  0  0
   -1.7538   -0.8981    2.7139 H   0  0  0  0  0  0  0  0  0  0  0  0
   -3.3931   -2.7888    2.9515 H   0  0  0  0  0  0  0  0  0  0  0  0
   -3.4234   -3.0565    1.1833 H   0  0  0  0  0  0  0  0  0  0  0  0
   -5.0518   -1.1582    1.1637 H   0  0  0  0  0  0  0  0  0  0  0  0
   -4.3929   -0.5204    2.7107 H   0  0  0  0  0  0  0  0  0  0  0  0
   -3.7539    3.5543    2.6787 H   0  0  0  0  0  0  0  0  0  0  0  0
  1  2  1  0
  2  3  2  0
  3  4  1  0
  4  5  1  0
  5  6  1  0
  6  7  2  0
  7  8  1  0
  8  9  1  0
  8 10  1  0
 10 11  1  0
 11 12  2  0
 12 13  1  0
 13 14  2  0
 14 15  1  0
 15 16  1  0
 15 17  1  0
 15 18  1  0
 14 19  1  0
 19 20  2  0
  4 21  2  0
 21 22  1  0
 22 23  1  0
 23 24  1  0
 24 25  1  0
 25 26  1  0
 22 27  2  0
 27 28  1  0
 28 29  2  0
 29 30  1  0
 30  2  1  0
 10  5  2  0
 20 11  1  0
 30 21  1  0
 26 23  1  0
  1 31  1  0
  1 32  1  0
  1 33  1  0
  6 34  1  0
  9 35  1  0
  9 36  1  0
  9 37  1  0
 12 38  1  0
 13 39  1  0
 19 40  1  0
 24 41  1  0
 24 42  1  0
 25 43  1  0
 25 44  1  0
 26 45  1  0
 26 46  1  0
 28 47  1  0
M  END
$$$$
