
     RDKit          3D

 29 30  0  0  0  0  0  0  0  0999 V2000
   -4.3819   -1.8704    1.1382 O   0  0  0  0  0  0  0  0  0  0  0  0
   -3.3787   -1.4813    0.5677 C   0  0  0  0  0  0  0  0  0  0  0  0
   -2.7144   -2.2924   -0.2801 O   0  0  0  0  0  0  0  0  0  0  0  0
   -2.8234   -0.1130    0.6463 C   0  0  0  0  0  0  0  0  0  0  0  0
   -3.7032    0.9008    1.0551 C   0  0  0  0  0  0  0  0  0  0  0  0
   -3.2552    2.2118    1.1328 C   0  0  0  0  0  0  0  0  0  0  0  0
   -1.9391    2.4600    0.8020 C   0  0  0  0  0  0  0  0  0  0  0  0
   -1.0676    1.5009    0.4178 N   0  0  0  0  0  0  0  0  0  0  0  0
   -1.4926    0.2144    0.3369 C   0  0  0  0  0  0  0  0  0  0  0  0
   -0.5681   -0.8044    0.0067 N   0  0  0  0  0  0  0  0  0  0  0  0
    0.8162   -0.7519   -0.2441 C   0  0  0  0  0  0  0  0  0  0  0  0
    1.4145   -1.8125   -0.9424 C   0  0  0  0  0  0  0  0  0  0  0  0
    2.7903   -1.8414   -1.1827 C   0  0  0  0  0  0  0  0  0  0  0  0
    3.6001   -0.8123   -0.7108 C   0  0  0  0  0  0  0  0  0  0  0  0
    3.0388    0.2499    0.0089 C   0  0  0  0  0  0  0  0  0  0  0  0
    3.9015    1.3545    0.5631 C   0  0  0  0  0  0  0  0  0  0  0  0
    5.1187    1.4432   -0.0464 F   0  0  0  0  0  0  0  0  0  0  0  0
    3.3399    2.5896    0.4405 F   0  0  0  0  0  0  0  0  0  0  0  0
    4.1648    1.1929    1.8898 F   0  0  0  0  0  0  0  0  0  0  0  0
    1.6519    0.2566    0.2477 C   0  0  0  0  0  0  0  0  0  0  0  0
   -3.2318   -3.1276   -0.2384 H   0  0  0  0  0  0  0  0  0  0  0  0
   -4.7353    0.6674    1.3082 H   0  0  0  0  0  0  0  0  0  0  0  0
   -3.9138    3.0155    1.4423 H   0  0  0  0  0  0  0  0  0  0  0  0
   -1.5293    3.4657    0.8415 H   0  0  0  0  0  0  0  0  0  0  0  0
   -1.0431   -1.5352   -0.5237 H   0  0  0  0  0  0  0  0  0  0  0  0
    0.8064   -2.6344   -1.3131 H   0  0  0  0  0  0  0  0  0  0  0  0
    3.2277   -2.6704   -1.7334 H   0  0  0  0  0  0  0  0  0  0  0  0
    4.6720   -0.8448   -0.8989 H   0  0  0  0  0  0  0  0  0  0  0  0
    1.2346    1.0687    0.8393 H   0  0  0  0  0  0  0  0  0  0  0  0
  1  2  2  0
  2  3  1  0
  2  4  1  0
  4  5  2  0
  5  6  1  0
  6  7  2  0
  7  8  1  0
  8  9  2  0
  9 10  1  0
 10 11  1  0
 11 12  2  0
 12 13  1  0
 13 14  2  0
 14 15  1  0
 15 16  1  0
 16 17  1  0
 16 18  1  0
 16 19  1  0
 15 20  2  0
  9  4  1  0
 20 11  1  0
  3 21  1  0
  5 22  1  0
  6 23  1  0
  7 24  1  0
 10 25  1  0
 12 26  1  0
 13 27  1  0
 14 28  1  0
 20 29  1  0
M  END
$$$$
