
     RDKit          3D

 43 45  0  0  0  0  0  0  0  0999 V2000
    4.6360   -1.5031   -1.3504 C   0  0  0  0  0  0  0  0  0  0  0  0
    4.3438   -1.3684    0.0990 C   0  0  0  0  0  0  0  0  0  0  0  0
    4.3254   -2.3864    1.0336 C   0  0  0  0  0  0  0  0  0  0  0  0
    3.9304   -1.7573    2.5789 S   0  0  0  0  0  0  0  0  0  0  0  0
    3.8159   -0.1918    1.8946 C   0  0  0  0  0  0  0  0  0  0  0  0
    3.3774    1.2161    2.8380 S   0  0  0  0  0  0  0  0  0  0  0  0
    3.2855    2.4824    1.5378 C   0  0  0  0  0  0  0  0  0  0  0  0
    2.1857    2.2535    0.5063 C   0  0  0  0  0  0  0  0  0  0  0  0
    2.2753    2.7629   -0.6104 O   0  0  0  0  0  0  0  0  0  0  0  0
    1.0812    1.5715    0.9652 N   0  0  0  0  0  0  0  0  0  0  0  0
   -0.0301    1.1628    0.2813 C   0  0  0  0  0  0  0  0  0  0  0  0
   -0.3532    1.0260   -1.0152 C   0  0  0  0  0  0  0  0  0  0  0  0
    0.5153    1.2258   -2.2152 C   0  0  0  0  0  0  0  0  0  0  0  0
   -1.6776    0.5791   -1.2011 N   0  0  0  0  0  0  0  0  0  0  0  0
   -2.5616    1.4345   -2.0166 C   0  0  0  0  0  0  0  0  0  0  0  0
   -2.1898    0.3252    0.1052 N   0  0  0  0  0  0  0  0  0  0  0  0
   -3.2552   -0.5873    0.3211 C   0  0  0  0  0  0  0  0  0  0  0  0
   -3.7761   -1.3595   -0.7289 C   0  0  0  0  0  0  0  0  0  0  0  0
   -4.8291   -2.2548   -0.5150 C   0  0  0  0  0  0  0  0  0  0  0  0
   -5.3778   -2.3943    0.7560 C   0  0  0  0  0  0  0  0  0  0  0  0
   -4.8699   -1.6433    1.8117 C   0  0  0  0  0  0  0  0  0  0  0  0
   -3.8155   -0.7496    1.5957 C   0  0  0  0  0  0  0  0  0  0  0  0
   -1.2260    0.6881    1.0487 C   0  0  0  0  0  0  0  0  0  0  0  0
   -1.2262    0.6211    2.2701 O   0  0  0  0  0  0  0  0  0  0  0  0
    4.0616   -0.1116    0.6080 N   0  0  0  0  0  0  0  0  0  0  0  0
    5.7125   -1.6194   -1.5097 H   0  0  0  0  0  0  0  0  0  0  0  0
    4.1253   -2.3758   -1.7699 H   0  0  0  0  0  0  0  0  0  0  0  0
    4.3006   -0.6181   -1.9003 H   0  0  0  0  0  0  0  0  0  0  0  0
    4.5162   -3.4397    0.8870 H   0  0  0  0  0  0  0  0  0  0  0  0
    3.0937    3.4487    2.0154 H   0  0  0  0  0  0  0  0  0  0  0  0
    4.2498    2.5437    1.0227 H   0  0  0  0  0  0  0  0  0  0  0  0
    1.0332    1.4027    1.9688 H   0  0  0  0  0  0  0  0  0  0  0  0
    0.1742    0.5977   -3.0462 H   0  0  0  0  0  0  0  0  0  0  0  0
    0.4848    2.2674   -2.5479 H   0  0  0  0  0  0  0  0  0  0  0  0
    1.5490    0.9269   -2.0204 H   0  0  0  0  0  0  0  0  0  0  0  0
   -3.5782    1.0351   -2.0726 H   0  0  0  0  0  0  0  0  0  0  0  0
   -2.1843    1.5012   -3.0425 H   0  0  0  0  0  0  0  0  0  0  0  0
   -2.6172    2.4467   -1.5992 H   0  0  0  0  0  0  0  0  0  0  0  0
   -3.3483   -1.3004   -1.7259 H   0  0  0  0  0  0  0  0  0  0  0  0
   -5.2124   -2.8477   -1.3414 H   0  0  0  0  0  0  0  0  0  0  0  0
   -6.1954   -3.0897    0.9249 H   0  0  0  0  0  0  0  0  0  0  0  0
   -5.2914   -1.7490    2.8082 H   0  0  0  0  0  0  0  0  0  0  0  0
   -3.4573   -0.1716    2.4439 H   0  0  0  0  0  0  0  0  0  0  0  0
  1  2  1  0
  2  3  2  0
  3  4  1  0
  4  5  1  0
  5  6  1  0
  6  7  1  0
  7  8  1  0
  8  9  2  0
  8 10  1  0
 10 11  1  0
 11 12  2  0
 12 13  1  0
 12 14  1  0
 14 15  1  0
 14 16  1  0
 16 17  1  0
 17 18  2  0
 18 19  1  0
 19 20  2  0
 20 21  1  0
 21 22  2  0
 16 23  1  0
 23 24  2  0
  5 25  2  0
 25  2  1  0
 23 11  1  0
 22 17  1  0
  1 26  1  0
  1 27  1  0
  1 28  1  0
  3 29  1  0
  7 30  1  0
  7 31  1  0
 10 32  1  0
 13 33  1  0
 13 34  1  0
 13 35  1  0
 15 36  1  0
 15 37  1  0
 15 38  1  0
 18 39  1  0
 19 40  1  0
 20 41  1  0
 21 42  1  0
 22 43  1  0
M  END
$$$$
