
     RDKit          3D

 40 42  0  0  0  0  0  0  0  0999 V2000
   -4.7454   -0.3599   -0.8880 C   0  0  0  0  0  0  0  0  0  0  0  0
   -4.3887    0.3869    0.4066 C   0  0  0  0  0  0  0  0  0  0  0  0
   -5.3476    1.5821    0.5603 C   0  0  0  0  0  0  0  0  0  0  0  0
   -4.5669   -0.5393    1.6195 C   0  0  0  0  0  0  0  0  0  0  0  0
   -2.9304    0.9023    0.3396 C   0  0  0  0  0  0  0  0  0  0  0  0
   -2.6749    2.1018    0.4068 O   0  0  0  0  0  0  0  0  0  0  0  0
   -1.9855   -0.1029    0.2008 N   0  0  0  0  0  0  0  0  0  0  0  0
   -0.5853    0.0369    0.1108 C   0  0  0  0  0  0  0  0  0  0  0  0
    0.0903    1.2506    0.1511 C   0  0  0  0  0  0  0  0  0  0  0  0
    1.4913    1.2992    0.0522 C   0  0  0  0  0  0  0  0  0  0  0  0
    2.2742    0.1392   -0.0917 C   0  0  0  0  0  0  0  0  0  0  0  0
    1.5709   -1.0755   -0.1220 C   0  0  0  0  0  0  0  0  0  0  0  0
    0.1665   -1.1287   -0.0260 C   0  0  0  0  0  0  0  0  0  0  0  0
    2.2974   -2.3516   -0.2566 C   0  0  0  0  0  0  0  0  0  0  0  0
    1.6953   -3.4133   -0.3492 O   0  0  0  0  0  0  0  0  0  0  0  0
    3.8106   -2.3287   -0.2753 C   0  0  0  0  0  0  0  0  0  0  0  0
    4.4389   -3.3788   -0.2806 O   0  0  0  0  0  0  0  0  0  0  0  0
    4.4964   -1.0224   -0.2889 C   0  0  0  0  0  0  0  0  0  0  0  0
    5.8989   -1.0178   -0.3875 C   0  0  0  0  0  0  0  0  0  0  0  0
    6.5944    0.1847   -0.4125 C   0  0  0  0  0  0  0  0  0  0  0  0
    5.8904    1.3788   -0.3403 C   0  0  0  0  0  0  0  0  0  0  0  0
    4.4930    1.3703   -0.2394 C   0  0  0  0  0  0  0  0  0  0  0  0
    3.7533    0.1700   -0.2063 C   0  0  0  0  0  0  0  0  0  0  0  0
   -5.8036   -0.6447   -0.9016 H   0  0  0  0  0  0  0  0  0  0  0  0
   -4.1604   -1.2778   -1.0085 H   0  0  0  0  0  0  0  0  0  0  0  0
   -4.5529    0.2660   -1.7670 H   0  0  0  0  0  0  0  0  0  0  0  0
   -5.2579    2.2747   -0.2847 H   0  0  0  0  0  0  0  0  0  0  0  0
   -6.3914    1.2521    0.6111 H   0  0  0  0  0  0  0  0  0  0  0  0
   -5.1327    2.1490    1.4737 H   0  0  0  0  0  0  0  0  0  0  0  0
   -5.6154   -0.8339    1.7417 H   0  0  0  0  0  0  0  0  0  0  0  0
   -3.9800   -1.4591    1.5252 H   0  0  0  0  0  0  0  0  0  0  0  0
   -4.2462   -0.0423    2.5423 H   0  0  0  0  0  0  0  0  0  0  0  0
   -2.3322   -1.0528    0.1567 H   0  0  0  0  0  0  0  0  0  0  0  0
   -0.4373    2.1942    0.2594 H   0  0  0  0  0  0  0  0  0  0  0  0
    1.9388    2.2889    0.0961 H   0  0  0  0  0  0  0  0  0  0  0  0
   -0.3281   -2.0984   -0.0581 H   0  0  0  0  0  0  0  0  0  0  0  0
    6.4505   -1.9552   -0.4471 H   0  0  0  0  0  0  0  0  0  0  0  0
    7.6788    0.1887   -0.4899 H   0  0  0  0  0  0  0  0  0  0  0  0
    6.4259    2.3258   -0.3621 H   0  0  0  0  0  0  0  0  0  0  0  0
    4.0065    2.3409   -0.1904 H   0  0  0  0  0  0  0  0  0  0  0  0
  1  2  1  0
  2  3  1  0
  2  4  1  0
  2  5  1  0
  5  6  2  0
  5  7  1  0
  7  8  1  0
  8  9  2  0
  9 10  1  0
 10 11  2  0
 11 12  1  0
 12 13  2  0
 12 14  1  0
 14 15  2  0
 14 16  1  0
 16 17  2  0
 16 18  1  0
 18 19  2  0
 19 20  1  0
 20 21  2  0
 21 22  1  0
 22 23  2  0
 13  8  1  0
 23 18  1  0
 23 11  1  0
  1 24  1  0
  1 25  1  0
  1 26  1  0
  3 27  1  0
  3 28  1  0
  3 29  1  0
  4 30  1  0
  4 31  1  0
  4 32  1  0
  7 33  1  0
  9 34  1  0
 10 35  1  0
 13 36  1  0
 19 37  1  0
 20 38  1  0
 21 39  1  0
 22 40  1  0
M  END
$$$$
