
     RDKit          3D

 44 47  0  0  0  0  0  0  0  0999 V2000
    5.4895    1.0608    1.9911 C   0  0  0  0  0  0  0  0  0  0  0  0
    4.8452   -0.1523    1.3470 C   0  0  0  0  0  0  0  0  0  0  0  0
    3.5063    0.1571    0.9351 O   0  0  0  0  0  0  0  0  0  0  0  0
    3.3839    0.7190   -0.3055 C   0  0  0  0  0  0  0  0  0  0  0  0
    4.3265    0.9550   -1.0516 O   0  0  0  0  0  0  0  0  0  0  0  0
    1.9942    1.0637   -0.6124 C   0  0  0  0  0  0  0  0  0  0  0  0
    1.6847    2.3172   -1.1016 N   0  0  0  0  0  0  0  0  0  0  0  0
    0.3792    2.3658   -1.1359 C   0  0  0  0  0  0  0  0  0  0  0  0
   -0.2042    1.2011   -0.6973 N   0  0  0  0  0  0  0  0  0  0  0  0
    0.8294    0.3063   -0.4471 C   0  0  0  0  0  0  0  0  0  0  0  0
    0.5666   -1.0883    0.0066 C   0  0  2  0  0  0  0  0  0  0  0  0
    1.7842   -2.0247    0.0405 C   0  0  0  0  0  0  0  0  0  0  0  0
    1.2098   -3.3862   -0.3171 C   0  0  0  0  0  0  0  0  0  0  0  0
    0.1980   -3.0239   -1.3837 C   0  0  0  0  0  0  0  0  0  0  0  0
   -0.3223   -1.7364   -0.9492 N   0  0  0  0  0  0  0  0  0  0  0  0
   -1.6391   -1.4258   -1.1956 C   0  0  0  0  0  0  0  0  0  0  0  0
   -2.3590   -2.1412   -1.8911 O   0  0  0  0  0  0  0  0  0  0  0  0
   -2.2368   -0.2067   -0.5963 C   0  0  0  0  0  0  0  0  0  0  0  0
   -3.6120   -0.2930   -0.2998 C   0  0  0  0  0  0  0  0  0  0  0  0
   -4.3435    0.8154    0.1297 C   0  0  0  0  0  0  0  0  0  0  0  0
   -5.6620    0.5687    0.3875 O   0  0  0  0  0  0  0  0  0  0  0  0
   -6.4653    1.6765    0.7750 C   0  0  0  0  0  0  0  0  0  0  0  0
   -3.7000    2.0408    0.2507 C   0  0  0  0  0  0  0  0  0  0  0  0
   -2.3370    2.1489   -0.0466 C   0  0  0  0  0  0  0  0  0  0  0  0
   -1.5904    1.0258   -0.4572 C   0  0  0  0  0  0  0  0  0  0  0  0
    6.4886    0.8174    2.3634 H   0  0  0  0  0  0  0  0  0  0  0  0
    5.5741    1.8867    1.2779 H   0  0  0  0  0  0  0  0  0  0  0  0
    4.8796    1.4221    2.8256 H   0  0  0  0  0  0  0  0  0  0  0  0
    4.7735   -0.9622    2.0804 H   0  0  0  0  0  0  0  0  0  0  0  0
    5.4440   -0.5308    0.5107 H   0  0  0  0  0  0  0  0  0  0  0  0
   -0.1942    3.2171   -1.4795 H   0  0  0  0  0  0  0  0  0  0  0  0
    0.0698   -1.0851    0.9851 H   0  0  0  0  0  0  0  0  0  0  0  0
    2.2710   -2.0417    1.0195 H   0  0  0  0  0  0  0  0  0  0  0  0
    2.5304   -1.7637   -0.7187 H   0  0  0  0  0  0  0  0  0  0  0  0
    0.7077   -3.8213    0.5552 H   0  0  0  0  0  0  0  0  0  0  0  0
    1.9659   -4.0920   -0.6710 H   0  0  0  0  0  0  0  0  0  0  0  0
    0.6792   -2.8739   -2.3566 H   0  0  0  0  0  0  0  0  0  0  0  0
   -0.5850   -3.7810   -1.4850 H   0  0  0  0  0  0  0  0  0  0  0  0
   -4.1332   -1.2421   -0.4284 H   0  0  0  0  0  0  0  0  0  0  0  0
   -7.4874    1.3139    0.9205 H   0  0  0  0  0  0  0  0  0  0  0  0
   -6.1224    2.0976    1.7259 H   0  0  0  0  0  0  0  0  0  0  0  0
   -6.4906    2.4399   -0.0096 H   0  0  0  0  0  0  0  0  0  0  0  0
   -4.2247    2.9323    0.5801 H   0  0  0  0  0  0  0  0  0  0  0  0
   -1.8723    3.1233    0.0958 H   0  0  0  0  0  0  0  0  0  0  0  0
  1  2  1  0
  2  3  1  0
  3  4  1  0
  4  5  2  0
  4  6  1  0
  6  7  1  0
  7  8  2  0
  8  9  1  0
  9 10  1  0
 10 11  1  0
 11 12  1  0
 12 13  1  0
 13 14  1  0
 14 15  1  0
 15 16  1  0
 16 17  2  0
 16 18  1  0
 18 19  2  0
 19 20  1  0
 20 21  1  0
 21 22  1  0
 20 23  2  0
 23 24  1  0
 24 25  2  0
 10  6  2  0
 15 11  1  0
 25 18  1  0
 25  9  1  0
  1 26  1  0
  1 27  1  0
  1 28  1  0
  2 29  1  0
  2 30  1  0
  8 31  1  0
 11 32  1  1
 12 33  1  0
 12 34  1  0
 13 35  1  0
 13 36  1  0
 14 37  1  0
 14 38  1  0
 19 39  1  0
 22 40  1  0
 22 41  1  0
 22 42  1  0
 23 43  1  0
 24 44  1  0
M  END
$$$$
