
     RDKit          3D

 61 61  0  0  0  0  0  0  0  0999 V2000
   -1.1127    0.1048    0.1680 C   0  0  0  0  0  0  0  0  0  0  0  0
    0.5414   -0.4954   -0.0853 S   0  0  0  0  0  6  0  0  0  0  0  0
    1.1774   -0.7138    1.1938 O   0  0  0  0  0  0  0  0  0  0  0  0
    0.5444   -1.4842   -1.1368 O   0  0  0  0  0  0  0  0  0  0  0  0
    1.1862    0.8641   -0.6696 O   0  0  0  0  0  0  0  0  0  0  0  0
   -1.1287   -0.0348   -0.0294 C   0  0  0  0  0  0  0  0  0  0  0  0
    0.5982   -0.3726    0.2239 S   0  0  0  0  0  6  0  0  0  0  0  0
    1.0058    0.1366    1.5134 O   0  0  0  0  0  0  0  0  0  0  0  0
    0.9012   -1.7132   -0.2167 O   0  0  0  0  0  0  0  0  0  0  0  0
    1.1911    0.6622   -0.8639 O   0  0  0  0  0  0  0  0  0  0  0  0
    7.8579   -0.9849   -0.7225 N   0  0  0  0  0  0  0  0  0  0  0  0
    7.6111    0.0176   -1.4882 C   0  0  0  0  0  0  0  0  0  0  0  0
    8.5489    0.3662   -2.3972 N   0  0  0  0  0  0  0  0  0  0  0  0
    6.5330    0.8432   -1.4873 N   0  0  0  0  0  0  0  0  0  0  0  0
    5.2076    0.4972   -1.1466 C   0  0  0  0  0  0  0  0  0  0  0  0
    4.3143    1.5272   -0.8177 C   0  0  0  0  0  0  0  0  0  0  0  0
    2.9867    1.2516   -0.4679 C   0  0  0  0  0  0  0  0  0  0  0  0
    2.5251   -0.0697   -0.4480 C   0  0  0  0  0  0  0  0  0  0  0  0
    1.1259   -0.4323   -0.0859 C   0  0  0  0  0  0  0  0  0  0  0  0
    0.7015   -1.5768   -0.1290 O   0  0  0  0  0  0  0  0  0  0  0  0
    0.4350    0.7039    0.2963 O   0  0  0  0  0  0  0  0  0  0  0  0
   -0.9044    0.5230    0.6694 C   0  0  0  0  0  0  0  0  0  0  0  0
   -1.2780    0.9694    1.9327 C   0  0  0  0  0  0  0  0  0  0  0  0
   -2.6112    0.8620    2.3286 C   0  0  0  0  0  0  0  0  0  0  0  0
   -3.5764    0.3225    1.4611 C   0  0  0  0  0  0  0  0  0  0  0  0
   -4.9210    0.2081    1.8487 C   0  0  0  0  0  0  0  0  0  0  0  0
   -5.8781   -0.3248    0.9761 C   0  0  0  0  0  0  0  0  0  0  0  0
   -7.3021   -0.4233    1.4181 C   0  0  0  0  0  0  0  0  0  0  0  0
   -7.5845   -0.3520    2.6780 N   0  0  0  0  0  0  0  0  0  0  0  0
   -8.3080   -0.5715    0.5059 N   0  0  0  0  0  0  0  0  0  0  0  0
   -5.4884   -0.7654   -0.2918 C   0  0  0  0  0  0  0  0  0  0  0  0
   -4.1531   -0.6569   -0.6909 C   0  0  0  0  0  0  0  0  0  0  0  0
   -3.1876   -0.1132    0.1709 C   0  0  0  0  0  0  0  0  0  0  0  0
   -1.8447    0.0018   -0.2194 C   0  0  0  0  0  0  0  0  0  0  0  0
    3.4069   -1.1024   -0.7883 C   0  0  0  0  0  0  0  0  0  0  0  0
    4.7336   -0.8194   -1.1344 C   0  0  0  0  0  0  0  0  0  0  0  0
   -1.0806    0.9469    0.8618 H   0  0  0  0  0  0  0  0  0  0  0  0
   -1.5286    0.4078   -0.7947 H   0  0  0  0  0  0  0  0  0  0  0  0
   -1.7055   -0.7078    0.5928 H   0  0  0  0  0  0  0  0  0  0  0  0
    1.9780    1.0776   -0.1300 H   0  0  0  0  0  0  0  0  0  0  0  0
   -1.3152    1.0217    0.1718 H   0  0  0  0  0  0  0  0  0  0  0  0
   -1.6994   -0.6546    0.6653 H   0  0  0  0  0  0  0  0  0  0  0  0
   -1.3898   -0.2881   -1.0586 H   0  0  0  0  0  0  0  0  0  0  0  0
    1.8368    1.2427   -0.4059 H   0  0  0  0  0  0  0  0  0  0  0  0
    7.0885   -1.0720   -0.0517 H   0  0  0  0  0  0  0  0  0  0  0  0
    8.8545    1.3271   -2.3037 H   0  0  0  0  0  0  0  0  0  0  0  0
    9.3518   -0.2470   -2.2720 H   0  0  0  0  0  0  0  0  0  0  0  0
    6.5389    1.5089   -2.2520 H   0  0  0  0  0  0  0  0  0  0  0  0
    4.6546    2.5610   -0.8145 H   0  0  0  0  0  0  0  0  0  0  0  0
    2.3332    2.0825   -0.2135 H   0  0  0  0  0  0  0  0  0  0  0  0
   -0.5415    1.3930    2.6088 H   0  0  0  0  0  0  0  0  0  0  0  0
   -2.8958    1.2022    3.3223 H   0  0  0  0  0  0  0  0  0  0  0  0
   -5.2324    0.5357    2.8392 H   0  0  0  0  0  0  0  0  0  0  0  0
   -8.5888   -0.4715    2.8168 H   0  0  0  0  0  0  0  0  0  0  0  0
   -9.2330   -0.3220    0.8332 H   0  0  0  0  0  0  0  0  0  0  0  0
   -8.1270   -0.1852   -0.4147 H   0  0  0  0  0  0  0  0  0  0  0  0
   -6.2026   -1.2214   -0.9704 H   0  0  0  0  0  0  0  0  0  0  0  0
   -3.8679   -1.0143   -1.6785 H   0  0  0  0  0  0  0  0  0  0  0  0
   -1.5297   -0.3238   -1.2070 H   0  0  0  0  0  0  0  0  0  0  0  0
    3.0673   -2.1375   -0.7914 H   0  0  0  0  0  0  0  0  0  0  0  0
    5.3796   -1.6470   -1.4220 H   0  0  0  0  0  0  0  0  0  0  0  0
  1  2  1  0
  2  3  2  0
  2  4  2  0
  2  5  1  0
  6  7  1  0
  7  8  2  0
  7  9  2  0
  7 10  1  0
 11 12  2  3
 12 13  1  0
 12 14  1  0
 14 15  1  0
 15 16  2  0
 16 17  1  0
 17 18  2  0
 18 19  1  0
 19 20  2  0
 19 21  1  0
 21 22  1  0
 22 23  2  0
 23 24  1  0
 24 25  2  0
 25 26  1  0
 26 27  2  0
 27 28  1  0
 28 29  2  3
 28 30  1  0
 27 31  1  0
 31 32  2  0
 32 33  1  0
 33 34  2  0
 18 35  1  0
 35 36  2  0
 36 15  1  0
 34 22  1  0
 33 25  1  0
  1 37  1  0
  1 38  1  0
  1 39  1  0
  5 40  1  0
  6 41  1  0
  6 42  1  0
  6 43  1  0
 10 44  1  0
 11 45  1  0
 13 46  1  0
 13 47  1  0
 14 48  1  0
 16 49  1  0
 17 50  1  0
 23 51  1  0
 24 52  1  0
 26 53  1  0
 29 54  1  0
 30 55  1  0
 30 56  1  0
 31 57  1  0
 32 58  1  0
 34 59  1  0
 35 60  1  0
 36 61  1  0
M  END
$$$$
