
     RDKit          3D

117121  0  0  0  0  0  0  0  0999 V2000
   -5.3530    5.5990    1.4068 C   0  0  0  0  0  0  0  0  0  0  0  0
   -4.3080    4.7794    1.9219 O   0  0  0  0  0  0  0  0  0  0  0  0
   -4.4435    3.3988    1.5461 C   0  0  1  0  0  0  0  0  0  0  0  0
   -3.6867    3.2764    0.2512 C   0  0  0  0  0  0  0  0  0  0  0  0
   -4.2213    2.9161   -0.9192 C   0  0  0  0  0  0  0  0  0  0  0  0
   -3.5283    2.9260   -2.0968 O   0  0  0  0  0  0  0  0  0  0  0  0
   -3.0351    1.6621   -2.5409 C   0  0  1  0  0  0  0  0  0  0  0  0
   -4.0210    0.4955   -2.3969 C   0  0  0  0  0  0  0  0  0  0  0  0
   -2.7483    1.7354   -3.9634 O   0  0  0  0  0  0  0  0  0  0  0  0
   -1.4953    1.2088   -4.1455 C   0  0  0  0  0  0  0  0  0  0  0  0
   -1.0011    0.8983   -5.3934 C   0  0  0  0  0  0  0  0  0  0  0  0
   -1.8118    1.1460   -6.6290 C   0  0  0  0  0  0  0  0  0  0  0  0
    0.2688    0.3003   -5.4202 C   0  0  0  0  0  0  0  0  0  0  0  0
    0.8033   -0.0538   -6.6404 O   0  0  0  0  0  0  0  0  0  0  0  0
    1.0537    0.0482   -4.2367 C   0  0  0  0  0  0  0  0  0  0  0  0
    2.2914   -0.6563   -4.2479 C   0  0  0  0  0  0  0  0  0  0  0  0
    2.6362   -1.3610   -5.3814 O   0  0  0  0  0  0  0  0  0  0  0  0
    3.0985   -0.8174   -3.1067 C   0  0  0  0  0  0  0  0  0  0  0  0
    2.7157   -0.1940   -1.9265 C   0  0  0  0  0  0  0  0  0  0  0  0
    3.6631   -0.0325   -0.7997 C   0  0  0  0  0  0  0  0  0  0  0  0
    4.9292    0.1608   -1.0170 N   0  0  0  0  0  0  0  0  0  0  0  0
    5.7051    0.3486    0.1112 N   0  0  0  0  0  0  0  0  0  0  0  0
    6.9524    1.0774   -0.1625 C   0  0  0  0  0  0  0  0  0  0  0  0
    7.7146    1.4103    1.1348 C   0  0  0  0  0  0  0  0  0  0  0  0
    7.9848    0.2082    1.9537 N   0  0  0  0  0  0  0  0  0  0  0  0
    8.6654    0.5692    3.1945 C   0  0  0  0  0  0  0  0  0  0  0  0
    6.7096   -0.4796    2.2423 C   0  0  0  0  0  0  0  0  0  0  0  0
    5.9233   -0.8290    0.9629 C   0  0  0  0  0  0  0  0  0  0  0  0
    1.4439    0.3974   -1.8396 C   0  0  0  0  0  0  0  0  0  0  0  0
    1.1207    0.9118   -0.6082 O   0  0  0  0  0  0  0  0  0  0  0  0
    0.5697    0.4954   -2.9747 C   0  0  0  0  0  0  0  0  0  0  0  0
   -0.7501    1.0049   -2.9932 C   0  0  0  0  0  0  0  0  0  0  0  0
   -1.6696    1.3450   -1.9211 C   0  0  0  0  0  0  0  0  0  0  0  0
   -1.3575    1.3346   -0.7380 O   0  0  0  0  0  0  0  0  0  0  0  0
    4.2023   -1.6807   -3.2246 N   0  0  0  0  0  0  0  0  0  0  0  0
    4.5743   -2.7499   -2.4611 C   0  0  0  0  0  0  0  0  0  0  0  0
    5.6741   -3.2653   -2.6931 O   0  0  0  0  0  0  0  0  0  0  0  0
    3.6700   -3.3852   -1.4343 C   0  0  0  0  0  0  0  0  0  0  0  0
    4.4414   -4.1190   -0.3664 C   0  0  0  0  0  0  0  0  0  0  0  0
    2.3285   -3.4472   -1.5649 C   0  0  0  0  0  0  0  0  0  0  0  0
    1.4354   -4.1492   -0.6642 C   0  0  0  0  0  0  0  0  0  0  0  0
    0.9332   -3.7170    0.5065 C   0  0  0  0  0  0  0  0  0  0  0  0
    1.0592   -2.3557    1.1537 C   0  0  2  0  0  0  0  0  0  0  0  0
    2.2670   -2.3707    2.1036 C   0  0  0  0  0  0  0  0  0  0  0  0
   -0.1895   -1.8568    1.9606 C   0  0  2  0  0  0  0  0  0  0  0  0
   -0.4959   -2.7927    3.0038 O   0  0  0  0  0  0  0  0  0  0  0  0
   -1.4937   -1.5220    1.1497 C   0  0  1  0  0  0  0  0  0  0  0  0
   -2.2719   -2.7940    0.8122 C   0  0  0  0  0  0  0  0  0  0  0  0
   -2.3286   -0.4715    1.9755 C   0  0  1  0  0  0  0  0  0  0  0  0
   -1.4839    0.6832    2.1045 O   0  0  0  0  0  0  0  0  0  0  0  0
   -3.7282    0.0748    1.5300 C   0  0  1  0  0  0  0  0  0  0  0  0
   -4.7395   -1.0122    1.1488 C   0  0  0  0  0  0  0  0  0  0  0  0
   -4.3254    1.0129    2.6558 C   0  0  2  0  0  0  0  0  0  0  0  0
   -5.7799    1.0478    2.5850 O   0  0  0  0  0  0  0  0  0  0  0  0
   -6.4724    0.3143    3.5028 C   0  0  0  0  0  0  0  0  0  0  0  0
   -7.9420    0.5342    3.3176 C   0  0  0  0  0  0  0  0  0  0  0  0
   -5.9856   -0.4118    4.3571 O   0  0  0  0  0  0  0  0  0  0  0  0
   -3.8599    2.5072    2.6903 C   0  0  2  0  0  0  0  0  0  0  0  0
   -4.2653    3.0908    4.0622 C   0  0  0  0  0  0  0  0  0  0  0  0
   -5.1498    6.6348    1.6881 H   0  0  0  0  0  0  0  0  0  0  0  0
   -6.3161    5.3049    1.8356 H   0  0  0  0  0  0  0  0  0  0  0  0
   -5.4013    5.5441    0.3146 H   0  0  0  0  0  0  0  0  0  0  0  0
   -5.5073    3.1663    1.4044 H   0  0  0  0  0  0  0  0  0  0  0  0
   -2.6353    3.5587    0.2919 H   0  0  0  0  0  0  0  0  0  0  0  0
   -5.2667    2.6620   -1.0539 H   0  0  0  0  0  0  0  0  0  0  0  0
   -4.3152    0.3145   -1.3644 H   0  0  0  0  0  0  0  0  0  0  0  0
   -4.9377    0.7001   -2.9665 H   0  0  0  0  0  0  0  0  0  0  0  0
   -3.6007   -0.4386   -2.7877 H   0  0  0  0  0  0  0  0  0  0  0  0
   -1.9804    0.2029   -7.1599 H   0  0  0  0  0  0  0  0  0  0  0  0
   -1.2933    1.8553   -7.2830 H   0  0  0  0  0  0  0  0  0  0  0  0
   -2.7988    1.5692   -6.4040 H   0  0  0  0  0  0  0  0  0  0  0  0
    0.3520    0.4012   -7.3635 H   0  0  0  0  0  0  0  0  0  0  0  0
    3.5475   -1.6799   -5.3017 H   0  0  0  0  0  0  0  0  0  0  0  0
    3.2458   -0.0025    0.2224 H   0  0  0  0  0  0  0  0  0  0  0  0
    6.6913    2.0093   -0.6771 H   0  0  0  0  0  0  0  0  0  0  0  0
    7.5712    0.4672   -0.8312 H   0  0  0  0  0  0  0  0  0  0  0  0
    8.6629    1.8931    0.8642 H   0  0  0  0  0  0  0  0  0  0  0  0
    7.1244    2.1356    1.7117 H   0  0  0  0  0  0  0  0  0  0  0  0
    8.0635    1.2408    3.8168 H   0  0  0  0  0  0  0  0  0  0  0  0
    9.6200    1.0591    2.9835 H   0  0  0  0  0  0  0  0  0  0  0  0
    8.8951   -0.3293    3.7807 H   0  0  0  0  0  0  0  0  0  0  0  0
    6.0752    0.1460    2.8840 H   0  0  0  0  0  0  0  0  0  0  0  0
    6.9098   -1.4114    2.7858 H   0  0  0  0  0  0  0  0  0  0  0  0
    4.9546   -1.2458    1.2475 H   0  0  0  0  0  0  0  0  0  0  0  0
    6.4660   -1.5777    0.3733 H   0  0  0  0  0  0  0  0  0  0  0  0
    0.2088    1.2616   -0.5809 H   0  0  0  0  0  0  0  0  0  0  0  0
    4.9211   -1.4225   -3.8946 H   0  0  0  0  0  0  0  0  0  0  0  0
    5.1073   -4.8639   -0.8099 H   0  0  0  0  0  0  0  0  0  0  0  0
    3.8012   -4.6644    0.3355 H   0  0  0  0  0  0  0  0  0  0  0  0
    5.0525   -3.4260    0.2131 H   0  0  0  0  0  0  0  0  0  0  0  0
    1.8392   -3.0521   -2.4512 H   0  0  0  0  0  0  0  0  0  0  0  0
    1.1923   -5.1611   -0.9880 H   0  0  0  0  0  0  0  0  0  0  0  0
    0.3612   -4.4430    1.0854 H   0  0  0  0  0  0  0  0  0  0  0  0
    1.2526   -1.6155    0.3697 H   0  0  0  0  0  0  0  0  0  0  0  0
    2.1136   -3.0434    2.9528 H   0  0  0  0  0  0  0  0  0  0  0  0
    3.1759   -2.6897    1.5932 H   0  0  0  0  0  0  0  0  0  0  0  0
    2.4547   -1.3681    2.5012 H   0  0  0  0  0  0  0  0  0  0  0  0
    0.1523   -0.9447    2.4612 H   0  0  0  0  0  0  0  0  0  0  0  0
   -0.8444   -2.2812    3.7545 H   0  0  0  0  0  0  0  0  0  0  0  0
   -1.1755   -1.0505    0.2153 H   0  0  0  0  0  0  0  0  0  0  0  0
   -1.6252   -3.6434    0.5881 H   0  0  0  0  0  0  0  0  0  0  0  0
   -2.9257   -3.1009    1.6329 H   0  0  0  0  0  0  0  0  0  0  0  0
   -2.8672   -2.6532   -0.0945 H   0  0  0  0  0  0  0  0  0  0  0  0
   -2.4519   -0.8807    2.9864 H   0  0  0  0  0  0  0  0  0  0  0  0
   -1.3547    1.0505    1.2010 H   0  0  0  0  0  0  0  0  0  0  0  0
   -3.5732    0.6850    0.6422 H   0  0  0  0  0  0  0  0  0  0  0  0
   -4.8591   -1.7502    1.9441 H   0  0  0  0  0  0  0  0  0  0  0  0
   -5.7233   -0.5886    0.9172 H   0  0  0  0  0  0  0  0  0  0  0  0
   -4.4544   -1.5164    0.2282 H   0  0  0  0  0  0  0  0  0  0  0  0
   -4.0288    0.5700    3.6147 H   0  0  0  0  0  0  0  0  0  0  0  0
   -8.2077    0.4242    2.2629 H   0  0  0  0  0  0  0  0  0  0  0  0
   -8.4947   -0.2228    3.8815 H   0  0  0  0  0  0  0  0  0  0  0  0
   -8.2142    1.5320    3.6735 H   0  0  0  0  0  0  0  0  0  0  0  0
   -2.7680    2.5627    2.6623 H   0  0  0  0  0  0  0  0  0  0  0  0
   -5.3523    3.1947    4.1513 H   0  0  0  0  0  0  0  0  0  0  0  0
   -3.8180    4.0769    4.2236 H   0  0  0  0  0  0  0  0  0  0  0  0
   -3.9136    2.4499    4.8785 H   0  0  0  0  0  0  0  0  0  0  0  0
  1  2  1  0
  2  3  1  0
  3  4  1  0
  4  5  2  0
  5  6  1  0
  6  7  1  0
  7  8  1  6
  7  9  1  0
  9 10  1  0
 10 11  2  0
 11 12  1  0
 11 13  1  0
 13 14  1  0
 13 15  2  0
 15 16  1  0
 16 17  1  0
 16 18  2  0
 18 19  1  0
 19 20  1  0
 20 21  2  0
 21 22  1  0
 22 23  1  0
 23 24  1  0
 24 25  1  0
 25 26  1  0
 25 27  1  0
 27 28  1  0
 19 29  2  0
 29 30  1  0
 29 31  1  0
 31 32  2  0
 32 33  1  0
 33 34  2  0
 18 35  1  0
 35 36  1  0
 36 37  2  0
 36 38  1  0
 38 39  1  0
 38 40  2  0
 40 41  1  0
 41 42  2  0
 42 43  1  0
 43 44  1  0
 43 45  1  0
 45 46  1  0
 45 47  1  0
 47 48  1  0
 47 49  1  0
 49 50  1  0
 49 51  1  0
 51 52  1  0
 51 53  1  0
 53 54  1  0
 54 55  1  0
 55 56  1  0
 55 57  2  0
 53 58  1  0
 58 59  1  0
 58  3  1  0
 33  7  1  0
 32 10  1  0
 31 15  1  0
 28 22  1  0
  1 60  1  0
  1 61  1  0
  1 62  1  0
  3 63  1  6
  4 64  1  0
  5 65  1  0
  8 66  1  0
  8 67  1  0
  8 68  1  0
 12 69  1  0
 12 70  1  0
 12 71  1  0
 14 72  1  0
 17 73  1  0
 20 74  1  0
 23 75  1  0
 23 76  1  0
 24 77  1  0
 24 78  1  0
 26 79  1  0
 26 80  1  0
 26 81  1  0
 27 82  1  0
 27 83  1  0
 28 84  1  0
 28 85  1  0
 30 86  1  0
 35 87  1  0
 39 88  1  0
 39 89  1  0
 39 90  1  0
 40 91  1  0
 41 92  1  0
 42 93  1  0
 43 94  1  6
 44 95  1  0
 44 96  1  0
 44 97  1  0
 45 98  1  1
 46 99  1  0
 47100  1  6
 48101  1  0
 48102  1  0
 48103  1  0
 49104  1  1
 50105  1  0
 51106  1  6
 52107  1  0
 52108  1  0
 52109  1  0
 53110  1  1
 56111  1  0
 56112  1  0
 56113  1  0
 58114  1  1
 59115  1  0
 59116  1  0
 59117  1  0
M  END
$$$$
