
     RDKit          3D

 39 40  0  0  0  0  0  0  0  0999 V2000
   -0.5288   -3.3850    1.4429 C   0  0  0  0  0  0  0  0  0  0  0  0
   -1.6529   -2.5807    1.1135 O   0  0  0  0  0  0  0  0  0  0  0  0
   -1.4366   -1.2454    0.8924 C   0  0  0  0  0  0  0  0  0  0  0  0
   -0.2001   -0.6057    1.0100 C   0  0  0  0  0  0  0  0  0  0  0  0
   -0.0727    0.7713    0.7531 C   0  0  0  0  0  0  0  0  0  0  0  0
    1.2669    1.4678    0.8849 C   0  0  0  0  0  0  0  0  0  0  0  0
    2.4083    0.7986    0.1730 C   0  0  0  0  0  0  0  0  0  0  0  0
    3.4711    0.2792    0.8870 C   0  0  0  0  0  0  0  0  0  0  0  0
    4.5259   -0.3362    0.3278 N   0  0  0  0  0  0  0  0  0  0  0  0
    4.5038   -0.4437   -1.0001 C   0  0  0  0  0  0  0  0  0  0  0  0
    5.5760   -1.0632   -1.6081 N   0  0  0  0  0  0  0  0  0  0  0  0
    3.5448    0.0436   -1.7871 N   0  0  0  0  0  0  0  0  0  0  0  0
    2.5065    0.6572   -1.2021 C   0  0  0  0  0  0  0  0  0  0  0  0
    1.5092    1.1282   -2.0636 N   0  0  0  0  0  0  0  0  0  0  0  0
   -1.2153    1.5150    0.4099 C   0  0  0  0  0  0  0  0  0  0  0  0
   -2.4635    0.8974    0.2982 C   0  0  0  0  0  0  0  0  0  0  0  0
   -3.6257    1.5401   -0.0408 O   0  0  0  0  0  0  0  0  0  0  0  0
   -3.6167    2.9606   -0.0289 C   0  0  0  0  0  0  0  0  0  0  0  0
   -2.5585   -0.4864    0.5202 C   0  0  0  0  0  0  0  0  0  0  0  0
   -3.7933   -1.0943    0.4476 O   0  0  0  0  0  0  0  0  0  0  0  0
   -4.0078   -1.5968   -0.8701 C   0  0  0  0  0  0  0  0  0  0  0  0
   -0.0875   -3.0742    2.3955 H   0  0  0  0  0  0  0  0  0  0  0  0
   -0.8778   -4.4156    1.5591 H   0  0  0  0  0  0  0  0  0  0  0  0
    0.2146   -3.3745    0.6389 H   0  0  0  0  0  0  0  0  0  0  0  0
    0.6840   -1.1651    1.3009 H   0  0  0  0  0  0  0  0  0  0  0  0
    1.4846    1.5588    1.9574 H   0  0  0  0  0  0  0  0  0  0  0  0
    1.1992    2.4989    0.5136 H   0  0  0  0  0  0  0  0  0  0  0  0
    3.5113    0.3389    1.9715 H   0  0  0  0  0  0  0  0  0  0  0  0
    5.6488   -0.7370   -2.5620 H   0  0  0  0  0  0  0  0  0  0  0  0
    6.3941   -0.9821   -1.0224 H   0  0  0  0  0  0  0  0  0  0  0  0
    1.3534    2.1203   -1.9282 H   0  0  0  0  0  0  0  0  0  0  0  0
    0.6372    0.6374   -1.8804 H   0  0  0  0  0  0  0  0  0  0  0  0
   -1.1088    2.5805    0.2313 H   0  0  0  0  0  0  0  0  0  0  0  0
   -2.9966    3.3539   -0.8408 H   0  0  0  0  0  0  0  0  0  0  0  0
   -3.2915    3.3500    0.9416 H   0  0  0  0  0  0  0  0  0  0  0  0
   -4.6420    3.3032   -0.1985 H   0  0  0  0  0  0  0  0  0  0  0  0
   -4.9988   -2.0600   -0.8940 H   0  0  0  0  0  0  0  0  0  0  0  0
   -3.2708   -2.3640   -1.1311 H   0  0  0  0  0  0  0  0  0  0  0  0
   -3.9942   -0.7910   -1.6122 H   0  0  0  0  0  0  0  0  0  0  0  0
  1  2  1  0
  2  3  1  0
  3  4  2  0
  4  5  1  0
  5  6  1  0
  6  7  1  0
  7  8  2  0
  8  9  1  0
  9 10  2  0
 10 11  1  0
 10 12  1  0
 12 13  2  0
 13 14  1  0
  5 15  2  0
 15 16  1  0
 16 17  1  0
 17 18  1  0
 16 19  2  0
 19 20  1  0
 20 21  1  0
 19  3  1  0
 13  7  1  0
  1 22  1  0
  1 23  1  0
  1 24  1  0
  4 25  1  0
  6 26  1  0
  6 27  1  0
  8 28  1  0
 11 29  1  0
 11 30  1  0
 14 31  1  0
 14 32  1  0
 15 33  1  0
 18 34  1  0
 18 35  1  0
 18 36  1  0
 21 37  1  0
 21 38  1  0
 21 39  1  0
M  END
$$$$
