
     RDKit          3D

 69 71  0  0  0  0  0  0  0  0999 V2000
   -4.8910   -0.8836   -2.9806 C   0  0  0  0  0  0  0  0  0  0  0  0
   -4.3065   -0.6806   -1.6046 N   0  0  0  0  0  0  0  0  0  0  0  0
   -5.2294   -1.1451   -0.6180 C   0  0  0  0  0  0  0  0  0  0  0  0
   -3.0510   -0.1368   -1.5471 C   0  0  0  0  0  0  0  0  0  0  0  0
   -2.4811    0.0918   -2.6913 O   0  0  0  0  0  0  0  0  0  0  0  0
   -2.1650    0.2647   -0.4451 C   0  0  0  0  0  0  0  0  0  0  0  0
   -0.7090    0.1766   -0.7059 C   0  0  0  0  0  0  0  0  0  0  0  0
    0.0020    0.7743   -1.8035 C   0  0  0  0  0  0  0  0  0  0  0  0
    1.4794    0.5273   -1.5889 N   0  0  0  0  0  0  0  0  0  0  0  0
    1.9222    1.4575   -0.5573 C   0  0  0  0  0  0  0  0  0  0  0  0
    3.1946    1.0433    0.0825 C   0  0  0  0  0  0  0  0  0  0  0  0
    3.9844    0.1099   -0.8152 C   0  0  0  0  0  0  0  0  0  0  0  0
    4.3773    0.8623   -1.9371 O   0  0  0  0  0  0  0  0  0  0  0  0
    5.2226   -0.2166   -0.0444 C   0  0  0  0  0  0  0  0  0  0  0  0
    5.1184   -0.7706    1.2235 C   0  0  0  0  0  0  0  0  0  0  0  0
    6.2154   -1.0783    2.0021 C   0  0  0  0  0  0  0  0  0  0  0  0
    7.4715   -0.8214    1.4882 C   0  0  0  0  0  0  0  0  0  0  0  0
    8.8664   -1.2098    2.4686 Cl  0  0  0  0  0  0  0  0  0  0  0  0
    7.6196   -0.2786    0.2478 C   0  0  0  0  0  0  0  0  0  0  0  0
    6.4938    0.0209   -0.5124 C   0  0  0  0  0  0  0  0  0  0  0  0
    3.1878   -1.0957   -1.2198 C   0  0  0  0  0  0  0  0  0  0  0  0
    1.6942   -0.8367   -1.1800 C   0  0  0  0  0  0  0  0  0  0  0  0
   -2.6485    1.4914    0.1955 C   0  0  0  0  0  0  0  0  0  0  0  0
   -2.1120    2.7161   -0.1394 C   0  0  0  0  0  0  0  0  0  0  0  0
   -2.5107    3.9285    0.4425 C   0  0  0  0  0  0  0  0  0  0  0  0
   -3.4895    3.9173    1.4011 C   0  0  0  0  0  0  0  0  0  0  0  0
   -4.0347    2.6906    1.7429 C   0  0  0  0  0  0  0  0  0  0  0  0
   -3.6283    1.5206    1.1612 C   0  0  0  0  0  0  0  0  0  0  0  0
   -2.2962   -0.8845    0.5868 C   0  0  0  0  0  0  0  0  0  0  0  0
   -2.5404   -2.1224    0.0780 C   0  0  0  0  0  0  0  0  0  0  0  0
   -2.6756   -3.2309    0.9154 C   0  0  0  0  0  0  0  0  0  0  0  0
   -2.5574   -3.0494    2.2624 C   0  0  0  0  0  0  0  0  0  0  0  0
   -2.3091   -1.7960    2.7837 C   0  0  0  0  0  0  0  0  0  0  0  0
   -2.1758   -0.6893    1.9128 C   0  0  0  0  0  0  0  0  0  0  0  0
    0.6899    0.0000    0.0000 Cl  0  0  0  0  0  0  0  0  0  0  0  0
   -4.4328   -0.0841   -3.6028 H   0  0  0  0  0  0  0  0  0  0  0  0
   -5.9590   -0.6210   -2.9182 H   0  0  0  0  0  0  0  0  0  0  0  0
   -4.7243   -1.9011   -3.3218 H   0  0  0  0  0  0  0  0  0  0  0  0
   -5.4994   -2.2384   -0.8407 H   0  0  0  0  0  0  0  0  0  0  0  0
   -6.2417   -0.6485   -0.7935 H   0  0  0  0  0  0  0  0  0  0  0  0
   -5.0507   -1.0023    0.4212 H   0  0  0  0  0  0  0  0  0  0  0  0
   -0.1773    0.3988    0.2773 H   0  0  0  0  0  0  0  0  0  0  0  0
   -0.4202   -0.9596   -0.7867 H   0  0  0  0  0  0  0  0  0  0  0  0
    0.0438    1.8436   -1.9945 H   0  0  0  0  0  0  0  0  0  0  0  0
   -0.2096    0.2115   -2.7730 H   0  0  0  0  0  0  0  0  0  0  0  0
    2.1575    2.4134   -1.1327 H   0  0  0  0  0  0  0  0  0  0  0  0
    1.1362    1.7642    0.1337 H   0  0  0  0  0  0  0  0  0  0  0  0
    3.0588    0.6491    1.1102 H   0  0  0  0  0  0  0  0  0  0  0  0
    3.8518    1.9526    0.1901 H   0  0  0  0  0  0  0  0  0  0  0  0
    4.9193    1.6178   -1.6028 H   0  0  0  0  0  0  0  0  0  0  0  0
    4.1429   -0.9779    1.6271 H   0  0  0  0  0  0  0  0  0  0  0  0
    6.0712   -1.5132    3.0036 H   0  0  0  0  0  0  0  0  0  0  0  0
    8.6203   -0.0892   -0.1370 H   0  0  0  0  0  0  0  0  0  0  0  0
    6.6004    0.4519   -1.4874 H   0  0  0  0  0  0  0  0  0  0  0  0
    3.5001   -1.5134   -2.2071 H   0  0  0  0  0  0  0  0  0  0  0  0
    3.4180   -1.8954   -0.4629 H   0  0  0  0  0  0  0  0  0  0  0  0
    1.4292   -0.9969   -0.0904 H   0  0  0  0  0  0  0  0  0  0  0  0
    1.1866   -1.5110   -1.8651 H   0  0  0  0  0  0  0  0  0  0  0  0
   -1.3520    2.8210   -0.8786 H   0  0  0  0  0  0  0  0  0  0  0  0
   -2.0251    4.8626    0.1172 H   0  0  0  0  0  0  0  0  0  0  0  0
   -3.7821    4.8563    1.8396 H   0  0  0  0  0  0  0  0  0  0  0  0
   -4.8195    2.7358    2.5095 H   0  0  0  0  0  0  0  0  0  0  0  0
   -4.1036    0.6358    1.4913 H   0  0  0  0  0  0  0  0  0  0  0  0
   -2.6424   -2.3474   -0.9901 H   0  0  0  0  0  0  0  0  0  0  0  0
   -2.8709   -4.2111    0.5161 H   0  0  0  0  0  0  0  0  0  0  0  0
   -2.6679   -3.9416    2.8890 H   0  0  0  0  0  0  0  0  0  0  0  0
   -2.2258   -1.6798    3.8389 H   0  0  0  0  0  0  0  0  0  0  0  0
   -1.9702    0.2506    2.3985 H   0  0  0  0  0  0  0  0  0  0  0  0
   -0.6899    0.0000    0.0000 H   0  0  0  0  0  0  0  0  0  0  0  0
  1  2  1  0
  2  3  1  0
  2  4  1  0
  4  5  2  0
  4  6  1  0
  6  7  1  0
  7  8  1  0
  8  9  1  0
  9 10  1  0
 10 11  1  0
 11 12  1  0
 12 13  1  0
 12 14  1  0
 14 15  2  0
 15 16  1  0
 16 17  2  0
 17 18  1  0
 17 19  1  0
 19 20  2  0
 12 21  1  0
 21 22  1  0
  6 23  1  0
 23 24  2  0
 24 25  1  0
 25 26  2  0
 26 27  1  0
 27 28  2  0
  6 29  1  0
 29 30  2  0
 30 31  1  0
 31 32  2  0
 32 33  1  0
 33 34  2  0
 22  9  1  0
 28 23  1  0
 34 29  1  0
 20 14  1  0
  1 36  1  0
  1 37  1  0
  1 38  1  0
  3 39  1  0
  3 40  1  0
  3 41  1  0
  7 42  1  0
  7 43  1  0
  8 44  1  0
  8 45  1  0
 10 46  1  0
 10 47  1  0
 11 48  1  0
 11 49  1  0
 13 50  1  0
 15 51  1  0
 16 52  1  0
 19 53  1  0
 20 54  1  0
 21 55  1  0
 21 56  1  0
 22 57  1  0
 22 58  1  0
 24 59  1  0
 25 60  1  0
 26 61  1  0
 27 62  1  0
 28 63  1  0
 30 64  1  0
 31 65  1  0
 32 66  1  0
 33 67  1  0
 34 68  1  0
 35 69  1  0
M  END
$$$$
