
     RDKit          3D

 47 49  0  0  0  0  0  0  0  0999 V2000
    0.1677    1.6024    4.6237 C   0  0  0  0  0  0  0  0  0  0  0  0
   -0.3617    0.8123    3.5678 O   0  0  0  0  0  0  0  0  0  0  0  0
   -1.4868    1.4368    2.9608 C   0  0  0  0  0  0  0  0  0  0  0  0
   -2.1633    0.5608    1.8944 C   0  0  0  0  0  0  0  0  0  0  0  0
   -3.3696    0.3241    2.0035 O   0  0  0  0  0  0  0  0  0  0  0  0
   -1.4010    0.0896    0.8167 N   0  0  0  0  0  0  0  0  0  0  0  0
   -2.0113   -0.8753   -0.1301 C   0  0  0  0  0  0  0  0  0  0  0  0
   -3.1201   -0.2608   -0.9920 C   0  0  0  0  0  0  0  0  0  0  0  0
   -3.6556   -1.3056   -1.9626 C   0  0  0  0  0  0  0  0  0  0  0  0
   -4.1042   -2.4699   -1.2708 O   0  0  0  0  0  0  0  0  0  0  0  0
   -3.0656   -3.1070   -0.5284 C   0  0  0  0  0  0  0  0  0  0  0  0
   -2.4974   -2.1726    0.5321 C   0  0  0  0  0  0  0  0  0  0  0  0
    0.0120    0.4637    0.6209 C   0  0  0  0  0  0  0  0  0  0  0  0
    0.9990   -0.6797    0.8733 C   0  0  0  0  0  0  0  0  0  0  0  0
    2.2802   -0.1718    0.2218 C   0  0  0  0  0  0  0  0  0  0  0  0
    1.8323    0.6753   -0.8756 N   0  0  0  0  0  0  0  0  0  0  0  0
    2.5843    1.2037   -1.9135 C   0  0  0  0  0  0  0  0  0  0  0  0
    2.0377    1.8442   -2.8140 O   0  0  0  0  0  0  0  0  0  0  0  0
    4.0450    0.9950   -1.9248 C   0  0  0  0  0  0  0  0  0  0  0  0
    4.8370    1.3876   -2.9945 C   0  0  0  0  0  0  0  0  0  0  0  0
    6.4846    1.0260   -2.7012 S   0  0  0  0  0  0  0  0  0  0  0  0
    6.0480    0.3852   -1.1758 C   0  0  0  0  0  0  0  0  0  0  0  0
    4.7690    0.4209   -0.8756 N   0  0  0  0  0  0  0  0  0  0  0  0
    0.4069    0.9482   -0.7845 C   0  0  0  0  0  0  0  0  0  0  0  0
   -0.5751    1.7308    5.4168 H   0  0  0  0  0  0  0  0  0  0  0  0
    1.0356    1.0836    5.0394 H   0  0  0  0  0  0  0  0  0  0  0  0
    0.4908    2.5777    4.2471 H   0  0  0  0  0  0  0  0  0  0  0  0
   -2.2376    1.6454    3.7332 H   0  0  0  0  0  0  0  0  0  0  0  0
   -1.2016    2.3905    2.5019 H   0  0  0  0  0  0  0  0  0  0  0  0
   -1.2180   -1.1863   -0.8201 H   0  0  0  0  0  0  0  0  0  0  0  0
   -3.9463    0.0872   -0.3631 H   0  0  0  0  0  0  0  0  0  0  0  0
   -2.7445    0.6090   -1.5423 H   0  0  0  0  0  0  0  0  0  0  0  0
   -4.5077   -0.8972   -2.5152 H   0  0  0  0  0  0  0  0  0  0  0  0
   -2.8943   -1.5924   -2.6977 H   0  0  0  0  0  0  0  0  0  0  0  0
   -2.2847   -3.4487   -1.2179 H   0  0  0  0  0  0  0  0  0  0  0  0
   -3.4932   -3.9945   -0.0511 H   0  0  0  0  0  0  0  0  0  0  0  0
   -3.2842   -1.9643    1.2640 H   0  0  0  0  0  0  0  0  0  0  0  0
   -1.6773   -2.6623    1.0689 H   0  0  0  0  0  0  0  0  0  0  0  0
    0.2769    1.2825    1.2951 H   0  0  0  0  0  0  0  0  0  0  0  0
    1.1322   -0.9055    1.9352 H   0  0  0  0  0  0  0  0  0  0  0  0
    0.6764   -1.6027    0.3781 H   0  0  0  0  0  0  0  0  0  0  0  0
    2.8554    0.4469    0.9187 H   0  0  0  0  0  0  0  0  0  0  0  0
    2.8956   -0.9985   -0.1428 H   0  0  0  0  0  0  0  0  0  0  0  0
    4.5198    1.8611   -3.9138 H   0  0  0  0  0  0  0  0  0  0  0  0
    6.7894   -0.0236   -0.5014 H   0  0  0  0  0  0  0  0  0  0  0  0
    0.2089    2.0172   -0.9181 H   0  0  0  0  0  0  0  0  0  0  0  0
   -0.0840    0.4108   -1.6005 H   0  0  0  0  0  0  0  0  0  0  0  0
  1  2  1  0
  2  3  1  0
  3  4  1  0
  4  5  2  0
  4  6  1  0
  6  7  1  0
  7  8  1  0
  8  9  1  0
  9 10  1  0
 10 11  1  0
 11 12  1  0
  6 13  1  0
 13 14  1  0
 14 15  1  0
 15 16  1  0
 16 17  1  0
 17 18  2  0
 17 19  1  0
 19 20  2  0
 20 21  1  0
 21 22  1  0
 22 23  2  0
 16 24  1  0
 12  7  1  0
 24 13  1  0
 23 19  1  0
  1 25  1  0
  1 26  1  0
  1 27  1  0
  3 28  1  0
  3 29  1  0
  7 30  1  0
  8 31  1  0
  8 32  1  0
  9 33  1  0
  9 34  1  0
 11 35  1  0
 11 36  1  0
 12 37  1  0
 12 38  1  0
 13 39  1  0
 14 40  1  0
 14 41  1  0
 15 42  1  0
 15 43  1  0
 20 44  1  0
 22 45  1  0
 24 46  1  0
 24 47  1  0
M  END
$$$$
