
     RDKit          3D

 39 40  0  0  0  0  0  0  0  0999 V2000
   -4.1204   -1.6890   -0.7369 C   0  0  0  0  0  0  0  0  0  0  0  0
   -3.5389   -0.5221   -0.1021 N   0  0  0  0  0  0  0  0  0  0  0  0
   -2.0967   -0.6452   -0.0646 C   0  0  1  0  0  0  0  0  0  0  0  0
   -1.4891   -0.6998   -1.4377 C   0  0  0  0  0  0  0  0  0  0  0  0
   -0.0085   -0.5557   -1.3926 C   0  0  0  0  0  0  0  0  0  0  0  0
    0.5606   -0.5028    0.0058 C   0  0  1  0  0  0  0  0  0  0  0  0
    2.0092   -0.4137    0.0550 C   0  0  0  0  0  0  0  0  0  0  0  0
    2.7213   -1.0865    1.0271 C   0  0  0  0  0  0  0  0  0  0  0  0
    4.0834   -1.0529    1.1509 C   0  0  0  0  0  0  0  0  0  0  0  0
    4.8063   -0.2974    0.2469 C   0  0  0  0  0  0  0  0  0  0  0  0
    6.5590   -0.2361    0.3851 Cl  0  0  0  0  0  0  0  0  0  0  0  0
    4.1310    0.3888   -0.7384 C   0  0  0  0  0  0  0  0  0  0  0  0
    5.1111    1.3338   -1.8534 Cl  0  0  0  0  0  0  0  0  0  0  0  0
    2.7476    0.3380   -0.8418 C   0  0  0  0  0  0  0  0  0  0  0  0
   -0.1441    0.5955    0.7042 C   0  0  0  0  0  0  0  0  0  0  0  0
    0.4863    1.6393    1.3585 C   0  0  0  0  0  0  0  0  0  0  0  0
   -0.3072    2.6113    1.9695 C   0  0  0  0  0  0  0  0  0  0  0  0
   -1.6830    2.5376    1.9246 C   0  0  0  0  0  0  0  0  0  0  0  0
   -2.2947    1.4666    1.2536 C   0  0  0  0  0  0  0  0  0  0  0  0
   -1.5187    0.5063    0.6502 C   0  0  0  0  0  0  0  0  0  0  0  0
    0.6908    0.0000    0.0000 Cl  0  0  0  0  0  0  0  0  0  0  0  0
   -4.5944   -1.4254   -1.7045 H   0  0  0  0  0  0  0  0  0  0  0  0
   -4.8728   -2.1225   -0.0214 H   0  0  0  0  0  0  0  0  0  0  0  0
   -3.3294   -2.4600   -0.8433 H   0  0  0  0  0  0  0  0  0  0  0  0
   -3.8402    0.3545   -0.5745 H   0  0  0  0  0  0  0  0  0  0  0  0
   -1.8526   -1.6165    0.4267 H   0  0  0  0  0  0  0  0  0  0  0  0
   -1.8218   -1.5966   -2.0109 H   0  0  0  0  0  0  0  0  0  0  0  0
   -1.9116    0.1689   -2.0029 H   0  0  0  0  0  0  0  0  0  0  0  0
    0.3201    0.4072   -1.8873 H   0  0  0  0  0  0  0  0  0  0  0  0
    0.5060   -1.3495   -1.9795 H   0  0  0  0  0  0  0  0  0  0  0  0
    0.2417   -1.4499    0.5346 H   0  0  0  0  0  0  0  0  0  0  0  0
    2.1662   -1.6933    1.7583 H   0  0  0  0  0  0  0  0  0  0  0  0
    4.6351   -1.5910    1.9256 H   0  0  0  0  0  0  0  0  0  0  0  0
    2.2660    0.9004   -1.6371 H   0  0  0  0  0  0  0  0  0  0  0  0
    1.5527    1.6476    1.3626 H   0  0  0  0  0  0  0  0  0  0  0  0
    0.1970    3.4039    2.4661 H   0  0  0  0  0  0  0  0  0  0  0  0
   -2.3061    3.2821    2.3930 H   0  0  0  0  0  0  0  0  0  0  0  0
   -3.3706    1.4241    1.2288 H   0  0  0  0  0  0  0  0  0  0  0  0
   -0.6908    0.0000    0.0000 H   0  0  0  0  0  0  0  0  0  0  0  0
  1  2  1  0
  2  3  1  0
  3  4  1  0
  4  5  1  0
  5  6  1  0
  6  7  1  0
  7  8  2  0
  8  9  1  0
  9 10  2  0
 10 11  1  0
 10 12  1  0
 12 13  1  0
 12 14  2  0
  6 15  1  0
 15 16  2  0
 16 17  1  0
 17 18  2  0
 18 19  1  0
 19 20  2  0
 20  3  1  0
 14  7  1  0
 20 15  1  0
  1 22  1  0
  1 23  1  0
  1 24  1  0
  2 25  1  0
  3 26  1  1
  4 27  1  0
  4 28  1  0
  5 29  1  0
  5 30  1  0
  6 31  1  1
  8 32  1  0
  9 33  1  0
 14 34  1  0
 16 35  1  0
 17 36  1  0
 18 37  1  0
 19 38  1  0
 21 39  1  0
M  END
$$$$
