
     RDKit          3D

 73 76  0  0  0  0  0  0  0  0999 V2000
    5.4170   -2.8926   -1.1900 C   0  0  0  0  0  0  0  0  0  0  0  0
    6.5292   -1.9811   -1.6671 C   0  0  0  0  0  0  0  0  0  0  0  0
    7.1584   -0.9124   -0.3749 S   0  0  0  0  0  6  0  0  0  0  0  0
    8.0426    0.0633   -0.9739 O   0  0  0  0  0  0  0  0  0  0  0  0
    7.6047   -1.7504    0.7184 O   0  0  0  0  0  0  0  0  0  0  0  0
    5.7589   -0.0902    0.1304 N   0  0  0  0  0  0  0  0  0  0  0  0
    5.2397    0.9456   -0.7865 C   0  0  0  0  0  0  0  0  0  0  0  0
    3.7564    1.1842   -0.4908 C   0  0  0  0  0  0  0  0  0  0  0  0
    3.3910    0.9745    0.9924 C   0  0  0  0  0  0  0  0  0  0  0  0
    2.1122    1.7219    1.4655 C   0  0  0  0  0  0  0  0  0  0  0  0
    2.2313    3.2510    1.5224 C   0  0  0  0  0  0  0  0  0  0  0  0
    0.8905    1.2128    0.8145 N   0  0  0  0  0  0  0  0  0  0  0  0
    0.1295    0.1708    1.3290 C   0  0  0  0  0  0  0  0  0  0  0  0
    0.4947   -0.5978    2.5606 C   0  0  0  0  0  0  0  0  0  0  0  0
   -0.9931    0.0072    0.5236 C   0  0  0  0  0  0  0  0  0  0  0  0
   -2.0570   -0.9695    0.7784 C   0  0  0  0  0  0  0  0  0  0  0  0
   -2.3949   -1.2957    1.9133 O   0  0  0  0  0  0  0  0  0  0  0  0
   -2.6178   -1.5150   -0.3501 N   0  0  0  0  0  0  0  0  0  0  0  0
   -3.7665   -2.3895   -0.3105 C   0  0  0  0  0  0  0  0  0  0  0  0
   -5.0084   -1.6000   -0.5857 C   0  0  0  0  0  0  0  0  0  0  0  0
   -6.0137   -1.4003    0.2895 C   0  0  0  0  0  0  0  0  0  0  0  0
   -5.9681   -1.8597    1.5876 O   0  0  0  0  0  0  0  0  0  0  0  0
   -6.7759   -3.0203    1.7684 C   0  0  0  0  0  0  0  0  0  0  0  0
   -7.1513   -0.5660   -0.0416 C   0  0  0  0  0  0  0  0  0  0  0  0
   -7.2850   -0.0647   -1.2787 C   0  0  0  0  0  0  0  0  0  0  0  0
   -8.4258    0.8086   -1.7026 C   0  0  0  0  0  0  0  0  0  0  0  0
   -6.3173   -0.3393   -2.2157 N   0  0  0  0  0  0  0  0  0  0  0  0
   -5.1724   -1.0574   -1.9662 C   0  0  0  0  0  0  0  0  0  0  0  0
   -4.3227   -1.2290   -2.8369 O   0  0  0  0  0  0  0  0  0  0  0  0
   -0.8936    0.9725   -0.5313 C   0  0  0  0  0  0  0  0  0  0  0  0
   -1.7317    1.3221   -1.6195 C   0  0  0  0  0  0  0  0  0  0  0  0
   -1.3468    2.3136   -2.5249 C   0  0  0  0  0  0  0  0  0  0  0  0
   -0.1490    2.9832   -2.3508 C   0  0  0  0  0  0  0  0  0  0  0  0
    0.6791    2.6895   -1.2626 C   0  0  0  0  0  0  0  0  0  0  0  0
    0.3008    1.6850   -0.3506 C   0  0  0  0  0  0  0  0  0  0  0  0
    4.6140    1.2902    1.8690 C   0  0  0  0  0  0  0  0  0  0  0  0
    5.7901    0.3597    1.5489 C   0  0  0  0  0  0  0  0  0  0  0  0
    5.7496   -3.5215   -0.3572 H   0  0  0  0  0  0  0  0  0  0  0  0
    4.5467   -2.3209   -0.8511 H   0  0  0  0  0  0  0  0  0  0  0  0
    5.0939   -3.5497   -2.0053 H   0  0  0  0  0  0  0  0  0  0  0  0
    6.1958   -1.3529   -2.4970 H   0  0  0  0  0  0  0  0  0  0  0  0
    7.3771   -2.5776   -2.0162 H   0  0  0  0  0  0  0  0  0  0  0  0
    5.8067    1.8751   -0.6482 H   0  0  0  0  0  0  0  0  0  0  0  0
    5.3471    0.6521   -1.8355 H   0  0  0  0  0  0  0  0  0  0  0  0
    3.5192    2.1950   -0.8305 H   0  0  0  0  0  0  0  0  0  0  0  0
    3.1522    0.4987   -1.0987 H   0  0  0  0  0  0  0  0  0  0  0  0
    3.1910   -0.1004    1.1104 H   0  0  0  0  0  0  0  0  0  0  0  0
    1.9774    1.4547    2.5234 H   0  0  0  0  0  0  0  0  0  0  0  0
    1.2577    3.7196    1.7071 H   0  0  0  0  0  0  0  0  0  0  0  0
    2.6544    3.6806    0.6124 H   0  0  0  0  0  0  0  0  0  0  0  0
    2.8952    3.5460    2.3437 H   0  0  0  0  0  0  0  0  0  0  0  0
    0.1148   -0.0819    3.4494 H   0  0  0  0  0  0  0  0  0  0  0  0
    1.5751   -0.7239    2.6654 H   0  0  0  0  0  0  0  0  0  0  0  0
    0.0708   -1.6078    2.5420 H   0  0  0  0  0  0  0  0  0  0  0  0
   -2.2629   -1.2511   -1.2603 H   0  0  0  0  0  0  0  0  0  0  0  0
   -3.6250   -3.1565   -1.0818 H   0  0  0  0  0  0  0  0  0  0  0  0
   -3.8076   -2.9055    0.6550 H   0  0  0  0  0  0  0  0  0  0  0  0
   -7.8402   -2.7714    1.6827 H   0  0  0  0  0  0  0  0  0  0  0  0
   -6.5110   -3.8032    1.0479 H   0  0  0  0  0  0  0  0  0  0  0  0
   -6.5979   -3.3997    2.7780 H   0  0  0  0  0  0  0  0  0  0  0  0
   -7.8714   -0.3454    0.7391 H   0  0  0  0  0  0  0  0  0  0  0  0
   -8.9449    0.3774   -2.5671 H   0  0  0  0  0  0  0  0  0  0  0  0
   -8.0592    1.8022   -1.9791 H   0  0  0  0  0  0  0  0  0  0  0  0
   -9.1612    0.9351   -0.8999 H   0  0  0  0  0  0  0  0  0  0  0  0
   -6.3984    0.0328   -3.1545 H   0  0  0  0  0  0  0  0  0  0  0  0
   -2.6882    0.8290   -1.7691 H   0  0  0  0  0  0  0  0  0  0  0  0
   -1.9935    2.5577   -3.3649 H   0  0  0  0  0  0  0  0  0  0  0  0
    0.1457    3.7564   -3.0570 H   0  0  0  0  0  0  0  0  0  0  0  0
    1.5945    3.2537   -1.1529 H   0  0  0  0  0  0  0  0  0  0  0  0
    4.3687    1.2026    2.9335 H   0  0  0  0  0  0  0  0  0  0  0  0
    4.9269    2.3299    1.7070 H   0  0  0  0  0  0  0  0  0  0  0  0
    5.7215   -0.5277    2.1883 H   0  0  0  0  0  0  0  0  0  0  0  0
    6.7304    0.8738    1.7732 H   0  0  0  0  0  0  0  0  0  0  0  0
  1  2  1  0
  2  3  1  0
  3  4  2  0
  3  5  2  0
  3  6  1  0
  6  7  1  0
  7  8  1  0
  8  9  1  0
  9 10  1  0
 10 11  1  0
 10 12  1  0
 12 13  1  0
 13 14  1  0
 13 15  2  0
 15 16  1  0
 16 17  2  0
 16 18  1  0
 18 19  1  0
 19 20  1  0
 20 21  2  0
 21 22  1  0
 22 23  1  0
 21 24  1  0
 24 25  2  0
 25 26  1  0
 25 27  1  0
 27 28  1  0
 28 29  2  0
 15 30  1  0
 30 31  2  0
 31 32  1  0
 32 33  2  0
 33 34  1  0
 34 35  2  0
  9 36  1  0
 36 37  1  0
 37  6  1  0
 35 12  1  0
 28 20  1  0
 35 30  1  0
  1 38  1  0
  1 39  1  0
  1 40  1  0
  2 41  1  0
  2 42  1  0
  7 43  1  0
  7 44  1  0
  8 45  1  0
  8 46  1  0
  9 47  1  0
 10 48  1  0
 11 49  1  0
 11 50  1  0
 11 51  1  0
 14 52  1  0
 14 53  1  0
 14 54  1  0
 18 55  1  0
 19 56  1  0
 19 57  1  0
 23 58  1  0
 23 59  1  0
 23 60  1  0
 24 61  1  0
 26 62  1  0
 26 63  1  0
 26 64  1  0
 27 65  1  0
 31 66  1  0
 32 67  1  0
 33 68  1  0
 34 69  1  0
 36 70  1  0
 36 71  1  0
 37 72  1  0
 37 73  1  0
M  END
$$$$
