
     RDKit          3D

 38 39  0  0  0  0  0  0  0  0999 V2000
   -1.6664    1.4700   -0.9265 C   0  0  0  0  0  0  0  0  0  0  0  0
   -2.9168    0.8055   -0.3473 C   0  0  0  0  0  0  0  0  0  0  0  0
   -4.0464    0.8556   -1.3798 C   0  0  0  0  0  0  0  0  0  0  0  0
   -2.6536   -0.6014   -0.0051 N   0  0  0  0  0  0  0  0  0  0  0  0
   -1.9381   -0.7336    1.2834 C   0  0  0  0  0  0  0  0  0  0  0  0
   -1.2024   -2.0879    1.3643 C   0  0  0  0  0  0  0  0  0  0  0  0
   -2.0862   -3.1319    0.9292 O   0  0  0  0  0  0  0  0  0  0  0  0
    0.0768   -2.1078    0.5152 C   0  0  0  0  0  0  0  0  0  0  0  0
    1.0185   -1.1801    1.0611 O   0  0  0  0  0  0  0  0  0  0  0  0
    1.9872   -0.7627    0.1838 C   0  0  0  0  0  0  0  0  0  0  0  0
    2.5988   -1.6125   -0.7502 C   0  0  0  0  0  0  0  0  0  0  0  0
    3.5900   -1.1380   -1.6105 C   0  0  0  0  0  0  0  0  0  0  0  0
    4.0132    0.1925   -1.5623 C   0  0  0  0  0  0  0  0  0  0  0  0
    3.4141    1.0256   -0.6117 C   0  0  0  0  0  0  0  0  0  0  0  0
    3.6369    2.3554   -0.3309 N   0  0  0  0  0  0  0  0  0  0  0  0
    2.8241    2.7680    0.6910 C   0  0  0  0  0  0  0  0  0  0  0  0
    2.0617    1.6909    1.0796 C   0  0  0  0  0  0  0  0  0  0  0  0
    2.4212    0.5794    0.2625 C   0  0  0  0  0  0  0  0  0  0  0  0
   -0.8558    1.5203   -0.1940 H   0  0  0  0  0  0  0  0  0  0  0  0
   -1.2944    0.9274   -1.8031 H   0  0  0  0  0  0  0  0  0  0  0  0
   -1.8856    2.4972   -1.2382 H   0  0  0  0  0  0  0  0  0  0  0  0
   -3.2513    1.3565    0.5405 H   0  0  0  0  0  0  0  0  0  0  0  0
   -4.9657    0.4134   -0.9797 H   0  0  0  0  0  0  0  0  0  0  0  0
   -4.2723    1.8915   -1.6554 H   0  0  0  0  0  0  0  0  0  0  0  0
   -3.7803    0.3145   -2.2951 H   0  0  0  0  0  0  0  0  0  0  0  0
   -3.5524   -1.0775    0.1049 H   0  0  0  0  0  0  0  0  0  0  0  0
   -2.6874   -0.6863    2.0834 H   0  0  0  0  0  0  0  0  0  0  0  0
   -1.2291    0.0814    1.4597 H   0  0  0  0  0  0  0  0  0  0  0  0
   -0.9444   -2.2820    2.4116 H   0  0  0  0  0  0  0  0  0  0  0  0
   -2.3914   -2.8414    0.0476 H   0  0  0  0  0  0  0  0  0  0  0  0
    0.5032   -3.1181    0.5433 H   0  0  0  0  0  0  0  0  0  0  0  0
   -0.1664   -1.8737   -0.5300 H   0  0  0  0  0  0  0  0  0  0  0  0
    2.3219   -2.6606   -0.8104 H   0  0  0  0  0  0  0  0  0  0  0  0
    4.0462   -1.8175   -2.3272 H   0  0  0  0  0  0  0  0  0  0  0  0
    4.7856    0.5560   -2.2320 H   0  0  0  0  0  0  0  0  0  0  0  0
    4.3090    2.9367   -0.8119 H   0  0  0  0  0  0  0  0  0  0  0  0
    2.8592    3.7866    1.0528 H   0  0  0  0  0  0  0  0  0  0  0  0
    1.3190    1.6884    1.8663 H   0  0  0  0  0  0  0  0  0  0  0  0
  1  2  1  0
  2  3  1  0
  2  4  1  0
  4  5  1  0
  5  6  1  0
  6  7  1  0
  6  8  1  0
  8  9  1  0
  9 10  1  0
 10 11  2  0
 11 12  1  0
 12 13  2  0
 13 14  1  0
 14 15  1  0
 15 16  1  0
 16 17  2  0
 17 18  1  0
 18 10  1  0
 18 14  2  0
  1 19  1  0
  1 20  1  0
  1 21  1  0
  2 22  1  0
  3 23  1  0
  3 24  1  0
  3 25  1  0
  4 26  1  0
  5 27  1  0
  5 28  1  0
  6 29  1  0
  7 30  1  0
  8 31  1  0
  8 32  1  0
 11 33  1  0
 12 34  1  0
 13 35  1  0
 15 36  1  0
 16 37  1  0
 17 38  1  0
M  END
$$$$
