
     RDKit          3D

 65 68  0  0  0  0  0  0  0  0999 V2000
    3.3929   -3.3433    0.2441 C   0  0  0  0  0  0  0  0  0  0  0  0
    4.6319   -2.6033   -0.1467 C   0  0  0  0  0  0  0  0  0  0  0  0
    4.9049   -1.2979    0.0377 C   0  0  0  0  0  0  0  0  0  0  0  0
    6.2232   -0.6849   -0.3235 C   0  0  0  0  0  0  0  0  0  0  0  0
    3.9479   -0.3436    0.6524 C   0  0  0  0  0  0  0  0  0  0  0  0
    4.2187    0.3345    1.6325 O   0  0  0  0  0  0  0  0  0  0  0  0
    2.8389   -0.2394   -0.1224 O   0  0  0  0  0  0  0  0  0  0  0  0
    1.8987    0.7316    0.3409 C   0  0  1  0  0  0  0  0  0  0  0  0
    1.1344    1.2552   -0.8358 C   0  0  0  0  0  0  0  0  0  0  0  0
    1.7636    2.1866   -1.8086 C   0  0  0  0  0  0  0  0  0  0  0  0
   -0.1132    0.7675   -0.8697 C   0  0  0  0  0  0  0  0  0  0  0  0
   -0.3820   -0.2706    0.2276 C   0  0  2  0  0  0  0  0  0  0  0  0
   -1.6302   -0.2349    1.1385 C   0  0  0  0  0  0  0  0  0  0  0  0
   -1.8231   -1.0661    2.0320 O   0  0  0  0  0  0  0  0  0  0  0  0
   -2.6267    0.8336    0.8398 C   0  0  1  0  0  0  0  0  0  0  0  0
   -1.9294    2.1586    1.1539 C   0  0  0  0  0  0  0  0  0  0  0  0
   -0.7075    2.3865    1.7169 C   0  0  0  0  0  0  0  0  0  0  0  0
   -0.1739    3.7893    1.9420 C   0  0  0  0  0  0  0  0  0  0  0  0
   -0.9806    4.7761    1.3194 O   0  0  0  0  0  0  0  0  0  0  0  0
    0.2824    1.3065    2.2195 C   0  0  1  0  0  0  0  0  0  0  0  0
   -0.2719    0.7150    3.4057 O   0  0  0  0  0  0  0  0  0  0  0  0
    0.7589    0.1349    1.2206 C   0  0  2  0  0  0  0  0  0  0  0  0
    1.2111   -0.9862    1.9890 O   0  0  0  0  0  0  0  0  0  0  0  0
   -3.1390    0.6280   -0.5826 C   0  0  1  0  0  0  0  0  0  0  0  0
   -2.8039   -0.6479   -1.4082 C   0  0  1  0  0  0  0  0  0  0  0  0
   -2.0483   -1.8834   -0.9205 C   0  0  0  0  0  0  0  0  0  0  0  0
   -0.5514   -1.6599   -0.4611 C   0  0  1  0  0  0  0  0  0  0  0  0
    0.3809   -1.9602   -1.6423 C   0  0  0  0  0  0  0  0  0  0  0  0
   -4.2389   -0.3592   -0.9691 C   0  0  0  0  0  0  0  0  0  0  0  0
   -5.1997    0.0713   -2.0561 C   0  0  0  0  0  0  0  0  0  0  0  0
   -4.9148   -1.1873    0.0981 C   0  0  0  0  0  0  0  0  0  0  0  0
    3.6595   -4.1869    0.8889 H   0  0  0  0  0  0  0  0  0  0  0  0
    2.9015   -3.7422   -0.6483 H   0  0  0  0  0  0  0  0  0  0  0  0
    2.6754   -2.7290    0.7882 H   0  0  0  0  0  0  0  0  0  0  0  0
    5.3971   -3.2298   -0.6022 H   0  0  0  0  0  0  0  0  0  0  0  0
    6.9005   -1.4109   -0.7857 H   0  0  0  0  0  0  0  0  0  0  0  0
    6.7215   -0.2866    0.5664 H   0  0  0  0  0  0  0  0  0  0  0  0
    6.0795    0.1335   -1.0367 H   0  0  0  0  0  0  0  0  0  0  0  0
    2.4065    1.5717    0.8304 H   0  0  0  0  0  0  0  0  0  0  0  0
    2.6400    1.7226   -2.2715 H   0  0  0  0  0  0  0  0  0  0  0  0
    2.0811    3.1049   -1.3048 H   0  0  0  0  0  0  0  0  0  0  0  0
    1.0681    2.4642   -2.6072 H   0  0  0  0  0  0  0  0  0  0  0  0
   -0.7976    1.0111   -1.6702 H   0  0  0  0  0  0  0  0  0  0  0  0
   -3.4687    0.7475    1.5362 H   0  0  0  0  0  0  0  0  0  0  0  0
   -2.5468    3.0193    0.8938 H   0  0  0  0  0  0  0  0  0  0  0  0
   -0.1404    4.0051    3.0146 H   0  0  0  0  0  0  0  0  0  0  0  0
    0.8394    3.8859    1.5377 H   0  0  0  0  0  0  0  0  0  0  0  0
   -0.8742    4.6606    0.3599 H   0  0  0  0  0  0  0  0  0  0  0  0
    1.1892    1.7992    2.5918 H   0  0  0  0  0  0  0  0  0  0  0  0
   -0.8206    1.3792    3.8574 H   0  0  0  0  0  0  0  0  0  0  0  0
    0.5689   -1.0579    2.7302 H   0  0  0  0  0  0  0  0  0  0  0  0
   -3.1543    1.5736   -1.1203 H   0  0  0  0  0  0  0  0  0  0  0  0
   -2.5633   -0.4776   -2.4567 H   0  0  0  0  0  0  0  0  0  0  0  0
   -2.5842   -2.3605   -0.0938 H   0  0  0  0  0  0  0  0  0  0  0  0
   -2.0776   -2.6316   -1.7233 H   0  0  0  0  0  0  0  0  0  0  0  0
   -0.3376   -2.4397    0.2843 H   0  0  0  0  0  0  0  0  0  0  0  0
    0.2650   -3.0037   -1.9576 H   0  0  0  0  0  0  0  0  0  0  0  0
    0.1599   -1.3359   -2.5141 H   0  0  0  0  0  0  0  0  0  0  0  0
    1.4284   -1.8264   -1.3733 H   0  0  0  0  0  0  0  0  0  0  0  0
   -5.6454   -0.8048   -2.5381 H   0  0  0  0  0  0  0  0  0  0  0  0
   -4.7030    0.6645   -2.8316 H   0  0  0  0  0  0  0  0  0  0  0  0
   -6.0043    0.6813   -1.6328 H   0  0  0  0  0  0  0  0  0  0  0  0
   -4.2668   -1.4273    0.9436 H   0  0  0  0  0  0  0  0  0  0  0  0
   -5.7802   -0.6490    0.4997 H   0  0  0  0  0  0  0  0  0  0  0  0
   -5.2704   -2.1313   -0.3285 H   0  0  0  0  0  0  0  0  0  0  0  0
  1  2  1  0
  2  3  2  0
  3  4  1  0
  3  5  1  0
  5  6  2  0
  5  7  1  0
  7  8  1  0
  8  9  1  0
  9 10  1  0
  9 11  2  0
 12 11  1  6
 12 13  1  0
 13 14  2  0
 13 15  1  0
 15 16  1  0
 16 17  2  0
 17 18  1  0
 18 19  1  0
 17 20  1  0
 20 21  1  0
 20 22  1  0
 22 23  1  1
 15 24  1  0
 24 25  1  0
 25 26  1  0
 26 27  1  0
 27 28  1  0
 25 29  1  0
 29 30  1  0
 29 31  1  0
 22  8  1  0
 29 24  1  0
 22 12  1  0
 27 12  1  0
  1 32  1  0
  1 33  1  0
  1 34  1  0
  2 35  1  0
  4 36  1  0
  4 37  1  0
  4 38  1  0
  8 39  1  1
 10 40  1  0
 10 41  1  0
 10 42  1  0
 11 43  1  0
 15 44  1  1
 16 45  1  0
 18 46  1  0
 18 47  1  0
 19 48  1  0
 20 49  1  1
 21 50  1  0
 23 51  1  0
 24 52  1  6
 25 53  1  6
 26 54  1  0
 26 55  1  0
 27 56  1  1
 28 57  1  0
 28 58  1  0
 28 59  1  0
 30 60  1  0
 30 61  1  0
 30 62  1  0
 31 63  1  0
 31 64  1  0
 31 65  1  0
M  END
$$$$
