
     RDKit          3D

 43 45  0  0  0  0  0  0  0  0999 V2000
    6.8911    0.0366   -2.7034 C   0  0  0  0  0  0  0  0  0  0  0  0
    6.0339    0.4795   -1.5902 C   0  0  0  0  0  0  0  0  0  0  0  0
    6.0111    0.2412   -0.2376 C   0  0  0  0  0  0  0  0  0  0  0  0
    4.9187    0.9998    0.2364 C   0  0  0  0  0  0  0  0  0  0  0  0
    4.5252    1.0423    1.5621 N   0  0  0  0  0  0  0  0  0  0  0  0
    3.2935    1.9936    2.1610 S   0  0  0  0  0  6  0  0  0  0  0  0
    3.2011    1.6677    3.5718 O   0  0  0  0  0  0  0  0  0  0  0  0
    3.4811    3.3647    1.7360 O   0  0  0  0  0  0  0  0  0  0  0  0
    1.8403    1.3338    1.3828 C   0  0  0  0  0  0  0  0  0  0  0  0
    1.3029    0.1272    1.8374 C   0  0  0  0  0  0  0  0  0  0  0  0
    0.1503   -0.3900    1.2350 C   0  0  0  0  0  0  0  0  0  0  0  0
   -0.4750    0.2972    0.1904 C   0  0  0  0  0  0  0  0  0  0  0  0
   -1.6354   -0.1569   -0.4709 N   0  0  0  0  0  0  0  0  0  0  0  0
   -2.3080   -1.3520   -0.2704 C   0  0  0  0  0  0  0  0  0  0  0  0
   -1.9946   -2.2415    0.5165 O   0  0  0  0  0  0  0  0  0  0  0  0
   -3.5419   -1.4941   -1.1522 C   0  0  0  0  0  0  0  0  0  0  0  0
   -4.8272   -1.3635   -0.3706 C   0  0  0  0  0  0  0  0  0  0  0  0
   -5.3565   -2.4706    0.3082 C   0  0  0  0  0  0  0  0  0  0  0  0
   -6.5395   -2.3539    1.0427 C   0  0  0  0  0  0  0  0  0  0  0  0
   -7.2051   -1.1270    1.1144 C   0  0  0  0  0  0  0  0  0  0  0  0
   -8.6646   -1.0554    2.0368 Cl  0  0  0  0  0  0  0  0  0  0  0  0
   -6.6794   -0.0122    0.4509 C   0  0  0  0  0  0  0  0  0  0  0  0
   -7.4405    1.5401    0.4961 Cl  0  0  0  0  0  0  0  0  0  0  0  0
   -5.4938   -0.1315   -0.2860 C   0  0  0  0  0  0  0  0  0  0  0  0
    0.0640    1.5202   -0.2382 C   0  0  0  0  0  0  0  0  0  0  0  0
    1.2165    2.0420    0.3555 C   0  0  0  0  0  0  0  0  0  0  0  0
    4.3138    1.6447   -0.7626 N   0  0  0  0  0  0  0  0  0  0  0  0
    5.0166    1.3225   -1.9087 O   0  0  0  0  0  0  0  0  0  0  0  0
    7.5642   -0.7662   -2.3851 H   0  0  0  0  0  0  0  0  0  0  0  0
    6.2835   -0.3385   -3.5325 H   0  0  0  0  0  0  0  0  0  0  0  0
    7.5011    0.8681   -3.0712 H   0  0  0  0  0  0  0  0  0  0  0  0
    6.6890   -0.3842    0.3222 H   0  0  0  0  0  0  0  0  0  0  0  0
    4.9971    0.4808    2.2636 H   0  0  0  0  0  0  0  0  0  0  0  0
    1.7658   -0.4157    2.6585 H   0  0  0  0  0  0  0  0  0  0  0  0
   -0.2397   -1.3301    1.6151 H   0  0  0  0  0  0  0  0  0  0  0  0
   -1.9987    0.4636   -1.1836 H   0  0  0  0  0  0  0  0  0  0  0  0
   -3.5258   -0.7633   -1.9700 H   0  0  0  0  0  0  0  0  0  0  0  0
   -3.4954   -2.4764   -1.6405 H   0  0  0  0  0  0  0  0  0  0  0  0
   -4.8428   -3.4319    0.2781 H   0  0  0  0  0  0  0  0  0  0  0  0
   -6.9331   -3.2266    1.5610 H   0  0  0  0  0  0  0  0  0  0  0  0
   -5.0927    0.7440   -0.7941 H   0  0  0  0  0  0  0  0  0  0  0  0
   -0.3978    2.0843   -1.0452 H   0  0  0  0  0  0  0  0  0  0  0  0
    1.6266    2.9875    0.0031 H   0  0  0  0  0  0  0  0  0  0  0  0
  1  2  1  0
  2  3  2  0
  3  4  1  0
  4  5  1  0
  5  6  1  0
  6  7  2  0
  6  8  2  0
  6  9  1  0
  9 10  2  0
 10 11  1  0
 11 12  2  0
 12 13  1  0
 13 14  1  0
 14 15  2  0
 14 16  1  0
 16 17  1  0
 17 18  2  0
 18 19  1  0
 19 20  2  0
 20 21  1  0
 20 22  1  0
 22 23  1  0
 22 24  2  0
 12 25  1  0
 25 26  2  0
  4 27  2  0
 27 28  1  0
 28  2  1  0
 26  9  1  0
 24 17  1  0
  1 29  1  0
  1 30  1  0
  1 31  1  0
  3 32  1  0
  5 33  1  0
 10 34  1  0
 11 35  1  0
 13 36  1  0
 16 37  1  0
 16 38  1  0
 18 39  1  0
 19 40  1  0
 24 41  1  0
 25 42  1  0
 26 43  1  0
M  END
$$$$
