
     RDKit          3D

 82 86  0  0  0  0  0  0  0  0999 V2000
    5.9088   -2.3161    0.9844 C   0  0  0  0  0  0  0  0  0  0  0  0
    5.3316   -1.3221   -0.0436 C   0  0  0  0  0  0  0  0  0  0  0  0
    5.7619   -1.7920   -1.4456 C   0  0  0  0  0  0  0  0  0  0  0  0
    5.8984    0.0913    0.2211 C   0  0  0  0  0  0  0  0  0  0  0  0
    4.9295    0.9564    1.0307 C   0  0  0  0  0  0  0  0  0  0  0  0
    3.6159    1.2438    0.2413 C   0  0  1  0  0  0  0  0  0  0  0  0
    3.9330    2.3665   -0.7546 C   0  0  0  0  0  0  0  0  0  0  0  0
    4.6394    3.3388   -0.5233 O   0  0  0  0  0  0  0  0  0  0  0  0
    3.3042    2.2881   -1.9393 O   0  0  0  0  0  0  0  0  0  0  0  0
    3.1315   -0.0543   -0.4911 C   0  0  1  0  0  0  0  0  0  0  0  0
    3.7873   -1.3284    0.0825 C   0  0  0  0  0  0  0  0  0  0  0  0
    1.6022   -0.1581   -0.5636 C   0  0  0  0  0  0  0  0  0  0  0  0
    1.0126   -0.2336   -1.7727 C   0  0  0  0  0  0  0  0  0  0  0  0
   -0.4618   -0.1845   -2.0381 C   0  0  0  0  0  0  0  0  0  0  0  0
   -1.3457   -0.2580   -0.7739 C   0  0  2  0  0  0  0  0  0  0  0  0
   -2.9084   -0.0882   -1.0542 C   0  0  1  0  0  0  0  0  0  0  0  0
   -3.2388    1.2428   -1.7721 C   0  0  0  0  0  0  0  0  0  0  0  0
   -3.3672   -1.2533   -2.0025 C   0  0  0  0  0  0  0  0  0  0  0  0
   -4.6619   -1.9657   -1.5946 C   0  0  0  0  0  0  0  0  0  0  0  0
   -5.7282   -1.0205   -1.0523 C   0  0  2  0  0  0  0  0  0  0  0  0
   -6.1294   -0.1277   -2.0883 O   0  0  0  0  0  0  0  0  0  0  0  0
   -5.2449   -0.2585    0.2239 C   0  0  0  0  0  0  0  0  0  0  0  0
   -5.7614   -1.0656    1.4511 C   0  0  0  0  0  0  0  0  0  0  0  0
   -5.8980    1.1364    0.3208 C   0  0  0  0  0  0  0  0  0  0  0  0
   -3.6665   -0.2224    0.3110 C   0  0  2  0  0  0  0  0  0  0  0  0
   -3.1169    0.7618    1.3615 C   0  0  0  0  0  0  0  0  0  0  0  0
   -1.6409    0.4835    1.6527 C   0  0  0  0  0  0  0  0  0  0  0  0
   -0.7076    0.5730    0.4115 C   0  0  2  0  0  0  0  0  0  0  0  0
   -0.5822    2.0753    0.0415 C   0  0  0  0  0  0  0  0  0  0  0  0
    0.7790   -0.0416    0.7321 C   0  0  1  0  0  0  0  0  0  0  0  0
    0.6500   -1.4657    1.3579 C   0  0  0  0  0  0  0  0  0  0  0  0
    1.5805    0.8114    1.7639 C   0  0  0  0  0  0  0  0  0  0  0  0
    2.5168    1.8590    1.1507 C   0  0  1  0  0  0  0  0  0  0  0  0
    3.0833    2.6072    2.2352 O   0  0  0  0  0  0  0  0  0  0  0  0
    5.6705   -2.0114    2.0100 H   0  0  0  0  0  0  0  0  0  0  0  0
    5.5020   -3.3223    0.8316 H   0  0  0  0  0  0  0  0  0  0  0  0
    6.9998   -2.3824    0.9040 H   0  0  0  0  0  0  0  0  0  0  0  0
    5.3727   -1.1343   -2.2297 H   0  0  0  0  0  0  0  0  0  0  0  0
    5.3985   -2.8048   -1.6528 H   0  0  0  0  0  0  0  0  0  0  0  0
    6.8538   -1.8052   -1.5378 H   0  0  0  0  0  0  0  0  0  0  0  0
    6.8571    0.0289    0.7507 H   0  0  0  0  0  0  0  0  0  0  0  0
    6.1153    0.6020   -0.7257 H   0  0  0  0  0  0  0  0  0  0  0  0
    4.7028    0.4542    1.9797 H   0  0  0  0  0  0  0  0  0  0  0  0
    5.4442    1.8865    1.3012 H   0  0  0  0  0  0  0  0  0  0  0  0
    3.5971    3.0883   -2.4259 H   0  0  0  0  0  0  0  0  0  0  0  0
    3.5000   -0.0124   -1.5249 H   0  0  0  0  0  0  0  0  0  0  0  0
    3.3751   -2.2218   -0.4036 H   0  0  0  0  0  0  0  0  0  0  0  0
    3.5374   -1.4136    1.1451 H   0  0  0  0  0  0  0  0  0  0  0  0
    1.6295   -0.2713   -2.6694 H   0  0  0  0  0  0  0  0  0  0  0  0
   -0.7081   -1.0094   -2.7151 H   0  0  0  0  0  0  0  0  0  0  0  0
   -0.6427    0.7392   -2.5939 H   0  0  0  0  0  0  0  0  0  0  0  0
   -1.2811   -1.3046   -0.4513 H   0  0  0  0  0  0  0  0  0  0  0  0
   -2.5423    1.4683   -2.5817 H   0  0  0  0  0  0  0  0  0  0  0  0
   -3.2600    2.1014   -1.1025 H   0  0  0  0  0  0  0  0  0  0  0  0
   -4.2207    1.2205   -2.2474 H   0  0  0  0  0  0  0  0  0  0  0  0
   -3.4734   -0.8796   -3.0294 H   0  0  0  0  0  0  0  0  0  0  0  0
   -2.6001   -2.0347   -2.0651 H   0  0  0  0  0  0  0  0  0  0  0  0
   -4.4337   -2.7303   -0.8417 H   0  0  0  0  0  0  0  0  0  0  0  0
   -5.0467   -2.5005   -2.4719 H   0  0  0  0  0  0  0  0  0  0  0  0
   -6.6239   -1.6074   -0.8141 H   0  0  0  0  0  0  0  0  0  0  0  0
   -6.4378   -0.6641   -2.8389 H   0  0  0  0  0  0  0  0  0  0  0  0
   -5.3718   -2.0897    1.4490 H   0  0  0  0  0  0  0  0  0  0  0  0
   -5.4738   -0.6003    2.3989 H   0  0  0  0  0  0  0  0  0  0  0  0
   -6.8561   -1.1313    1.4463 H   0  0  0  0  0  0  0  0  0  0  0  0
   -5.6965    1.6135    1.2861 H   0  0  0  0  0  0  0  0  0  0  0  0
   -6.9881    1.0608    0.2281 H   0  0  0  0  0  0  0  0  0  0  0  0
   -5.5513    1.8173   -0.4595 H   0  0  0  0  0  0  0  0  0  0  0  0
   -3.3816   -1.2189    0.6880 H   0  0  0  0  0  0  0  0  0  0  0  0
   -3.2581    1.8023    1.0572 H   0  0  0  0  0  0  0  0  0  0  0  0
   -3.6600    0.6492    2.3061 H   0  0  0  0  0  0  0  0  0  0  0  0
   -1.6037   -0.5166    2.0937 H   0  0  0  0  0  0  0  0  0  0  0  0
   -1.3062    1.1730    2.4367 H   0  0  0  0  0  0  0  0  0  0  0  0
   -1.5301    2.5306   -0.2317 H   0  0  0  0  0  0  0  0  0  0  0  0
   -0.2305    2.6629    0.8955 H   0  0  0  0  0  0  0  0  0  0  0  0
    0.1019    2.2509   -0.7927 H   0  0  0  0  0  0  0  0  0  0  0  0
    0.0494   -2.1512    0.7563 H   0  0  0  0  0  0  0  0  0  0  0  0
    1.6140   -1.9606    1.4813 H   0  0  0  0  0  0  0  0  0  0  0  0
    0.2206   -1.4261    2.3639 H   0  0  0  0  0  0  0  0  0  0  0  0
    2.1955    0.1597    2.4013 H   0  0  0  0  0  0  0  0  0  0  0  0
    0.9062    1.2977    2.4776 H   0  0  0  0  0  0  0  0  0  0  0  0
    1.9240    2.5818    0.5843 H   0  0  0  0  0  0  0  0  0  0  0  0
    3.6050    3.3370    1.8500 H   0  0  0  0  0  0  0  0  0  0  0  0
  1  2  1  0
  2  3  1  0
  2  4  1  0
  4  5  1  0
  5  6  1  0
  6  7  1  6
  7  8  2  0
  7  9  1  0
  6 10  1  0
 10 11  1  0
 10 12  1  0
 12 13  2  0
 13 14  1  0
 14 15  1  0
 15 16  1  0
 16 17  1  6
 16 18  1  0
 18 19  1  0
 19 20  1  0
 20 21  1  0
 20 22  1  0
 22 23  1  0
 22 24  1  0
 22 25  1  0
 25 26  1  0
 26 27  1  0
 27 28  1  0
 28 29  1  6
 28 30  1  0
 30 31  1  1
 30 32  1  0
 32 33  1  0
 33 34  1  0
 11  2  1  0
 30 12  1  0
 33  6  1  0
 28 15  1  0
 25 16  1  0
  1 35  1  0
  1 36  1  0
  1 37  1  0
  3 38  1  0
  3 39  1  0
  3 40  1  0
  4 41  1  0
  4 42  1  0
  5 43  1  0
  5 44  1  0
  9 45  1  0
 10 46  1  6
 11 47  1  0
 11 48  1  0
 13 49  1  0
 14 50  1  0
 14 51  1  0
 15 52  1  1
 17 53  1  0
 17 54  1  0
 17 55  1  0
 18 56  1  0
 18 57  1  0
 19 58  1  0
 19 59  1  0
 20 60  1  1
 21 61  1  0
 23 62  1  0
 23 63  1  0
 23 64  1  0
 24 65  1  0
 24 66  1  0
 24 67  1  0
 25 68  1  1
 26 69  1  0
 26 70  1  0
 27 71  1  0
 27 72  1  0
 29 73  1  0
 29 74  1  0
 29 75  1  0
 31 76  1  0
 31 77  1  0
 31 78  1  0
 32 79  1  0
 32 80  1  0
 33 81  1  6
 34 82  1  0
M  END
$$$$
