
     RDKit          3D

 47 51  0  0  0  0  0  0  0  0999 V2000
   -5.4872   -0.7759    4.3969 C   0  0  0  0  0  0  0  0  0  0  0  0
   -4.5821   -0.7183    3.2020 C   0  0  0  0  0  0  0  0  0  0  0  0
   -4.5501   -1.5678    2.3218 O   0  0  0  0  0  0  0  0  0  0  0  0
   -3.8159    0.4386    3.2793 O   0  0  0  0  0  0  0  0  0  0  0  0
   -2.9338    0.5805    2.2081 C   0  0  0  0  0  0  0  0  0  0  0  0
   -3.2859    1.4192    1.1555 C   0  0  0  0  0  0  0  0  0  0  0  0
   -2.3945    1.5938    0.0961 C   0  0  0  0  0  0  0  0  0  0  0  0
   -1.1424    0.9470    0.0956 C   0  0  0  0  0  0  0  0  0  0  0  0
   -0.8047    0.1346    1.1860 C   0  0  0  0  0  0  0  0  0  0  0  0
   -1.6954   -0.0529    2.2438 C   0  0  0  0  0  0  0  0  0  0  0  0
    0.3956   -0.5266    1.2880 O   0  0  0  0  0  0  0  0  0  0  0  0
    1.4271   -0.1220    0.4755 C   0  0  0  0  0  0  0  0  0  0  0  0
    2.7010   -0.5568    0.8457 C   0  0  0  0  0  0  0  0  0  0  0  0
    3.7998   -0.1689    0.0843 C   0  0  0  0  0  0  0  0  0  0  0  0
    5.0844   -0.6221    0.3981 O   0  0  0  0  0  0  0  0  0  0  0  0
    5.6163   -0.0872    1.5666 C   0  0  0  0  0  0  0  0  0  0  0  0
    6.9849   -0.6632    1.7787 C   0  0  0  0  0  0  0  0  0  0  0  0
    5.0848    0.7190    2.3173 O   0  0  0  0  0  0  0  0  0  0  0  0
    3.6439    0.6088   -1.0586 C   0  0  0  0  0  0  0  0  0  0  0  0
    2.3661    1.0291   -1.4306 C   0  0  0  0  0  0  0  0  0  0  0  0
    1.2389    0.6677   -0.6661 C   0  0  0  0  0  0  0  0  0  0  0  0
   -0.1728    1.0551   -1.0662 C   0  0  0  0  0  0  0  0  0  0  0  0
   -0.1598    2.4322   -1.5351 O   0  0  0  0  0  0  0  0  0  0  0  0
   -0.5577    2.5414   -2.8359 C   0  0  0  0  0  0  0  0  0  0  0  0
   -0.6390    3.5650   -3.4840 O   0  0  0  0  0  0  0  0  0  0  0  0
   -0.8668    1.1985   -3.3024 C   0  0  0  0  0  0  0  0  0  0  0  0
   -1.3127    0.8059   -4.5526 C   0  0  0  0  0  0  0  0  0  0  0  0
   -1.5449   -0.5545   -4.7566 C   0  0  0  0  0  0  0  0  0  0  0  0
   -1.3286   -1.4763   -3.7183 C   0  0  0  0  0  0  0  0  0  0  0  0
   -0.8769   -1.0496   -2.4652 C   0  0  0  0  0  0  0  0  0  0  0  0
   -0.6476    0.3060   -2.2728 C   0  0  0  0  0  0  0  0  0  0  0  0
   -6.0977   -1.6819    4.3452 H   0  0  0  0  0  0  0  0  0  0  0  0
   -6.1516    0.0918    4.4007 H   0  0  0  0  0  0  0  0  0  0  0  0
   -4.8909   -0.8096    5.3121 H   0  0  0  0  0  0  0  0  0  0  0  0
   -4.2460    1.9266    1.1508 H   0  0  0  0  0  0  0  0  0  0  0  0
   -2.6864    2.2385   -0.7306 H   0  0  0  0  0  0  0  0  0  0  0  0
   -1.4226   -0.6852    3.0827 H   0  0  0  0  0  0  0  0  0  0  0  0
    2.8300   -1.1760    1.7280 H   0  0  0  0  0  0  0  0  0  0  0  0
    7.4176   -0.2417    2.6906 H   0  0  0  0  0  0  0  0  0  0  0  0
    7.6307   -0.4047    0.9358 H   0  0  0  0  0  0  0  0  0  0  0  0
    6.9165   -1.7478    1.8944 H   0  0  0  0  0  0  0  0  0  0  0  0
    4.5060    0.8883   -1.6573 H   0  0  0  0  0  0  0  0  0  0  0  0
    2.2576    1.6401   -2.3246 H   0  0  0  0  0  0  0  0  0  0  0  0
   -1.4764    1.5327   -5.3421 H   0  0  0  0  0  0  0  0  0  0  0  0
   -1.8978   -0.9056   -5.7240 H   0  0  0  0  0  0  0  0  0  0  0  0
   -1.5176   -2.5342   -3.8912 H   0  0  0  0  0  0  0  0  0  0  0  0
   -0.7154   -1.7674   -1.6651 H   0  0  0  0  0  0  0  0  0  0  0  0
  1  2  1  0
  2  3  2  0
  2  4  1  0
  4  5  1  0
  5  6  2  0
  6  7  1  0
  7  8  2  0
  8  9  1  0
  9 10  2  0
  9 11  1  0
 11 12  1  0
 12 13  2  0
 13 14  1  0
 14 15  1  0
 15 16  1  0
 16 17  1  0
 16 18  2  0
 14 19  2  0
 19 20  1  0
 20 21  2  0
 21 22  1  0
 22 23  1  0
 23 24  1  0
 24 25  2  0
 24 26  1  0
 26 27  2  0
 27 28  1  0
 28 29  2  0
 29 30  1  0
 30 31  2  0
 10  5  1  0
 21 12  1  0
 31 22  1  0
 22  8  1  0
 31 26  1  0
  1 32  1  0
  1 33  1  0
  1 34  1  0
  6 35  1  0
  7 36  1  0
 10 37  1  0
 13 38  1  0
 17 39  1  0
 17 40  1  0
 17 41  1  0
 19 42  1  0
 20 43  1  0
 27 44  1  0
 28 45  1  0
 29 46  1  0
 30 47  1  0
M  END
$$$$
