
     RDKit          3D

 49 52  0  0  0  0  0  0  0  0999 V2000
   -7.4127    0.3919    0.3559 C   0  0  0  0  0  0  0  0  0  0  0  0
   -6.4380    0.0618    1.3370 O   0  0  0  0  0  0  0  0  0  0  0  0
   -5.3103   -0.5942    0.7540 C   0  0  0  0  0  0  0  0  0  0  0  0
   -4.3305   -0.9339    1.8708 C   0  0  0  0  0  0  0  0  0  0  0  0
   -3.1173   -1.7309    1.3880 C   0  0  0  0  0  0  0  0  0  0  0  0
   -2.2028   -0.9483    0.5561 N   0  0  0  0  0  0  0  0  0  0  0  0
   -2.3410   -1.0446   -0.8207 C   0  0  0  0  0  0  0  0  0  0  0  0
   -3.2113   -1.7127   -1.3753 O   0  0  0  0  0  0  0  0  0  0  0  0
   -1.3888   -0.2808   -1.6400 C   0  0  0  0  0  0  0  0  0  0  0  0
   -1.4490   -0.3874   -3.0389 C   0  0  0  0  0  0  0  0  0  0  0  0
   -0.5542    0.3231   -3.8320 C   0  0  0  0  0  0  0  0  0  0  0  0
    0.3975    1.1356   -3.2273 C   0  0  0  0  0  0  0  0  0  0  0  0
    0.4522    1.2410   -1.8322 C   0  0  0  0  0  0  0  0  0  0  0  0
   -0.4452    0.5339   -1.0153 C   0  0  0  0  0  0  0  0  0  0  0  0
   -0.4290    0.6189    0.4048 N   0  0  0  0  0  0  0  0  0  0  0  0
    0.5434    1.4675    1.1015 C   0  0  0  0  0  0  0  0  0  0  0  0
    1.8548    0.7786    1.2255 C   0  0  0  0  0  0  0  0  0  0  0  0
    2.9460    0.9162    0.5042 N   0  0  0  0  0  0  0  0  0  0  0  0
    3.8088    0.0134    1.0920 C   0  0  0  0  0  0  0  0  0  0  0  0
    5.1703   -0.1915    0.6066 C   0  0  0  0  0  0  0  0  0  0  0  0
    6.0295   -1.1149    1.2268 C   0  0  0  0  0  0  0  0  0  0  0  0
    7.3310   -1.3038    0.7532 C   0  0  0  0  0  0  0  0  0  0  0  0
    7.7761   -0.5711   -0.3400 C   0  0  0  0  0  0  0  0  0  0  0  0
    9.0231   -0.7525   -0.7932 F   0  0  0  0  0  0  0  0  0  0  0  0
    6.9457    0.3474   -0.9700 C   0  0  0  0  0  0  0  0  0  0  0  0
    5.6441    0.5372   -0.4977 C   0  0  0  0  0  0  0  0  0  0  0  0
    3.2771   -0.6424    2.1366 N   0  0  0  0  0  0  0  0  0  0  0  0
    1.9829   -0.1365    2.2266 O   0  0  0  0  0  0  0  0  0  0  0  0
   -1.2862   -0.1302    1.2030 C   0  0  0  0  0  0  0  0  0  0  0  0
   -1.2351   -0.0611    2.4331 O   0  0  0  0  0  0  0  0  0  0  0  0
   -6.9913    1.0745   -0.3883 H   0  0  0  0  0  0  0  0  0  0  0  0
   -7.7875   -0.5133   -0.1315 H   0  0  0  0  0  0  0  0  0  0  0  0
   -8.2476    0.8912    0.8548 H   0  0  0  0  0  0  0  0  0  0  0  0
   -4.8473    0.0788    0.0248 H   0  0  0  0  0  0  0  0  0  0  0  0
   -5.6423   -1.5074    0.2471 H   0  0  0  0  0  0  0  0  0  0  0  0
   -4.8591   -1.5207    2.6329 H   0  0  0  0  0  0  0  0  0  0  0  0
   -4.0172   -0.0105    2.3730 H   0  0  0  0  0  0  0  0  0  0  0  0
   -3.4489   -2.6234    0.8444 H   0  0  0  0  0  0  0  0  0  0  0  0
   -2.5643   -2.0921    2.2638 H   0  0  0  0  0  0  0  0  0  0  0  0
   -2.1921   -1.0278   -3.5109 H   0  0  0  0  0  0  0  0  0  0  0  0
   -0.5969    0.2391   -4.9152 H   0  0  0  0  0  0  0  0  0  0  0  0
    1.1061    1.6890   -3.8401 H   0  0  0  0  0  0  0  0  0  0  0  0
    1.2271    1.8830   -1.4238 H   0  0  0  0  0  0  0  0  0  0  0  0
    0.1804    1.7283    2.1025 H   0  0  0  0  0  0  0  0  0  0  0  0
    0.6461    2.4244    0.5792 H   0  0  0  0  0  0  0  0  0  0  0  0
    5.6926   -1.6954    2.0841 H   0  0  0  0  0  0  0  0  0  0  0  0
    7.9962   -2.0164    1.2307 H   0  0  0  0  0  0  0  0  0  0  0  0
    7.3141    0.9090   -1.8225 H   0  0  0  0  0  0  0  0  0  0  0  0
    5.0008    1.2588   -0.9978 H   0  0  0  0  0  0  0  0  0  0  0  0
  1  2  1  0
  2  3  1  0
  3  4  1  0
  4  5  1  0
  5  6  1  0
  6  7  1  0
  7  8  2  0
  7  9  1  0
  9 10  2  0
 10 11  1  0
 11 12  2  0
 12 13  1  0
 13 14  2  0
 14 15  1  0
 15 16  1  0
 16 17  1  0
 17 18  2  0
 18 19  1  0
 19 20  1  0
 20 21  2  0
 21 22  1  0
 22 23  2  0
 23 24  1  0
 23 25  1  0
 25 26  2  0
 19 27  2  0
 27 28  1  0
 15 29  1  0
 29 30  2  0
 29  6  1  0
 14  9  1  0
 28 17  1  0
 26 20  1  0
  1 31  1  0
  1 32  1  0
  1 33  1  0
  3 34  1  0
  3 35  1  0
  4 36  1  0
  4 37  1  0
  5 38  1  0
  5 39  1  0
 10 40  1  0
 11 41  1  0
 12 42  1  0
 13 43  1  0
 16 44  1  0
 16 45  1  0
 21 46  1  0
 22 47  1  0
 25 48  1  0
 26 49  1  0
M  END
$$$$
