
     RDKit          3D

 48 50  0  0  0  0  0  0  0  0999 V2000
    2.4103   -2.3166    2.9943 C   0  0  0  0  0  0  0  0  0  0  0  0
    2.2355   -1.6936    1.6307 C   0  0  0  0  0  0  0  0  0  0  0  0
    3.1826   -0.7330    1.3024 N   0  0  0  0  0  0  0  0  0  0  0  0
    3.1428   -0.0609    0.1310 C   0  0  0  0  0  0  0  0  0  0  0  0
    3.8805    0.9269   -0.4501 C   0  0  0  0  0  0  0  0  0  0  0  0
    4.9857    1.5766    0.0848 C   0  0  0  0  0  0  0  0  0  0  0  0
    5.4969    1.3280    1.2963 F   0  0  0  0  0  0  0  0  0  0  0  0
    5.5269    2.5410   -0.7773 C   0  0  0  0  0  0  0  0  0  0  0  0
    4.9836    2.8115   -2.0714 C   0  0  0  0  0  0  0  0  0  0  0  0
    3.8563    2.1388   -2.6047 C   0  0  0  0  0  0  0  0  0  0  0  0
    3.3008    1.1692   -1.7477 C   0  0  0  0  0  0  0  0  0  0  0  0
    2.2442    0.3594   -1.9343 N   0  0  0  0  0  0  0  0  0  0  0  0
    2.1545   -0.3685   -0.7811 N   0  0  0  0  0  0  0  0  0  0  0  0
    1.1592   -1.3358   -0.5642 C   0  0  0  0  0  0  0  0  0  0  0  0
    0.3092   -1.5878   -1.4111 O   0  0  0  0  0  0  0  0  0  0  0  0
    1.2313   -2.0222    0.7805 C   0  0  0  0  0  0  0  0  0  0  0  0
    0.1547   -3.0519    1.0251 C   0  0  0  0  0  0  0  0  0  0  0  0
   -1.0289   -2.5324    1.8406 C   0  0  0  0  0  0  0  0  0  0  0  0
   -1.6596   -1.2748    1.2804 C   0  0  0  0  0  0  0  0  0  0  0  0
   -1.5327   -0.1918    1.8425 O   0  0  0  0  0  0  0  0  0  0  0  0
   -2.3811   -1.4619    0.1257 N   0  0  0  0  0  0  0  0  0  0  0  0
   -2.9270   -0.3315   -0.6119 C   0  0  0  0  0  0  0  0  0  0  0  0
   -4.0788    0.3801    0.1261 C   0  0  0  0  0  0  0  0  0  0  0  0
   -4.8318    1.3347   -0.7162 N   0  0  0  0  0  0  0  0  0  0  0  0
   -3.9925    2.4532   -1.1530 C   0  0  0  0  0  0  0  0  0  0  0  0
   -5.9921    1.8381    0.0224 C   0  0  0  0  0  0  0  0  0  0  0  0
    3.2827   -2.9794    2.9927 H   0  0  0  0  0  0  0  0  0  0  0  0
    1.5472   -2.8969    3.3236 H   0  0  0  0  0  0  0  0  0  0  0  0
    2.5774   -1.5381    3.7471 H   0  0  0  0  0  0  0  0  0  0  0  0
    3.8802   -0.5043    2.0144 H   0  0  0  0  0  0  0  0  0  0  0  0
    6.3975    3.1042   -0.4429 H   0  0  0  0  0  0  0  0  0  0  0  0
    5.4626    3.5779   -2.6819 H   0  0  0  0  0  0  0  0  0  0  0  0
    3.4524    2.3477   -3.5881 H   0  0  0  0  0  0  0  0  0  0  0  0
    0.5858   -3.9192    1.5409 H   0  0  0  0  0  0  0  0  0  0  0  0
   -0.2061   -3.4570    0.0718 H   0  0  0  0  0  0  0  0  0  0  0  0
   -1.8020   -3.3076    1.9080 H   0  0  0  0  0  0  0  0  0  0  0  0
   -0.7188   -2.3183    2.8706 H   0  0  0  0  0  0  0  0  0  0  0  0
   -2.1580   -2.2772   -0.4317 H   0  0  0  0  0  0  0  0  0  0  0  0
   -2.1043    0.3605   -0.8165 H   0  0  0  0  0  0  0  0  0  0  0  0
   -3.2859   -0.7294   -1.5680 H   0  0  0  0  0  0  0  0  0  0  0  0
   -4.7711   -0.3982    0.4746 H   0  0  0  0  0  0  0  0  0  0  0  0
   -3.7019    0.8810    1.0270 H   0  0  0  0  0  0  0  0  0  0  0  0
   -4.5849    3.1853   -1.7152 H   0  0  0  0  0  0  0  0  0  0  0  0
   -3.2120    2.1067   -1.8388 H   0  0  0  0  0  0  0  0  0  0  0  0
   -3.5209    2.9717   -0.3121 H   0  0  0  0  0  0  0  0  0  0  0  0
   -6.5832    2.5165   -0.6033 H   0  0  0  0  0  0  0  0  0  0  0  0
   -5.7084    2.3680    0.9407 H   0  0  0  0  0  0  0  0  0  0  0  0
   -6.6584    1.0117    0.2968 H   0  0  0  0  0  0  0  0  0  0  0  0
  1  2  1  0
  2  3  1  0
  3  4  1  0
  4  5  2  0
  5  6  1  0
  6  7  1  0
  6  8  2  0
  8  9  1  0
  9 10  2  0
 10 11  1  0
 11 12  2  0
 12 13  1  0
 13 14  1  0
 14 15  2  0
 14 16  1  0
 16 17  1  0
 17 18  1  0
 18 19  1  0
 19 20  2  0
 19 21  1  0
 21 22  1  0
 22 23  1  0
 23 24  1  0
 24 25  1  0
 24 26  1  0
 16  2  2  0
 13  4  1  0
 11  5  1  0
  1 27  1  0
  1 28  1  0
  1 29  1  0
  3 30  1  0
  8 31  1  0
  9 32  1  0
 10 33  1  0
 17 34  1  0
 17 35  1  0
 18 36  1  0
 18 37  1  0
 21 38  1  0
 22 39  1  0
 22 40  1  0
 23 41  1  0
 23 42  1  0
 25 43  1  0
 25 44  1  0
 25 45  1  0
 26 46  1  0
 26 47  1  0
 26 48  1  0
M  END
$$$$
