
     RDKit          3D

 15 13  0  0  0  0  0  0  0  0999 V2000
   -1.1988   -1.0311   -1.6715 C   0  0  0  0  0  0  0  0  0  0  0  0
   -0.7097   -0.3885   -0.5997 C   0  0  0  0  0  0  0  0  0  0  0  0
    0.6216   -0.0206   -0.6150 O   0  0  0  0  0  0  0  0  0  0  0  0
    1.4777    0.4673    0.6585 P   0  0  0  0  0  5  0  0  0  0  0  0
    0.8249    1.6943    1.2350 O   0  0  0  0  0  0  0  0  0  0  0  0
    1.8629   -0.7175    1.4928 O   0  0  0  0  0  1  0  0  0  0  0  0
    2.8482    0.8838   -0.0711 O   0  0  0  0  0  0  0  0  0  0  0  0
   -1.6673   -0.1110    0.5176 C   0  0  0  0  0  0  0  0  0  0  0  0
   -2.6688   -0.8022    0.6921 O   0  0  0  0  0  0  0  0  0  0  0  0
   -1.4817    1.0145    1.2299 O   0  0  0  0  0  0  0  0  0  0  0  0
    0.0000    0.0000    0.0000 K   0  0  0  0  0 15  0  0  0  0  0  0
   -0.5548   -1.2580   -2.5127 H   0  0  0  0  0  0  0  0  0  0  0  0
   -2.2355   -1.3461   -1.7241 H   0  0  0  0  0  0  0  0  0  0  0  0
    3.4573    0.1692    0.1878 H   0  0  0  0  0  0  0  0  0  0  0  0
   -0.5760    1.4459    1.1805 H   0  0  0  0  0  0  0  0  0  0  0  0
  1  2  2  3
  2  3  1  0
  3  4  1  0
  4  5  2  0
  4  6  1  0
  4  7  1  0
  2  8  1  0
  8  9  2  0
  8 10  1  0
  1 12  1  0
  1 13  1  0
  7 14  1  0
 10 15  1  0
M  CHG  2   6  -1  11   1
M  END
$$$$
