
     RDKit          3D

 49 52  0  0  0  0  0  0  0  0999 V2000
    7.4626   -1.6160    0.2220 C   0  0  0  0  0  0  0  0  0  0  0  0
    6.6878   -0.3737   -0.0330 C   0  0  0  0  0  0  0  0  0  0  0  0
    5.3266   -0.3866    0.2262 N   0  0  0  0  0  0  0  0  0  0  0  0
    4.8120    0.7811   -0.0468 C   0  0  0  0  0  0  0  0  0  0  0  0
    3.5189    1.2104    0.0551 N   0  0  0  0  0  0  0  0  0  0  0  0
    2.5058    0.4066    0.5300 C   0  0  0  0  0  0  0  0  0  0  0  0
    2.6011   -0.7454    0.9332 O   0  0  0  0  0  0  0  0  0  0  0  0
    1.1686    1.1284    0.4876 C   0  0  0  0  0  0  0  0  0  0  0  0
    0.0033    0.3139    1.0512 C   0  0  0  0  0  0  0  0  0  0  0  0
   -0.3199   -0.9665    0.2831 C   0  0  2  0  0  0  0  0  0  0  0  0
   -0.5580   -0.7490   -1.1233 N   0  0  0  0  0  0  0  0  0  0  0  0
   -1.7928   -1.2186   -1.5126 C   0  0  0  0  0  0  0  0  0  0  0  0
   -2.1600   -1.2706   -2.6747 O   0  0  0  0  0  0  0  0  0  0  0  0
   -2.4730   -1.6193   -0.4072 N   0  0  0  0  0  0  0  0  0  0  0  0
   -3.8274   -2.1159   -0.4148 C   0  0  0  0  0  0  0  0  0  0  0  0
   -4.8260   -0.9937   -0.2404 C   0  0  0  0  0  0  0  0  0  0  0  0
   -5.3082   -0.2902   -1.3693 C   0  0  0  0  0  0  0  0  0  0  0  0
   -6.2152    0.7643   -1.2269 C   0  0  0  0  0  0  0  0  0  0  0  0
   -6.6150    1.0971    0.0484 C   0  0  0  0  0  0  0  0  0  0  0  0
   -6.1433    0.4283    1.1529 C   0  0  0  0  0  0  0  0  0  0  0  0
   -5.2474   -0.6145    1.0451 C   0  0  0  0  0  0  0  0  0  0  0  0
   -6.6562    0.9174    2.3134 O   0  0  0  0  0  0  0  0  0  0  0  0
   -7.5110    1.9653    1.8117 C   0  0  0  0  0  0  0  0  0  0  0  0
   -7.4848    2.0899    0.3748 O   0  0  0  0  0  0  0  0  0  0  0  0
   -1.6862   -1.5189    0.7049 C   0  0  0  0  0  0  0  0  0  0  0  0
   -2.0023   -1.8246    1.8467 O   0  0  0  0  0  0  0  0  0  0  0  0
    5.8907    1.9655   -0.6310 S   0  0  0  0  0  0  0  0  0  0  0  0
    7.1748    0.8306   -0.5178 C   0  0  0  0  0  0  0  0  0  0  0  0
    8.5598    1.2137   -0.9000 C   0  0  0  0  0  0  0  0  0  0  0  0
    8.3438   -1.4038    0.8341 H   0  0  0  0  0  0  0  0  0  0  0  0
    7.7924   -2.0583   -0.7228 H   0  0  0  0  0  0  0  0  0  0  0  0
    6.8547   -2.3562    0.7506 H   0  0  0  0  0  0  0  0  0  0  0  0
    3.3417    2.1636   -0.2220 H   0  0  0  0  0  0  0  0  0  0  0  0
    0.9630    1.4236   -0.5479 H   0  0  0  0  0  0  0  0  0  0  0  0
    1.2665    2.0472    1.0796 H   0  0  0  0  0  0  0  0  0  0  0  0
   -0.8820    0.9640    1.0674 H   0  0  0  0  0  0  0  0  0  0  0  0
    0.2067    0.0562    2.0986 H   0  0  0  0  0  0  0  0  0  0  0  0
    0.4279   -1.7559    0.3919 H   0  0  0  0  0  0  0  0  0  0  0  0
    0.1636   -0.6392   -1.8241 H   0  0  0  0  0  0  0  0  0  0  0  0
   -4.0192   -2.6362   -1.3610 H   0  0  0  0  0  0  0  0  0  0  0  0
   -3.9508   -2.8498    0.3903 H   0  0  0  0  0  0  0  0  0  0  0  0
   -4.9670   -0.5640   -2.3675 H   0  0  0  0  0  0  0  0  0  0  0  0
   -6.5886    1.3046   -2.0893 H   0  0  0  0  0  0  0  0  0  0  0  0
   -4.8802   -1.1178    1.9346 H   0  0  0  0  0  0  0  0  0  0  0  0
   -8.5403    1.7592    2.1268 H   0  0  0  0  0  0  0  0  0  0  0  0
   -7.1935    2.9176    2.2515 H   0  0  0  0  0  0  0  0  0  0  0  0
    9.0514    1.7324   -0.0710 H   0  0  0  0  0  0  0  0  0  0  0  0
    8.5677    1.8729   -1.7742 H   0  0  0  0  0  0  0  0  0  0  0  0
    9.1572    0.3310   -1.1496 H   0  0  0  0  0  0  0  0  0  0  0  0
  1  2  1  0
  2  3  1  0
  3  4  2  0
  4  5  1  0
  5  6  1  0
  6  7  2  0
  6  8  1  0
  8  9  1  0
  9 10  1  0
 10 11  1  0
 11 12  1  0
 12 13  2  0
 12 14  1  0
 14 15  1  0
 15 16  1  0
 16 17  2  0
 17 18  1  0
 18 19  2  0
 19 20  1  0
 20 21  2  0
 20 22  1  0
 22 23  1  0
 23 24  1  0
 14 25  1  0
 25 26  2  0
  4 27  1  0
 27 28  1  0
 28 29  1  0
 28  2  2  0
 25 10  1  0
 21 16  1  0
 24 19  1  0
  1 30  1  0
  1 31  1  0
  1 32  1  0
  5 33  1  0
  8 34  1  0
  8 35  1  0
  9 36  1  0
  9 37  1  0
 10 38  1  6
 11 39  1  0
 15 40  1  0
 15 41  1  0
 17 42  1  0
 18 43  1  0
 21 44  1  0
 23 45  1  0
 23 46  1  0
 29 47  1  0
 29 48  1  0
 29 49  1  0
M  END
$$$$
