
     RDKit          3D

 37 39  0  0  0  0  0  0  0  0999 V2000
    4.5697    0.8432   -1.6169 C   0  0  0  0  0  0  0  0  0  0  0  0
    3.2712    0.8384   -2.4096 C   0  0  0  0  0  0  0  0  0  0  0  0
    2.3934   -0.3839   -2.1246 C   0  0  0  0  0  0  0  0  0  0  0  0
    1.8541   -0.4064   -0.7672 N   0  0  0  0  0  0  0  0  0  0  0  0
    2.4667   -1.2051    0.2012 C   0  0  0  0  0  0  0  0  0  0  0  0
    2.0197   -1.2564    1.4682 C   0  0  0  0  0  0  0  0  0  0  0  0
    0.8900   -0.4866    1.8456 C   0  0  0  0  0  0  0  0  0  0  0  0
    0.2249   -0.3417    3.0730 C   0  0  0  0  0  0  0  0  0  0  0  0
   -0.8095    0.5432    2.8483 C   0  0  0  0  0  0  0  0  0  0  0  0
   -0.7953    0.9105    1.5158 N   0  0  0  0  0  0  0  0  0  0  0  0
   -1.7498    1.8342    0.9118 C   0  0  0  0  0  0  0  0  0  0  0  0
   -2.9506    1.1170    0.3628 C   0  0  0  0  0  0  0  0  0  0  0  0
   -3.9881    0.6780    1.1934 C   0  0  0  0  0  0  0  0  0  0  0  0
   -5.0824    0.0149    0.6458 C   0  0  0  0  0  0  0  0  0  0  0  0
   -5.1074   -0.1885   -0.7228 C   0  0  0  0  0  0  0  0  0  0  0  0
   -4.1298    0.2193   -1.5579 N   0  0  0  0  0  0  0  0  0  0  0  0
   -3.0737    0.8556   -0.9984 C   0  0  0  0  0  0  0  0  0  0  0  0
    0.2708    0.3010    0.8953 C   0  0  0  0  0  0  0  0  0  0  0  0
    0.7266    0.4003   -0.4791 C   0  0  0  0  0  0  0  0  0  0  0  0
    0.1935    1.1245   -1.3167 O   0  0  0  0  0  0  0  0  0  0  0  0
    5.1950    1.6871   -1.9254 H   0  0  0  0  0  0  0  0  0  0  0  0
    4.3820    0.9447   -0.5439 H   0  0  0  0  0  0  0  0  0  0  0  0
    5.1369   -0.0777   -1.7851 H   0  0  0  0  0  0  0  0  0  0  0  0
    2.7211    1.7631   -2.2018 H   0  0  0  0  0  0  0  0  0  0  0  0
    3.5172    0.8467   -3.4781 H   0  0  0  0  0  0  0  0  0  0  0  0
    1.5476   -0.3766   -2.8232 H   0  0  0  0  0  0  0  0  0  0  0  0
    2.9491   -1.3097   -2.3175 H   0  0  0  0  0  0  0  0  0  0  0  0
    3.3294   -1.7860   -0.1100 H   0  0  0  0  0  0  0  0  0  0  0  0
    2.5136   -1.8827    2.2036 H   0  0  0  0  0  0  0  0  0  0  0  0
    0.4607   -0.8141    4.0174 H   0  0  0  0  0  0  0  0  0  0  0  0
   -1.5607    0.9326    3.5229 H   0  0  0  0  0  0  0  0  0  0  0  0
   -1.2365    2.4289    0.1507 H   0  0  0  0  0  0  0  0  0  0  0  0
   -2.0599    2.5429    1.6901 H   0  0  0  0  0  0  0  0  0  0  0  0
   -3.9485    0.8453    2.2666 H   0  0  0  0  0  0  0  0  0  0  0  0
   -5.8949   -0.3365    1.2714 H   0  0  0  0  0  0  0  0  0  0  0  0
   -5.9385   -0.7007   -1.1985 H   0  0  0  0  0  0  0  0  0  0  0  0
   -2.3077    1.1615   -1.7074 H   0  0  0  0  0  0  0  0  0  0  0  0
  1  2  1  0
  2  3  1  0
  3  4  1  0
  4  5  1  0
  5  6  2  0
  6  7  1  0
  7  8  1  0
  8  9  2  0
  9 10  1  0
 10 11  1  0
 11 12  1  0
 12 13  2  0
 13 14  1  0
 14 15  2  0
 15 16  1  0
 16 17  2  0
 10 18  1  0
 18 19  1  0
 19 20  2  0
 19  4  1  0
 18  7  2  0
 17 12  1  0
  1 21  1  0
  1 22  1  0
  1 23  1  0
  2 24  1  0
  2 25  1  0
  3 26  1  0
  3 27  1  0
  5 28  1  0
  6 29  1  0
  8 30  1  0
  9 31  1  0
 11 32  1  0
 11 33  1  0
 13 34  1  0
 14 35  1  0
 15 36  1  0
 17 37  1  0
M  END
$$$$
