
     RDKit          3D

 55 58  0  0  0  0  0  0  0  0999 V2000
    4.5243   -1.7061   -0.5710 O   0  0  0  0  0  0  0  0  0  0  0  0
    3.7555   -0.8209   -0.2069 C   0  0  0  0  0  0  0  0  0  0  0  0
    4.1362    0.4942    0.0478 O   0  0  0  0  0  0  0  0  0  0  0  0
    5.4995    0.7297   -0.1406 C   0  0  0  0  0  0  0  0  0  0  0  0
    6.3812    0.5259    0.9213 C   0  0  0  0  0  0  0  0  0  0  0  0
    7.7387    0.7967    0.7428 C   0  0  0  0  0  0  0  0  0  0  0  0
    8.1897    1.2812   -0.4954 C   0  0  0  0  0  0  0  0  0  0  0  0
    9.6177    1.5675   -0.6859 N   0  0  0  0  0  4  0  0  0  0  0  0
    9.9773    1.9988   -1.7909 O   0  0  0  0  0  0  0  0  0  0  0  0
   10.3794    1.3662    0.2710 O   0  0  0  0  0  1  0  0  0  0  0  0
    7.2913    1.5017   -1.5517 C   0  0  0  0  0  0  0  0  0  0  0  0
    5.9349    1.2291   -1.3681 C   0  0  0  0  0  0  0  0  0  0  0  0
    2.3963   -1.0264   -0.0075 N   0  0  0  0  0  0  0  0  0  0  0  0
    1.5630   -0.0547    0.7006 C   0  0  0  0  0  0  0  0  0  0  0  0
    0.0653   -0.2166    0.3807 C   0  0  0  0  0  0  0  0  0  0  0  0
   -0.4005   -1.6089    0.5636 N   0  0  0  0  0  0  0  0  0  0  0  0
   -1.8287   -1.7482    0.2297 C   0  0  0  0  0  0  0  0  0  0  0  0
   -2.7420   -1.0453    1.2114 C   0  0  0  0  0  0  0  0  0  0  0  0
   -2.7299   -1.3933    2.5715 C   0  0  0  0  0  0  0  0  0  0  0  0
   -3.5663   -0.7429    3.4804 C   0  0  0  0  0  0  0  0  0  0  0  0
   -4.4324    0.2556    3.0384 C   0  0  0  0  0  0  0  0  0  0  0  0
   -4.4718    0.5913    1.6858 C   0  0  0  0  0  0  0  0  0  0  0  0
   -5.3248    1.6081    1.3192 O   0  0  0  0  0  0  0  0  0  0  0  0
   -6.1014    1.4078    0.2004 C   0  0  0  0  0  0  0  0  0  0  0  0
   -6.1867    2.4628   -0.7085 C   0  0  0  0  0  0  0  0  0  0  0  0
   -6.9822    2.3365   -1.8476 C   0  0  0  0  0  0  0  0  0  0  0  0
   -7.7028    1.1621   -2.0680 C   0  0  0  0  0  0  0  0  0  0  0  0
   -7.6354    0.1163   -1.1466 C   0  0  0  0  0  0  0  0  0  0  0  0
   -6.8406    0.2401   -0.0062 C   0  0  0  0  0  0  0  0  0  0  0  0
   -3.6187   -0.0409    0.7758 C   0  0  0  0  0  0  0  0  0  0  0  0
    0.4079   -2.5041   -0.2915 C   0  0  0  0  0  0  0  0  0  0  0  0
    1.9112   -2.4029    0.0166 C   0  0  0  0  0  0  0  0  0  0  0  0
    6.0177    0.1508    1.8739 H   0  0  0  0  0  0  0  0  0  0  0  0
    8.4265    0.6253    1.5682 H   0  0  0  0  0  0  0  0  0  0  0  0
    7.6306    1.8802   -2.5137 H   0  0  0  0  0  0  0  0  0  0  0  0
    5.2276    1.3955   -2.1758 H   0  0  0  0  0  0  0  0  0  0  0  0
    1.7401   -0.1985    1.7737 H   0  0  0  0  0  0  0  0  0  0  0  0
    1.8733    0.9648    0.4497 H   0  0  0  0  0  0  0  0  0  0  0  0
   -0.4874    0.4646    1.0374 H   0  0  0  0  0  0  0  0  0  0  0  0
   -0.1132    0.1074   -0.6535 H   0  0  0  0  0  0  0  0  0  0  0  0
   -2.0239   -1.3988   -0.7930 H   0  0  0  0  0  0  0  0  0  0  0  0
   -2.1121   -2.8093    0.2495 H   0  0  0  0  0  0  0  0  0  0  0  0
   -2.0511   -2.1668    2.9261 H   0  0  0  0  0  0  0  0  0  0  0  0
   -3.5379   -1.0120    4.5330 H   0  0  0  0  0  0  0  0  0  0  0  0
   -5.0791    0.7681    3.7450 H   0  0  0  0  0  0  0  0  0  0  0  0
   -5.6318    3.3797   -0.5304 H   0  0  0  0  0  0  0  0  0  0  0  0
   -7.0447    3.1550   -2.5599 H   0  0  0  0  0  0  0  0  0  0  0  0
   -8.3254    1.0655   -2.9540 H   0  0  0  0  0  0  0  0  0  0  0  0
   -8.2082   -0.7925   -1.3124 H   0  0  0  0  0  0  0  0  0  0  0  0
   -6.8084   -0.5705    0.7164 H   0  0  0  0  0  0  0  0  0  0  0  0
   -3.6319    0.2540   -0.2702 H   0  0  0  0  0  0  0  0  0  0  0  0
    0.2438   -2.2647   -1.3508 H   0  0  0  0  0  0  0  0  0  0  0  0
    0.0981   -3.5448   -0.1381 H   0  0  0  0  0  0  0  0  0  0  0  0
    2.1200   -2.8025    1.0170 H   0  0  0  0  0  0  0  0  0  0  0  0
    2.4723   -3.0108   -0.7019 H   0  0  0  0  0  0  0  0  0  0  0  0
  1  2  2  0
  2  3  1  0
  3  4  1  0
  4  5  2  0
  5  6  1  0
  6  7  2  0
  7  8  1  0
  8  9  2  0
  8 10  1  0
  7 11  1  0
 11 12  2  0
  2 13  1  0
 13 14  1  0
 14 15  1  0
 15 16  1  0
 16 17  1  0
 17 18  1  0
 18 19  2  0
 19 20  1  0
 20 21  2  0
 21 22  1  0
 22 23  1  0
 23 24  1  0
 24 25  2  0
 25 26  1  0
 26 27  2  0
 27 28  1  0
 28 29  2  0
 22 30  2  0
 16 31  1  0
 31 32  1  0
 12  4  1  0
 32 13  1  0
 30 18  1  0
 29 24  1  0
  5 33  1  0
  6 34  1  0
 11 35  1  0
 12 36  1  0
 14 37  1  0
 14 38  1  0
 15 39  1  0
 15 40  1  0
 17 41  1  0
 17 42  1  0
 19 43  1  0
 20 44  1  0
 21 45  1  0
 25 46  1  0
 26 47  1  0
 27 48  1  0
 28 49  1  0
 29 50  1  0
 30 51  1  0
 31 52  1  0
 31 53  1  0
 32 54  1  0
 32 55  1  0
M  CHG  2   8   1  10  -1
M  END
$$$$
