
     RDKit          3D

 53 56  0  0  0  0  0  0  0  0999 V2000
    5.7126   -2.3909   -0.9537 O   0  0  0  0  0  0  0  0  0  0  0  0
    6.2668   -1.6430    0.1275 C   0  0  0  0  0  0  0  0  0  0  0  0
    5.6305   -0.2455    0.2456 C   0  0  0  0  0  0  0  0  0  0  0  0
    4.3447   -0.2072    0.9683 N   0  0  0  0  0  0  0  0  0  0  0  0
    3.8702    1.1837    1.1021 C   0  0  0  0  0  0  0  0  0  0  0  0
    2.4964    1.2787    1.8052 C   0  0  0  0  0  0  0  0  0  0  0  0
    1.4222    0.4768    1.1776 N   0  0  0  0  0  0  0  0  0  0  0  0
    0.9816    1.0718   -0.0917 C   0  0  0  0  0  0  0  0  0  0  0  0
   -0.3515    0.5078   -0.5991 C   0  0  0  0  0  0  0  0  0  0  0  0
   -1.4934    0.7140    0.4086 C   0  0  0  0  0  0  0  0  0  0  0  0
   -2.8020    0.3163   -0.1705 N   0  0  0  0  0  0  0  0  0  0  0  0
   -3.2282   -1.0272    0.0505 C   0  0  0  0  0  0  0  0  0  0  0  0
   -2.3520   -2.0298    0.5271 C   0  0  0  0  0  0  0  0  0  0  0  0
   -2.7576   -3.3539    0.7371 C   0  0  0  0  0  0  0  0  0  0  0  0
   -4.0636   -3.7271    0.4733 C   0  0  0  0  0  0  0  0  0  0  0  0
   -4.9549   -2.7728   -0.0012 C   0  0  0  0  0  0  0  0  0  0  0  0
   -4.5498   -1.4391   -0.2156 C   0  0  0  0  0  0  0  0  0  0  0  0
   -5.8230   -0.3462   -0.7985 S   0  0  0  0  0  0  0  0  0  0  0  0
   -4.9125    1.1291   -1.1821 C   0  0  0  0  0  0  0  0  0  0  0  0
   -5.6485    2.1309   -1.8483 C   0  0  0  0  0  0  0  0  0  0  0  0
   -5.0621    3.3431   -2.1924 C   0  0  0  0  0  0  0  0  0  0  0  0
   -3.7337    3.5553   -1.8700 C   0  0  0  0  0  0  0  0  0  0  0  0
   -2.9805    5.0447   -2.2926 Cl  0  0  0  0  0  0  0  0  0  0  0  0
   -2.9961    2.5686   -1.2073 C   0  0  0  0  0  0  0  0  0  0  0  0
   -3.5590    1.3259   -0.8356 C   0  0  0  0  0  0  0  0  0  0  0  0
    1.9249   -0.9074    1.0251 C   0  0  0  0  0  0  0  0  0  0  0  0
    3.3063   -1.0428    0.3354 C   0  0  0  0  0  0  0  0  0  0  0  0
    5.8763   -1.8878   -1.7693 H   0  0  0  0  0  0  0  0  0  0  0  0
    7.3411   -1.5454   -0.0613 H   0  0  0  0  0  0  0  0  0  0  0  0
    6.1437   -2.2173    1.0514 H   0  0  0  0  0  0  0  0  0  0  0  0
    5.5150    0.1886   -0.7557 H   0  0  0  0  0  0  0  0  0  0  0  0
    6.3406    0.3803    0.8007 H   0  0  0  0  0  0  0  0  0  0  0  0
    3.8083    1.6657    0.1180 H   0  0  0  0  0  0  0  0  0  0  0  0
    4.5929    1.7561    1.6964 H   0  0  0  0  0  0  0  0  0  0  0  0
    2.1909    2.3301    1.8750 H   0  0  0  0  0  0  0  0  0  0  0  0
    2.6094    0.9405    2.8442 H   0  0  0  0  0  0  0  0  0  0  0  0
    0.8364    2.1513    0.0471 H   0  0  0  0  0  0  0  0  0  0  0  0
    1.7377    0.9653   -0.8780 H   0  0  0  0  0  0  0  0  0  0  0  0
   -0.2481   -0.5507   -0.8582 H   0  0  0  0  0  0  0  0  0  0  0  0
   -0.5899    1.0087   -1.5450 H   0  0  0  0  0  0  0  0  0  0  0  0
   -1.5196    1.7566    0.7509 H   0  0  0  0  0  0  0  0  0  0  0  0
   -1.2963    0.1744    1.3430 H   0  0  0  0  0  0  0  0  0  0  0  0
   -1.3102   -1.8191    0.7439 H   0  0  0  0  0  0  0  0  0  0  0  0
   -2.0442   -4.0866    1.1057 H   0  0  0  0  0  0  0  0  0  0  0  0
   -4.3891   -4.7509    0.6341 H   0  0  0  0  0  0  0  0  0  0  0  0
   -5.9810   -3.0733   -0.2042 H   0  0  0  0  0  0  0  0  0  0  0  0
   -6.6943    1.9660   -2.1017 H   0  0  0  0  0  0  0  0  0  0  0  0
   -5.6429    4.1036   -2.7059 H   0  0  0  0  0  0  0  0  0  0  0  0
   -1.9566    2.8006   -1.0048 H   0  0  0  0  0  0  0  0  0  0  0  0
    1.9990   -1.3442    2.0307 H   0  0  0  0  0  0  0  0  0  0  0  0
    1.1955   -1.5327    0.4999 H   0  0  0  0  0  0  0  0  0  0  0  0
    3.5888   -2.0990    0.4031 H   0  0  0  0  0  0  0  0  0  0  0  0
    3.2091   -0.7946   -0.7289 H   0  0  0  0  0  0  0  0  0  0  0  0
  1  2  1  0
  2  3  1  0
  3  4  1  0
  4  5  1  0
  5  6  1  0
  6  7  1  0
  7  8  1  0
  8  9  1  0
  9 10  1  0
 10 11  1  0
 11 12  1  0
 12 13  2  0
 13 14  1  0
 14 15  2  0
 15 16  1  0
 16 17  2  0
 17 18  1  0
 18 19  1  0
 19 20  2  0
 20 21  1  0
 21 22  2  0
 22 23  1  0
 22 24  1  0
 24 25  2  0
  7 26  1  0
 26 27  1  0
 27  4  1  0
 25 11  1  0
 17 12  1  0
 25 19  1  0
  1 28  1  0
  2 29  1  0
  2 30  1  0
  3 31  1  0
  3 32  1  0
  5 33  1  0
  5 34  1  0
  6 35  1  0
  6 36  1  0
  8 37  1  0
  8 38  1  0
  9 39  1  0
  9 40  1  0
 10 41  1  0
 10 42  1  0
 13 43  1  0
 14 44  1  0
 15 45  1  0
 16 46  1  0
 20 47  1  0
 21 48  1  0
 24 49  1  0
 26 50  1  0
 26 51  1  0
 27 52  1  0
 27 53  1  0
M  END
$$$$
