
     RDKit          3D

 32 34  0  0  0  0  0  0  0  0999 V2000
   -2.6037   -3.0291   -0.9084 O   0  0  0  0  0  0  0  0  0  0  0  0
   -2.4091   -1.9032   -0.4609 C   0  0  0  0  0  0  0  0  0  0  0  0
   -1.0214   -1.4007   -0.3047 C   0  0  0  0  0  0  0  0  0  0  0  0
   -0.6653   -0.1207   -0.5000 C   0  0  0  0  0  0  0  0  0  0  0  0
    0.7178    0.3592   -0.3711 C   0  0  0  0  0  0  0  0  0  0  0  0
    1.0364    1.6674   -0.7085 C   0  0  0  0  0  0  0  0  0  0  0  0
    2.3542    2.0901   -0.5639 C   0  0  0  0  0  0  0  0  0  0  0  0
    3.3207    1.1993   -0.0850 C   0  0  0  0  0  0  0  0  0  0  0  0
    4.6645    1.5804    0.0767 C   0  0  0  0  0  0  0  0  0  0  0  0
    5.6014    0.6675    0.5561 C   0  0  0  0  0  0  0  0  0  0  0  0
    5.2003   -0.6249    0.8745 C   0  0  0  0  0  0  0  0  0  0  0  0
    3.8629   -0.9990    0.7121 C   0  0  0  0  0  0  0  0  0  0  0  0
    2.9081   -0.1100    0.2364 C   0  0  0  0  0  0  0  0  0  0  0  0
    1.6339   -0.5182    0.0986 N   0  0  0  0  0  0  0  0  0  0  0  0
   -3.5618   -1.0559   -0.0753 C   0  0  0  0  0  0  0  0  0  0  0  0
   -4.7332   -1.1543   -0.8254 C   0  0  0  0  0  0  0  0  0  0  0  0
   -5.8079   -0.3704   -0.4517 C   0  0  0  0  0  0  0  0  0  0  0  0
   -5.7862    0.4754    0.6014 N   0  0  0  0  0  0  0  0  0  0  0  0
   -4.6492    0.5260    1.3279 C   0  0  0  0  0  0  0  0  0  0  0  0
   -3.5186   -0.2154    1.0371 C   0  0  0  0  0  0  0  0  0  0  0  0
   -0.2855   -2.1728   -0.0975 H   0  0  0  0  0  0  0  0  0  0  0  0
   -1.3991    0.6256   -0.7869 H   0  0  0  0  0  0  0  0  0  0  0  0
    0.2852    2.3552   -1.0817 H   0  0  0  0  0  0  0  0  0  0  0  0
    2.6203    3.1106   -0.8266 H   0  0  0  0  0  0  0  0  0  0  0  0
    4.9866    2.5892   -0.1708 H   0  0  0  0  0  0  0  0  0  0  0  0
    6.6400    0.9635    0.6798 H   0  0  0  0  0  0  0  0  0  0  0  0
    5.9224   -1.3462    1.2485 H   0  0  0  0  0  0  0  0  0  0  0  0
    3.5572   -2.0122    0.9623 H   0  0  0  0  0  0  0  0  0  0  0  0
   -4.8050   -1.8247   -1.6756 H   0  0  0  0  0  0  0  0  0  0  0  0
   -6.7442   -0.4031   -1.0020 H   0  0  0  0  0  0  0  0  0  0  0  0
   -4.6763    1.1972    2.1820 H   0  0  0  0  0  0  0  0  0  0  0  0
   -2.6455   -0.1459    1.6759 H   0  0  0  0  0  0  0  0  0  0  0  0
  1  2  2  0
  2  3  1  0
  3  4  2  0
  4  5  1  0
  5  6  2  0
  6  7  1  0
  7  8  2  0
  8  9  1  0
  9 10  2  0
 10 11  1  0
 11 12  2  0
 12 13  1  0
 13 14  2  0
  2 15  1  0
 15 16  2  0
 16 17  1  0
 17 18  2  0
 18 19  1  0
 19 20  2  0
 14  5  1  0
 20 15  1  0
 13  8  1  0
  3 21  1  0
  4 22  1  0
  6 23  1  0
  7 24  1  0
  9 25  1  0
 10 26  1  0
 11 27  1  0
 12 28  1  0
 16 29  1  0
 17 30  1  0
 19 31  1  0
 20 32  1  0
M  END
$$$$
