
     RDKit          3D

 63 65  0  0  0  0  0  0  0  0999 V2000
   -8.0719   -3.9238    2.8699 C   0  0  0  0  0  0  0  0  0  0  0  0
   -7.9265   -2.7705    1.8906 C   0  0  0  0  0  0  0  0  0  0  0  0
   -6.4975   -2.2345    1.8650 C   0  0  0  0  0  0  0  0  0  0  0  0
   -6.3282   -1.0784    0.8915 C   0  0  0  0  0  0  0  0  0  0  0  0
   -7.2551   -0.6342    0.2235 O   0  0  0  0  0  0  0  0  0  0  0  0
   -5.0280   -0.6147    0.8740 N   0  0  0  0  0  0  0  0  0  0  0  0
   -4.4829    0.4023    0.1155 C   0  0  0  0  0  0  0  0  0  0  0  0
   -5.1194    1.1535   -0.7911 C   0  0  0  0  0  0  0  0  0  0  0  0
   -4.4282    2.1771   -1.5317 C   0  0  0  0  0  0  0  0  0  0  0  0
   -3.1251    2.4341   -1.3281 C   0  0  0  0  0  0  0  0  0  0  0  0
   -2.4261    3.4929   -2.1362 C   0  0  0  0  0  0  0  0  0  0  0  0
   -2.4194    1.7010   -0.3691 N   0  0  0  0  0  0  0  0  0  0  0  0
   -0.9850    1.8971   -0.1472 C   0  0  0  0  0  0  0  0  0  0  0  0
   -0.1179    1.0308   -1.0813 C   0  0  0  0  0  0  0  0  0  0  0  0
   -0.6056    0.3914   -2.0157 O   0  0  0  0  0  0  0  0  0  0  0  0
    1.2584    1.0355   -0.8359 N   0  0  0  0  0  0  0  0  0  0  0  0
    2.1372    0.2880   -1.7270 C   0  0  0  0  0  0  0  0  0  0  0  0
    3.2100   -0.4947   -0.9700 C   0  0  0  0  0  0  0  0  0  0  0  0
    3.7763    0.2613    0.2519 C   0  0  0  0  0  0  0  0  0  0  0  0
    5.2083    0.0284    0.5136 N   0  0  0  0  0  0  0  0  0  0  0  0
    6.1357    0.6610   -0.4291 C   0  0  0  0  0  0  0  0  0  0  0  0
    7.5753    0.2040   -0.1963 C   0  0  0  0  0  0  0  0  0  0  0  0
    7.7337   -1.3018   -0.3932 C   0  0  0  0  0  0  0  0  0  0  0  0
    6.4274   -2.0598   -0.1733 C   0  0  0  0  0  0  0  0  0  0  0  0
    5.5327   -1.3647    0.8510 C   0  0  0  0  0  0  0  0  0  0  0  0
    3.4149    1.7532    0.1981 C   0  0  0  0  0  0  0  0  0  0  0  0
    1.8965    1.9108    0.1458 C   0  0  0  0  0  0  0  0  0  0  0  0
   -3.0154    0.6672    0.3583 C   0  0  0  0  0  0  0  0  0  0  0  0
   -2.4254   -0.0241    1.1940 O   0  0  0  0  0  0  0  0  0  0  0  0
   -7.8252   -3.6070    3.8881 H   0  0  0  0  0  0  0  0  0  0  0  0
   -7.4125   -4.7543    2.5986 H   0  0  0  0  0  0  0  0  0  0  0  0
   -9.1019   -4.2938    2.8695 H   0  0  0  0  0  0  0  0  0  0  0  0
   -8.6217   -1.9697    2.1694 H   0  0  0  0  0  0  0  0  0  0  0  0
   -8.2172   -3.1080    0.8886 H   0  0  0  0  0  0  0  0  0  0  0  0
   -6.2139   -1.8846    2.8647 H   0  0  0  0  0  0  0  0  0  0  0  0
   -5.8065   -3.0338    1.5717 H   0  0  0  0  0  0  0  0  0  0  0  0
   -4.3493   -1.0633    1.4875 H   0  0  0  0  0  0  0  0  0  0  0  0
   -6.1706    1.0180   -1.0198 H   0  0  0  0  0  0  0  0  0  0  0  0
   -5.0064    2.7212   -2.2733 H   0  0  0  0  0  0  0  0  0  0  0  0
   -2.0815    4.3073   -1.4909 H   0  0  0  0  0  0  0  0  0  0  0  0
   -1.5692    3.0755   -2.6740 H   0  0  0  0  0  0  0  0  0  0  0  0
   -3.0893    3.9368   -2.8873 H   0  0  0  0  0  0  0  0  0  0  0  0
   -0.7256    2.9514   -0.2783 H   0  0  0  0  0  0  0  0  0  0  0  0
   -0.7510    1.6313    0.8891 H   0  0  0  0  0  0  0  0  0  0  0  0
    1.5709   -0.4007   -2.3625 H   0  0  0  0  0  0  0  0  0  0  0  0
    2.6059    1.0185   -2.3981 H   0  0  0  0  0  0  0  0  0  0  0  0
    2.7833   -1.4436   -0.6191 H   0  0  0  0  0  0  0  0  0  0  0  0
    3.9918   -0.7687   -1.6863 H   0  0  0  0  0  0  0  0  0  0  0  0
    3.2448   -0.1273    1.1339 H   0  0  0  0  0  0  0  0  0  0  0  0
    6.1043    1.7488   -0.3018 H   0  0  0  0  0  0  0  0  0  0  0  0
    5.8616    0.4476   -1.4690 H   0  0  0  0  0  0  0  0  0  0  0  0
    7.8793    0.4709    0.8245 H   0  0  0  0  0  0  0  0  0  0  0  0
    8.2559    0.7381   -0.8693 H   0  0  0  0  0  0  0  0  0  0  0  0
    8.5034   -1.6712    0.2951 H   0  0  0  0  0  0  0  0  0  0  0  0
    8.1005   -1.5123   -1.4049 H   0  0  0  0  0  0  0  0  0  0  0  0
    5.8929   -2.1472   -1.1272 H   0  0  0  0  0  0  0  0  0  0  0  0
    6.6473   -3.0836    0.1506 H   0  0  0  0  0  0  0  0  0  0  0  0
    6.0527   -1.3556    1.8175 H   0  0  0  0  0  0  0  0  0  0  0  0
    4.6314   -1.9687    1.0111 H   0  0  0  0  0  0  0  0  0  0  0  0
    3.8025    2.2825    1.0768 H   0  0  0  0  0  0  0  0  0  0  0  0
    3.8585    2.2278   -0.6860 H   0  0  0  0  0  0  0  0  0  0  0  0
    1.4683    1.6811    1.1278 H   0  0  0  0  0  0  0  0  0  0  0  0
    1.6380    2.9481   -0.0935 H   0  0  0  0  0  0  0  0  0  0  0  0
  1  2  1  0
  2  3  1  0
  3  4  1  0
  4  5  2  0
  4  6  1  0
  6  7  1  0
  7  8  2  0
  8  9  1  0
  9 10  2  0
 10 11  1  0
 10 12  1  0
 12 13  1  0
 13 14  1  0
 14 15  2  0
 14 16  1  0
 16 17  1  0
 17 18  1  0
 18 19  1  0
 19 20  1  0
 20 21  1  0
 21 22  1  0
 22 23  1  0
 23 24  1  0
 24 25  1  0
 19 26  1  0
 26 27  1  0
 12 28  1  0
 28 29  2  0
 28  7  1  0
 27 16  1  0
 25 20  1  0
  1 30  1  0
  1 31  1  0
  1 32  1  0
  2 33  1  0
  2 34  1  0
  3 35  1  0
  3 36  1  0
  6 37  1  0
  8 38  1  0
  9 39  1  0
 11 40  1  0
 11 41  1  0
 11 42  1  0
 13 43  1  0
 13 44  1  0
 17 45  1  0
 17 46  1  0
 18 47  1  0
 18 48  1  0
 19 49  1  0
 21 50  1  0
 21 51  1  0
 22 52  1  0
 22 53  1  0
 23 54  1  0
 23 55  1  0
 24 56  1  0
 24 57  1  0
 25 58  1  0
 25 59  1  0
 26 60  1  0
 26 61  1  0
 27 62  1  0
 27 63  1  0
M  END
$$$$
