
     RDKit          3D

 35 37  0  0  0  0  0  0  0  0999 V2000
   -1.6286    2.7988   -0.1226 C   0  0  0  0  0  0  0  0  0  0  0  0
   -1.2279    1.3732   -0.0474 C   0  0  0  0  0  0  0  0  0  0  0  0
   -2.1939    0.4063    0.0460 C   0  0  0  0  0  0  0  0  0  0  0  0
   -3.5192    0.7510    0.0634 C   0  0  0  0  0  0  0  0  0  0  0  0
   -4.4673   -0.2476    0.1520 C   0  0  0  0  0  0  0  0  0  0  0  0
   -4.1187   -1.5418    0.2208 N   0  0  0  0  0  0  0  0  0  0  0  0
   -2.8030   -1.9020    0.2048 C   0  0  0  0  0  0  0  0  0  0  0  0
   -1.8469   -0.9448    0.1192 C   0  0  0  0  0  0  0  0  0  0  0  0
   -0.5028   -1.2906    0.0962 C   0  0  0  0  0  0  0  0  0  0  0  0
   -0.0852   -2.7128    0.2043 C   0  0  0  0  0  0  0  0  0  0  0  0
    0.4578   -0.2887   -0.0008 C   0  0  0  0  0  0  0  0  0  0  0  0
    0.1140    1.0498   -0.0732 C   0  0  0  0  0  0  0  0  0  0  0  0
    1.2235    1.8197   -0.1649 N   0  0  0  0  0  0  0  0  0  0  0  0
    2.3114    1.0439   -0.1582 C   0  0  0  0  0  0  0  0  0  0  0  0
    3.6625    1.2983   -0.2316 C   0  0  0  0  0  0  0  0  0  0  0  0
    4.5917    0.2865   -0.2091 C   0  0  0  0  0  0  0  0  0  0  0  0
    4.1289   -0.9955   -0.1108 C   0  0  0  0  0  0  0  0  0  0  0  0
    2.7677   -1.2855   -0.0347 C   0  0  0  0  0  0  0  0  0  0  0  0
    1.8566   -0.2790   -0.0569 C   0  0  0  0  0  0  0  0  0  0  0  0
    0.6830    0.0000    0.0000 Cl  0  0  0  0  0  0  0  0  0  0  0  0
   -2.2757    3.0701    0.7513 H   0  0  0  0  0  0  0  0  0  0  0  0
   -0.7366    3.4599   -0.0391 H   0  0  0  0  0  0  0  0  0  0  0  0
   -2.1409    3.0584   -1.0499 H   0  0  0  0  0  0  0  0  0  0  0  0
   -3.7960    1.7958    0.0076 H   0  0  0  0  0  0  0  0  0  0  0  0
   -5.5184    0.0094    0.1670 H   0  0  0  0  0  0  0  0  0  0  0  0
   -2.6006   -2.9521    0.2553 H   0  0  0  0  0  0  0  0  0  0  0  0
   -0.9092   -3.3976    0.4793 H   0  0  0  0  0  0  0  0  0  0  0  0
    0.4377   -3.0570   -0.7057 H   0  0  0  0  0  0  0  0  0  0  0  0
    0.6091   -2.8346    1.1015 H   0  0  0  0  0  0  0  0  0  0  0  0
    1.2481    2.8606   -0.2315 H   0  0  0  0  0  0  0  0  0  0  0  0
    4.0191    2.3350   -0.3105 H   0  0  0  0  0  0  0  0  0  0  0  0
    5.6715    0.5029   -0.2684 H   0  0  0  0  0  0  0  0  0  0  0  0
    4.7948   -1.8512   -0.0870 H   0  0  0  0  0  0  0  0  0  0  0  0
    2.4766   -2.3389    0.0339 H   0  0  0  0  0  0  0  0  0  0  0  0
   -0.6830    0.0000    0.0000 H   0  0  0  0  0  0  0  0  0  0  0  0
  1  2  1  0
  2  3  2  0
  3  4  1  0
  4  5  2  0
  5  6  1  0
  6  7  2  0
  7  8  1  0
  8  9  2  0
  9 10  1  0
  9 11  1  0
 11 12  2  0
 12 13  1  0
 13 14  1  0
 14 15  2  0
 15 16  1  0
 16 17  2  0
 17 18  1  0
 18 19  2  0
 12  2  1  0
 19 14  1  0
  8  3  1  0
 19 11  1  0
  1 21  1  0
  1 22  1  0
  1 23  1  0
  4 24  1  0
  5 25  1  0
  7 26  1  0
 10 27  1  0
 10 28  1  0
 10 29  1  0
 13 30  1  0
 15 31  1  0
 16 32  1  0
 17 33  1  0
 18 34  1  0
 20 35  1  0
M  END
$$$$
