
     RDKit          3D

 41 44  0  0  0  0  0  0  0  0999 V2000
   -5.3122   -3.0369   -1.5578 N   0  0  0  0  0  0  0  0  0  0  0  0
   -4.1549   -2.5136   -1.0240 C   0  0  0  0  0  0  0  0  0  0  0  0
   -3.4967   -3.2499   -0.1316 N   0  0  0  0  0  0  0  0  0  0  0  0
   -2.3622   -2.7108    0.3604 C   0  0  0  0  0  0  0  0  0  0  0  0
   -1.8492   -1.4742    0.0029 C   0  0  0  0  0  0  0  0  0  0  0  0
   -0.6243   -0.9663    0.6125 C   0  0  0  0  0  0  0  0  0  0  0  0
   -0.5356   -0.7058    1.9635 C   0  0  0  0  0  0  0  0  0  0  0  0
    0.6774   -0.2403    2.3993 C   0  0  0  0  0  0  0  0  0  0  0  0
    1.7304   -0.0474    1.5870 N   0  0  0  0  0  0  0  0  0  0  0  0
    1.5714   -0.3307    0.2874 C   0  0  0  0  0  0  0  0  0  0  0  0
    2.5982   -0.1672   -0.6372 N   0  0  0  0  0  0  0  0  0  0  0  0
    3.9222    0.2762   -0.5500 C   0  0  0  0  0  0  0  0  0  0  0  0
    4.6996    0.3054   -1.7136 C   0  0  0  0  0  0  0  0  0  0  0  0
    6.0142    0.7433   -1.6447 C   0  0  0  0  0  0  0  0  0  0  0  0
    6.6082    1.1524   -0.5076 N   0  0  0  0  0  0  0  0  0  0  0  0
    5.8487    1.1197    0.6060 C   0  0  0  0  0  0  0  0  0  0  0  0
    4.5268    0.6976    0.6326 C   0  0  0  0  0  0  0  0  0  0  0  0
    0.4183   -0.7885   -0.2264 N   0  0  0  0  0  0  0  0  0  0  0  0
   -2.6013   -0.8059   -0.9572 C   0  0  0  0  0  0  0  0  0  0  0  0
   -2.2428    0.5720   -1.4692 C   0  0  0  0  0  0  0  0  0  0  0  0
   -2.7152    1.6403   -0.5223 C   0  0  0  0  0  0  0  0  0  0  0  0
   -1.7533    2.3739    0.3798 C   0  0  0  0  0  0  0  0  0  0  0  0
   -2.3581    3.0801   -0.7992 C   0  0  0  0  0  0  0  0  0  0  0  0
   -3.7518   -1.3223   -1.4690 N   0  0  0  0  0  0  0  0  0  0  0  0
   -5.2904   -4.0447   -1.4949 H   0  0  0  0  0  0  0  0  0  0  0  0
   -5.4789   -2.6313   -2.4678 H   0  0  0  0  0  0  0  0  0  0  0  0
   -1.8517   -3.3416    1.0849 H   0  0  0  0  0  0  0  0  0  0  0  0
   -1.3667   -0.8415    2.6429 H   0  0  0  0  0  0  0  0  0  0  0  0
    0.8467    0.0016    3.4445 H   0  0  0  0  0  0  0  0  0  0  0  0
    2.2654   -0.4489   -1.5478 H   0  0  0  0  0  0  0  0  0  0  0  0
    4.2957   -0.0078   -2.6699 H   0  0  0  0  0  0  0  0  0  0  0  0
    6.6396    0.7758   -2.5320 H   0  0  0  0  0  0  0  0  0  0  0  0
    6.3430    1.4529    1.5141 H   0  0  0  0  0  0  0  0  0  0  0  0
    3.9986    0.7080    1.5776 H   0  0  0  0  0  0  0  0  0  0  0  0
   -2.7431    0.7242   -2.4344 H   0  0  0  0  0  0  0  0  0  0  0  0
   -1.1710    0.6504   -1.6784 H   0  0  0  0  0  0  0  0  0  0  0  0
   -3.7274    1.4623   -0.1711 H   0  0  0  0  0  0  0  0  0  0  0  0
   -2.0979    2.6536    1.3689 H   0  0  0  0  0  0  0  0  0  0  0  0
   -0.6946    2.1455    0.3283 H   0  0  0  0  0  0  0  0  0  0  0  0
   -3.1125    3.8353   -0.6078 H   0  0  0  0  0  0  0  0  0  0  0  0
   -1.7125    3.3052   -1.6409 H   0  0  0  0  0  0  0  0  0  0  0  0
  1  2  1  0
  2  3  2  0
  3  4  1  0
  4  5  2  0
  5  6  1  0
  6  7  2  0
  7  8  1  0
  8  9  2  0
  9 10  1  0
 10 11  1  0
 11 12  1  0
 12 13  2  0
 13 14  1  0
 14 15  2  0
 15 16  1  0
 16 17  2  0
 10 18  2  0
  5 19  1  0
 19 20  1  0
 20 21  1  0
 21 22  1  0
 22 23  1  0
 19 24  2  0
 24  2  1  0
 18  6  1  0
 23 21  1  0
 17 12  1  0
  1 25  1  0
  1 26  1  0
  4 27  1  0
  7 28  1  0
  8 29  1  0
 11 30  1  0
 13 31  1  0
 14 32  1  0
 16 33  1  0
 17 34  1  0
 20 35  1  0
 20 36  1  0
 21 37  1  0
 22 38  1  0
 22 39  1  0
 23 40  1  0
 23 41  1  0
M  END
$$$$
