
     RDKit          3D

 44 46  0  0  0  0  0  0  0  0999 V2000
   -5.2839    1.1191   -2.1103 C   0  0  0  0  0  0  0  0  0  0  0  0
   -5.3327    1.5332   -0.6484 C   0  0  0  0  0  0  0  0  0  0  0  0
   -4.5339    0.6664    0.1876 N   0  0  0  0  0  0  0  0  0  0  0  0
   -5.0315   -0.4805    0.8150 C   0  0  0  0  0  0  0  0  0  0  0  0
   -6.1788   -0.8984    0.7875 O   0  0  0  0  0  0  0  0  0  0  0  0
   -3.8647   -1.1386    1.5557 C   0  0  0  0  0  0  0  0  0  0  0  0
   -2.7133   -0.2422    1.2132 C   0  0  0  0  0  0  0  0  0  0  0  0
   -1.3837   -0.3469    1.5912 C   0  0  0  0  0  0  0  0  0  0  0  0
   -0.4888    0.6291    1.1275 C   0  0  0  0  0  0  0  0  0  0  0  0
    0.9574    0.6002    1.4854 C   0  0  0  0  0  0  0  0  0  0  0  0
    1.6012    1.6429    1.5154 O   0  0  0  0  0  0  0  0  0  0  0  0
    1.4998   -0.6431    1.7318 N   0  0  0  0  0  0  0  0  0  0  0  0
    2.9210   -0.8150    1.9400 C   0  0  0  0  0  0  0  0  0  0  0  0
    3.6024   -1.2267    0.6600 C   0  0  0  0  0  0  0  0  0  0  0  0
    3.8879   -2.5736    0.4008 C   0  0  0  0  0  0  0  0  0  0  0  0
    4.4959   -2.9437   -0.7976 C   0  0  0  0  0  0  0  0  0  0  0  0
    4.8150   -1.9717   -1.7461 C   0  0  0  0  0  0  0  0  0  0  0  0
    4.5306   -0.6252   -1.5098 C   0  0  0  0  0  0  0  0  0  0  0  0
    4.8878    0.2224   -2.5222 O   0  0  0  0  0  0  0  0  0  0  0  0
    4.6128    1.6045   -2.3263 C   0  0  0  0  0  0  0  0  0  0  0  0
    3.9244   -0.2579   -0.3075 C   0  0  0  0  0  0  0  0  0  0  0  0
   -0.9507    1.6906    0.3188 C   0  0  0  0  0  0  0  0  0  0  0  0
   -2.2965    1.7815   -0.0536 C   0  0  0  0  0  0  0  0  0  0  0  0
   -3.1591    0.8046    0.4049 C   0  0  0  0  0  0  0  0  0  0  0  0
   -4.2633    1.1700   -2.5030 H   0  0  0  0  0  0  0  0  0  0  0  0
   -5.9152    1.7785   -2.7136 H   0  0  0  0  0  0  0  0  0  0  0  0
   -5.6399    0.0915   -2.2392 H   0  0  0  0  0  0  0  0  0  0  0  0
   -5.0014    2.5697   -0.5260 H   0  0  0  0  0  0  0  0  0  0  0  0
   -6.3716    1.4838   -0.3023 H   0  0  0  0  0  0  0  0  0  0  0  0
   -3.7087   -2.1488    1.1691 H   0  0  0  0  0  0  0  0  0  0  0  0
   -4.0643   -1.1370    2.6302 H   0  0  0  0  0  0  0  0  0  0  0  0
   -1.0652   -1.1498    2.2469 H   0  0  0  0  0  0  0  0  0  0  0  0
    0.9864   -1.4625    1.4409 H   0  0  0  0  0  0  0  0  0  0  0  0
    3.3719    0.1028    2.3340 H   0  0  0  0  0  0  0  0  0  0  0  0
    3.0438   -1.5905    2.7042 H   0  0  0  0  0  0  0  0  0  0  0  0
    3.6418   -3.3418    1.1301 H   0  0  0  0  0  0  0  0  0  0  0  0
    4.7219   -3.9879   -0.9965 H   0  0  0  0  0  0  0  0  0  0  0  0
    5.2884   -2.2645   -2.6801 H   0  0  0  0  0  0  0  0  0  0  0  0
    4.9538    2.1419   -3.2164 H   0  0  0  0  0  0  0  0  0  0  0  0
    3.5373    1.7825   -2.2221 H   0  0  0  0  0  0  0  0  0  0  0  0
    5.1657    1.9993   -1.4675 H   0  0  0  0  0  0  0  0  0  0  0  0
    3.6827    0.7796   -0.0917 H   0  0  0  0  0  0  0  0  0  0  0  0
   -0.2501    2.4513   -0.0233 H   0  0  0  0  0  0  0  0  0  0  0  0
   -2.6329    2.6010   -0.6781 H   0  0  0  0  0  0  0  0  0  0  0  0
  1  2  1  0
  2  3  1  0
  3  4  1  0
  4  5  2  0
  4  6  1  0
  6  7  1  0
  7  8  2  0
  8  9  1  0
  9 10  1  0
 10 11  2  0
 10 12  1  0
 12 13  1  0
 13 14  1  0
 14 15  2  0
 15 16  1  0
 16 17  2  0
 17 18  1  0
 18 19  1  0
 19 20  1  0
 18 21  2  0
  9 22  2  0
 22 23  1  0
 23 24  2  0
 24  3  1  0
 24  7  1  0
 21 14  1  0
  1 25  1  0
  1 26  1  0
  1 27  1  0
  2 28  1  0
  2 29  1  0
  6 30  1  0
  6 31  1  0
  8 32  1  0
 12 33  1  0
 13 34  1  0
 13 35  1  0
 15 36  1  0
 16 37  1  0
 17 38  1  0
 20 39  1  0
 20 40  1  0
 20 41  1  0
 21 42  1  0
 22 43  1  0
 23 44  1  0
M  END
$$$$
