
     RDKit          3D

  8  7  0  0  0  0  0  0  0  0999 V2000
    1.1519    0.2073    1.3540 O   0  0  0  0  0  0  0  0  0  0  0  0
    0.5859   -0.0236    0.2927 C   0  0  0  0  0  0  0  0  0  0  0  0
    1.3359   -0.5097   -0.7318 O   0  0  0  0  0  0  0  0  0  0  0  0
   -0.9012    0.1698   -0.0403 C   0  0  0  0  0  0  0  0  0  0  0  0
   -1.7716    0.8091    1.3793 Cl  0  0  0  0  0  0  0  0  0  0  0  0
   -1.0452    1.3279   -1.3896 Cl  0  0  0  0  0  0  0  0  0  0  0  0
   -1.6003   -1.4061   -0.4988 Cl  0  0  0  0  0  0  0  0  0  0  0  0
    2.2444   -0.5748   -0.3656 H   0  0  0  0  0  0  0  0  0  0  0  0
  1  2  2  0
  2  3  1  0
  2  4  1  0
  4  5  1  0
  4  6  1  0
  4  7  1  0
  3  8  1  0
M  END
$$$$
