
     RDKit          3D

 22 23  0  0  0  0  0  0  0  0999 V2000
   -3.4137   -1.5372    1.7229 O   0  0  0  0  0  0  0  0  0  0  0  0
   -2.6458   -0.9604    0.9694 C   0  0  0  0  0  0  0  0  0  0  0  0
   -3.0327    0.0587   -0.0604 C   0  0  0  0  0  0  0  0  0  0  0  0
   -1.6908    0.4942   -0.6349 C   0  0  0  0  0  0  0  0  0  0  0  0
   -0.7562   -0.5753   -0.2558 N   0  0  0  0  0  0  0  0  0  0  0  0
    0.5981   -0.1692   -0.1691 C   0  0  0  0  0  0  0  0  0  0  0  0
    1.2082    0.4440   -1.2790 C   0  0  0  0  0  0  0  0  0  0  0  0
    2.5474    0.8454   -1.2496 C   0  0  0  0  0  0  0  0  0  0  0  0
    3.3115    0.6332   -0.1072 C   0  0  0  0  0  0  0  0  0  0  0  0
    2.7376    0.0150    0.9992 C   0  0  0  0  0  0  0  0  0  0  0  0
    1.3972   -0.3870    0.9651 C   0  0  0  0  0  0  0  0  0  0  0  0
   -1.2879   -1.1791    0.8837 N   0  0  0  0  0  0  0  0  0  0  0  0
   -3.6500   -0.4270   -0.8224 H   0  0  0  0  0  0  0  0  0  0  0  0
   -3.5759    0.8927    0.3901 H   0  0  0  0  0  0  0  0  0  0  0  0
   -1.7496    0.6150   -1.7219 H   0  0  0  0  0  0  0  0  0  0  0  0
   -1.4021    1.4568   -0.1915 H   0  0  0  0  0  0  0  0  0  0  0  0
    0.6434    0.5974   -2.1951 H   0  0  0  0  0  0  0  0  0  0  0  0
    2.9922    1.3150   -2.1228 H   0  0  0  0  0  0  0  0  0  0  0  0
    4.3530    0.9422   -0.0809 H   0  0  0  0  0  0  0  0  0  0  0  0
    3.3306   -0.1577    1.8937 H   0  0  0  0  0  0  0  0  0  0  0  0
    0.9890   -0.8588    1.8540 H   0  0  0  0  0  0  0  0  0  0  0  0
   -0.9034   -2.0578    1.2124 H   0  0  0  0  0  0  0  0  0  0  0  0
  1  2  2  0
  2  3  1  0
  3  4  1  0
  4  5  1  0
  5  6  1  0
  6  7  2  0
  7  8  1  0
  8  9  2  0
  9 10  1  0
 10 11  2  0
  5 12  1  0
 12  2  1  0
 11  6  1  0
  3 13  1  0
  3 14  1  0
  4 15  1  0
  4 16  1  0
  7 17  1  0
  8 18  1  0
  9 19  1  0
 10 20  1  0
 11 21  1  0
 12 22  1  0
M  END
$$$$
