
     RDKit          3D

 49 49  0  0  0  0  0  0  0  0999 V2000
    6.0854   -1.0589    0.0582 C   0  0  0  0  0  0  0  0  0  0  0  0
    5.3368    0.1309   -0.5930 C   0  0  0  0  0  0  0  0  0  0  0  0
    5.9072    1.4044   -0.0273 C   0  0  0  0  0  0  0  0  0  0  0  0
    3.8933   -0.0447   -0.3885 C   0  0  0  0  0  0  0  0  0  0  0  0
    3.3232    0.1288    0.8382 C   0  0  0  0  0  0  0  0  0  0  0  0
    1.9710   -0.0774    1.0180 C   0  0  0  0  0  0  0  0  0  0  0  0
    1.1385   -0.4615   -0.0088 C   0  0  0  0  0  0  0  0  0  0  0  0
   -0.2868   -0.7242    0.1934 C   0  0  0  0  0  0  0  0  0  0  0  0
   -1.1336    0.4384    0.3316 N   0  0  0  0  0  0  0  0  0  0  0  0
   -2.4710   -0.0749    0.5516 C   0  0  0  0  0  0  0  0  0  0  0  0
   -3.3319    0.7410    1.4542 C   0  0  0  0  0  0  0  0  0  0  0  0
   -4.7193    0.7147    1.0324 N   0  0  0  0  0  0  0  0  0  0  0  0
   -5.2181   -0.5806    0.6895 C   0  0  0  0  0  0  0  0  0  0  0  0
   -4.3303   -1.3532   -0.2721 C   0  0  0  0  0  0  0  0  0  0  0  0
   -3.2400   -0.3596   -0.7060 C   0  0  0  0  0  0  0  0  0  0  0  0
   -3.9386    0.8955   -1.2249 C   0  0  0  0  0  0  0  0  0  0  0  0
   -4.8141    1.5338   -0.1840 C   0  0  0  0  0  0  0  0  0  0  0  0
    1.7190   -0.6332   -1.2468 C   0  0  0  0  0  0  0  0  0  0  0  0
    3.0797   -0.4314   -1.4496 C   0  0  0  0  0  0  0  0  0  0  0  0
    0.6877    0.0000    0.0000 Cl  0  0  0  0  0  0  0  0  0  0  0  0
    0.6858    0.0000    0.0000 Cl  0  0  0  0  0  0  0  0  0  0  0  0
    7.1145   -1.0819   -0.2929 H   0  0  0  0  0  0  0  0  0  0  0  0
    5.5540   -1.9874   -0.2378 H   0  0  0  0  0  0  0  0  0  0  0  0
    6.0610   -0.8737    1.1346 H   0  0  0  0  0  0  0  0  0  0  0  0
    5.6037    0.0960   -1.6747 H   0  0  0  0  0  0  0  0  0  0  0  0
    5.1940    1.8421    0.6862 H   0  0  0  0  0  0  0  0  0  0  0  0
    6.8984    1.2068    0.4821 H   0  0  0  0  0  0  0  0  0  0  0  0
    6.1040    2.1627   -0.8144 H   0  0  0  0  0  0  0  0  0  0  0  0
    3.9464    0.4286    1.6720 H   0  0  0  0  0  0  0  0  0  0  0  0
    1.5159    0.0616    1.9919 H   0  0  0  0  0  0  0  0  0  0  0  0
   -0.7277   -1.2851   -0.6909 H   0  0  0  0  0  0  0  0  0  0  0  0
   -0.4674   -1.4420    1.0485 H   0  0  0  0  0  0  0  0  0  0  0  0
   -0.8334    1.0253    1.1522 H   0  0  0  0  0  0  0  0  0  0  0  0
   -2.3491   -1.0796    1.0704 H   0  0  0  0  0  0  0  0  0  0  0  0
   -3.2828    0.3786    2.5146 H   0  0  0  0  0  0  0  0  0  0  0  0
   -2.9965    1.7875    1.4497 H   0  0  0  0  0  0  0  0  0  0  0  0
   -6.1753   -0.3990    0.1165 H   0  0  0  0  0  0  0  0  0  0  0  0
   -5.5305   -1.1999    1.5600 H   0  0  0  0  0  0  0  0  0  0  0  0
   -4.8576   -1.8084   -1.1036 H   0  0  0  0  0  0  0  0  0  0  0  0
   -3.7744   -2.0972    0.3707 H   0  0  0  0  0  0  0  0  0  0  0  0
   -2.6264   -0.7613   -1.5225 H   0  0  0  0  0  0  0  0  0  0  0  0
   -4.5290    0.6284   -2.1052 H   0  0  0  0  0  0  0  0  0  0  0  0
   -3.1418    1.6362   -1.4891 H   0  0  0  0  0  0  0  0  0  0  0  0
   -5.8892    1.5309   -0.4737 H   0  0  0  0  0  0  0  0  0  0  0  0
   -4.4797    2.5447    0.1168 H   0  0  0  0  0  0  0  0  0  0  0  0
    1.1385   -0.9378   -2.1099 H   0  0  0  0  0  0  0  0  0  0  0  0
    3.5600   -0.5640   -2.4104 H   0  0  0  0  0  0  0  0  0  0  0  0
   -0.6877    0.0000    0.0000 H   0  0  0  0  0  0  0  0  0  0  0  0
   -0.6858    0.0000    0.0000 H   0  0  0  0  0  0  0  0  0  0  0  0
  1  2  1  0
  2  3  1  0
  2  4  1  0
  4  5  2  0
  5  6  1  0
  6  7  2  0
  7  8  1  0
  8  9  1  0
  9 10  1  0
 10 11  1  0
 11 12  1  0
 12 13  1  0
 13 14  1  0
 14 15  1  0
 15 16  1  0
 16 17  1  0
  7 18  1  0
 18 19  2  0
 19  4  1  0
 15 10  1  0
 17 12  1  0
  1 22  1  0
  1 23  1  0
  1 24  1  0
  2 25  1  0
  3 26  1  0
  3 27  1  0
  3 28  1  0
  5 29  1  0
  6 30  1  0
  8 31  1  0
  8 32  1  0
  9 33  1  0
 10 34  1  0
 11 35  1  0
 11 36  1  0
 13 37  1  0
 13 38  1  0
 14 39  1  0
 14 40  1  0
 15 41  1  0
 16 42  1  0
 16 43  1  0
 17 44  1  0
 17 45  1  0
 18 46  1  0
 19 47  1  0
 20 48  1  0
 21 49  1  0
M  END
$$$$
