
     RDKit          3D

 41 44  0  0  0  0  0  0  0  0999 V2000
   -0.5491   -2.6780   -1.4692 C   0  0  0  0  0  0  0  0  0  0  0  0
   -1.2320   -2.1893   -0.3595 C   0  0  0  0  0  0  0  0  0  0  0  0
   -0.5677   -1.3625    0.5339 C   0  0  0  0  0  0  0  0  0  0  0  0
   -1.1673   -0.8367    1.6725 N   0  0  0  0  0  0  0  0  0  0  0  0
   -2.2689    0.1327    1.5247 C   0  0  0  0  0  0  0  0  0  0  0  0
   -3.6407   -0.5281    1.3434 C   0  0  0  0  0  0  0  0  0  0  0  0
   -4.2818   -0.1512    0.0117 C   0  0  0  0  0  0  0  0  0  0  0  0
   -4.3938    1.2912   -0.1938 N   0  0  0  0  0  0  0  0  0  0  0  0
   -3.2557    2.0684    0.2980 C   0  0  0  0  0  0  0  0  0  0  0  0
   -1.9915    1.2385    0.5002 C   0  0  0  0  0  0  0  0  0  0  0  0
    0.7276   -1.0300    0.3737 N   0  0  0  0  0  0  0  0  0  0  0  0
    1.3820   -1.5061   -0.7100 C   0  0  0  0  0  0  0  0  0  0  0  0
    2.7816   -1.1197   -0.8132 C   0  0  0  0  0  0  0  0  0  0  0  0
    3.8716   -1.8557   -1.2482 C   0  0  0  0  0  0  0  0  0  0  0  0
    5.0345   -1.1367   -1.2041 N   0  0  0  0  0  0  0  0  0  0  0  0
    4.6858    0.0433   -0.7414 C   0  0  0  0  0  0  0  0  0  0  0  0
    5.4696    1.2047   -0.4847 C   0  0  0  0  0  0  0  0  0  0  0  0
    4.8797    2.3280   -0.0346 C   0  0  0  0  0  0  0  0  0  0  0  0
    3.4472    2.3883    0.1977 C   0  0  0  0  0  0  0  0  0  0  0  0
    2.7022    1.2943   -0.0335 C   0  0  0  0  0  0  0  0  0  0  0  0
    3.3136    0.1206   -0.4907 N   0  0  0  0  0  0  0  0  0  0  0  0
    0.7832   -2.3322   -1.6511 C   0  0  0  0  0  0  0  0  0  0  0  0
   -1.0509   -3.3300   -2.1782 H   0  0  0  0  0  0  0  0  0  0  0  0
   -2.2599   -2.4830   -0.1917 H   0  0  0  0  0  0  0  0  0  0  0  0
   -0.3811   -0.3813    2.1410 H   0  0  0  0  0  0  0  0  0  0  0  0
   -2.3188    0.6294    2.5046 H   0  0  0  0  0  0  0  0  0  0  0  0
   -3.5899   -1.6173    1.4487 H   0  0  0  0  0  0  0  0  0  0  0  0
   -4.3039   -0.1864    2.1503 H   0  0  0  0  0  0  0  0  0  0  0  0
   -5.2812   -0.5962   -0.0536 H   0  0  0  0  0  0  0  0  0  0  0  0
   -3.7081   -0.5793   -0.8178 H   0  0  0  0  0  0  0  0  0  0  0  0
   -5.2558    1.6464    0.2203 H   0  0  0  0  0  0  0  0  0  0  0  0
   -3.0560    2.8817   -0.4078 H   0  0  0  0  0  0  0  0  0  0  0  0
   -3.5310    2.5385    1.2504 H   0  0  0  0  0  0  0  0  0  0  0  0
   -1.6697    0.8340   -0.4668 H   0  0  0  0  0  0  0  0  0  0  0  0
   -1.1741    1.8781    0.8547 H   0  0  0  0  0  0  0  0  0  0  0  0
    3.8745   -2.8844   -1.5861 H   0  0  0  0  0  0  0  0  0  0  0  0
    6.5377    1.1546   -0.6621 H   0  0  0  0  0  0  0  0  0  0  0  0
    5.4660    3.2198    0.1647 H   0  0  0  0  0  0  0  0  0  0  0  0
    3.0092    3.3148    0.5525 H   0  0  0  0  0  0  0  0  0  0  0  0
    1.6313    1.2789    0.1185 H   0  0  0  0  0  0  0  0  0  0  0  0
    1.3315   -2.7018   -2.5106 H   0  0  0  0  0  0  0  0  0  0  0  0
  1  2  2  0
  2  3  1  0
  3  4  1  0
  4  5  1  0
  5  6  1  0
  6  7  1  0
  7  8  1  0
  8  9  1  0
  9 10  1  0
  3 11  2  0
 11 12  1  0
 12 13  1  0
 13 14  2  0
 14 15  1  0
 15 16  2  0
 16 17  1  0
 17 18  2  0
 18 19  1  0
 19 20  2  0
 20 21  1  0
 12 22  2  0
 22  1  1  0
 10  5  1  0
 21 13  1  0
 21 16  1  0
  1 23  1  0
  2 24  1  0
  4 25  1  0
  5 26  1  0
  6 27  1  0
  6 28  1  0
  7 29  1  0
  7 30  1  0
  8 31  1  0
  9 32  1  0
  9 33  1  0
 10 34  1  0
 10 35  1  0
 14 36  1  0
 17 37  1  0
 18 38  1  0
 19 39  1  0
 20 40  1  0
 22 41  1  0
M  END
$$$$
