
     RDKit          3D

 43 45  0  0  0  0  0  0  0  0999 V2000
    0.9303    1.7400    1.6463 O   0  0  0  0  0  0  0  0  0  0  0  0
   -0.1625    1.7003    1.0881 C   0  0  0  0  0  0  0  0  0  0  0  0
   -0.4871    2.4765   -0.0091 N   0  0  0  0  0  0  0  0  0  0  0  0
    0.5094    3.2906   -0.6827 C   0  0  0  0  0  0  0  0  0  0  0  0
    1.0837    2.6218   -1.9351 C   0  0  0  0  0  0  0  0  0  0  0  0
    1.8070    1.3374   -1.6817 C   0  0  0  0  0  0  0  0  0  0  0  0
    2.8725    1.1369   -0.8262 C   0  0  0  0  0  0  0  0  0  0  0  0
    3.3581   -0.5013   -0.8675 S   0  0  0  0  0  0  0  0  0  0  0  0
    2.1346   -0.8413   -2.0306 C   0  0  0  0  0  0  0  0  0  0  0  0
    1.9664   -2.1892   -2.6053 C   0  0  0  0  0  0  0  0  0  0  0  0
    2.4024   -3.3544   -1.9640 C   0  0  0  0  0  0  0  0  0  0  0  0
    2.2088   -4.5756   -2.5892 C   0  0  0  0  0  0  0  0  0  0  0  0
    1.6142   -4.7180   -3.7904 N   0  0  0  0  0  0  0  0  0  0  0  0
    1.1876   -3.5894   -4.3920 C   0  0  0  0  0  0  0  0  0  0  0  0
    1.3353   -2.3248   -3.8473 C   0  0  0  0  0  0  0  0  0  0  0  0
    1.4105    0.2074   -2.3834 N   0  0  0  0  0  0  0  0  0  0  0  0
   -1.3106    0.8132    1.5646 C   0  0  0  0  0  0  0  0  0  0  0  0
   -2.3980    1.6705    2.2400 C   0  0  0  0  0  0  0  0  0  0  0  0
   -2.8090    1.1589    3.6186 C   0  0  0  0  0  0  0  0  0  0  0  0
   -3.0913   -0.3370    3.5920 C   0  0  0  0  0  0  0  0  0  0  0  0
   -1.9257   -1.1572    3.0353 C   0  0  0  0  0  0  0  0  0  0  0  0
   -0.7912   -0.3078    2.4751 C   0  0  0  0  0  0  0  0  0  0  0  0
   -1.3450    2.2695   -0.5014 H   0  0  0  0  0  0  0  0  0  0  0  0
    1.3075    3.5534    0.0192 H   0  0  0  0  0  0  0  0  0  0  0  0
    0.0060    4.2194   -0.9732 H   0  0  0  0  0  0  0  0  0  0  0  0
    1.7696    3.3155   -2.4324 H   0  0  0  0  0  0  0  0  0  0  0  0
    0.2637    2.4338   -2.6380 H   0  0  0  0  0  0  0  0  0  0  0  0
    3.3524    1.8518   -0.1716 H   0  0  0  0  0  0  0  0  0  0  0  0
    2.8783   -3.3340   -0.9900 H   0  0  0  0  0  0  0  0  0  0  0  0
    2.5364   -5.4987   -2.1208 H   0  0  0  0  0  0  0  0  0  0  0  0
    0.7064   -3.7298   -5.3572 H   0  0  0  0  0  0  0  0  0  0  0  0
    0.9687   -1.4561   -4.3878 H   0  0  0  0  0  0  0  0  0  0  0  0
   -1.7453    0.3400    0.6714 H   0  0  0  0  0  0  0  0  0  0  0  0
   -2.0863    2.7172    2.3312 H   0  0  0  0  0  0  0  0  0  0  0  0
   -3.2846    1.6773    1.5931 H   0  0  0  0  0  0  0  0  0  0  0  0
   -3.6961    1.7012    3.9654 H   0  0  0  0  0  0  0  0  0  0  0  0
   -2.0124    1.3715    4.3428 H   0  0  0  0  0  0  0  0  0  0  0  0
   -3.3382   -0.6887    4.6003 H   0  0  0  0  0  0  0  0  0  0  0  0
   -3.9847   -0.5269    2.9841 H   0  0  0  0  0  0  0  0  0  0  0  0
   -2.3038   -1.8201    2.2448 H   0  0  0  0  0  0  0  0  0  0  0  0
   -1.5286   -1.8165    3.8166 H   0  0  0  0  0  0  0  0  0  0  0  0
   -0.2127    0.1146    3.3074 H   0  0  0  0  0  0  0  0  0  0  0  0
   -0.0966   -0.9516    1.9189 H   0  0  0  0  0  0  0  0  0  0  0  0
  1  2  2  0
  2  3  1  0
  3  4  1  0
  4  5  1  0
  5  6  1  0
  6  7  2  0
  7  8  1  0
  8  9  1  0
  9 10  1  0
 10 11  2  0
 11 12  1  0
 12 13  2  0
 13 14  1  0
 14 15  2  0
  9 16  2  0
  2 17  1  0
 17 18  1  0
 18 19  1  0
 19 20  1  0
 20 21  1  0
 21 22  1  0
 16  6  1  0
 22 17  1  0
 15 10  1  0
  3 23  1  0
  4 24  1  0
  4 25  1  0
  5 26  1  0
  5 27  1  0
  7 28  1  0
 11 29  1  0
 12 30  1  0
 14 31  1  0
 15 32  1  0
 17 33  1  0
 18 34  1  0
 18 35  1  0
 19 36  1  0
 19 37  1  0
 20 38  1  0
 20 39  1  0
 21 40  1  0
 21 41  1  0
 22 42  1  0
 22 43  1  0
M  END
$$$$
