
     RDKit          3D

 75 74  0  0  0  0  0  0  0  0999 V2000
    9.6801    2.2423   -2.1865 O   0  0  0  0  0  0  0  0  0  0  0  0
    9.0927    1.3796   -1.5387 C   0  0  0  0  0  0  0  0  0  0  0  0
    7.9909    0.5839   -2.0815 C   0  0  0  0  0  0  0  0  0  0  0  0
    7.3497   -0.2516   -1.2648 C   0  0  0  0  0  0  0  0  0  0  0  0
    7.6563   -0.3655    0.0769 N   0  0  0  0  0  0  0  0  0  0  0  0
    6.7252   -1.0422    0.9902 C   0  0  2  0  0  0  0  0  0  0  0  0
    5.8737   -1.9848    0.3143 O   0  0  0  0  0  0  0  0  0  0  0  0
    4.4978   -1.7359    0.7467 C   0  0  2  0  0  0  0  0  0  0  0  0
    3.6919   -1.0779   -0.3888 C   0  0  0  0  0  0  0  0  0  0  0  0
    4.3051    0.1424   -0.7951 O   0  0  0  0  0  0  0  0  0  0  0  0
    4.0644    0.5806   -2.3539 P   0  0  0  0  0  5  0  0  0  0  0  0
    4.6208    1.9807   -2.5440 O   0  0  0  0  0  0  0  0  0  0  0  0
    4.7298   -0.5068   -3.1936 O   0  0  0  0  0  1  0  0  0  0  0  0
    2.4828    0.4577   -2.5006 O   0  0  0  0  0  0  0  0  0  0  0  0
    1.2359    1.1638   -1.7660 P   0  0  0  0  0  5  0  0  0  0  0  0
    1.6166    1.5326   -0.3476 O   0  0  0  0  0  0  0  0  0  0  0  0
    0.6885    2.2453   -2.6907 O   0  0  0  0  0  1  0  0  0  0  0  0
    0.2203   -0.0972   -1.7887 O   0  0  0  0  0  0  0  0  0  0  0  0
   -0.7910   -0.6659   -0.6861 P   0  0  0  0  0  5  0  0  0  0  0  0
   -0.0295   -1.3539    0.4419 O   0  0  0  0  0  0  0  0  0  0  0  0
   -1.8500    0.3504   -0.2755 O   0  0  0  0  0  1  0  0  0  0  0  0
   -1.5192   -1.8727   -1.4622 O   0  0  0  0  0  0  0  0  0  0  0  0
   -2.5733   -2.1507   -2.6194 P   0  0  0  0  0  5  0  0  0  0  0  0
   -3.3152   -3.4479   -2.3056 O   0  0  0  0  0  0  0  0  0  0  0  0
   -1.9904   -2.0250   -4.0081 O   0  0  0  0  0  1  0  0  0  0  0  0
   -3.6724   -0.9697   -2.4173 O   0  0  0  0  0  0  0  0  0  0  0  0
   -4.5015   -1.0683   -1.2706 C   0  0  0  0  0  0  0  0  0  0  0  0
   -4.7027    0.3145   -0.6523 C   0  0  1  0  0  0  0  0  0  0  0  0
   -6.1108    0.6905   -0.7806 O   0  0  0  0  0  0  0  0  0  0  0  0
   -6.5599    1.1292    0.5079 C   0  0  1  0  0  0  0  0  0  0  0  0
   -7.9948    0.8246    0.6404 N   0  0  0  0  0  0  0  0  0  0  0  0
   -8.4902   -0.3822    0.1678 C   0  0  0  0  0  0  0  0  0  0  0  0
   -9.7627   -0.7494    0.3411 C   0  0  0  0  0  0  0  0  0  0  0  0
  -10.6637    0.1499    1.0741 C   0  0  0  0  0  0  0  0  0  0  0  0
  -11.8279   -0.1586    1.3103 O   0  0  0  0  0  0  0  0  0  0  0  0
  -10.1175    1.3328    1.4754 N   0  0  0  0  0  0  0  0  0  0  0  0
   -8.8019    1.7175    1.3294 C   0  0  0  0  0  0  0  0  0  0  0  0
   -8.4529    2.7964    1.8012 O   0  0  0  0  0  0  0  0  0  0  0  0
   -5.7103    0.3820    1.5339 C   0  0  2  0  0  0  0  0  0  0  0  0
   -5.6410    1.0222    2.8090 O   0  0  0  0  0  0  0  0  0  0  0  0
   -4.3653    0.3292    0.8468 C   0  0  2  0  0  0  0  0  0  0  0  0
   -3.6319    1.5139    1.1925 O   0  0  0  0  0  0  0  0  0  0  0  0
    4.5854   -0.8724    2.0085 C   0  0  1  0  0  0  0  0  0  0  0  0
    4.8033   -1.7064    3.1724 O   0  0  0  0  0  0  0  0  0  0  0  0
    5.8449   -0.0559    1.7900 C   0  0  1  0  0  0  0  0  0  0  0  0
    6.4488    0.3040    3.0591 O   0  0  0  0  0  0  0  0  0  0  0  0
    8.6772    0.3821    0.6315 C   0  0  0  0  0  0  0  0  0  0  0  0
    8.8952    0.4619    1.8507 O   0  0  0  0  0  0  0  0  0  0  0  0
    9.4430    1.1008   -0.2496 N   0  0  0  0  0  0  0  0  0  0  0  0
    0.0000    0.0000    0.0000 Na  0  0  0  0  0 15  0  0  0  0  0  0
    0.0000    0.0000    0.0000 Na  0  0  0  0  0 15  0  0  0  0  0  0
    0.0000    0.0000    0.0000 Na  0  0  0  0  0 15  0  0  0  0  0  0
    0.0000    0.0000    0.0000 Na  0  0  0  0  0 15  0  0  0  0  0  0
    7.6665    0.7388   -3.0969 H   0  0  0  0  0  0  0  0  0  0  0  0
    6.5020   -0.8251   -1.6381 H   0  0  0  0  0  0  0  0  0  0  0  0
    7.3427   -1.6315    1.6867 H   0  0  0  0  0  0  0  0  0  0  0  0
    4.0628   -2.7125    0.9751 H   0  0  0  0  0  0  0  0  0  0  0  0
    3.6290   -1.7723   -1.2394 H   0  0  0  0  0  0  0  0  0  0  0  0
    2.6767   -0.8533   -0.0412 H   0  0  0  0  0  0  0  0  0  0  0  0
   -5.4533   -1.4928   -1.6015 H   0  0  0  0  0  0  0  0  0  0  0  0
   -4.0650   -1.7652   -0.5506 H   0  0  0  0  0  0  0  0  0  0  0  0
   -4.1369    1.0761   -1.2037 H   0  0  0  0  0  0  0  0  0  0  0  0
   -6.4041    2.2139    0.5794 H   0  0  0  0  0  0  0  0  0  0  0  0
   -7.7910   -1.0308   -0.3554 H   0  0  0  0  0  0  0  0  0  0  0  0
  -10.1521   -1.6925   -0.0116 H   0  0  0  0  0  0  0  0  0  0  0  0
  -10.7052    1.9656    1.9893 H   0  0  0  0  0  0  0  0  0  0  0  0
   -6.0902   -0.6372    1.6792 H   0  0  0  0  0  0  0  0  0  0  0  0
   -4.7828    1.5202    2.7632 H   0  0  0  0  0  0  0  0  0  0  0  0
   -3.7790   -0.5216    1.2026 H   0  0  0  0  0  0  0  0  0  0  0  0
   -2.7652    1.3519    0.6967 H   0  0  0  0  0  0  0  0  0  0  0  0
    3.6994   -0.2652    2.1974 H   0  0  0  0  0  0  0  0  0  0  0  0
    5.2629   -1.1055    3.7999 H   0  0  0  0  0  0  0  0  0  0  0  0
    5.6467    0.8656    1.2285 H   0  0  0  0  0  0  0  0  0  0  0  0
    7.3658    0.5655    2.8324 H   0  0  0  0  0  0  0  0  0  0  0  0
   10.1261    1.7106    0.1634 H   0  0  0  0  0  0  0  0  0  0  0  0
  1  2  2  0
  2  3  1  0
  3  4  2  0
  4  5  1  0
  5  6  1  0
  6  7  1  0
  7  8  1  0
  8  9  1  0
  9 10  1  0
 10 11  1  0
 11 12  2  0
 11 13  1  0
 11 14  1  0
 14 15  1  0
 15 16  2  0
 15 17  1  0
 15 18  1  0
 18 19  1  0
 19 20  2  0
 19 21  1  0
 19 22  1  0
 22 23  1  0
 23 24  2  0
 23 25  1  0
 23 26  1  0
 26 27  1  0
 27 28  1  0
 28 29  1  0
 29 30  1  0
 30 31  1  0
 31 32  1  0
 32 33  2  0
 33 34  1  0
 34 35  2  0
 34 36  1  0
 36 37  1  0
 37 38  2  0
 30 39  1  0
 39 40  1  0
 39 41  1  0
 41 42  1  0
  8 43  1  0
 43 44  1  0
 43 45  1  0
 45 46  1  0
  5 47  1  0
 47 48  2  0
 47 49  1  0
 49  2  1  0
 45  6  1  0
 41 28  1  0
 37 31  1  0
  3 54  1  0
  4 55  1  0
  6 56  1  1
  8 57  1  1
  9 58  1  0
  9 59  1  0
 27 60  1  0
 27 61  1  0
 28 62  1  6
 30 63  1  6
 32 64  1  0
 33 65  1  0
 36 66  1  0
 39 67  1  1
 40 68  1  0
 41 69  1  1
 42 70  1  0
 43 71  1  1
 44 72  1  0
 45 73  1  6
 46 74  1  0
 49 75  1  0
M  CHG  8  13  -1  17  -1  21  -1  25  -1  50   1  51   1  52   1  53   1
M  END
$$$$
