
     RDKit          3D

 54 57  0  0  0  0  0  0  0  0999 V2000
    3.6089   -1.7326    0.0360 C   0  0  0  0  0  0  0  0  0  0  0  0
    3.7534   -0.2569    0.3509 C   0  0  0  0  0  0  0  0  0  0  0  0
    2.7500    0.5278    0.6200 N   0  0  0  0  0  0  0  0  0  0  0  0
    1.4839    0.0228    0.5767 N   0  0  0  0  0  0  0  0  0  0  0  0
    0.4064    0.8901    0.7100 C   0  0  0  0  0  0  0  0  0  0  0  0
    0.5086    2.1053    0.9038 O   0  0  0  0  0  0  0  0  0  0  0  0
   -0.9835    0.2166    0.6870 C   0  0  0  0  0  0  0  0  0  0  0  0
   -1.9231    1.1947    0.1282 N   0  0  0  0  0  0  0  0  0  0  0  0
   -3.2443    1.2265    0.5066 C   0  0  0  0  0  0  0  0  0  0  0  0
   -3.7511    0.3765    1.2293 O   0  0  0  0  0  0  0  0  0  0  0  0
   -4.0479    2.3812    0.0178 C   0  0  0  0  0  0  0  0  0  0  0  0
   -3.7168    3.0727   -1.1556 C   0  0  0  0  0  0  0  0  0  0  0  0
   -4.5044    4.1458   -1.5799 C   0  0  0  0  0  0  0  0  0  0  0  0
   -5.6246    4.5266   -0.8414 C   0  0  0  0  0  0  0  0  0  0  0  0
   -5.9663    3.8329    0.3197 C   0  0  0  0  0  0  0  0  0  0  0  0
   -5.1830    2.7592    0.7467 C   0  0  0  0  0  0  0  0  0  0  0  0
   -1.0551   -1.0710   -0.1479 C   0  0  0  0  0  0  0  0  0  0  0  0
   -0.4476   -1.0555   -1.3028 N   0  0  0  0  0  0  0  0  0  0  0  0
   -0.4584   -2.1754   -2.0669 N   0  0  0  0  0  0  0  0  0  0  0  0
   -1.0619   -3.3657   -1.7498 C   0  0  0  0  0  0  0  0  0  0  0  0
   -1.0287   -4.3340   -2.5002 O   0  0  0  0  0  0  0  0  0  0  0  0
   -1.7375   -3.4194   -0.4441 C   0  0  0  0  0  0  0  0  0  0  0  0
   -2.3500   -4.6118   -0.0338 C   0  0  0  0  0  0  0  0  0  0  0  0
   -2.9839   -4.6741    1.2039 C   0  0  0  0  0  0  0  0  0  0  0  0
   -3.0051   -3.5489    2.0238 C   0  0  0  0  0  0  0  0  0  0  0  0
   -2.3912   -2.3597    1.6123 C   0  0  0  0  0  0  0  0  0  0  0  0
   -1.7518   -2.2847    0.3696 C   0  0  0  0  0  0  0  0  0  0  0  0
    5.1278    0.3337    0.3563 C   0  0  0  0  0  0  0  0  0  0  0  0
    6.1540   -0.1933   -0.4388 C   0  0  0  0  0  0  0  0  0  0  0  0
    7.4264    0.3840   -0.4154 C   0  0  0  0  0  0  0  0  0  0  0  0
    7.6769    1.4916    0.3946 C   0  0  0  0  0  0  0  0  0  0  0  0
    6.6512    2.0247    1.1740 C   0  0  0  0  0  0  0  0  0  0  0  0
    6.9923    3.5319    2.2639 Br  0  0  0  0  0  0  0  0  0  0  0  0
    5.3785    1.4565    1.1570 C   0  0  0  0  0  0  0  0  0  0  0  0
    2.9068   -2.1976    0.7345 H   0  0  0  0  0  0  0  0  0  0  0  0
    3.2359   -1.8498   -0.9851 H   0  0  0  0  0  0  0  0  0  0  0  0
    4.5542   -2.2699    0.1391 H   0  0  0  0  0  0  0  0  0  0  0  0
    1.3337   -0.8389    0.0586 H   0  0  0  0  0  0  0  0  0  0  0  0
   -1.2379    0.0397    1.7336 H   0  0  0  0  0  0  0  0  0  0  0  0
   -1.4988    2.0720   -0.1585 H   0  0  0  0  0  0  0  0  0  0  0  0
   -2.8662    2.7765   -1.7630 H   0  0  0  0  0  0  0  0  0  0  0  0
   -4.2485    4.6808   -2.4920 H   0  0  0  0  0  0  0  0  0  0  0  0
   -6.2366    5.3614   -1.1748 H   0  0  0  0  0  0  0  0  0  0  0  0
   -6.8435    4.1253    0.8913 H   0  0  0  0  0  0  0  0  0  0  0  0
   -5.4576    2.2194    1.6512 H   0  0  0  0  0  0  0  0  0  0  0  0
   -0.0194   -2.1123   -2.9814 H   0  0  0  0  0  0  0  0  0  0  0  0
   -2.3355   -5.4884   -0.6789 H   0  0  0  0  0  0  0  0  0  0  0  0
   -3.4669   -5.5942    1.5246 H   0  0  0  0  0  0  0  0  0  0  0  0
   -3.5128   -3.5886    2.9858 H   0  0  0  0  0  0  0  0  0  0  0  0
   -2.4617   -1.5102    2.2846 H   0  0  0  0  0  0  0  0  0  0  0  0
    5.9807   -1.0378   -1.1000 H   0  0  0  0  0  0  0  0  0  0  0  0
    8.2214   -0.0250   -1.0350 H   0  0  0  0  0  0  0  0  0  0  0  0
    8.6690    1.9361    0.4057 H   0  0  0  0  0  0  0  0  0  0  0  0
    4.5818    1.8836    1.7634 H   0  0  0  0  0  0  0  0  0  0  0  0
  1  2  1  0
  2  3  2  0
  3  4  1  0
  4  5  1  0
  5  6  2  0
  5  7  1  0
  7  8  1  0
  8  9  1  0
  9 10  2  0
  9 11  1  0
 11 12  2  0
 12 13  1  0
 13 14  2  0
 14 15  1  0
 15 16  2  0
  7 17  1  0
 17 18  2  0
 18 19  1  0
 19 20  1  0
 20 21  2  0
 20 22  1  0
 22 23  2  0
 23 24  1  0
 24 25  2  0
 25 26  1  0
 26 27  2  0
  2 28  1  0
 28 29  2  0
 29 30  1  0
 30 31  2  0
 31 32  1  0
 32 33  1  0
 32 34  2  0
 16 11  1  0
 27 17  1  0
 34 28  1  0
 27 22  1  0
  1 35  1  0
  1 36  1  0
  1 37  1  0
  4 38  1  0
  7 39  1  0
  8 40  1  0
 12 41  1  0
 13 42  1  0
 14 43  1  0
 15 44  1  0
 16 45  1  0
 19 46  1  0
 23 47  1  0
 24 48  1  0
 25 49  1  0
 26 50  1  0
 29 51  1  0
 30 52  1  0
 31 53  1  0
 34 54  1  0
M  END
$$$$
