
     RDKit          3D

 55 59  0  0  0  0  0  0  0  0999 V2000
   -3.1276   -2.5364   -0.1189 C   0  0  0  0  0  0  0  0  0  0  0  0
   -2.2910   -1.5811   -0.8546 N   0  0  0  0  0  0  0  0  0  0  0  0
   -2.7563   -1.4749   -2.2320 C   0  0  0  0  0  0  0  0  0  0  0  0
   -2.0108   -0.3082   -0.1076 C   0  0  2  0  0  0  0  0  0  0  0  0
   -3.2841    0.2988    0.5484 C   0  0  0  0  0  0  0  0  0  0  0  0
   -4.2775    0.9000   -0.2542 C   0  0  0  0  0  0  0  0  0  0  0  0
   -5.4376    1.4532    0.2964 C   0  0  0  0  0  0  0  0  0  0  0  0
   -5.6370    1.4242    1.6704 C   0  0  0  0  0  0  0  0  0  0  0  0
   -4.6746    0.8459    2.4895 C   0  0  0  0  0  0  0  0  0  0  0  0
   -3.5134    0.2922    1.9363 C   0  0  0  0  0  0  0  0  0  0  0  0
   -1.3835    0.8317   -0.9958 C   0  0  0  0  0  0  0  0  0  0  0  0
    0.1172    0.6588   -1.2314 C   0  0  0  0  0  0  0  0  0  0  0  0
    0.8889    0.8611    0.0913 C   0  0  2  0  0  0  0  0  0  0  0  0
    0.0660    0.3630    1.3040 C   0  0  0  0  0  0  0  0  0  0  0  0
   -0.8946   -0.7597    0.9143 C   0  0  0  0  0  0  0  0  0  0  0  0
    1.0795    2.2837    0.3367 O   0  0  0  0  0  0  0  0  0  0  0  0
    2.1690    2.9080   -0.3647 C   0  0  0  0  0  0  0  0  0  0  0  0
    3.5230    2.3515    0.0982 C   0  0  0  0  0  0  0  0  0  0  0  0
    3.4669    0.8703    0.0287 C   0  0  0  0  0  0  0  0  0  0  0  0
    4.4951   -0.1036   -0.0447 C   0  0  0  0  0  0  0  0  0  0  0  0
    5.9007   -0.0523   -0.0766 C   0  0  0  0  0  0  0  0  0  0  0  0
    6.6119   -1.2490   -0.1575 C   0  0  0  0  0  0  0  0  0  0  0  0
    7.9514   -1.2099   -0.1889 F   0  0  0  0  0  0  0  0  0  0  0  0
    5.9700   -2.4801   -0.2073 C   0  0  0  0  0  0  0  0  0  0  0  0
    4.5749   -2.5558   -0.1768 C   0  0  0  0  0  0  0  0  0  0  0  0
    3.8646   -1.3506   -0.0945 C   0  0  0  0  0  0  0  0  0  0  0  0
    2.5040   -1.1269   -0.0489 N   0  0  0  0  0  0  0  0  0  0  0  0
    2.2511    0.2171    0.0344 C   0  0  0  0  0  0  0  0  0  0  0  0
   -2.7647   -2.7050    0.8996 H   0  0  0  0  0  0  0  0  0  0  0  0
   -3.0992   -3.5167   -0.6093 H   0  0  0  0  0  0  0  0  0  0  0  0
   -4.1759   -2.2223   -0.0681 H   0  0  0  0  0  0  0  0  0  0  0  0
   -2.8603   -2.4729   -2.6759 H   0  0  0  0  0  0  0  0  0  0  0  0
   -3.7269   -0.9809   -2.3205 H   0  0  0  0  0  0  0  0  0  0  0  0
   -2.0288   -0.9636   -2.8686 H   0  0  0  0  0  0  0  0  0  0  0  0
   -4.1571    0.9551   -1.3327 H   0  0  0  0  0  0  0  0  0  0  0  0
   -6.1811    1.9091   -0.3520 H   0  0  0  0  0  0  0  0  0  0  0  0
   -6.5359    1.8549    2.1024 H   0  0  0  0  0  0  0  0  0  0  0  0
   -4.8216    0.8258    3.5666 H   0  0  0  0  0  0  0  0  0  0  0  0
   -2.8006   -0.1349    2.6335 H   0  0  0  0  0  0  0  0  0  0  0  0
   -1.5322    1.8081   -0.5103 H   0  0  0  0  0  0  0  0  0  0  0  0
   -1.8954    0.9331   -1.9585 H   0  0  0  0  0  0  0  0  0  0  0  0
    0.4360    1.3852   -1.9866 H   0  0  0  0  0  0  0  0  0  0  0  0
    0.2996   -0.3350   -1.6587 H   0  0  0  0  0  0  0  0  0  0  0  0
    0.7315    0.0126    2.1035 H   0  0  0  0  0  0  0  0  0  0  0  0
   -0.5087    1.1878    1.7459 H   0  0  0  0  0  0  0  0  0  0  0  0
   -1.3079   -1.2224    1.8152 H   0  0  0  0  0  0  0  0  0  0  0  0
   -0.2858   -1.5576    0.4662 H   0  0  0  0  0  0  0  0  0  0  0  0
    2.1242    3.9811   -0.1524 H   0  0  0  0  0  0  0  0  0  0  0  0
    2.0358    2.7857   -1.4453 H   0  0  0  0  0  0  0  0  0  0  0  0
    4.3302    2.7539   -0.5218 H   0  0  0  0  0  0  0  0  0  0  0  0
    3.7059    2.6449    1.1386 H   0  0  0  0  0  0  0  0  0  0  0  0
    6.4325    0.8916   -0.0391 H   0  0  0  0  0  0  0  0  0  0  0  0
    6.5652   -3.3862   -0.2700 H   0  0  0  0  0  0  0  0  0  0  0  0
    4.0674   -3.5140   -0.2150 H   0  0  0  0  0  0  0  0  0  0  0  0
    1.8073   -1.8584   -0.0808 H   0  0  0  0  0  0  0  0  0  0  0  0
  1  2  1  0
  2  3  1  0
  4  2  1  6
  4  5  1  0
  5  6  2  0
  6  7  1  0
  7  8  2  0
  8  9  1  0
  9 10  2  0
  4 11  1  0
 11 12  1  0
 12 13  1  0
 13 14  1  0
 14 15  1  0
 13 16  1  1
 16 17  1  0
 17 18  1  0
 18 19  1  0
 19 20  1  0
 20 21  2  0
 21 22  1  0
 22 23  1  0
 22 24  2  0
 24 25  1  0
 25 26  2  0
 26 27  1  0
 27 28  1  0
 15  4  1  0
 28 19  2  0
 10  5  1  0
 28 13  1  0
 26 20  1  0
  1 29  1  0
  1 30  1  0
  1 31  1  0
  3 32  1  0
  3 33  1  0
  3 34  1  0
  6 35  1  0
  7 36  1  0
  8 37  1  0
  9 38  1  0
 10 39  1  0
 11 40  1  0
 11 41  1  0
 12 42  1  0
 12 43  1  0
 14 44  1  0
 14 45  1  0
 15 46  1  0
 15 47  1  0
 17 48  1  0
 17 49  1  0
 18 50  1  0
 18 51  1  0
 21 52  1  0
 24 53  1  0
 25 54  1  0
 27 55  1  0
M  END
$$$$
