
     RDKit          3D

 38 37  0  0  0  0  0  0  0  0999 V2000
   -3.4893    2.7962    0.2415 C   0  0  0  0  0  0  0  0  0  0  0  0
   -2.1395    2.1838   -0.0985 C   0  0  0  0  0  0  0  0  0  0  0  0
   -1.7704    0.9852    0.7793 C   0  0  0  0  0  0  0  0  0  0  0  0
   -2.6992   -0.2170    0.5842 C   0  0  0  0  0  0  0  0  0  0  0  0
   -2.2736   -1.4476    1.3957 C   0  0  0  0  0  0  0  0  0  0  0  0
   -1.4745   -2.4892    0.6032 C   0  0  0  0  0  0  0  0  0  0  0  0
   -0.0979   -2.0485    0.1013 C   0  0  0  0  0  0  0  0  0  0  0  0
    0.8855   -1.7447    1.2349 C   0  0  0  0  0  0  0  0  0  0  0  0
    2.2996   -1.4268    0.7385 C   0  0  0  0  0  0  0  0  0  0  0  0
    2.3865   -0.1094   -0.0347 C   0  0  0  0  0  0  0  0  0  0  0  0
    3.8300    0.2159   -0.4157 C   0  0  0  0  0  0  0  0  0  0  0  0
    3.9250    1.5099   -1.1778 C   0  0  0  0  0  0  0  0  0  0  0  0
    3.0168    2.2631   -1.4824 O   0  0  0  0  0  0  0  0  0  0  0  0
    5.1960    1.7948   -1.5245 O   0  0  0  0  0  0  0  0  0  0  0  0
   -3.6488    3.7043   -0.3489 H   0  0  0  0  0  0  0  0  0  0  0  0
   -3.5427    3.0672    1.3006 H   0  0  0  0  0  0  0  0  0  0  0  0
   -4.3100    2.1085    0.0174 H   0  0  0  0  0  0  0  0  0  0  0  0
   -2.1274    1.8900   -1.1546 H   0  0  0  0  0  0  0  0  0  0  0  0
   -1.3680    2.9535    0.0244 H   0  0  0  0  0  0  0  0  0  0  0  0
   -1.7778    1.2879    1.8336 H   0  0  0  0  0  0  0  0  0  0  0  0
   -0.7403    0.7051    0.5426 H   0  0  0  0  0  0  0  0  0  0  0  0
   -2.7830   -0.4679   -0.4796 H   0  0  0  0  0  0  0  0  0  0  0  0
   -3.7040    0.0675    0.9191 H   0  0  0  0  0  0  0  0  0  0  0  0
   -1.7397   -1.1535    2.3059 H   0  0  0  0  0  0  0  0  0  0  0  0
   -3.1891   -1.9499    1.7357 H   0  0  0  0  0  0  0  0  0  0  0  0
   -2.0719   -2.8080   -0.2604 H   0  0  0  0  0  0  0  0  0  0  0  0
   -1.3516   -3.3805    1.2316 H   0  0  0  0  0  0  0  0  0  0  0  0
   -0.2077   -1.1888   -0.5660 H   0  0  0  0  0  0  0  0  0  0  0  0
    0.3141   -2.8601   -0.5119 H   0  0  0  0  0  0  0  0  0  0  0  0
    0.9438   -2.6177    1.8967 H   0  0  0  0  0  0  0  0  0  0  0  0
    0.5242   -0.9110    1.8463 H   0  0  0  0  0  0  0  0  0  0  0  0
    2.9632   -1.3729    1.6105 H   0  0  0  0  0  0  0  0  0  0  0  0
    2.6658   -2.2502    0.1136 H   0  0  0  0  0  0  0  0  0  0  0  0
    1.7780   -0.1627   -0.9448 H   0  0  0  0  0  0  0  0  0  0  0  0
    1.9743    0.7048    0.5742 H   0  0  0  0  0  0  0  0  0  0  0  0
    4.4424    0.3062    0.4882 H   0  0  0  0  0  0  0  0  0  0  0  0
    4.2366   -0.5831   -1.0453 H   0  0  0  0  0  0  0  0  0  0  0  0
    5.1245    2.6457   -2.0058 H   0  0  0  0  0  0  0  0  0  0  0  0
  1  2  1  0
  2  3  1  0
  3  4  1  0
  4  5  1  0
  5  6  1  0
  6  7  1  0
  7  8  1  0
  8  9  1  0
  9 10  1  0
 10 11  1  0
 11 12  1  0
 12 13  2  0
 12 14  1  0
  1 15  1  0
  1 16  1  0
  1 17  1  0
  2 18  1  0
  2 19  1  0
  3 20  1  0
  3 21  1  0
  4 22  1  0
  4 23  1  0
  5 24  1  0
  5 25  1  0
  6 26  1  0
  6 27  1  0
  7 28  1  0
  7 29  1  0
  8 30  1  0
  8 31  1  0
  9 32  1  0
  9 33  1  0
 10 34  1  0
 10 35  1  0
 11 36  1  0
 11 37  1  0
 14 38  1  0
M  END
$$$$
