
     RDKit          3D

 48 49  0  0  0  0  0  0  0  0999 V2000
   -7.2522   -0.6340   -0.7051 C   0  0  0  0  0  0  0  0  0  0  0  0
   -6.6355    0.6008   -0.0637 C   0  0  0  0  0  0  0  0  0  0  0  0
   -5.6516    0.2554    1.0525 C   0  0  0  0  0  0  0  0  0  0  0  0
   -4.4833   -0.4504    0.5678 N   0  0  0  0  0  0  0  0  0  0  0  0
   -3.4148    0.2128    0.0014 C   0  0  0  0  0  0  0  0  0  0  0  0
   -3.3525    1.4324   -0.0994 O   0  0  0  0  0  0  0  0  0  0  0  0
   -2.3408   -0.7326   -0.5062 C   0  0  0  0  0  0  0  0  0  0  0  0
   -1.0563   -0.0220   -0.9408 C   0  0  0  0  0  0  0  0  0  0  0  0
   -0.2311    0.5792    0.2189 C   0  0  0  0  0  0  0  0  0  0  0  0
    0.9783    1.3692   -0.3227 C   0  0  0  0  0  0  0  0  0  0  0  0
    2.2562    0.5367   -0.3483 C   0  0  0  0  0  0  0  0  0  0  0  0
    2.5955    0.0173    0.9793 N   0  0  0  0  0  0  0  0  0  0  0  0
    3.8844   -0.3069    1.3939 C   0  0  0  0  0  0  0  0  0  0  0  0
    4.1795   -0.6249    2.5430 O   0  0  0  0  0  0  0  0  0  0  0  0
    4.9784   -0.2328    0.4109 C   0  0  0  0  0  0  0  0  0  0  0  0
    5.8509    0.8606    0.4942 C   0  0  0  0  0  0  0  0  0  0  0  0
    6.9096    0.9731   -0.4068 C   0  0  0  0  0  0  0  0  0  0  0  0
    7.1031   -0.0085   -1.3791 C   0  0  0  0  0  0  0  0  0  0  0  0
    6.2439   -1.1090   -1.4474 C   0  0  0  0  0  0  0  0  0  0  0  0
    5.1808   -1.2293   -0.5476 C   0  0  0  0  0  0  0  0  0  0  0  0
    4.1727   -2.6258   -0.6642 Cl  0  0  0  0  0  0  0  0  0  0  0  0
    1.5032   -0.1377    1.9361 C   0  0  0  0  0  0  0  0  0  0  0  0
    0.2006   -0.4990    1.2318 C   0  0  0  0  0  0  0  0  0  0  0  0
   -7.9850   -0.3387   -1.4627 H   0  0  0  0  0  0  0  0  0  0  0  0
   -7.7654   -1.2487    0.0412 H   0  0  0  0  0  0  0  0  0  0  0  0
   -6.4924   -1.2502   -1.1959 H   0  0  0  0  0  0  0  0  0  0  0  0
   -7.4395    1.2182    0.3535 H   0  0  0  0  0  0  0  0  0  0  0  0
   -6.1393    1.1977   -0.8377 H   0  0  0  0  0  0  0  0  0  0  0  0
   -5.3229    1.1763    1.5471 H   0  0  0  0  0  0  0  0  0  0  0  0
   -6.1279   -0.3805    1.8061 H   0  0  0  0  0  0  0  0  0  0  0  0
   -4.5204   -1.4598    0.5125 H   0  0  0  0  0  0  0  0  0  0  0  0
   -2.1323   -1.4890    0.2574 H   0  0  0  0  0  0  0  0  0  0  0  0
   -2.7615   -1.2529   -1.3758 H   0  0  0  0  0  0  0  0  0  0  0  0
   -1.3109    0.7728   -1.6535 H   0  0  0  0  0  0  0  0  0  0  0  0
   -0.4323   -0.7399   -1.4884 H   0  0  0  0  0  0  0  0  0  0  0  0
   -0.8652    1.3039    0.7455 H   0  0  0  0  0  0  0  0  0  0  0  0
    0.7722    1.7734   -1.3204 H   0  0  0  0  0  0  0  0  0  0  0  0
    1.1451    2.2369    0.3299 H   0  0  0  0  0  0  0  0  0  0  0  0
    2.1342   -0.3215   -1.0181 H   0  0  0  0  0  0  0  0  0  0  0  0
    3.0808    1.1452   -0.7315 H   0  0  0  0  0  0  0  0  0  0  0  0
    5.7052    1.6166    1.2627 H   0  0  0  0  0  0  0  0  0  0  0  0
    7.5879    1.8211   -0.3456 H   0  0  0  0  0  0  0  0  0  0  0  0
    7.9320    0.0764   -2.0784 H   0  0  0  0  0  0  0  0  0  0  0  0
    6.4158   -1.8747   -2.2003 H   0  0  0  0  0  0  0  0  0  0  0  0
    1.4020    0.8096    2.4787 H   0  0  0  0  0  0  0  0  0  0  0  0
    1.7548   -0.9112    2.6699 H   0  0  0  0  0  0  0  0  0  0  0  0
    0.3378   -1.4617    0.7219 H   0  0  0  0  0  0  0  0  0  0  0  0
   -0.5921   -0.6443    1.9750 H   0  0  0  0  0  0  0  0  0  0  0  0
  1  2  1  0
  2  3  1  0
  3  4  1  0
  4  5  1  0
  5  6  2  0
  5  7  1  0
  7  8  1  0
  8  9  1  0
  9 10  1  0
 10 11  1  0
 11 12  1  0
 12 13  1  0
 13 14  2  0
 13 15  1  0
 15 16  2  0
 16 17  1  0
 17 18  2  0
 18 19  1  0
 19 20  2  0
 20 21  1  0
 12 22  1  0
 22 23  1  0
 23  9  1  0
 20 15  1  0
  1 24  1  0
  1 25  1  0
  1 26  1  0
  2 27  1  0
  2 28  1  0
  3 29  1  0
  3 30  1  0
  4 31  1  0
  7 32  1  0
  7 33  1  0
  8 34  1  0
  8 35  1  0
  9 36  1  0
 10 37  1  0
 10 38  1  0
 11 39  1  0
 11 40  1  0
 16 41  1  0
 17 42  1  0
 18 43  1  0
 19 44  1  0
 22 45  1  0
 22 46  1  0
 23 47  1  0
 23 48  1  0
M  END
$$$$
