
     RDKit          3D

 67 70  0  0  0  0  0  0  0  0999 V2000
    3.6188   -0.9150    4.6770 C   0  0  0  0  0  0  0  0  0  0  0  0
    3.9879   -1.1814    3.3313 O   0  0  0  0  0  0  0  0  0  0  0  0
    3.7690   -0.1889    2.4064 C   0  0  0  0  0  0  0  0  0  0  0  0
    3.0217    0.9681    2.6528 C   0  0  0  0  0  0  0  0  0  0  0  0
    2.8496    1.9282    1.6511 C   0  0  0  0  0  0  0  0  0  0  0  0
    3.4204    1.7437    0.3880 C   0  0  0  0  0  0  0  0  0  0  0  0
    3.2257    2.7660   -0.7074 C   0  0  0  0  0  0  0  0  0  0  0  0
    2.3630    2.2175   -1.8452 C   0  0  0  0  0  0  0  0  0  0  0  0
    2.9233    2.1306   -3.0105 N   0  0  0  0  0  0  0  0  0  0  0  0
    2.2433    1.5945   -4.0807 C   0  0  0  0  0  0  0  0  0  0  0  0
    2.6971    1.6034   -5.2166 O   0  0  0  0  0  0  0  0  0  0  0  0
    0.9890    1.0019   -3.7406 C   0  0  0  0  0  0  0  0  0  0  0  0
    0.0814    0.2543   -4.4585 C   0  0  0  0  0  0  0  0  0  0  0  0
    0.1441   -0.1988   -5.8670 C   0  0  0  0  0  0  0  0  0  0  0  0
   -1.0033   -0.0521   -3.6679 N   0  0  0  0  0  0  0  0  0  0  0  0
   -0.7715    0.5048   -2.4917 C   0  0  0  0  0  0  0  0  0  0  0  0
   -1.7369    0.4703   -1.3261 C   0  0  1  0  0  0  0  0  0  0  0  0
   -1.1507   -0.4099   -0.1931 C   0  0  0  0  0  0  0  0  0  0  0  0
   -2.0918   -0.8382    0.9397 C   0  0  0  0  0  0  0  0  0  0  0  0
   -3.3679   -1.5346    0.4619 C   0  0  0  0  0  0  0  0  0  0  0  0
   -4.1629   -2.0824    1.6222 C   0  0  0  0  0  0  0  0  0  0  0  0
   -4.0617   -3.4328    1.9808 C   0  0  0  0  0  0  0  0  0  0  0  0
   -4.7849   -3.9314    3.0650 C   0  0  0  0  0  0  0  0  0  0  0  0
   -5.6115   -3.0848    3.8017 C   0  0  0  0  0  0  0  0  0  0  0  0
   -5.7156   -1.7388    3.4558 C   0  0  0  0  0  0  0  0  0  0  0  0
   -4.9930   -1.2381    2.3723 C   0  0  0  0  0  0  0  0  0  0  0  0
   -2.1758    1.8948   -0.8967 C   0  0  1  0  0  0  0  0  0  0  0  0
   -2.8173    2.6851   -2.0387 C   0  0  0  0  0  0  0  0  0  0  0  0
   -3.1316    1.8216    0.1615 O   0  0  0  0  0  0  0  0  0  0  0  0
    0.4573    1.1317   -2.4980 N   0  0  0  0  0  0  0  0  0  0  0  0
    1.0684    1.8592   -1.5184 N   0  0  0  0  0  0  0  0  0  0  0  0
    4.1640    0.5798    0.1380 C   0  0  0  0  0  0  0  0  0  0  0  0
    4.3388   -0.3899    1.1337 C   0  0  0  0  0  0  0  0  0  0  0  0
    5.0548   -1.5508    0.9680 O   0  0  0  0  0  0  0  0  0  0  0  0
    5.6034   -1.8125   -0.3167 C   0  0  0  0  0  0  0  0  0  0  0  0
    3.9599   -1.7550    5.2902 H   0  0  0  0  0  0  0  0  0  0  0  0
    4.1095   -0.0111    5.0534 H   0  0  0  0  0  0  0  0  0  0  0  0
    2.5307   -0.8470    4.7806 H   0  0  0  0  0  0  0  0  0  0  0  0
    2.5623    1.1531    3.6181 H   0  0  0  0  0  0  0  0  0  0  0  0
    2.2728    2.8235    1.8756 H   0  0  0  0  0  0  0  0  0  0  0  0
    4.2038    3.0813   -1.0914 H   0  0  0  0  0  0  0  0  0  0  0  0
    2.7308    3.6629   -0.3145 H   0  0  0  0  0  0  0  0  0  0  0  0
   -0.0779    0.6310   -6.5447 H   0  0  0  0  0  0  0  0  0  0  0  0
    1.1373   -0.5909   -6.1074 H   0  0  0  0  0  0  0  0  0  0  0  0
   -0.5803   -0.9969   -6.0496 H   0  0  0  0  0  0  0  0  0  0  0  0
   -2.6348   -0.0448   -1.6933 H   0  0  0  0  0  0  0  0  0  0  0  0
   -0.2976    0.0968    0.2707 H   0  0  0  0  0  0  0  0  0  0  0  0
   -0.7427   -1.3277   -0.6403 H   0  0  0  0  0  0  0  0  0  0  0  0
   -1.5309   -1.5231    1.5911 H   0  0  0  0  0  0  0  0  0  0  0  0
   -2.3375    0.0210    1.5735 H   0  0  0  0  0  0  0  0  0  0  0  0
   -3.1155   -2.3491   -0.2283 H   0  0  0  0  0  0  0  0  0  0  0  0
   -4.0055   -0.8426   -0.1010 H   0  0  0  0  0  0  0  0  0  0  0  0
   -3.4180   -4.1042    1.4178 H   0  0  0  0  0  0  0  0  0  0  0  0
   -4.7015   -4.9810    3.3334 H   0  0  0  0  0  0  0  0  0  0  0  0
   -6.1740   -3.4736    4.6455 H   0  0  0  0  0  0  0  0  0  0  0  0
   -6.3590   -1.0786    4.0307 H   0  0  0  0  0  0  0  0  0  0  0  0
   -5.0759   -0.1843    2.1127 H   0  0  0  0  0  0  0  0  0  0  0  0
   -1.3213    2.4572   -0.5074 H   0  0  0  0  0  0  0  0  0  0  0  0
   -3.7052    2.1673   -2.4160 H   0  0  0  0  0  0  0  0  0  0  0  0
   -3.1558    3.6657   -1.6850 H   0  0  0  0  0  0  0  0  0  0  0  0
   -2.1280    2.8496   -2.8708 H   0  0  0  0  0  0  0  0  0  0  0  0
   -3.4431    2.7237    0.3523 H   0  0  0  0  0  0  0  0  0  0  0  0
    0.9686    1.4648   -0.5888 H   0  0  0  0  0  0  0  0  0  0  0  0
    4.6085    0.4572   -0.8464 H   0  0  0  0  0  0  0  0  0  0  0  0
    4.8161   -1.8831   -1.0734 H   0  0  0  0  0  0  0  0  0  0  0  0
    6.3489   -1.0562   -0.5871 H   0  0  0  0  0  0  0  0  0  0  0  0
    6.1104   -2.7814   -0.2719 H   0  0  0  0  0  0  0  0  0  0  0  0
  1  2  1  0
  2  3  1  0
  3  4  2  0
  4  5  1  0
  5  6  2  0
  6  7  1  0
  7  8  1  0
  8  9  2  0
  9 10  1  0
 10 11  2  0
 10 12  1  0
 12 13  2  0
 13 14  1  0
 13 15  1  0
 15 16  2  0
 16 17  1  0
 17 18  1  0
 18 19  1  0
 19 20  1  0
 20 21  1  0
 21 22  2  0
 22 23  1  0
 23 24  2  0
 24 25  1  0
 25 26  2  0
 17 27  1  0
 27 28  1  0
 27 29  1  0
 16 30  1  0
 30 31  1  0
  6 32  1  0
 32 33  2  0
 33 34  1  0
 34 35  1  0
 33  3  1  0
 31  8  1  0
 30 12  1  0
 26 21  1  0
  1 36  1  0
  1 37  1  0
  1 38  1  0
  4 39  1  0
  5 40  1  0
  7 41  1  0
  7 42  1  0
 14 43  1  0
 14 44  1  0
 14 45  1  0
 17 46  1  6
 18 47  1  0
 18 48  1  0
 19 49  1  0
 19 50  1  0
 20 51  1  0
 20 52  1  0
 22 53  1  0
 23 54  1  0
 24 55  1  0
 25 56  1  0
 26 57  1  0
 27 58  1  1
 28 59  1  0
 28 60  1  0
 28 61  1  0
 29 62  1  0
 31 63  1  0
 32 64  1  0
 35 65  1  0
 35 66  1  0
 35 67  1  0
M  END
$$$$
