
     RDKit          3D

 58 61  0  0  0  0  0  0  0  0999 V2000
    7.0893    2.4944   -1.5978 C   0  0  0  0  0  0  0  0  0  0  0  0
    6.2442    1.9784   -0.5559 N   0  0  0  0  0  0  0  0  0  0  0  0
    6.5713    0.8340    0.1443 C   0  0  0  0  0  0  0  0  0  0  0  0
    7.6568    0.2685    0.0639 O   0  0  0  0  0  0  0  0  0  0  0  0
    5.4619    0.3560    1.0899 C   0  0  0  0  0  0  0  0  0  0  0  0
    4.1138    0.6250    0.5205 N   0  0  0  0  0  0  0  0  0  0  0  0
    3.8039   -0.2682   -0.6136 C   0  0  0  0  0  0  0  0  0  0  0  0
    2.9257   -1.4581   -0.2373 C   0  0  0  0  0  0  0  0  0  0  0  0
    1.5835   -0.9920    0.3394 C   0  0  0  0  0  0  0  0  0  0  0  0
    0.6447   -0.8592   -0.7452 O   0  0  0  0  0  0  0  0  0  0  0  0
   -0.5634   -1.4481   -0.4820 C   0  0  0  0  0  0  0  0  0  0  0  0
   -1.6620   -0.5963   -0.3961 C   0  0  0  0  0  0  0  0  0  0  0  0
   -2.9574   -1.1135   -0.1638 C   0  0  0  0  0  0  0  0  0  0  0  0
   -4.1307   -0.3399   -0.0507 C   0  0  0  0  0  0  0  0  0  0  0  0
   -4.0448    1.0662   -0.2271 N   0  0  0  0  0  0  0  0  0  0  0  0
   -5.0309    2.0461    0.0445 C   0  0  0  0  0  0  0  0  0  0  0  0
   -5.9389    1.9361    1.1053 C   0  0  0  0  0  0  0  0  0  0  0  0
   -6.8550    2.9575    1.3773 C   0  0  0  0  0  0  0  0  0  0  0  0
   -6.8637    4.1168    0.6020 C   0  0  0  0  0  0  0  0  0  0  0  0
   -5.9492    4.2550   -0.4396 C   0  0  0  0  0  0  0  0  0  0  0  0
   -5.9532    5.6943   -1.3841 Cl  0  0  0  0  0  0  0  0  0  0  0  0
   -5.0390    3.2330   -0.7057 C   0  0  0  0  0  0  0  0  0  0  0  0
   -4.1483    3.3641   -1.7054 F   0  0  0  0  0  0  0  0  0  0  0  0
   -5.3253   -0.8975    0.2168 N   0  0  0  0  0  0  0  0  0  0  0  0
   -5.3550   -2.2271    0.3401 C   0  0  0  0  0  0  0  0  0  0  0  0
   -4.3110   -3.0559    0.2282 N   0  0  0  0  0  0  0  0  0  0  0  0
   -3.1238   -2.4976   -0.0193 C   0  0  0  0  0  0  0  0  0  0  0  0
   -2.0151   -3.3314   -0.1417 C   0  0  0  0  0  0  0  0  0  0  0  0
   -0.7330   -2.8323   -0.3920 C   0  0  0  0  0  0  0  0  0  0  0  0
    0.3883   -3.6033   -0.5479 O   0  0  0  0  0  0  0  0  0  0  0  0
    0.1941   -4.9968   -0.7480 C   0  0  0  0  0  0  0  0  0  0  0  0
    1.6996    0.3720    1.0318 C   0  0  0  0  0  0  0  0  0  0  0  0
    3.1019    0.5759    1.5896 C   0  0  0  0  0  0  0  0  0  0  0  0
    6.8306    3.5421   -1.7678 H   0  0  0  0  0  0  0  0  0  0  0  0
    8.1408    2.4097   -1.3148 H   0  0  0  0  0  0  0  0  0  0  0  0
    6.9089    1.9171   -2.5090 H   0  0  0  0  0  0  0  0  0  0  0  0
    5.2502    2.1950   -0.5600 H   0  0  0  0  0  0  0  0  0  0  0  0
    5.6014    0.9145    2.0242 H   0  0  0  0  0  0  0  0  0  0  0  0
    5.5975   -0.7109    1.3008 H   0  0  0  0  0  0  0  0  0  0  0  0
    4.7140   -0.6281   -1.1091 H   0  0  0  0  0  0  0  0  0  0  0  0
    3.2807    0.3300   -1.3697 H   0  0  0  0  0  0  0  0  0  0  0  0
    2.7688   -2.0889   -1.1211 H   0  0  0  0  0  0  0  0  0  0  0  0
    3.4535   -2.0700    0.5064 H   0  0  0  0  0  0  0  0  0  0  0  0
    1.2543   -1.7371    1.0775 H   0  0  0  0  0  0  0  0  0  0  0  0
   -1.4978    0.4736   -0.4941 H   0  0  0  0  0  0  0  0  0  0  0  0
   -3.5783    1.2699   -1.1107 H   0  0  0  0  0  0  0  0  0  0  0  0
   -5.9386    1.0521    1.7387 H   0  0  0  0  0  0  0  0  0  0  0  0
   -7.5576    2.8461    2.2010 H   0  0  0  0  0  0  0  0  0  0  0  0
   -7.5775    4.9065    0.8193 H   0  0  0  0  0  0  0  0  0  0  0  0
   -6.3194   -2.6780    0.5488 H   0  0  0  0  0  0  0  0  0  0  0  0
   -2.1888   -4.3980   -0.0311 H   0  0  0  0  0  0  0  0  0  0  0  0
   -0.1622   -5.4773    0.1688 H   0  0  0  0  0  0  0  0  0  0  0  0
    1.1639   -5.4353   -0.9972 H   0  0  0  0  0  0  0  0  0  0  0  0
   -0.4837   -5.1906   -1.5853 H   0  0  0  0  0  0  0  0  0  0  0  0
    1.4461    1.1864    0.3403 H   0  0  0  0  0  0  0  0  0  0  0  0
    0.9610    0.4296    1.8406 H   0  0  0  0  0  0  0  0  0  0  0  0
    3.3169   -0.2318    2.3032 H   0  0  0  0  0  0  0  0  0  0  0  0
    3.1362    1.5177    2.1491 H   0  0  0  0  0  0  0  0  0  0  0  0
  1  2  1  0
  2  3  1  0
  3  4  2  0
  3  5  1  0
  5  6  1  0
  6  7  1  0
  7  8  1  0
  8  9  1  0
  9 10  1  0
 10 11  1  0
 11 12  2  0
 12 13  1  0
 13 14  2  0
 14 15  1  0
 15 16  1  0
 16 17  2  0
 17 18  1  0
 18 19  2  0
 19 20  1  0
 20 21  1  0
 20 22  2  0
 22 23  1  0
 14 24  1  0
 24 25  2  0
 25 26  1  0
 26 27  2  0
 27 28  1  0
 28 29  2  0
 29 30  1  0
 30 31  1  0
  9 32  1  0
 32 33  1  0
 33  6  1  0
 29 11  1  0
 27 13  1  0
 22 16  1  0
  1 34  1  0
  1 35  1  0
  1 36  1  0
  2 37  1  0
  5 38  1  0
  5 39  1  0
  7 40  1  0
  7 41  1  0
  8 42  1  0
  8 43  1  0
  9 44  1  0
 12 45  1  0
 15 46  1  0
 17 47  1  0
 18 48  1  0
 19 49  1  0
 25 50  1  0
 28 51  1  0
 31 52  1  0
 31 53  1  0
 31 54  1  0
 32 55  1  0
 32 56  1  0
 33 57  1  0
 33 58  1  0
M  END
$$$$
