
     RDKit          3D

 58 62  0  0  0  0  0  0  0  0999 V2000
    8.4405    2.2207   -0.0108 C   0  0  0  0  0  0  0  0  0  0  0  0
    7.4882    1.8286    1.1169 C   0  0  0  0  0  0  0  0  0  0  0  0
    8.2651    1.4370    2.3698 C   0  0  0  0  0  0  0  0  0  0  0  0
    6.6252    0.7304    0.7016 N   0  0  0  0  0  0  0  0  0  0  0  0
    5.4889    0.9549   -0.0613 C   0  0  0  0  0  0  0  0  0  0  0  0
    5.0887    2.0788   -0.3457 O   0  0  0  0  0  0  0  0  0  0  0  0
    4.7867   -0.3415   -0.4905 C   0  0  0  0  0  0  0  0  0  0  0  0
    3.5758   -0.1923   -1.2109 O   0  0  0  0  0  0  0  0  0  0  0  0
    2.4210   -0.0550   -0.4911 C   0  0  0  0  0  0  0  0  0  0  0  0
    2.3325    0.3008    0.8523 C   0  0  0  0  0  0  0  0  0  0  0  0
    1.0830    0.4073    1.4625 C   0  0  0  0  0  0  0  0  0  0  0  0
   -0.0811    0.1641    0.7290 C   0  0  0  0  0  0  0  0  0  0  0  0
   -0.0301   -0.1836   -0.6337 C   0  0  0  0  0  0  0  0  0  0  0  0
   -1.2603   -0.4332   -1.4122 C   0  0  0  0  0  0  0  0  0  0  0  0
   -2.4299   -0.3984   -0.7563 N   0  0  0  0  0  0  0  0  0  0  0  0
   -3.5535   -0.6208   -1.4596 C   0  0  0  0  0  0  0  0  0  0  0  0
   -4.8112   -0.5551   -0.7982 N   0  0  0  0  0  0  0  0  0  0  0  0
   -5.0700   -0.5496    0.5938 C   0  0  0  0  0  0  0  0  0  0  0  0
   -4.2446   -1.2134    1.5129 C   0  0  0  0  0  0  0  0  0  0  0  0
   -4.5345   -1.2627    2.8841 C   0  0  0  0  0  0  0  0  0  0  0  0
   -5.7102   -0.6405    3.3041 C   0  0  0  0  0  0  0  0  0  0  0  0
   -6.2827   -0.5074    4.5416 N   0  0  0  0  0  0  0  0  0  0  0  0
   -7.4507    0.1610    4.5381 N   0  0  0  0  0  0  0  0  0  0  0  0
   -7.6270    0.4660    3.2496 C   0  0  0  0  0  0  0  0  0  0  0  0
   -6.5775   -0.0020    2.4283 C   0  0  0  0  0  0  0  0  0  0  0  0
   -6.2657    0.0341    1.0563 C   0  0  0  0  0  0  0  0  0  0  0  0
   -3.5251   -0.9016   -2.8380 C   0  0  0  0  0  0  0  0  0  0  0  0
   -4.6616   -1.1779   -3.6435 C   0  0  0  0  0  0  0  0  0  0  0  0
   -4.5272   -1.4395   -5.0051 C   0  0  0  0  0  0  0  0  0  0  0  0
   -3.2630   -1.4332   -5.5768 C   0  0  0  0  0  0  0  0  0  0  0  0
   -2.1442   -1.1726   -4.7810 C   0  0  0  0  0  0  0  0  0  0  0  0
   -2.2527   -0.9109   -3.4205 C   0  0  0  0  0  0  0  0  0  0  0  0
   -1.1367   -0.6811   -2.7260 N   0  0  0  0  0  0  0  0  0  0  0  0
    1.2468   -0.2804   -1.2210 C   0  0  0  0  0  0  0  0  0  0  0  0
    9.0775    1.3780   -0.3024 H   0  0  0  0  0  0  0  0  0  0  0  0
    7.8864    2.5376   -0.9009 H   0  0  0  0  0  0  0  0  0  0  0  0
    9.0881    3.0492    0.2950 H   0  0  0  0  0  0  0  0  0  0  0  0
    6.8534    2.6913    1.3535 H   0  0  0  0  0  0  0  0  0  0  0  0
    7.5804    1.1721    3.1829 H   0  0  0  0  0  0  0  0  0  0  0  0
    8.8956    2.2634    2.7138 H   0  0  0  0  0  0  0  0  0  0  0  0
    8.9091    0.5697    2.1853 H   0  0  0  0  0  0  0  0  0  0  0  0
    7.0132   -0.2043    0.7159 H   0  0  0  0  0  0  0  0  0  0  0  0
    4.6597   -1.0042    0.3754 H   0  0  0  0  0  0  0  0  0  0  0  0
    5.4818   -0.8539   -1.1672 H   0  0  0  0  0  0  0  0  0  0  0  0
    3.2105    0.5267    1.4472 H   0  0  0  0  0  0  0  0  0  0  0  0
    1.0116    0.6934    2.5088 H   0  0  0  0  0  0  0  0  0  0  0  0
   -1.0435    0.2617    1.2304 H   0  0  0  0  0  0  0  0  0  0  0  0
   -5.3992    0.1104   -1.2892 H   0  0  0  0  0  0  0  0  0  0  0  0
   -3.3463   -1.7204    1.1664 H   0  0  0  0  0  0  0  0  0  0  0  0
   -3.8726   -1.7737    3.5748 H   0  0  0  0  0  0  0  0  0  0  0  0
   -5.9288   -0.8526    5.4261 H   0  0  0  0  0  0  0  0  0  0  0  0
   -8.5116    1.0171    2.9586 H   0  0  0  0  0  0  0  0  0  0  0  0
   -6.9505    0.5199    0.3689 H   0  0  0  0  0  0  0  0  0  0  0  0
   -5.6563   -1.2066   -3.2046 H   0  0  0  0  0  0  0  0  0  0  0  0
   -5.4032   -1.6525   -5.6126 H   0  0  0  0  0  0  0  0  0  0  0  0
   -3.1385   -1.6362   -6.6375 H   0  0  0  0  0  0  0  0  0  0  0  0
   -1.1559   -1.1766   -5.2370 H   0  0  0  0  0  0  0  0  0  0  0  0
    1.3366   -0.5403   -2.2753 H   0  0  0  0  0  0  0  0  0  0  0  0
  1  2  1  0
  2  3  1  0
  2  4  1  0
  4  5  1  0
  5  6  2  0
  5  7  1  0
  7  8  1  0
  8  9  1  0
  9 10  2  0
 10 11  1  0
 11 12  2  0
 12 13  1  0
 13 14  1  0
 14 15  2  0
 15 16  1  0
 16 17  1  0
 17 18  1  0
 18 19  2  0
 19 20  1  0
 20 21  2  0
 21 22  1  0
 22 23  1  0
 23 24  2  0
 24 25  1  0
 25 26  2  0
 16 27  2  0
 27 28  1  0
 28 29  2  0
 29 30  1  0
 30 31  2  0
 31 32  1  0
 32 33  2  0
 13 34  2  0
 34  9  1  0
 33 14  1  0
 26 18  1  0
 32 27  1  0
 25 21  1  0
  1 35  1  0
  1 36  1  0
  1 37  1  0
  2 38  1  0
  3 39  1  0
  3 40  1  0
  3 41  1  0
  4 42  1  0
  7 43  1  0
  7 44  1  0
 10 45  1  0
 11 46  1  0
 12 47  1  0
 17 48  1  0
 19 49  1  0
 20 50  1  0
 22 51  1  0
 24 52  1  0
 26 53  1  0
 28 54  1  0
 29 55  1  0
 30 56  1  0
 31 57  1  0
 34 58  1  0
M  END
$$$$
