
     RDKit          3D

 42 42  0  0  0  0  0  0  0  0999 V2000
    7.7123   -0.3034    1.1172 C   0  0  0  0  0  0  0  0  0  0  0  0
    6.9268    0.9944    1.0899 C   0  0  0  0  0  0  0  0  0  0  0  0
    5.9060    0.9353    0.0837 O   0  0  0  0  0  0  0  0  0  0  0  0
    4.7289    0.3879    0.4719 C   0  0  0  0  0  0  0  0  0  0  0  0
    4.4787   -0.0476    1.5853 O   0  0  0  0  0  0  0  0  0  0  0  0
    3.8649    0.4076   -0.5788 N   0  0  0  0  0  0  0  0  0  0  0  0
    2.4925   -0.0316   -0.4792 C   0  0  0  0  0  0  0  0  0  0  0  0
    1.5945    1.0680    0.0876 C   0  0  0  0  0  0  0  0  0  0  0  0
    0.1513    0.6044    0.2679 C   0  0  0  0  0  0  0  0  0  0  0  0
   -0.5850    0.4121   -1.0444 C   0  0  0  0  0  0  0  0  0  0  0  0
   -0.1091    0.6905   -2.1387 O   0  0  0  0  0  0  0  0  0  0  0  0
   -1.8491   -0.1121   -0.8733 N   0  0  0  0  0  0  0  0  0  0  0  0
   -2.7682   -0.2152   -1.9937 C   0  0  0  0  0  0  0  0  0  0  0  0
   -3.9070   -1.2047   -1.7330 C   0  0  0  0  0  0  0  0  0  0  0  0
   -4.7876   -0.8086   -0.5701 C   0  0  0  0  0  0  0  0  0  0  0  0
   -5.6617    0.2819   -0.6769 C   0  0  0  0  0  0  0  0  0  0  0  0
   -6.4594    0.6572    0.4050 C   0  0  0  0  0  0  0  0  0  0  0  0
   -6.3926   -0.0533    1.6018 C   0  0  0  0  0  0  0  0  0  0  0  0
   -5.5298   -1.1413    1.7178 C   0  0  0  0  0  0  0  0  0  0  0  0
   -4.7309   -1.5184    0.6374 C   0  0  0  0  0  0  0  0  0  0  0  0
    7.0686   -1.1471    1.3851 H   0  0  0  0  0  0  0  0  0  0  0  0
    8.5312   -0.2458    1.8399 H   0  0  0  0  0  0  0  0  0  0  0  0
    8.1285   -0.5217    0.1282 H   0  0  0  0  0  0  0  0  0  0  0  0
    6.5052    1.2295    2.0740 H   0  0  0  0  0  0  0  0  0  0  0  0
    7.5927    1.8210    0.8210 H   0  0  0  0  0  0  0  0  0  0  0  0
    4.1901    0.8686   -1.4170 H   0  0  0  0  0  0  0  0  0  0  0  0
    2.1807   -0.3266   -1.4851 H   0  0  0  0  0  0  0  0  0  0  0  0
    2.4553   -0.9188    0.1631 H   0  0  0  0  0  0  0  0  0  0  0  0
    1.9816    1.3844    1.0643 H   0  0  0  0  0  0  0  0  0  0  0  0
    1.6356    1.9512   -0.5621 H   0  0  0  0  0  0  0  0  0  0  0  0
   -0.3949    1.3640    0.8403 H   0  0  0  0  0  0  0  0  0  0  0  0
    0.1211   -0.3324    0.8362 H   0  0  0  0  0  0  0  0  0  0  0  0
   -2.2617   -0.0306    0.0493 H   0  0  0  0  0  0  0  0  0  0  0  0
   -3.1524    0.7922   -2.1910 H   0  0  0  0  0  0  0  0  0  0  0  0
   -2.2074   -0.5312   -2.8807 H   0  0  0  0  0  0  0  0  0  0  0  0
   -3.4895   -2.2042   -1.5575 H   0  0  0  0  0  0  0  0  0  0  0  0
   -4.5319   -1.2878   -2.6310 H   0  0  0  0  0  0  0  0  0  0  0  0
   -5.7290    0.8459   -1.6047 H   0  0  0  0  0  0  0  0  0  0  0  0
   -7.1357    1.5033    0.3131 H   0  0  0  0  0  0  0  0  0  0  0  0
   -7.0165    0.2383    2.4428 H   0  0  0  0  0  0  0  0  0  0  0  0
   -5.4819   -1.6989    2.6497 H   0  0  0  0  0  0  0  0  0  0  0  0
   -4.0651   -2.3723    0.7447 H   0  0  0  0  0  0  0  0  0  0  0  0
  1  2  1  0
  2  3  1  0
  3  4  1  0
  4  5  2  0
  4  6  1  0
  6  7  1  0
  7  8  1  0
  8  9  1  0
  9 10  1  0
 10 11  2  0
 10 12  1  0
 12 13  1  0
 13 14  1  0
 14 15  1  0
 15 16  2  0
 16 17  1  0
 17 18  2  0
 18 19  1  0
 19 20  2  0
 20 15  1  0
  1 21  1  0
  1 22  1  0
  1 23  1  0
  2 24  1  0
  2 25  1  0
  6 26  1  0
  7 27  1  0
  7 28  1  0
  8 29  1  0
  8 30  1  0
  9 31  1  0
  9 32  1  0
 12 33  1  0
 13 34  1  0
 13 35  1  0
 14 36  1  0
 14 37  1  0
 16 38  1  0
 17 39  1  0
 18 40  1  0
 19 41  1  0
 20 42  1  0
M  END
$$$$
