
     RDKit          3D

 83 84  0  0  0  0  0  0  0  0999 V2000
   -4.4793   -0.9712   -4.5356 C   0  0  0  0  0  0  0  0  0  0  0  0
   -5.1277   -0.5893   -3.2753 N   0  0  0  0  0  0  0  0  0  0  0  0
   -6.5653   -0.4193   -3.5019 C   0  0  0  0  0  0  0  0  0  0  0  0
   -4.5449    0.6429   -2.7293 C   0  0  0  0  0  0  0  0  0  0  0  0
   -3.2439    0.4618   -1.9880 C   0  0  0  0  0  0  0  0  0  0  0  0
   -2.7010   -0.7101   -1.6089 C   0  0  0  0  0  0  0  0  0  0  0  0
   -1.4033   -0.8704   -0.8973 C   0  0  0  0  0  0  0  0  0  0  0  0
   -0.7546   -1.8942   -1.0787 O   0  0  0  0  0  0  0  0  0  0  0  0
   -1.0990    0.1572   -0.0387 N   0  0  0  0  0  0  0  0  0  0  0  0
    0.0463    0.3042    0.7742 C   0  0  0  0  0  0  0  0  0  0  0  0
    1.1228   -0.5809    0.7627 C   0  0  0  0  0  0  0  0  0  0  0  0
    2.2394   -0.3847    1.6142 C   0  0  0  0  0  0  0  0  0  0  0  0
    3.3661   -1.2312    1.6832 C   0  0  0  0  0  0  0  0  0  0  0  0
    3.3999   -2.3974    0.8717 N   0  0  0  0  0  0  0  0  0  0  0  0
    4.4890   -3.2481    0.5840 C   0  0  0  0  0  0  0  0  0  0  0  0
    5.8171   -2.7967    0.5600 C   0  0  0  0  0  0  0  0  0  0  0  0
    6.8654   -3.6524    0.2095 C   0  0  0  0  0  0  0  0  0  0  0  0
    6.5892   -4.9675   -0.1438 C   0  0  0  0  0  0  0  0  0  0  0  0
    7.6067   -5.7724   -0.4809 F   0  0  0  0  0  0  0  0  0  0  0  0
    5.2771   -5.4301   -0.1589 C   0  0  0  0  0  0  0  0  0  0  0  0
    4.9226   -7.0547   -0.6141 Cl  0  0  0  0  0  0  0  0  0  0  0  0
    4.2310   -4.5721    0.1904 C   0  0  0  0  0  0  0  0  0  0  0  0
    4.4061   -0.9615    2.4931 N   0  0  0  0  0  0  0  0  0  0  0  0
    4.3161    0.1353    3.2490 C   0  0  0  0  0  0  0  0  0  0  0  0
    3.2915    0.9944    3.2751 N   0  0  0  0  0  0  0  0  0  0  0  0
    2.2677    0.7319    2.4598 C   0  0  0  0  0  0  0  0  0  0  0  0
    1.1933    1.6136    2.4547 C   0  0  0  0  0  0  0  0  0  0  0  0
    0.0832    1.4167    1.6308 C   0  0  0  0  0  0  0  0  0  0  0  0
   -1.0145    2.2391    1.5648 O   0  0  0  0  0  0  0  0  0  0  0  0
   -1.0757    3.3947    2.4111 C   0  0  1  0  0  0  0  0  0  0  0  0
   -0.3445    4.5610    1.7807 C   0  0  0  0  0  0  0  0  0  0  0  0
   -1.3325    5.0239    0.7287 C   0  0  0  0  0  0  0  0  0  0  0  0
   -2.6442    4.7734    1.2525 O   0  0  0  0  0  0  0  0  0  0  0  0
   -2.5135    3.9081    2.3950 C   0  0  0  0  0  0  0  0  0  0  0  0
    0.9749   -1.1831    0.9307 O   0  0  0  0  0  0  0  0  0  0  0  0
    1.3206   -0.1514    0.3919 C   0  0  0  0  0  0  0  0  0  0  0  0
    2.6023    0.0975    0.0763 O   0  0  0  0  0  0  0  0  0  0  0  0
    0.4933    1.0081    0.0351 C   0  0  0  0  0  0  0  0  0  0  0  0
   -0.8348    0.9585   -0.1358 C   0  0  0  0  0  0  0  0  0  0  0  0
   -1.6386   -0.2650   -0.0955 C   0  0  0  0  0  0  0  0  0  0  0  0
   -2.6842   -0.3921    0.5133 O   0  0  0  0  0  0  0  0  0  0  0  0
   -1.1635   -1.2028   -0.9257 O   0  0  0  0  0  0  0  0  0  0  0  0
   -0.5435    1.7079    0.0883 O   0  0  0  0  0  0  0  0  0  0  0  0
   -1.1561    0.6885    0.3328 C   0  0  0  0  0  0  0  0  0  0  0  0
   -2.4983    0.6481    0.3587 O   0  0  0  0  0  0  0  0  0  0  0  0
   -0.6213   -0.6337    0.6848 C   0  0  0  0  0  0  0  0  0  0  0  0
    0.6229   -1.0423    0.4023 C   0  0  0  0  0  0  0  0  0  0  0  0
    1.5947   -0.2769   -0.3815 C   0  0  0  0  0  0  0  0  0  0  0  0
    2.7561   -0.0967   -0.0687 O   0  0  0  0  0  0  0  0  0  0  0  0
    1.0957    0.0973   -1.5671 O   0  0  0  0  0  0  0  0  0  0  0  0
   -4.8652   -1.9359   -4.8844 H   0  0  0  0  0  0  0  0  0  0  0  0
   -4.6441   -0.2288   -5.3256 H   0  0  0  0  0  0  0  0  0  0  0  0
   -3.3984   -1.0985   -4.4106 H   0  0  0  0  0  0  0  0  0  0  0  0
   -6.7813    0.3940   -4.2048 H   0  0  0  0  0  0  0  0  0  0  0  0
   -7.0040   -1.3420   -3.8985 H   0  0  0  0  0  0  0  0  0  0  0  0
   -7.0821   -0.2092   -2.5571 H   0  0  0  0  0  0  0  0  0  0  0  0
   -4.4078    1.3908   -3.5229 H   0  0  0  0  0  0  0  0  0  0  0  0
   -5.2354    1.0911   -2.0012 H   0  0  0  0  0  0  0  0  0  0  0  0
   -2.7301    1.3953   -1.7724 H   0  0  0  0  0  0  0  0  0  0  0  0
   -3.1781   -1.6542   -1.8572 H   0  0  0  0  0  0  0  0  0  0  0  0
   -1.7931    0.8843    0.0996 H   0  0  0  0  0  0  0  0  0  0  0  0
    1.1241   -1.4267    0.0830 H   0  0  0  0  0  0  0  0  0  0  0  0
    2.5308   -2.9118    0.9834 H   0  0  0  0  0  0  0  0  0  0  0  0
    6.0518   -1.7631    0.8054 H   0  0  0  0  0  0  0  0  0  0  0  0
    7.8898   -3.2938    0.2012 H   0  0  0  0  0  0  0  0  0  0  0  0
    3.2090   -4.9422    0.1574 H   0  0  0  0  0  0  0  0  0  0  0  0
    5.1546    0.3503    3.9029 H   0  0  0  0  0  0  0  0  0  0  0  0
    1.2608    2.4694    3.1195 H   0  0  0  0  0  0  0  0  0  0  0  0
   -0.7777    3.1500    3.4353 H   0  0  0  0  0  0  0  0  0  0  0  0
   -0.1998    5.3532    2.5251 H   0  0  0  0  0  0  0  0  0  0  0  0
    0.6235    4.3143    1.3356 H   0  0  0  0  0  0  0  0  0  0  0  0
   -1.2257    4.4506   -0.1989 H   0  0  0  0  0  0  0  0  0  0  0  0
   -1.2256    6.0868    0.4940 H   0  0  0  0  0  0  0  0  0  0  0  0
   -3.2562    3.1084    2.3152 H   0  0  0  0  0  0  0  0  0  0  0  0
   -2.7262    4.5135    3.2820 H   0  0  0  0  0  0  0  0  0  0  0  0
    3.0722   -0.7178    0.3525 H   0  0  0  0  0  0  0  0  0  0  0  0
    1.0182    1.9526   -0.0476 H   0  0  0  0  0  0  0  0  0  0  0  0
   -1.4023    1.8644   -0.3060 H   0  0  0  0  0  0  0  0  0  0  0  0
   -1.7581   -1.9689   -0.7893 H   0  0  0  0  0  0  0  0  0  0  0  0
   -2.7627    1.5602    0.1153 H   0  0  0  0  0  0  0  0  0  0  0  0
   -1.2915   -1.2784    1.2412 H   0  0  0  0  0  0  0  0  0  0  0  0
    0.9875   -1.9935    0.7677 H   0  0  0  0  0  0  0  0  0  0  0  0
    1.8164    0.6194   -1.9738 H   0  0  0  0  0  0  0  0  0  0  0  0
  1  2  1  0
  2  3  1  0
  2  4  1  0
  4  5  1  0
  5  6  2  0
  6  7  1  0
  7  8  2  0
  7  9  1  0
  9 10  1  0
 10 11  2  0
 11 12  1  0
 12 13  2  0
 13 14  1  0
 14 15  1  0
 15 16  2  0
 16 17  1  0
 17 18  2  0
 18 19  1  0
 18 20  1  0
 20 21  1  0
 20 22  2  0
 13 23  1  0
 23 24  2  0
 24 25  1  0
 25 26  2  0
 26 27  1  0
 27 28  2  0
 28 29  1  0
 29 30  1  0
 30 31  1  0
 31 32  1  0
 32 33  1  0
 33 34  1  0
 35 36  2  0
 36 37  1  0
 36 38  1  0
 38 39  2  0
 39 40  1  0
 40 41  2  0
 40 42  1  0
 43 44  2  0
 44 45  1  0
 44 46  1  0
 46 47  2  0
 47 48  1  0
 48 49  2  0
 48 50  1  0
 28 10  1  0
 34 30  1  0
 26 12  1  0
 22 15  1  0
  1 51  1  0
  1 52  1  0
  1 53  1  0
  3 54  1  0
  3 55  1  0
  3 56  1  0
  4 57  1  0
  4 58  1  0
  5 59  1  0
  6 60  1  0
  9 61  1  0
 11 62  1  0
 14 63  1  0
 16 64  1  0
 17 65  1  0
 22 66  1  0
 24 67  1  0
 27 68  1  0
 30 69  1  1
 31 70  1  0
 31 71  1  0
 32 72  1  0
 32 73  1  0
 34 74  1  0
 34 75  1  0
 37 76  1  0
 38 77  1  0
 39 78  1  0
 42 79  1  0
 45 80  1  0
 46 81  1  0
 47 82  1  0
 50 83  1  0
M  END
$$$$
