
     RDKit          3D

 49 51  0  0  0  0  0  0  0  0999 V2000
   -4.0350    0.0974    2.3780 O   0  0  0  0  0  0  0  0  0  0  0  0
   -3.9831    0.0571    1.1491 C   0  0  0  0  0  0  0  0  0  0  0  0
   -2.7738   -0.5162    0.4400 C   0  0  0  0  0  0  0  0  0  0  0  0
   -1.6485    0.5144    0.3943 C   0  0  0  0  0  0  0  0  0  0  0  0
   -0.4598    0.0702   -0.4690 C   0  0  0  0  0  0  0  0  0  0  0  0
    0.0840   -1.2470   -0.1181 N   0  0  0  0  0  0  0  0  0  0  0  0
    0.6985   -1.3155    1.2155 C   0  0  0  0  0  0  0  0  0  0  0  0
    2.0338   -0.5747    1.3297 C   0  0  0  0  0  0  0  0  0  0  0  0
    3.0463   -1.0371    0.2640 C   0  0  0  0  0  0  0  0  0  0  0  0
    3.3914   -2.4065    0.5380 O   0  0  0  0  0  0  0  0  0  0  0  0
    4.3451   -0.2261    0.3667 C   0  0  0  0  0  0  0  0  0  0  0  0
    4.8171    0.6083   -0.6600 C   0  0  0  0  0  0  0  0  0  0  0  0
    6.0112    1.3253   -0.5161 C   0  0  0  0  0  0  0  0  0  0  0  0
    6.7536    1.2165    0.6555 C   0  0  0  0  0  0  0  0  0  0  0  0
    8.2200    2.0985    0.8262 Cl  0  0  0  0  0  0  0  0  0  0  0  0
    6.3145    0.3944    1.6861 C   0  0  0  0  0  0  0  0  0  0  0  0
    5.1223   -0.3203    1.5407 C   0  0  0  0  0  0  0  0  0  0  0  0
    2.3758   -1.0160   -1.1238 C   0  0  0  0  0  0  0  0  0  0  0  0
    1.0315   -1.7506   -1.1230 C   0  0  0  0  0  0  0  0  0  0  0  0
   -5.1268    0.5983    0.3540 C   0  0  0  0  0  0  0  0  0  0  0  0
   -5.0205    0.9062   -1.0096 C   0  0  0  0  0  0  0  0  0  0  0  0
   -6.1245    1.4160   -1.7002 C   0  0  0  0  0  0  0  0  0  0  0  0
   -7.3249    1.6210   -1.0291 C   0  0  0  0  0  0  0  0  0  0  0  0
   -8.3775    2.1105   -1.6964 F   0  0  0  0  0  0  0  0  0  0  0  0
   -7.4453    1.3298    0.3235 C   0  0  0  0  0  0  0  0  0  0  0  0
   -6.3452    0.8207    1.0167 C   0  0  0  0  0  0  0  0  0  0  0  0
   -3.0392   -0.8732   -0.5594 H   0  0  0  0  0  0  0  0  0  0  0  0
   -2.4658   -1.4078    0.9997 H   0  0  0  0  0  0  0  0  0  0  0  0
   -2.0313    1.4590   -0.0134 H   0  0  0  0  0  0  0  0  0  0  0  0
   -1.3178    0.7486    1.4132 H   0  0  0  0  0  0  0  0  0  0  0  0
    0.3086    0.8509   -0.4345 H   0  0  0  0  0  0  0  0  0  0  0  0
   -0.8174    0.0378   -1.5067 H   0  0  0  0  0  0  0  0  0  0  0  0
    0.8527   -2.3732    1.4680 H   0  0  0  0  0  0  0  0  0  0  0  0
    0.0097   -0.9479    1.9838 H   0  0  0  0  0  0  0  0  0  0  0  0
    1.8677    0.5072    1.2514 H   0  0  0  0  0  0  0  0  0  0  0  0
    2.4237   -0.7608    2.3384 H   0  0  0  0  0  0  0  0  0  0  0  0
    4.2692   -2.5702    0.1508 H   0  0  0  0  0  0  0  0  0  0  0  0
    4.2751    0.7245   -1.5945 H   0  0  0  0  0  0  0  0  0  0  0  0
    6.3542    1.9662   -1.3245 H   0  0  0  0  0  0  0  0  0  0  0  0
    6.8905    0.3018    2.6030 H   0  0  0  0  0  0  0  0  0  0  0  0
    4.7997   -0.9657    2.3576 H   0  0  0  0  0  0  0  0  0  0  0  0
    2.2086    0.0135   -1.4616 H   0  0  0  0  0  0  0  0  0  0  0  0
    3.0271   -1.4982   -1.8643 H   0  0  0  0  0  0  0  0  0  0  0  0
    1.1983   -2.8207   -0.9441 H   0  0  0  0  0  0  0  0  0  0  0  0
    0.5833   -1.6954   -2.1229 H   0  0  0  0  0  0  0  0  0  0  0  0
   -4.0915    0.7733   -1.5554 H   0  0  0  0  0  0  0  0  0  0  0  0
   -6.0551    1.6586   -2.7564 H   0  0  0  0  0  0  0  0  0  0  0  0
   -8.3894    1.5010    0.8311 H   0  0  0  0  0  0  0  0  0  0  0  0
   -6.4412    0.5960    2.0781 H   0  0  0  0  0  0  0  0  0  0  0  0
  1  2  2  0
  2  3  1  0
  3  4  1  0
  4  5  1  0
  5  6  1  0
  6  7  1  0
  7  8  1  0
  8  9  1  0
  9 10  1  0
  9 11  1  0
 11 12  2  0
 12 13  1  0
 13 14  2  0
 14 15  1  0
 14 16  1  0
 16 17  2  0
  9 18  1  0
 18 19  1  0
  2 20  1  0
 20 21  2  0
 21 22  1  0
 22 23  2  0
 23 24  1  0
 23 25  1  0
 25 26  2  0
 19  6  1  0
 26 20  1  0
 17 11  1  0
  3 27  1  0
  3 28  1  0
  4 29  1  0
  4 30  1  0
  5 31  1  0
  5 32  1  0
  7 33  1  0
  7 34  1  0
  8 35  1  0
  8 36  1  0
 10 37  1  0
 12 38  1  0
 13 39  1  0
 16 40  1  0
 17 41  1  0
 18 42  1  0
 18 43  1  0
 19 44  1  0
 19 45  1  0
 21 46  1  0
 22 47  1  0
 25 48  1  0
 26 49  1  0
M  END
$$$$
