
     RDKit          3D

 19 19  0  0  0  0  0  0  0  0999 V2000
   -3.9952   -1.1162   -0.1974 O   0  0  0  0  0  0  0  0  0  0  0  0
   -3.4631   -0.0809    0.1746 C   0  0  0  0  0  0  0  0  0  0  0  0
   -2.1176    0.1602    0.1885 N   0  0  0  0  0  0  0  0  0  0  0  0
   -1.1761   -0.8379   -0.2566 C   0  0  0  0  0  0  0  0  0  0  0  0
    0.2351   -0.3296   -0.1425 C   0  0  0  0  0  0  0  0  0  0  0  0
    0.9605   -0.5054    1.0444 C   0  0  0  0  0  0  0  0  0  0  0  0
    2.2589   -0.0066    1.1603 C   0  0  0  0  0  0  0  0  0  0  0  0
    2.8410    0.6787    0.0954 C   0  0  0  0  0  0  0  0  0  0  0  0
    2.1252    0.8688   -1.0852 C   0  0  0  0  0  0  0  0  0  0  0  0
    0.8267    0.3708   -1.2033 C   0  0  0  0  0  0  0  0  0  0  0  0
   -4.0404    0.7823    0.5454 H   0  0  0  0  0  0  0  0  0  0  0  0
   -1.7704    1.0522    0.5157 H   0  0  0  0  0  0  0  0  0  0  0  0
   -1.3146   -1.7448    0.3442 H   0  0  0  0  0  0  0  0  0  0  0  0
   -1.4120   -1.1065   -1.2932 H   0  0  0  0  0  0  0  0  0  0  0  0
    0.5165   -1.0343    1.8853 H   0  0  0  0  0  0  0  0  0  0  0  0
    2.8166   -0.1526    2.0819 H   0  0  0  0  0  0  0  0  0  0  0  0
    3.8527    1.0656    0.1860 H   0  0  0  0  0  0  0  0  0  0  0  0
    2.5786    1.4054   -1.9147 H   0  0  0  0  0  0  0  0  0  0  0  0
    0.2774    0.5306   -2.1289 H   0  0  0  0  0  0  0  0  0  0  0  0
  1  2  2  0
  2  3  1  0
  3  4  1  0
  4  5  1  0
  5  6  2  0
  6  7  1  0
  7  8  2  0
  8  9  1  0
  9 10  2  0
 10  5  1  0
  2 11  1  0
  3 12  1  0
  4 13  1  0
  4 14  1  0
  6 15  1  0
  7 16  1  0
  8 17  1  0
  9 18  1  0
 10 19  1  0
M  END
$$$$
