
     RDKit          3D

 49 51  0  0  0  0  0  0  0  0999 V2000
   -4.9039    1.5349   -1.8586 C   0  0  0  0  0  0  0  0  0  0  0  0
   -4.0020    0.4876   -1.2105 C   0  0  0  0  0  0  0  0  0  0  0  0
   -4.8278   -0.6858   -0.6557 C   0  0  0  0  0  0  0  0  0  0  0  0
   -4.1765   -1.3602    0.5632 C   0  0  0  0  0  0  0  0  0  0  0  0
   -4.6350   -2.8104    0.6961 C   0  0  0  0  0  0  0  0  0  0  0  0
   -2.6489   -1.2629    0.5119 C   0  0  0  0  0  0  0  0  0  0  0  0
   -2.1891    0.1251    0.4340 N   0  0  0  0  0  0  0  0  0  0  0  0
   -0.9282    0.5591    0.8575 C   0  0  0  0  0  0  0  0  0  0  0  0
   -0.6190    1.7532    0.8271 O   0  0  0  0  0  0  0  0  0  0  0  0
    0.0311   -0.5258    1.3714 C   0  0  0  0  0  0  0  0  0  0  0  0
    1.3732   -0.0001    1.5807 N   0  0  0  0  0  0  0  0  0  0  0  0
    2.2277   -0.0496    0.5015 N   0  0  0  0  0  0  0  0  0  0  0  0
    3.4779    0.2577    0.6790 C   0  0  0  0  0  0  0  0  0  0  0  0
    4.4109    0.2145   -0.4845 C   0  0  0  0  0  0  0  0  0  0  0  0
    5.7795   -0.0269   -0.3174 C   0  0  0  0  0  0  0  0  0  0  0  0
    6.6241   -0.0628   -1.4301 C   0  0  0  0  0  0  0  0  0  0  0  0
    6.1065    0.1373   -2.7094 C   0  0  0  0  0  0  0  0  0  0  0  0
    4.7429    0.3691   -2.8819 C   0  0  0  0  0  0  0  0  0  0  0  0
    3.8954    0.4047   -1.7732 C   0  0  0  0  0  0  0  0  0  0  0  0
    4.0252    0.6137    2.0396 C   0  0  0  0  0  0  0  0  0  0  0  0
    2.9705    1.3774    2.8030 C   0  0  0  0  0  0  0  0  0  0  0  0
    1.6684    0.6257    2.7866 C   0  0  0  0  0  0  0  0  0  0  0  0
    0.9202    0.6267    3.7641 O   0  0  0  0  0  0  0  0  0  0  0  0
   -3.1125    1.1101   -0.1309 C   0  0  0  0  0  0  0  0  0  0  0  0
   -5.5735    1.9928   -1.1227 H   0  0  0  0  0  0  0  0  0  0  0  0
   -4.3076    2.3322   -2.3145 H   0  0  0  0  0  0  0  0  0  0  0  0
   -5.5189    1.0844   -2.6447 H   0  0  0  0  0  0  0  0  0  0  0  0
   -3.3439    0.0873   -1.9948 H   0  0  0  0  0  0  0  0  0  0  0  0
   -4.9772   -1.4122   -1.4652 H   0  0  0  0  0  0  0  0  0  0  0  0
   -5.8323   -0.3509   -0.3657 H   0  0  0  0  0  0  0  0  0  0  0  0
   -4.5157   -0.8232    1.4602 H   0  0  0  0  0  0  0  0  0  0  0  0
   -4.3093   -3.4105   -0.1602 H   0  0  0  0  0  0  0  0  0  0  0  0
   -4.2242   -3.2658    1.6033 H   0  0  0  0  0  0  0  0  0  0  0  0
   -5.7269   -2.8681    0.7565 H   0  0  0  0  0  0  0  0  0  0  0  0
   -2.2196   -1.7428    1.3964 H   0  0  0  0  0  0  0  0  0  0  0  0
   -2.2552   -1.7829   -0.3699 H   0  0  0  0  0  0  0  0  0  0  0  0
   -0.3549   -0.9134    2.3196 H   0  0  0  0  0  0  0  0  0  0  0  0
    0.0934   -1.3418    0.6437 H   0  0  0  0  0  0  0  0  0  0  0  0
    6.2070   -0.2070    0.6645 H   0  0  0  0  0  0  0  0  0  0  0  0
    7.6869   -0.2522   -1.2999 H   0  0  0  0  0  0  0  0  0  0  0  0
    6.7656    0.1084   -3.5737 H   0  0  0  0  0  0  0  0  0  0  0  0
    4.3374    0.5222   -3.8790 H   0  0  0  0  0  0  0  0  0  0  0  0
    2.8329    0.5889   -1.9198 H   0  0  0  0  0  0  0  0  0  0  0  0
    4.9279    1.2262    1.9601 H   0  0  0  0  0  0  0  0  0  0  0  0
    4.2785   -0.3200    2.5553 H   0  0  0  0  0  0  0  0  0  0  0  0
    2.7952    2.3634    2.3577 H   0  0  0  0  0  0  0  0  0  0  0  0
    3.2907    1.5193    3.8405 H   0  0  0  0  0  0  0  0  0  0  0  0
   -3.7168    1.5011    0.6970 H   0  0  0  0  0  0  0  0  0  0  0  0
   -2.5500    1.9523   -0.5492 H   0  0  0  0  0  0  0  0  0  0  0  0
  1  2  1  0
  2  3  1  0
  3  4  1  0
  4  5  1  0
  4  6  1  0
  6  7  1  0
  7  8  1  0
  8  9  2  0
  8 10  1  0
 10 11  1  0
 11 12  1  0
 12 13  2  0
 13 14  1  0
 14 15  2  0
 15 16  1  0
 16 17  2  0
 17 18  1  0
 18 19  2  0
 13 20  1  0
 20 21  1  0
 21 22  1  0
 22 23  2  0
  7 24  1  0
 24  2  1  0
 22 11  1  0
 19 14  1  0
  1 25  1  0
  1 26  1  0
  1 27  1  0
  2 28  1  0
  3 29  1  0
  3 30  1  0
  4 31  1  0
  5 32  1  0
  5 33  1  0
  5 34  1  0
  6 35  1  0
  6 36  1  0
 10 37  1  0
 10 38  1  0
 15 39  1  0
 16 40  1  0
 17 41  1  0
 18 42  1  0
 19 43  1  0
 20 44  1  0
 20 45  1  0
 21 46  1  0
 21 47  1  0
 24 48  1  0
 24 49  1  0
M  END
$$$$
