
     RDKit          3D

 28 29  0  0  0  0  0  0  0  0999 V2000
    5.2009    0.3675    1.2563 F   0  0  0  0  0  0  0  0  0  0  0  0
    4.6577   -0.1251    0.1103 C   0  0  0  0  0  0  0  0  0  0  0  0
    5.1599    0.6237   -0.9088 F   0  0  0  0  0  0  0  0  0  0  0  0
    5.2133   -1.3625   -0.0472 F   0  0  0  0  0  0  0  0  0  0  0  0
    3.1675   -0.1608    0.1331 C   0  0  0  0  0  0  0  0  0  0  0  0
    2.4543   -1.3545    0.0115 C   0  0  0  0  0  0  0  0  0  0  0  0
    1.0593   -1.3354    0.0398 C   0  0  0  0  0  0  0  0  0  0  0  0
    0.3784   -0.1266    0.1816 C   0  0  0  0  0  0  0  0  0  0  0  0
   -1.0207   -0.1023    0.2302 N   0  0  0  0  0  0  0  0  0  0  0  0
   -1.6040    1.2235    0.5067 C   0  0  0  0  0  0  0  0  0  0  0  0
   -3.1152    1.0963    0.8301 C   0  0  0  0  0  0  0  0  0  0  0  0
   -3.8515    0.0151    0.1346 N   0  0  0  0  0  0  0  0  0  0  0  0
   -3.1370   -0.3447   -1.1012 C   0  0  0  0  0  0  0  0  0  0  0  0
   -1.6995   -0.8601   -0.8429 C   0  0  0  0  0  0  0  0  0  0  0  0
    1.0670    1.0248    0.3119 N   0  0  0  0  0  0  0  0  0  0  0  0
    2.4196    0.9889    0.2826 C   0  0  0  0  0  0  0  0  0  0  0  0
    3.1163    2.5528    0.4520 Cl  0  0  0  0  0  0  0  0  0  0  0  0
    2.9732   -2.3055   -0.0963 H   0  0  0  0  0  0  0  0  0  0  0  0
    0.5150   -2.2722   -0.0248 H   0  0  0  0  0  0  0  0  0  0  0  0
   -1.1197    1.7027    1.3670 H   0  0  0  0  0  0  0  0  0  0  0  0
   -1.4720    1.8761   -0.3668 H   0  0  0  0  0  0  0  0  0  0  0  0
   -3.2346    0.9333    1.9084 H   0  0  0  0  0  0  0  0  0  0  0  0
   -3.6033    2.0534    0.6125 H   0  0  0  0  0  0  0  0  0  0  0  0
   -3.8125   -0.8012    0.7483 H   0  0  0  0  0  0  0  0  0  0  0  0
   -3.1083    0.5270   -1.7674 H   0  0  0  0  0  0  0  0  0  0  0  0
   -3.7042   -1.1167   -1.6331 H   0  0  0  0  0  0  0  0  0  0  0  0
   -1.7574   -1.9130   -0.5413 H   0  0  0  0  0  0  0  0  0  0  0  0
   -1.1424   -0.8045   -1.7870 H   0  0  0  0  0  0  0  0  0  0  0  0
  1  2  1  0
  2  3  1  0
  2  4  1  0
  2  5  1  0
  5  6  2  0
  6  7  1  0
  7  8  2  0
  8  9  1  0
  9 10  1  0
 10 11  1  0
 11 12  1  0
 12 13  1  0
 13 14  1  0
  8 15  1  0
 15 16  2  0
 16 17  1  0
 16  5  1  0
 14  9  1  0
  6 18  1  0
  7 19  1  0
 10 20  1  0
 10 21  1  0
 11 22  1  0
 11 23  1  0
 12 24  1  0
 13 25  1  0
 13 26  1  0
 14 27  1  0
 14 28  1  0
M  END
$$$$
