
     RDKit          3D

 53 57  0  0  0  0  0  0  0  0999 V2000
    2.8864   -2.3823    2.4709 O   0  0  0  0  0  0  0  0  0  0  0  0
    2.0852   -1.4536    2.5226 C   0  0  0  0  0  0  0  0  0  0  0  0
    0.5849   -1.6648    2.3302 C   0  0  0  0  0  0  0  0  0  0  0  0
    0.2373   -1.2934    0.9518 N   0  0  0  0  0  0  0  0  0  0  0  0
   -0.1078    0.0351    0.7228 C   0  0  0  0  0  0  0  0  0  0  0  0
   -0.0866    0.8561    1.6467 O   0  0  0  0  0  0  0  0  0  0  0  0
   -0.4352    0.3911   -0.5744 N   0  0  0  0  0  0  0  0  0  0  0  0
   -0.8993    1.7534   -0.8079 C   0  0  0  0  0  0  0  0  0  0  0  0
   -2.4018    1.8707   -0.6354 C   0  0  0  0  0  0  0  0  0  0  0  0
   -3.2641    1.6353   -1.7323 C   0  0  0  0  0  0  0  0  0  0  0  0
   -4.6530    1.7199   -1.5884 C   0  0  0  0  0  0  0  0  0  0  0  0
   -5.1506    2.0262   -0.3416 C   0  0  0  0  0  0  0  0  0  0  0  0
   -4.3227    2.2470    0.7332 C   0  0  0  0  0  0  0  0  0  0  0  0
   -2.9502    2.1778    0.6212 C   0  0  0  0  0  0  0  0  0  0  0  0
   -5.0121    2.5239    1.8729 O   0  0  0  0  0  0  0  0  0  0  0  0
   -6.3696    2.4288    1.3958 C   0  0  0  0  0  0  0  0  0  0  0  0
   -6.4658    2.1410   -0.0153 O   0  0  0  0  0  0  0  0  0  0  0  0
   -0.2905   -0.4346   -1.6874 C   0  0  0  0  0  0  0  0  0  0  0  0
   -0.5351   -0.0633   -2.8341 O   0  0  0  0  0  0  0  0  0  0  0  0
    0.1887   -1.8127   -1.4327 C   0  0  0  0  0  0  0  0  0  0  0  0
    0.3538   -2.6110   -2.5252 N   0  0  0  0  0  0  0  0  0  0  0  0
    0.7885   -3.8630   -2.3033 C   0  0  0  0  0  0  0  0  0  0  0  0
    1.0644   -4.3550   -1.0429 C   0  0  0  0  0  0  0  0  0  0  0  0
    0.8834   -3.5155    0.0574 C   0  0  0  0  0  0  0  0  0  0  0  0
    0.4311   -2.2050   -0.1212 C   0  0  0  0  0  0  0  0  0  0  0  0
    2.4481   -0.1237    2.6352 N   0  0  0  0  0  0  0  0  0  0  0  0
    3.7470    0.3011    2.1607 C   0  0  0  0  0  0  0  0  0  0  0  0
    3.6905    0.4843    0.6595 C   0  0  0  0  0  0  0  0  0  0  0  0
    4.0238   -0.5791   -0.1935 C   0  0  0  0  0  0  0  0  0  0  0  0
    3.8688   -0.4576   -1.5745 C   0  0  0  0  0  0  0  0  0  0  0  0
    3.3744    0.7248   -2.1168 C   0  0  0  0  0  0  0  0  0  0  0  0
    3.0430    1.7917   -1.2828 C   0  0  0  0  0  0  0  0  0  0  0  0
    3.1899    1.6697    0.1015 C   0  0  0  0  0  0  0  0  0  0  0  0
    0.0434   -1.0380    3.0480 H   0  0  0  0  0  0  0  0  0  0  0  0
    0.3019   -2.6950    2.5556 H   0  0  0  0  0  0  0  0  0  0  0  0
   -0.6215    2.0905   -1.8158 H   0  0  0  0  0  0  0  0  0  0  0  0
   -0.3988    2.4474   -0.1211 H   0  0  0  0  0  0  0  0  0  0  0  0
   -2.8482    1.3805   -2.7081 H   0  0  0  0  0  0  0  0  0  0  0  0
   -5.3160    1.5413   -2.4273 H   0  0  0  0  0  0  0  0  0  0  0  0
   -2.3218    2.3520    1.4892 H   0  0  0  0  0  0  0  0  0  0  0  0
   -6.8774    1.6313    1.9506 H   0  0  0  0  0  0  0  0  0  0  0  0
   -6.8803    3.3778    1.5981 H   0  0  0  0  0  0  0  0  0  0  0  0
    0.9148   -4.4785   -3.1892 H   0  0  0  0  0  0  0  0  0  0  0  0
    1.4187   -5.3711   -0.9121 H   0  0  0  0  0  0  0  0  0  0  0  0
    1.1249   -3.9193    1.0354 H   0  0  0  0  0  0  0  0  0  0  0  0
    1.6959    0.5517    2.4998 H   0  0  0  0  0  0  0  0  0  0  0  0
    3.9934    1.2464    2.6530 H   0  0  0  0  0  0  0  0  0  0  0  0
    4.5140   -0.4310    2.4385 H   0  0  0  0  0  0  0  0  0  0  0  0
    4.3891   -1.5174    0.2204 H   0  0  0  0  0  0  0  0  0  0  0  0
    4.1181   -1.2940   -2.2252 H   0  0  0  0  0  0  0  0  0  0  0  0
    3.2488    0.8129   -3.1938 H   0  0  0  0  0  0  0  0  0  0  0  0
    2.6527    2.7099   -1.7104 H   0  0  0  0  0  0  0  0  0  0  0  0
    2.9035    2.5013    0.7418 H   0  0  0  0  0  0  0  0  0  0  0  0
  1  2  2  0
  2  3  1  0
  3  4  1  0
  4  5  1  0
  5  6  2  0
  5  7  1  0
  7  8  1  0
  8  9  1  0
  9 10  2  0
 10 11  1  0
 11 12  2  0
 12 13  1  0
 13 14  2  0
 13 15  1  0
 15 16  1  0
 16 17  1  0
  7 18  1  0
 18 19  2  0
 18 20  1  0
 20 21  2  0
 21 22  1  0
 22 23  2  0
 23 24  1  0
 24 25  2  0
  2 26  1  0
 26 27  1  0
 27 28  1  0
 28 29  2  0
 29 30  1  0
 30 31  2  0
 31 32  1  0
 32 33  2  0
 25  4  1  0
 33 28  1  0
 14  9  1  0
 25 20  1  0
 17 12  1  0
  3 34  1  0
  3 35  1  0
  8 36  1  0
  8 37  1  0
 10 38  1  0
 11 39  1  0
 14 40  1  0
 16 41  1  0
 16 42  1  0
 22 43  1  0
 23 44  1  0
 24 45  1  0
 26 46  1  0
 27 47  1  0
 27 48  1  0
 29 49  1  0
 30 50  1  0
 31 51  1  0
 32 52  1  0
 33 53  1  0
M  END
$$$$
