
     RDKit          3D

 49 52  0  0  0  0  0  0  0  0999 V2000
    0.5621   -2.1570    0.4091 C   0  0  0  0  0  0  0  0  0  0  0  0
   -0.0120   -1.2969   -0.5815 O   0  0  0  0  0  0  0  0  0  0  0  0
   -0.2187   -0.0242   -0.0828 C   0  0  0  0  0  0  0  0  0  0  0  0
    0.9158    0.7720    0.2803 C   0  0  0  0  0  0  0  0  0  0  0  0
    2.2308    0.3115    0.0248 N   0  0  0  0  0  0  0  0  0  0  0  0
    2.5237    0.2094   -1.4309 C   0  0  0  0  0  0  0  0  0  0  0  0
    4.0479    0.1363   -1.7067 C   0  0  0  0  0  0  0  0  0  0  0  0
    4.7771   -0.6495   -0.6947 N   0  0  0  0  0  0  0  0  0  0  0  0
    4.6276   -0.0034    0.6374 C   0  0  0  0  0  0  0  0  0  0  0  0
    4.6854   -1.0893    1.7162 C   0  0  0  0  0  0  0  0  0  0  0  0
    3.3483    0.8771    0.8077 C   0  0  0  0  0  0  0  0  0  0  0  0
    0.6508    2.0241    0.8635 C   0  0  0  0  0  0  0  0  0  0  0  0
    1.6485    2.8367    1.2450 F   0  0  0  0  0  0  0  0  0  0  0  0
   -0.6395    2.5012    1.0300 C   0  0  0  0  0  0  0  0  0  0  0  0
   -1.7240    1.7390    0.5915 C   0  0  0  0  0  0  0  0  0  0  0  0
   -3.0798    2.3276    0.7388 C   0  0  0  0  0  0  0  0  0  0  0  0
   -3.2398    3.3327    1.4226 O   0  0  0  0  0  0  0  0  0  0  0  0
   -4.1921    1.6488    0.0497 C   0  0  0  0  0  0  0  0  0  0  0  0
   -5.5428    2.1955   -0.1153 C   0  0  0  0  0  0  0  0  0  0  0  0
   -6.5615    1.5419   -0.2705 O   0  0  0  0  0  0  0  0  0  0  0  0
   -5.5721    3.5355   -0.1568 O   0  0  0  0  0  0  0  0  0  0  0  0
   -3.9372    0.4361   -0.4583 C   0  0  0  0  0  0  0  0  0  0  0  0
   -2.7296   -0.2443   -0.4131 N   0  0  0  0  0  0  0  0  0  0  0  0
   -2.6840   -1.5689   -1.0714 C   0  0  0  0  0  0  0  0  0  0  0  0
   -3.8358   -2.5535   -1.0215 C   0  0  0  0  0  0  0  0  0  0  0  0
   -2.5818   -2.8433   -0.2678 C   0  0  0  0  0  0  0  0  0  0  0  0
   -1.5530    0.4576    0.0195 C   0  0  0  0  0  0  0  0  0  0  0  0
    0.1985   -1.9350    1.4192 H   0  0  0  0  0  0  0  0  0  0  0  0
    0.2750   -3.1843    0.1672 H   0  0  0  0  0  0  0  0  0  0  0  0
    1.6536   -2.1207    0.3757 H   0  0  0  0  0  0  0  0  0  0  0  0
    2.1123    1.0676   -1.9777 H   0  0  0  0  0  0  0  0  0  0  0  0
    2.0648   -0.7012   -1.8309 H   0  0  0  0  0  0  0  0  0  0  0  0
    4.4710    1.1478   -1.7528 H   0  0  0  0  0  0  0  0  0  0  0  0
    4.2123   -0.3077   -2.6949 H   0  0  0  0  0  0  0  0  0  0  0  0
    4.3112   -1.5576   -0.6444 H   0  0  0  0  0  0  0  0  0  0  0  0
    5.4968    0.6491    0.7888 H   0  0  0  0  0  0  0  0  0  0  0  0
    4.6811   -0.6414    2.7158 H   0  0  0  0  0  0  0  0  0  0  0  0
    3.8307   -1.7710    1.6490 H   0  0  0  0  0  0  0  0  0  0  0  0
    5.6021   -1.6830    1.6270 H   0  0  0  0  0  0  0  0  0  0  0  0
    3.5764    1.8879    0.4448 H   0  0  0  0  0  0  0  0  0  0  0  0
    3.0880    0.9434    1.8710 H   0  0  0  0  0  0  0  0  0  0  0  0
   -0.7851    3.4834    1.4727 H   0  0  0  0  0  0  0  0  0  0  0  0
   -6.5186    3.7657   -0.2504 H   0  0  0  0  0  0  0  0  0  0  0  0
   -4.7280   -0.1025   -0.9758 H   0  0  0  0  0  0  0  0  0  0  0  0
   -2.1498   -1.5284   -2.0190 H   0  0  0  0  0  0  0  0  0  0  0  0
   -4.0385   -3.1330   -1.9149 H   0  0  0  0  0  0  0  0  0  0  0  0
   -4.7169   -2.3348   -0.4305 H   0  0  0  0  0  0  0  0  0  0  0  0
   -2.6082   -2.7656    0.8125 H   0  0  0  0  0  0  0  0  0  0  0  0
   -1.9432   -3.6317   -0.6465 H   0  0  0  0  0  0  0  0  0  0  0  0
  1  2  1  0
  2  3  1  0
  3  4  2  0
  4  5  1  0
  5  6  1  0
  6  7  1  0
  7  8  1  0
  8  9  1  0
  9 10  1  0
  9 11  1  0
  4 12  1  0
 12 13  1  0
 12 14  2  0
 14 15  1  0
 15 16  1  0
 16 17  2  0
 16 18  1  0
 18 19  1  0
 19 20  2  0
 19 21  1  0
 18 22  2  0
 22 23  1  0
 23 24  1  0
 24 25  1  0
 25 26  1  0
 23 27  1  0
 27  3  1  0
 11  5  1  0
 27 15  2  0
 26 24  1  0
  1 28  1  0
  1 29  1  0
  1 30  1  0
  6 31  1  0
  6 32  1  0
  7 33  1  0
  7 34  1  0
  8 35  1  0
  9 36  1  0
 10 37  1  0
 10 38  1  0
 10 39  1  0
 11 40  1  0
 11 41  1  0
 14 42  1  0
 21 43  1  0
 22 44  1  0
 24 45  1  0
 25 46  1  0
 25 47  1  0
 26 48  1  0
 26 49  1  0
M  END
$$$$
