
     RDKit          3D

 50 53  0  0  0  0  0  0  0  0999 V2000
    2.8008    2.6361   -1.6016 O   0  0  0  0  0  0  0  0  0  0  0  0
    3.2382    1.6041   -1.0881 C   0  0  0  0  0  0  0  0  0  0  0  0
    2.4269    0.3859   -1.0639 C   0  0  0  0  0  0  0  0  0  0  0  0
    1.1915    0.2238   -1.6637 C   0  0  0  0  0  0  0  0  0  0  0  0
    0.8185   -1.0428   -1.3461 N   0  0  0  0  0  0  0  0  0  0  0  0
   -0.3567   -1.7795   -1.7663 C   0  0  0  0  0  0  0  0  0  0  0  0
   -1.2027   -2.2810   -0.5908 C   0  0  2  0  0  0  0  0  0  0  0  0
   -2.0477   -3.4946   -0.9728 C   0  0  0  0  0  0  0  0  0  0  0  0
   -2.8928   -3.6713    0.2629 C   0  0  0  0  0  0  0  0  0  0  0  0
   -4.0032   -4.3868    0.0020 F   0  0  0  0  0  0  0  0  0  0  0  0
   -2.1899   -4.3362    1.2100 F   0  0  0  0  0  0  0  0  0  0  0  0
   -3.2111   -2.2554    0.7334 C   0  0  0  0  0  0  0  0  0  0  0  0
   -2.2051   -1.3342    0.0526 N   0  0  0  0  0  0  0  0  0  0  0  0
   -2.9315   -0.1265   -0.9104 S   0  0  0  0  0  6  0  0  0  0  0  0
   -3.8238   -0.8146   -1.8183 O   0  0  0  0  0  0  0  0  0  0  0  0
   -1.9001    0.7559   -1.4008 O   0  0  0  0  0  0  0  0  0  0  0  0
   -3.8913    0.7941    0.2643 C   0  0  0  0  0  0  0  0  0  0  0  0
   -5.2830    0.8625    0.1364 C   0  0  0  0  0  0  0  0  0  0  0  0
   -6.0181    1.5896    1.0734 C   0  0  0  0  0  0  0  0  0  0  0  0
   -5.3584    2.2379    2.1148 C   0  0  0  0  0  0  0  0  0  0  0  0
   -6.0697    2.9329    3.0114 F   0  0  0  0  0  0  0  0  0  0  0  0
   -3.9730    2.1773    2.2393 C   0  0  0  0  0  0  0  0  0  0  0  0
   -3.2293    1.4528    1.3080 C   0  0  0  0  0  0  0  0  0  0  0  0
    1.7741   -1.6653   -0.6324 N   0  0  0  0  0  0  0  0  0  0  0  0
    2.7497   -0.7915   -0.4293 N   0  0  0  0  0  0  0  0  0  0  0  0
    4.5046    1.5832   -0.5218 N   0  0  0  0  0  0  0  0  0  0  0  0
    5.2244    0.4456    0.0335 C   0  0  0  0  0  0  0  0  0  0  0  0
    6.6456    0.9563    0.2397 C   0  0  0  0  0  0  0  0  0  0  0  0
    6.4450    2.4454    0.4833 C   0  0  0  0  0  0  0  0  0  0  0  0
    5.3091    2.7897   -0.4675 C   0  0  0  0  0  0  0  0  0  0  0  0
    0.5831    0.8962   -2.2521 H   0  0  0  0  0  0  0  0  0  0  0  0
   -0.9111   -1.1839   -2.4945 H   0  0  0  0  0  0  0  0  0  0  0  0
    0.0396   -2.6402   -2.3221 H   0  0  0  0  0  0  0  0  0  0  0  0
   -0.5265   -2.5791    0.2242 H   0  0  0  0  0  0  0  0  0  0  0  0
   -1.4287   -4.3745   -1.1730 H   0  0  0  0  0  0  0  0  0  0  0  0
   -2.6715   -3.3004   -1.8520 H   0  0  0  0  0  0  0  0  0  0  0  0
   -3.0849   -2.1569    1.8162 H   0  0  0  0  0  0  0  0  0  0  0  0
   -4.2429   -1.9987    0.4795 H   0  0  0  0  0  0  0  0  0  0  0  0
   -5.7969    0.3629   -0.6820 H   0  0  0  0  0  0  0  0  0  0  0  0
   -7.0992    1.6607    0.9982 H   0  0  0  0  0  0  0  0  0  0  0  0
   -3.4839    2.6986    3.0568 H   0  0  0  0  0  0  0  0  0  0  0  0
   -2.1451    1.4078    1.3933 H   0  0  0  0  0  0  0  0  0  0  0  0
    5.1998   -0.4090   -0.6479 H   0  0  0  0  0  0  0  0  0  0  0  0
    4.7589    0.1789    0.9881 H   0  0  0  0  0  0  0  0  0  0  0  0
    7.2332    0.8075   -0.6744 H   0  0  0  0  0  0  0  0  0  0  0  0
    7.1593    0.4516    1.0624 H   0  0  0  0  0  0  0  0  0  0  0  0
    7.3458    3.0361    0.2966 H   0  0  0  0  0  0  0  0  0  0  0  0
    6.1314    2.6120    1.5209 H   0  0  0  0  0  0  0  0  0  0  0  0
    5.6813    2.9918   -1.4782 H   0  0  0  0  0  0  0  0  0  0  0  0
    4.7174    3.6453   -0.1284 H   0  0  0  0  0  0  0  0  0  0  0  0
  1  2  2  0
  2  3  1  0
  3  4  2  0
  4  5  1  0
  5  6  1  0
  6  7  1  0
  7  8  1  0
  8  9  1  0
  9 10  1  0
  9 11  1  0
  9 12  1  0
 12 13  1  0
 13 14  1  0
 14 15  2  0
 14 16  2  0
 14 17  1  0
 17 18  2  0
 18 19  1  0
 19 20  2  0
 20 21  1  0
 20 22  1  0
 22 23  2  0
  5 24  1  0
 24 25  2  0
  2 26  1  0
 26 27  1  0
 27 28  1  0
 28 29  1  0
 29 30  1  0
 25  3  1  0
 30 26  1  0
 13  7  1  0
 23 17  1  0
  4 31  1  0
  6 32  1  0
  6 33  1  0
  7 34  1  1
  8 35  1  0
  8 36  1  0
 12 37  1  0
 12 38  1  0
 18 39  1  0
 19 40  1  0
 22 41  1  0
 23 42  1  0
 27 43  1  0
 27 44  1  0
 28 45  1  0
 28 46  1  0
 29 47  1  0
 29 48  1  0
 30 49  1  0
 30 50  1  0
M  END
$$$$
