
     RDKit          3D

 64 68  0  0  0  0  0  0  0  0999 V2000
    7.6121   -4.4752    0.1179 C   0  0  0  0  0  0  0  0  0  0  0  0
    7.2277   -3.1599   -0.3279 N   0  0  0  0  0  0  0  0  0  0  0  0
    5.9161   -2.9056   -0.6814 C   0  0  0  0  0  0  0  0  0  0  0  0
    5.0459   -3.7680   -0.7103 O   0  0  0  0  0  0  0  0  0  0  0  0
    5.5882   -1.4870   -0.9937 C   0  0  0  0  0  0  0  0  0  0  0  0
    6.5302   -0.6292   -1.5687 C   0  0  0  0  0  0  0  0  0  0  0  0
    6.1815    0.6895   -1.8504 C   0  0  0  0  0  0  0  0  0  0  0  0
    4.8942    1.1537   -1.5582 C   0  0  0  0  0  0  0  0  0  0  0  0
    3.9201    0.3154   -0.9816 C   0  0  0  0  0  0  0  0  0  0  0  0
    2.5535    0.7916   -0.6654 C   0  0  0  0  0  0  0  0  0  0  0  0
    2.2534    2.1180   -0.3883 C   0  0  0  0  0  0  0  0  0  0  0  0
    0.9372    2.4522   -0.1037 C   0  0  0  0  0  0  0  0  0  0  0  0
   -0.0528    1.4489   -0.0968 C   0  0  0  0  0  0  0  0  0  0  0  0
   -1.4074    1.6504    0.1806 C   0  0  0  0  0  0  0  0  0  0  0  0
   -1.8815    2.9685    0.4202 N   0  0  0  0  0  0  0  0  0  0  0  0
   -2.3577    3.5592   -0.8601 C   0  0  0  0  0  0  0  0  0  0  0  0
   -3.8909    3.5467   -0.9496 C   0  0  0  0  0  0  0  0  0  0  0  0
   -4.5176    4.3079    0.0948 O   0  0  0  0  0  0  0  0  0  0  0  0
   -3.7704    4.2998    1.3228 C   0  0  0  0  0  0  0  0  0  0  0  0
   -2.9060    3.0307    1.5043 C   0  0  2  0  0  0  0  0  0  0  0  0
   -2.2027    3.0662    2.8609 C   0  0  0  0  0  0  0  0  0  0  0  0
   -2.2804    0.6352    0.1867 N   0  0  0  0  0  0  0  0  0  0  0  0
   -1.8323   -0.5958   -0.0812 C   0  0  0  0  0  0  0  0  0  0  0  0
   -2.7409   -1.6408   -0.0998 N   0  0  0  0  0  0  0  0  0  0  0  0
   -2.1840   -2.9941   -0.1921 C   0  0  0  0  0  0  0  0  0  0  0  0
   -3.3225   -4.0136   -0.3500 C   0  0  0  0  0  0  0  0  0  0  0  0
   -4.3217   -3.9690    0.6805 O   0  0  0  0  0  0  0  0  0  0  0  0
   -4.2762   -2.7764    1.4729 C   0  0  0  0  0  0  0  0  0  0  0  0
   -3.9855   -1.4865    0.6708 C   0  0  2  0  0  0  0  0  0  0  0  0
   -5.1307   -1.1532   -0.2861 C   0  0  0  0  0  0  0  0  0  0  0  0
   -0.5536   -0.8498   -0.3639 N   0  0  0  0  0  0  0  0  0  0  0  0
    0.3213    0.1423   -0.3688 C   0  0  0  0  0  0  0  0  0  0  0  0
    1.5912   -0.1653   -0.6458 N   0  0  0  0  0  0  0  0  0  0  0  0
    4.2947   -1.0185   -0.7203 C   0  0  0  0  0  0  0  0  0  0  0  0
    7.2594   -5.2271   -0.5925 H   0  0  0  0  0  0  0  0  0  0  0  0
    8.7006   -4.5136    0.1933 H   0  0  0  0  0  0  0  0  0  0  0  0
    7.1638   -4.6615    1.0971 H   0  0  0  0  0  0  0  0  0  0  0  0
    7.8115   -2.3802   -0.0584 H   0  0  0  0  0  0  0  0  0  0  0  0
    7.5229   -0.9830   -1.8325 H   0  0  0  0  0  0  0  0  0  0  0  0
    6.9057    1.3566   -2.3126 H   0  0  0  0  0  0  0  0  0  0  0  0
    4.6575    2.1834   -1.8166 H   0  0  0  0  0  0  0  0  0  0  0  0
    3.0165    2.8877   -0.3694 H   0  0  0  0  0  0  0  0  0  0  0  0
    0.6765    3.4821    0.1269 H   0  0  0  0  0  0  0  0  0  0  0  0
   -2.0088    4.5991   -0.8810 H   0  0  0  0  0  0  0  0  0  0  0  0
   -1.9257    3.0628   -1.7387 H   0  0  0  0  0  0  0  0  0  0  0  0
   -4.2142    3.9770   -1.9027 H   0  0  0  0  0  0  0  0  0  0  0  0
   -4.2800    2.5233   -0.9039 H   0  0  0  0  0  0  0  0  0  0  0  0
   -3.1464    5.2019    1.3356 H   0  0  0  0  0  0  0  0  0  0  0  0
   -4.4939    4.3940    2.1396 H   0  0  0  0  0  0  0  0  0  0  0  0
   -3.5871    2.1706    1.4688 H   0  0  0  0  0  0  0  0  0  0  0  0
   -1.6213    2.1531    3.0288 H   0  0  0  0  0  0  0  0  0  0  0  0
   -2.9305    3.1530    3.6744 H   0  0  0  0  0  0  0  0  0  0  0  0
   -1.5125    3.9149    2.9280 H   0  0  0  0  0  0  0  0  0  0  0  0
   -1.5176   -3.0905   -1.0577 H   0  0  0  0  0  0  0  0  0  0  0  0
   -1.6110   -3.2226    0.7159 H   0  0  0  0  0  0  0  0  0  0  0  0
   -2.9152   -5.0299   -0.3689 H   0  0  0  0  0  0  0  0  0  0  0  0
   -3.8361   -3.8565   -1.3051 H   0  0  0  0  0  0  0  0  0  0  0  0
   -3.5089   -2.9198    2.2436 H   0  0  0  0  0  0  0  0  0  0  0  0
   -5.2355   -2.6920    1.9949 H   0  0  0  0  0  0  0  0  0  0  0  0
   -3.9084   -0.6791    1.4109 H   0  0  0  0  0  0  0  0  0  0  0  0
   -5.2814   -1.9364   -1.0363 H   0  0  0  0  0  0  0  0  0  0  0  0
   -6.0691   -1.0277    0.2639 H   0  0  0  0  0  0  0  0  0  0  0  0
   -4.9301   -0.2200   -0.8237 H   0  0  0  0  0  0  0  0  0  0  0  0
    3.5667   -1.7079   -0.2897 H   0  0  0  0  0  0  0  0  0  0  0  0
  1  2  1  0
  2  3  1  0
  3  4  2  0
  3  5  1  0
  5  6  2  0
  6  7  1  0
  7  8  2  0
  8  9  1  0
  9 10  1  0
 10 11  2  0
 11 12  1  0
 12 13  2  0
 13 14  1  0
 14 15  1  0
 15 16  1  0
 16 17  1  0
 17 18  1  0
 18 19  1  0
 19 20  1  0
 20 21  1  0
 14 22  2  0
 22 23  1  0
 23 24  1  0
 24 25  1  0
 25 26  1  0
 26 27  1  0
 27 28  1  0
 28 29  1  0
 29 30  1  0
 23 31  2  0
 31 32  1  0
 32 33  2  0
  9 34  2  0
 34  5  1  0
 33 10  1  0
 32 13  1  0
 20 15  1  0
 29 24  1  0
  1 35  1  0
  1 36  1  0
  1 37  1  0
  2 38  1  0
  6 39  1  0
  7 40  1  0
  8 41  1  0
 11 42  1  0
 12 43  1  0
 16 44  1  0
 16 45  1  0
 17 46  1  0
 17 47  1  0
 19 48  1  0
 19 49  1  0
 20 50  1  1
 21 51  1  0
 21 52  1  0
 21 53  1  0
 25 54  1  0
 25 55  1  0
 26 56  1  0
 26 57  1  0
 28 58  1  0
 28 59  1  0
 29 60  1  1
 30 61  1  0
 30 62  1  0
 30 63  1  0
 34 64  1  0
M  END
$$$$
