
     RDKit          3D

 43 45  0  0  0  0  0  0  0  0999 V2000
   -6.5646   -0.6632   -0.4373 C   0  0  0  0  0  0  0  0  0  0  0  0
   -5.0661   -0.6883   -0.6837 C   0  0  0  0  0  0  0  0  0  0  0  0
   -4.2952    0.0471    0.3926 C   0  0  0  0  0  0  0  0  0  0  0  0
   -4.8073    0.5549    1.3821 O   0  0  0  0  0  0  0  0  0  0  0  0
   -2.9368    0.0894    0.1518 N   0  0  0  0  0  0  0  0  0  0  0  0
   -2.0556    0.8812    1.0203 C   0  0  1  0  0  0  0  0  0  0  0  0
   -0.5555    0.5291    0.7499 C   0  0  0  0  0  0  0  0  0  0  0  0
   -0.1712    1.5719   -0.2252 C   0  0  0  0  0  0  0  0  0  0  0  0
    0.7377    1.8920   -1.2073 C   0  0  0  0  0  0  0  0  0  0  0  0
    1.9029    1.1741   -1.6867 C   0  0  0  0  0  0  0  0  0  0  0  0
    2.4216    1.4289   -2.7677 O   0  0  0  0  0  0  0  0  0  0  0  0
    2.3751    0.2012   -0.8414 N   0  0  0  0  0  0  0  0  0  0  0  0
    3.5260   -0.5959   -1.1822 C   0  0  0  0  0  0  0  0  0  0  0  0
    4.0350   -1.3309    0.0299 C   0  0  0  0  0  0  0  0  0  0  0  0
    3.5300   -2.5977    0.3661 C   0  0  0  0  0  0  0  0  0  0  0  0
    3.9836   -3.2584    1.5114 C   0  0  0  0  0  0  0  0  0  0  0  0
    4.9378   -2.6568    2.3350 C   0  0  0  0  0  0  0  0  0  0  0  0
    5.4381   -1.3927    2.0162 C   0  0  0  0  0  0  0  0  0  0  0  0
    4.9855   -0.7299    0.8721 C   0  0  0  0  0  0  0  0  0  0  0  0
    0.2243    3.1250   -1.7199 C   0  0  0  0  0  0  0  0  0  0  0  0
   -0.8895    3.5414   -1.0948 N   0  0  0  0  0  0  0  0  0  0  0  0
   -1.0703    2.5870   -0.1928 N   0  0  0  0  0  0  0  0  0  0  0  0
   -2.1830    2.3975    0.7245 C   0  0  0  0  0  0  0  0  0  0  0  0
   -6.9401    0.3657   -0.4240 H   0  0  0  0  0  0  0  0  0  0  0  0
   -6.8164   -1.1241    0.5240 H   0  0  0  0  0  0  0  0  0  0  0  0
   -7.0910   -1.2085   -1.2276 H   0  0  0  0  0  0  0  0  0  0  0  0
   -4.8493   -0.2216   -1.6504 H   0  0  0  0  0  0  0  0  0  0  0  0
   -4.7144   -1.7255   -0.7150 H   0  0  0  0  0  0  0  0  0  0  0  0
   -2.6250   -0.0966   -0.7964 H   0  0  0  0  0  0  0  0  0  0  0  0
   -2.3338    0.6571    2.0560 H   0  0  0  0  0  0  0  0  0  0  0  0
   -0.4329   -0.4824    0.3532 H   0  0  0  0  0  0  0  0  0  0  0  0
    0.0343    0.6355    1.6681 H   0  0  0  0  0  0  0  0  0  0  0  0
    1.9604    0.0822    0.0709 H   0  0  0  0  0  0  0  0  0  0  0  0
    3.2309   -1.3003   -1.9716 H   0  0  0  0  0  0  0  0  0  0  0  0
    4.3091    0.0466   -1.6062 H   0  0  0  0  0  0  0  0  0  0  0  0
    2.7833   -3.0782   -0.2663 H   0  0  0  0  0  0  0  0  0  0  0  0
    3.5948   -4.2436    1.7616 H   0  0  0  0  0  0  0  0  0  0  0  0
    5.2930   -3.1734    3.2249 H   0  0  0  0  0  0  0  0  0  0  0  0
    6.1812   -0.9227    2.6608 H   0  0  0  0  0  0  0  0  0  0  0  0
    5.3792    0.2597    0.6379 H   0  0  0  0  0  0  0  0  0  0  0  0
    0.6260    3.7184   -2.5305 H   0  0  0  0  0  0  0  0  0  0  0  0
   -1.9794    3.0128    1.6047 H   0  0  0  0  0  0  0  0  0  0  0  0
   -3.1125    2.6918    0.2300 H   0  0  0  0  0  0  0  0  0  0  0  0
  1  2  1  0
  2  3  1  0
  3  4  2  0
  3  5  1  0
  5  6  1  0
  6  7  1  0
  7  8  1  0
  8  9  2  0
  9 10  1  0
 10 11  2  0
 10 12  1  0
 12 13  1  0
 13 14  1  0
 14 15  2  0
 15 16  1  0
 16 17  2  0
 17 18  1  0
 18 19  2  0
  9 20  1  0
 20 21  2  0
 21 22  1  0
 22 23  1  0
 23  6  1  0
 22  8  1  0
 19 14  1  0
  1 24  1  0
  1 25  1  0
  1 26  1  0
  2 27  1  0
  2 28  1  0
  5 29  1  0
  6 30  1  1
  7 31  1  0
  7 32  1  0
 12 33  1  0
 13 34  1  0
 13 35  1  0
 15 36  1  0
 16 37  1  0
 17 38  1  0
 18 39  1  0
 19 40  1  0
 20 41  1  0
 23 42  1  0
 23 43  1  0
M  END
$$$$
