
     RDKit          3D

 48 50  0  0  0  0  0  0  0  0999 V2000
   -6.3094    1.9218   -0.3108 C   0  0  0  0  0  0  0  0  0  0  0  0
   -5.0501    1.1440   -0.0473 C   0  0  0  0  0  0  0  0  0  0  0  0
   -4.6826    0.8508    1.2693 C   0  0  0  0  0  0  0  0  0  0  0  0
   -3.5132    0.1332    1.5472 C   0  0  0  0  0  0  0  0  0  0  0  0
   -2.6652   -0.3120    0.5220 C   0  0  0  0  0  0  0  0  0  0  0  0
   -1.4668   -1.0632    0.8256 N   0  0  0  0  0  0  0  0  0  0  0  0
   -1.4267   -1.7405    2.1253 C   0  0  0  0  0  0  0  0  0  0  0  0
   -0.3455   -1.0509   -0.0381 C   0  0  0  0  0  0  0  0  0  0  0  0
   -0.2945   -0.4282   -1.0998 O   0  0  0  0  0  0  0  0  0  0  0  0
    0.8670   -1.8413    0.4381 C   0  0  0  0  0  0  0  0  0  0  0  0
    2.0566   -1.6597   -0.3895 N   0  0  0  0  0  0  0  0  0  0  0  0
    2.4107   -2.5869   -1.3527 C   0  0  0  0  0  0  0  0  0  0  0  0
    3.6417   -2.2435   -1.8564 C   0  0  0  0  0  0  0  0  0  0  0  0
    4.0457   -1.0701   -1.1816 C   0  0  0  0  0  0  0  0  0  0  0  0
    5.2504   -0.2938   -1.3157 C   0  0  0  0  0  0  0  0  0  0  0  0
    6.1335   -0.6077   -2.1094 O   0  0  0  0  0  0  0  0  0  0  0  0
    5.3070    0.8073   -0.4659 N   0  0  0  0  0  0  0  0  0  0  0  0
    6.4909    1.6421   -0.5212 C   0  0  0  0  0  0  0  0  0  0  0  0
    4.3040    1.2105    0.4256 C   0  0  0  0  0  0  0  0  0  0  0  0
    4.4571    2.2173    1.1264 O   0  0  0  0  0  0  0  0  0  0  0  0
    3.1302    0.4342    0.4979 N   0  0  0  0  0  0  0  0  0  0  0  0
    2.0751    0.9230    1.3680 C   0  0  0  0  0  0  0  0  0  0  0  0
    3.0531   -0.7079   -0.2976 C   0  0  0  0  0  0  0  0  0  0  0  0
   -3.0476   -0.0161   -0.7943 C   0  0  0  0  0  0  0  0  0  0  0  0
   -4.2203    0.7083   -1.0933 C   0  0  0  0  0  0  0  0  0  0  0  0
   -4.5625    0.9850   -2.5329 C   0  0  0  0  0  0  0  0  0  0  0  0
   -6.8521    2.1341    0.6165 H   0  0  0  0  0  0  0  0  0  0  0  0
   -6.0715    2.8805   -0.7823 H   0  0  0  0  0  0  0  0  0  0  0  0
   -6.9818    1.3519   -0.9597 H   0  0  0  0  0  0  0  0  0  0  0  0
   -5.3024    1.1857    2.0987 H   0  0  0  0  0  0  0  0  0  0  0  0
   -3.2769   -0.0318    2.5939 H   0  0  0  0  0  0  0  0  0  0  0  0
   -0.7648   -2.6085    2.1074 H   0  0  0  0  0  0  0  0  0  0  0  0
   -2.4165   -2.1210    2.3972 H   0  0  0  0  0  0  0  0  0  0  0  0
   -1.0620   -1.0363    2.8794 H   0  0  0  0  0  0  0  0  0  0  0  0
    0.6182   -2.9087    0.4072 H   0  0  0  0  0  0  0  0  0  0  0  0
    1.1444   -1.5856    1.4616 H   0  0  0  0  0  0  0  0  0  0  0  0
    1.7586   -3.4157   -1.5982 H   0  0  0  0  0  0  0  0  0  0  0  0
    4.1932   -2.7732   -2.6231 H   0  0  0  0  0  0  0  0  0  0  0  0
    6.9212    1.7221    0.4827 H   0  0  0  0  0  0  0  0  0  0  0  0
    7.2533    1.2510   -1.1995 H   0  0  0  0  0  0  0  0  0  0  0  0
    6.2012    2.6444   -0.8536 H   0  0  0  0  0  0  0  0  0  0  0  0
    1.1403    0.9884    0.8090 H   0  0  0  0  0  0  0  0  0  0  0  0
    2.2834    1.9230    1.7587 H   0  0  0  0  0  0  0  0  0  0  0  0
    1.9745    0.2495    2.2226 H   0  0  0  0  0  0  0  0  0  0  0  0
   -2.4550   -0.3724   -1.6329 H   0  0  0  0  0  0  0  0  0  0  0  0
   -5.4934    0.4774   -2.8046 H   0  0  0  0  0  0  0  0  0  0  0  0
   -3.7796    0.6281   -3.2104 H   0  0  0  0  0  0  0  0  0  0  0  0
   -4.6707    2.0615   -2.6992 H   0  0  0  0  0  0  0  0  0  0  0  0
  1  2  1  0
  2  3  2  0
  3  4  1  0
  4  5  2  0
  5  6  1  0
  6  7  1  0
  6  8  1  0
  8  9  2  0
  8 10  1  0
 10 11  1  0
 11 12  1  0
 12 13  2  0
 13 14  1  0
 14 15  1  0
 15 16  2  0
 15 17  1  0
 17 18  1  0
 17 19  1  0
 19 20  2  0
 19 21  1  0
 21 22  1  0
 21 23  1  0
  5 24  1  0
 24 25  2  0
 25 26  1  0
 25  2  1  0
 23 11  1  0
 23 14  2  0
  1 27  1  0
  1 28  1  0
  1 29  1  0
  3 30  1  0
  4 31  1  0
  7 32  1  0
  7 33  1  0
  7 34  1  0
 10 35  1  0
 10 36  1  0
 12 37  1  0
 13 38  1  0
 18 39  1  0
 18 40  1  0
 18 41  1  0
 22 42  1  0
 22 43  1  0
 22 44  1  0
 24 45  1  0
 26 46  1  0
 26 47  1  0
 26 48  1  0
M  END
$$$$
