
     RDKit          3D

 32 30  0  0  0  0  0  0  0  0999 V2000
   -3.4778   -0.2763   -1.1215 C   0  0  0  0  0  0  0  0  0  0  0  0
   -2.9155    0.1002    0.2116 C   0  0  0  0  0  0  0  0  0  0  0  0
   -3.0368   -0.6956    1.2124 N   0  0  0  0  0  0  0  0  0  0  0  0
   -2.2407    1.3324    0.4161 N   0  0  0  0  0  0  0  0  0  0  0  0
   -1.1780    1.3966    1.3589 C   0  0  0  0  0  0  0  0  0  0  0  0
   -0.0268    0.5053    1.0607 C   0  0  0  0  0  0  0  0  0  0  0  0
    0.1372   -0.7013    1.7029 C   0  0  0  0  0  0  0  0  0  0  0  0
    1.2186   -1.5162    1.4041 C   0  0  0  0  0  0  0  0  0  0  0  0
    2.1430   -1.1282    0.4603 C   0  0  0  0  0  0  0  0  0  0  0  0
    1.9994    0.0818   -0.1994 C   0  0  0  0  0  0  0  0  0  0  0  0
    3.0095    0.4809   -1.2147 C   0  0  0  0  0  0  0  0  0  0  0  0
    4.0428   -0.4806   -1.3845 N   0  0  0  0  0  0  0  0  0  0  0  0
    0.9203    0.8645    0.1180 C   0  0  0  0  0  0  0  0  0  0  0  0
    0.6920    0.0000    0.0000 Cl  0  0  0  0  0  0  0  0  0  0  0  0
    0.6899    0.0000    0.0000 Cl  0  0  0  0  0  0  0  0  0  0  0  0
   -3.4986    0.6308   -1.7772 H   0  0  0  0  0  0  0  0  0  0  0  0
   -2.9474   -1.1132   -1.5773 H   0  0  0  0  0  0  0  0  0  0  0  0
   -4.5399   -0.5505   -0.9457 H   0  0  0  0  0  0  0  0  0  0  0  0
   -3.5320   -1.6022    1.0757 H   0  0  0  0  0  0  0  0  0  0  0  0
   -2.5342    2.1750   -0.1316 H   0  0  0  0  0  0  0  0  0  0  0  0
   -1.4905    1.1924    2.4050 H   0  0  0  0  0  0  0  0  0  0  0  0
   -0.8041    2.4630    1.3947 H   0  0  0  0  0  0  0  0  0  0  0  0
   -0.5743   -1.0449    2.4616 H   0  0  0  0  0  0  0  0  0  0  0  0
    1.3065   -2.4530    1.9324 H   0  0  0  0  0  0  0  0  0  0  0  0
    3.0013   -1.7510    0.2079 H   0  0  0  0  0  0  0  0  0  0  0  0
    2.5003    0.7800   -2.1425 H   0  0  0  0  0  0  0  0  0  0  0  0
    3.4753    1.4286   -0.8134 H   0  0  0  0  0  0  0  0  0  0  0  0
    3.6406   -1.3716   -1.6983 H   0  0  0  0  0  0  0  0  0  0  0  0
    4.5899   -0.5526   -0.4992 H   0  0  0  0  0  0  0  0  0  0  0  0
    0.8117    1.8059   -0.3975 H   0  0  0  0  0  0  0  0  0  0  0  0
   -0.6920    0.0000    0.0000 H   0  0  0  0  0  0  0  0  0  0  0  0
   -0.6899    0.0000    0.0000 H   0  0  0  0  0  0  0  0  0  0  0  0
  1  2  1  0
  2  3  2  3
  2  4  1  0
  4  5  1  0
  5  6  1  0
  6  7  2  0
  7  8  1  0
  8  9  2  0
  9 10  1  0
 10 11  1  0
 11 12  1  0
 10 13  2  0
 13  6  1  0
  1 16  1  0
  1 17  1  0
  1 18  1  0
  3 19  1  0
  4 20  1  0
  5 21  1  0
  5 22  1  0
  7 23  1  0
  8 24  1  0
  9 25  1  0
 11 26  1  0
 11 27  1  0
 12 28  1  0
 12 29  1  0
 13 30  1  0
 14 31  1  0
 15 32  1  0
M  END
$$$$
