
     RDKit          3D

 40 39  0  0  0  0  0  0  0  0999 V2000
    6.4331   -1.4194   -0.3557 N   0  0  0  0  0  0  0  0  0  0  0  0
    5.2137   -0.6160   -0.3949 C   0  0  0  0  0  0  0  0  0  0  0  0
    4.9597    0.0693    0.9463 C   0  0  0  0  0  0  0  0  0  0  0  0
    3.7450    1.0060    0.9330 C   0  0  0  0  0  0  0  0  0  0  0  0
    2.4669    0.3171    0.7688 N   0  0  0  0  0  0  0  0  0  0  0  0
    1.8787    0.5111   -0.5530 C   0  0  0  0  0  0  0  0  0  0  0  0
    0.5764   -0.2814   -0.7071 C   0  0  0  0  0  0  0  0  0  0  0  0
   -0.5227    0.1669    0.2626 C   0  0  0  0  0  0  0  0  0  0  0  0
   -1.8263   -0.5937    0.0037 C   0  0  0  0  0  0  0  0  0  0  0  0
   -2.8469   -0.1564    0.9533 N   0  0  0  0  0  0  0  0  0  0  0  0
   -4.1114   -0.8803    0.8155 C   0  0  0  0  0  0  0  0  0  0  0  0
   -4.9141   -0.5953   -0.4608 C   0  0  0  0  0  0  0  0  0  0  0  0
   -5.3052    0.8667   -0.6854 C   0  0  0  0  0  0  0  0  0  0  0  0
   -6.1918    1.3752    0.3543 N   0  0  0  0  0  0  0  0  0  0  0  0
    6.3644   -2.1107    0.3907 H   0  0  0  0  0  0  0  0  0  0  0  0
    7.2272   -0.8271   -0.1148 H   0  0  0  0  0  0  0  0  0  0  0  0
    4.3790   -1.2740   -0.6561 H   0  0  0  0  0  0  0  0  0  0  0  0
    5.3074    0.1300   -1.1912 H   0  0  0  0  0  0  0  0  0  0  0  0
    5.8406    0.6632    1.2232 H   0  0  0  0  0  0  0  0  0  0  0  0
    4.8343   -0.6848    1.7342 H   0  0  0  0  0  0  0  0  0  0  0  0
    3.7113    1.5131    1.9047 H   0  0  0  0  0  0  0  0  0  0  0  0
    3.8861    1.7971    0.1861 H   0  0  0  0  0  0  0  0  0  0  0  0
    2.5492   -0.6744    0.9885 H   0  0  0  0  0  0  0  0  0  0  0  0
    2.5740    0.1837   -1.3337 H   0  0  0  0  0  0  0  0  0  0  0  0
    1.6724    1.5753   -0.7181 H   0  0  0  0  0  0  0  0  0  0  0  0
    0.7757   -1.3519   -0.5704 H   0  0  0  0  0  0  0  0  0  0  0  0
    0.2199   -0.1577   -1.7374 H   0  0  0  0  0  0  0  0  0  0  0  0
   -0.2004   -0.0019    1.2974 H   0  0  0  0  0  0  0  0  0  0  0  0
   -0.6927    1.2448    0.1469 H   0  0  0  0  0  0  0  0  0  0  0  0
   -1.6462   -1.6693    0.1152 H   0  0  0  0  0  0  0  0  0  0  0  0
   -2.1498   -0.4069   -1.0261 H   0  0  0  0  0  0  0  0  0  0  0  0
   -2.9957    0.8472    0.8726 H   0  0  0  0  0  0  0  0  0  0  0  0
   -3.9230   -1.9590    0.8857 H   0  0  0  0  0  0  0  0  0  0  0  0
   -4.7283   -0.6384    1.6886 H   0  0  0  0  0  0  0  0  0  0  0  0
   -4.3510   -0.9437   -1.3349 H   0  0  0  0  0  0  0  0  0  0  0  0
   -5.8261   -1.2063   -0.4336 H   0  0  0  0  0  0  0  0  0  0  0  0
   -5.8255    0.9439   -1.6467 H   0  0  0  0  0  0  0  0  0  0  0  0
   -4.4156    1.5012   -0.7555 H   0  0  0  0  0  0  0  0  0  0  0  0
   -5.7053    1.3937    1.2502 H   0  0  0  0  0  0  0  0  0  0  0  0
   -6.4368    2.3431    0.1476 H   0  0  0  0  0  0  0  0  0  0  0  0
  1  2  1  0
  2  3  1  0
  3  4  1  0
  4  5  1  0
  5  6  1  0
  6  7  1  0
  7  8  1  0
  8  9  1  0
  9 10  1  0
 10 11  1  0
 11 12  1  0
 12 13  1  0
 13 14  1  0
  1 15  1  0
  1 16  1  0
  2 17  1  0
  2 18  1  0
  3 19  1  0
  3 20  1  0
  4 21  1  0
  4 22  1  0
  5 23  1  0
  6 24  1  0
  6 25  1  0
  7 26  1  0
  7 27  1  0
  8 28  1  0
  8 29  1  0
  9 30  1  0
  9 31  1  0
 10 32  1  0
 11 33  1  0
 11 34  1  0
 12 35  1  0
 12 36  1  0
 13 37  1  0
 13 38  1  0
 14 39  1  0
 14 40  1  0
M  END
$$$$
