
     RDKit          3D

 50 53  0  0  0  0  0  0  0  0999 V2000
   -7.7782   -0.0683    1.0603 C   0  0  0  0  0  0  0  0  0  0  0  0
   -6.6895    1.0075    1.0393 C   0  0  0  0  0  0  0  0  0  0  0  0
   -6.4449    1.5633    2.4445 C   0  0  0  0  0  0  0  0  0  0  0  0
   -5.4074    0.4905    0.4123 C   0  0  0  0  0  0  0  0  0  0  0  0
   -4.6827   -0.5672    0.9754 C   0  0  0  0  0  0  0  0  0  0  0  0
   -3.5038   -1.0231    0.3763 C   0  0  0  0  0  0  0  0  0  0  0  0
   -3.0231   -0.4352   -0.7992 C   0  0  0  0  0  0  0  0  0  0  0  0
   -1.8249   -0.9532   -1.3305 N   0  0  0  0  0  0  0  0  0  0  0  0
   -1.1733   -0.5671   -2.4926 C   0  0  0  0  0  0  0  0  0  0  0  0
   -1.5910    0.2413   -3.3184 O   0  0  0  0  0  0  0  0  0  0  0  0
    0.1192   -1.3437   -2.7546 C   0  0  0  0  0  0  0  0  0  0  0  0
    1.0729   -1.1964   -1.6748 N   0  0  0  0  0  0  0  0  0  0  0  0
    2.2544   -0.4821   -1.8064 N   0  0  0  0  0  0  0  0  0  0  0  0
    2.8670   -0.7050   -0.6813 C   0  0  0  0  0  0  0  0  0  0  0  0
    4.1153   -0.2400   -0.2149 C   0  0  0  0  0  0  0  0  0  0  0  0
    5.1834    0.7861   -1.0105 S   0  0  0  0  0  0  0  0  0  0  0  0
    6.2690    0.6900    0.3563 C   0  0  0  0  0  0  0  0  0  0  0  0
    7.4602    1.3643    0.4201 N   0  0  0  0  0  0  0  0  0  0  0  0
    8.1390    1.7670   -0.8036 C   0  0  0  0  0  0  0  0  0  0  0  0
    8.3258    1.0361    1.5488 C   0  0  0  0  0  0  0  0  0  0  0  0
    5.8183   -0.0780    1.3331 N   0  0  0  0  0  0  0  0  0  0  0  0
    4.5973   -0.6074    1.0152 C   0  0  0  0  0  0  0  0  0  0  0  0
    3.8804   -1.4682    1.8791 N   0  0  0  0  0  0  0  0  0  0  0  0
    2.7365   -1.8687    1.4125 C   0  0  0  0  0  0  0  0  0  0  0  0
    2.2152   -1.5194    0.1835 N   0  0  0  0  0  0  0  0  0  0  0  0
    1.0427   -1.8701   -0.4466 C   0  0  0  0  0  0  0  0  0  0  0  0
    0.1441   -2.5911   -0.0410 O   0  0  0  0  0  0  0  0  0  0  0  0
   -3.7389    0.6194   -1.3620 C   0  0  0  0  0  0  0  0  0  0  0  0
   -4.9194    1.0768   -0.7628 C   0  0  0  0  0  0  0  0  0  0  0  0
   -7.5067   -0.9136    1.7020 H   0  0  0  0  0  0  0  0  0  0  0  0
   -7.9618   -0.4597    0.0534 H   0  0  0  0  0  0  0  0  0  0  0  0
   -8.7204    0.3452    1.4363 H   0  0  0  0  0  0  0  0  0  0  0  0
   -7.0677    1.8369    0.4269 H   0  0  0  0  0  0  0  0  0  0  0  0
   -6.1217    0.7839    3.1430 H   0  0  0  0  0  0  0  0  0  0  0  0
   -5.6719    2.3399    2.4292 H   0  0  0  0  0  0  0  0  0  0  0  0
   -7.3609    2.0100    2.8463 H   0  0  0  0  0  0  0  0  0  0  0  0
   -5.0275   -1.0486    1.8878 H   0  0  0  0  0  0  0  0  0  0  0  0
   -2.9692   -1.8462    0.8450 H   0  0  0  0  0  0  0  0  0  0  0  0
   -1.4083   -1.7171   -0.8006 H   0  0  0  0  0  0  0  0  0  0  0  0
   -0.1302   -2.4043   -2.8666 H   0  0  0  0  0  0  0  0  0  0  0  0
    0.5754   -0.9844   -3.6826 H   0  0  0  0  0  0  0  0  0  0  0  0
    9.0560    2.3230   -0.5781 H   0  0  0  0  0  0  0  0  0  0  0  0
    8.4179    0.8936   -1.4038 H   0  0  0  0  0  0  0  0  0  0  0  0
    7.5170    2.4363   -1.4078 H   0  0  0  0  0  0  0  0  0  0  0  0
    7.7853    1.0970    2.5004 H   0  0  0  0  0  0  0  0  0  0  0  0
    9.1593    1.7440    1.6182 H   0  0  0  0  0  0  0  0  0  0  0  0
    8.7435    0.0290    1.4395 H   0  0  0  0  0  0  0  0  0  0  0  0
    2.0888   -2.5416    1.9974 H   0  0  0  0  0  0  0  0  0  0  0  0
   -3.4078    1.1164   -2.2682 H   0  0  0  0  0  0  0  0  0  0  0  0
   -5.4526    1.9024   -1.2300 H   0  0  0  0  0  0  0  0  0  0  0  0
  1  2  1  0
  2  3  1  0
  2  4  1  0
  4  5  2  0
  5  6  1  0
  6  7  2  0
  7  8  1  0
  8  9  1  0
  9 10  2  0
  9 11  1  0
 11 12  1  0
 12 13  1  0
 13 14  2  0
 14 15  1  0
 15 16  1  0
 16 17  1  0
 17 18  1  0
 18 19  1  0
 18 20  1  0
 17 21  2  0
 21 22  1  0
 22 23  1  0
 23 24  2  0
 24 25  1  0
 25 26  1  0
 26 27  2  0
  7 28  1  0
 28 29  2  0
 29  4  1  0
 26 12  1  0
 25 14  1  0
 22 15  2  0
  1 30  1  0
  1 31  1  0
  1 32  1  0
  2 33  1  0
  3 34  1  0
  3 35  1  0
  3 36  1  0
  5 37  1  0
  6 38  1  0
  8 39  1  0
 11 40  1  0
 11 41  1  0
 19 42  1  0
 19 43  1  0
 19 44  1  0
 20 45  1  0
 20 46  1  0
 20 47  1  0
 24 48  1  0
 28 49  1  0
 29 50  1  0
M  END
$$$$
