
     RDKit          3D

 73 77  0  0  0  0  0  0  0  0999 V2000
    0.6887    0.0000    0.0000 Cl  0  0  0  0  0  0  0  0  0  0  0  0
   -3.5763   -0.1288   -2.6798 O   0  0  0  0  0  0  0  0  0  0  0  0
   -3.3274   -0.3524   -1.4792 C   0  0  0  0  0  0  0  0  0  0  0  0
   -4.4038   -0.1310   -0.5103 C   0  0  0  0  0  0  0  0  0  0  0  0
   -5.2410   -1.1848   -0.2234 C   0  0  0  0  0  0  0  0  0  0  0  0
   -5.0815   -2.3954   -0.8202 C   0  0  0  0  0  0  0  0  0  0  0  0
   -5.9481   -3.4138   -0.4959 C   0  0  0  0  0  0  0  0  0  0  0  0
   -6.9509   -3.1813    0.4211 C   0  0  0  0  0  0  0  0  0  0  0  0
   -7.0963   -1.9468    1.0152 C   0  0  0  0  0  0  0  0  0  0  0  0
   -6.2463   -0.9267    0.7054 C   0  0  0  0  0  0  0  0  0  0  0  0
   -6.3984    0.3135    1.3066 C   0  0  0  0  0  0  0  0  0  0  0  0
   -5.5256    1.3230    0.9732 C   0  0  0  0  0  0  0  0  0  0  0  0
   -5.6363    2.5796    1.5465 C   0  0  0  0  0  0  0  0  0  0  0  0
   -4.7584    3.5776    1.2044 C   0  0  0  0  0  0  0  0  0  0  0  0
   -3.7443    3.3368    0.2748 C   0  0  0  0  0  0  0  0  0  0  0  0
   -3.6289    2.0953   -0.2964 C   0  0  0  0  0  0  0  0  0  0  0  0
   -4.5175    1.1185    0.0627 C   0  0  0  0  0  0  0  0  0  0  0  0
   -2.0851   -0.8013   -0.9887 N   0  0  0  0  0  0  0  0  0  0  0  0
   -0.9953   -1.0229   -1.9051 C   0  0  0  0  0  0  0  0  0  0  0  0
    0.2314   -1.3586   -1.1282 C   0  0  0  0  0  0  0  0  0  0  0  0
    0.5234   -0.4290    0.0056 C   0  0  0  0  0  0  0  0  0  0  0  0
    1.3788    0.6588   -0.2971 N   0  0  0  0  0  0  0  0  0  0  0  0
    1.0626    1.6566   -1.1864 C   0  0  0  0  0  0  0  0  0  0  0  0
    2.0040    1.5524   -2.3996 C   0  0  0  0  0  0  0  0  0  0  0  0
    3.3892    1.8593   -1.8822 C   0  0  0  0  0  0  0  0  0  0  0  0
    3.7727    0.7316   -0.9371 C   0  0  1  0  0  0  0  0  0  0  0  0
    5.0819    1.1249   -0.3376 C   0  0  0  0  0  0  0  0  0  0  0  0
    5.5326    2.2967   -0.4821 O   0  0  0  0  0  0  0  0  0  0  0  0
    5.8496    0.2034    0.4076 N   0  0  0  0  0  0  0  0  0  0  0  0
    5.3753   -1.1489    0.5609 C   0  0  0  0  0  0  0  0  0  0  0  0
    6.6209   -2.0508    0.5797 C   0  0  0  0  0  0  0  0  0  0  0  0
    7.3786   -1.6315    1.6703 O   0  0  0  0  0  0  0  0  0  0  0  0
    8.0519   -0.4835    1.2496 C   0  0  0  0  0  0  0  0  0  0  0  0
    7.0978    0.6599    1.0026 C   0  0  0  0  0  0  0  0  0  0  0  0
    2.7235    0.4995    0.1068 C   0  0  0  0  0  0  0  0  0  0  0  0
   -0.6964   -0.1030    0.7637 C   0  0  0  0  0  0  0  0  0  0  0  0
   -1.8276   -1.0587    0.4093 C   0  0  0  0  0  0  0  0  0  0  0  0
   -0.6887    0.0000    0.0000 H   0  0  0  0  0  0  0  0  0  0  0  0
   -4.2983   -2.5552   -1.5275 H   0  0  0  0  0  0  0  0  0  0  0  0
   -5.8698   -4.3892   -0.9354 H   0  0  0  0  0  0  0  0  0  0  0  0
   -7.6234   -3.9941    0.6638 H   0  0  0  0  0  0  0  0  0  0  0  0
   -7.8908   -1.7908    1.7309 H   0  0  0  0  0  0  0  0  0  0  0  0
   -7.1934    0.4563    2.0174 H   0  0  0  0  0  0  0  0  0  0  0  0
   -6.4188    2.7655    2.2638 H   0  0  0  0  0  0  0  0  0  0  0  0
   -4.8319    4.5656    1.6439 H   0  0  0  0  0  0  0  0  0  0  0  0
   -3.0631    4.1319    0.0165 H   0  0  0  0  0  0  0  0  0  0  0  0
   -2.8525    1.9011   -1.0117 H   0  0  0  0  0  0  0  0  0  0  0  0
   -1.2526   -1.8518   -2.6260 H   0  0  0  0  0  0  0  0  0  0  0  0
   -0.7769   -0.1336   -2.5455 H   0  0  0  0  0  0  0  0  0  0  0  0
    0.0415   -2.4051   -0.7153 H   0  0  0  0  0  0  0  0  0  0  0  0
    1.1237   -1.5191   -1.7852 H   0  0  0  0  0  0  0  0  0  0  0  0
    1.1502   -1.0817    0.7193 H   0  0  0  0  0  0  0  0  0  0  0  0
    0.0767    1.8048   -1.5844 H   0  0  0  0  0  0  0  0  0  0  0  0
    1.3505    2.6584   -0.7246 H   0  0  0  0  0  0  0  0  0  0  0  0
    1.7107    2.2868   -3.1584 H   0  0  0  0  0  0  0  0  0  0  0  0
    1.9751    0.5053   -2.7381 H   0  0  0  0  0  0  0  0  0  0  0  0
    3.4045    2.8361   -1.3967 H   0  0  0  0  0  0  0  0  0  0  0  0
    4.0705    1.8928   -2.7564 H   0  0  0  0  0  0  0  0  0  0  0  0
    3.8705   -0.1802   -1.5502 H   0  0  0  0  0  0  0  0  0  0  0  0
    4.8575   -1.3407    1.5112 H   0  0  0  0  0  0  0  0  0  0  0  0
    4.8004   -1.5086   -0.3175 H   0  0  0  0  0  0  0  0  0  0  0  0
    6.3301   -3.1184    0.6613 H   0  0  0  0  0  0  0  0  0  0  0  0
    7.2136   -1.9153   -0.3434 H   0  0  0  0  0  0  0  0  0  0  0  0
    8.6433   -0.7473    0.3551 H   0  0  0  0  0  0  0  0  0  0  0  0
    8.7567   -0.2111    2.0641 H   0  0  0  0  0  0  0  0  0  0  0  0
    7.6227    1.4101    0.3831 H   0  0  0  0  0  0  0  0  0  0  0  0
    6.8687    1.1736    1.9801 H   0  0  0  0  0  0  0  0  0  0  0  0
    2.8464   -0.5216    0.5605 H   0  0  0  0  0  0  0  0  0  0  0  0
    2.9179    1.2625    0.9201 H   0  0  0  0  0  0  0  0  0  0  0  0
   -0.5220   -0.2387    1.8551 H   0  0  0  0  0  0  0  0  0  0  0  0
   -1.1253    0.9031    0.5452 H   0  0  0  0  0  0  0  0  0  0  0  0
   -1.5689   -2.1109    0.6174 H   0  0  0  0  0  0  0  0  0  0  0  0
   -2.7324   -0.7788    1.0013 H   0  0  0  0  0  0  0  0  0  0  0  0
  2  3  2  0
  3  4  1  0
  4  5  1  0
  5  6  2  0
  6  7  1  0
  7  8  2  0
  8  9  1  0
  9 10  2  0
 10 11  1  0
 11 12  2  0
 12 13  1  0
 13 14  2  0
 14 15  1  0
 15 16  2  0
 16 17  1  0
  3 18  1  0
 18 19  1  0
 19 20  1  0
 20 21  1  0
 21 22  1  0
 22 23  1  0
 23 24  1  0
 24 25  1  0
 25 26  1  0
 26 27  1  0
 27 28  2  0
 27 29  1  0
 29 30  1  0
 30 31  1  0
 31 32  1  0
 32 33  1  0
 33 34  1  0
 26 35  1  0
 21 36  1  0
 36 37  1  0
 17  4  2  0
 37 18  1  0
 10  5  1  0
 17 12  1  0
 35 22  1  0
 34 29  1  0
  1 38  1  0
  6 39  1  0
  7 40  1  0
  8 41  1  0
  9 42  1  0
 11 43  1  0
 13 44  1  0
 14 45  1  0
 15 46  1  0
 16 47  1  0
 19 48  1  0
 19 49  1  0
 20 50  1  0
 20 51  1  0
 21 52  1  0
 23 53  1  0
 23 54  1  0
 24 55  1  0
 24 56  1  0
 25 57  1  0
 25 58  1  0
 26 59  1  6
 30 60  1  0
 30 61  1  0
 31 62  1  0
 31 63  1  0
 33 64  1  0
 33 65  1  0
 34 66  1  0
 34 67  1  0
 35 68  1  0
 35 69  1  0
 36 70  1  0
 36 71  1  0
 37 72  1  0
 37 73  1  0
M  END
$$$$
