
     RDKit          3D

 74 78  0  0  0  0  0  0  0  0999 V2000
   -7.0212   -5.5145    1.6875 C   0  0  0  0  0  0  0  0  0  0  0  0
   -6.4832   -4.2160    1.1631 C   0  0  0  0  0  0  0  0  0  0  0  0
   -7.1991   -3.0288    1.3477 C   0  0  0  0  0  0  0  0  0  0  0  0
   -6.6885   -1.8130    0.8849 C   0  0  0  0  0  0  0  0  0  0  0  0
   -5.4352   -1.7627    0.2569 C   0  0  0  0  0  0  0  0  0  0  0  0
   -4.9381   -0.5054   -0.1991 N   0  0  0  0  0  0  0  0  0  0  0  0
   -5.8103    0.5140   -0.4204 N   0  0  0  0  0  0  0  0  0  0  0  0
   -5.1041    1.4519   -1.0595 C   0  0  0  0  0  0  0  0  0  0  0  0
   -5.7537    2.7289   -1.5694 C   0  0  0  0  0  0  0  0  0  0  0  0
   -5.6892    2.7643   -3.1094 C   0  0  0  0  0  0  0  0  0  0  0  0
   -7.2359    2.8368   -1.1498 C   0  0  0  0  0  0  0  0  0  0  0  0
   -5.0154    3.9625   -1.0094 C   0  0  0  0  0  0  0  0  0  0  0  0
   -3.7419    1.0848   -1.1485 C   0  0  0  0  0  0  0  0  0  0  0  0
   -3.6268   -0.1184   -0.4863 C   0  0  0  0  0  0  0  0  0  0  0  0
   -2.4948   -0.8306   -0.1038 N   0  0  0  0  0  0  0  0  0  0  0  0
   -1.2070   -0.3666   -0.2902 C   0  0  0  0  0  0  0  0  0  0  0  0
   -0.8767    0.6863   -0.8178 O   0  0  0  0  0  0  0  0  0  0  0  0
   -0.2926   -1.2741    0.2167 N   0  0  0  0  0  0  0  0  0  0  0  0
    1.1290   -1.0036    0.0904 C   0  0  0  0  0  0  0  0  0  0  0  0
    1.6600   -0.0486    1.1336 C   0  0  0  0  0  0  0  0  0  0  0  0
    1.1085    0.0027    2.4248 C   0  0  0  0  0  0  0  0  0  0  0  0
    1.6193    0.8826    3.3756 C   0  0  0  0  0  0  0  0  0  0  0  0
    1.0713    0.9214    4.5975 F   0  0  0  0  0  0  0  0  0  0  0  0
    2.6842    1.7222    3.0790 C   0  0  0  0  0  0  0  0  0  0  0  0
    3.2617    1.6703    1.8122 C   0  0  0  0  0  0  0  0  0  0  0  0
    2.7706    0.7685    0.8565 C   0  0  0  0  0  0  0  0  0  0  0  0
    3.3255    0.7133   -0.4040 O   0  0  0  0  0  0  0  0  0  0  0  0
    4.6863    0.5069   -0.4958 C   0  0  0  0  0  0  0  0  0  0  0  0
    5.3788   -0.3956    0.3163 C   0  0  0  0  0  0  0  0  0  0  0  0
    6.7567   -0.5914    0.1633 C   0  0  0  0  0  0  0  0  0  0  0  0
    7.4056    0.1366   -0.8444 C   0  0  0  0  0  0  0  0  0  0  0  0
    6.7276    1.0256   -1.6758 C   0  0  0  0  0  0  0  0  0  0  0  0
    7.7214    1.5405   -2.5351 C   0  0  0  0  0  0  0  0  0  0  0  0
    8.9330    1.0427   -2.2799 N   0  0  0  0  0  0  0  0  0  0  0  0
    8.7154    0.1844   -1.2616 N   0  0  0  0  0  0  0  0  0  0  0  0
    9.8341   -0.5525   -0.7133 C   0  0  0  0  0  0  0  0  0  0  0  0
   10.6207    0.2829    0.2835 C   0  0  0  0  0  0  0  0  0  0  0  0
   11.6207   -0.5230    0.9030 O   0  0  0  0  0  0  0  0  0  0  0  0
    5.3443    1.2110   -1.5110 C   0  0  0  0  0  0  0  0  0  0  0  0
   -4.7260   -2.9533    0.0533 C   0  0  0  0  0  0  0  0  0  0  0  0
   -5.2432   -4.1685    0.5158 C   0  0  0  0  0  0  0  0  0  0  0  0
   -8.1148   -5.5331    1.6347 H   0  0  0  0  0  0  0  0  0  0  0  0
   -6.7134   -5.6530    2.7283 H   0  0  0  0  0  0  0  0  0  0  0  0
   -6.6527   -6.3587    1.0958 H   0  0  0  0  0  0  0  0  0  0  0  0
   -8.1641   -3.0397    1.8504 H   0  0  0  0  0  0  0  0  0  0  0  0
   -7.2730   -0.9067    1.0383 H   0  0  0  0  0  0  0  0  0  0  0  0
   -6.2030    1.8999   -3.5467 H   0  0  0  0  0  0  0  0  0  0  0  0
   -6.1619    3.6702   -3.5065 H   0  0  0  0  0  0  0  0  0  0  0  0
   -4.6538    2.7451   -3.4697 H   0  0  0  0  0  0  0  0  0  0  0  0
   -7.8276    2.0019   -1.5444 H   0  0  0  0  0  0  0  0  0  0  0  0
   -7.3433    2.8343   -0.0586 H   0  0  0  0  0  0  0  0  0  0  0  0
   -7.6868    3.7635   -1.5229 H   0  0  0  0  0  0  0  0  0  0  0  0
   -5.0173    3.9604    0.0870 H   0  0  0  0  0  0  0  0  0  0  0  0
   -3.9693    3.9911   -1.3356 H   0  0  0  0  0  0  0  0  0  0  0  0
   -5.4871    4.8932   -1.3445 H   0  0  0  0  0  0  0  0  0  0  0  0
   -2.9394    1.6758   -1.5683 H   0  0  0  0  0  0  0  0  0  0  0  0
   -2.6085   -1.5686    0.5762 H   0  0  0  0  0  0  0  0  0  0  0  0
   -0.5608   -2.2385    0.0992 H   0  0  0  0  0  0  0  0  0  0  0  0
    1.3103   -0.6329   -0.9243 H   0  0  0  0  0  0  0  0  0  0  0  0
    1.6501   -1.9611    0.2017 H   0  0  0  0  0  0  0  0  0  0  0  0
    0.2688   -0.6273    2.7020 H   0  0  0  0  0  0  0  0  0  0  0  0
    3.0547    2.4105    3.8318 H   0  0  0  0  0  0  0  0  0  0  0  0
    4.0874    2.3341    1.5706 H   0  0  0  0  0  0  0  0  0  0  0  0
    4.8536   -0.9654    1.0792 H   0  0  0  0  0  0  0  0  0  0  0  0
    7.2899   -1.2887    0.8023 H   0  0  0  0  0  0  0  0  0  0  0  0
    7.6082    2.2625   -3.3333 H   0  0  0  0  0  0  0  0  0  0  0  0
   10.4735   -0.8714   -1.5448 H   0  0  0  0  0  0  0  0  0  0  0  0
    9.4583   -1.4690   -0.2465 H   0  0  0  0  0  0  0  0  0  0  0  0
   11.1107    1.1269   -0.2141 H   0  0  0  0  0  0  0  0  0  0  0  0
    9.9675    0.6785    1.0688 H   0  0  0  0  0  0  0  0  0  0  0  0
   12.1422    0.0658    1.4776 H   0  0  0  0  0  0  0  0  0  0  0  0
    4.7929    1.8929   -2.1516 H   0  0  0  0  0  0  0  0  0  0  0  0
   -3.8024   -2.9823   -0.5162 H   0  0  0  0  0  0  0  0  0  0  0  0
   -4.6803   -5.0847    0.3487 H   0  0  0  0  0  0  0  0  0  0  0  0
  1  2  1  0
  2  3  2  0
  3  4  1  0
  4  5  2  0
  5  6  1  0
  6  7  1  0
  7  8  2  0
  8  9  1  0
  9 10  1  0
  9 11  1  0
  9 12  1  0
  8 13  1  0
 13 14  2  0
 14 15  1  0
 15 16  1  0
 16 17  2  0
 16 18  1  0
 18 19  1  0
 19 20  1  0
 20 21  2  0
 21 22  1  0
 22 23  1  0
 22 24  2  0
 24 25  1  0
 25 26  2  0
 26 27  1  0
 27 28  1  0
 28 29  2  0
 29 30  1  0
 30 31  2  0
 31 32  1  0
 32 33  1  0
 33 34  2  0
 34 35  1  0
 35 36  1  0
 36 37  1  0
 37 38  1  0
 32 39  2  0
  5 40  1  0
 40 41  2  0
 41  2  1  0
 14  6  1  0
 26 20  1  0
 39 28  1  0
 35 31  1  0
  1 42  1  0
  1 43  1  0
  1 44  1  0
  3 45  1  0
  4 46  1  0
 10 47  1  0
 10 48  1  0
 10 49  1  0
 11 50  1  0
 11 51  1  0
 11 52  1  0
 12 53  1  0
 12 54  1  0
 12 55  1  0
 13 56  1  0
 15 57  1  0
 18 58  1  0
 19 59  1  0
 19 60  1  0
 21 61  1  0
 24 62  1  0
 25 63  1  0
 29 64  1  0
 30 65  1  0
 33 66  1  0
 36 67  1  0
 36 68  1  0
 37 69  1  0
 37 70  1  0
 38 71  1  0
 39 72  1  0
 40 73  1  0
 41 74  1  0
M  END
$$$$
