
     RDKit          3D

 47 48  0  0  0  0  0  0  0  0999 V2000
   -4.2928    2.2958    0.4542 C   0  0  0  0  0  0  0  0  0  0  0  0
   -3.2187    1.2965   -0.0212 C   0  0  0  0  0  0  0  0  0  0  0  0
   -2.4764    1.9459   -1.2047 C   0  0  0  0  0  0  0  0  0  0  0  0
   -2.2687    1.0069    1.1546 C   0  0  0  0  0  0  0  0  0  0  0  0
   -1.2898   -0.1445    0.9018 C   0  0  0  0  0  0  0  0  0  0  0  0
    0.0478    0.3586    0.6178 N   0  0  0  0  0  0  0  0  0  0  0  0
    1.1817   -0.3976    0.8120 C   0  0  0  0  0  0  0  0  0  0  0  0
    1.2423   -1.4945    1.3505 O   0  0  0  0  0  0  0  0  0  0  0  0
    2.4679    0.2564    0.2608 C   0  0  0  0  0  0  0  0  0  0  0  0
    2.3768    1.3178   -0.3395 O   0  0  0  0  0  0  0  0  0  0  0  0
    3.5856   -0.5003    0.5397 N   0  0  0  0  0  0  0  0  0  0  0  0
    4.9200   -0.2276    0.2001 C   0  0  0  0  0  0  0  0  0  0  0  0
    5.3246    0.9125   -0.4984 C   0  0  0  0  0  0  0  0  0  0  0  0
    6.6762    1.1150   -0.8006 C   0  0  0  0  0  0  0  0  0  0  0  0
    7.6259    0.1774   -0.4046 C   0  0  0  0  0  0  0  0  0  0  0  0
    9.2860    0.4279   -0.7770 Cl  0  0  0  0  0  0  0  0  0  0  0  0
    7.2361   -0.9626    0.2923 C   0  0  0  0  0  0  0  0  0  0  0  0
    5.8856   -1.1635    0.5935 C   0  0  0  0  0  0  0  0  0  0  0  0
   -1.7504   -1.0976   -0.2063 C   0  0  0  0  0  0  0  0  0  0  0  0
   -3.2798   -1.2044   -0.3258 C   0  0  0  0  0  0  0  0  0  0  0  0
   -3.8789   -1.9212    0.8986 C   0  0  0  0  0  0  0  0  0  0  0  0
   -3.6165   -2.0469   -1.5730 C   0  0  0  0  0  0  0  0  0  0  0  0
   -3.9449    0.0985   -0.4600 N   0  0  0  0  0  0  0  0  0  0  0  0
   -4.8794    1.8884    1.2865 H   0  0  0  0  0  0  0  0  0  0  0  0
   -4.9932    2.5492   -0.3508 H   0  0  0  0  0  0  0  0  0  0  0  0
   -3.8354    3.2303    0.7995 H   0  0  0  0  0  0  0  0  0  0  0  0
   -1.9640    2.8614   -0.8865 H   0  0  0  0  0  0  0  0  0  0  0  0
   -3.1724    2.2244   -2.0053 H   0  0  0  0  0  0  0  0  0  0  0  0
   -1.7236    1.2907   -1.6489 H   0  0  0  0  0  0  0  0  0  0  0  0
   -1.7292    1.9190    1.4435 H   0  0  0  0  0  0  0  0  0  0  0  0
   -2.8729    0.7441    2.0344 H   0  0  0  0  0  0  0  0  0  0  0  0
   -1.2062   -0.7188    1.8340 H   0  0  0  0  0  0  0  0  0  0  0  0
    0.1696    1.1860    0.0378 H   0  0  0  0  0  0  0  0  0  0  0  0
    3.3892   -1.3593    1.0503 H   0  0  0  0  0  0  0  0  0  0  0  0
    4.6137    1.6662   -0.8233 H   0  0  0  0  0  0  0  0  0  0  0  0
    6.9754    2.0071   -1.3447 H   0  0  0  0  0  0  0  0  0  0  0  0
    7.9739   -1.6972    0.6037 H   0  0  0  0  0  0  0  0  0  0  0  0
    5.6018   -2.0606    1.1387 H   0  0  0  0  0  0  0  0  0  0  0  0
   -1.3300   -0.7809   -1.1699 H   0  0  0  0  0  0  0  0  0  0  0  0
   -1.3140   -2.0900   -0.0269 H   0  0  0  0  0  0  0  0  0  0  0  0
   -3.4413   -2.9190    1.0199 H   0  0  0  0  0  0  0  0  0  0  0  0
   -4.9628   -2.0510    0.7922 H   0  0  0  0  0  0  0  0  0  0  0  0
   -3.7081   -1.3753    1.8313 H   0  0  0  0  0  0  0  0  0  0  0  0
   -3.2358   -1.5763   -2.4873 H   0  0  0  0  0  0  0  0  0  0  0  0
   -3.1713   -3.0463   -1.5052 H   0  0  0  0  0  0  0  0  0  0  0  0
   -4.6990   -2.1757   -1.6916 H   0  0  0  0  0  0  0  0  0  0  0  0
   -4.3246    0.2352   -1.3965 H   0  0  0  0  0  0  0  0  0  0  0  0
  1  2  1  0
  2  3  1  0
  2  4  1  0
  4  5  1  0
  5  6  1  0
  6  7  1  0
  7  8  2  0
  7  9  1  0
  9 10  2  0
  9 11  1  0
 11 12  1  0
 12 13  2  0
 13 14  1  0
 14 15  2  0
 15 16  1  0
 15 17  1  0
 17 18  2  0
  5 19  1  0
 19 20  1  0
 20 21  1  0
 20 22  1  0
 20 23  1  0
 23  2  1  0
 18 12  1  0
  1 24  1  0
  1 25  1  0
  1 26  1  0
  3 27  1  0
  3 28  1  0
  3 29  1  0
  4 30  1  0
  4 31  1  0
  5 32  1  0
  6 33  1  0
 11 34  1  0
 13 35  1  0
 14 36  1  0
 17 37  1  0
 18 38  1  0
 19 39  1  0
 19 40  1  0
 21 41  1  0
 21 42  1  0
 21 43  1  0
 22 44  1  0
 22 45  1  0
 22 46  1  0
 23 47  1  0
M  END
$$$$
