
     RDKit          3D

 47 48  0  0  0  0  0  0  0  0999 V2000
    7.5567   -0.3802   -0.3759 C   0  0  0  0  0  0  0  0  0  0  0  0
    6.4718   -0.4286    0.5405 O   0  0  0  0  0  0  0  0  0  0  0  0
    5.2967   -1.0335    0.0030 C   0  0  0  0  0  0  0  0  0  0  0  0
    4.5425   -0.0864   -0.9277 C   0  0  0  0  0  0  0  0  0  0  0  0
    3.2206   -0.6791   -1.4093 C   0  0  0  0  0  0  0  0  0  0  0  0
    2.2314   -0.7855   -0.3538 N   0  0  0  0  0  0  0  0  0  0  0  0
    1.4746    0.3020    0.0366 C   0  0  0  0  0  0  0  0  0  0  0  0
    1.5532    1.3963   -0.5126 O   0  0  0  0  0  0  0  0  0  0  0  0
    0.5337    0.0196    1.2058 C   0  0  0  0  0  0  0  0  0  0  0  0
   -0.0254    1.2970    1.8333 C   0  0  0  0  0  0  0  0  0  0  0  0
   -1.0923    1.9842    0.9817 C   0  0  0  0  0  0  0  0  0  0  0  0
   -1.6862    1.0911   -0.0972 C   0  0  0  0  0  0  0  0  0  0  0  0
   -1.8470   -0.3056    0.3629 N   0  0  0  0  0  0  0  0  0  0  0  0
   -3.2319   -0.6986    1.2718 S   0  0  0  0  0  6  0  0  0  0  0  0
   -3.2592   -2.1357    1.4469 O   0  0  0  0  0  0  0  0  0  0  0  0
   -3.2814    0.1924    2.4108 O   0  0  0  0  0  0  0  0  0  0  0  0
   -4.5667   -0.2886    0.1732 C   0  0  0  0  0  0  0  0  0  0  0  0
   -5.4492    0.7485    0.4959 C   0  0  0  0  0  0  0  0  0  0  0  0
   -6.4945    1.0511   -0.3776 C   0  0  0  0  0  0  0  0  0  0  0  0
   -6.6472    0.3155   -1.5503 C   0  0  0  0  0  0  0  0  0  0  0  0
   -7.6519    0.6105   -2.3851 F   0  0  0  0  0  0  0  0  0  0  0  0
   -5.7756   -0.7223   -1.8696 C   0  0  0  0  0  0  0  0  0  0  0  0
   -4.7277   -1.0321   -1.0027 C   0  0  0  0  0  0  0  0  0  0  0  0
   -0.5810   -0.9562    0.8130 C   0  0  0  0  0  0  0  0  0  0  0  0
    7.7969   -1.3821   -0.7444 H   0  0  0  0  0  0  0  0  0  0  0  0
    8.4304    0.0133    0.1510 H   0  0  0  0  0  0  0  0  0  0  0  0
    7.3337    0.2875   -1.2119 H   0  0  0  0  0  0  0  0  0  0  0  0
    4.6645   -1.2887    0.8601 H   0  0  0  0  0  0  0  0  0  0  0  0
    5.5512   -1.9734   -0.5009 H   0  0  0  0  0  0  0  0  0  0  0  0
    4.3814    0.8732   -0.4219 H   0  0  0  0  0  0  0  0  0  0  0  0
    5.1636    0.1336   -1.8033 H   0  0  0  0  0  0  0  0  0  0  0  0
    2.8088   -0.0487   -2.2055 H   0  0  0  0  0  0  0  0  0  0  0  0
    3.3700   -1.6829   -1.8206 H   0  0  0  0  0  0  0  0  0  0  0  0
    2.2344   -1.6183    0.2214 H   0  0  0  0  0  0  0  0  0  0  0  0
    1.1628   -0.4679    1.9645 H   0  0  0  0  0  0  0  0  0  0  0  0
   -0.4713    1.0366    2.8023 H   0  0  0  0  0  0  0  0  0  0  0  0
    0.7798    2.0082    2.0542 H   0  0  0  0  0  0  0  0  0  0  0  0
   -1.8849    2.3569    1.6416 H   0  0  0  0  0  0  0  0  0  0  0  0
   -0.6675    2.8753    0.5035 H   0  0  0  0  0  0  0  0  0  0  0  0
   -2.6355    1.5072   -0.4472 H   0  0  0  0  0  0  0  0  0  0  0  0
   -1.0429    1.0798   -0.9849 H   0  0  0  0  0  0  0  0  0  0  0  0
   -5.3313    1.3176    1.4154 H   0  0  0  0  0  0  0  0  0  0  0  0
   -7.1928    1.8514   -0.1518 H   0  0  0  0  0  0  0  0  0  0  0  0
   -5.9217   -1.2829   -2.7877 H   0  0  0  0  0  0  0  0  0  0  0  0
   -4.0449   -1.8451   -1.2399 H   0  0  0  0  0  0  0  0  0  0  0  0
   -0.7825   -1.5899    1.6852 H   0  0  0  0  0  0  0  0  0  0  0  0
   -0.2662   -1.6369    0.0139 H   0  0  0  0  0  0  0  0  0  0  0  0
  1  2  1  0
  2  3  1  0
  3  4  1  0
  4  5  1  0
  5  6  1  0
  6  7  1  0
  7  8  2  0
  7  9  1  0
  9 10  1  0
 10 11  1  0
 11 12  1  0
 12 13  1  0
 13 14  1  0
 14 15  2  0
 14 16  2  0
 14 17  1  0
 17 18  2  0
 18 19  1  0
 19 20  2  0
 20 21  1  0
 20 22  1  0
 22 23  2  0
 13 24  1  0
 24  9  1  0
 23 17  1  0
  1 25  1  0
  1 26  1  0
  1 27  1  0
  3 28  1  0
  3 29  1  0
  4 30  1  0
  4 31  1  0
  5 32  1  0
  5 33  1  0
  6 34  1  0
  9 35  1  0
 10 36  1  0
 10 37  1  0
 11 38  1  0
 11 39  1  0
 12 40  1  0
 12 41  1  0
 18 42  1  0
 19 43  1  0
 22 44  1  0
 23 45  1  0
 24 46  1  0
 24 47  1  0
M  END
$$$$
