
     RDKit          3D

 52 54  0  0  0  0  0  0  0  0999 V2000
   -4.3744    2.7087   -0.7383 C   0  0  0  0  0  0  0  0  0  0  0  0
   -4.3442    1.5922    0.2899 C   0  0  0  0  0  0  0  0  0  0  0  0
   -5.1523    0.4055   -0.0818 N   0  0  0  0  0  0  0  0  0  0  0  0
   -6.6176    0.5907    0.0706 C   0  0  0  0  0  0  0  0  0  0  0  0
   -7.1054   -0.2560    1.2331 C   0  0  0  0  0  0  0  0  0  0  0  0
   -4.6805   -0.5538   -1.4055 S   0  0  0  0  0  6  0  0  0  0  0  0
   -4.6426    0.2919   -2.5799 O   0  0  0  0  0  0  0  0  0  0  0  0
   -5.4759   -1.7631   -1.3932 O   0  0  0  0  0  0  0  0  0  0  0  0
   -3.0191   -1.0199   -0.9931 C   0  0  0  0  0  0  0  0  0  0  0  0
   -1.9557   -0.6074   -1.8035 C   0  0  0  0  0  0  0  0  0  0  0  0
   -0.6405   -0.9676   -1.4910 C   0  0  0  0  0  0  0  0  0  0  0  0
   -0.4512   -1.7494   -0.3444 C   0  0  0  0  0  0  0  0  0  0  0  0
   -1.5032   -2.1692    0.4697 C   0  0  0  0  0  0  0  0  0  0  0  0
   -2.8169   -1.8093    0.1475 C   0  0  0  0  0  0  0  0  0  0  0  0
   -1.0415   -2.9139    1.5260 N   0  0  0  0  0  0  0  0  0  0  0  0
    0.2598   -2.9760    1.3640 C   0  0  0  0  0  0  0  0  0  0  0  0
    0.6635   -2.2807    0.2589 N   0  0  0  0  0  0  0  0  0  0  0  0
    2.0382   -2.1348   -0.1779 C   0  0  0  0  0  0  0  0  0  0  0  0
    2.6644   -0.8556    0.3621 C   0  0  0  0  0  0  0  0  0  0  0  0
    4.0990   -0.7150   -0.1026 C   0  0  0  0  0  0  0  0  0  0  0  0
    4.6245   -1.5539   -0.8239 O   0  0  0  0  0  0  0  0  0  0  0  0
    4.6835    0.4411    0.3870 N   0  0  0  0  0  0  0  0  0  0  0  0
    5.9984    0.8999    0.1620 C   0  0  0  0  0  0  0  0  0  0  0  0
    6.3648    2.1094    0.7724 C   0  0  0  0  0  0  0  0  0  0  0  0
    7.6485    2.6337    0.5998 C   0  0  0  0  0  0  0  0  0  0  0  0
    8.5669    1.9487   -0.1834 C   0  0  0  0  0  0  0  0  0  0  0  0
    9.7974    2.4497   -0.3498 F   0  0  0  0  0  0  0  0  0  0  0  0
    8.2240    0.7512   -0.7956 C   0  0  0  0  0  0  0  0  0  0  0  0
    6.9389    0.2260   -0.6231 C   0  0  0  0  0  0  0  0  0  0  0  0
   -3.9224    3.6132   -0.3180 H   0  0  0  0  0  0  0  0  0  0  0  0
   -3.7974    2.4488   -1.6298 H   0  0  0  0  0  0  0  0  0  0  0  0
   -5.3937    2.9538   -1.0507 H   0  0  0  0  0  0  0  0  0  0  0  0
   -4.7209    1.9754    1.2466 H   0  0  0  0  0  0  0  0  0  0  0  0
   -3.3103    1.2915    0.4869 H   0  0  0  0  0  0  0  0  0  0  0  0
   -7.1485    0.3119   -0.8461 H   0  0  0  0  0  0  0  0  0  0  0  0
   -6.8640    1.6413    0.2588 H   0  0  0  0  0  0  0  0  0  0  0  0
   -6.9017   -1.3182    1.0632 H   0  0  0  0  0  0  0  0  0  0  0  0
   -6.6082    0.0341    2.1648 H   0  0  0  0  0  0  0  0  0  0  0  0
   -8.1842   -0.1324    1.3682 H   0  0  0  0  0  0  0  0  0  0  0  0
   -2.1428   -0.0066   -2.6924 H   0  0  0  0  0  0  0  0  0  0  0  0
    0.1867   -0.6582   -2.1216 H   0  0  0  0  0  0  0  0  0  0  0  0
   -3.6438   -2.1370    0.7691 H   0  0  0  0  0  0  0  0  0  0  0  0
    0.9479   -3.5023    2.0134 H   0  0  0  0  0  0  0  0  0  0  0  0
    2.5900   -3.0190    0.1640 H   0  0  0  0  0  0  0  0  0  0  0  0
    2.0451   -2.1554   -1.2738 H   0  0  0  0  0  0  0  0  0  0  0  0
    2.1001    0.0202    0.0202 H   0  0  0  0  0  0  0  0  0  0  0  0
    2.6501   -0.8602    1.4588 H   0  0  0  0  0  0  0  0  0  0  0  0
    4.1081    1.0302    0.9771 H   0  0  0  0  0  0  0  0  0  0  0  0
    5.6603    2.6609    1.3897 H   0  0  0  0  0  0  0  0  0  0  0  0
    7.9361    3.5685    1.0701 H   0  0  0  0  0  0  0  0  0  0  0  0
    8.9550    0.2288   -1.4048 H   0  0  0  0  0  0  0  0  0  0  0  0
    6.7079   -0.7123   -1.1175 H   0  0  0  0  0  0  0  0  0  0  0  0
  1  2  1  0
  2  3  1  0
  3  4  1  0
  4  5  1  0
  3  6  1  0
  6  7  2  0
  6  8  2  0
  6  9  1  0
  9 10  2  0
 10 11  1  0
 11 12  2  0
 12 13  1  0
 13 14  2  0
 13 15  1  0
 15 16  2  0
 16 17  1  0
 17 18  1  0
 18 19  1  0
 19 20  1  0
 20 21  2  0
 20 22  1  0
 22 23  1  0
 23 24  2  0
 24 25  1  0
 25 26  2  0
 26 27  1  0
 26 28  1  0
 28 29  2  0
 14  9  1  0
 29 23  1  0
 17 12  1  0
  1 30  1  0
  1 31  1  0
  1 32  1  0
  2 33  1  0
  2 34  1  0
  4 35  1  0
  4 36  1  0
  5 37  1  0
  5 38  1  0
  5 39  1  0
 10 40  1  0
 11 41  1  0
 14 42  1  0
 16 43  1  0
 18 44  1  0
 18 45  1  0
 19 46  1  0
 19 47  1  0
 22 48  1  0
 24 49  1  0
 25 50  1  0
 28 51  1  0
 29 52  1  0
M  END
$$$$
