
     RDKit          3D

 46 48  0  0  0  0  0  0  0  0999 V2000
    4.1049   -1.7413    3.1374 C   0  0  0  0  0  0  0  0  0  0  0  0
    3.6129   -1.0344    1.9968 O   0  0  0  0  0  0  0  0  0  0  0  0
    4.0490    0.2571    1.9154 C   0  0  0  0  0  0  0  0  0  0  0  0
    4.7304    0.7976    2.7787 O   0  0  0  0  0  0  0  0  0  0  0  0
    3.5277    0.8947    0.7205 C   0  0  0  0  0  0  0  0  0  0  0  0
    3.2641    2.5963    0.7750 S   0  0  0  0  0  0  0  0  0  0  0  0
    2.6520    2.6348   -0.8169 C   0  0  0  0  0  0  0  0  0  0  0  0
    2.6629    1.3902   -1.4010 C   0  0  0  0  0  0  0  0  0  0  0  0
    3.1818    0.3858   -0.5214 C   0  0  0  0  0  0  0  0  0  0  0  0
    3.3511   -1.2782   -1.0018 S   0  0  0  0  0  6  0  0  0  0  0  0
    4.6522   -1.6540   -0.4931 O   0  0  0  0  0  0  0  0  0  0  0  0
    3.0766   -1.2786   -2.4230 O   0  0  0  0  0  0  0  0  0  0  0  0
    2.1736   -2.1903   -0.1873 N   0  0  0  0  0  0  0  0  0  0  0  0
    0.8101   -1.8606   -0.5004 C   0  0  0  0  0  0  0  0  0  0  0  0
    0.2611   -2.2788   -1.7097 C   0  0  0  0  0  0  0  0  0  0  0  0
   -1.0417   -1.9078   -2.0453 C   0  0  0  0  0  0  0  0  0  0  0  0
   -1.8114   -1.1185   -1.1803 C   0  0  0  0  0  0  0  0  0  0  0  0
   -3.1018   -0.7305   -1.5810 N   0  0  0  0  0  0  0  0  0  0  0  0
   -3.8646    0.4178   -1.3012 C   0  0  0  0  0  0  0  0  0  0  0  0
   -3.2979    1.6312   -0.8940 C   0  0  0  0  0  0  0  0  0  0  0  0
   -4.1000    2.7344   -0.5865 C   0  0  0  0  0  0  0  0  0  0  0  0
   -5.4859    2.6354   -0.6727 C   0  0  0  0  0  0  0  0  0  0  0  0
   -6.0686    1.4346   -1.0676 C   0  0  0  0  0  0  0  0  0  0  0  0
   -5.2627    0.3351   -1.3761 C   0  0  0  0  0  0  0  0  0  0  0  0
   -1.2427   -0.7030    0.0334 C   0  0  0  0  0  0  0  0  0  0  0  0
    0.0625   -1.0642    0.3818 C   0  0  0  0  0  0  0  0  0  0  0  0
    0.6985   -0.7087    1.5449 O   0  0  0  0  0  0  0  0  0  0  0  0
    0.0128    0.1923    2.4076 C   0  0  0  0  0  0  0  0  0  0  0  0
    5.1992   -1.7620    3.1363 H   0  0  0  0  0  0  0  0  0  0  0  0
    3.7229   -1.2909    4.0586 H   0  0  0  0  0  0  0  0  0  0  0  0
    3.7402   -2.7705    3.0785 H   0  0  0  0  0  0  0  0  0  0  0  0
    2.3242    3.5687   -1.2541 H   0  0  0  0  0  0  0  0  0  0  0  0
    2.3278    1.2064   -2.4165 H   0  0  0  0  0  0  0  0  0  0  0  0
    2.3566   -2.1089    0.8190 H   0  0  0  0  0  0  0  0  0  0  0  0
    0.8448   -2.8827   -2.4002 H   0  0  0  0  0  0  0  0  0  0  0  0
   -1.4453   -2.2282   -3.0030 H   0  0  0  0  0  0  0  0  0  0  0  0
   -3.5344   -1.3501   -2.2576 H   0  0  0  0  0  0  0  0  0  0  0  0
   -2.2188    1.7464   -0.8459 H   0  0  0  0  0  0  0  0  0  0  0  0
   -3.6395    3.6718   -0.2857 H   0  0  0  0  0  0  0  0  0  0  0  0
   -6.1101    3.4924   -0.4341 H   0  0  0  0  0  0  0  0  0  0  0  0
   -7.1502    1.3497   -1.1321 H   0  0  0  0  0  0  0  0  0  0  0  0
   -5.7401   -0.5976   -1.6661 H   0  0  0  0  0  0  0  0  0  0  0  0
   -1.8561   -0.1197    0.7115 H   0  0  0  0  0  0  0  0  0  0  0  0
    0.6780    0.4203    3.2460 H   0  0  0  0  0  0  0  0  0  0  0  0
   -0.8926   -0.2679    2.8159 H   0  0  0  0  0  0  0  0  0  0  0  0
   -0.2140    1.1344    1.8973 H   0  0  0  0  0  0  0  0  0  0  0  0
  1  2  1  0
  2  3  1  0
  3  4  2  0
  3  5  1  0
  5  6  1  0
  6  7  1  0
  7  8  2  0
  8  9  1  0
  9 10  1  0
 10 11  2  0
 10 12  2  0
 10 13  1  0
 13 14  1  0
 14 15  2  0
 15 16  1  0
 16 17  2  0
 17 18  1  0
 18 19  1  0
 19 20  2  0
 20 21  1  0
 21 22  2  0
 22 23  1  0
 23 24  2  0
 17 25  1  0
 25 26  2  0
 26 27  1  0
 27 28  1  0
  9  5  2  0
 26 14  1  0
 24 19  1  0
  1 29  1  0
  1 30  1  0
  1 31  1  0
  7 32  1  0
  8 33  1  0
 13 34  1  0
 15 35  1  0
 16 36  1  0
 18 37  1  0
 20 38  1  0
 21 39  1  0
 22 40  1  0
 23 41  1  0
 24 42  1  0
 25 43  1  0
 28 44  1  0
 28 45  1  0
 28 46  1  0
M  END
$$$$
