
     RDKit          3D

 85 90  0  0  0  0  0  0  0  0999 V2000
   -5.2055    4.7040    5.6714 C   0  0  0  0  0  0  0  0  0  0  0  0
   -4.2237    5.3932    5.0746 C   0  0  0  0  0  0  0  0  0  0  0  0
   -3.4508    4.9274    3.8891 C   0  0  0  0  0  0  0  0  0  0  0  0
   -2.2792    5.2705    3.7906 O   0  0  0  0  0  0  0  0  0  0  0  0
   -4.1941    4.1953    2.9924 N   0  0  0  0  0  0  0  0  0  0  0  0
   -3.7469    3.5875    1.8018 C   0  0  0  0  0  0  0  0  0  0  0  0
   -4.7074    2.9473    1.0103 C   0  0  0  0  0  0  0  0  0  0  0  0
   -4.3445    2.3135   -0.1822 C   0  0  0  0  0  0  0  0  0  0  0  0
   -3.0113    2.3034   -0.6085 C   0  0  0  0  0  0  0  0  0  0  0  0
   -2.6146    1.6088   -1.8962 C   0  0  0  0  0  0  0  0  0  0  0  0
   -2.4323    0.1643   -1.7420 N   0  0  0  0  0  0  0  0  0  0  0  0
   -3.5432   -0.6632   -1.8946 C   0  0  0  0  0  0  0  0  0  0  0  0
   -4.6273   -0.1921   -2.2492 O   0  0  0  0  0  0  0  0  0  0  0  0
   -3.3594   -2.0276   -1.6297 N   0  0  0  0  0  0  0  0  0  0  0  0
   -4.4774   -2.9400   -1.5637 C   0  0  0  0  0  0  0  0  0  0  0  0
   -4.3342   -4.2972   -1.8928 C   0  0  0  0  0  0  0  0  0  0  0  0
   -5.4062   -5.1948   -1.8067 C   0  0  0  0  0  0  0  0  0  0  0  0
   -5.0974   -6.4784   -2.1722 O   0  0  0  0  0  0  0  0  0  0  0  0
   -6.1697   -7.4101   -2.2343 C   0  0  0  0  0  0  0  0  0  0  0  0
   -6.6499   -4.7472   -1.3664 C   0  0  0  0  0  0  0  0  0  0  0  0
   -6.8189   -3.4059   -1.0222 C   0  0  0  0  0  0  0  0  0  0  0  0
   -7.9768   -2.8410   -0.5531 O   0  0  0  0  0  0  0  0  0  0  0  0
   -9.1469   -3.6461   -0.5761 C   0  0  0  0  0  0  0  0  0  0  0  0
   -5.7380   -2.5189   -1.1205 C   0  0  0  0  0  0  0  0  0  0  0  0
   -2.0255   -2.6006   -1.6735 C   0  0  0  0  0  0  0  0  0  0  0  0
   -0.9585   -1.6540   -1.2946 C   0  0  0  0  0  0  0  0  0  0  0  0
    0.3082   -2.0587   -0.9513 C   0  0  0  0  0  0  0  0  0  0  0  0
    1.3135   -1.2079   -0.6996 N   0  0  0  0  0  0  0  0  0  0  0  0
    1.0516    0.0989   -0.8023 C   0  0  0  0  0  0  0  0  0  0  0  0
    2.0257    1.0668   -0.5794 N   0  0  0  0  0  0  0  0  0  0  0  0
    3.4067    1.0182   -0.3690 C   0  0  0  0  0  0  0  0  0  0  0  0
    4.1469   -0.1578   -0.2788 C   0  0  0  0  0  0  0  0  0  0  0  0
    5.5367   -0.1318   -0.0712 C   0  0  0  0  0  0  0  0  0  0  0  0
    6.2535    1.0655    0.0596 C   0  0  0  0  0  0  0  0  0  0  0  0
    7.6241    1.0744    0.2535 N   0  0  0  0  0  0  0  0  0  0  0  0
    8.3403    2.2804    0.6997 C   0  0  0  0  0  0  0  0  0  0  0  0
    9.7131    1.8995    1.3032 C   0  0  0  0  0  0  0  0  0  0  0  0
   10.6236    1.2102    0.3610 N   0  0  0  0  0  0  0  0  0  0  0  0
   11.5635    0.3600    1.0859 C   0  0  0  0  0  0  0  0  0  0  0  0
    9.8666    0.4509   -0.6557 C   0  0  0  0  0  0  0  0  0  0  0  0
    8.4615   -0.0387   -0.2279 C   0  0  0  0  0  0  0  0  0  0  0  0
    5.4957    2.2409   -0.0033 C   0  0  0  0  0  0  0  0  0  0  0  0
    4.1066    2.2197   -0.2120 C   0  0  0  0  0  0  0  0  0  0  0  0
   -0.1584    0.5737   -1.1384 N   0  0  0  0  0  0  0  0  0  0  0  0
   -1.1549   -0.3049   -1.3702 C   0  0  0  0  0  0  0  0  0  0  0  0
   -2.0533    2.9401    0.1897 C   0  0  0  0  0  0  0  0  0  0  0  0
   -2.4170    3.5764    1.3835 C   0  0  0  0  0  0  0  0  0  0  0  0
   -5.5257    3.7242    5.3337 H   0  0  0  0  0  0  0  0  0  0  0  0
   -5.6878    5.1004    6.5592 H   0  0  0  0  0  0  0  0  0  0  0  0
   -3.8755    6.3350    5.4893 H   0  0  0  0  0  0  0  0  0  0  0  0
   -5.1835    4.1123    3.1794 H   0  0  0  0  0  0  0  0  0  0  0  0
   -5.7538    2.9294    1.3033 H   0  0  0  0  0  0  0  0  0  0  0  0
   -5.1146    1.8267   -0.7782 H   0  0  0  0  0  0  0  0  0  0  0  0
   -3.3924    1.8011   -2.6473 H   0  0  0  0  0  0  0  0  0  0  0  0
   -1.7102    2.0650   -2.3189 H   0  0  0  0  0  0  0  0  0  0  0  0
   -3.3925   -4.6959   -2.2583 H   0  0  0  0  0  0  0  0  0  0  0  0
   -6.9458   -7.0774   -2.9322 H   0  0  0  0  0  0  0  0  0  0  0  0
   -5.7678   -8.3560   -2.6124 H   0  0  0  0  0  0  0  0  0  0  0  0
   -6.5853   -7.5975   -1.2380 H   0  0  0  0  0  0  0  0  0  0  0  0
   -7.4765   -5.4391   -1.2788 H   0  0  0  0  0  0  0  0  0  0  0  0
   -9.3742   -3.9859   -1.5917 H   0  0  0  0  0  0  0  0  0  0  0  0
   -9.0541   -4.4915    0.1151 H   0  0  0  0  0  0  0  0  0  0  0  0
   -9.9835   -3.0281   -0.2325 H   0  0  0  0  0  0  0  0  0  0  0  0
   -5.9046   -1.4901   -0.8103 H   0  0  0  0  0  0  0  0  0  0  0  0
   -1.8423   -2.9549   -2.6953 H   0  0  0  0  0  0  0  0  0  0  0  0
   -1.9848   -3.4471   -0.9774 H   0  0  0  0  0  0  0  0  0  0  0  0
    0.5715   -3.1101   -0.8758 H   0  0  0  0  0  0  0  0  0  0  0  0
    1.6233    1.9812   -0.7174 H   0  0  0  0  0  0  0  0  0  0  0  0
    3.6702   -1.1289   -0.3672 H   0  0  0  0  0  0  0  0  0  0  0  0
    6.0459   -1.0890    0.0084 H   0  0  0  0  0  0  0  0  0  0  0  0
    8.4746    2.9704   -0.1421 H   0  0  0  0  0  0  0  0  0  0  0  0
    7.7704    2.7974    1.4817 H   0  0  0  0  0  0  0  0  0  0  0  0
    9.5209    1.2648    2.1806 H   0  0  0  0  0  0  0  0  0  0  0  0
   10.2089    2.8075    1.6654 H   0  0  0  0  0  0  0  0  0  0  0  0
   11.0618   -0.4632    1.6068 H   0  0  0  0  0  0  0  0  0  0  0  0
   12.3030   -0.0676    0.3991 H   0  0  0  0  0  0  0  0  0  0  0  0
   12.1241    0.9454    1.8237 H   0  0  0  0  0  0  0  0  0  0  0  0
    9.7386    1.1213   -1.5167 H   0  0  0  0  0  0  0  0  0  0  0  0
   10.4519   -0.3964   -1.0341 H   0  0  0  0  0  0  0  0  0  0  0  0
    8.0098   -0.5211   -1.1036 H   0  0  0  0  0  0  0  0  0  0  0  0
    8.5530   -0.7914    0.5653 H   0  0  0  0  0  0  0  0  0  0  0  0
    5.9710    3.2135    0.0851 H   0  0  0  0  0  0  0  0  0  0  0  0
    3.5804    3.1702   -0.2571 H   0  0  0  0  0  0  0  0  0  0  0  0
   -1.0072    2.9439   -0.1066 H   0  0  0  0  0  0  0  0  0  0  0  0
   -1.6317    4.0473    1.9671 H   0  0  0  0  0  0  0  0  0  0  0  0
  1  2  2  3
  2  3  1  0
  3  4  2  0
  3  5  1  0
  5  6  1  0
  6  7  2  0
  7  8  1  0
  8  9  2  0
  9 10  1  0
 10 11  1  0
 11 12  1  0
 12 13  2  0
 12 14  1  0
 14 15  1  0
 15 16  2  0
 16 17  1  0
 17 18  1  0
 18 19  1  0
 17 20  2  0
 20 21  1  0
 21 22  1  0
 22 23  1  0
 21 24  2  0
 14 25  1  0
 25 26  1  0
 26 27  2  0
 27 28  1  0
 28 29  2  0
 29 30  1  0
 30 31  1  0
 31 32  2  0
 32 33  1  0
 33 34  2  0
 34 35  1  0
 35 36  1  0
 36 37  1  0
 37 38  1  0
 38 39  1  0
 38 40  1  0
 40 41  1  0
 34 42  1  0
 42 43  2  0
 29 44  1  0
 44 45  2  0
  9 46  1  0
 46 47  2  0
 47  6  1  0
 45 11  1  0
 24 15  1  0
 45 26  1  0
 43 31  1  0
 41 35  1  0
  1 48  1  0
  1 49  1  0
  2 50  1  0
  5 51  1  0
  7 52  1  0
  8 53  1  0
 10 54  1  0
 10 55  1  0
 16 56  1  0
 19 57  1  0
 19 58  1  0
 19 59  1  0
 20 60  1  0
 23 61  1  0
 23 62  1  0
 23 63  1  0
 24 64  1  0
 25 65  1  0
 25 66  1  0
 27 67  1  0
 30 68  1  0
 32 69  1  0
 33 70  1  0
 36 71  1  0
 36 72  1  0
 37 73  1  0
 37 74  1  0
 39 75  1  0
 39 76  1  0
 39 77  1  0
 40 78  1  0
 40 79  1  0
 41 80  1  0
 41 81  1  0
 42 82  1  0
 43 83  1  0
 46 84  1  0
 47 85  1  0
M  END
$$$$
