
     RDKit          3D

 34 36  0  0  0  0  0  0  0  0999 V2000
    6.0846   -0.6614    0.9144 C   0  0  0  0  0  0  0  0  0  0  0  0
    5.4407    0.0449   -0.1383 O   0  0  0  0  0  0  0  0  0  0  0  0
    4.0762    0.1160   -0.0913 C   0  0  0  0  0  0  0  0  0  0  0  0
    3.2561   -0.4619    0.8762 C   0  0  0  0  0  0  0  0  0  0  0  0
    1.8650   -0.3103    0.8019 C   0  0  0  0  0  0  0  0  0  0  0  0
    1.2713    0.4257   -0.2343 C   0  0  0  0  0  0  0  0  0  0  0  0
   -0.1999    0.5467   -0.3029 C   0  0  0  0  0  0  0  0  0  0  0  0
   -0.8509   -0.6675   -0.1180 O   0  0  0  0  0  0  0  0  0  0  0  0
   -2.2219   -0.6990   -0.1623 C   0  0  0  0  0  0  0  0  0  0  0  0
   -2.8301   -1.9439    0.0095 C   0  0  0  0  0  0  0  0  0  0  0  0
   -4.2196   -2.0318   -0.0239 C   0  0  0  0  0  0  0  0  0  0  0  0
   -4.8580   -3.2257    0.1382 O   0  0  0  0  0  0  0  0  0  0  0  0
   -5.0055   -0.9001   -0.2243 C   0  0  0  0  0  0  0  0  0  0  0  0
   -4.3935    0.3383   -0.3955 C   0  0  0  0  0  0  0  0  0  0  0  0
   -5.2151    1.4153   -0.5887 O   0  0  0  0  0  0  0  0  0  0  0  0
   -2.9996    0.4383   -0.3653 C   0  0  0  0  0  0  0  0  0  0  0  0
   -2.3150    1.7203   -0.5419 C   0  0  0  0  0  0  0  0  0  0  0  0
   -2.9317    2.7689   -0.7168 O   0  0  0  0  0  0  0  0  0  0  0  0
   -0.8345    1.7166   -0.5028 C   0  0  0  0  0  0  0  0  0  0  0  0
   -0.1974    2.9333   -0.6597 O   0  0  0  0  0  0  0  0  0  0  0  0
    2.1042    0.9944   -1.2054 C   0  0  0  0  0  0  0  0  0  0  0  0
    3.4925    0.8419   -1.1306 C   0  0  0  0  0  0  0  0  0  0  0  0
    5.8852   -0.1936    1.8842 H   0  0  0  0  0  0  0  0  0  0  0  0
    7.1635   -0.6141    0.7377 H   0  0  0  0  0  0  0  0  0  0  0  0
    5.7936   -1.7170    0.9167 H   0  0  0  0  0  0  0  0  0  0  0  0
    3.6620   -1.0371    1.7013 H   0  0  0  0  0  0  0  0  0  0  0  0
    1.2472   -0.7704    1.5704 H   0  0  0  0  0  0  0  0  0  0  0  0
   -2.2141   -2.8241    0.1655 H   0  0  0  0  0  0  0  0  0  0  0  0
   -4.1993   -3.9301    0.2557 H   0  0  0  0  0  0  0  0  0  0  0  0
   -6.0887   -0.9829   -0.2475 H   0  0  0  0  0  0  0  0  0  0  0  0
   -4.6593    2.2190   -0.6924 H   0  0  0  0  0  0  0  0  0  0  0  0
   -0.9157    3.5927   -0.7596 H   0  0  0  0  0  0  0  0  0  0  0  0
    1.6843    1.5635   -2.0317 H   0  0  0  0  0  0  0  0  0  0  0  0
    4.1234    1.2953   -1.8914 H   0  0  0  0  0  0  0  0  0  0  0  0
  1  2  1  0
  2  3  1  0
  3  4  2  0
  4  5  1  0
  5  6  2  0
  6  7  1  0
  7  8  1  0
  8  9  1  0
  9 10  2  0
 10 11  1  0
 11 12  1  0
 11 13  2  0
 13 14  1  0
 14 15  1  0
 14 16  2  0
 16 17  1  0
 17 18  2  0
 17 19  1  0
 19 20  1  0
  6 21  1  0
 21 22  2  0
 22  3  1  0
 19  7  2  0
 16  9  1  0
  1 23  1  0
  1 24  1  0
  1 25  1  0
  4 26  1  0
  5 27  1  0
 10 28  1  0
 12 29  1  0
 13 30  1  0
 15 31  1  0
 20 32  1  0
 21 33  1  0
 22 34  1  0
M  END
$$$$
