
     RDKit          3D

 62 67  0  0  0  0  0  0  0  0999 V2000
    7.5009    1.8442    1.3082 C   0  0  0  0  0  0  0  0  0  0  0  0
    7.3712    0.0782    1.5185 S   0  0  0  0  0  6  0  0  0  0  0  0
    7.1770   -0.1879    2.9277 O   0  0  0  0  0  0  0  0  0  0  0  0
    8.4548   -0.5343    0.7796 O   0  0  0  0  0  0  0  0  0  0  0  0
    5.9360   -0.2854    0.7203 N   0  0  0  0  0  0  0  0  0  0  0  0
    4.6608    0.0729    1.3949 C   0  0  0  0  0  0  0  0  0  0  0  0
    3.4620   -0.2500    0.4852 C   0  0  0  0  0  0  0  0  0  0  0  0
    3.4611    0.5287   -0.7761 N   0  0  0  0  0  0  0  0  0  0  0  0
    2.6321   -0.1180   -1.8073 C   0  0  0  0  0  0  0  0  0  0  0  0
    1.1755   -0.1292   -1.4329 C   0  0  0  0  0  0  0  0  0  0  0  0
    0.3779    0.9338   -1.0797 C   0  0  0  0  0  0  0  0  0  0  0  0
   -0.9585    0.5449   -0.7731 C   0  0  0  0  0  0  0  0  0  0  0  0
   -1.9077    1.4235   -0.3912 N   0  0  0  0  0  0  0  0  0  0  0  0
   -3.1036    0.8996   -0.1504 C   0  0  0  0  0  0  0  0  0  0  0  0
   -4.1984    1.7988    0.2619 C   0  0  0  0  0  0  0  0  0  0  0  0
   -5.4993    1.3108    0.5475 C   0  0  0  0  0  0  0  0  0  0  0  0
   -6.5487    2.1460    0.9374 C   0  0  0  0  0  0  0  0  0  0  0  0
   -6.3583    3.5195    1.0625 C   0  0  0  0  0  0  0  0  0  0  0  0
   -5.0808    4.0098    0.7829 C   0  0  0  0  0  0  0  0  0  0  0  0
   -4.5889    5.2890    0.8135 N   0  0  0  0  0  0  0  0  0  0  0  0
   -3.2938    5.3903    0.4817 N   0  0  0  0  0  0  0  0  0  0  0  0
   -2.9454    4.1257    0.2274 C   0  0  0  0  0  0  0  0  0  0  0  0
   -4.0120    3.2014    0.3933 C   0  0  0  0  0  0  0  0  0  0  0  0
   -3.3968   -0.4085   -0.2531 N   0  0  0  0  0  0  0  0  0  0  0  0
   -2.4722   -1.3426   -0.6244 C   0  0  0  0  0  0  0  0  0  0  0  0
   -2.9310   -2.6739   -0.7203 N   0  0  0  0  0  0  0  0  0  0  0  0
   -1.9616   -3.7827   -0.6904 C   0  0  0  0  0  0  0  0  0  0  0  0
   -2.6548   -5.1450   -0.8672 C   0  0  0  0  0  0  0  0  0  0  0  0
   -3.7131   -5.3380    0.0758 O   0  0  0  0  0  0  0  0  0  0  0  0
   -4.7043   -4.3204   -0.1103 C   0  0  0  0  0  0  0  0  0  0  0  0
   -4.1229   -2.9220    0.1315 C   0  0  0  0  0  0  0  0  0  0  0  0
   -1.1821   -0.8270   -0.9071 C   0  0  0  0  0  0  0  0  0  0  0  0
    0.2875   -1.5803   -1.4232 S   0  0  0  0  0  0  0  0  0  0  0  0
    4.8352    0.7787   -1.2590 C   0  0  0  0  0  0  0  0  0  0  0  0
    5.9045   -0.2132   -0.7639 C   0  0  0  0  0  0  0  0  0  0  0  0
    6.6568    2.3314    1.7976 H   0  0  0  0  0  0  0  0  0  0  0  0
    8.4316    2.1672    1.7801 H   0  0  0  0  0  0  0  0  0  0  0  0
    7.5307    2.0800    0.2434 H   0  0  0  0  0  0  0  0  0  0  0  0
    4.5686   -0.5106    2.3169 H   0  0  0  0  0  0  0  0  0  0  0  0
    4.6509    1.1364    1.6543 H   0  0  0  0  0  0  0  0  0  0  0  0
    3.4792   -1.3275    0.2723 H   0  0  0  0  0  0  0  0  0  0  0  0
    2.5400   -0.0393    1.0387 H   0  0  0  0  0  0  0  0  0  0  0  0
    2.7046    0.4510   -2.7443 H   0  0  0  0  0  0  0  0  0  0  0  0
    3.0031   -1.1280   -2.0250 H   0  0  0  0  0  0  0  0  0  0  0  0
    0.7362    1.9539   -1.0244 H   0  0  0  0  0  0  0  0  0  0  0  0
   -5.6996    0.2430    0.4605 H   0  0  0  0  0  0  0  0  0  0  0  0
   -7.5268    1.7168    1.1437 H   0  0  0  0  0  0  0  0  0  0  0  0
   -7.1708    4.1736    1.3633 H   0  0  0  0  0  0  0  0  0  0  0  0
   -5.0897    6.1364    1.0537 H   0  0  0  0  0  0  0  0  0  0  0  0
   -1.9244    3.9256   -0.0701 H   0  0  0  0  0  0  0  0  0  0  0  0
   -1.4219   -3.7723    0.2645 H   0  0  0  0  0  0  0  0  0  0  0  0
   -1.2548   -3.7107   -1.5179 H   0  0  0  0  0  0  0  0  0  0  0  0
   -3.0571   -5.2481   -1.8824 H   0  0  0  0  0  0  0  0  0  0  0  0
   -1.9269   -5.9495   -0.7204 H   0  0  0  0  0  0  0  0  0  0  0  0
   -5.1239   -4.4041   -1.1205 H   0  0  0  0  0  0  0  0  0  0  0  0
   -5.5143   -4.5122    0.6012 H   0  0  0  0  0  0  0  0  0  0  0  0
   -4.9267   -2.2044   -0.0722 H   0  0  0  0  0  0  0  0  0  0  0  0
   -3.8292   -2.8355    1.1863 H   0  0  0  0  0  0  0  0  0  0  0  0
    5.1138    1.7793   -0.9026 H   0  0  0  0  0  0  0  0  0  0  0  0
    4.8739    0.8403   -2.3537 H   0  0  0  0  0  0  0  0  0  0  0  0
    5.6971   -1.2182   -1.1502 H   0  0  0  0  0  0  0  0  0  0  0  0
    6.8773    0.0883   -1.1661 H   0  0  0  0  0  0  0  0  0  0  0  0
  1  2  1  0
  2  3  2  0
  2  4  2  0
  2  5  1  0
  5  6  1  0
  6  7  1  0
  7  8  1  0
  8  9  1  0
  9 10  1  0
 10 11  2  0
 11 12  1  0
 12 13  2  0
 13 14  1  0
 14 15  1  0
 15 16  2  0
 16 17  1  0
 17 18  2  0
 18 19  1  0
 19 20  1  0
 20 21  1  0
 21 22  2  0
 22 23  1  0
 14 24  2  0
 24 25  1  0
 25 26  1  0
 26 27  1  0
 27 28  1  0
 28 29  1  0
 29 30  1  0
 30 31  1  0
 25 32  2  0
 32 33  1  0
  8 34  1  0
 34 35  1  0
 35  5  1  0
 33 10  1  0
 32 12  1  0
 23 15  1  0
 31 26  1  0
 23 19  2  0
  1 36  1  0
  1 37  1  0
  1 38  1  0
  6 39  1  0
  6 40  1  0
  7 41  1  0
  7 42  1  0
  9 43  1  0
  9 44  1  0
 11 45  1  0
 16 46  1  0
 17 47  1  0
 18 48  1  0
 20 49  1  0
 22 50  1  0
 27 51  1  0
 27 52  1  0
 28 53  1  0
 28 54  1  0
 30 55  1  0
 30 56  1  0
 31 57  1  0
 31 58  1  0
 34 59  1  0
 34 60  1  0
 35 61  1  0
 35 62  1  0
M  END
$$$$
