
     RDKit          3D

 38 39  0  0  0  0  0  0  0  0999 V2000
   -1.6638    1.2549   -2.2831 C   0  0  0  0  0  0  0  0  0  0  0  0
   -1.0825    0.8452   -1.0133 N   0  0  0  0  0  0  0  0  0  0  0  0
   -1.7998    1.2611    0.2002 C   0  0  0  0  0  0  0  0  0  0  0  0
   -3.1660    0.5716    0.3768 C   0  0  0  0  0  0  0  0  0  0  0  0
   -3.0753   -0.9201    0.6379 C   0  0  0  0  0  0  0  0  0  0  0  0
   -2.7727   -0.9910    2.1206 C   0  0  0  0  0  0  0  0  0  0  0  0
   -3.3023    0.2056    2.7130 O   0  0  0  0  0  0  0  0  0  0  0  0
   -3.8260    1.0358    1.6665 C   0  0  0  0  0  0  0  0  0  0  0  0
   -0.1317   -0.1674   -1.0622 C   0  0  0  0  0  0  0  0  0  0  0  0
    0.1691   -0.7480   -2.1019 O   0  0  0  0  0  0  0  0  0  0  0  0
    0.4364   -0.4831    0.1441 N   0  0  0  0  0  0  0  0  0  0  0  0
    1.4637   -1.4981    0.2359 C   0  0  0  0  0  0  0  0  0  0  0  0
    2.8424   -0.8860    0.1913 C   0  0  0  0  0  0  0  0  0  0  0  0
    3.4350   -0.5671   -1.0413 C   0  0  0  0  0  0  0  0  0  0  0  0
    4.6997    0.0205   -1.0872 C   0  0  0  0  0  0  0  0  0  0  0  0
    5.3702    0.2946    0.0981 C   0  0  0  0  0  0  0  0  0  0  0  0
    6.5838    0.8598    0.0551 F   0  0  0  0  0  0  0  0  0  0  0  0
    4.7989   -0.0051    1.3293 C   0  0  0  0  0  0  0  0  0  0  0  0
    3.5334   -0.5922    1.3780 C   0  0  0  0  0  0  0  0  0  0  0  0
   -1.9905    2.2967   -2.2184 H   0  0  0  0  0  0  0  0  0  0  0  0
   -2.5169    0.6093   -2.5105 H   0  0  0  0  0  0  0  0  0  0  0  0
   -0.9334    1.1704   -3.0936 H   0  0  0  0  0  0  0  0  0  0  0  0
   -1.1811    1.1077    1.0878 H   0  0  0  0  0  0  0  0  0  0  0  0
   -1.9460    2.3461    0.1237 H   0  0  0  0  0  0  0  0  0  0  0  0
   -3.8017    0.7922   -0.4870 H   0  0  0  0  0  0  0  0  0  0  0  0
   -2.3498   -1.4621    0.0280 H   0  0  0  0  0  0  0  0  0  0  0  0
   -4.0561   -1.3761    0.4513 H   0  0  0  0  0  0  0  0  0  0  0  0
   -3.2257   -1.8657    2.5962 H   0  0  0  0  0  0  0  0  0  0  0  0
   -1.6953   -1.0115    2.3125 H   0  0  0  0  0  0  0  0  0  0  0  0
   -3.6414    2.0874    1.9050 H   0  0  0  0  0  0  0  0  0  0  0  0
   -4.9098    0.8768    1.6306 H   0  0  0  0  0  0  0  0  0  0  0  0
    0.5711    0.3048    0.7570 H   0  0  0  0  0  0  0  0  0  0  0  0
    1.3496   -2.2466   -0.5564 H   0  0  0  0  0  0  0  0  0  0  0  0
    1.3149   -2.0158    1.1901 H   0  0  0  0  0  0  0  0  0  0  0  0
    2.9054   -0.7724   -1.9712 H   0  0  0  0  0  0  0  0  0  0  0  0
    5.1610    0.2675   -2.0378 H   0  0  0  0  0  0  0  0  0  0  0  0
    5.3420    0.2214    2.2412 H   0  0  0  0  0  0  0  0  0  0  0  0
    3.0914   -0.8208    2.3453 H   0  0  0  0  0  0  0  0  0  0  0  0
  1  2  1  0
  2  3  1  0
  3  4  1  0
  4  5  1  0
  5  6  1  0
  6  7  1  0
  7  8  1  0
  2  9  1  0
  9 10  2  0
  9 11  1  0
 11 12  1  0
 12 13  1  0
 13 14  2  0
 14 15  1  0
 15 16  2  0
 16 17  1  0
 16 18  1  0
 18 19  2  0
  8  4  1  0
 19 13  1  0
  1 20  1  0
  1 21  1  0
  1 22  1  0
  3 23  1  0
  3 24  1  0
  4 25  1  0
  5 26  1  0
  5 27  1  0
  6 28  1  0
  6 29  1  0
  8 30  1  0
  8 31  1  0
 11 32  1  0
 12 33  1  0
 12 34  1  0
 14 35  1  0
 15 36  1  0
 18 37  1  0
 19 38  1  0
M  END
$$$$
