
     RDKit          3D

 47 50  0  0  0  0  0  0  0  0999 V2000
   -6.5029    2.3580   -3.4701 C   0  0  0  0  0  0  0  0  0  0  0  0
   -6.0760    1.0233   -3.7108 O   0  0  0  0  0  0  0  0  0  0  0  0
   -5.0614    0.5446   -2.9298 C   0  0  0  0  0  0  0  0  0  0  0  0
   -4.3907    1.2507   -1.9299 C   0  0  0  0  0  0  0  0  0  0  0  0
   -3.3624    0.6388   -1.2006 C   0  0  0  0  0  0  0  0  0  0  0  0
   -2.9955   -0.6848   -1.4720 C   0  0  0  0  0  0  0  0  0  0  0  0
   -1.8931   -1.3553   -0.7123 C   0  0  0  0  0  0  0  0  0  0  0  0
   -1.9152   -2.6511   -0.6213 N   0  0  0  0  0  0  0  0  0  0  0  0
   -0.9202   -3.3130    0.0635 C   0  0  0  0  0  0  0  0  0  0  0  0
   -0.9119   -4.5324    0.1995 O   0  0  0  0  0  0  0  0  0  0  0  0
    0.1920   -2.5070    0.6503 C   0  0  0  0  0  0  0  0  0  0  0  0
    0.1613   -1.1714    0.5127 C   0  0  0  0  0  0  0  0  0  0  0  0
   -0.8979   -0.5914   -0.1491 N   0  0  0  0  0  0  0  0  0  0  0  0
    1.2597   -0.2785    1.0436 C   0  0  0  0  0  0  0  0  0  0  0  0
    2.4237   -1.0350    1.5080 N   0  0  0  0  0  0  0  0  0  0  0  0
    3.5657   -0.3398    1.9408 C   0  0  0  0  0  0  0  0  0  0  0  0
    4.1947   -0.7069    2.9324 O   0  0  0  0  0  0  0  0  0  0  0  0
    3.9827    0.8219    1.1703 C   0  0  0  0  0  0  0  0  0  0  0  0
    3.9716    1.0162   -0.2060 C   0  0  0  0  0  0  0  0  0  0  0  0
    4.5012    2.2968   -0.4834 C   0  0  0  0  0  0  0  0  0  0  0  0
    4.8630    2.8527    0.7206 C   0  0  0  0  0  0  0  0  0  0  0  0
    4.5801    1.9461    1.7101 N   0  0  0  0  0  0  0  0  0  0  0  0
    4.8594    2.1588    3.1153 C   0  0  0  0  0  0  0  0  0  0  0  0
    2.1214   -2.2762    2.2197 C   0  0  0  0  0  0  0  0  0  0  0  0
    1.2871   -3.2295    1.3677 C   0  0  0  0  0  0  0  0  0  0  0  0
   -3.6772   -1.3954   -2.4647 C   0  0  0  0  0  0  0  0  0  0  0  0
   -4.7002   -0.7793   -3.1900 C   0  0  0  0  0  0  0  0  0  0  0  0
   -5.6954    3.0713   -3.6655 H   0  0  0  0  0  0  0  0  0  0  0  0
   -6.8925    2.4706   -2.4530 H   0  0  0  0  0  0  0  0  0  0  0  0
   -7.3187    2.5791   -4.1652 H   0  0  0  0  0  0  0  0  0  0  0  0
   -4.6498    2.2760   -1.6863 H   0  0  0  0  0  0  0  0  0  0  0  0
   -2.8846    1.2045   -0.4067 H   0  0  0  0  0  0  0  0  0  0  0  0
   -0.8195    0.3916   -0.3827 H   0  0  0  0  0  0  0  0  0  0  0  0
    0.8818    0.3051    1.8925 H   0  0  0  0  0  0  0  0  0  0  0  0
    1.5460    0.4289    0.2636 H   0  0  0  0  0  0  0  0  0  0  0  0
    3.6262    0.2950   -0.9367 H   0  0  0  0  0  0  0  0  0  0  0  0
    4.6266    2.7549   -1.4561 H   0  0  0  0  0  0  0  0  0  0  0  0
    5.3193    3.8078    0.9474 H   0  0  0  0  0  0  0  0  0  0  0  0
    3.9548    1.9462    3.6906 H   0  0  0  0  0  0  0  0  0  0  0  0
    5.1520    3.2003    3.2734 H   0  0  0  0  0  0  0  0  0  0  0  0
    5.6779    1.4964    3.4073 H   0  0  0  0  0  0  0  0  0  0  0  0
    1.5911   -2.0095    3.1433 H   0  0  0  0  0  0  0  0  0  0  0  0
    3.0494   -2.7808    2.5128 H   0  0  0  0  0  0  0  0  0  0  0  0
    1.9306   -3.7120    0.6216 H   0  0  0  0  0  0  0  0  0  0  0  0
    0.8852   -4.0171    2.0150 H   0  0  0  0  0  0  0  0  0  0  0  0
   -3.4168   -2.4292   -2.6829 H   0  0  0  0  0  0  0  0  0  0  0  0
   -5.2224   -1.3398   -3.9622 H   0  0  0  0  0  0  0  0  0  0  0  0
  1  2  1  0
  2  3  1  0
  3  4  2  0
  4  5  1  0
  5  6  2  0
  6  7  1  0
  7  8  2  0
  8  9  1  0
  9 10  2  0
  9 11  1  0
 11 12  2  0
 12 13  1  0
 12 14  1  0
 14 15  1  0
 15 16  1  0
 16 17  2  0
 16 18  1  0
 18 19  2  0
 19 20  1  0
 20 21  2  0
 21 22  1  0
 22 23  1  0
 15 24  1  0
 24 25  1  0
  6 26  1  0
 26 27  2  0
 27  3  1  0
 13  7  1  0
 22 18  1  0
 25 11  1  0
  1 28  1  0
  1 29  1  0
  1 30  1  0
  4 31  1  0
  5 32  1  0
 13 33  1  0
 14 34  1  0
 14 35  1  0
 19 36  1  0
 20 37  1  0
 21 38  1  0
 23 39  1  0
 23 40  1  0
 23 41  1  0
 24 42  1  0
 24 43  1  0
 25 44  1  0
 25 45  1  0
 26 46  1  0
 27 47  1  0
M  END
$$$$
