
     RDKit          3D

 54 56  0  0  0  0  0  0  0  0999 V2000
    2.3195   -0.4661    2.8368 C   0  0  0  0  0  0  0  0  0  0  0  0
    2.0631   -0.4086    1.5162 C   0  0  0  0  0  0  0  0  0  0  0  0
    3.1761   -0.1912    0.5562 C   0  0  0  0  0  0  0  0  0  0  0  0
    3.1927   -0.8869   -0.6621 C   0  0  0  0  0  0  0  0  0  0  0  0
    4.2168   -0.6823   -1.5950 C   0  0  0  0  0  0  0  0  0  0  0  0
    5.2424    0.2335   -1.3280 C   0  0  0  0  0  0  0  0  0  0  0  0
    6.3409    0.4762   -2.2907 C   0  0  0  0  0  0  0  0  0  0  0  0
    7.2752    1.2436   -2.1685 O   0  0  0  0  0  0  0  0  0  0  0  0
    6.2203   -0.2771   -3.4015 O   0  0  0  0  0  0  0  0  0  0  0  0
    5.2191    0.9358   -0.1242 C   0  0  0  0  0  0  0  0  0  0  0  0
    6.1690    1.8323    0.1777 F   0  0  0  0  0  0  0  0  0  0  0  0
    4.1991    0.7329    0.8074 C   0  0  0  0  0  0  0  0  0  0  0  0
    0.6425   -0.5552    1.1078 C   0  0  0  0  0  0  0  0  0  0  0  0
   -0.0156    0.5852    0.6208 C   0  0  0  0  0  0  0  0  0  0  0  0
   -1.3631    0.5644    0.1975 C   0  0  0  0  0  0  0  0  0  0  0  0
   -2.0841   -0.6438    0.3159 C   0  0  0  0  0  0  0  0  0  0  0  0
   -1.4034   -1.7916    0.7829 C   0  0  0  0  0  0  0  0  0  0  0  0
   -0.0527   -1.7698    1.1667 C   0  0  0  0  0  0  0  0  0  0  0  0
    0.5858   -3.0403    1.6576 C   0  0  0  0  0  0  0  0  0  0  0  0
   -3.5623   -0.7614   -0.0822 C   0  0  0  0  0  0  0  0  0  0  0  0
   -4.3898   -1.5104    0.9897 C   0  0  0  0  0  0  0  0  0  0  0  0
   -3.6572   -1.5494   -1.4075 C   0  0  0  0  0  0  0  0  0  0  0  0
   -4.2199    0.6268   -0.2484 C   0  0  0  0  0  0  0  0  0  0  0  0
   -3.3427    1.5802   -1.0420 C   0  0  0  0  0  0  0  0  0  0  0  0
   -1.9996    1.8569   -0.3309 C   0  0  0  0  0  0  0  0  0  0  0  0
   -1.0931    2.5618   -1.3683 C   0  0  0  0  0  0  0  0  0  0  0  0
   -2.2219    2.8215    0.8551 C   0  0  0  0  0  0  0  0  0  0  0  0
    1.5235   -0.6064    3.5638 H   0  0  0  0  0  0  0  0  0  0  0  0
    3.3235   -0.3874    3.2411 H   0  0  0  0  0  0  0  0  0  0  0  0
    2.4060   -1.6020   -0.8984 H   0  0  0  0  0  0  0  0  0  0  0  0
    4.1988   -1.2433   -2.5268 H   0  0  0  0  0  0  0  0  0  0  0  0
    6.9991   -0.0177   -3.9384 H   0  0  0  0  0  0  0  0  0  0  0  0
    4.2148    1.3202    1.7213 H   0  0  0  0  0  0  0  0  0  0  0  0
    0.5448    1.5179    0.5844 H   0  0  0  0  0  0  0  0  0  0  0  0
   -1.9341   -2.7403    0.8420 H   0  0  0  0  0  0  0  0  0  0  0  0
   -0.0000   -3.9180    1.3635 H   0  0  0  0  0  0  0  0  0  0  0  0
    0.6562   -3.0311    2.7496 H   0  0  0  0  0  0  0  0  0  0  0  0
    1.5838   -3.1717    1.2277 H   0  0  0  0  0  0  0  0  0  0  0  0
   -5.4580   -1.4928    0.7424 H   0  0  0  0  0  0  0  0  0  0  0  0
   -4.1060   -2.5642    1.0792 H   0  0  0  0  0  0  0  0  0  0  0  0
   -4.2675   -1.0501    1.9773 H   0  0  0  0  0  0  0  0  0  0  0  0
   -3.3053   -2.5810   -1.2890 H   0  0  0  0  0  0  0  0  0  0  0  0
   -4.6922   -1.5991   -1.7647 H   0  0  0  0  0  0  0  0  0  0  0  0
   -3.0504   -1.0959   -2.1988 H   0  0  0  0  0  0  0  0  0  0  0  0
   -5.1912    0.5276   -0.7502 H   0  0  0  0  0  0  0  0  0  0  0  0
   -4.4357    1.0664    0.7336 H   0  0  0  0  0  0  0  0  0  0  0  0
   -3.1662    1.1624   -2.0412 H   0  0  0  0  0  0  0  0  0  0  0  0
   -3.8858    2.5203   -1.2041 H   0  0  0  0  0  0  0  0  0  0  0  0
   -0.1657    2.9414   -0.9269 H   0  0  0  0  0  0  0  0  0  0  0  0
   -0.8169    1.8797   -2.1811 H   0  0  0  0  0  0  0  0  0  0  0  0
   -1.6048    3.4233   -1.8139 H   0  0  0  0  0  0  0  0  0  0  0  0
   -1.2718    3.1299    1.3072 H   0  0  0  0  0  0  0  0  0  0  0  0
   -2.8182    2.3624    1.6511 H   0  0  0  0  0  0  0  0  0  0  0  0
   -2.7379    3.7328    0.5319 H   0  0  0  0  0  0  0  0  0  0  0  0
  1  2  2  3
  2  3  1  0
  3  4  2  0
  4  5  1  0
  5  6  2  0
  6  7  1  0
  7  8  2  0
  7  9  1  0
  6 10  1  0
 10 11  1  0
 10 12  2  0
  2 13  1  0
 13 14  2  0
 14 15  1  0
 15 16  2  0
 16 17  1  0
 17 18  2  0
 18 19  1  0
 16 20  1  0
 20 21  1  0
 20 22  1  0
 20 23  1  0
 23 24  1  0
 24 25  1  0
 25 26  1  0
 25 27  1  0
 12  3  1  0
 18 13  1  0
 25 15  1  0
  1 28  1  0
  1 29  1  0
  4 30  1  0
  5 31  1  0
  9 32  1  0
 12 33  1  0
 14 34  1  0
 17 35  1  0
 19 36  1  0
 19 37  1  0
 19 38  1  0
 21 39  1  0
 21 40  1  0
 21 41  1  0
 22 42  1  0
 22 43  1  0
 22 44  1  0
 23 45  1  0
 23 46  1  0
 24 47  1  0
 24 48  1  0
 26 49  1  0
 26 50  1  0
 26 51  1  0
 27 52  1  0
 27 53  1  0
 27 54  1  0
M  END
$$$$
