
     RDKit          3D

 68 72  0  0  0  0  0  0  0  0999 V2000
   -2.6326   -3.3898   -1.1256 C   0  0  0  0  0  0  0  0  0  0  0  0
   -1.3186   -2.9232   -0.9491 O   0  0  0  0  0  0  0  0  0  0  0  0
   -1.0948   -1.5871   -0.7101 C   0  0  0  0  0  0  0  0  0  0  0  0
   -2.1758   -0.7078   -0.6450 C   0  0  0  0  0  0  0  0  0  0  0  0
   -2.0561    0.6198   -0.4163 C   0  0  0  0  0  0  0  0  0  0  0  0
   -3.1527    1.5405   -0.3682 C   0  0  0  0  0  0  0  0  0  0  0  0
   -2.7923    2.7722   -0.0780 O   0  0  0  0  0  0  0  0  0  0  0  0
   -4.5082    1.3257   -0.5794 N   0  0  0  0  0  0  0  0  0  0  0  0
   -5.2237    0.1271   -0.9107 C   0  0  0  0  0  0  0  0  0  0  0  0
   -6.6903    0.4623   -1.2148 C   0  0  0  0  0  0  0  0  0  0  0  0
   -7.3717    1.1402   -0.0532 C   0  0  1  0  0  0  0  0  0  0  0  0
   -7.8366    0.1934    0.8311 O   0  0  0  0  0  0  0  0  0  0  0  0
   -6.4355    2.1486    0.5970 C   0  0  1  0  0  0  0  0  0  0  0  0
   -5.7802    1.5000    1.7035 N   0  0  0  0  0  0  0  0  0  0  0  0
   -5.3888    2.5265   -0.4519 C   0  0  0  0  0  0  0  0  0  0  0  0
   -0.7407    1.0830   -0.2410 C   0  0  0  0  0  0  0  0  0  0  0  0
    0.3617    0.2761   -0.2927 C   0  0  0  0  0  0  0  0  0  0  0  0
    1.6811    0.4586   -0.1704 N   0  0  0  0  0  0  0  0  0  0  0  0
    2.3525   -0.7106   -0.3185 C   0  0  0  0  0  0  0  0  0  0  0  0
    3.8261   -0.8446   -0.2460 C   0  0  0  0  0  0  0  0  0  0  0  0
    4.5972   -1.9541   -0.4885 C   0  0  0  0  0  0  0  0  0  0  0  0
    5.9373   -1.5855   -0.3187 C   0  0  0  0  0  0  0  0  0  0  0  0
    7.1248   -2.2598   -0.4306 C   0  0  0  0  0  0  0  0  0  0  0  0
    8.3240   -1.6210   -0.2030 C   0  0  0  0  0  0  0  0  0  0  0  0
    8.3527   -0.2710    0.1472 C   0  0  0  0  0  0  0  0  0  0  0  0
    7.1596    0.3986    0.2579 C   0  0  0  0  0  0  0  0  0  0  0  0
    5.9620   -0.2606    0.0250 C   0  0  0  0  0  0  0  0  0  0  0  0
    4.6754    0.1486    0.0597 N   0  0  0  0  0  0  0  0  0  0  0  0
    4.3530    1.5245    0.3829 C   0  0  0  0  0  0  0  0  0  0  0  0
    4.3015    1.8006    1.8613 C   0  0  0  0  0  0  0  0  0  0  0  0
    3.3469    1.0473    2.7447 C   0  0  0  0  0  0  0  0  0  0  0  0
    3.0821    2.5064    2.4151 C   0  0  0  0  0  0  0  0  0  0  0  0
    1.4083   -1.6205   -0.5347 N   0  0  0  0  0  0  0  0  0  0  0  0
    1.6288   -3.0243   -0.7352 C   0  0  0  0  0  0  0  0  0  0  0  0
    0.1695   -1.0645   -0.5291 C   0  0  0  0  0  0  0  0  0  0  0  0
    0.6867    0.0000    0.0000 Cl  0  0  0  0  0  0  0  0  0  0  0  0
   -3.1270   -2.8764   -1.9981 H   0  0  0  0  0  0  0  0  0  0  0  0
   -3.2986   -3.2351   -0.2738 H   0  0  0  0  0  0  0  0  0  0  0  0
   -2.6746   -4.4737   -1.3908 H   0  0  0  0  0  0  0  0  0  0  0  0
   -3.1393   -1.1659   -0.7847 H   0  0  0  0  0  0  0  0  0  0  0  0
   -4.8428   -0.2360   -1.9120 H   0  0  0  0  0  0  0  0  0  0  0  0
   -5.2193   -0.6534   -0.1243 H   0  0  0  0  0  0  0  0  0  0  0  0
   -6.7366    1.0846   -2.1228 H   0  0  0  0  0  0  0  0  0  0  0  0
   -7.2320   -0.4877   -1.3978 H   0  0  0  0  0  0  0  0  0  0  0  0
   -8.2164    1.7244   -0.4791 H   0  0  0  0  0  0  0  0  0  0  0  0
   -7.3480   -0.6514    0.8046 H   0  0  0  0  0  0  0  0  0  0  0  0
   -6.9625    3.0332    0.9488 H   0  0  0  0  0  0  0  0  0  0  0  0
   -6.3929    1.3758    2.5298 H   0  0  0  0  0  0  0  0  0  0  0  0
   -4.9281    2.0195    2.0213 H   0  0  0  0  0  0  0  0  0  0  0  0
   -4.7792    3.3617   -0.1127 H   0  0  0  0  0  0  0  0  0  0  0  0
   -5.8723    2.7535   -1.4194 H   0  0  0  0  0  0  0  0  0  0  0  0
   -0.5673    2.1353   -0.0532 H   0  0  0  0  0  0  0  0  0  0  0  0
    4.2788   -2.9407   -0.7662 H   0  0  0  0  0  0  0  0  0  0  0  0
    7.1177   -3.2990   -0.6988 H   0  0  0  0  0  0  0  0  0  0  0  0
    9.2706   -2.1324   -0.2863 H   0  0  0  0  0  0  0  0  0  0  0  0
    9.2659    0.2713    0.3356 H   0  0  0  0  0  0  0  0  0  0  0  0
    7.1655    1.4312    0.5243 H   0  0  0  0  0  0  0  0  0  0  0  0
    5.1633    2.2031   -0.0301 H   0  0  0  0  0  0  0  0  0  0  0  0
    3.4234    1.8921   -0.0762 H   0  0  0  0  0  0  0  0  0  0  0  0
    5.2381    2.1312    2.3720 H   0  0  0  0  0  0  0  0  0  0  0  0
    2.6254    0.3414    2.3418 H   0  0  0  0  0  0  0  0  0  0  0  0
    3.6917    0.8686    3.8236 H   0  0  0  0  0  0  0  0  0  0  0  0
    3.2069    3.2742    3.1861 H   0  0  0  0  0  0  0  0  0  0  0  0
    2.2838    2.7451    1.6824 H   0  0  0  0  0  0  0  0  0  0  0  0
    0.7176   -3.6594   -0.6450 H   0  0  0  0  0  0  0  0  0  0  0  0
    2.1860   -3.2365   -1.6592 H   0  0  0  0  0  0  0  0  0  0  0  0
    2.2567   -3.3744    0.1400 H   0  0  0  0  0  0  0  0  0  0  0  0
   -0.6867    0.0000    0.0000 H   0  0  0  0  0  0  0  0  0  0  0  0
  1  2  1  0
  2  3  1  0
  3  4  2  0
  4  5  1  0
  5  6  1  0
  6  7  2  0
  6  8  1  0
  8  9  1  0
  9 10  1  0
 10 11  1  0
 11 12  1  0
 11 13  1  0
 13 14  1  0
 13 15  1  0
  5 16  2  0
 16 17  1  0
 17 18  1  0
 18 19  2  0
 19 20  1  0
 20 21  2  0
 21 22  1  0
 22 23  2  0
 23 24  1  0
 24 25  2  0
 25 26  1  0
 26 27  2  0
 27 28  1  0
 28 29  1  0
 29 30  1  0
 30 31  1  0
 31 32  1  0
 19 33  1  0
 33 34  1  0
 33 35  1  0
 35  3  1  0
 15  8  1  0
 35 17  2  0
 28 20  1  0
 32 30  1  0
 27 22  1  0
  1 37  1  0
  1 38  1  0
  1 39  1  0
  4 40  1  0
  9 41  1  0
  9 42  1  0
 10 43  1  0
 10 44  1  0
 11 45  1  6
 12 46  1  0
 13 47  1  1
 14 48  1  0
 14 49  1  0
 15 50  1  0
 15 51  1  0
 16 52  1  0
 21 53  1  0
 23 54  1  0
 24 55  1  0
 25 56  1  0
 26 57  1  0
 29 58  1  0
 29 59  1  0
 30 60  1  0
 31 61  1  0
 31 62  1  0
 32 63  1  0
 32 64  1  0
 34 65  1  0
 34 66  1  0
 34 67  1  0
 36 68  1  0
M  END
$$$$
