
     RDKit          3D

 64 68  0  0  0  0  0  0  0  0999 V2000
    2.8038    4.5409   -1.3602 C   0  0  0  0  0  0  0  0  0  0  0  0
    1.5175    4.3359   -0.5757 C   0  0  0  0  0  0  0  0  0  0  0  0
    0.2948    4.0426   -1.4525 C   0  0  0  0  0  0  0  0  0  0  0  0
    0.4105    2.5181   -2.4476 S   0  0  0  0  0  0  0  0  0  0  0  0
    0.2222    1.3157   -1.1502 C   0  0  0  0  0  0  0  0  0  0  0  0
    1.3151    0.5770   -0.8672 N   0  0  0  0  0  0  0  0  0  0  0  0
    1.2437   -0.4022    0.0765 C   0  0  0  0  0  0  0  0  0  0  0  0
    2.3635   -1.1925    0.3787 N   0  0  0  0  0  0  0  0  0  0  0  0
    3.6838   -0.8456   -0.1410 C   0  0  2  0  0  0  0  0  0  0  0  0
    4.1696   -1.4024   -1.4443 C   0  0  0  0  0  0  0  0  0  0  0  0
    4.7804   -1.8879   -0.1488 C   0  0  1  0  0  0  0  0  0  0  0  0
    6.2270   -1.5573    0.1414 C   0  0  0  0  0  0  0  0  0  0  0  0
    6.6152   -0.4822    0.9670 C   0  0  0  0  0  0  0  0  0  0  0  0
    7.9635   -0.2215    1.2299 C   0  0  0  0  0  0  0  0  0  0  0  0
    8.9417   -1.0456    0.6867 C   0  0  0  0  0  0  0  0  0  0  0  0
   10.2300   -0.8004    0.9562 F   0  0  0  0  0  0  0  0  0  0  0  0
    8.5881   -2.1157   -0.1217 C   0  0  0  0  0  0  0  0  0  0  0  0
    9.5325   -2.9214   -0.6283 F   0  0  0  0  0  0  0  0  0  0  0  0
    7.2486   -2.3695   -0.3976 C   0  0  0  0  0  0  0  0  0  0  0  0
    0.0147   -0.5873    0.7223 C   0  0  0  0  0  0  0  0  0  0  0  0
   -0.4048   -1.4419    1.7040 N   0  0  0  0  0  0  0  0  0  0  0  0
   -1.6909   -1.1931    1.9397 N   0  0  0  0  0  0  0  0  0  0  0  0
   -2.0839   -0.2039    1.1046 N   0  0  0  0  0  0  0  0  0  0  0  0
   -3.4254    0.3530    1.1518 C   0  0  2  0  0  0  0  0  0  0  0  0
   -4.4818   -0.5004    1.9017 C   0  0  0  0  0  0  0  0  0  0  0  0
   -5.6226   -0.7400    0.9033 C   0  0  2  0  0  0  0  0  0  0  0  0
   -5.3450   -1.9611    0.2104 O   0  0  0  0  0  0  0  0  0  0  0  0
   -6.4894   -2.5390   -0.4142 C   0  0  0  0  0  0  0  0  0  0  0  0
   -7.2993   -3.4063    0.5528 C   0  0  0  0  0  0  0  0  0  0  0  0
   -8.3724   -4.0407   -0.1350 O   0  0  0  0  0  0  0  0  0  0  0  0
   -5.5285    0.4548   -0.0424 C   0  0  1  0  0  0  0  0  0  0  0  0
   -6.0393    1.6344    0.5809 O   0  0  0  0  0  0  0  0  0  0  0  0
   -4.0188    0.5910   -0.2529 C   0  0  1  0  0  0  0  0  0  0  0  0
   -3.7322    1.9022   -0.7507 O   0  0  0  0  0  0  0  0  0  0  0  0
   -1.0325    0.2299    0.3376 C   0  0  0  0  0  0  0  0  0  0  0  0
   -1.0058    1.2101   -0.5859 N   0  0  0  0  0  0  0  0  0  0  0  0
    2.6778    5.3282   -2.1079 H   0  0  0  0  0  0  0  0  0  0  0  0
    3.5999    4.8543   -0.6859 H   0  0  0  0  0  0  0  0  0  0  0  0
    3.1287    3.6238   -1.8603 H   0  0  0  0  0  0  0  0  0  0  0  0
    1.6542    3.5445    0.1723 H   0  0  0  0  0  0  0  0  0  0  0  0
    1.3186    5.2651   -0.0187 H   0  0  0  0  0  0  0  0  0  0  0  0
    0.1433    4.8801   -2.1423 H   0  0  0  0  0  0  0  0  0  0  0  0
   -0.6060    3.9795   -0.8348 H   0  0  0  0  0  0  0  0  0  0  0  0
    2.2820   -1.6666    1.2722 H   0  0  0  0  0  0  0  0  0  0  0  0
    3.9582    0.1892    0.0646 H   0  0  0  0  0  0  0  0  0  0  0  0
    3.5118   -2.0665   -1.9888 H   0  0  0  0  0  0  0  0  0  0  0  0
    4.7367   -0.7323   -2.0781 H   0  0  0  0  0  0  0  0  0  0  0  0
    4.4782   -2.8880    0.1753 H   0  0  0  0  0  0  0  0  0  0  0  0
    5.8552    0.1605    1.4235 H   0  0  0  0  0  0  0  0  0  0  0  0
    8.2529    0.6149    1.8637 H   0  0  0  0  0  0  0  0  0  0  0  0
    6.9947   -3.2143   -1.0328 H   0  0  0  0  0  0  0  0  0  0  0  0
   -3.3031    1.3122    1.6765 H   0  0  0  0  0  0  0  0  0  0  0  0
   -4.8550    0.0824    2.7551 H   0  0  0  0  0  0  0  0  0  0  0  0
   -4.0999   -1.4479    2.2944 H   0  0  0  0  0  0  0  0  0  0  0  0
   -6.5799   -0.7947    1.4321 H   0  0  0  0  0  0  0  0  0  0  0  0
   -7.1235   -1.7691   -0.8808 H   0  0  0  0  0  0  0  0  0  0  0  0
   -6.1295   -3.1733   -1.2360 H   0  0  0  0  0  0  0  0  0  0  0  0
   -7.7111   -2.8220    1.3867 H   0  0  0  0  0  0  0  0  0  0  0  0
   -6.6567   -4.1860    0.9898 H   0  0  0  0  0  0  0  0  0  0  0  0
   -9.0104   -3.3558   -0.4062 H   0  0  0  0  0  0  0  0  0  0  0  0
   -6.0555    0.3102   -0.9894 H   0  0  0  0  0  0  0  0  0  0  0  0
   -5.6021    2.3745    0.1023 H   0  0  0  0  0  0  0  0  0  0  0  0
   -3.6704   -0.1534   -0.9829 H   0  0  0  0  0  0  0  0  0  0  0  0
   -2.7826    1.9026   -0.9926 H   0  0  0  0  0  0  0  0  0  0  0  0
  1  2  1  0
  2  3  1  0
  3  4  1  0
  4  5  1  0
  5  6  2  0
  6  7  1  0
  7  8  1  0
  8  9  1  0
  9 10  1  0
 10 11  1  0
 11 12  1  0
 12 13  2  0
 13 14  1  0
 14 15  2  0
 15 16  1  0
 15 17  1  0
 17 18  1  0
 17 19  2  0
  7 20  2  0
 20 21  1  0
 21 22  2  0
 22 23  1  0
 23 24  1  0
 24 25  1  0
 25 26  1  0
 26 27  1  0
 27 28  1  0
 28 29  1  0
 29 30  1  0
 26 31  1  0
 31 32  1  0
 31 33  1  0
 33 34  1  0
 23 35  1  0
 35 36  2  0
 36  5  1  0
 11  9  1  0
 19 12  1  0
 35 20  1  0
 33 24  1  0
  1 37  1  0
  1 38  1  0
  1 39  1  0
  2 40  1  0
  2 41  1  0
  3 42  1  0
  3 43  1  0
  8 44  1  0
  9 45  1  6
 10 46  1  0
 10 47  1  0
 11 48  1  1
 13 49  1  0
 14 50  1  0
 19 51  1  0
 24 52  1  1
 25 53  1  0
 25 54  1  0
 26 55  1  1
 28 56  1  0
 28 57  1  0
 29 58  1  0
 29 59  1  0
 30 60  1  0
 31 61  1  6
 32 62  1  0
 33 63  1  6
 34 64  1  0
M  END
$$$$
