
     RDKit          3D

 25 26  0  0  0  0  0  0  0  0999 V2000
   -4.2963    1.4354   -3.2975 O   0  0  0  0  0  0  0  0  0  0  0  0
   -4.0450    1.2023   -2.1066 N   0  0  0  0  0  4  0  0  0  0  0  0
   -4.8431    1.3714   -1.1736 O   0  0  0  0  0  1  0  0  0  0  0  0
   -2.7099    0.6870   -1.7778 C   0  0  0  0  0  0  0  0  0  0  0  0
   -1.7749    0.4780   -2.7990 C   0  0  0  0  0  0  0  0  0  0  0  0
   -0.5073   -0.0134   -2.4773 C   0  0  0  0  0  0  0  0  0  0  0  0
   -0.1683   -0.2865   -1.1476 C   0  0  0  0  0  0  0  0  0  0  0  0
    1.1059   -0.7787   -0.9550 O   0  0  0  0  0  0  0  0  0  0  0  0
    1.6707   -0.6221    0.2877 C   0  0  0  0  0  0  0  0  0  0  0  0
    1.7632   -1.7581    1.0974 C   0  0  0  0  0  0  0  0  0  0  0  0
    2.3583   -1.6654    2.3559 C   0  0  0  0  0  0  0  0  0  0  0  0
    2.8737   -0.4436    2.7898 C   0  0  0  0  0  0  0  0  0  0  0  0
    3.6064   -0.3339    4.3426 Cl  0  0  0  0  0  0  0  0  0  0  0  0
    2.8093    0.6865    1.9755 C   0  0  0  0  0  0  0  0  0  0  0  0
    2.2146    0.5957    0.7159 C   0  0  0  0  0  0  0  0  0  0  0  0
    2.1916    2.0036   -0.2819 Cl  0  0  0  0  0  0  0  0  0  0  0  0
   -1.1114   -0.0889   -0.1331 C   0  0  0  0  0  0  0  0  0  0  0  0
   -2.3834    0.4028   -0.4448 C   0  0  0  0  0  0  0  0  0  0  0  0
   -2.0128    0.6908   -3.8392 H   0  0  0  0  0  0  0  0  0  0  0  0
    0.2245   -0.1761   -3.2660 H   0  0  0  0  0  0  0  0  0  0  0  0
    1.3694   -2.7097    0.7489 H   0  0  0  0  0  0  0  0  0  0  0  0
    2.4225   -2.5470    2.9894 H   0  0  0  0  0  0  0  0  0  0  0  0
    3.2278    1.6295    2.3170 H   0  0  0  0  0  0  0  0  0  0  0  0
   -0.8829   -0.3144    0.9048 H   0  0  0  0  0  0  0  0  0  0  0  0
   -3.1028    0.5549    0.3576 H   0  0  0  0  0  0  0  0  0  0  0  0
  1  2  2  0
  2  3  1  0
  2  4  1  0
  4  5  2  0
  5  6  1  0
  6  7  2  0
  7  8  1  0
  8  9  1  0
  9 10  2  0
 10 11  1  0
 11 12  2  0
 12 13  1  0
 12 14  1  0
 14 15  2  0
 15 16  1  0
  7 17  1  0
 17 18  2  0
 18  4  1  0
 15  9  1  0
  5 19  1  0
  6 20  1  0
 10 21  1  0
 11 22  1  0
 14 23  1  0
 17 24  1  0
 18 25  1  0
M  CHG  2   2   1   3  -1
M  END
$$$$
