
     RDKit          3D

 41 43  0  0  0  0  0  0  0  0999 V2000
   -3.3858    0.4318   -2.5578 C   0  0  0  0  0  0  0  0  0  0  0  0
   -3.0774   -0.7533   -1.8195 O   0  0  0  0  0  0  0  0  0  0  0  0
   -3.8072   -0.8002   -0.6559 C   0  0  0  0  0  0  0  0  0  0  0  0
   -5.1647   -1.1393   -0.7721 C   0  0  0  0  0  0  0  0  0  0  0  0
   -5.9765   -1.1846    0.3549 C   0  0  0  0  0  0  0  0  0  0  0  0
   -5.4287   -0.9040    1.5994 C   0  0  0  0  0  0  0  0  0  0  0  0
   -4.0673   -0.5947    1.7186 C   0  0  0  0  0  0  0  0  0  0  0  0
   -3.2159   -0.5480    0.6015 C   0  0  0  0  0  0  0  0  0  0  0  0
   -1.8228   -0.2737    0.7715 N   0  0  0  0  0  0  0  0  0  0  0  0
   -0.8434   -0.4640   -0.2744 C   0  0  0  0  0  0  0  0  0  0  0  0
    0.4914   -0.4975    0.4525 C   0  0  0  0  0  0  0  0  0  0  0  0
    1.6405   -0.0320   -0.4230 C   0  0  0  0  0  0  0  0  0  0  0  0
    1.4694    0.2852   -1.5940 O   0  0  0  0  0  0  0  0  0  0  0  0
    2.8512   -0.0475    0.2528 N   0  0  0  0  0  0  0  0  0  0  0  0
    4.1165    0.3322   -0.2428 C   0  0  0  0  0  0  0  0  0  0  0  0
    4.3385    0.8256   -1.5300 C   0  0  0  0  0  0  0  0  0  0  0  0
    5.6279    1.1828   -1.9435 C   0  0  0  0  0  0  0  0  0  0  0  0
    6.7022    1.0485   -1.0678 C   0  0  0  0  0  0  0  0  0  0  0  0
    8.6138    1.5788   -1.6822 I   0  0  0  0  0  0  0  0  0  0  0  0
    6.4967    0.5596    0.2195 C   0  0  0  0  0  0  0  0  0  0  0  0
    5.2072    0.2037    0.6284 C   0  0  0  0  0  0  0  0  0  0  0  0
    0.2557    0.4165    1.6425 C   0  0  0  0  0  0  0  0  0  0  0  0
   -1.2224    0.2810    1.9079 C   0  0  0  0  0  0  0  0  0  0  0  0
   -1.7301    0.6541    2.9547 O   0  0  0  0  0  0  0  0  0  0  0  0
   -3.3288    1.3264   -1.9271 H   0  0  0  0  0  0  0  0  0  0  0  0
   -2.6413    0.5313   -3.3534 H   0  0  0  0  0  0  0  0  0  0  0  0
   -4.3723    0.3560   -3.0265 H   0  0  0  0  0  0  0  0  0  0  0  0
   -5.5872   -1.3688   -1.7466 H   0  0  0  0  0  0  0  0  0  0  0  0
   -7.0285   -1.4400    0.2637 H   0  0  0  0  0  0  0  0  0  0  0  0
   -6.0516   -0.9374    2.4901 H   0  0  0  0  0  0  0  0  0  0  0  0
   -3.6944   -0.4209    2.7237 H   0  0  0  0  0  0  0  0  0  0  0  0
   -0.9974   -1.4137   -0.7966 H   0  0  0  0  0  0  0  0  0  0  0  0
   -0.9177    0.3759   -0.9735 H   0  0  0  0  0  0  0  0  0  0  0  0
    0.6966   -1.5201    0.7961 H   0  0  0  0  0  0  0  0  0  0  0  0
    2.8428   -0.3891    1.2061 H   0  0  0  0  0  0  0  0  0  0  0  0
    3.5302    0.9483   -2.2441 H   0  0  0  0  0  0  0  0  0  0  0  0
    5.7703    1.5635   -2.9519 H   0  0  0  0  0  0  0  0  0  0  0  0
    7.3250    0.4495    0.9148 H   0  0  0  0  0  0  0  0  0  0  0  0
    5.0735   -0.1750    1.6386 H   0  0  0  0  0  0  0  0  0  0  0  0
    0.8260    0.0885    2.5166 H   0  0  0  0  0  0  0  0  0  0  0  0
    0.4859    1.4648    1.4256 H   0  0  0  0  0  0  0  0  0  0  0  0
  1  2  1  0
  2  3  1  0
  3  4  2  0
  4  5  1  0
  5  6  2  0
  6  7  1  0
  7  8  2  0
  8  9  1  0
  9 10  1  0
 10 11  1  0
 11 12  1  0
 12 13  2  0
 12 14  1  0
 14 15  1  0
 15 16  2  0
 16 17  1  0
 17 18  2  0
 18 19  1  0
 18 20  1  0
 20 21  2  0
 11 22  1  0
 22 23  1  0
 23 24  2  0
  8  3  1  0
 23  9  1  0
 21 15  1  0
  1 25  1  0
  1 26  1  0
  1 27  1  0
  4 28  1  0
  5 29  1  0
  6 30  1  0
  7 31  1  0
 10 32  1  0
 10 33  1  0
 11 34  1  0
 14 35  1  0
 16 36  1  0
 17 37  1  0
 20 38  1  0
 21 39  1  0
 22 40  1  0
 22 41  1  0
M  END
$$$$
