
     RDKit          3D

 62 66  0  0  0  0  0  0  0  0999 V2000
    2.4172    0.2445   -2.6130 O   0  0  0  0  0  0  0  0  0  0  0  0
    2.5612    0.0855   -1.3985 C   0  0  0  0  0  0  0  0  0  0  0  0
    1.3981    0.2402   -0.5030 C   0  0  0  0  0  0  0  0  0  0  0  0
    0.1192    0.5545   -0.9334 C   0  0  0  0  0  0  0  0  0  0  0  0
   -0.6781    0.6498    0.1838 N   0  0  0  0  0  0  0  0  0  0  0  0
   -2.0667    0.9750    0.2334 C   0  0  0  0  0  0  0  0  0  0  0  0
   -2.7721    1.2649   -0.9464 C   0  0  0  0  0  0  0  0  0  0  0  0
   -4.1291    1.6031   -0.8986 C   0  0  0  0  0  0  0  0  0  0  0  0
   -4.7936    1.6344    0.3277 C   0  0  0  0  0  0  0  0  0  0  0  0
   -6.5072    2.1225    0.3998 S   0  0  0  0  0  6  0  0  0  0  0  0
   -6.7754    2.9333   -0.7691 O   0  0  0  0  0  0  0  0  0  0  0  0
   -6.7496    2.6293    1.7340 O   0  0  0  0  0  0  0  0  0  0  0  0
   -7.3319    0.6515    0.2312 N   0  0  0  0  0  0  0  0  0  0  0  0
   -7.3964    0.0351   -1.1146 C   0  0  0  0  0  0  0  0  0  0  0  0
   -6.9346   -1.4157   -1.0856 C   0  0  0  0  0  0  0  0  0  0  0  0
   -7.7718   -2.2563   -0.1248 C   0  0  0  0  0  0  0  0  0  0  0  0
   -8.2278   -1.4667    1.1021 C   0  0  0  0  0  0  0  0  0  0  0  0
   -7.3175   -0.2769    1.3832 C   0  0  0  0  0  0  0  0  0  0  0  0
   -4.1017    1.3652    1.5098 C   0  0  0  0  0  0  0  0  0  0  0  0
   -2.7443    1.0293    1.4626 C   0  0  0  0  0  0  0  0  0  0  0  0
    0.1557    0.3718    1.2450 C   0  0  0  0  0  0  0  0  0  0  0  0
    1.3911    0.1244    0.8710 N   0  0  0  0  0  0  0  0  0  0  0  0
    3.8115   -0.2221   -0.8611 N   0  0  0  0  0  0  0  0  0  0  0  0
    4.9757   -0.2732   -1.7456 C   0  0  0  0  0  0  0  0  0  0  0  0
    6.2164    0.4051   -1.1323 C   0  0  0  0  0  0  0  0  0  0  0  0
    6.4836   -0.0421    0.2467 N   0  0  0  0  0  0  0  0  0  0  0  0
    7.8115   -0.2222    0.6261 C   0  0  0  0  0  0  0  0  0  0  0  0
    8.7926    0.6982    0.2508 C   0  0  0  0  0  0  0  0  0  0  0  0
   10.1158    0.5187    0.6535 C   0  0  0  0  0  0  0  0  0  0  0  0
   10.4415   -0.5776    1.4345 C   0  0  0  0  0  0  0  0  0  0  0  0
    9.4217   -1.4412    1.7820 C   0  0  0  0  0  0  0  0  0  0  0  0
    8.1340   -1.2822    1.4014 N   0  0  0  0  0  0  0  0  0  0  0  0
    5.5149   -0.9798    0.8335 C   0  0  0  0  0  0  0  0  0  0  0  0
    4.0746   -0.5076    0.5556 C   0  0  0  0  0  0  0  0  0  0  0  0
   -0.2386    0.7198   -1.9385 H   0  0  0  0  0  0  0  0  0  0  0  0
   -2.2965    1.2559   -1.9232 H   0  0  0  0  0  0  0  0  0  0  0  0
   -4.6507    1.8535   -1.8201 H   0  0  0  0  0  0  0  0  0  0  0  0
   -6.7885    0.5843   -1.8389 H   0  0  0  0  0  0  0  0  0  0  0  0
   -8.4338    0.0949   -1.4642 H   0  0  0  0  0  0  0  0  0  0  0  0
   -6.9815   -1.8492   -2.0909 H   0  0  0  0  0  0  0  0  0  0  0  0
   -5.8824   -1.4551   -0.7755 H   0  0  0  0  0  0  0  0  0  0  0  0
   -7.1861   -3.1301    0.1858 H   0  0  0  0  0  0  0  0  0  0  0  0
   -8.6565   -2.6474   -0.6423 H   0  0  0  0  0  0  0  0  0  0  0  0
   -9.2513   -1.1058    0.9349 H   0  0  0  0  0  0  0  0  0  0  0  0
   -8.2678   -2.1302    1.9736 H   0  0  0  0  0  0  0  0  0  0  0  0
   -6.2989   -0.6260    1.5823 H   0  0  0  0  0  0  0  0  0  0  0  0
   -7.6861    0.2400    2.2754 H   0  0  0  0  0  0  0  0  0  0  0  0
   -4.6061    1.4262    2.4725 H   0  0  0  0  0  0  0  0  0  0  0  0
   -2.2512    0.8311    2.4098 H   0  0  0  0  0  0  0  0  0  0  0  0
   -0.1728    0.3657    2.2746 H   0  0  0  0  0  0  0  0  0  0  0  0
    4.7577    0.1866   -2.7146 H   0  0  0  0  0  0  0  0  0  0  0  0
    5.1833   -1.3341   -1.9324 H   0  0  0  0  0  0  0  0  0  0  0  0
    7.0652    0.2054   -1.7979 H   0  0  0  0  0  0  0  0  0  0  0  0
    6.0561    1.4896   -1.1096 H   0  0  0  0  0  0  0  0  0  0  0  0
    8.5329    1.5737   -0.3340 H   0  0  0  0  0  0  0  0  0  0  0  0
   10.8772    1.2364    0.3646 H   0  0  0  0  0  0  0  0  0  0  0  0
   11.4574   -0.7503    1.7695 H   0  0  0  0  0  0  0  0  0  0  0  0
    9.6141   -2.3153    2.3965 H   0  0  0  0  0  0  0  0  0  0  0  0
    5.6617   -1.9815    0.4095 H   0  0  0  0  0  0  0  0  0  0  0  0
    5.6406   -1.0492    1.9212 H   0  0  0  0  0  0  0  0  0  0  0  0
    3.3774   -1.2791    0.8971 H   0  0  0  0  0  0  0  0  0  0  0  0
    3.8868    0.4177    1.1123 H   0  0  0  0  0  0  0  0  0  0  0  0
  1  2  2  0
  2  3  1  0
  3  4  2  0
  4  5  1  0
  5  6  1  0
  6  7  2  0
  7  8  1  0
  8  9  2  0
  9 10  1  0
 10 11  2  0
 10 12  2  0
 10 13  1  0
 13 14  1  0
 14 15  1  0
 15 16  1  0
 16 17  1  0
 17 18  1  0
  9 19  1  0
 19 20  2  0
  5 21  1  0
 21 22  2  0
  2 23  1  0
 23 24  1  0
 24 25  1  0
 25 26  1  0
 26 27  1  0
 27 28  2  0
 28 29  1  0
 29 30  2  0
 30 31  1  0
 31 32  2  0
 26 33  1  0
 33 34  1  0
 22  3  1  0
 34 23  1  0
 20  6  1  0
 32 27  1  0
 18 13  1  0
  4 35  1  0
  7 36  1  0
  8 37  1  0
 14 38  1  0
 14 39  1  0
 15 40  1  0
 15 41  1  0
 16 42  1  0
 16 43  1  0
 17 44  1  0
 17 45  1  0
 18 46  1  0
 18 47  1  0
 19 48  1  0
 20 49  1  0
 21 50  1  0
 24 51  1  0
 24 52  1  0
 25 53  1  0
 25 54  1  0
 28 55  1  0
 29 56  1  0
 30 57  1  0
 31 58  1  0
 33 59  1  0
 33 60  1  0
 34 61  1  0
 34 62  1  0
M  END
$$$$
