
     RDKit          3D

 88 90  0  0  0  0  0  0  0  0999 V2000
    0.6835    0.0000    0.0000 Cl  0  0  0  0  0  0  0  0  0  0  0  0
   14.3541    0.7199    0.0001 N   0  0  0  0  0  0  0  0  0  0  0  0
   13.1869    1.2344    0.6880 C   0  0  0  0  0  0  0  0  0  0  0  0
   11.9259    0.4942    0.2409 C   0  0  0  0  0  0  0  0  0  0  0  0
   10.8694    1.0370    0.9343 O   0  0  0  0  0  0  0  0  0  0  0  0
    9.6969    0.4065    0.6449 C   0  0  0  0  0  0  0  0  0  0  0  0
    9.2688    0.4580   -0.7848 C   0  0  0  0  0  0  0  0  0  0  0  0
    9.0681    1.6256   -1.3364 O   0  0  0  0  0  0  0  0  0  0  0  0
    8.2274    2.6010   -1.1033 C   0  0  0  0  0  0  0  0  0  0  0  0
    6.7844    2.3015   -1.3455 C   0  0  0  0  0  0  0  0  0  0  0  0
    6.3046    1.2520   -0.5048 N   0  0  0  0  0  0  0  0  0  0  0  0
    4.9340    0.7780   -0.6062 C   0  0  0  0  0  0  0  0  0  0  0  0
    4.2396    1.3635   -1.4761 O   0  0  0  0  0  0  0  0  0  0  0  0
    4.4249   -0.2979    0.2485 C   0  0  0  0  0  0  0  0  0  0  0  0
    3.0332   -0.6484    0.0209 C   0  0  0  0  0  0  0  0  0  0  0  0
    2.0340   -0.0187    0.7256 C   0  0  0  0  0  0  0  0  0  0  0  0
    0.6837   -0.3382    0.5272 C   0  0  0  0  0  0  0  0  0  0  0  0
    0.3267   -1.2851   -0.3731 C   0  0  0  0  0  0  0  0  0  0  0  0
   -0.9968   -1.6585   -0.6229 N   0  0  0  0  0  0  0  0  0  0  0  0
   -2.1344   -1.1200    0.0173 C   0  0  0  0  0  0  0  0  0  0  0  0
   -2.1438   -0.1784    0.9545 N   0  0  0  0  0  0  0  0  0  0  0  0
   -3.2259    0.3281    1.5595 C   0  0  0  0  0  0  0  0  0  0  0  0
   -3.1210    1.3456    2.5680 N   0  0  0  0  0  0  0  0  0  0  0  0
   -4.3524    1.8337    3.1621 C   0  0  0  0  0  0  0  0  0  0  0  0
   -5.2352    2.4714    2.1452 C   0  0  0  0  0  0  0  0  0  0  0  0
   -6.5136    2.8090    2.5456 C   0  0  0  0  0  0  0  0  0  0  0  0
   -7.4236    3.4092    1.6925 C   0  0  0  0  0  0  0  0  0  0  0  0
   -7.0333    3.6724    0.4124 C   0  0  0  0  0  0  0  0  0  0  0  0
   -7.9134    4.2584   -0.4290 F   0  0  0  0  0  0  0  0  0  0  0  0
   -5.7577    3.3414   -0.0052 C   0  0  0  0  0  0  0  0  0  0  0  0
   -4.8572    2.7390    0.8658 C   0  0  0  0  0  0  0  0  0  0  0  0
   -4.4131   -0.1674    1.1781 N   0  0  0  0  0  0  0  0  0  0  0  0
   -4.5128   -1.1325    0.2276 C   0  0  0  0  0  0  0  0  0  0  0  0
   -5.7892   -1.6448   -0.1586 N   0  0  0  0  0  0  0  0  0  0  0  0
   -6.9588   -1.1052    0.4921 C   0  0  0  0  0  0  0  0  0  0  0  0
   -8.2239   -1.7862   -0.0507 C   0  0  0  0  0  0  0  0  0  0  0  0
   -8.2606   -1.5065   -1.5205 C   0  0  0  0  0  0  0  0  0  0  0  0
   -8.9846   -2.5217   -2.3395 C   0  0  0  0  0  0  0  0  0  0  0  0
   -9.9048   -3.3069   -1.4111 C   0  0  0  0  0  0  0  0  0  0  0  0
   -8.9964   -4.1264   -0.5207 C   0  0  0  0  0  0  0  0  0  0  0  0
   -8.0720   -3.2509    0.2921 C   0  0  0  0  0  0  0  0  0  0  0  0
   -3.3850   -1.5840   -0.3269 N   0  0  0  0  0  0  0  0  0  0  0  0
    1.3348   -1.9397   -1.1033 C   0  0  0  0  0  0  0  0  0  0  0  0
    2.6670   -1.6110   -0.8943 C   0  0  0  0  0  0  0  0  0  0  0  0
   -0.6835    0.0000    0.0000 H   0  0  0  0  0  0  0  0  0  0  0  0
   14.7484   -0.0526    0.5818 H   0  0  0  0  0  0  0  0  0  0  0  0
   14.0898    0.3190   -0.9401 H   0  0  0  0  0  0  0  0  0  0  0  0
   13.3097    1.1120    1.7643 H   0  0  0  0  0  0  0  0  0  0  0  0
   13.0288    2.3023    0.4673 H   0  0  0  0  0  0  0  0  0  0  0  0
   11.9960   -0.5926    0.3916 H   0  0  0  0  0  0  0  0  0  0  0  0
   11.8221    0.6897   -0.8681 H   0  0  0  0  0  0  0  0  0  0  0  0
    8.8570    0.7273    1.2979 H   0  0  0  0  0  0  0  0  0  0  0  0
    9.7974   -0.7011    0.8923 H   0  0  0  0  0  0  0  0  0  0  0  0
   10.1180   -0.0587   -1.3758 H   0  0  0  0  0  0  0  0  0  0  0  0
    8.4613   -0.3182   -0.9000 H   0  0  0  0  0  0  0  0  0  0  0  0
    8.2782    2.8506    0.0197 H   0  0  0  0  0  0  0  0  0  0  0  0
    8.4771    3.5720   -1.6488 H   0  0  0  0  0  0  0  0  0  0  0  0
    6.5788    2.0968   -2.4326 H   0  0  0  0  0  0  0  0  0  0  0  0
    6.2374    3.2703   -1.1571 H   0  0  0  0  0  0  0  0  0  0  0  0
    6.8656    0.8057    0.2060 H   0  0  0  0  0  0  0  0  0  0  0  0
    5.0282   -1.2270    0.2031 H   0  0  0  0  0  0  0  0  0  0  0  0
    4.5165    0.0522    1.3145 H   0  0  0  0  0  0  0  0  0  0  0  0
    2.2899    0.7479    1.4568 H   0  0  0  0  0  0  0  0  0  0  0  0
   -0.0039    0.2201    1.1346 H   0  0  0  0  0  0  0  0  0  0  0  0
   -1.2115   -2.4133   -1.3544 H   0  0  0  0  0  0  0  0  0  0  0  0
   -2.2197    1.7304    2.8755 H   0  0  0  0  0  0  0  0  0  0  0  0
   -4.1645    2.4995    4.0197 H   0  0  0  0  0  0  0  0  0  0  0  0
   -4.9502    0.9646    3.5663 H   0  0  0  0  0  0  0  0  0  0  0  0
   -6.8488    2.6111    3.5561 H   0  0  0  0  0  0  0  0  0  0  0  0
   -8.4167    3.6620    2.0339 H   0  0  0  0  0  0  0  0  0  0  0  0
   -5.4421    3.5465   -1.0162 H   0  0  0  0  0  0  0  0  0  0  0  0
   -3.8772    2.4911    0.5328 H   0  0  0  0  0  0  0  0  0  0  0  0
   -5.8104   -2.3763   -0.8847 H   0  0  0  0  0  0  0  0  0  0  0  0
   -7.0035   -0.0124    0.3741 H   0  0  0  0  0  0  0  0  0  0  0  0
   -6.9093   -1.4082    1.5725 H   0  0  0  0  0  0  0  0  0  0  0  0
   -9.0711   -1.3115    0.5105 H   0  0  0  0  0  0  0  0  0  0  0  0
   -8.7771   -0.5151   -1.6616 H   0  0  0  0  0  0  0  0  0  0  0  0
   -7.2456   -1.3823   -1.9575 H   0  0  0  0  0  0  0  0  0  0  0  0
   -9.5360   -2.0164   -3.1493 H   0  0  0  0  0  0  0  0  0  0  0  0
   -8.2946   -3.2403   -2.8363 H   0  0  0  0  0  0  0  0  0  0  0  0
  -10.5536   -2.6207   -0.8478 H   0  0  0  0  0  0  0  0  0  0  0  0
  -10.4995   -3.9904   -2.0331 H   0  0  0  0  0  0  0  0  0  0  0  0
   -9.6002   -4.8124    0.0793 H   0  0  0  0  0  0  0  0  0  0  0  0
   -8.3520   -4.7404   -1.1930 H   0  0  0  0  0  0  0  0  0  0  0  0
   -7.0180   -3.5689    0.2481 H   0  0  0  0  0  0  0  0  0  0  0  0
   -8.3950   -3.3648    1.3582 H   0  0  0  0  0  0  0  0  0  0  0  0
    1.0744   -2.7058   -1.8345 H   0  0  0  0  0  0  0  0  0  0  0  0
    3.4711   -2.0931   -1.4372 H   0  0  0  0  0  0  0  0  0  0  0  0
  2  3  1  0
  3  4  1  0
  4  5  1  0
  5  6  1  0
  6  7  1  0
  7  8  1  0
  8  9  1  0
  9 10  1  0
 10 11  1  0
 11 12  1  0
 12 13  2  0
 12 14  1  0
 14 15  1  0
 15 16  2  0
 16 17  1  0
 17 18  2  0
 18 19  1  0
 19 20  1  0
 20 21  2  0
 21 22  1  0
 22 23  1  0
 23 24  1  0
 24 25  1  0
 25 26  2  0
 26 27  1  0
 27 28  2  0
 28 29  1  0
 28 30  1  0
 30 31  2  0
 22 32  2  0
 32 33  1  0
 33 34  1  0
 34 35  1  0
 35 36  1  0
 36 37  1  0
 37 38  1  0
 38 39  1  0
 39 40  1  0
 40 41  1  0
 33 42  2  0
 18 43  1  0
 43 44  2  0
 44 15  1  0
 42 20  1  0
 31 25  1  0
 41 36  1  0
  1 45  1  0
  2 46  1  0
  2 47  1  0
  3 48  1  0
  3 49  1  0
  4 50  1  0
  4 51  1  0
  6 52  1  0
  6 53  1  0
  7 54  1  0
  7 55  1  0
  9 56  1  0
  9 57  1  0
 10 58  1  0
 10 59  1  0
 11 60  1  0
 14 61  1  0
 14 62  1  0
 16 63  1  0
 17 64  1  0
 19 65  1  0
 23 66  1  0
 24 67  1  0
 24 68  1  0
 26 69  1  0
 27 70  1  0
 30 71  1  0
 31 72  1  0
 34 73  1  0
 35 74  1  0
 35 75  1  0
 36 76  1  0
 37 77  1  0
 37 78  1  0
 38 79  1  0
 38 80  1  0
 39 81  1  0
 39 82  1  0
 40 83  1  0
 40 84  1  0
 41 85  1  0
 41 86  1  0
 43 87  1  0
 44 88  1  0
M  END
$$$$
