
     RDKit          3D

 47 50  0  0  0  0  0  0  0  0999 V2000
   -7.3220    0.3155   -0.1694 C   0  0  0  0  0  0  0  0  0  0  0  0
   -6.2803   -0.6036    0.4162 C   0  0  0  0  0  0  0  0  0  0  0  0
   -6.6208   -1.5782    1.0868 O   0  0  0  0  0  0  0  0  0  0  0  0
   -4.9487   -0.3079    0.1483 N   0  0  0  0  0  0  0  0  0  0  0  0
   -4.4941    1.0052   -0.3214 C   0  0  0  0  0  0  0  0  0  0  0  0
   -3.1707    0.9265   -1.0915 C   0  0  0  0  0  0  0  0  0  0  0  0
   -2.1471    0.1438   -0.3890 N   0  0  0  0  0  0  0  0  0  0  0  0
   -0.8216    0.5374   -0.5275 C   0  0  0  0  0  0  0  0  0  0  0  0
   -0.5263    1.6143   -1.0476 O   0  0  0  0  0  0  0  0  0  0  0  0
    0.2624   -0.3945   -0.0143 C   0  0  0  0  0  0  0  0  0  0  0  0
    0.4584   -1.6066   -0.9097 C   0  0  0  0  0  0  0  0  0  0  0  0
    1.9210   -1.9441   -0.7543 C   0  0  0  0  0  0  0  0  0  0  0  0
    2.3665   -3.0237   -1.1137 O   0  0  0  0  0  0  0  0  0  0  0  0
    2.5632   -0.8284   -0.2034 N   0  0  0  0  0  0  0  0  0  0  0  0
    3.9373   -0.7831    0.0363 C   0  0  0  0  0  0  0  0  0  0  0  0
    4.6946   -1.8854   -0.0089 N   0  0  0  0  0  0  0  0  0  0  0  0
    5.9294   -1.4813    0.2835 N   0  0  0  0  0  0  0  0  0  0  0  0
    6.0357   -0.1456    0.5360 C   0  0  0  0  0  0  0  0  0  0  0  0
    7.1438    0.6407    0.8769 C   0  0  0  0  0  0  0  0  0  0  0  0
    6.9311    2.0090    1.0585 C   0  0  0  0  0  0  0  0  0  0  0  0
    5.6624    2.5574    0.8974 C   0  0  0  0  0  0  0  0  0  0  0  0
    4.5754    1.7461    0.5561 C   0  0  0  0  0  0  0  0  0  0  0  0
    3.3846    2.3370    0.3961 F   0  0  0  0  0  0  0  0  0  0  0  0
    4.7438    0.3585    0.3766 C   0  0  0  0  0  0  0  0  0  0  0  0
    1.6376    0.2604   -0.0372 C   0  0  0  0  0  0  0  0  0  0  0  0
   -2.6032   -1.1715    0.0804 C   0  0  0  0  0  0  0  0  0  0  0  0
   -3.9319   -1.0977    0.8446 C   0  0  0  0  0  0  0  0  0  0  0  0
   -7.2443    1.3092    0.2792 H   0  0  0  0  0  0  0  0  0  0  0  0
   -7.2109    0.3707   -1.2554 H   0  0  0  0  0  0  0  0  0  0  0  0
   -8.3182   -0.0817    0.0488 H   0  0  0  0  0  0  0  0  0  0  0  0
   -4.3732    1.6329    0.5699 H   0  0  0  0  0  0  0  0  0  0  0  0
   -5.2480    1.4784   -0.9554 H   0  0  0  0  0  0  0  0  0  0  0  0
   -3.3326    0.4298   -2.0564 H   0  0  0  0  0  0  0  0  0  0  0  0
   -2.8182    1.9410   -1.3036 H   0  0  0  0  0  0  0  0  0  0  0  0
    0.0410   -0.6966    1.0162 H   0  0  0  0  0  0  0  0  0  0  0  0
    0.2502   -1.3924   -1.9633 H   0  0  0  0  0  0  0  0  0  0  0  0
   -0.1461   -2.4575   -0.5847 H   0  0  0  0  0  0  0  0  0  0  0  0
    6.6669   -2.1766    0.2945 H   0  0  0  0  0  0  0  0  0  0  0  0
    8.1342    0.2103    0.9929 H   0  0  0  0  0  0  0  0  0  0  0  0
    7.7674    2.6534    1.3217 H   0  0  0  0  0  0  0  0  0  0  0  0
    5.5039    3.6240    1.0297 H   0  0  0  0  0  0  0  0  0  0  0  0
    1.8144    0.7714    0.9139 H   0  0  0  0  0  0  0  0  0  0  0  0
    1.7800    0.9553   -0.8716 H   0  0  0  0  0  0  0  0  0  0  0  0
   -1.8584   -1.6415    0.7248 H   0  0  0  0  0  0  0  0  0  0  0  0
   -2.7194   -1.7989   -0.8114 H   0  0  0  0  0  0  0  0  0  0  0  0
   -3.7739   -0.6181    1.8188 H   0  0  0  0  0  0  0  0  0  0  0  0
   -4.2955   -2.1133    1.0351 H   0  0  0  0  0  0  0  0  0  0  0  0
  1  2  1  0
  2  3  2  0
  2  4  1  0
  4  5  1  0
  5  6  1  0
  6  7  1  0
  7  8  1  0
  8  9  2  0
  8 10  1  0
 10 11  1  0
 11 12  1  0
 12 13  2  0
 12 14  1  0
 14 15  1  0
 15 16  2  0
 16 17  1  0
 17 18  1  0
 18 19  2  0
 19 20  1  0
 20 21  2  0
 21 22  1  0
 22 23  1  0
 22 24  2  0
 14 25  1  0
  7 26  1  0
 26 27  1  0
 27  4  1  0
 25 10  1  0
 24 15  1  0
 24 18  1  0
  1 28  1  0
  1 29  1  0
  1 30  1  0
  5 31  1  0
  5 32  1  0
  6 33  1  0
  6 34  1  0
 10 35  1  0
 11 36  1  0
 11 37  1  0
 17 38  1  0
 19 39  1  0
 20 40  1  0
 21 41  1  0
 25 42  1  0
 25 43  1  0
 26 44  1  0
 26 45  1  0
 27 46  1  0
 27 47  1  0
M  END
$$$$
