
     RDKit          3D

 47 47  0  0  0  0  0  0  0  0999 V2000
    1.0543   -1.8980   -0.1889 C   0  0  0  0  0  0  0  0  0  0  0  0
    2.2538   -1.2224    0.2922 C   0  0  0  0  0  0  0  0  0  0  0  0
    3.1979   -1.9119    1.0831 C   0  0  0  0  0  0  0  0  0  0  0  0
    4.3342   -1.3718    1.5298 N   0  0  0  0  0  0  0  0  0  0  0  0
    4.6177   -0.1090    1.2252 C   0  0  0  0  0  0  0  0  0  0  0  0
    3.7568    0.6455    0.4591 C   0  0  0  0  0  0  0  0  0  0  0  0
    4.0858    1.9448    0.1593 C   0  0  0  0  0  0  0  0  0  0  0  0
    3.2762    2.7251   -0.5931 C   0  0  0  0  0  0  0  0  0  0  0  0
    2.1173    2.1666   -1.0407 C   0  0  0  0  0  0  0  0  0  0  0  0
    1.6890    0.8371   -0.7850 C   0  0  0  0  0  0  0  0  0  0  0  0
    0.1968    0.2539   -1.3427 S   0  0  0  0  0  6  0  0  0  0  0  0
    0.1670   -0.3044   -2.7579 O   0  0  0  0  0  0  0  0  0  0  0  0
   -0.5073    1.5749   -1.8089 O   0  0  0  0  0  0  0  0  0  0  0  0
   -1.0328   -0.2125   -0.2961 N   0  0  0  0  0  0  0  0  0  0  0  0
   -1.4209    0.9328    0.5031 C   0  0  0  0  0  0  0  0  0  0  0  0
   -2.0741    0.5737    1.7948 C   0  0  0  0  0  0  0  0  0  0  0  0
   -3.5529    0.9275    1.6627 C   0  0  0  0  0  0  0  0  0  0  0  0
   -3.9542    0.5422    0.3347 N   0  0  0  0  0  0  0  0  0  0  0  0
   -3.4238   -0.6987   -0.0999 C   0  0  0  0  0  0  0  0  0  0  0  0
   -2.2291   -0.6405   -0.9882 C   0  0  2  0  0  0  0  0  0  0  0  0
   -2.0577   -2.0097   -1.6111 C   0  0  0  0  0  0  0  0  0  0  0  0
    2.5451    0.0776   -0.0185 C   0  0  0  0  0  0  0  0  0  0  0  0
    0.6855    0.0000    0.0000 Cl  0  0  0  0  0  0  0  0  0  0  0  0
    0.6919    0.0000    0.0000 Cl  0  0  0  0  0  0  0  0  0  0  0  0
    0.3092   -2.1040    0.6250 H   0  0  0  0  0  0  0  0  0  0  0  0
    1.4297   -3.0361   -0.1349 H   0  0  0  0  0  0  0  0  0  0  0  0
    0.7982   -2.0030   -1.2048 H   0  0  0  0  0  0  0  0  0  0  0  0
    2.9237   -2.9477    1.3169 H   0  0  0  0  0  0  0  0  0  0  0  0
    5.5381    0.3808    1.5667 H   0  0  0  0  0  0  0  0  0  0  0  0
    5.0233    2.3840    0.5276 H   0  0  0  0  0  0  0  0  0  0  0  0
    3.5083    3.7349   -0.8408 H   0  0  0  0  0  0  0  0  0  0  0  0
    1.4161    2.7410   -1.6624 H   0  0  0  0  0  0  0  0  0  0  0  0
   -0.4996    1.5323    0.7648 H   0  0  0  0  0  0  0  0  0  0  0  0
   -2.0299    1.6533   -0.1143 H   0  0  0  0  0  0  0  0  0  0  0  0
   -1.9172   -0.4886    2.0479 H   0  0  0  0  0  0  0  0  0  0  0  0
   -1.6912    1.1915    2.6585 H   0  0  0  0  0  0  0  0  0  0  0  0
   -4.0962    0.4118    2.4660 H   0  0  0  0  0  0  0  0  0  0  0  0
   -3.6288    2.0186    1.7601 H   0  0  0  0  0  0  0  0  0  0  0  0
   -4.0222    1.2948   -0.3481 H   0  0  0  0  0  0  0  0  0  0  0  0
   -3.2646   -1.3483    0.7828 H   0  0  0  0  0  0  0  0  0  0  0  0
   -4.2322   -1.2190   -0.6938 H   0  0  0  0  0  0  0  0  0  0  0  0
   -2.4417    0.0973   -1.7995 H   0  0  0  0  0  0  0  0  0  0  0  0
   -1.4304   -1.9940   -2.5213 H   0  0  0  0  0  0  0  0  0  0  0  0
   -3.0994   -2.3874   -1.8217 H   0  0  0  0  0  0  0  0  0  0  0  0
   -1.6321   -2.7350   -0.8876 H   0  0  0  0  0  0  0  0  0  0  0  0
   -0.6855    0.0000    0.0000 H   0  0  0  0  0  0  0  0  0  0  0  0
   -0.6919    0.0000    0.0000 H   0  0  0  0  0  0  0  0  0  0  0  0
  1  2  1  0
  2  3  2  0
  3  4  1  0
  4  5  2  0
  5  6  1  0
  6  7  2  0
  7  8  1  0
  8  9  2  0
  9 10  1  0
 10 11  1  0
 11 12  2  0
 11 13  2  0
 11 14  1  0
 14 15  1  0
 15 16  1  0
 16 17  1  0
 17 18  1  0
 18 19  1  0
 19 20  1  0
 20 21  1  0
 10 22  2  0
 22  2  1  0
 22  6  1  0
 20 14  1  0
  1 25  1  0
  1 26  1  0
  1 27  1  0
  3 28  1  0
  5 29  1  0
  7 30  1  0
  8 31  1  0
  9 32  1  0
 15 33  1  0
 15 34  1  0
 16 35  1  0
 16 36  1  0
 17 37  1  0
 17 38  1  0
 18 39  1  0
 19 40  1  0
 19 41  1  0
 20 42  1  6
 21 43  1  0
 21 44  1  0
 21 45  1  0
 23 46  1  0
 24 47  1  0
M  END
$$$$
