
     RDKit          3D

 28 29  0  0  0  0  0  0  0  0999 V2000
    5.2660    0.2211   -1.1614 C   0  0  0  0  0  0  0  0  0  0  0  0
    3.8270    0.2474   -1.1102 N   0  0  0  0  0  0  0  0  0  0  0  0
    3.1352   -0.0516    0.0354 C   0  0  0  0  0  0  0  0  0  0  0  0
    3.6938   -0.4277    1.0637 O   0  0  0  0  0  0  0  0  0  0  0  0
    1.6476    0.1091   -0.0310 C   0  0  0  0  0  0  0  0  0  0  0  0
    0.9568   -0.2497    1.0649 C   0  0  0  0  0  0  0  0  0  0  0  0
   -0.4919   -0.1376    1.1100 C   0  0  0  0  0  0  0  0  0  0  0  0
   -1.2243   -0.5047    2.2385 C   0  0  0  0  0  0  0  0  0  0  0  0
   -2.6143   -0.3782    2.2277 C   0  0  0  0  0  0  0  0  0  0  0  0
   -3.5160   -0.8325    3.6230 Cl  0  0  0  0  0  0  0  0  0  0  0  0
   -3.2869    0.1108    1.1034 C   0  0  0  0  0  0  0  0  0  0  0  0
   -2.5646    0.4811   -0.0313 C   0  0  0  0  0  0  0  0  0  0  0  0
   -3.1031    0.9713   -1.1890 O   0  0  0  0  0  0  0  0  0  0  0  0
   -4.5164    1.1174   -1.2448 C   0  0  0  0  0  0  0  0  0  0  0  0
   -1.1690    0.3485   -0.0054 C   0  0  0  0  0  0  0  0  0  0  0  0
   -0.4402    0.7250   -1.1545 O   0  0  0  0  0  0  0  0  0  0  0  0
    0.9446    0.6343   -1.2225 C   0  0  0  0  0  0  0  0  0  0  0  0
    1.5491    0.9812   -2.2345 O   0  0  0  0  0  0  0  0  0  0  0  0
    5.5759    0.1505   -2.2065 H   0  0  0  0  0  0  0  0  0  0  0  0
    5.6471    1.1478   -0.7244 H   0  0  0  0  0  0  0  0  0  0  0  0
    5.6527   -0.6329   -0.5989 H   0  0  0  0  0  0  0  0  0  0  0  0
    3.3219    0.6395   -1.9056 H   0  0  0  0  0  0  0  0  0  0  0  0
    1.4593   -0.6359    1.9487 H   0  0  0  0  0  0  0  0  0  0  0  0
   -0.7232   -0.8877    3.1245 H   0  0  0  0  0  0  0  0  0  0  0  0
   -4.3682    0.1914    1.1412 H   0  0  0  0  0  0  0  0  0  0  0  0
   -4.7728    1.5171   -2.2306 H   0  0  0  0  0  0  0  0  0  0  0  0
   -5.0173    0.1497   -1.1368 H   0  0  0  0  0  0  0  0  0  0  0  0
   -4.8689    1.8317   -0.4935 H   0  0  0  0  0  0  0  0  0  0  0  0
  1  2  1  0
  2  3  1  0
  3  4  2  0
  3  5  1  0
  5  6  2  0
  6  7  1  0
  7  8  2  0
  8  9  1  0
  9 10  1  0
  9 11  2  0
 11 12  1  0
 12 13  1  0
 13 14  1  0
 12 15  2  0
 15 16  1  0
 16 17  1  0
 17 18  2  0
 17  5  1  0
 15  7  1  0
  1 19  1  0
  1 20  1  0
  1 21  1  0
  2 22  1  0
  6 23  1  0
  8 24  1  0
 11 25  1  0
 14 26  1  0
 14 27  1  0
 14 28  1  0
M  END
$$$$
