
     RDKit          3D

 25 26  0  0  0  0  0  0  0  0999 V2000
   -0.8979   -2.3579    2.9568 N   0  0  0  0  0  0  0  0  0  0  0  0
   -0.7150   -1.3810    2.3545 C   0  0  0  0  0  0  0  0  0  0  0  0
   -0.4643   -0.1561    1.5633 C   0  0  0  0  0  0  0  0  0  0  0  0
    0.9821    0.0041    1.0851 C   0  0  0  0  0  0  0  0  0  0  0  0
    1.8346   -1.0903    0.8525 C   0  0  0  0  0  0  0  0  0  0  0  0
    3.1401   -0.8915    0.3921 C   0  0  0  0  0  0  0  0  0  0  0  0
    3.6049    0.3987    0.1510 C   0  0  0  0  0  0  0  0  0  0  0  0
    5.2100    0.6375   -0.4188 Cl  0  0  0  0  0  0  0  0  0  0  0  0
    2.7750    1.4952    0.3640 C   0  0  0  0  0  0  0  0  0  0  0  0
    1.4710    1.2994    0.8253 C   0  0  0  0  0  0  0  0  0  0  0  0
   -1.4576   -0.0243    0.4143 C   0  0  0  0  0  0  0  0  0  0  0  0
   -1.5736   -1.0093   -0.5719 C   0  0  0  0  0  0  0  0  0  0  0  0
   -2.4848   -0.8277   -1.6105 C   0  0  0  0  0  0  0  0  0  0  0  0
   -3.2539    0.3285   -1.6483 C   0  0  0  0  0  0  0  0  0  0  0  0
   -3.0727    1.2548   -0.6390 C   0  0  0  0  0  0  0  0  0  0  0  0
   -3.9721    2.7138   -0.6084 Cl  0  0  0  0  0  0  0  0  0  0  0  0
   -2.2013    1.1128    0.3820 N   0  0  0  0  0  0  0  0  0  0  0  0
   -0.6530    0.6787    2.2552 H   0  0  0  0  0  0  0  0  0  0  0  0
    1.5048   -2.1137    1.0257 H   0  0  0  0  0  0  0  0  0  0  0  0
    3.7880   -1.7483    0.2236 H   0  0  0  0  0  0  0  0  0  0  0  0
    3.1332    2.5032    0.1707 H   0  0  0  0  0  0  0  0  0  0  0  0
    0.8315    2.1696    0.9752 H   0  0  0  0  0  0  0  0  0  0  0  0
   -0.9672   -1.9108   -0.5432 H   0  0  0  0  0  0  0  0  0  0  0  0
   -2.5915   -1.5832   -2.3848 H   0  0  0  0  0  0  0  0  0  0  0  0
   -3.9702    0.4978   -2.4440 H   0  0  0  0  0  0  0  0  0  0  0  0
  1  2  3  0
  2  3  1  0
  3  4  1  0
  4  5  2  0
  5  6  1  0
  6  7  2  0
  7  8  1  0
  7  9  1  0
  9 10  2  0
  3 11  1  0
 11 12  2  0
 12 13  1  0
 13 14  2  0
 14 15  1  0
 15 16  1  0
 15 17  2  0
 10  4  1  0
 17 11  1  0
  3 18  1  0
  5 19  1  0
  6 20  1  0
  9 21  1  0
 10 22  1  0
 12 23  1  0
 13 24  1  0
 14 25  1  0
M  END
$$$$
