
     RDKit          3D

 42 46  0  0  0  0  0  0  0  0999 V2000
    6.0655   -0.9956   -1.4441 O   0  0  0  0  0  0  0  0  0  0  0  0
    4.7966   -1.4858   -1.3426 C   0  0  0  0  0  0  0  0  0  0  0  0
    4.5786   -2.7972   -1.7388 C   0  0  0  0  0  0  0  0  0  0  0  0
    3.2986   -3.3337   -1.6499 C   0  0  0  0  0  0  0  0  0  0  0  0
    2.2458   -2.5504   -1.1648 C   0  0  0  0  0  0  0  0  0  0  0  0
    2.4436   -1.2146   -0.7570 C   0  0  0  0  0  0  0  0  0  0  0  0
    1.3251   -0.3901   -0.2448 C   0  0  0  0  0  0  0  0  0  0  0  0
    0.0956   -0.9603   -0.2356 N   0  0  0  0  0  0  0  0  0  0  0  0
   -0.9949   -0.2821    0.2196 C   0  0  0  0  0  0  0  0  0  0  0  0
   -2.2249   -0.9067    0.2253 N   0  0  0  0  0  0  0  0  0  0  0  0
   -3.4393   -0.2508    0.7187 C   0  0  0  0  0  0  0  0  0  0  0  0
   -4.5706   -1.2834    0.8608 C   0  0  0  0  0  0  0  0  0  0  0  0
   -4.8983   -1.9632   -0.3592 O   0  0  0  0  0  0  0  0  0  0  0  0
   -3.7853   -2.1001   -1.2545 C   0  0  0  0  0  0  0  0  0  0  0  0
   -2.4142   -2.1332   -0.5583 C   0  0  0  0  0  0  0  0  0  0  0  0
   -0.7306    1.0166    0.6578 C   0  0  0  0  0  0  0  0  0  0  0  0
   -1.6024    1.9409    1.1535 O   0  0  0  0  0  0  0  0  0  0  0  0
   -0.8802    3.0589    1.4395 C   0  0  0  0  0  0  0  0  0  0  0  0
   -1.4366    4.1715    1.9525 N   0  0  0  0  0  0  0  0  0  0  0  0
   -0.5428    5.1640    2.1599 C   0  0  0  0  0  0  0  0  0  0  0  0
    0.8192    5.1002    1.8909 C   0  0  0  0  0  0  0  0  0  0  0  0
    1.3512    3.9255    1.3590 C   0  0  0  0  0  0  0  0  0  0  0  0
    0.4627    2.8635    1.1254 C   0  0  0  0  0  0  0  0  0  0  0  0
    0.5489    1.5438    0.6192 C   0  0  0  0  0  0  0  0  0  0  0  0
    1.6202    0.8571    0.1665 N   0  0  0  0  0  0  0  0  0  0  0  0
    3.7519   -0.6989   -0.8578 C   0  0  0  0  0  0  0  0  0  0  0  0
    6.0695   -0.0763   -1.1308 H   0  0  0  0  0  0  0  0  0  0  0  0
    5.4020   -3.3979   -2.1139 H   0  0  0  0  0  0  0  0  0  0  0  0
    3.1163   -4.3604   -1.9561 H   0  0  0  0  0  0  0  0  0  0  0  0
    1.2542   -2.9972   -1.1039 H   0  0  0  0  0  0  0  0  0  0  0  0
   -3.2704    0.1963    1.7041 H   0  0  0  0  0  0  0  0  0  0  0  0
   -3.7421    0.5317    0.0131 H   0  0  0  0  0  0  0  0  0  0  0  0
   -5.4822   -0.7957    1.2205 H   0  0  0  0  0  0  0  0  0  0  0  0
   -4.2965   -2.0461    1.5995 H   0  0  0  0  0  0  0  0  0  0  0  0
   -3.8287   -1.2633   -1.9617 H   0  0  0  0  0  0  0  0  0  0  0  0
   -3.9378   -3.0195   -1.8288 H   0  0  0  0  0  0  0  0  0  0  0  0
   -1.6481   -2.2639   -1.3309 H   0  0  0  0  0  0  0  0  0  0  0  0
   -2.3620   -2.9911    0.1221 H   0  0  0  0  0  0  0  0  0  0  0  0
   -0.9723    6.0740    2.5750 H   0  0  0  0  0  0  0  0  0  0  0  0
    1.4581    5.9543    2.0928 H   0  0  0  0  0  0  0  0  0  0  0  0
    2.4088    3.8330    1.1341 H   0  0  0  0  0  0  0  0  0  0  0  0
    3.9473    0.3263   -0.5537 H   0  0  0  0  0  0  0  0  0  0  0  0
  1  2  1  0
  2  3  2  0
  3  4  1  0
  4  5  2  0
  5  6  1  0
  6  7  1  0
  7  8  2  0
  8  9  1  0
  9 10  1  0
 10 11  1  0
 11 12  1  0
 12 13  1  0
 13 14  1  0
 14 15  1  0
  9 16  2  0
 16 17  1  0
 17 18  1  0
 18 19  2  0
 19 20  1  0
 20 21  2  0
 21 22  1  0
 22 23  2  0
 23 24  1  0
 24 25  2  0
  6 26  2  0
 26  2  1  0
 25  7  1  0
 15 10  1  0
 24 16  1  0
 23 18  1  0
  1 27  1  0
  3 28  1  0
  4 29  1  0
  5 30  1  0
 11 31  1  0
 11 32  1  0
 12 33  1  0
 12 34  1  0
 14 35  1  0
 14 36  1  0
 15 37  1  0
 15 38  1  0
 20 39  1  0
 21 40  1  0
 22 41  1  0
 26 42  1  0
M  END
$$$$
