
     RDKit          3D

 50 52  0  0  0  0  0  0  0  0999 V2000
   -6.7509   -1.9920    1.1005 C   0  0  0  0  0  0  0  0  0  0  0  0
   -5.9336   -0.8601    0.6716 N   0  0  0  0  0  0  0  0  0  0  0  0
   -5.5256   -0.0076    1.7946 C   0  0  0  0  0  0  0  0  0  0  0  0
   -4.0793   -0.2387    2.2233 C   0  0  0  0  0  0  0  0  0  0  0  0
   -3.1012    0.0136    1.0632 C   0  0  0  0  0  0  0  0  0  0  0  0
   -2.3647    1.6463    1.1981 S   0  0  0  0  0  6  0  0  0  0  0  0
   -1.6299    1.6774    2.4576 O   0  0  0  0  0  0  0  0  0  0  0  0
   -3.3631    2.6628    0.9524 O   0  0  0  0  0  0  0  0  0  0  0  0
   -1.1095    1.6889   -0.0589 C   0  0  0  0  0  0  0  0  0  0  0  0
   -1.3330    2.2027   -1.3404 C   0  0  0  0  0  0  0  0  0  0  0  0
   -2.8209    2.8637   -1.9084 Cl  0  0  0  0  0  0  0  0  0  0  0  0
   -0.2961    2.1797   -2.2843 C   0  0  0  0  0  0  0  0  0  0  0  0
    0.9591    1.6544   -1.9701 C   0  0  0  0  0  0  0  0  0  0  0  0
    1.2001    1.1539   -0.6969 C   0  0  0  0  0  0  0  0  0  0  0  0
    2.4340    0.6148   -0.2769 N   0  0  0  0  0  0  0  0  0  0  0  0
    3.5625    0.3625   -1.0348 C   0  0  0  0  0  0  0  0  0  0  0  0
    3.6406    0.5333   -2.2441 O   0  0  0  0  0  0  0  0  0  0  0  0
    4.5867   -0.1108   -0.2334 N   0  0  0  0  0  0  0  0  0  0  0  0
    5.8835   -0.5317   -0.6184 C   0  0  0  0  0  0  0  0  0  0  0  0
    6.2974   -0.6213   -1.9529 C   0  0  0  0  0  0  0  0  0  0  0  0
    7.5916   -1.0483   -2.2758 C   0  0  0  0  0  0  0  0  0  0  0  0
    8.4872   -1.3942   -1.2682 C   0  0  0  0  0  0  0  0  0  0  0  0
    8.0847   -1.3132    0.0595 C   0  0  0  0  0  0  0  0  0  0  0  0
    8.9611   -1.6539    1.0166 F   0  0  0  0  0  0  0  0  0  0  0  0
    6.7969   -0.8883    0.3922 C   0  0  0  0  0  0  0  0  0  0  0  0
    6.3435   -0.8079    2.0635 Cl  0  0  0  0  0  0  0  0  0  0  0  0
    0.1693    1.1927    0.2611 C   0  0  0  0  0  0  0  0  0  0  0  0
    0.5094    0.7020    1.5059 O   0  0  0  0  0  0  0  0  0  0  0  0
   -3.7542   -0.2294   -0.2996 C   0  0  0  0  0  0  0  0  0  0  0  0
   -4.8346   -1.3004   -0.1928 C   0  0  0  0  0  0  0  0  0  0  0  0
   -7.6498   -1.6440    1.6214 H   0  0  0  0  0  0  0  0  0  0  0  0
   -6.2013   -2.6640    1.7691 H   0  0  0  0  0  0  0  0  0  0  0  0
   -7.0956   -2.5700    0.2357 H   0  0  0  0  0  0  0  0  0  0  0  0
   -5.6445    1.0381    1.4852 H   0  0  0  0  0  0  0  0  0  0  0  0
   -6.1915   -0.1336    2.6573 H   0  0  0  0  0  0  0  0  0  0  0  0
   -3.9742   -1.2793    2.5582 H   0  0  0  0  0  0  0  0  0  0  0  0
   -3.8494    0.3845    3.0944 H   0  0  0  0  0  0  0  0  0  0  0  0
   -2.2606   -0.6817    1.1887 H   0  0  0  0  0  0  0  0  0  0  0  0
   -0.4573    2.5738   -3.2873 H   0  0  0  0  0  0  0  0  0  0  0  0
    1.7266    1.6642   -2.7384 H   0  0  0  0  0  0  0  0  0  0  0  0
    2.4254    0.2977    0.6854 H   0  0  0  0  0  0  0  0  0  0  0  0
    4.4306   -0.0804    0.7659 H   0  0  0  0  0  0  0  0  0  0  0  0
    5.6335   -0.3683   -2.7747 H   0  0  0  0  0  0  0  0  0  0  0  0
    7.8938   -1.1092   -3.3193 H   0  0  0  0  0  0  0  0  0  0  0  0
    9.4927   -1.7265   -1.5075 H   0  0  0  0  0  0  0  0  0  0  0  0
   -0.0744    1.1090    2.1891 H   0  0  0  0  0  0  0  0  0  0  0  0
   -4.2124    0.6852   -0.6901 H   0  0  0  0  0  0  0  0  0  0  0  0
   -2.9943   -0.5358   -1.0277 H   0  0  0  0  0  0  0  0  0  0  0  0
   -5.2304   -1.5167   -1.1919 H   0  0  0  0  0  0  0  0  0  0  0  0
   -4.3783   -2.2264    0.1822 H   0  0  0  0  0  0  0  0  0  0  0  0
  1  2  1  0
  2  3  1  0
  3  4  1  0
  4  5  1  0
  5  6  1  0
  6  7  2  0
  6  8  2  0
  6  9  1  0
  9 10  2  0
 10 11  1  0
 10 12  1  0
 12 13  2  0
 13 14  1  0
 14 15  1  0
 15 16  1  0
 16 17  2  0
 16 18  1  0
 18 19  1  0
 19 20  2  0
 20 21  1  0
 21 22  2  0
 22 23  1  0
 23 24  1  0
 23 25  2  0
 25 26  1  0
 14 27  2  0
 27 28  1  0
  5 29  1  0
 29 30  1  0
 30  2  1  0
 27  9  1  0
 25 19  1  0
  1 31  1  0
  1 32  1  0
  1 33  1  0
  3 34  1  0
  3 35  1  0
  4 36  1  0
  4 37  1  0
  5 38  1  0
 12 39  1  0
 13 40  1  0
 15 41  1  0
 18 42  1  0
 20 43  1  0
 21 44  1  0
 22 45  1  0
 28 46  1  0
 29 47  1  0
 29 48  1  0
 30 49  1  0
 30 50  1  0
M  END
$$$$
