
     RDKit          3D

 49 49  0  0  0  0  0  0  0  0999 V2000
   -0.8557   -2.3063    0.9103 C   0  0  0  0  0  0  0  0  0  0  0  0
   -1.0199   -1.4939   -0.2264 N   0  0  0  0  0  0  0  0  0  0  0  0
   -0.1252   -1.5914   -1.2935 C   0  0  0  0  0  0  0  0  0  0  0  0
    1.2343   -1.0991   -1.1563 C   0  0  0  0  0  0  0  0  0  0  0  0
    1.7738   -0.5093   -0.1145 C   0  0  0  0  0  0  0  0  0  0  0  0
    3.1662   -0.0751   -0.1475 C   0  0  0  0  0  0  0  0  0  0  0  0
    4.3158    0.3052   -0.1720 C   0  0  0  0  0  0  0  0  0  0  0  0
    5.7033    0.7661   -0.2249 C   0  0  0  0  0  0  0  0  0  0  0  0
    5.9859    1.3866   -1.6026 C   0  0  0  0  0  0  0  0  0  0  0  0
    5.9146    1.8452    0.7875 C   0  0  0  0  0  0  0  0  0  0  0  0
    6.6552   -0.3885   -0.0520 C   0  0  0  0  0  0  0  0  0  0  0  0
   -1.8304   -0.3473   -0.1416 C   0  0  0  0  0  0  0  0  0  0  0  0
   -3.2405   -0.6374    0.0681 C   0  0  0  0  0  0  0  0  0  0  0  0
   -3.7561   -1.9052    0.1298 C   0  0  0  0  0  0  0  0  0  0  0  0
   -5.1186   -2.0784    0.3109 C   0  0  0  0  0  0  0  0  0  0  0  0
   -5.9732   -1.0123    0.4312 C   0  0  0  0  0  0  0  0  0  0  0  0
   -5.4656    0.2524    0.3701 C   0  0  0  0  0  0  0  0  0  0  0  0
   -6.3189    1.3441    0.4903 C   0  0  0  0  0  0  0  0  0  0  0  0
   -5.8539    2.6556    0.4357 C   0  0  0  0  0  0  0  0  0  0  0  0
   -4.4888    2.8546    0.2544 C   0  0  0  0  0  0  0  0  0  0  0  0
   -3.6640    1.7580    0.1378 C   0  0  0  0  0  0  0  0  0  0  0  0
   -4.1056    0.4565    0.1893 C   0  0  0  0  0  0  0  0  0  0  0  0
    0.6858    0.0000    0.0000 Cl  0  0  0  0  0  0  0  0  0  0  0  0
    0.1362   -2.2917    1.4053 H   0  0  0  0  0  0  0  0  0  0  0  0
   -1.6289   -2.1327    1.7021 H   0  0  0  0  0  0  0  0  0  0  0  0
   -0.9760   -3.3902    0.5944 H   0  0  0  0  0  0  0  0  0  0  0  0
   -0.5960   -1.0501   -2.1771 H   0  0  0  0  0  0  0  0  0  0  0  0
   -0.1390   -2.6664   -1.6544 H   0  0  0  0  0  0  0  0  0  0  0  0
    1.9111   -1.2270   -2.0192 H   0  0  0  0  0  0  0  0  0  0  0  0
    1.1712   -0.3374    0.7602 H   0  0  0  0  0  0  0  0  0  0  0  0
    7.0698    1.4946   -1.6675 H   0  0  0  0  0  0  0  0  0  0  0  0
    5.4010    2.3059   -1.7129 H   0  0  0  0  0  0  0  0  0  0  0  0
    5.6850    0.5837   -2.3303 H   0  0  0  0  0  0  0  0  0  0  0  0
    6.8780    2.3823    0.5398 H   0  0  0  0  0  0  0  0  0  0  0  0
    6.0095    1.4931    1.8342 H   0  0  0  0  0  0  0  0  0  0  0  0
    5.1171    2.6043    0.6909 H   0  0  0  0  0  0  0  0  0  0  0  0
    6.9511   -0.7963   -1.0412 H   0  0  0  0  0  0  0  0  0  0  0  0
    6.2028   -1.2136    0.5432 H   0  0  0  0  0  0  0  0  0  0  0  0
    7.6144   -0.0366    0.4156 H   0  0  0  0  0  0  0  0  0  0  0  0
   -1.7228    0.2163   -1.1174 H   0  0  0  0  0  0  0  0  0  0  0  0
   -1.5157    0.3809    0.6444 H   0  0  0  0  0  0  0  0  0  0  0  0
   -3.1746   -2.8029    0.0382 H   0  0  0  0  0  0  0  0  0  0  0  0
   -5.5572   -3.0706    0.3637 H   0  0  0  0  0  0  0  0  0  0  0  0
   -7.0514   -1.1384    0.5741 H   0  0  0  0  0  0  0  0  0  0  0  0
   -7.3950    1.2145    0.6322 H   0  0  0  0  0  0  0  0  0  0  0  0
   -6.5574    3.4849    0.5342 H   0  0  0  0  0  0  0  0  0  0  0  0
   -4.1547    3.8695    0.2158 H   0  0  0  0  0  0  0  0  0  0  0  0
   -2.6112    1.9436   -0.0027 H   0  0  0  0  0  0  0  0  0  0  0  0
   -0.6858    0.0000    0.0000 H   0  0  0  0  0  0  0  0  0  0  0  0
  1  2  1  0
  2  3  1  0
  3  4  1  0
  4  5  2  0
  5  6  1  0
  6  7  3  0
  7  8  1  0
  8  9  1  0
  8 10  1  0
  8 11  1  0
  2 12  1  0
 12 13  1  0
 13 14  2  0
 14 15  1  0
 15 16  2  0
 16 17  1  0
 17 18  2  0
 18 19  1  0
 19 20  2  0
 20 21  1  0
 21 22  2  0
 22 13  1  0
 22 17  1  0
  1 24  1  0
  1 25  1  0
  1 26  1  0
  3 27  1  0
  3 28  1  0
  4 29  1  0
  5 30  1  0
  9 31  1  0
  9 32  1  0
  9 33  1  0
 10 34  1  0
 10 35  1  0
 10 36  1  0
 11 37  1  0
 11 38  1  0
 11 39  1  0
 12 40  1  0
 12 41  1  0
 14 42  1  0
 15 43  1  0
 16 44  1  0
 18 45  1  0
 19 46  1  0
 20 47  1  0
 21 48  1  0
 23 49  1  0
M  END
$$$$
