
     RDKit          3D

 29 26  0  0  0  0  0  0  0  0999 V2000
   -3.2433   -0.5376    0.3179 C   0  0  0  0  0  0  0  0  0  0  0  0
   -2.3280    0.3734   -0.2424 N   0  0  0  0  0  0  0  0  0  0  0  0
   -2.7993    1.6650   -0.5971 C   0  0  0  0  0  0  0  0  0  0  0  0
   -0.9859    0.3078    0.2184 C   0  0  0  0  0  0  0  0  0  0  0  0
   -0.3819   -1.0044   -0.2691 C   0  0  0  0  0  0  0  0  0  0  0  0
    1.0590   -1.1321    0.1872 C   0  0  0  0  0  0  0  0  0  0  0  0
    2.0587    0.2191   -0.4631 S   0  0  0  0  0  0  0  0  0  0  0  0
    3.7313    0.0339    0.0811 C   0  0  0  0  0  0  0  0  0  0  0  0
    4.0653   -0.9499    0.8200 N   0  0  0  0  0  0  0  0  0  0  0  0
    4.7036    0.9803   -0.3010 N   0  0  0  0  0  0  0  0  0  0  0  0
    0.6881    0.0000    0.0000 Cl  0  0  0  0  0  0  0  0  0  0  0  0
    0.6840    0.0000    0.0000 Cl  0  0  0  0  0  0  0  0  0  0  0  0
   -2.9713   -0.9668    1.3012 H   0  0  0  0  0  0  0  0  0  0  0  0
   -4.2455   -0.0412    0.3944 H   0  0  0  0  0  0  0  0  0  0  0  0
   -3.3755   -1.4034   -0.3920 H   0  0  0  0  0  0  0  0  0  0  0  0
   -2.0182    2.4455   -0.3808 H   0  0  0  0  0  0  0  0  0  0  0  0
   -2.9261    1.7048   -1.7132 H   0  0  0  0  0  0  0  0  0  0  0  0
   -3.7499    1.9716   -0.1069 H   0  0  0  0  0  0  0  0  0  0  0  0
   -0.9190    0.2873    1.3444 H   0  0  0  0  0  0  0  0  0  0  0  0
   -0.3436    1.1305   -0.0969 H   0  0  0  0  0  0  0  0  0  0  0  0
   -0.4094   -1.0130   -1.3735 H   0  0  0  0  0  0  0  0  0  0  0  0
   -0.9581   -1.8646    0.1233 H   0  0  0  0  0  0  0  0  0  0  0  0
    1.4417   -2.0986   -0.1936 H   0  0  0  0  0  0  0  0  0  0  0  0
    1.1080   -1.1811    1.2965 H   0  0  0  0  0  0  0  0  0  0  0  0
    3.3638   -1.6778    1.1260 H   0  0  0  0  0  0  0  0  0  0  0  0
    4.4743    1.9986   -0.2156 H   0  0  0  0  0  0  0  0  0  0  0  0
    5.6491    0.7528   -0.6682 H   0  0  0  0  0  0  0  0  0  0  0  0
   -0.6881    0.0000    0.0000 H   0  0  0  0  0  0  0  0  0  0  0  0
   -0.6840    0.0000    0.0000 H   0  0  0  0  0  0  0  0  0  0  0  0
  1  2  1  0
  2  3  1  0
  2  4  1  0
  4  5  1  0
  5  6  1  0
  6  7  1  0
  7  8  1  0
  8  9  2  3
  8 10  1  0
  1 13  1  0
  1 14  1  0
  1 15  1  0
  3 16  1  0
  3 17  1  0
  3 18  1  0
  4 19  1  0
  4 20  1  0
  5 21  1  0
  5 22  1  0
  6 23  1  0
  6 24  1  0
  9 25  1  0
 10 26  1  0
 10 27  1  0
 11 28  1  0
 12 29  1  0
M  END
$$$$
