
     RDKit          3D

  9  8  0  0  0  0  0  0  0  0999 V2000
   -1.0216    0.1870   -0.3843 C   0  0  0  0  0  0  0  0  0  0  0  0
    0.1248    0.1214    0.5841 C   0  0  0  0  0  0  0  0  0  0  0  0
    1.2730   -0.4258    0.0977 N   0  0  0  0  0  0  0  0  0  0  0  0
    0.0525    0.5249    1.7385 O   0  0  0  0  0  0  0  0  0  0  0  0
   -1.8816   -0.3349    0.0439 H   0  0  0  0  0  0  0  0  0  0  0  0
   -1.2765    1.2343   -0.5664 H   0  0  0  0  0  0  0  0  0  0  0  0
   -0.7695   -0.2843   -1.3383 H   0  0  0  0  0  0  0  0  0  0  0  0
    2.0782   -0.4215    0.7106 H   0  0  0  0  0  0  0  0  0  0  0  0
    1.4206   -0.6013   -0.8858 H   0  0  0  0  0  0  0  0  0  0  0  0
  1  2  1  0
  2  3  1  0
  2  4  2  0
  1  5  1  0
  1  6  1  0
  1  7  1  0
  3  8  1  0
  3  9  1  0
M  END
$$$$
