
     RDKit          3D

 59 61  0  0  0  0  0  0  0  0999 V2000
    0.5997    2.8262    0.2726 C   0  0  0  0  0  0  0  0  0  0  0  0
    0.2964    1.3265    0.2185 C   0  0  0  0  0  0  0  0  0  0  0  0
   -0.7405    0.9595    1.2860 C   0  0  0  0  0  0  0  0  0  0  0  0
   -1.0241    1.6925    2.2269 O   0  0  0  0  0  0  0  0  0  0  0  0
   -1.3148   -0.2818    1.1007 N   0  0  0  0  0  0  0  0  0  0  0  0
   -2.3727   -0.7686    1.9643 C   0  0  0  0  0  0  0  0  0  0  0  0
   -3.7574   -0.2690    1.5468 C   0  0  0  0  0  0  0  0  0  0  0  0
   -4.2069   -0.8789    0.2116 C   0  0  0  0  0  0  0  0  0  0  0  0
   -5.5400   -0.4160   -0.1971 N   0  0  0  0  0  0  0  0  0  0  0  0
   -5.7479   -0.6334   -1.6469 C   0  0  0  0  0  0  0  0  0  0  0  0
   -7.2382   -0.6454   -2.0140 C   0  0  0  0  0  0  0  0  0  0  0  0
   -7.9353   -1.7466   -1.4175 O   0  0  0  0  0  0  0  0  0  0  0  0
   -7.3727   -2.1566   -0.1646 C   0  0  0  0  0  0  0  0  0  0  0  0
   -6.6434   -1.0245    0.5798 C   0  0  0  0  0  0  0  0  0  0  0  0
    1.5502    0.4165    0.3297 C   0  0  0  0  0  0  0  0  0  0  0  0
    2.3895    0.4521   -0.9603 C   0  0  0  0  0  0  0  0  0  0  0  0
    3.7657   -0.1573   -0.7291 C   0  0  0  0  0  0  0  0  0  0  0  0
    4.5434    0.6148    0.2796 N   0  0  0  0  0  0  0  0  0  0  0  0
    5.8860    1.4791   -0.3418 S   0  0  0  0  0  6  0  0  0  0  0  0
    5.4142    2.2567   -1.4674 O   0  0  0  0  0  0  0  0  0  0  0  0
    6.5853    2.0817    0.7715 O   0  0  0  0  0  0  0  0  0  0  0  0
    7.0180    0.2546   -0.9658 C   0  0  0  0  0  0  0  0  0  0  0  0
    7.4231   -0.9635   -0.4456 C   0  0  0  0  0  0  0  0  0  0  0  0
    8.3488   -1.6358   -1.2976 C   0  0  0  0  0  0  0  0  0  0  0  0
    8.6046   -0.8932   -2.4228 C   0  0  0  0  0  0  0  0  0  0  0  0
    9.6483   -1.3244   -3.7166 Cl  0  0  0  0  0  0  0  0  0  0  0  0
    7.7869    0.5856   -2.4590 S   0  0  0  0  0  0  0  0  0  0  0  0
    3.7205    1.4209    1.2257 C   0  0  0  0  0  0  0  0  0  0  0  0
    2.4267    0.6884    1.5703 C   0  0  0  0  0  0  0  0  0  0  0  0
    1.2791    3.1316   -0.5276 H   0  0  0  0  0  0  0  0  0  0  0  0
    1.0408    3.1237    1.2289 H   0  0  0  0  0  0  0  0  0  0  0  0
   -0.3241    3.4039    0.1544 H   0  0  0  0  0  0  0  0  0  0  0  0
   -0.1849    1.1322   -0.7504 H   0  0  0  0  0  0  0  0  0  0  0  0
   -1.1172   -0.7905    0.2501 H   0  0  0  0  0  0  0  0  0  0  0  0
   -2.1629   -0.4456    2.9905 H   0  0  0  0  0  0  0  0  0  0  0  0
   -2.3334   -1.8636    1.9437 H   0  0  0  0  0  0  0  0  0  0  0  0
   -3.7548    0.8248    1.4707 H   0  0  0  0  0  0  0  0  0  0  0  0
   -4.4617   -0.5330    2.3427 H   0  0  0  0  0  0  0  0  0  0  0  0
   -4.1758   -1.9749    0.2590 H   0  0  0  0  0  0  0  0  0  0  0  0
   -3.4787   -0.5738   -0.5512 H   0  0  0  0  0  0  0  0  0  0  0  0
   -5.2360    0.1584   -2.2033 H   0  0  0  0  0  0  0  0  0  0  0  0
   -5.3148   -1.5968   -1.9508 H   0  0  0  0  0  0  0  0  0  0  0  0
   -7.3593   -0.7319   -3.0988 H   0  0  0  0  0  0  0  0  0  0  0  0
   -7.7294    0.2837   -1.7040 H   0  0  0  0  0  0  0  0  0  0  0  0
   -8.1909   -2.5447    0.4510 H   0  0  0  0  0  0  0  0  0  0  0  0
   -6.6897   -2.9923   -0.3585 H   0  0  0  0  0  0  0  0  0  0  0  0
   -6.3109   -1.3916    1.5561 H   0  0  0  0  0  0  0  0  0  0  0  0
   -7.3664   -0.2239    0.7813 H   0  0  0  0  0  0  0  0  0  0  0  0
    1.1968   -0.6187    0.4364 H   0  0  0  0  0  0  0  0  0  0  0  0
    2.5101    1.4777   -1.3277 H   0  0  0  0  0  0  0  0  0  0  0  0
    1.8666   -0.1022   -1.7493 H   0  0  0  0  0  0  0  0  0  0  0  0
    3.6722   -1.1876   -0.3648 H   0  0  0  0  0  0  0  0  0  0  0  0
    4.2989   -0.2195   -1.6836 H   0  0  0  0  0  0  0  0  0  0  0  0
    7.0646   -1.3423    0.5035 H   0  0  0  0  0  0  0  0  0  0  0  0
    8.7897   -2.6033   -1.0961 H   0  0  0  0  0  0  0  0  0  0  0  0
    3.4982    2.4054    0.7974 H   0  0  0  0  0  0  0  0  0  0  0  0
    4.2945    1.5706    2.1481 H   0  0  0  0  0  0  0  0  0  0  0  0
    1.8768    1.2395    2.3391 H   0  0  0  0  0  0  0  0  0  0  0  0
    2.6889   -0.2755    2.0264 H   0  0  0  0  0  0  0  0  0  0  0  0
  1  2  1  0
  2  3  1  0
  3  4  2  0
  3  5  1  0
  5  6  1  0
  6  7  1  0
  7  8  1  0
  8  9  1  0
  9 10  1  0
 10 11  1  0
 11 12  1  0
 12 13  1  0
 13 14  1  0
  2 15  1  0
 15 16  1  0
 16 17  1  0
 17 18  1  0
 18 19  1  0
 19 20  2  0
 19 21  2  0
 19 22  1  0
 22 23  2  0
 23 24  1  0
 24 25  2  0
 25 26  1  0
 25 27  1  0
 18 28  1  0
 28 29  1  0
 14  9  1  0
 29 15  1  0
 27 22  1  0
  1 30  1  0
  1 31  1  0
  1 32  1  0
  2 33  1  0
  5 34  1  0
  6 35  1  0
  6 36  1  0
  7 37  1  0
  7 38  1  0
  8 39  1  0
  8 40  1  0
 10 41  1  0
 10 42  1  0
 11 43  1  0
 11 44  1  0
 13 45  1  0
 13 46  1  0
 14 47  1  0
 14 48  1  0
 15 49  1  0
 16 50  1  0
 16 51  1  0
 17 52  1  0
 17 53  1  0
 23 54  1  0
 24 55  1  0
 28 56  1  0
 28 57  1  0
 29 58  1  0
 29 59  1  0
M  END
$$$$
