
     RDKit          3D

 75 76  0  0  0  0  0  0  0  0999 V2000
   -5.4941    2.3507    2.2860 C   0  0  0  0  0  0  0  0  0  0  0  0
   -4.9547    1.9344    1.0315 O   0  0  0  0  0  0  0  0  0  0  0  0
   -3.7417    1.3193    1.1249 C   0  0  0  0  0  0  0  0  0  0  0  0
   -3.1375    1.1156    2.1731 O   0  0  0  0  0  0  0  0  0  0  0  0
   -3.2371    0.9043   -0.2595 C   0  0  2  0  0  0  0  0  0  0  0  0
   -3.7113   -0.5085   -0.6279 C   0  0  0  0  0  0  0  0  0  0  0  0
   -5.2272   -0.6705   -0.8501 C   0  0  0  0  0  0  0  0  0  0  0  0
   -5.7463    0.2018   -1.9933 C   0  0  0  0  0  0  0  0  0  0  0  0
   -5.5478   -2.1407   -1.1377 C   0  0  0  0  0  0  0  0  0  0  0  0
   -1.7741    0.9358   -0.2112 N   0  0  0  0  0  0  0  0  0  0  0  0
   -1.0068    1.1516   -1.3281 C   0  0  0  0  0  0  0  0  0  0  0  0
   -1.4576    1.4738   -2.4202 O   0  0  0  0  0  0  0  0  0  0  0  0
    0.4576    1.0208   -1.1377 C   0  0  0  0  0  0  0  0  0  0  0  0
    1.2435    2.1137   -1.5177 C   0  0  0  0  0  0  0  0  0  0  0  0
    2.6333    2.0702   -1.3693 C   0  0  0  0  0  0  0  0  0  0  0  0
    3.2661    0.9475   -0.8294 C   0  0  0  0  0  0  0  0  0  0  0  0
    4.6556    0.8097   -0.7224 N   0  0  0  0  0  0  0  0  0  0  0  0
    5.5094    2.0009   -0.7691 C   0  0  0  0  0  0  0  0  0  0  0  0
    7.0100    1.6284   -0.6284 C   0  0  1  0  0  0  0  0  0  0  0  0
    7.8547    2.7631   -1.0546 N   0  0  0  0  0  0  0  0  0  0  0  0
    7.3435    1.2251    0.8240 C   0  0  0  0  0  0  0  0  0  0  0  0
    9.0750    0.6668    1.0082 S   0  0  0  0  0  0  0  0  0  0  0  0
    2.4640   -0.1621   -0.5102 C   0  0  0  0  0  0  0  0  0  0  0  0
    1.0592   -0.1493   -0.6428 C   0  0  0  0  0  0  0  0  0  0  0  0
    0.2988   -1.3750   -0.3274 C   0  0  0  0  0  0  0  0  0  0  0  0
   -0.1498   -2.1694   -1.3997 C   0  0  0  0  0  0  0  0  0  0  0  0
   -0.8757   -3.3340   -1.1756 C   0  0  0  0  0  0  0  0  0  0  0  0
   -1.1672   -3.7264    0.1267 C   0  0  0  0  0  0  0  0  0  0  0  0
   -0.7393   -2.9627    1.2221 C   0  0  0  0  0  0  0  0  0  0  0  0
   -1.0545   -3.3712    2.5283 C   0  0  0  0  0  0  0  0  0  0  0  0
   -0.6507   -2.6226    3.6321 C   0  0  0  0  0  0  0  0  0  0  0  0
    0.0762   -1.4552    3.4445 C   0  0  0  0  0  0  0  0  0  0  0  0
    0.4011   -1.0373    2.1523 C   0  0  0  0  0  0  0  0  0  0  0  0
    0.0053   -1.7738    1.0100 C   0  0  0  0  0  0  0  0  0  0  0  0
    0.9632    1.4832   -0.0657 O   0  0  0  0  0  0  0  0  0  0  0  0
    0.5339    0.3361   -0.0417 C   0  0  0  0  0  0  0  0  0  0  0  0
    1.4233   -0.6913   -0.0525 O   0  0  0  0  0  0  0  0  0  0  0  0
   -0.9316   -0.1039    0.0390 C   0  0  0  0  0  0  0  0  0  0  0  0
   -1.8024    0.8986   -0.2662 F   0  0  0  0  0  0  0  0  0  0  0  0
   -1.2690   -0.5368    1.2870 F   0  0  0  0  0  0  0  0  0  0  0  0
   -1.2193   -1.1295   -0.8123 F   0  0  0  0  0  0  0  0  0  0  0  0
   -6.4568    2.8335    2.0973 H   0  0  0  0  0  0  0  0  0  0  0  0
   -5.6618    1.4866    2.9364 H   0  0  0  0  0  0  0  0  0  0  0  0
   -4.8312    3.0766    2.7671 H   0  0  0  0  0  0  0  0  0  0  0  0
   -3.5535    1.6480   -0.9976 H   0  0  0  0  0  0  0  0  0  0  0  0
   -3.4000   -1.2018    0.1655 H   0  0  0  0  0  0  0  0  0  0  0  0
   -3.1874   -0.8361   -1.5359 H   0  0  0  0  0  0  0  0  0  0  0  0
   -5.7598   -0.3940    0.0672 H   0  0  0  0  0  0  0  0  0  0  0  0
   -5.1998    0.0057   -2.9219 H   0  0  0  0  0  0  0  0  0  0  0  0
   -6.8081    0.0065   -2.1791 H   0  0  0  0  0  0  0  0  0  0  0  0
   -5.6508    1.2660   -1.7595 H   0  0  0  0  0  0  0  0  0  0  0  0
   -6.6265   -2.2878   -1.2556 H   0  0  0  0  0  0  0  0  0  0  0  0
   -5.2126   -2.7805   -0.3146 H   0  0  0  0  0  0  0  0  0  0  0  0
   -5.0566   -2.4829   -2.0550 H   0  0  0  0  0  0  0  0  0  0  0  0
   -1.3396    0.6604    0.6643 H   0  0  0  0  0  0  0  0  0  0  0  0
    0.7743    3.0006   -1.9391 H   0  0  0  0  0  0  0  0  0  0  0  0
    3.2013    2.9371   -1.6932 H   0  0  0  0  0  0  0  0  0  0  0  0
    4.8965    0.1517    0.0141 H   0  0  0  0  0  0  0  0  0  0  0  0
    5.2215    2.7107    0.0166 H   0  0  0  0  0  0  0  0  0  0  0  0
    5.3746    2.4922   -1.7408 H   0  0  0  0  0  0  0  0  0  0  0  0
    7.2239    0.7804   -1.2924 H   0  0  0  0  0  0  0  0  0  0  0  0
    7.7966    2.8669   -2.0679 H   0  0  0  0  0  0  0  0  0  0  0  0
    8.8311    2.5384   -0.8476 H   0  0  0  0  0  0  0  0  0  0  0  0
    6.7049    0.4024    1.1584 H   0  0  0  0  0  0  0  0  0  0  0  0
    7.1840    2.0674    1.5064 H   0  0  0  0  0  0  0  0  0  0  0  0
    8.9833   -0.3935    0.1918 H   0  0  0  0  0  0  0  0  0  0  0  0
    2.9426   -1.0765   -0.1600 H   0  0  0  0  0  0  0  0  0  0  0  0
    0.0662   -1.8730   -2.4255 H   0  0  0  0  0  0  0  0  0  0  0  0
   -1.2167   -3.9328   -2.0161 H   0  0  0  0  0  0  0  0  0  0  0  0
   -1.7395   -4.6389    0.2813 H   0  0  0  0  0  0  0  0  0  0  0  0
   -1.6268   -4.2811    2.6973 H   0  0  0  0  0  0  0  0  0  0  0  0
   -0.9086   -2.9495    4.6359 H   0  0  0  0  0  0  0  0  0  0  0  0
    0.3878   -0.8633    4.3013 H   0  0  0  0  0  0  0  0  0  0  0  0
    0.9676   -0.1142    2.0492 H   0  0  0  0  0  0  0  0  0  0  0  0
    2.3019   -0.2563   -0.0876 H   0  0  0  0  0  0  0  0  0  0  0  0
  1  2  1  0
  2  3  1  0
  3  4  2  0
  3  5  1  0
  5  6  1  0
  6  7  1  0
  7  8  1  0
  7  9  1  0
  5 10  1  0
 10 11  1  0
 11 12  2  0
 11 13  1  0
 13 14  2  0
 14 15  1  0
 15 16  2  0
 16 17  1  0
 17 18  1  0
 18 19  1  0
 19 20  1  0
 19 21  1  0
 21 22  1  0
 16 23  1  0
 23 24  2  0
 24 25  1  0
 25 26  2  0
 26 27  1  0
 27 28  2  0
 28 29  1  0
 29 30  2  0
 30 31  1  0
 31 32  2  0
 32 33  1  0
 33 34  2  0
 35 36  2  0
 36 37  1  0
 36 38  1  0
 38 39  1  0
 38 40  1  0
 38 41  1  0
 24 13  1  0
 34 25  1  0
 34 29  1  0
  1 42  1  0
  1 43  1  0
  1 44  1  0
  5 45  1  6
  6 46  1  0
  6 47  1  0
  7 48  1  0
  8 49  1  0
  8 50  1  0
  8 51  1  0
  9 52  1  0
  9 53  1  0
  9 54  1  0
 10 55  1  0
 14 56  1  0
 15 57  1  0
 17 58  1  0
 18 59  1  0
 18 60  1  0
 19 61  1  6
 20 62  1  0
 20 63  1  0
 21 64  1  0
 21 65  1  0
 22 66  1  0
 23 67  1  0
 26 68  1  0
 27 69  1  0
 28 70  1  0
 30 71  1  0
 31 72  1  0
 32 73  1  0
 33 74  1  0
 37 75  1  0
M  END
$$$$
