
     RDKit          3D

 58 59  0  0  0  0  0  0  0  0999 V2000
   -4.2262    0.8427    2.8932 C   0  0  0  0  0  0  0  0  0  0  0  0
   -5.1942   -0.0446    2.2288 C   0  0  0  0  0  0  0  0  0  0  0  0
   -6.4321    0.7790    1.8577 C   0  0  0  0  0  0  0  0  0  0  0  0
   -4.7489   -0.8874    1.1085 C   0  0  0  0  0  0  0  0  0  0  0  0
   -4.1934   -0.2946   -0.1055 C   0  0  2  0  0  0  0  0  0  0  0  0
   -3.0106    0.5068    0.0216 N   0  0  0  0  0  0  0  0  0  0  0  0
   -1.7599    0.1945   -0.5301 C   0  0  0  0  0  0  0  0  0  0  0  0
   -1.6980   -0.8852   -1.1841 O   0  0  0  0  0  0  0  0  0  0  0  0
   -0.5247    1.0030   -0.4158 C   0  0  1  0  0  0  0  0  0  0  0  0
    0.5957    0.3381   -1.0810 N   0  0  0  0  0  0  0  0  0  0  0  0
    1.8205    0.0714   -0.3866 C   0  0  0  0  0  0  0  0  0  0  0  0
    1.8555    0.4467    0.8145 O   0  0  0  0  0  0  0  0  0  0  0  0
    2.9690   -0.5869   -0.9943 C   0  0  0  0  0  0  0  0  0  0  0  0
    3.0079   -1.0173   -2.2824 C   0  0  0  0  0  0  0  0  0  0  0  0
    4.1450   -1.6299   -2.7565 C   0  0  0  0  0  0  0  0  0  0  0  0
    5.2384   -1.8089   -1.9383 C   0  0  0  0  0  0  0  0  0  0  0  0
    5.1889   -1.3703   -0.6384 C   0  0  0  0  0  0  0  0  0  0  0  0
    6.3137   -1.5251    0.2918 C   0  0  0  0  0  0  0  0  0  0  0  0
    7.4738   -2.1207   -0.0947 C   0  0  0  0  0  0  0  0  0  0  0  0
    8.5557   -2.2749    0.7826 C   0  0  0  0  0  0  0  0  0  0  0  0
    8.4611   -1.8182    2.0723 C   0  0  0  0  0  0  0  0  0  0  0  0
    7.2922   -1.2137    2.4752 C   0  0  0  0  0  0  0  0  0  0  0  0
    6.2286   -1.0692    1.5914 C   0  0  0  0  0  0  0  0  0  0  0  0
    4.0455   -0.7748   -0.2255 N   0  0  0  0  0  0  0  0  0  0  0  0
   -0.7199    2.3394   -1.0580 C   0  0  1  0  0  0  0  0  0  0  0  0
   -1.1003    2.1789   -2.4989 C   0  0  0  0  0  0  0  0  0  0  0  0
   -1.7824    2.9933   -0.3965 O   0  0  0  0  0  0  0  0  0  0  0  0
   -5.2633    0.4713   -1.0025 B   0  0  0  0  0  0  0  0  0  0  0  0
   -5.1313    1.9367   -1.1313 O   0  0  0  0  0  0  0  0  0  0  0  0
   -6.4884   -0.1356   -1.4769 O   0  0  0  0  0  0  0  0  0  0  0  0
   -3.1641    0.5260    2.8016 H   0  0  0  0  0  0  0  0  0  0  0  0
   -4.2563    1.9069    2.5994 H   0  0  0  0  0  0  0  0  0  0  0  0
   -4.3916    0.8732    4.0146 H   0  0  0  0  0  0  0  0  0  0  0  0
   -5.5856   -0.7582    3.0190 H   0  0  0  0  0  0  0  0  0  0  0  0
   -7.0451    1.0038    2.7525 H   0  0  0  0  0  0  0  0  0  0  0  0
   -7.0805    0.1693    1.1904 H   0  0  0  0  0  0  0  0  0  0  0  0
   -6.1565    1.7538    1.4129 H   0  0  0  0  0  0  0  0  0  0  0  0
   -5.6656   -1.4757    0.7813 H   0  0  0  0  0  0  0  0  0  0  0  0
   -4.0568   -1.7215    1.4374 H   0  0  0  0  0  0  0  0  0  0  0  0
   -3.8831   -1.1727   -0.7567 H   0  0  0  0  0  0  0  0  0  0  0  0
   -3.1048    1.3870    0.5722 H   0  0  0  0  0  0  0  0  0  0  0  0
   -0.2087    1.1743    0.6310 H   0  0  0  0  0  0  0  0  0  0  0  0
    0.5790    0.0199   -2.0709 H   0  0  0  0  0  0  0  0  0  0  0  0
    2.1531   -0.8809   -2.9330 H   0  0  0  0  0  0  0  0  0  0  0  0
    4.2047   -1.9842   -3.7820 H   0  0  0  0  0  0  0  0  0  0  0  0
    6.1255   -2.2948   -2.3327 H   0  0  0  0  0  0  0  0  0  0  0  0
    7.6380   -2.5072   -1.0803 H   0  0  0  0  0  0  0  0  0  0  0  0
    9.4632   -2.7491    0.4546 H   0  0  0  0  0  0  0  0  0  0  0  0
    9.2719   -1.9178    2.7787 H   0  0  0  0  0  0  0  0  0  0  0  0
    7.2136   -0.8516    3.4922 H   0  0  0  0  0  0  0  0  0  0  0  0
    5.3061   -0.5976    1.8925 H   0  0  0  0  0  0  0  0  0  0  0  0
    0.2194    2.9292   -0.9592 H   0  0  0  0  0  0  0  0  0  0  0  0
   -0.7249    1.2431   -2.9471 H   0  0  0  0  0  0  0  0  0  0  0  0
   -0.6639    3.0183   -3.0909 H   0  0  0  0  0  0  0  0  0  0  0  0
   -2.2109    2.2548   -2.5753 H   0  0  0  0  0  0  0  0  0  0  0  0
   -2.4096    3.3899   -1.0544 H   0  0  0  0  0  0  0  0  0  0  0  0
   -5.1852    2.2073   -2.0773 H   0  0  0  0  0  0  0  0  0  0  0  0
   -7.2988    0.4099   -1.2970 H   0  0  0  0  0  0  0  0  0  0  0  0
  1  2  1  0
  2  3  1  0
  2  4  1  0
  4  5  1  0
  5  6  1  0
  6  7  1  0
  7  8  2  0
  7  9  1  0
  9 10  1  0
 10 11  1  0
 11 12  2  0
 11 13  1  0
 13 14  2  0
 14 15  1  0
 15 16  2  0
 16 17  1  0
 17 18  1  0
 18 19  2  0
 19 20  1  0
 20 21  2  0
 21 22  1  0
 22 23  2  0
 17 24  2  0
  9 25  1  0
 25 26  1  0
 25 27  1  0
  5 28  1  0
 28 29  1  0
 28 30  1  0
 24 13  1  0
 23 18  1  0
  1 31  1  0
  1 32  1  0
  1 33  1  0
  2 34  1  0
  3 35  1  0
  3 36  1  0
  3 37  1  0
  4 38  1  0
  4 39  1  0
  5 40  1  6
  6 41  1  0
  9 42  1  1
 10 43  1  0
 14 44  1  0
 15 45  1  0
 16 46  1  0
 19 47  1  0
 20 48  1  0
 21 49  1  0
 22 50  1  0
 23 51  1  0
 25 52  1  6
 26 53  1  0
 26 54  1  0
 26 55  1  0
 27 56  1  0
 29 57  1  0
 30 58  1  0
M  END
$$$$
