
     RDKit          3D

 55 58  0  0  0  0  0  0  0  0999 V2000
   -4.2438   -4.3665    1.1478 C   0  0  0  0  0  0  0  0  0  0  0  0
   -4.5373   -2.9971    1.4158 O   0  0  0  0  0  0  0  0  0  0  0  0
   -5.2681   -2.3920    0.3557 C   0  0  0  0  0  0  0  0  0  0  0  0
   -4.4771   -2.1736   -0.9426 C   0  0  0  0  0  0  0  0  0  0  0  0
   -4.7664   -2.7885   -1.9715 O   0  0  0  0  0  0  0  0  0  0  0  0
   -3.4381   -1.2670   -0.9026 N   0  0  0  0  0  0  0  0  0  0  0  0
   -2.6484   -0.9780   -2.0826 C   0  0  0  0  0  0  0  0  0  0  0  0
   -1.7689    0.2162   -1.6982 C   0  0  2  0  0  0  0  0  0  0  0  0
   -0.3431    0.1060   -2.2497 C   0  0  0  0  0  0  0  0  0  0  0  0
    0.5272   -0.4327   -1.1015 C   0  0  1  0  0  0  0  0  0  0  0  0
    1.4694    0.5786   -0.6490 N   0  0  0  0  0  0  0  0  0  0  0  0
    2.7167    0.7116   -1.2129 C   0  0  0  0  0  0  0  0  0  0  0  0
    3.1509   -0.0317   -2.0866 O   0  0  0  0  0  0  0  0  0  0  0  0
    3.4908    1.8962   -0.6773 C   0  0  0  0  0  0  0  0  0  0  0  0
    4.9914    1.6435   -0.7359 C   0  0  0  0  0  0  0  0  0  0  0  0
    5.4160    0.6657    0.2523 N   0  0  0  0  0  0  0  0  0  0  0  0
    5.6902   -0.6542    0.0388 C   0  0  0  0  0  0  0  0  0  0  0  0
    6.0341   -1.1744    1.2631 C   0  0  0  0  0  0  0  0  0  0  0  0
    5.9390   -0.0870    2.1509 C   0  0  0  0  0  0  0  0  0  0  0  0
    5.5591    1.0384    1.5406 N   0  0  0  0  0  0  0  0  0  0  0  0
   -0.4449   -0.8188    0.0211 C   0  0  0  0  0  0  0  0  0  0  0  0
   -1.6525    0.1157   -0.1645 C   0  0  1  0  0  0  0  0  0  0  0  0
   -1.4140    1.4317    0.4974 C   0  0  0  0  0  0  0  0  0  0  0  0
   -0.6675    2.4423    0.0976 N   0  0  0  0  0  0  0  0  0  0  0  0
   -0.7940    3.3247    1.1415 C   0  0  0  0  0  0  0  0  0  0  0  0
   -0.1309    4.6401    1.1465 C   0  0  0  0  0  0  0  0  0  0  0  0
   -1.5392    2.8833    2.1629 N   0  0  0  0  0  0  0  0  0  0  0  0
   -1.9455    1.6180    1.7426 O   0  0  0  0  0  0  0  0  0  0  0  0
   -2.9836   -0.5127    0.2575 C   0  0  0  0  0  0  0  0  0  0  0  0
   -3.6864   -4.7710    1.9963 H   0  0  0  0  0  0  0  0  0  0  0  0
   -3.6213   -4.4642    0.2553 H   0  0  0  0  0  0  0  0  0  0  0  0
   -5.1672   -4.9427    1.0267 H   0  0  0  0  0  0  0  0  0  0  0  0
   -5.6205   -1.4145    0.7062 H   0  0  0  0  0  0  0  0  0  0  0  0
   -6.1662   -2.9809    0.1317 H   0  0  0  0  0  0  0  0  0  0  0  0
   -3.3036   -0.7513   -2.9311 H   0  0  0  0  0  0  0  0  0  0  0  0
   -2.0691   -1.8762   -2.3269 H   0  0  0  0  0  0  0  0  0  0  0  0
   -2.2523    1.1459   -2.0232 H   0  0  0  0  0  0  0  0  0  0  0  0
    0.0059    1.0906   -2.5850 H   0  0  0  0  0  0  0  0  0  0  0  0
   -0.3000   -0.5569   -3.1211 H   0  0  0  0  0  0  0  0  0  0  0  0
    1.0959   -1.3093   -1.4272 H   0  0  0  0  0  0  0  0  0  0  0  0
    1.0850    1.3983   -0.1816 H   0  0  0  0  0  0  0  0  0  0  0  0
    3.1750    2.1182    0.3488 H   0  0  0  0  0  0  0  0  0  0  0  0
    3.2366    2.7617   -1.3003 H   0  0  0  0  0  0  0  0  0  0  0  0
    5.3173    1.2881   -1.7197 H   0  0  0  0  0  0  0  0  0  0  0  0
    5.5394    2.5707   -0.5199 H   0  0  0  0  0  0  0  0  0  0  0  0
    5.6043   -1.1018   -0.9425 H   0  0  0  0  0  0  0  0  0  0  0  0
    6.3104   -2.1947    1.4846 H   0  0  0  0  0  0  0  0  0  0  0  0
    6.1280   -0.0693    3.2168 H   0  0  0  0  0  0  0  0  0  0  0  0
    0.0076   -0.7388    1.0158 H   0  0  0  0  0  0  0  0  0  0  0  0
   -0.7430   -1.8655   -0.1142 H   0  0  0  0  0  0  0  0  0  0  0  0
    0.9547    4.5113    1.1318 H   0  0  0  0  0  0  0  0  0  0  0  0
   -0.3936    5.2228    2.0353 H   0  0  0  0  0  0  0  0  0  0  0  0
   -0.4214    5.2150    0.2629 H   0  0  0  0  0  0  0  0  0  0  0  0
   -2.8789   -1.1591    1.1340 H   0  0  0  0  0  0  0  0  0  0  0  0
   -3.7582    0.2359    0.4676 H   0  0  0  0  0  0  0  0  0  0  0  0
  1  2  1  0
  2  3  1  0
  3  4  1  0
  4  5  2  0
  4  6  1  0
  6  7  1  0
  7  8  1  0
  8  9  1  0
  9 10  1  0
 10 11  1  0
 11 12  1  0
 12 13  2  0
 12 14  1  0
 14 15  1  0
 15 16  1  0
 16 17  1  0
 17 18  2  0
 18 19  1  0
 19 20  2  0
 10 21  1  0
 21 22  1  0
 22 23  1  1
 23 24  2  0
 24 25  1  0
 25 26  1  0
 25 27  2  0
 27 28  1  0
 22 29  1  0
 29  6  1  0
 22  8  1  0
 28 23  1  0
 20 16  1  0
  1 30  1  0
  1 31  1  0
  1 32  1  0
  3 33  1  0
  3 34  1  0
  7 35  1  0
  7 36  1  0
  8 37  1  1
  9 38  1  0
  9 39  1  0
 10 40  1  6
 11 41  1  0
 14 42  1  0
 14 43  1  0
 15 44  1  0
 15 45  1  0
 17 46  1  0
 18 47  1  0
 19 48  1  0
 21 49  1  0
 21 50  1  0
 26 51  1  0
 26 52  1  0
 26 53  1  0
 29 54  1  0
 29 55  1  0
M  END
$$$$
