
     RDKit          3D

 39 41  0  0  0  0  0  0  0  0999 V2000
   -4.9150    0.9467    2.0216 C   0  0  0  0  0  0  0  0  0  0  0  0
   -3.7823    1.0902    1.1705 O   0  0  0  0  0  0  0  0  0  0  0  0
   -3.7704    0.1927    0.1194 C   0  0  0  0  0  0  0  0  0  0  0  0
   -4.7697   -0.7161    0.0281 N   0  0  0  0  0  0  0  0  0  0  0  0
   -4.7174   -1.5825   -1.0055 C   0  0  0  0  0  0  0  0  0  0  0  0
   -3.7123   -1.5883   -1.9549 C   0  0  0  0  0  0  0  0  0  0  0  0
   -2.6968   -0.6461   -1.8386 C   0  0  0  0  0  0  0  0  0  0  0  0
   -2.7108    0.2745   -0.7825 C   0  0  0  0  0  0  0  0  0  0  0  0
   -1.6133    1.2967   -0.6488 C   0  0  0  0  0  0  0  0  0  0  0  0
   -0.3459    0.7227   -0.1955 N   0  0  0  0  0  0  0  0  0  0  0  0
   -0.2451    0.3978    1.2234 C   0  0  0  0  0  0  0  0  0  0  0  0
    0.6347    0.4489   -1.1459 C   0  0  0  0  0  0  0  0  0  0  0  0
    0.4591    0.5506   -2.3581 O   0  0  0  0  0  0  0  0  0  0  0  0
    1.9745    0.0230   -0.6886 C   0  0  0  0  0  0  0  0  0  0  0  0
    2.4552   -1.2229   -1.0949 C   0  0  0  0  0  0  0  0  0  0  0  0
    3.7253   -1.6528   -0.6933 C   0  0  0  0  0  0  0  0  0  0  0  0
    4.5183   -0.8092    0.1107 C   0  0  0  0  0  0  0  0  0  0  0  0
    5.8161   -0.9245    0.6807 C   0  0  0  0  0  0  0  0  0  0  0  0
    6.0780    0.2381    1.3687 C   0  0  0  0  0  0  0  0  0  0  0  0
    4.9896    1.0588    1.2359 N   0  0  0  0  0  0  0  0  0  0  0  0
    4.0184    0.4414    0.4794 C   0  0  0  0  0  0  0  0  0  0  0  0
    2.7516    0.8937    0.0905 C   0  0  0  0  0  0  0  0  0  0  0  0
   -4.8368    1.7032    2.8085 H   0  0  0  0  0  0  0  0  0  0  0  0
   -5.8479    1.1297    1.4771 H   0  0  0  0  0  0  0  0  0  0  0  0
   -4.9256   -0.0356    2.5065 H   0  0  0  0  0  0  0  0  0  0  0  0
   -5.5334   -2.2978   -1.0520 H   0  0  0  0  0  0  0  0  0  0  0  0
   -3.7167   -2.3068   -2.7667 H   0  0  0  0  0  0  0  0  0  0  0  0
   -1.8925   -0.6264   -2.5719 H   0  0  0  0  0  0  0  0  0  0  0  0
   -1.4768    1.7870   -1.6209 H   0  0  0  0  0  0  0  0  0  0  0  0
   -1.8813    2.1019    0.0447 H   0  0  0  0  0  0  0  0  0  0  0  0
   -0.2178    1.3322    1.7911 H   0  0  0  0  0  0  0  0  0  0  0  0
    0.6409   -0.1941    1.4572 H   0  0  0  0  0  0  0  0  0  0  0  0
   -1.1191   -0.1848    1.5274 H   0  0  0  0  0  0  0  0  0  0  0  0
    1.8433   -1.8624   -1.7268 H   0  0  0  0  0  0  0  0  0  0  0  0
    4.0973   -2.6243   -1.0057 H   0  0  0  0  0  0  0  0  0  0  0  0
    6.4871   -1.7688    0.5912 H   0  0  0  0  0  0  0  0  0  0  0  0
    6.9446    0.5529    1.9345 H   0  0  0  0  0  0  0  0  0  0  0  0
    4.9073    1.9852    1.6317 H   0  0  0  0  0  0  0  0  0  0  0  0
    2.3856    1.8754    0.3716 H   0  0  0  0  0  0  0  0  0  0  0  0
  1  2  1  0
  2  3  1  0
  3  4  2  0
  4  5  1  0
  5  6  2  0
  6  7  1  0
  7  8  2  0
  8  9  1  0
  9 10  1  0
 10 11  1  0
 10 12  1  0
 12 13  2  0
 12 14  1  0
 14 15  2  0
 15 16  1  0
 16 17  2  0
 17 18  1  0
 18 19  2  0
 19 20  1  0
 20 21  1  0
 21 22  2  0
  8  3  1  0
 22 14  1  0
 21 17  1  0
  1 23  1  0
  1 24  1  0
  1 25  1  0
  5 26  1  0
  6 27  1  0
  7 28  1  0
  9 29  1  0
  9 30  1  0
 11 31  1  0
 11 32  1  0
 11 33  1  0
 15 34  1  0
 16 35  1  0
 18 36  1  0
 19 37  1  0
 20 38  1  0
 22 39  1  0
M  END
$$$$
