
     RDKit          3D

 58 60  0  0  0  0  0  0  0  0999 V2000
   -5.5595    3.4133   -1.0351 C   0  0  0  0  0  0  0  0  0  0  0  0
   -5.3341    2.6450    0.1394 O   0  0  0  0  0  0  0  0  0  0  0  0
   -4.3090    1.7351    0.1125 C   0  0  0  0  0  0  0  0  0  0  0  0
   -3.4748    1.5036   -0.9831 C   0  0  0  0  0  0  0  0  0  0  0  0
   -2.4464    0.5501   -0.9084 C   0  0  0  0  0  0  0  0  0  0  0  0
   -1.5740    0.3646   -2.1106 C   0  0  0  0  0  0  0  0  0  0  0  0
   -2.0196    0.6664   -3.2117 O   0  0  0  0  0  0  0  0  0  0  0  0
   -0.3075   -0.0995   -1.8425 N   0  0  0  0  0  0  0  0  0  0  0  0
    0.7476   -0.3817   -2.7353 C   0  0  0  0  0  0  0  0  0  0  0  0
    0.6459   -0.2755   -4.1214 C   0  0  0  0  0  0  0  0  0  0  0  0
    1.7344   -0.6176   -4.9237 C   0  0  0  0  0  0  0  0  0  0  0  0
    2.9187   -1.0669   -4.3432 C   0  0  0  0  0  0  0  0  0  0  0  0
    3.0267   -1.1735   -2.9539 C   0  0  0  0  0  0  0  0  0  0  0  0
    1.9526   -0.8295   -2.1271 C   0  0  0  0  0  0  0  0  0  0  0  0
    2.0099   -0.8937   -0.7235 N   0  0  0  0  0  0  0  0  0  0  0  0
    2.3573    0.3825   -0.0570 C   0  0  0  0  0  0  0  0  0  0  0  0
    3.8221    0.4396    0.4168 C   0  0  0  0  0  0  0  0  0  0  0  0
    4.2391   -0.7812    1.1808 N   0  0  0  0  0  0  0  0  0  0  0  0
    3.7430   -0.8997    2.8014 S   0  0  0  0  0  6  0  0  0  0  0  0
    4.7911    0.3036    3.5922 C   0  0  0  0  0  0  0  0  0  0  0  0
    2.3694   -0.4576    2.8960 O   0  0  0  0  0  0  0  0  0  0  0  0
    4.1356   -2.2055    3.2860 O   0  0  0  0  0  0  0  0  0  0  0  0
    3.9972   -2.0071    0.3533 C   0  0  0  0  0  0  0  0  0  0  0  0
    2.5296   -2.1223   -0.0893 C   0  0  0  0  0  0  0  0  0  0  0  0
   -2.2631   -0.1924    0.2677 C   0  0  0  0  0  0  0  0  0  0  0  0
   -3.0661    0.0534    1.3822 C   0  0  0  0  0  0  0  0  0  0  0  0
   -2.9318   -0.6234    2.5679 O   0  0  0  0  0  0  0  0  0  0  0  0
   -1.5918   -0.9448    2.9351 C   0  0  0  0  0  0  0  0  0  0  0  0
   -4.1035    0.9940    1.2889 C   0  0  0  0  0  0  0  0  0  0  0  0
   -4.8794    1.2511    2.3971 O   0  0  0  0  0  0  0  0  0  0  0  0
   -6.0258    0.4018    2.3907 C   0  0  0  0  0  0  0  0  0  0  0  0
   -4.6902    4.0351   -1.2734 H   0  0  0  0  0  0  0  0  0  0  0  0
   -6.4028    4.0826   -0.8394 H   0  0  0  0  0  0  0  0  0  0  0  0
   -5.8330    2.7724   -1.8796 H   0  0  0  0  0  0  0  0  0  0  0  0
   -3.5962    2.0546   -1.9114 H   0  0  0  0  0  0  0  0  0  0  0  0
   -0.0241   -0.2654   -0.8832 H   0  0  0  0  0  0  0  0  0  0  0  0
   -0.2687    0.0591   -4.5999 H   0  0  0  0  0  0  0  0  0  0  0  0
    1.6524   -0.5374   -6.0048 H   0  0  0  0  0  0  0  0  0  0  0  0
    3.7623   -1.3336   -4.9751 H   0  0  0  0  0  0  0  0  0  0  0  0
    3.9682   -1.5129   -2.5398 H   0  0  0  0  0  0  0  0  0  0  0  0
    2.1640    1.2430   -0.7109 H   0  0  0  0  0  0  0  0  0  0  0  0
    1.6789    0.5058    0.7924 H   0  0  0  0  0  0  0  0  0  0  0  0
    4.4856    0.5249   -0.4531 H   0  0  0  0  0  0  0  0  0  0  0  0
    3.9907    1.3395    1.0156 H   0  0  0  0  0  0  0  0  0  0  0  0
    5.8333    0.0595    3.3783 H   0  0  0  0  0  0  0  0  0  0  0  0
    4.6121    0.2450    4.6682 H   0  0  0  0  0  0  0  0  0  0  0  0
    4.5375    1.3019    3.2345 H   0  0  0  0  0  0  0  0  0  0  0  0
    4.3015   -2.9070    0.8974 H   0  0  0  0  0  0  0  0  0  0  0  0
    4.6635   -1.9538   -0.5141 H   0  0  0  0  0  0  0  0  0  0  0  0
    1.9063   -2.3213    0.7909 H   0  0  0  0  0  0  0  0  0  0  0  0
    2.4043   -2.9897   -0.7491 H   0  0  0  0  0  0  0  0  0  0  0  0
   -1.5216   -0.9823    0.3079 H   0  0  0  0  0  0  0  0  0  0  0  0
   -1.2479   -1.8338    2.3973 H   0  0  0  0  0  0  0  0  0  0  0  0
   -1.5861   -1.1788    4.0039 H   0  0  0  0  0  0  0  0  0  0  0  0
   -0.9112   -0.1016    2.7723 H   0  0  0  0  0  0  0  0  0  0  0  0
   -5.7410   -0.6550    2.4374 H   0  0  0  0  0  0  0  0  0  0  0  0
   -6.6550    0.5860    1.5131 H   0  0  0  0  0  0  0  0  0  0  0  0
   -6.6165    0.6311    3.2826 H   0  0  0  0  0  0  0  0  0  0  0  0
  1  2  1  0
  2  3  1  0
  3  4  2  0
  4  5  1  0
  5  6  1  0
  6  7  2  0
  6  8  1  0
  8  9  1  0
  9 10  2  0
 10 11  1  0
 11 12  2  0
 12 13  1  0
 13 14  2  0
 14 15  1  0
 15 16  1  0
 16 17  1  0
 17 18  1  0
 18 19  1  0
 19 20  1  0
 19 21  2  0
 19 22  2  0
 18 23  1  0
 23 24  1  0
  5 25  2  0
 25 26  1  0
 26 27  1  0
 27 28  1  0
 26 29  2  0
 29 30  1  0
 30 31  1  0
 29  3  1  0
 14  9  1  0
 24 15  1  0
  1 32  1  0
  1 33  1  0
  1 34  1  0
  4 35  1  0
  8 36  1  0
 10 37  1  0
 11 38  1  0
 12 39  1  0
 13 40  1  0
 16 41  1  0
 16 42  1  0
 17 43  1  0
 17 44  1  0
 20 45  1  0
 20 46  1  0
 20 47  1  0
 23 48  1  0
 23 49  1  0
 24 50  1  0
 24 51  1  0
 25 52  1  0
 28 53  1  0
 28 54  1  0
 28 55  1  0
 31 56  1  0
 31 57  1  0
 31 58  1  0
M  END
$$$$
