
     RDKit          3D

 56 57  0  0  0  0  0  0  0  0999 V2000
    0.2510   -2.8613   -0.0407 C   0  0  0  0  0  0  0  0  0  0  0  0
    0.3945   -1.6760   -0.8847 N   0  0  0  0  0  0  0  0  0  0  0  0
   -0.4464   -0.5571   -0.4250 C   0  0  0  0  0  0  0  0  0  0  0  0
   -1.9518   -0.7786   -0.6478 C   0  0  0  0  0  0  0  0  0  0  0  0
   -2.6376    0.4106   -0.2407 O   0  0  0  0  0  0  0  0  0  0  0  0
   -4.0011    0.4068   -0.3416 C   0  0  0  0  0  0  0  0  0  0  0  0
   -4.6233    1.5655    0.1326 C   0  0  0  0  0  0  0  0  0  0  0  0
   -6.0133    1.6951    0.0939 C   0  0  0  0  0  0  0  0  0  0  0  0
   -6.7855    0.6665   -0.4374 C   0  0  0  0  0  0  0  0  0  0  0  0
   -8.2061    0.7781   -0.4389 N   0  0  0  0  0  0  0  0  0  0  0  0
   -9.0214    0.2318    0.9422 S   0  0  0  0  0  6  0  0  0  0  0  0
   -9.3083    1.7613    1.8043 C   0  0  0  0  0  0  0  0  0  0  0  0
  -10.3017   -0.2462    0.4635 O   0  0  0  0  0  0  0  0  0  0  0  0
   -8.1575   -0.6085    1.7397 O   0  0  0  0  0  0  0  0  0  0  0  0
   -6.1768   -0.4978   -0.9037 C   0  0  0  0  0  0  0  0  0  0  0  0
   -4.7840   -0.6258   -0.8601 C   0  0  0  0  0  0  0  0  0  0  0  0
    1.8073   -1.2788   -1.0422 C   0  0  0  0  0  0  0  0  0  0  0  0
    2.5496   -0.8289    0.2299 C   0  0  0  0  0  0  0  0  0  0  0  0
    3.9809   -0.4450   -0.0680 C   0  0  0  0  0  0  0  0  0  0  0  0
    4.9991   -1.4058   -0.0269 C   0  0  0  0  0  0  0  0  0  0  0  0
    6.3182   -1.0516   -0.3219 C   0  0  0  0  0  0  0  0  0  0  0  0
    6.6322    0.2664   -0.6568 C   0  0  0  0  0  0  0  0  0  0  0  0
    7.9885    0.5917   -0.9427 N   0  0  0  0  0  0  0  0  0  0  0  0
    8.7772    1.7865   -0.0587 S   0  0  0  0  0  6  0  0  0  0  0  0
    8.6581    1.1737    1.6112 C   0  0  0  0  0  0  0  0  0  0  0  0
    8.0487    3.0321   -0.1472 O   0  0  0  0  0  0  0  0  0  0  0  0
   10.1688    1.7037   -0.4511 O   0  0  0  0  0  0  0  0  0  0  0  0
    5.6217    1.2232   -0.7195 C   0  0  0  0  0  0  0  0  0  0  0  0
    4.3023    0.8707   -0.4248 C   0  0  0  0  0  0  0  0  0  0  0  0
    0.4621   -2.6543    1.0139 H   0  0  0  0  0  0  0  0  0  0  0  0
   -0.7617   -3.2706   -0.1114 H   0  0  0  0  0  0  0  0  0  0  0  0
    0.9227   -3.6598   -0.3759 H   0  0  0  0  0  0  0  0  0  0  0  0
   -0.2677   -0.3291    0.6340 H   0  0  0  0  0  0  0  0  0  0  0  0
   -0.1747    0.3556   -0.9728 H   0  0  0  0  0  0  0  0  0  0  0  0
   -2.3013   -1.6243   -0.0452 H   0  0  0  0  0  0  0  0  0  0  0  0
   -2.1360   -0.9699   -1.7120 H   0  0  0  0  0  0  0  0  0  0  0  0
   -4.0186    2.3724    0.5395 H   0  0  0  0  0  0  0  0  0  0  0  0
   -6.4760    2.6037    0.4650 H   0  0  0  0  0  0  0  0  0  0  0  0
   -8.6668    0.3859   -1.2628 H   0  0  0  0  0  0  0  0  0  0  0  0
   -9.8449    2.4460    1.1450 H   0  0  0  0  0  0  0  0  0  0  0  0
   -8.3519    2.1825    2.1169 H   0  0  0  0  0  0  0  0  0  0  0  0
   -9.9181    1.5407    2.6833 H   0  0  0  0  0  0  0  0  0  0  0  0
   -6.7745   -1.3195   -1.2883 H   0  0  0  0  0  0  0  0  0  0  0  0
   -4.3460   -1.5463   -1.2317 H   0  0  0  0  0  0  0  0  0  0  0  0
    1.8562   -0.4779   -1.7927 H   0  0  0  0  0  0  0  0  0  0  0  0
    2.3500   -2.1169   -1.5006 H   0  0  0  0  0  0  0  0  0  0  0  0
    2.0449    0.0277    0.6925 H   0  0  0  0  0  0  0  0  0  0  0  0
    2.5488   -1.6258    0.9831 H   0  0  0  0  0  0  0  0  0  0  0  0
    4.7702   -2.4377    0.2315 H   0  0  0  0  0  0  0  0  0  0  0  0
    7.0893   -1.8157   -0.2839 H   0  0  0  0  0  0  0  0  0  0  0  0
    8.6112   -0.1737   -1.1983 H   0  0  0  0  0  0  0  0  0  0  0  0
    9.0792    0.1674    1.6509 H   0  0  0  0  0  0  0  0  0  0  0  0
    9.2383    1.8412    2.2526 H   0  0  0  0  0  0  0  0  0  0  0  0
    7.6140    1.1796    1.9275 H   0  0  0  0  0  0  0  0  0  0  0  0
    5.8408    2.2469   -1.0136 H   0  0  0  0  0  0  0  0  0  0  0  0
    3.5270    1.6323   -0.4835 H   0  0  0  0  0  0  0  0  0  0  0  0
  1  2  1  0
  2  3  1  0
  3  4  1  0
  4  5  1  0
  5  6  1  0
  6  7  2  0
  7  8  1  0
  8  9  2  0
  9 10  1  0
 10 11  1  0
 11 12  1  0
 11 13  2  0
 11 14  2  0
  9 15  1  0
 15 16  2  0
  2 17  1  0
 17 18  1  0
 18 19  1  0
 19 20  2  0
 20 21  1  0
 21 22  2  0
 22 23  1  0
 23 24  1  0
 24 25  1  0
 24 26  2  0
 24 27  2  0
 22 28  1  0
 28 29  2  0
 16  6  1  0
 29 19  1  0
  1 30  1  0
  1 31  1  0
  1 32  1  0
  3 33  1  0
  3 34  1  0
  4 35  1  0
  4 36  1  0
  7 37  1  0
  8 38  1  0
 10 39  1  0
 12 40  1  0
 12 41  1  0
 12 42  1  0
 15 43  1  0
 16 44  1  0
 17 45  1  0
 17 46  1  0
 18 47  1  0
 18 48  1  0
 20 49  1  0
 21 50  1  0
 23 51  1  0
 25 52  1  0
 25 53  1  0
 25 54  1  0
 28 55  1  0
 29 56  1  0
M  END
$$$$
