
     RDKit          3D

 49 52  0  0  0  0  0  0  0  0999 V2000
   -7.4471    0.9269    1.6054 C   0  0  0  0  0  0  0  0  0  0  0  0
   -6.1273    1.3800    1.9057 O   0  0  0  0  0  0  0  0  0  0  0  0
   -5.1909    0.6099    1.2693 C   0  0  0  0  0  0  0  0  0  0  0  0
   -4.8652   -0.6414    1.8049 C   0  0  0  0  0  0  0  0  0  0  0  0
   -3.8712   -1.4353    1.2499 C   0  0  0  0  0  0  0  0  0  0  0  0
   -3.6216   -2.6400    1.7934 N   0  0  0  0  0  0  0  0  0  0  0  0
   -2.6655   -3.4165    1.2368 C   0  0  0  0  0  0  0  0  0  0  0  0
   -1.9111   -3.0378    0.1486 C   0  0  0  0  0  0  0  0  0  0  0  0
   -2.1503   -1.7761   -0.3865 C   0  0  0  0  0  0  0  0  0  0  0  0
   -1.4331   -1.3605   -1.4863 O   0  0  0  0  0  0  0  0  0  0  0  0
   -0.0932   -1.0858   -1.3171 C   0  0  0  0  0  0  0  0  0  0  0  0
    0.5089   -0.7586   -0.0999 C   0  0  0  0  0  0  0  0  0  0  0  0
    1.8808   -0.4826   -0.0416 C   0  0  0  0  0  0  0  0  0  0  0  0
    2.6647   -0.5133   -1.1995 C   0  0  0  0  0  0  0  0  0  0  0  0
    4.0514   -0.2354   -1.1994 N   0  0  0  0  0  0  0  0  0  0  0  0
    4.8914   -0.1392   -0.1094 C   0  0  0  0  0  0  0  0  0  0  0  0
    4.5901   -0.3512    1.0586 O   0  0  0  0  0  0  0  0  0  0  0  0
    6.1722    0.2085   -0.5032 N   0  0  0  0  0  0  0  0  0  0  0  0
    7.2218    0.3982    0.4517 C   0  0  0  0  0  0  0  0  0  0  0  0
    7.6244    1.7793    0.8873 C   0  0  0  0  0  0  0  0  0  0  0  0
    8.5498    0.9659    0.0308 C   0  0  0  0  0  0  0  0  0  0  0  0
    2.0375   -0.8073   -2.4247 C   0  0  0  0  0  0  0  0  0  0  0  0
    2.9394   -0.8289   -3.9054 Cl  0  0  0  0  0  0  0  0  0  0  0  0
    0.6720   -1.0944   -2.4843 C   0  0  0  0  0  0  0  0  0  0  0  0
   -3.1600   -0.9456    0.1357 C   0  0  0  0  0  0  0  0  0  0  0  0
   -3.4750    0.3257   -0.3962 C   0  0  0  0  0  0  0  0  0  0  0  0
   -4.4876    1.1047    0.1725 C   0  0  0  0  0  0  0  0  0  0  0  0
   -4.8294    2.4114   -0.4348 C   0  0  0  0  0  0  0  0  0  0  0  0
   -3.7720    3.2251   -0.7439 N   0  0  0  0  0  0  0  0  0  0  0  0
   -5.9830    2.7379   -0.6725 O   0  0  0  0  0  0  0  0  0  0  0  0
   -7.5727    0.6946    0.5417 H   0  0  0  0  0  0  0  0  0  0  0  0
   -8.1439    1.7307    1.8649 H   0  0  0  0  0  0  0  0  0  0  0  0
   -7.6966    0.0531    2.2152 H   0  0  0  0  0  0  0  0  0  0  0  0
   -5.3939   -1.0055    2.6828 H   0  0  0  0  0  0  0  0  0  0  0  0
   -2.5237   -4.3852    1.7086 H   0  0  0  0  0  0  0  0  0  0  0  0
   -1.1599   -3.6995   -0.2671 H   0  0  0  0  0  0  0  0  0  0  0  0
   -0.0635   -0.6990    0.8201 H   0  0  0  0  0  0  0  0  0  0  0  0
    2.3041   -0.2274    0.9265 H   0  0  0  0  0  0  0  0  0  0  0  0
    4.5030   -0.2915   -2.1023 H   0  0  0  0  0  0  0  0  0  0  0  0
    6.2462    0.7093   -1.3768 H   0  0  0  0  0  0  0  0  0  0  0  0
    7.2495   -0.3814    1.2119 H   0  0  0  0  0  0  0  0  0  0  0  0
    7.1262    2.6311    0.4385 H   0  0  0  0  0  0  0  0  0  0  0  0
    7.8832    1.9197    1.9312 H   0  0  0  0  0  0  0  0  0  0  0  0
    9.4414    0.5531    0.4920 H   0  0  0  0  0  0  0  0  0  0  0  0
    8.6884    1.2707   -0.9995 H   0  0  0  0  0  0  0  0  0  0  0  0
    0.2012   -1.3293   -3.4349 H   0  0  0  0  0  0  0  0  0  0  0  0
   -2.9445    0.6919   -1.2720 H   0  0  0  0  0  0  0  0  0  0  0  0
   -2.8570    3.0786   -0.3417 H   0  0  0  0  0  0  0  0  0  0  0  0
   -4.0080    4.1624   -1.0457 H   0  0  0  0  0  0  0  0  0  0  0  0
  1  2  1  0
  2  3  1  0
  3  4  2  0
  4  5  1  0
  5  6  2  0
  6  7  1  0
  7  8  2  0
  8  9  1  0
  9 10  1  0
 10 11  1  0
 11 12  2  0
 12 13  1  0
 13 14  2  0
 14 15  1  0
 15 16  1  0
 16 17  2  0
 16 18  1  0
 18 19  1  0
 19 20  1  0
 20 21  1  0
 14 22  1  0
 22 23  1  0
 22 24  2  0
  9 25  2  0
 25 26  1  0
 26 27  2  0
 27 28  1  0
 28 29  1  0
 28 30  2  0
 27  3  1  0
 25  5  1  0
 24 11  1  0
 21 19  1  0
  1 31  1  0
  1 32  1  0
  1 33  1  0
  4 34  1  0
  7 35  1  0
  8 36  1  0
 12 37  1  0
 13 38  1  0
 15 39  1  0
 18 40  1  0
 19 41  1  0
 20 42  1  0
 20 43  1  0
 21 44  1  0
 21 45  1  0
 24 46  1  0
 26 47  1  0
 29 48  1  0
 29 49  1  0
M  END
$$$$
