
     RDKit          3D

 42 44  0  0  0  0  0  0  0  0999 V2000
   -5.2042    1.4386    0.0896 C   0  0  0  0  0  0  0  0  0  0  0  0
   -4.9062    0.7894   -1.5404 S   0  0  0  0  0  6  0  0  0  0  0  0
   -4.1663    1.7916   -2.2767 O   0  0  0  0  0  0  0  0  0  0  0  0
   -6.1600    0.2649   -2.0354 O   0  0  0  0  0  0  0  0  0  0  0  0
   -3.8803   -0.5023   -1.2387 N   0  0  0  0  0  0  0  0  0  0  0  0
   -4.3972   -1.7671   -0.6887 C   0  0  0  0  0  0  0  0  0  0  0  0
   -3.9546   -1.9412    0.7601 C   0  0  0  0  0  0  0  0  0  0  0  0
   -2.4446   -1.7922    0.9087 C   0  0  0  0  0  0  0  0  0  0  0  0
   -1.9532   -0.4558    0.3404 C   0  0  0  0  0  0  0  0  0  0  0  0
   -0.5273   -0.4584    0.4554 O   0  0  0  0  0  0  0  0  0  0  0  0
    0.0719    0.8232    0.2475 C   0  0  0  0  0  0  0  0  0  0  0  0
    1.5032    0.7134    0.6159 C   0  0  0  0  0  0  0  0  0  0  0  0
    2.5714    0.6670   -0.1480 N   0  0  0  0  0  0  0  0  0  0  0  0
    3.5961    0.5858    0.7736 C   0  0  0  0  0  0  0  0  0  0  0  0
    4.9977    0.5011    0.3742 C   0  0  0  0  0  0  0  0  0  0  0  0
    6.0216    0.4291    1.3312 C   0  0  0  0  0  0  0  0  0  0  0  0
    7.3603    0.3490    0.9374 C   0  0  0  0  0  0  0  0  0  0  0  0
    7.6903    0.3396   -0.4164 C   0  0  0  0  0  0  0  0  0  0  0  0
    6.6845    0.4100   -1.3779 C   0  0  0  0  0  0  0  0  0  0  0  0
    5.3458    0.4901   -0.9850 C   0  0  0  0  0  0  0  0  0  0  0  0
    3.1778    0.6046    2.0512 N   0  0  0  0  0  0  0  0  0  0  0  0
    1.7915    0.6848    1.9476 O   0  0  0  0  0  0  0  0  0  0  0  0
   -2.4232   -0.3039   -1.1151 C   0  0  0  0  0  0  0  0  0  0  0  0
   -5.7067    0.6818    0.6930 H   0  0  0  0  0  0  0  0  0  0  0  0
   -5.8535    2.3112   -0.0140 H   0  0  0  0  0  0  0  0  0  0  0  0
   -4.2563    1.7412    0.5359 H   0  0  0  0  0  0  0  0  0  0  0  0
   -5.4890   -1.8131   -0.7458 H   0  0  0  0  0  0  0  0  0  0  0  0
   -4.0181   -2.5918   -1.3040 H   0  0  0  0  0  0  0  0  0  0  0  0
   -4.4518   -1.1986    1.3944 H   0  0  0  0  0  0  0  0  0  0  0  0
   -4.2652   -2.9275    1.1229 H   0  0  0  0  0  0  0  0  0  0  0  0
   -2.1613   -1.8714    1.9654 H   0  0  0  0  0  0  0  0  0  0  0  0
   -1.9349   -2.6218    0.4012 H   0  0  0  0  0  0  0  0  0  0  0  0
   -2.3631    0.3526    0.9583 H   0  0  0  0  0  0  0  0  0  0  0  0
   -0.4182    1.5787    0.8711 H   0  0  0  0  0  0  0  0  0  0  0  0
   -0.0160    1.1098   -0.8046 H   0  0  0  0  0  0  0  0  0  0  0  0
    5.7863    0.4343    2.3938 H   0  0  0  0  0  0  0  0  0  0  0  0
    8.1438    0.2935    1.6890 H   0  0  0  0  0  0  0  0  0  0  0  0
    8.7317    0.2769   -0.7220 H   0  0  0  0  0  0  0  0  0  0  0  0
    6.9397    0.4021   -2.4346 H   0  0  0  0  0  0  0  0  0  0  0  0
    4.5733    0.5432   -1.7500 H   0  0  0  0  0  0  0  0  0  0  0  0
   -1.9126   -1.0349   -1.7550 H   0  0  0  0  0  0  0  0  0  0  0  0
   -2.1227    0.6724   -1.5054 H   0  0  0  0  0  0  0  0  0  0  0  0
  1  2  1  0
  2  3  2  0
  2  4  2  0
  2  5  1  0
  5  6  1  0
  6  7  1  0
  7  8  1  0
  8  9  1  0
  9 10  1  0
 10 11  1  0
 11 12  1  0
 12 13  2  0
 13 14  1  0
 14 15  1  0
 15 16  2  0
 16 17  1  0
 17 18  2  0
 18 19  1  0
 19 20  2  0
 14 21  2  0
 21 22  1  0
  9 23  1  0
 23  5  1  0
 22 12  1  0
 20 15  1  0
  1 24  1  0
  1 25  1  0
  1 26  1  0
  6 27  1  0
  6 28  1  0
  7 29  1  0
  7 30  1  0
  8 31  1  0
  8 32  1  0
  9 33  1  0
 11 34  1  0
 11 35  1  0
 16 36  1  0
 17 37  1  0
 18 38  1  0
 19 39  1  0
 20 40  1  0
 23 41  1  0
 23 42  1  0
M  END
$$$$
