
     RDKit          3D

 60 60  0  0  0  0  0  0  0  0999 V2000
   10.1603    0.2899    0.3787 C   0  0  0  0  0  0  0  0  0  0  0  0
    8.7881    0.3877    0.8503 N   0  0  0  0  0  0  0  0  0  0  0  0
    8.5463    1.3481    1.9170 C   0  0  0  0  0  0  0  0  0  0  0  0
    7.7800   -0.1751    0.0641 C   0  0  0  0  0  0  0  0  0  0  0  0
    8.0330   -0.8317   -0.9483 O   0  0  0  0  0  0  0  0  0  0  0  0
    6.3354    0.0544    0.5211 C   0  0  0  0  0  0  0  0  0  0  0  0
    5.4059   -0.5625   -0.3714 O   0  0  0  0  0  0  0  0  0  0  0  0
    4.1011   -0.3751   -0.0240 C   0  0  0  0  0  0  0  0  0  0  0  0
    3.7365    0.2555    0.9586 O   0  0  0  0  0  0  0  0  0  0  0  0
    3.2126   -1.0703   -1.0331 C   0  0  0  0  0  0  0  0  0  0  0  0
    1.7342   -0.8764   -0.7893 C   0  0  0  0  0  0  0  0  0  0  0  0
    1.0572    0.2115   -1.3638 C   0  0  0  0  0  0  0  0  0  0  0  0
   -0.3063    0.3974   -1.1337 C   0  0  0  0  0  0  0  0  0  0  0  0
   -0.9927   -0.5142   -0.3350 C   0  0  0  0  0  0  0  0  0  0  0  0
   -2.3460   -0.3223   -0.0432 O   0  0  0  0  0  0  0  0  0  0  0  0
   -3.1972   -0.5781   -1.1015 C   0  0  0  0  0  0  0  0  0  0  0  0
   -2.8937   -0.9572   -2.2232 O   0  0  0  0  0  0  0  0  0  0  0  0
   -4.6056   -0.3258   -0.6867 C   0  0  0  0  0  0  0  0  0  0  0  0
   -4.9549    0.1054    0.5964 C   0  0  0  0  0  0  0  0  0  0  0  0
   -6.2998    0.3257    0.9269 C   0  0  0  0  0  0  0  0  0  0  0  0
   -7.3225    0.1424   -0.0101 C   0  0  0  0  0  0  0  0  0  0  0  0
   -8.6918    0.3026    0.2819 N   0  0  0  0  0  0  0  0  0  0  0  0
   -9.2689    0.9330    1.3415 C   0  0  0  0  0  0  0  0  0  0  0  0
   -8.6923    1.5498    2.3084 N   0  0  0  0  0  0  0  0  0  0  0  0
  -10.6219    0.8488    1.2803 N   0  0  0  0  0  0  0  0  0  0  0  0
   -6.9584   -0.3157   -1.2872 C   0  0  0  0  0  0  0  0  0  0  0  0
   -5.6187   -0.5392   -1.6269 C   0  0  0  0  0  0  0  0  0  0  0  0
   -0.3365   -1.5840    0.2669 C   0  0  0  0  0  0  0  0  0  0  0  0
    1.0273   -1.7664    0.0353 C   0  0  0  0  0  0  0  0  0  0  0  0
   -1.0602    0.3891    0.0925 C   0  0  0  0  0  0  0  0  0  0  0  0
    0.4877   -0.4269    0.4065 S   0  0  0  0  0  6  0  0  0  0  0  0
    0.4675   -1.7453   -0.1844 O   0  0  0  0  0  0  0  0  0  0  0  0
    0.8945   -0.1897    1.7709 O   0  0  0  0  0  0  0  0  0  0  0  0
    1.4157    0.4730   -0.5602 O   0  0  0  0  0  0  0  0  0  0  0  0
   10.8259    0.1452    1.2347 H   0  0  0  0  0  0  0  0  0  0  0  0
   10.4196    1.2202   -0.1354 H   0  0  0  0  0  0  0  0  0  0  0  0
   10.2950   -0.5468   -0.3119 H   0  0  0  0  0  0  0  0  0  0  0  0
    9.3149    1.2343    2.6873 H   0  0  0  0  0  0  0  0  0  0  0  0
    8.5962    2.3558    1.4939 H   0  0  0  0  0  0  0  0  0  0  0  0
    7.5703    1.2058    2.3834 H   0  0  0  0  0  0  0  0  0  0  0  0
    6.2190   -0.3869    1.5173 H   0  0  0  0  0  0  0  0  0  0  0  0
    6.1491    1.1341    0.5397 H   0  0  0  0  0  0  0  0  0  0  0  0
    3.4631   -0.6948   -2.0327 H   0  0  0  0  0  0  0  0  0  0  0  0
    3.4443   -2.1421   -1.0166 H   0  0  0  0  0  0  0  0  0  0  0  0
    1.5879    0.9226   -1.9929 H   0  0  0  0  0  0  0  0  0  0  0  0
   -0.8242    1.2418   -1.5779 H   0  0  0  0  0  0  0  0  0  0  0  0
   -4.2027    0.2756    1.3626 H   0  0  0  0  0  0  0  0  0  0  0  0
   -6.5286    0.6449    1.9406 H   0  0  0  0  0  0  0  0  0  0  0  0
   -9.2768    0.2837   -0.5417 H   0  0  0  0  0  0  0  0  0  0  0  0
   -9.3853    1.9519    2.9382 H   0  0  0  0  0  0  0  0  0  0  0  0
  -10.9480   -0.0629    0.9787 H   0  0  0  0  0  0  0  0  0  0  0  0
  -11.0960    1.1203    2.1327 H   0  0  0  0  0  0  0  0  0  0  0  0
   -7.7187   -0.5022   -2.0422 H   0  0  0  0  0  0  0  0  0  0  0  0
   -5.3733   -0.8845   -2.6299 H   0  0  0  0  0  0  0  0  0  0  0  0
   -0.8784   -2.2698    0.9106 H   0  0  0  0  0  0  0  0  0  0  0  0
    1.5362   -2.6044    0.5064 H   0  0  0  0  0  0  0  0  0  0  0  0
   -1.2855    0.3210   -0.9733 H   0  0  0  0  0  0  0  0  0  0  0  0
   -0.9797    1.4307    0.4086 H   0  0  0  0  0  0  0  0  0  0  0  0
   -1.8336   -0.1193    0.6719 H   0  0  0  0  0  0  0  0  0  0  0  0
    1.8937   -0.1326   -1.1672 H   0  0  0  0  0  0  0  0  0  0  0  0
  1  2  1  0
  2  3  1  0
  2  4  1  0
  4  5  2  0
  4  6  1  0
  6  7  1  0
  7  8  1  0
  8  9  2  0
  8 10  1  0
 10 11  1  0
 11 12  2  0
 12 13  1  0
 13 14  2  0
 14 15  1  0
 15 16  1  0
 16 17  2  0
 16 18  1  0
 18 19  2  0
 19 20  1  0
 20 21  2  0
 21 22  1  0
 22 23  1  0
 23 24  2  3
 23 25  1  0
 21 26  1  0
 26 27  2  0
 14 28  1  0
 28 29  2  0
 30 31  1  0
 31 32  2  0
 31 33  2  0
 31 34  1  0
 29 11  1  0
 27 18  1  0
  1 35  1  0
  1 36  1  0
  1 37  1  0
  3 38  1  0
  3 39  1  0
  3 40  1  0
  6 41  1  0
  6 42  1  0
 10 43  1  0
 10 44  1  0
 12 45  1  0
 13 46  1  0
 19 47  1  0
 20 48  1  0
 22 49  1  0
 24 50  1  0
 25 51  1  0
 25 52  1  0
 26 53  1  0
 27 54  1  0
 28 55  1  0
 29 56  1  0
 30 57  1  0
 30 58  1  0
 30 59  1  0
 34 60  1  0
M  END
$$$$
