
     RDKit          3D

 16 17  0  0  0  0  0  0  0  0999 V2000
   -3.1203    0.6415    1.2105 O   0  0  0  0  0  0  0  0  0  0  0  0
   -2.5641    0.2465    0.1979 C   0  0  0  0  0  0  0  0  0  0  0  0
   -3.2673   -0.0915   -0.8999 O   0  0  0  0  0  0  0  0  0  0  0  0
   -1.1498    0.0794    0.0002 C   0  0  0  0  0  0  0  0  0  0  0  0
   -0.4531   -0.3642   -1.1229 C   0  0  0  0  0  0  0  0  0  0  0  0
    0.8930   -0.3198   -0.7332 C   0  0  0  0  0  0  0  0  0  0  0  0
    2.1073   -0.5938   -1.2736 O   0  0  0  0  0  0  0  0  0  0  0  0
    2.9960   -0.3045   -0.2779 C   0  0  0  0  0  0  0  0  0  0  0  0
    2.3887    0.1433    0.8748 C   0  0  0  0  0  0  0  0  0  0  0  0
    1.0217    0.1178    0.5345 C   0  0  0  0  0  0  0  0  0  0  0  0
   -0.2364    0.3705    1.0058 N   0  0  0  0  0  0  0  0  0  0  0  0
   -4.1954    0.0660   -0.6343 H   0  0  0  0  0  0  0  0  0  0  0  0
   -0.8688   -0.6699   -2.0725 H   0  0  0  0  0  0  0  0  0  0  0  0
    4.0317   -0.4695   -0.5436 H   0  0  0  0  0  0  0  0  0  0  0  0
    2.8650    0.4356    1.7983 H   0  0  0  0  0  0  0  0  0  0  0  0
   -0.4484    0.7126    1.9357 H   0  0  0  0  0  0  0  0  0  0  0  0
  1  2  2  0
  2  3  1  0
  2  4  1  0
  4  5  2  0
  5  6  1  0
  6  7  1  0
  7  8  1  0
  8  9  2  0
  9 10  1  0
 10 11  1  0
 11  4  1  0
 10  6  2  0
  3 12  1  0
  5 13  1  0
  8 14  1  0
  9 15  1  0
 11 16  1  0
M  END
$$$$
