
     RDKit          3D

 60 64  0  0  0  0  0  0  0  0999 V2000
   -0.7279   -1.2696   -0.5372 O   0  0  0  0  0  0  0  0  0  0  0  0
   -0.7548   -0.4320    0.3616 C   0  0  0  0  0  0  0  0  0  0  0  0
   -1.8519   -0.3855    1.4293 C   0  0  0  0  0  0  0  0  0  0  0  0
   -3.1538   -0.6463    0.8743 N   0  0  0  0  0  0  0  0  0  0  0  0
   -4.0447    0.3538    0.4398 C   0  0  0  0  0  0  0  0  0  0  0  0
   -3.8132    1.5501    0.5479 O   0  0  0  0  0  0  0  0  0  0  0  0
   -5.1833   -0.3137   -0.1048 N   0  0  0  0  0  0  0  0  0  0  0  0
   -6.3542    0.2912   -0.6452 C   0  0  0  0  0  0  0  0  0  0  0  0
   -6.5219    1.6870   -0.6060 C   0  0  0  0  0  0  0  0  0  0  0  0
   -7.6644    2.3138   -1.1228 C   0  0  0  0  0  0  0  0  0  0  0  0
   -8.6767    1.5577   -1.6961 C   0  0  0  0  0  0  0  0  0  0  0  0
   -8.5406    0.1774   -1.7542 C   0  0  0  0  0  0  0  0  0  0  0  0
   -7.3952   -0.4437   -1.2357 C   0  0  0  0  0  0  0  0  0  0  0  0
   -4.9443   -1.7097   -0.0201 C   0  0  0  0  0  0  0  0  0  0  0  0
   -5.7231   -2.7347   -0.4043 N   0  0  0  0  0  0  0  0  0  0  0  0
   -5.2082   -3.9732   -0.2063 C   0  0  0  0  0  0  0  0  0  0  0  0
   -3.9605   -4.2288    0.3625 C   0  0  0  0  0  0  0  0  0  0  0  0
   -3.1734   -3.1547    0.7669 C   0  0  0  0  0  0  0  0  0  0  0  0
   -3.6933   -1.8926    0.5686 C   0  0  0  0  0  0  0  0  0  0  0  0
    0.2361    0.5186    0.5280 N   0  0  0  0  0  0  0  0  0  0  0  0
    1.4254    0.5425   -0.3189 C   0  0  0  0  0  0  0  0  0  0  0  0
    2.0222    1.9530   -0.3975 C   0  0  0  0  0  0  0  0  0  0  0  0
    3.1523    2.1374    0.6110 C   0  0  0  0  0  0  0  0  0  0  0  0
    4.2594    1.1860    0.4442 N   0  0  0  0  0  0  0  0  0  0  0  0
    5.4157    1.8081   -0.2263 C   0  0  0  0  0  0  0  0  0  0  0  0
    6.6672    0.9552   -0.1986 C   0  0  0  0  0  0  0  0  0  0  0  0
    7.2903    0.5617   -1.3915 C   0  0  0  0  0  0  0  0  0  0  0  0
    8.4496   -0.2161   -1.3613 C   0  0  0  0  0  0  0  0  0  0  0  0
    8.9985   -0.6059   -0.1410 C   0  0  0  0  0  0  0  0  0  0  0  0
    8.3897   -0.2196    1.0513 C   0  0  0  0  0  0  0  0  0  0  0  0
    7.2315    0.5585    1.0233 C   0  0  0  0  0  0  0  0  0  0  0  0
    3.8639   -0.0727   -0.2112 C   0  0  0  0  0  0  0  0  0  0  0  0
    2.4477   -0.4901    0.1716 C   0  0  0  0  0  0  0  0  0  0  0  0
   -1.6211   -1.1239    2.2043 H   0  0  0  0  0  0  0  0  0  0  0  0
   -1.8638    0.6042    1.8992 H   0  0  0  0  0  0  0  0  0  0  0  0
   -5.7741    2.3392   -0.1667 H   0  0  0  0  0  0  0  0  0  0  0  0
   -7.7553    3.3962   -1.0696 H   0  0  0  0  0  0  0  0  0  0  0  0
   -9.5637    2.0400   -2.0961 H   0  0  0  0  0  0  0  0  0  0  0  0
   -9.3242   -0.4287   -2.2002 H   0  0  0  0  0  0  0  0  0  0  0  0
   -7.3581   -1.5228   -1.3265 H   0  0  0  0  0  0  0  0  0  0  0  0
   -5.8452   -4.7919   -0.5320 H   0  0  0  0  0  0  0  0  0  0  0  0
   -3.6111   -5.2493    0.4799 H   0  0  0  0  0  0  0  0  0  0  0  0
   -2.1938   -3.3148    1.1994 H   0  0  0  0  0  0  0  0  0  0  0  0
    0.2389    1.0803    1.3702 H   0  0  0  0  0  0  0  0  0  0  0  0
    1.1035    0.2643   -1.3308 H   0  0  0  0  0  0  0  0  0  0  0  0
    1.2500    2.7153   -0.2419 H   0  0  0  0  0  0  0  0  0  0  0  0
    2.4226    2.1195   -1.4061 H   0  0  0  0  0  0  0  0  0  0  0  0
    2.7458    1.9988    1.6211 H   0  0  0  0  0  0  0  0  0  0  0  0
    3.5029    3.1763    0.5824 H   0  0  0  0  0  0  0  0  0  0  0  0
    5.6769    2.7483    0.2781 H   0  0  0  0  0  0  0  0  0  0  0  0
    5.1575    2.0751   -1.2597 H   0  0  0  0  0  0  0  0  0  0  0  0
    6.8762    0.8567   -2.3526 H   0  0  0  0  0  0  0  0  0  0  0  0
    8.9249   -0.5179   -2.2910 H   0  0  0  0  0  0  0  0  0  0  0  0
    9.9000   -1.2122   -0.1190 H   0  0  0  0  0  0  0  0  0  0  0  0
    8.8142   -0.5253    2.0037 H   0  0  0  0  0  0  0  0  0  0  0  0
    6.7580    0.8505    1.9584 H   0  0  0  0  0  0  0  0  0  0  0  0
    4.5535   -0.8705    0.0869 H   0  0  0  0  0  0  0  0  0  0  0  0
    3.9191    0.0147   -1.3047 H   0  0  0  0  0  0  0  0  0  0  0  0
    2.3862   -0.6127    1.2618 H   0  0  0  0  0  0  0  0  0  0  0  0
    2.2160   -1.4726   -0.2574 H   0  0  0  0  0  0  0  0  0  0  0  0
  1  2  2  0
  2  3  1  0
  3  4  1  0
  4  5  1  0
  5  6  2  0
  5  7  1  0
  7  8  1  0
  8  9  2  0
  9 10  1  0
 10 11  2  0
 11 12  1  0
 12 13  2  0
  7 14  1  0
 14 15  2  0
 15 16  1  0
 16 17  2  0
 17 18  1  0
 18 19  2  0
  2 20  1  0
 20 21  1  0
 21 22  1  0
 22 23  1  0
 23 24  1  0
 24 25  1  0
 25 26  1  0
 26 27  2  0
 27 28  1  0
 28 29  2  0
 29 30  1  0
 30 31  2  0
 24 32  1  0
 32 33  1  0
 19  4  1  0
 33 21  1  0
 13  8  1  0
 19 14  1  0
 31 26  1  0
  3 34  1  0
  3 35  1  0
  9 36  1  0
 10 37  1  0
 11 38  1  0
 12 39  1  0
 13 40  1  0
 16 41  1  0
 17 42  1  0
 18 43  1  0
 20 44  1  0
 21 45  1  0
 22 46  1  0
 22 47  1  0
 23 48  1  0
 23 49  1  0
 25 50  1  0
 25 51  1  0
 27 52  1  0
 28 53  1  0
 29 54  1  0
 30 55  1  0
 31 56  1  0
 32 57  1  0
 32 58  1  0
 33 59  1  0
 33 60  1  0
M  END
$$$$
