
     RDKit          3D

 37 40  0  0  0  0  0  0  0  0999 V2000
   -1.2289   -3.0235   -0.5977 O   0  0  0  0  0  0  0  0  0  0  0  0
   -1.5158   -1.9613   -0.0353 C   0  0  0  0  0  0  0  0  0  0  0  0
   -2.8960   -1.7060    0.3573 C   0  0  0  0  0  0  0  0  0  0  0  0
   -4.0412   -2.4237    0.0486 C   0  0  0  0  0  0  0  0  0  0  0  0
   -5.1261   -1.7728    0.6811 C   0  0  0  0  0  0  0  0  0  0  0  0
   -4.5848   -0.7030    1.3502 C   0  0  0  0  0  0  0  0  0  0  0  0
   -3.2410   -0.6614    1.1707 O   0  0  0  0  0  0  0  0  0  0  0  0
   -0.5335   -0.9952    0.2205 N   0  0  0  0  0  0  0  0  0  0  0  0
    0.7767   -1.2636   -0.1430 N   0  0  0  0  0  0  0  0  0  0  0  0
    1.5015   -0.2633    0.2557 C   0  0  0  0  0  0  0  0  0  0  0  0
    2.9625   -0.1828    0.0214 C   0  0  0  0  0  0  0  0  0  0  0  0
    3.7343    0.8579    0.5516 C   0  0  0  0  0  0  0  0  0  0  0  0
    5.1115    0.9013    0.3087 C   0  0  0  0  0  0  0  0  0  0  0  0
    5.7157   -0.0928   -0.4600 C   0  0  0  0  0  0  0  0  0  0  0  0
    7.4091   -0.0331   -0.7547 Cl  0  0  0  0  0  0  0  0  0  0  0  0
    4.9559   -1.1333   -0.9889 C   0  0  0  0  0  0  0  0  0  0  0  0
    3.5801   -1.1788   -0.7478 C   0  0  0  0  0  0  0  0  0  0  0  0
    0.7573    0.7976    1.0180 C   0  0  0  0  0  0  0  0  0  0  0  0
   -0.6791    0.3684    0.7426 C   0  0  0  0  0  0  0  0  0  0  0  0
   -1.3104    1.2597   -0.2792 C   0  0  0  0  0  0  0  0  0  0  0  0
   -1.4141    1.2291   -1.6568 C   0  0  0  0  0  0  0  0  0  0  0  0
   -2.1375    2.3859   -2.0311 C   0  0  0  0  0  0  0  0  0  0  0  0
   -2.4227    3.0537   -0.8642 C   0  0  0  0  0  0  0  0  0  0  0  0
   -1.9193    2.3835    0.2035 O   0  0  0  0  0  0  0  0  0  0  0  0
   -4.0698   -3.3125   -0.5681 H   0  0  0  0  0  0  0  0  0  0  0  0
   -6.1703   -2.0506    0.6546 H   0  0  0  0  0  0  0  0  0  0  0  0
   -4.9985    0.0809    1.9696 H   0  0  0  0  0  0  0  0  0  0  0  0
    3.2928    1.6428    1.1584 H   0  0  0  0  0  0  0  0  0  0  0  0
    5.7071    1.7114    0.7226 H   0  0  0  0  0  0  0  0  0  0  0  0
    5.4231   -1.9115   -1.5869 H   0  0  0  0  0  0  0  0  0  0  0  0
    2.9946   -1.9976   -1.1641 H   0  0  0  0  0  0  0  0  0  0  0  0
    1.0022    0.6932    2.0806 H   0  0  0  0  0  0  0  0  0  0  0  0
    0.9970    1.8079    0.6761 H   0  0  0  0  0  0  0  0  0  0  0  0
   -1.2501    0.3683    1.6747 H   0  0  0  0  0  0  0  0  0  0  0  0
   -1.0178    0.4595   -2.3068 H   0  0  0  0  0  0  0  0  0  0  0  0
   -2.4175    2.6948   -3.0284 H   0  0  0  0  0  0  0  0  0  0  0  0
   -2.9472    3.9710   -0.6356 H   0  0  0  0  0  0  0  0  0  0  0  0
  1  2  2  0
  2  3  1  0
  3  4  2  0
  4  5  1  0
  5  6  2  0
  6  7  1  0
  2  8  1  0
  8  9  1  0
  9 10  2  0
 10 11  1  0
 11 12  2  0
 12 13  1  0
 13 14  2  0
 14 15  1  0
 14 16  1  0
 16 17  2  0
 10 18  1  0
 18 19  1  0
 19 20  1  0
 20 21  2  0
 21 22  1  0
 22 23  2  0
 23 24  1  0
  7  3  1  0
 19  8  1  0
 24 20  1  0
 17 11  1  0
  4 25  1  0
  5 26  1  0
  6 27  1  0
 12 28  1  0
 13 29  1  0
 16 30  1  0
 17 31  1  0
 18 32  1  0
 18 33  1  0
 19 34  1  0
 21 35  1  0
 22 36  1  0
 23 37  1  0
M  END
$$$$
