
     RDKit          3D

 52 53  0  0  0  0  0  0  0  0999 V2000
   -2.9149   -3.1917   -0.5964 C   0  0  0  0  0  0  0  0  0  0  0  0
   -1.9704   -2.0791   -1.0873 C   0  0  0  0  0  0  0  0  0  0  0  0
   -2.3328   -1.8653   -2.5364 C   0  0  0  0  0  0  0  0  0  0  0  0
   -2.1576   -0.8825   -0.2962 N   0  0  0  0  0  0  0  0  0  0  0  0
   -1.1997    0.1038   -0.6667 C   0  0  0  0  0  0  0  0  0  0  0  0
    0.2181   -0.2442   -0.2823 C   0  0  0  0  0  0  0  0  0  0  0  0
    1.1490    0.8420   -0.7079 C   0  0  0  0  0  0  0  0  0  0  0  0
    0.6609    1.8354   -1.2923 O   0  0  0  0  0  0  0  0  0  0  0  0
    2.5705    0.7897   -0.4740 C   0  0  0  0  0  0  0  0  0  0  0  0
    3.3621    1.8303   -0.8996 C   0  0  0  0  0  0  0  0  0  0  0  0
    4.7400    1.8270   -0.6968 C   0  0  0  0  0  0  0  0  0  0  0  0
    5.3423    0.7482   -0.0478 C   0  0  0  0  0  0  0  0  0  0  0  0
    6.7111    0.7317    0.1604 C   0  0  0  0  0  0  0  0  0  0  0  0
    7.3063   -0.3352    0.8020 C   0  0  0  0  0  0  0  0  0  0  0  0
    6.5436   -1.3833    1.2358 C   0  0  0  0  0  0  0  0  0  0  0  0
    5.1934   -1.3452    1.0190 C   0  0  0  0  0  0  0  0  0  0  0  0
    4.5528   -0.2993    0.3818 C   0  0  0  0  0  0  0  0  0  0  0  0
    3.1981   -0.2654    0.1664 C   0  0  0  0  0  0  0  0  0  0  0  0
   -3.5156   -0.4664   -0.4125 C   0  0  0  0  0  0  0  0  0  0  0  0
   -3.8869    0.7209    0.3596 C   0  0  0  0  0  0  0  0  0  0  0  0
   -4.9260    1.5053   -0.0885 C   0  0  0  0  0  0  0  0  0  0  0  0
   -5.3550    2.6383    0.5678 C   0  0  0  0  0  0  0  0  0  0  0  0
   -4.7200    3.0193    1.7367 C   0  0  0  0  0  0  0  0  0  0  0  0
   -3.6803    2.2377    2.1888 C   0  0  0  0  0  0  0  0  0  0  0  0
   -3.2566    1.1042    1.5253 C   0  0  0  0  0  0  0  0  0  0  0  0
    0.6915    0.0000    0.0000 Cl  0  0  0  0  0  0  0  0  0  0  0  0
   -3.0264   -3.1724    0.4934 H   0  0  0  0  0  0  0  0  0  0  0  0
   -3.8983   -3.0712   -1.1198 H   0  0  0  0  0  0  0  0  0  0  0  0
   -2.5061   -4.1477   -0.9475 H   0  0  0  0  0  0  0  0  0  0  0  0
   -0.9584   -2.5163   -0.9681 H   0  0  0  0  0  0  0  0  0  0  0  0
   -3.3122   -2.3582   -2.8115 H   0  0  0  0  0  0  0  0  0  0  0  0
   -1.5789   -2.4258   -3.1317 H   0  0  0  0  0  0  0  0  0  0  0  0
   -2.4403   -0.8275   -2.8437 H   0  0  0  0  0  0  0  0  0  0  0  0
   -1.4818    1.0801   -0.1810 H   0  0  0  0  0  0  0  0  0  0  0  0
   -1.1675    0.3069   -1.7806 H   0  0  0  0  0  0  0  0  0  0  0  0
    0.5571   -1.2214   -0.6578 H   0  0  0  0  0  0  0  0  0  0  0  0
    0.2614   -0.2384    0.8456 H   0  0  0  0  0  0  0  0  0  0  0  0
    2.9417    2.6936   -1.4099 H   0  0  0  0  0  0  0  0  0  0  0  0
    5.3815    2.6348   -1.0240 H   0  0  0  0  0  0  0  0  0  0  0  0
    7.2929    1.5745   -0.1929 H   0  0  0  0  0  0  0  0  0  0  0  0
    8.3815   -0.2759    0.9276 H   0  0  0  0  0  0  0  0  0  0  0  0
    7.0421   -2.2083    1.7377 H   0  0  0  0  0  0  0  0  0  0  0  0
    4.5868   -2.1799    1.3648 H   0  0  0  0  0  0  0  0  0  0  0  0
    2.5927   -1.0757    0.4985 H   0  0  0  0  0  0  0  0  0  0  0  0
   -4.1414   -1.3098   -0.0089 H   0  0  0  0  0  0  0  0  0  0  0  0
   -3.8428   -0.3349   -1.4651 H   0  0  0  0  0  0  0  0  0  0  0  0
   -5.4736    1.2624   -1.0069 H   0  0  0  0  0  0  0  0  0  0  0  0
   -6.1725    3.2441    0.2025 H   0  0  0  0  0  0  0  0  0  0  0  0
   -5.0464    3.9163    2.2720 H   0  0  0  0  0  0  0  0  0  0  0  0
   -3.2019    2.5630    3.1096 H   0  0  0  0  0  0  0  0  0  0  0  0
   -2.4213    0.5114    1.9312 H   0  0  0  0  0  0  0  0  0  0  0  0
   -0.6915    0.0000    0.0000 H   0  0  0  0  0  0  0  0  0  0  0  0
  1  2  1  0
  2  3  1  0
  2  4  1  0
  4  5  1  0
  5  6  1  0
  6  7  1  0
  7  8  2  0
  7  9  1  0
  9 10  2  0
 10 11  1  0
 11 12  2  0
 12 13  1  0
 13 14  2  0
 14 15  1  0
 15 16  2  0
 16 17  1  0
 17 18  2  0
  4 19  1  0
 19 20  1  0
 20 21  2  0
 21 22  1  0
 22 23  2  0
 23 24  1  0
 24 25  2  0
 18  9  1  0
 25 20  1  0
 17 12  1  0
  1 27  1  0
  1 28  1  0
  1 29  1  0
  2 30  1  0
  3 31  1  0
  3 32  1  0
  3 33  1  0
  5 34  1  0
  5 35  1  0
  6 36  1  0
  6 37  1  0
 10 38  1  0
 11 39  1  0
 13 40  1  0
 14 41  1  0
 15 42  1  0
 16 43  1  0
 18 44  1  0
 19 45  1  0
 19 46  1  0
 21 47  1  0
 22 48  1  0
 23 49  1  0
 24 50  1  0
 25 51  1  0
 26 52  1  0
M  END
$$$$
