
     RDKit          3D

 58 63  0  0  0  0  0  0  0  0999 V2000
   -2.8457   -2.9803   -1.6871 C   0  0  0  0  0  0  0  0  0  0  0  0
   -1.9545   -2.6333   -0.4764 C   0  0  1  0  0  0  0  0  0  0  0  0
   -2.7558   -1.8826    0.6422 C   0  0  0  0  0  0  0  0  0  0  0  0
   -2.8454   -2.3321    1.7818 O   0  0  0  0  0  0  0  0  0  0  0  0
   -3.3696   -0.7120    0.2210 N   0  0  0  0  0  0  0  0  0  0  0  0
   -4.0902    0.2145    0.9942 C   0  0  0  0  0  0  0  0  0  0  0  0
   -4.2481    0.1449    2.3784 C   0  0  0  0  0  0  0  0  0  0  0  0
   -4.9510    1.1553    3.0387 C   0  0  0  0  0  0  0  0  0  0  0  0
   -5.4860    2.1942    2.2888 C   0  0  0  0  0  0  0  0  0  0  0  0
   -6.1435    3.1666    2.9292 F   0  0  0  0  0  0  0  0  0  0  0  0
   -5.3730    2.2940    0.9484 N   0  0  0  0  0  0  0  0  0  0  0  0
   -4.6744    1.3017    0.3421 C   0  0  0  0  0  0  0  0  0  0  0  0
   -1.3594   -3.9472    0.1150 C   0  0  0  0  0  0  0  0  0  0  0  0
   -0.0081   -4.0809   -0.5623 C   0  0  0  0  0  0  0  0  0  0  0  0
    0.4670   -2.6373   -0.6091 C   0  0  0  0  0  0  0  0  0  0  0  0
   -0.7452   -1.8810   -0.9082 N   0  0  0  0  0  0  0  0  0  0  0  0
   -0.6729   -0.5520   -1.2609 C   0  0  0  0  0  0  0  0  0  0  0  0
    0.5155    0.0663   -0.9917 N   0  0  0  0  0  0  0  0  0  0  0  0
    0.7369    1.3169   -1.2380 C   0  0  0  0  0  0  0  0  0  0  0  0
    1.9090    1.9762   -0.9126 N   0  0  0  0  0  0  0  0  0  0  0  0
    2.9859    1.3813   -0.3453 C   0  0  0  0  0  0  0  0  0  0  0  0
    4.0373    2.1531    0.2302 C   0  0  0  0  0  0  0  0  0  0  0  0
    4.9509    1.2353    0.6841 C   0  0  0  0  0  0  0  0  0  0  0  0
    6.2889    1.5466    1.3896 C   0  0  0  0  0  0  0  0  0  0  0  0
    7.5633    1.0128    0.7880 C   0  0  0  0  0  0  0  0  0  0  0  0
    7.0548    0.4568    2.0880 C   0  0  0  0  0  0  0  0  0  0  0  0
    4.4373    0.0143    0.3783 N   0  0  0  0  0  0  0  0  0  0  0  0
    3.2636    0.0761   -0.2562 N   0  0  0  0  0  0  0  0  0  0  0  0
   -0.3435    2.0204   -1.8737 C   0  0  0  0  0  0  0  0  0  0  0  0
   -0.5100    3.3132   -2.3275 C   0  0  0  0  0  0  0  0  0  0  0  0
   -1.8083    3.3915   -2.8852 C   0  0  0  0  0  0  0  0  0  0  0  0
   -2.3850    2.1479   -2.7426 C   0  0  0  0  0  0  0  0  0  0  0  0
   -1.4858    1.3278   -2.1265 N   0  0  0  0  0  0  0  0  0  0  0  0
   -1.6998    0.0430   -1.8066 N   0  0  0  0  0  0  0  0  0  0  0  0
   -2.2881   -3.5456   -2.4381 H   0  0  0  0  0  0  0  0  0  0  0  0
   -3.7110   -3.5867   -1.3742 H   0  0  0  0  0  0  0  0  0  0  0  0
   -3.2458   -2.0936   -2.1970 H   0  0  0  0  0  0  0  0  0  0  0  0
   -3.1571   -0.4343   -0.7381 H   0  0  0  0  0  0  0  0  0  0  0  0
   -3.8122   -0.6485    2.9655 H   0  0  0  0  0  0  0  0  0  0  0  0
   -5.0751    1.1425    4.1142 H   0  0  0  0  0  0  0  0  0  0  0  0
   -4.6007    1.4228   -0.7418 H   0  0  0  0  0  0  0  0  0  0  0  0
   -1.1913   -3.8744    1.1963 H   0  0  0  0  0  0  0  0  0  0  0  0
   -1.9955   -4.8251   -0.0558 H   0  0  0  0  0  0  0  0  0  0  0  0
   -0.1307   -4.4807   -1.5770 H   0  0  0  0  0  0  0  0  0  0  0  0
    0.6813   -4.7300   -0.0159 H   0  0  0  0  0  0  0  0  0  0  0  0
    1.2300   -2.5121   -1.3801 H   0  0  0  0  0  0  0  0  0  0  0  0
    0.8796   -2.3280    0.3585 H   0  0  0  0  0  0  0  0  0  0  0  0
    1.8852    2.9794   -1.0028 H   0  0  0  0  0  0  0  0  0  0  0  0
    4.1138    3.2285    0.3020 H   0  0  0  0  0  0  0  0  0  0  0  0
    6.3424    2.5323    1.8410 H   0  0  0  0  0  0  0  0  0  0  0  0
    7.5048    0.3797   -0.0916 H   0  0  0  0  0  0  0  0  0  0  0  0
    8.4404    1.6536    0.8141 H   0  0  0  0  0  0  0  0  0  0  0  0
    7.5990    0.7155    2.9939 H   0  0  0  0  0  0  0  0  0  0  0  0
    6.6540   -0.5463    2.0979 H   0  0  0  0  0  0  0  0  0  0  0  0
    4.8357   -0.9015    0.5520 H   0  0  0  0  0  0  0  0  0  0  0  0
    0.2143    4.1128   -2.2763 H   0  0  0  0  0  0  0  0  0  0  0  0
   -2.2729    4.2516   -3.3441 H   0  0  0  0  0  0  0  0  0  0  0  0
   -3.3551    1.7762   -3.0306 H   0  0  0  0  0  0  0  0  0  0  0  0
  2  1  1  6
  2  3  1  0
  3  4  2  0
  3  5  1  0
  5  6  1  0
  6  7  2  0
  7  8  1  0
  8  9  2  0
  9 10  1  0
  9 11  1  0
 11 12  2  0
  2 13  1  0
 13 14  1  0
 14 15  1  0
 15 16  1  0
 16 17  1  0
 17 18  1  0
 18 19  2  0
 19 20  1  0
 20 21  1  0
 21 22  1  0
 22 23  2  0
 23 24  1  0
 24 25  1  0
 25 26  1  0
 23 27  1  0
 27 28  1  0
 19 29  1  0
 29 30  2  0
 30 31  1  0
 31 32  2  0
 32 33  1  0
 33 34  1  0
 16  2  1  0
 34 17  2  0
 12  6  1  0
 28 21  2  0
 33 29  1  0
 26 24  1  0
  1 35  1  0
  1 36  1  0
  1 37  1  0
  5 38  1  0
  7 39  1  0
  8 40  1  0
 12 41  1  0
 13 42  1  0
 13 43  1  0
 14 44  1  0
 14 45  1  0
 15 46  1  0
 15 47  1  0
 20 48  1  0
 22 49  1  0
 24 50  1  0
 25 51  1  0
 25 52  1  0
 26 53  1  0
 26 54  1  0
 27 55  1  0
 30 56  1  0
 31 57  1  0
 32 58  1  0
M  END
$$$$
