
     RDKit          3D

 46 48  0  0  0  0  0  0  0  0999 V2000
    5.4179    0.2077   -2.3270 C   0  0  0  0  0  0  0  0  0  0  0  0
    4.4622   -0.6695   -1.7417 O   0  0  0  0  0  0  0  0  0  0  0  0
    4.0806   -0.3774   -0.4554 C   0  0  0  0  0  0  0  0  0  0  0  0
    4.8011    0.4181    0.4370 C   0  0  0  0  0  0  0  0  0  0  0  0
    4.3215    0.6234    1.7350 C   0  0  0  0  0  0  0  0  0  0  0  0
    3.1301    0.0281    2.1501 C   0  0  0  0  0  0  0  0  0  0  0  0
    2.4084   -0.7748    1.2686 C   0  0  0  0  0  0  0  0  0  0  0  0
    2.8842   -0.9783   -0.0263 C   0  0  0  0  0  0  0  0  0  0  0  0
    2.1092   -1.7490   -0.9613 N   0  0  0  0  0  0  0  0  0  0  0  0
    0.8896   -0.8781   -1.7692 S   0  0  0  0  0  6  0  0  0  0  0  0
    1.4005    0.4120   -2.1815 O   0  0  0  0  0  0  0  0  0  0  0  0
    0.2844   -1.7863   -2.7200 O   0  0  0  0  0  0  0  0  0  0  0  0
   -0.3772   -0.5262   -0.6539 C   0  0  0  0  0  0  0  0  0  0  0  0
   -0.7907    0.7299   -0.2485 C   0  0  0  0  0  0  0  0  0  0  0  0
   -1.8141    0.5622    0.6495 N   0  0  0  0  0  0  0  0  0  0  0  0
   -2.5077    1.6381    1.3337 C   0  0  0  0  0  0  0  0  0  0  0  0
   -3.7361    2.2163    0.6054 C   0  0  0  0  0  0  0  0  0  0  0  0
   -4.8492    1.1861    0.4121 C   0  0  0  0  0  0  0  0  0  0  0  0
   -3.3776    2.8712   -0.7294 C   0  0  0  0  0  0  0  0  0  0  0  0
   -2.0236   -0.7790    0.8660 C   0  0  0  0  0  0  0  0  0  0  0  0
   -2.9255   -1.2942    1.7264 N   0  0  0  0  0  0  0  0  0  0  0  0
   -2.9483   -2.6446    1.7350 C   0  0  0  0  0  0  0  0  0  0  0  0
   -2.1441   -3.4722    0.9657 C   0  0  0  0  0  0  0  0  0  0  0  0
   -1.2184   -2.8957    0.0977 C   0  0  0  0  0  0  0  0  0  0  0  0
   -1.1516   -1.4918    0.0436 C   0  0  0  0  0  0  0  0  0  0  0  0
    5.1172    1.2570   -2.2297 H   0  0  0  0  0  0  0  0  0  0  0  0
    5.4738   -0.0249   -3.3946 H   0  0  0  0  0  0  0  0  0  0  0  0
    6.4107    0.0399   -1.8969 H   0  0  0  0  0  0  0  0  0  0  0  0
    5.7417    0.8815    0.1579 H   0  0  0  0  0  0  0  0  0  0  0  0
    4.8846    1.2451    2.4273 H   0  0  0  0  0  0  0  0  0  0  0  0
    2.7659    0.1852    3.1621 H   0  0  0  0  0  0  0  0  0  0  0  0
    1.4888   -1.2459    1.6025 H   0  0  0  0  0  0  0  0  0  0  0  0
    2.7238   -2.1134   -1.6951 H   0  0  0  0  0  0  0  0  0  0  0  0
   -0.4387    1.7132   -0.5360 H   0  0  0  0  0  0  0  0  0  0  0  0
   -2.7984    1.2710    2.3249 H   0  0  0  0  0  0  0  0  0  0  0  0
   -1.7698    2.4325    1.5056 H   0  0  0  0  0  0  0  0  0  0  0  0
   -4.1379    3.0070    1.2533 H   0  0  0  0  0  0  0  0  0  0  0  0
   -5.1245    0.7255    1.3662 H   0  0  0  0  0  0  0  0  0  0  0  0
   -4.5531    0.3933   -0.2826 H   0  0  0  0  0  0  0  0  0  0  0  0
   -5.7465    1.6641    0.0039 H   0  0  0  0  0  0  0  0  0  0  0  0
   -4.2440    3.3999   -1.1416 H   0  0  0  0  0  0  0  0  0  0  0  0
   -2.5727    3.6028   -0.6021 H   0  0  0  0  0  0  0  0  0  0  0  0
   -3.0583    2.1332   -1.4724 H   0  0  0  0  0  0  0  0  0  0  0  0
   -3.6762   -3.0767    2.4179 H   0  0  0  0  0  0  0  0  0  0  0  0
   -2.2371   -4.5502    1.0385 H   0  0  0  0  0  0  0  0  0  0  0  0
   -0.5753   -3.5160   -0.5197 H   0  0  0  0  0  0  0  0  0  0  0  0
  1  2  1  0
  2  3  1  0
  3  4  2  0
  4  5  1  0
  5  6  2  0
  6  7  1  0
  7  8  2  0
  8  9  1  0
  9 10  1  0
 10 11  2  0
 10 12  2  0
 10 13  1  0
 13 14  2  0
 14 15  1  0
 15 16  1  0
 16 17  1  0
 17 18  1  0
 17 19  1  0
 15 20  1  0
 20 21  2  0
 21 22  1  0
 22 23  2  0
 23 24  1  0
 24 25  2  0
  8  3  1  0
 25 13  1  0
 25 20  1  0
  1 26  1  0
  1 27  1  0
  1 28  1  0
  4 29  1  0
  5 30  1  0
  6 31  1  0
  7 32  1  0
  9 33  1  0
 14 34  1  0
 16 35  1  0
 16 36  1  0
 17 37  1  0
 18 38  1  0
 18 39  1  0
 18 40  1  0
 19 41  1  0
 19 42  1  0
 19 43  1  0
 22 44  1  0
 23 45  1  0
 24 46  1  0
M  END
$$$$
