
     RDKit          3D

 79 84  0  0  0  0  0  0  0  0999 V2000
   -4.6801   -4.6996   -1.7920 C   0  0  0  0  0  0  0  0  0  0  0  0
   -4.8964   -3.3042   -1.2320 C   0  0  0  0  0  0  0  0  0  0  0  0
   -3.7034   -2.8143   -0.6193 O   0  0  0  0  0  0  0  0  0  0  0  0
   -2.8659   -2.1720   -1.4313 C   0  0  0  0  0  0  0  0  0  0  0  0
   -2.9750   -2.0857   -2.7341 N   0  0  0  0  0  0  0  0  0  0  0  0
   -1.8961   -1.3442   -3.1327 C   0  0  0  0  0  0  0  0  0  0  0  0
   -1.5619   -0.9291   -4.4332 C   0  0  0  0  0  0  0  0  0  0  0  0
   -0.4024   -0.1781   -4.6381 C   0  0  0  0  0  0  0  0  0  0  0  0
    0.4299    0.1308   -3.5661 C   0  0  0  0  0  0  0  0  0  0  0  0
    0.1227   -0.2960   -2.2621 C   0  0  0  0  0  0  0  0  0  0  0  0
    1.1021    0.0039   -1.2139 C   0  0  0  0  0  0  0  0  0  0  0  0
    1.4557    1.1293   -0.9128 O   0  0  0  0  0  0  0  0  0  0  0  0
    1.5723   -1.1671   -0.7286 O   0  0  0  0  0  0  0  0  0  0  0  0
    2.6855   -1.0263    0.1696 C   0  0  0  0  0  0  0  0  0  0  0  0
    2.7896   -2.3438    0.9304 C   0  0  0  0  0  0  0  0  0  0  0  0
    3.8805   -0.8212   -0.5852 O   0  0  0  0  0  0  0  0  0  0  0  0
    4.8947   -0.2520    0.1050 C   0  0  0  0  0  0  0  0  0  0  0  0
    4.8745    0.0602    1.2856 O   0  0  0  0  0  0  0  0  0  0  0  0
    5.9480   -0.1160   -0.7380 O   0  0  0  0  0  0  0  0  0  0  0  0
    7.1438    0.4589   -0.1770 C   0  0  0  0  0  0  0  0  0  0  0  0
    7.9152    1.0966   -1.3431 C   0  0  0  0  0  0  0  0  0  0  0  0
    9.4151    1.1179   -1.0878 C   0  0  0  0  0  0  0  0  0  0  0  0
    9.9781   -0.2962   -0.9312 C   0  0  0  0  0  0  0  0  0  0  0  0
    8.9647   -1.2971   -0.3707 C   0  0  0  0  0  0  0  0  0  0  0  0
    7.9558   -0.6237    0.5547 C   0  0  0  0  0  0  0  0  0  0  0  0
   -1.0721   -1.0093   -2.0520 C   0  0  0  0  0  0  0  0  0  0  0  0
   -1.7602   -1.5019   -0.9609 N   0  0  0  0  0  0  0  0  0  0  0  0
   -1.4737   -1.3383    0.4537 C   0  0  0  0  0  0  0  0  0  0  0  0
   -2.3272   -0.2624    1.0808 C   0  0  0  0  0  0  0  0  0  0  0  0
   -3.4252   -0.6081    1.8804 C   0  0  0  0  0  0  0  0  0  0  0  0
   -4.2374    0.3812    2.4410 C   0  0  0  0  0  0  0  0  0  0  0  0
   -3.9796    1.7403    2.2096 C   0  0  0  0  0  0  0  0  0  0  0  0
   -4.8410    2.7830    2.7930 C   0  0  0  0  0  0  0  0  0  0  0  0
   -4.3095    3.5767    3.8320 C   0  0  0  0  0  0  0  0  0  0  0  0
   -5.0753    4.5549    4.4682 C   0  0  0  0  0  0  0  0  0  0  0  0
   -6.3941    4.7591    4.0837 C   0  0  0  0  0  0  0  0  0  0  0  0
   -6.9420    3.9898    3.0571 C   0  0  0  0  0  0  0  0  0  0  0  0
   -6.1802    3.0057    2.3944 C   0  0  0  0  0  0  0  0  0  0  0  0
   -6.8142    2.2662    1.3066 C   0  0  0  0  0  0  0  0  0  0  0  0
   -6.1560    1.8737    0.1638 N   0  0  0  0  0  0  0  0  0  0  0  0
   -7.0440    1.2559   -0.6017 N   0  0  0  0  0  0  0  0  0  0  0  0
   -8.1808    1.3111    0.0948 N   0  0  0  0  0  0  0  0  0  0  0  0
   -8.1197    1.9330    1.2811 N   0  0  0  0  0  0  0  0  0  0  0  0
   -2.8727    2.0820    1.4187 C   0  0  0  0  0  0  0  0  0  0  0  0
   -2.0550    1.0945    0.8605 C   0  0  0  0  0  0  0  0  0  0  0  0
   -4.3027   -5.3711   -1.0139 H   0  0  0  0  0  0  0  0  0  0  0  0
   -5.6149   -5.1072   -2.1872 H   0  0  0  0  0  0  0  0  0  0  0  0
   -3.9362   -4.6936   -2.5942 H   0  0  0  0  0  0  0  0  0  0  0  0
   -5.6546   -3.3559   -0.4427 H   0  0  0  0  0  0  0  0  0  0  0  0
   -5.2857   -2.6155   -1.9927 H   0  0  0  0  0  0  0  0  0  0  0  0
   -2.2121   -1.1887   -5.2625 H   0  0  0  0  0  0  0  0  0  0  0  0
   -0.1452    0.1542   -5.6412 H   0  0  0  0  0  0  0  0  0  0  0  0
    1.3418    0.6992   -3.7461 H   0  0  0  0  0  0  0  0  0  0  0  0
    2.4913   -0.2069    0.8754 H   0  0  0  0  0  0  0  0  0  0  0  0
    2.9775   -3.1732    0.2393 H   0  0  0  0  0  0  0  0  0  0  0  0
    3.6123   -2.3285    1.6518 H   0  0  0  0  0  0  0  0  0  0  0  0
    1.8566   -2.5627    1.4588 H   0  0  0  0  0  0  0  0  0  0  0  0
    6.8729    1.2497    0.5353 H   0  0  0  0  0  0  0  0  0  0  0  0
    7.7103    0.5599   -2.2787 H   0  0  0  0  0  0  0  0  0  0  0  0
    7.5460    2.1174   -1.5017 H   0  0  0  0  0  0  0  0  0  0  0  0
    9.6179    1.6938   -0.1760 H   0  0  0  0  0  0  0  0  0  0  0  0
    9.9341    1.6330   -1.9043 H   0  0  0  0  0  0  0  0  0  0  0  0
   10.8584   -0.2527   -0.2776 H   0  0  0  0  0  0  0  0  0  0  0  0
   10.3361   -0.6644   -1.9007 H   0  0  0  0  0  0  0  0  0  0  0  0
    9.4948   -2.0953    0.1622 H   0  0  0  0  0  0  0  0  0  0  0  0
    8.4294   -1.7769   -1.1998 H   0  0  0  0  0  0  0  0  0  0  0  0
    8.5030   -0.1609    1.3852 H   0  0  0  0  0  0  0  0  0  0  0  0
    7.2971   -1.3846    0.9871 H   0  0  0  0  0  0  0  0  0  0  0  0
   -0.4220   -1.0992    0.6005 H   0  0  0  0  0  0  0  0  0  0  0  0
   -1.6339   -2.3087    0.9390 H   0  0  0  0  0  0  0  0  0  0  0  0
   -3.6703   -1.6532    2.0606 H   0  0  0  0  0  0  0  0  0  0  0  0
   -5.0864    0.0828    3.0531 H   0  0  0  0  0  0  0  0  0  0  0  0
   -3.2829    3.4200    4.1612 H   0  0  0  0  0  0  0  0  0  0  0  0
   -4.6410    5.1498    5.2677 H   0  0  0  0  0  0  0  0  0  0  0  0
   -6.9975    5.5167    4.5776 H   0  0  0  0  0  0  0  0  0  0  0  0
   -7.9756    4.1672    2.7633 H   0  0  0  0  0  0  0  0  0  0  0  0
   -9.0419    0.9066   -0.2609 H   0  0  0  0  0  0  0  0  0  0  0  0
   -2.6495    3.1279    1.2155 H   0  0  0  0  0  0  0  0  0  0  0  0
   -1.2142    1.4030    0.2422 H   0  0  0  0  0  0  0  0  0  0  0  0
  1  2  1  0
  2  3  1  0
  3  4  1  0
  4  5  2  0
  5  6  1  0
  6  7  2  0
  7  8  1  0
  8  9  2  0
  9 10  1  0
 10 11  1  0
 11 12  2  0
 11 13  1  0
 13 14  1  0
 14 15  1  0
 14 16  1  0
 16 17  1  0
 17 18  2  0
 17 19  1  0
 19 20  1  0
 20 21  1  0
 21 22  1  0
 22 23  1  0
 23 24  1  0
 24 25  1  0
 10 26  2  0
 26 27  1  0
 27 28  1  0
 28 29  1  0
 29 30  2  0
 30 31  1  0
 31 32  2  0
 32 33  1  0
 33 34  2  0
 34 35  1  0
 35 36  2  0
 36 37  1  0
 37 38  2  0
 38 39  1  0
 39 40  1  0
 40 41  2  0
 41 42  1  0
 42 43  1  0
 32 44  1  0
 44 45  2  0
 27  4  1  0
 45 29  1  0
 26  6  1  0
 38 33  1  0
 43 39  2  0
 25 20  1  0
  1 46  1  0
  1 47  1  0
  1 48  1  0
  2 49  1  0
  2 50  1  0
  7 51  1  0
  8 52  1  0
  9 53  1  0
 14 54  1  0
 15 55  1  0
 15 56  1  0
 15 57  1  0
 20 58  1  0
 21 59  1  0
 21 60  1  0
 22 61  1  0
 22 62  1  0
 23 63  1  0
 23 64  1  0
 24 65  1  0
 24 66  1  0
 25 67  1  0
 25 68  1  0
 28 69  1  0
 28 70  1  0
 30 71  1  0
 31 72  1  0
 34 73  1  0
 35 74  1  0
 36 75  1  0
 37 76  1  0
 42 77  1  0
 44 78  1  0
 45 79  1  0
M  END
$$$$
