
     RDKit          3D

 62 63  0  0  0  0  0  0  0  0999 V2000
    7.6803    0.7404   -0.6564 C   0  0  0  0  0  0  0  0  0  0  0  0
    7.1259   -0.1358    0.4559 C   0  0  0  0  0  0  0  0  0  0  0  0
    5.8615   -0.9017    0.0586 C   0  0  0  0  0  0  0  0  0  0  0  0
    4.6655   -0.0424   -0.3654 C   0  0  0  0  0  0  0  0  0  0  0  0
    4.1873    0.9166    0.7296 C   0  0  0  0  0  0  0  0  0  0  0  0
    2.8968    1.6611    0.3515 C   0  0  2  0  0  0  0  0  0  0  0  0
    2.9810    2.9850    0.8935 O   0  0  0  0  0  0  0  0  0  0  0  0
    1.6040    1.0262    0.8927 C   0  0  0  0  0  0  0  0  0  0  0  0
    1.3116   -0.3707    0.3432 C   0  0  0  0  0  0  0  0  0  0  0  0
   -0.0624   -0.9589    0.7031 C   0  0  2  0  0  0  0  0  0  0  0  0
   -1.2725   -0.2611    0.0513 C   0  0  1  0  0  0  0  0  0  0  0  0
   -1.5137   -0.7099   -1.3957 C   0  0  0  0  0  0  0  0  0  0  0  0
   -2.8959   -0.3219   -1.8502 C   0  0  0  0  0  0  0  0  0  0  0  0
   -3.1276    0.2116   -3.1230 C   0  0  0  0  0  0  0  0  0  0  0  0
   -4.4268    0.5260   -3.5236 C   0  0  0  0  0  0  0  0  0  0  0  0
   -5.4982    0.3045   -2.6582 C   0  0  0  0  0  0  0  0  0  0  0  0
   -5.2708   -0.2222   -1.3857 C   0  0  0  0  0  0  0  0  0  0  0  0
   -6.3222   -0.4800   -0.5484 O   0  0  0  0  0  0  0  0  0  0  0  0
   -6.9312    0.7472   -0.0923 C   0  0  0  0  0  0  0  0  0  0  0  0
   -7.6865    0.4893    1.2250 C   0  0  0  0  0  0  0  0  0  0  0  0
   -8.9380    0.3298    1.1116 O   0  0  0  0  0  0  0  0  0  0  0  0
   -6.9785    0.5201    2.2753 O   0  0  0  0  0  1  0  0  0  0  0  0
   -3.9760   -0.5510   -0.9749 C   0  0  0  0  0  0  0  0  0  0  0  0
   -3.6874   -1.1806    0.3660 C   0  0  0  0  0  0  0  0  0  0  0  0
   -2.4641   -0.5265    1.0139 C   0  0  1  0  0  0  0  0  0  0  0  0
   -1.8891   -1.3465    2.1729 C   0  0  0  0  0  0  0  0  0  0  0  0
   -0.4166   -0.9586    2.1923 C   0  0  1  0  0  0  0  0  0  0  0  0
    0.3488   -1.9064    2.9134 O   0  0  0  0  0  0  0  0  0  0  0  0
    0.0000    0.0000    0.0000 Na  0  0  0  0  0 15  0  0  0  0  0  0
    8.6348    1.1795   -0.3478 H   0  0  0  0  0  0  0  0  0  0  0  0
    7.0002    1.5630   -0.8958 H   0  0  0  0  0  0  0  0  0  0  0  0
    7.8541    0.1576   -1.5665 H   0  0  0  0  0  0  0  0  0  0  0  0
    7.8942   -0.8657    0.7395 H   0  0  0  0  0  0  0  0  0  0  0  0
    6.9395    0.4754    1.3459 H   0  0  0  0  0  0  0  0  0  0  0  0
    6.1057   -1.5829   -0.7660 H   0  0  0  0  0  0  0  0  0  0  0  0
    5.5606   -1.5360    0.9017 H   0  0  0  0  0  0  0  0  0  0  0  0
    3.8566   -0.7201   -0.6549 H   0  0  0  0  0  0  0  0  0  0  0  0
    4.9169    0.5283   -1.2669 H   0  0  0  0  0  0  0  0  0  0  0  0
    4.9790    1.6512    0.9219 H   0  0  0  0  0  0  0  0  0  0  0  0
    4.0442    0.3728    1.6713 H   0  0  0  0  0  0  0  0  0  0  0  0
    2.8265    1.7791   -0.7354 H   0  0  0  0  0  0  0  0  0  0  0  0
    2.9612    2.9142    1.8633 H   0  0  0  0  0  0  0  0  0  0  0  0
    0.7761    1.7073    0.6642 H   0  0  0  0  0  0  0  0  0  0  0  0
    1.6581    0.9922    1.9881 H   0  0  0  0  0  0  0  0  0  0  0  0
    1.4117   -0.3586   -0.7488 H   0  0  0  0  0  0  0  0  0  0  0  0
    2.0754   -1.0604    0.7220 H   0  0  0  0  0  0  0  0  0  0  0  0
   -0.0350   -2.0065    0.3666 H   0  0  0  0  0  0  0  0  0  0  0  0
   -1.1182    0.8259    0.0384 H   0  0  0  0  0  0  0  0  0  0  0  0
   -1.4171   -1.7987   -1.4928 H   0  0  0  0  0  0  0  0  0  0  0  0
   -0.7530   -0.2613   -2.0456 H   0  0  0  0  0  0  0  0  0  0  0  0
   -2.3018    0.3804   -3.8084 H   0  0  0  0  0  0  0  0  0  0  0  0
   -4.6093    0.9353   -4.5127 H   0  0  0  0  0  0  0  0  0  0  0  0
   -6.5123    0.5283   -2.9754 H   0  0  0  0  0  0  0  0  0  0  0  0
   -6.1760    1.5241    0.0901 H   0  0  0  0  0  0  0  0  0  0  0  0
   -7.6343    1.1062   -0.8529 H   0  0  0  0  0  0  0  0  0  0  0  0
   -4.5376   -1.0914    1.0507 H   0  0  0  0  0  0  0  0  0  0  0  0
   -3.5197   -2.2530    0.2049 H   0  0  0  0  0  0  0  0  0  0  0  0
   -2.7766    0.4508    1.4110 H   0  0  0  0  0  0  0  0  0  0  0  0
   -2.3822   -1.1209    3.1242 H   0  0  0  0  0  0  0  0  0  0  0  0
   -1.9992   -2.4253    2.0054 H   0  0  0  0  0  0  0  0  0  0  0  0
   -0.2980    0.0270    2.6552 H   0  0  0  0  0  0  0  0  0  0  0  0
    1.2703   -1.6010    2.9104 H   0  0  0  0  0  0  0  0  0  0  0  0
  1  2  1  0
  2  3  1  0
  3  4  1  0
  4  5  1  0
  5  6  1  0
  6  7  1  0
  6  8  1  0
  8  9  1  0
  9 10  1  0
 10 11  1  0
 11 12  1  0
 12 13  1  0
 13 14  2  0
 14 15  1  0
 15 16  2  0
 16 17  1  0
 17 18  1  0
 18 19  1  0
 19 20  1  0
 20 21  2  0
 20 22  1  0
 17 23  2  0
 23 24  1  0
 24 25  1  0
 25 26  1  0
 26 27  1  0
 27 28  1  0
 27 10  1  0
 25 11  1  0
 23 13  1  0
  1 30  1  0
  1 31  1  0
  1 32  1  0
  2 33  1  0
  2 34  1  0
  3 35  1  0
  3 36  1  0
  4 37  1  0
  4 38  1  0
  5 39  1  0
  5 40  1  0
  6 41  1  6
  7 42  1  0
  8 43  1  0
  8 44  1  0
  9 45  1  0
  9 46  1  0
 10 47  1  6
 11 48  1  6
 12 49  1  0
 12 50  1  0
 14 51  1  0
 15 52  1  0
 16 53  1  0
 19 54  1  0
 19 55  1  0
 24 56  1  0
 24 57  1  0
 25 58  1  1
 26 59  1  0
 26 60  1  0
 27 61  1  1
 28 62  1  0
M  CHG  2  22  -1  29   1
M  END
$$$$
