
     RDKit          3D

 36 38  0  0  0  0  0  0  0  0999 V2000
   -2.2591   -0.5817   -1.7394 C   0  0  0  0  0  0  0  0  0  0  0  0
   -1.7764   -0.0449   -0.3727 C   0  0  1  0  0  0  0  0  0  0  0  0
   -0.4326   -0.7323   -0.0341 C   0  0  0  0  0  0  0  0  0  0  0  0
    0.8015   -0.0466   -0.0017 C   0  0  0  0  0  0  0  0  0  0  0  0
    2.0213   -0.6951    0.2988 C   0  0  0  0  0  0  0  0  0  0  0  0
    3.2859    0.0523    0.3293 C   0  0  0  0  0  0  0  0  0  0  0  0
    3.4315    1.2724    0.9718 C   0  0  0  0  0  0  0  0  0  0  0  0
    4.5714    1.9968    1.0027 N   0  0  0  0  0  0  0  0  0  0  0  0
    5.6185    1.4570    0.3641 C   0  0  0  0  0  0  0  0  0  0  0  0
    5.6193    0.2876   -0.2897 N   0  0  0  0  0  0  0  0  0  0  0  0
    4.4486   -0.3880   -0.2845 C   0  0  0  0  0  0  0  0  0  0  0  0
    1.9766   -2.0715    0.5598 C   0  0  0  0  0  0  0  0  0  0  0  0
    3.1022   -2.7397    0.8524 F   0  0  0  0  0  0  0  0  0  0  0  0
    0.7850   -2.7805    0.5328 C   0  0  0  0  0  0  0  0  0  0  0  0
   -0.3959   -2.1117    0.2390 C   0  0  0  0  0  0  0  0  0  0  0  0
   -1.5308   -2.8268    0.2226 F   0  0  0  0  0  0  0  0  0  0  0  0
   -1.6605    1.4990   -0.4176 C   0  0  0  0  0  0  0  0  0  0  0  0
   -2.9850    2.2157   -0.6313 C   0  0  0  0  0  0  0  0  0  0  0  0
   -4.1508    1.8876    0.6994 S   0  0  0  0  0  0  0  0  0  0  0  0
   -3.9226    0.1858    0.9053 C   0  0  0  0  0  0  0  0  0  0  0  0
   -4.9205   -0.4907    1.3543 N   0  0  0  0  0  0  0  0  0  0  0  0
   -2.7398   -0.4170    0.6520 N   0  0  0  0  0  0  0  0  0  0  0  0
   -2.3427   -1.6744   -1.7497 H   0  0  0  0  0  0  0  0  0  0  0  0
   -1.5643   -0.3007   -2.5394 H   0  0  0  0  0  0  0  0  0  0  0  0
   -3.2517   -0.2043   -2.0055 H   0  0  0  0  0  0  0  0  0  0  0  0
    0.8395    1.0175   -0.2271 H   0  0  0  0  0  0  0  0  0  0  0  0
    2.6059    1.7266    1.5148 H   0  0  0  0  0  0  0  0  0  0  0  0
    6.5476    2.0161    0.3773 H   0  0  0  0  0  0  0  0  0  0  0  0
    4.4803   -1.3327   -0.8228 H   0  0  0  0  0  0  0  0  0  0  0  0
    0.7748   -3.8442    0.7428 H   0  0  0  0  0  0  0  0  0  0  0  0
   -0.9889    1.7989   -1.2330 H   0  0  0  0  0  0  0  0  0  0  0  0
   -1.2095    1.8740    0.5123 H   0  0  0  0  0  0  0  0  0  0  0  0
   -3.4411    1.9447   -1.5876 H   0  0  0  0  0  0  0  0  0  0  0  0
   -2.8109    3.2966   -0.6650 H   0  0  0  0  0  0  0  0  0  0  0  0
   -5.6864    0.1784    1.4969 H   0  0  0  0  0  0  0  0  0  0  0  0
   -2.8407   -1.4241    0.7705 H   0  0  0  0  0  0  0  0  0  0  0  0
  2  1  1  6
  2  3  1  0
  3  4  2  0
  4  5  1  0
  5  6  1  0
  6  7  2  0
  7  8  1  0
  8  9  2  0
  9 10  1  0
 10 11  2  0
  5 12  2  0
 12 13  1  0
 12 14  1  0
 14 15  2  0
 15 16  1  0
  2 17  1  0
 17 18  1  0
 18 19  1  0
 19 20  1  0
 20 21  2  3
 20 22  1  0
 22  2  1  0
 15  3  1  0
 11  6  1  0
  1 23  1  0
  1 24  1  0
  1 25  1  0
  4 26  1  0
  7 27  1  0
  9 28  1  0
 11 29  1  0
 14 30  1  0
 17 31  1  0
 17 32  1  0
 18 33  1  0
 18 34  1  0
 21 35  1  0
 22 36  1  0
M  END
$$$$
