
     RDKit          3D

 55 54  0  0  0  0  0  0  0  0999 V2000
    3.9418   -2.9177    0.0088 C   0  0  0  0  0  0  0  0  0  0  0  0
    3.3742   -1.9046    0.8294 O   0  0  0  0  0  0  0  0  0  0  0  0
    3.8963   -0.5947    0.5492 C   0  0  0  0  0  0  0  0  0  0  0  0
    3.3063    0.0145   -0.7273 C   0  0  0  0  0  0  0  0  0  0  0  0
    1.7770   -0.0570   -0.8232 C   0  0  0  0  0  0  0  0  0  0  0  0
    1.0583    0.5877    0.3612 C   0  0  0  0  0  0  0  0  0  0  0  0
   -0.4335    0.7172    0.0510 C   0  0  0  0  0  0  0  0  0  0  0  0
   -0.9742    1.8161   -0.4057 N   0  0  0  0  0  0  0  0  0  0  0  0
   -0.0512    2.8621   -0.5108 O   0  0  0  0  0  0  0  0  0  0  0  0
   -0.6396    3.9550   -1.2265 C   0  0  0  0  0  0  0  0  0  0  0  0
   -1.7525    4.6455   -0.4268 C   0  0  0  0  0  0  0  0  0  0  0  0
   -1.3727    4.9765    0.9581 N   0  0  0  0  0  0  0  0  0  0  0  0
   -1.3194   -0.4891    0.2214 C   0  0  0  0  0  0  0  0  0  0  0  0
   -2.6340   -0.4307   -0.2684 C   0  0  0  0  0  0  0  0  0  0  0  0
   -3.4924   -1.5279   -0.1509 C   0  0  0  0  0  0  0  0  0  0  0  0
   -3.0520   -2.7147    0.4550 C   0  0  0  0  0  0  0  0  0  0  0  0
   -3.9787   -3.9018    0.5715 C   0  0  0  0  0  0  0  0  0  0  0  0
   -4.9781   -3.7029    1.4796 F   0  0  0  0  0  0  0  0  0  0  0  0
   -3.3465   -5.0492    0.9572 F   0  0  0  0  0  0  0  0  0  0  0  0
   -4.5943   -4.1940   -0.6062 F   0  0  0  0  0  0  0  0  0  0  0  0
   -1.7433   -2.7659    0.9574 C   0  0  0  0  0  0  0  0  0  0  0  0
   -0.8823   -1.6671    0.8375 C   0  0  0  0  0  0  0  0  0  0  0  0
   -2.7114   -0.2268    0.4157 O   0  0  0  0  0  0  0  0  0  0  0  0
   -1.5536    0.1012    0.6121 C   0  0  0  0  0  0  0  0  0  0  0  0
   -1.1728    1.3780    0.7528 O   0  0  0  0  0  0  0  0  0  0  0  0
   -0.4498   -0.8366    0.8439 C   0  0  0  0  0  0  0  0  0  0  0  0
    0.7162   -0.8337    0.1821 C   0  0  0  0  0  0  0  0  0  0  0  0
    1.0619    0.0981   -0.8980 C   0  0  0  0  0  0  0  0  0  0  0  0
    0.3342    0.8252   -1.5411 O   0  0  0  0  0  0  0  0  0  0  0  0
    2.3849    0.0391   -1.1163 O   0  0  0  0  0  0  0  0  0  0  0  0
    3.5587   -3.8896    0.3642 H   0  0  0  0  0  0  0  0  0  0  0  0
    5.0399   -2.9147    0.0939 H   0  0  0  0  0  0  0  0  0  0  0  0
    3.6343   -2.8019   -1.0346 H   0  0  0  0  0  0  0  0  0  0  0  0
    4.9935   -0.6117    0.5030 H   0  0  0  0  0  0  0  0  0  0  0  0
    3.6377    0.0345    1.4131 H   0  0  0  0  0  0  0  0  0  0  0  0
    3.6319    1.0658   -0.7884 H   0  0  0  0  0  0  0  0  0  0  0  0
    3.7210   -0.4878   -1.6036 H   0  0  0  0  0  0  0  0  0  0  0  0
    1.4523   -1.0986   -0.9432 H   0  0  0  0  0  0  0  0  0  0  0  0
    1.4762    0.4582   -1.7497 H   0  0  0  0  0  0  0  0  0  0  0  0
    1.2143    0.0369    1.2943 H   0  0  0  0  0  0  0  0  0  0  0  0
    1.4960    1.5804    0.5461 H   0  0  0  0  0  0  0  0  0  0  0  0
   -1.0126    3.6041   -2.1953 H   0  0  0  0  0  0  0  0  0  0  0  0
    0.1645    4.6748   -1.4240 H   0  0  0  0  0  0  0  0  0  0  0  0
   -2.0496    5.5678   -0.9486 H   0  0  0  0  0  0  0  0  0  0  0  0
   -2.6391    3.9978   -0.3981 H   0  0  0  0  0  0  0  0  0  0  0  0
   -0.4719    5.4584    0.9561 H   0  0  0  0  0  0  0  0  0  0  0  0
   -1.1836    4.0877    1.4253 H   0  0  0  0  0  0  0  0  0  0  0  0
   -3.0071    0.4719   -0.7504 H   0  0  0  0  0  0  0  0  0  0  0  0
   -4.5054   -1.4524   -0.5458 H   0  0  0  0  0  0  0  0  0  0  0  0
   -1.3804   -3.6720    1.4449 H   0  0  0  0  0  0  0  0  0  0  0  0
    0.1199   -1.7669    1.2493 H   0  0  0  0  0  0  0  0  0  0  0  0
   -1.9790    1.8849    0.5250 H   0  0  0  0  0  0  0  0  0  0  0  0
   -0.6551   -1.5980    1.5823 H   0  0  0  0  0  0  0  0  0  0  0  0
    1.4773   -1.5698    0.4295 H   0  0  0  0  0  0  0  0  0  0  0  0
    2.5472    0.7384   -1.7878 H   0  0  0  0  0  0  0  0  0  0  0  0
  1  2  1  0
  2  3  1  0
  3  4  1  0
  4  5  1  0
  5  6  1  0
  6  7  1  0
  7  8  2  0
  8  9  1  0
  9 10  1  0
 10 11  1  0
 11 12  1  0
  7 13  1  0
 13 14  2  0
 14 15  1  0
 15 16  2  0
 16 17  1  0
 17 18  1  0
 17 19  1  0
 17 20  1  0
 16 21  1  0
 21 22  2  0
 23 24  2  0
 24 25  1  0
 24 26  1  0
 26 27  2  0
 27 28  1  0
 28 29  2  0
 28 30  1  0
 22 13  1  0
  1 31  1  0
  1 32  1  0
  1 33  1  0
  3 34  1  0
  3 35  1  0
  4 36  1  0
  4 37  1  0
  5 38  1  0
  5 39  1  0
  6 40  1  0
  6 41  1  0
 10 42  1  0
 10 43  1  0
 11 44  1  0
 11 45  1  0
 12 46  1  0
 12 47  1  0
 14 48  1  0
 15 49  1  0
 21 50  1  0
 22 51  1  0
 25 52  1  0
 26 53  1  0
 27 54  1  0
 30 55  1  0
M  END
$$$$
