
     RDKit          3D

 65 68  0  0  0  0  0  0  0  0999 V2000
    5.8614   -2.6243    1.8842 C   0  0  0  0  0  0  0  0  0  0  0  0
    6.4710   -1.2478    1.8560 C   0  0  0  0  0  0  0  0  0  0  0  0
    7.6906   -1.0495    2.5292 C   0  0  0  0  0  0  0  0  0  0  0  0
    8.3064    0.1993    2.5399 C   0  0  0  0  0  0  0  0  0  0  0  0
    7.7104    1.2649    1.8782 C   0  0  0  0  0  0  0  0  0  0  0  0
    6.4990    1.0844    1.2049 C   0  0  0  0  0  0  0  0  0  0  0  0
    5.8649   -0.1633    1.1817 C   0  0  0  0  0  0  0  0  0  0  0  0
    4.6365   -0.3788    0.5123 N   0  0  0  0  0  0  0  0  0  0  0  0
    3.8963    0.5260   -0.2334 C   0  0  0  0  0  0  0  0  0  0  0  0
    4.1892    1.6928   -0.4689 O   0  0  0  0  0  0  0  0  0  0  0  0
    2.6102   -0.0990   -0.7757 C   0  0  0  0  0  0  0  0  0  0  0  0
    1.6590   -0.4742    0.3752 C   0  0  0  0  0  0  0  0  0  0  0  0
    0.1901   -0.1956    0.0550 C   0  0  0  0  0  0  0  0  0  0  0  0
   -0.0698   -0.6047   -1.3357 N   0  0  0  0  0  0  0  0  0  0  0  0
   -1.6540   -1.0605   -1.7388 S   0  0  0  0  0  6  0  0  0  0  0  0
   -1.6373   -1.5444   -3.1041 O   0  0  0  0  0  0  0  0  0  0  0  0
   -2.2035   -1.8739   -0.6762 O   0  0  0  0  0  0  0  0  0  0  0  0
   -2.6696    0.3537   -1.7925 C   0  0  0  0  0  0  0  0  0  0  0  0
   -3.0253    1.0986   -2.9114 C   0  0  0  0  0  0  0  0  0  0  0  0
   -2.6975    0.9383   -4.3532 C   0  0  0  0  0  0  0  0  0  0  0  0
   -3.8396    2.1188   -2.4814 N   0  0  0  0  0  0  0  0  0  0  0  0
   -4.0195    2.0437   -1.1232 C   0  0  0  0  0  0  0  0  0  0  0  0
   -4.8547    3.0342   -0.3952 C   0  0  0  0  0  0  0  0  0  0  0  0
   -3.3145    0.9395   -0.6616 C   0  0  0  0  0  0  0  0  0  0  0  0
   -3.2550    0.5082    0.7275 C   0  0  0  0  0  0  0  0  0  0  0  0
   -2.3145    0.8333    1.4468 O   0  0  0  0  0  0  0  0  0  0  0  0
   -4.3231   -0.2390    1.1775 N   0  0  0  0  0  0  0  0  0  0  0  0
   -5.4207   -0.7640    0.3787 C   0  0  0  0  0  0  0  0  0  0  0  0
   -6.0419   -1.8455    1.2533 C   0  0  0  0  0  0  0  0  0  0  0  0
   -5.7456   -1.3588    2.6666 C   0  0  0  0  0  0  0  0  0  0  0  0
   -4.3551   -0.7585    2.5293 C   0  0  0  0  0  0  0  0  0  0  0  0
    0.6586    0.1877   -2.3539 C   0  0  0  0  0  0  0  0  0  0  0  0
    1.9196    0.8286   -1.7785 C   0  0  0  0  0  0  0  0  0  0  0  0
    6.4819   -3.3313    2.4454 H   0  0  0  0  0  0  0  0  0  0  0  0
    4.8797   -2.5949    2.3676 H   0  0  0  0  0  0  0  0  0  0  0  0
    5.7603   -3.0157    0.8667 H   0  0  0  0  0  0  0  0  0  0  0  0
    8.1713   -1.8733    3.0529 H   0  0  0  0  0  0  0  0  0  0  0  0
    9.2483    0.3400    3.0634 H   0  0  0  0  0  0  0  0  0  0  0  0
    8.1832    2.2437    1.8817 H   0  0  0  0  0  0  0  0  0  0  0  0
    6.0746    1.9505    0.7075 H   0  0  0  0  0  0  0  0  0  0  0  0
    4.2611   -1.3152    0.5685 H   0  0  0  0  0  0  0  0  0  0  0  0
    2.8998   -1.0136   -1.3125 H   0  0  0  0  0  0  0  0  0  0  0  0
    1.9204    0.0482    1.3037 H   0  0  0  0  0  0  0  0  0  0  0  0
    1.7825   -1.5449    0.5860 H   0  0  0  0  0  0  0  0  0  0  0  0
   -0.0364    0.8683    0.1821 H   0  0  0  0  0  0  0  0  0  0  0  0
   -0.4194   -0.7673    0.7602 H   0  0  0  0  0  0  0  0  0  0  0  0
   -3.0171    1.8093   -4.9349 H   0  0  0  0  0  0  0  0  0  0  0  0
   -1.6205    0.8223   -4.5012 H   0  0  0  0  0  0  0  0  0  0  0  0
   -3.2043    0.0590   -4.7624 H   0  0  0  0  0  0  0  0  0  0  0  0
   -4.2508    2.8240   -3.0813 H   0  0  0  0  0  0  0  0  0  0  0  0
   -5.9039    2.7219   -0.4028 H   0  0  0  0  0  0  0  0  0  0  0  0
   -4.5324    3.1314    0.6464 H   0  0  0  0  0  0  0  0  0  0  0  0
   -4.7857    4.0239   -0.8588 H   0  0  0  0  0  0  0  0  0  0  0  0
   -6.1271    0.0541    0.2009 H   0  0  0  0  0  0  0  0  0  0  0  0
   -5.0736   -1.1559   -0.5811 H   0  0  0  0  0  0  0  0  0  0  0  0
   -5.5370   -2.8035    1.0791 H   0  0  0  0  0  0  0  0  0  0  0  0
   -7.1096   -1.9808    1.0613 H   0  0  0  0  0  0  0  0  0  0  0  0
   -6.4658   -0.5813    2.9488 H   0  0  0  0  0  0  0  0  0  0  0  0
   -5.7894   -2.1566    3.4130 H   0  0  0  0  0  0  0  0  0  0  0  0
   -4.1560    0.0334    3.2576 H   0  0  0  0  0  0  0  0  0  0  0  0
   -3.5774   -1.5260    2.6163 H   0  0  0  0  0  0  0  0  0  0  0  0
    0.9413   -0.4881   -3.1694 H   0  0  0  0  0  0  0  0  0  0  0  0
    0.0255    0.9779   -2.7669 H   0  0  0  0  0  0  0  0  0  0  0  0
    1.6553    1.7750   -1.2872 H   0  0  0  0  0  0  0  0  0  0  0  0
    2.5993    1.0952   -2.5971 H   0  0  0  0  0  0  0  0  0  0  0  0
  1  2  1  0
  2  3  2  0
  3  4  1  0
  4  5  2  0
  5  6  1  0
  6  7  2  0
  7  8  1  0
  8  9  1  0
  9 10  2  0
  9 11  1  0
 11 12  1  0
 12 13  1  0
 13 14  1  0
 14 15  1  0
 15 16  2  0
 15 17  2  0
 15 18  1  0
 18 19  2  0
 19 20  1  0
 19 21  1  0
 21 22  1  0
 22 23  1  0
 22 24  2  0
 24 25  1  0
 25 26  2  0
 25 27  1  0
 27 28  1  0
 28 29  1  0
 29 30  1  0
 30 31  1  0
 14 32  1  0
 32 33  1  0
  7  2  1  0
 33 11  1  0
 24 18  1  0
 31 27  1  0
  1 34  1  0
  1 35  1  0
  1 36  1  0
  3 37  1  0
  4 38  1  0
  5 39  1  0
  6 40  1  0
  8 41  1  0
 11 42  1  0
 12 43  1  0
 12 44  1  0
 13 45  1  0
 13 46  1  0
 20 47  1  0
 20 48  1  0
 20 49  1  0
 21 50  1  0
 23 51  1  0
 23 52  1  0
 23 53  1  0
 28 54  1  0
 28 55  1  0
 29 56  1  0
 29 57  1  0
 30 58  1  0
 30 59  1  0
 31 60  1  0
 31 61  1  0
 32 62  1  0
 32 63  1  0
 33 64  1  0
 33 65  1  0
M  END
$$$$
