
     RDKit          3D

 62 66  0  0  0  0  0  0  0  0999 V2000
   -0.7777   -2.8655    0.8629 C   0  0  0  0  0  0  0  0  0  0  0  0
   -0.3819   -2.1974   -0.3485 N   0  0  0  0  0  0  0  0  0  0  0  0
    0.3409   -2.7522   -1.3594 C   0  0  0  0  0  0  0  0  0  0  0  0
    0.5288   -1.8625   -2.3055 N   0  0  0  0  0  0  0  0  0  0  0  0
   -0.0927   -0.7033   -1.9121 N   0  0  0  0  0  0  0  0  0  0  0  0
   -0.6321   -0.9013   -0.7228 C   0  0  0  0  0  0  0  0  0  0  0  0
   -1.3615    0.1032    0.0995 C   0  0  0  0  0  0  0  0  0  0  0  0
   -2.3823    0.9001   -0.7265 C   0  0  0  0  0  0  0  0  0  0  0  0
   -2.6391    2.1374    0.0433 N   0  0  0  0  0  0  0  0  0  0  0  0
   -3.5745    1.9499    1.1656 C   0  0  0  0  0  0  0  0  0  0  0  0
   -4.9841    1.6147    0.7255 C   0  0  0  0  0  0  0  0  0  0  0  0
   -5.6133    0.4433    1.1730 C   0  0  0  0  0  0  0  0  0  0  0  0
   -6.9214    0.1470    0.7810 C   0  0  0  0  0  0  0  0  0  0  0  0
   -7.6103    1.0152   -0.0637 C   0  0  0  0  0  0  0  0  0  0  0  0
   -6.9948    2.1807   -0.5169 C   0  0  0  0  0  0  0  0  0  0  0  0
   -5.6902    2.4808   -0.1223 C   0  0  0  0  0  0  0  0  0  0  0  0
   -1.2962    2.5184    0.5231 C   0  0  0  0  0  0  0  0  0  0  0  0
   -0.5037    1.2215    0.7214 C   0  0  0  0  0  0  0  0  0  0  0  0
   -0.0499    0.9335    2.1797 C   0  0  0  0  0  0  0  0  0  0  0  0
    1.2479    0.5934    1.6102 N   0  0  0  0  0  0  0  0  0  0  0  0
    1.9502   -0.5682    1.8139 C   0  0  0  0  0  0  0  0  0  0  0  0
    1.7062   -1.3378    2.7398 O   0  0  0  0  0  0  0  0  0  0  0  0
    2.9064   -0.8078    0.8702 N   0  0  0  0  0  0  0  0  0  0  0  0
    3.8041   -1.9464    0.9267 C   0  0  0  0  0  0  0  0  0  0  0  0
    4.2832   -2.3738   -0.4655 C   0  0  0  0  0  0  0  0  0  0  0  0
    5.0287   -1.2795   -1.1950 C   0  0  0  0  0  0  0  0  0  0  0  0
    4.4020   -0.5718   -2.2316 C   0  0  0  0  0  0  0  0  0  0  0  0
    5.0720    0.4664   -2.8807 C   0  0  0  0  0  0  0  0  0  0  0  0
    6.3728    0.8074   -2.5010 C   0  0  0  0  0  0  0  0  0  0  0  0
    7.0061    0.1075   -1.4734 C   0  0  0  0  0  0  0  0  0  0  0  0
    6.3369   -0.9315   -0.8226 C   0  0  0  0  0  0  0  0  0  0  0  0
    1.0121    1.3592    0.3934 C   0  0  0  0  0  0  0  0  0  0  0  0
   -0.5889   -2.2110    1.7171 H   0  0  0  0  0  0  0  0  0  0  0  0
   -1.8467   -3.0951    0.7960 H   0  0  0  0  0  0  0  0  0  0  0  0
   -0.1992   -3.7844    0.9763 H   0  0  0  0  0  0  0  0  0  0  0  0
    0.7008   -3.7713   -1.3591 H   0  0  0  0  0  0  0  0  0  0  0  0
   -1.9214   -0.4098    0.8923 H   0  0  0  0  0  0  0  0  0  0  0  0
   -3.2840    0.3184   -0.9460 H   0  0  0  0  0  0  0  0  0  0  0  0
   -1.9652    1.1898   -1.6998 H   0  0  0  0  0  0  0  0  0  0  0  0
   -3.2147    1.1942    1.8747 H   0  0  0  0  0  0  0  0  0  0  0  0
   -3.6411    2.8864    1.7354 H   0  0  0  0  0  0  0  0  0  0  0  0
   -5.0925   -0.2461    1.8320 H   0  0  0  0  0  0  0  0  0  0  0  0
   -7.4053   -0.7598    1.1347 H   0  0  0  0  0  0  0  0  0  0  0  0
   -8.6294    0.7860   -0.3693 H   0  0  0  0  0  0  0  0  0  0  0  0
   -7.5327    2.8568   -1.1770 H   0  0  0  0  0  0  0  0  0  0  0  0
   -5.2141    3.3898   -0.4858 H   0  0  0  0  0  0  0  0  0  0  0  0
   -1.3238    3.1495    1.4197 H   0  0  0  0  0  0  0  0  0  0  0  0
   -0.8294    3.1236   -0.2660 H   0  0  0  0  0  0  0  0  0  0  0  0
   -0.5570    0.1131    2.6949 H   0  0  0  0  0  0  0  0  0  0  0  0
    0.0186    1.7975    2.8510 H   0  0  0  0  0  0  0  0  0  0  0  0
    3.2319    0.0026    0.3593 H   0  0  0  0  0  0  0  0  0  0  0  0
    4.6479   -1.6644    1.5685 H   0  0  0  0  0  0  0  0  0  0  0  0
    3.2898   -2.7867    1.4064 H   0  0  0  0  0  0  0  0  0  0  0  0
    3.4197   -2.6915   -1.0614 H   0  0  0  0  0  0  0  0  0  0  0  0
    4.9325   -3.2516   -0.3828 H   0  0  0  0  0  0  0  0  0  0  0  0
    3.3827   -0.8194   -2.5399 H   0  0  0  0  0  0  0  0  0  0  0  0
    4.5729    1.0052   -3.6832 H   0  0  0  0  0  0  0  0  0  0  0  0
    6.8943    1.6156   -3.0084 H   0  0  0  0  0  0  0  0  0  0  0  0
    8.0226    0.3687   -1.1789 H   0  0  0  0  0  0  0  0  0  0  0  0
    6.8438   -1.4657   -0.0225 H   0  0  0  0  0  0  0  0  0  0  0  0
    1.4301    2.3700    0.4744 H   0  0  0  0  0  0  0  0  0  0  0  0
    1.3650    0.9087   -0.5345 H   0  0  0  0  0  0  0  0  0  0  0  0
  1  2  1  0
  2  3  1  0
  3  4  2  0
  4  5  1  0
  5  6  2  0
  6  7  1  0
  7  8  1  0
  8  9  1  0
  9 10  1  0
 10 11  1  0
 11 12  2  0
 12 13  1  0
 13 14  2  0
 14 15  1  0
 15 16  2  0
  9 17  1  0
 17 18  1  0
 18 19  1  0
 19 20  1  0
 20 21  1  0
 21 22  2  0
 21 23  1  0
 23 24  1  0
 24 25  1  0
 25 26  1  0
 26 27  2  0
 27 28  1  0
 28 29  2  0
 29 30  1  0
 30 31  2  0
 20 32  1  0
  6  2  1  0
 18  7  1  0
 31 26  1  0
 16 11  1  0
 32 18  1  0
  1 33  1  0
  1 34  1  0
  1 35  1  0
  3 36  1  0
  7 37  1  0
  8 38  1  0
  8 39  1  0
 10 40  1  0
 10 41  1  0
 12 42  1  0
 13 43  1  0
 14 44  1  0
 15 45  1  0
 16 46  1  0
 17 47  1  0
 17 48  1  0
 19 49  1  0
 19 50  1  0
 23 51  1  0
 24 52  1  0
 24 53  1  0
 25 54  1  0
 25 55  1  0
 27 56  1  0
 28 57  1  0
 29 58  1  0
 30 59  1  0
 31 60  1  0
 32 61  1  0
 32 62  1  0
M  END
$$$$
