
     RDKit          3D

 48 50  0  0  0  0  0  0  0  0999 V2000
   -7.7592    1.5903    0.7509 C   0  0  0  0  0  0  0  0  0  0  0  0
   -7.0082    0.5473    1.3587 O   0  0  0  0  0  0  0  0  0  0  0  0
   -6.0372   -0.0398    0.5951 C   0  0  0  0  0  0  0  0  0  0  0  0
   -5.6946    0.3118   -0.7102 C   0  0  0  0  0  0  0  0  0  0  0  0
   -4.6748   -0.3741   -1.3795 C   0  0  0  0  0  0  0  0  0  0  0  0
   -3.9899   -1.4256   -0.7556 C   0  0  0  0  0  0  0  0  0  0  0  0
   -2.8703   -2.1444   -1.4711 C   0  0  0  0  0  0  0  0  0  0  0  0
   -1.5996   -1.5042   -1.2325 N   0  0  0  0  0  0  0  0  0  0  0  0
   -1.0844   -0.5063   -1.9967 C   0  0  0  0  0  0  0  0  0  0  0  0
   -1.5438   -0.0394   -3.0257 O   0  0  0  0  0  0  0  0  0  0  0  0
    0.1040   -0.0928   -1.4369 N   0  0  0  0  0  0  0  0  0  0  0  0
    0.4884   -0.9186   -0.3185 C   0  0  1  0  0  0  0  0  0  0  0  0
    0.6839   -0.1333    0.9765 C   0  0  0  0  0  0  0  0  0  0  0  0
    1.7236    0.9849    0.8947 C   0  0  0  0  0  0  0  0  0  0  0  0
    3.1404    0.4898    0.6567 C   0  0  0  0  0  0  0  0  0  0  0  0
    3.3973   -0.6980    0.4977 O   0  0  0  0  0  0  0  0  0  0  0  0
    4.0455    1.5369    0.6330 N   0  0  0  0  0  0  0  0  0  0  0  0
    5.4060    1.4077    0.4214 C   0  0  0  0  0  0  0  0  0  0  0  0
    6.3646    2.4464    0.3997 C   0  0  0  0  0  0  0  0  0  0  0  0
    7.6024    2.0007    0.1690 N   0  0  0  0  0  0  0  0  0  0  0  0
    7.4355    0.6701    0.0443 N   0  0  0  0  0  0  0  0  0  0  0  0
    8.5791   -0.1699   -0.2145 C   0  0  0  0  0  0  0  0  0  0  0  0
    6.1389    0.2700    0.1861 C   0  0  0  0  0  0  0  0  0  0  0  0
   -0.7423   -1.8270   -0.2193 C   0  0  0  0  0  0  0  0  0  0  0  0
   -0.9092   -2.6978    0.6241 O   0  0  0  0  0  0  0  0  0  0  0  0
   -4.3288   -1.7652    0.5596 C   0  0  0  0  0  0  0  0  0  0  0  0
   -5.3470   -1.0779    1.2246 C   0  0  0  0  0  0  0  0  0  0  0  0
   -8.4978    1.9387    1.4794 H   0  0  0  0  0  0  0  0  0  0  0  0
   -7.1182    2.4403    0.4948 H   0  0  0  0  0  0  0  0  0  0  0  0
   -8.3039    1.2263   -0.1266 H   0  0  0  0  0  0  0  0  0  0  0  0
   -6.1951    1.1172   -1.2369 H   0  0  0  0  0  0  0  0  0  0  0  0
   -4.4119   -0.0753   -2.3937 H   0  0  0  0  0  0  0  0  0  0  0  0
   -2.8226   -3.1861   -1.1320 H   0  0  0  0  0  0  0  0  0  0  0  0
   -3.0711   -2.1622   -2.5489 H   0  0  0  0  0  0  0  0  0  0  0  0
    0.7280    0.4879   -1.9817 H   0  0  0  0  0  0  0  0  0  0  0  0
    1.3505   -1.5223   -0.6124 H   0  0  0  0  0  0  0  0  0  0  0  0
   -0.2716    0.3164    1.2787 H   0  0  0  0  0  0  0  0  0  0  0  0
    0.9566   -0.8311    1.7786 H   0  0  0  0  0  0  0  0  0  0  0  0
    1.7190    1.5325    1.8454 H   0  0  0  0  0  0  0  0  0  0  0  0
    1.4619    1.6955    0.1025 H   0  0  0  0  0  0  0  0  0  0  0  0
    3.7075    2.4773    0.7947 H   0  0  0  0  0  0  0  0  0  0  0  0
    6.2156    3.5082    0.5420 H   0  0  0  0  0  0  0  0  0  0  0  0
    9.2754   -0.0702    0.6218 H   0  0  0  0  0  0  0  0  0  0  0  0
    8.2545   -1.2090   -0.3088 H   0  0  0  0  0  0  0  0  0  0  0  0
    9.0465    0.1609   -1.1455 H   0  0  0  0  0  0  0  0  0  0  0  0
    5.8576   -0.7713    0.1109 H   0  0  0  0  0  0  0  0  0  0  0  0
   -3.7985   -2.5624    1.0782 H   0  0  0  0  0  0  0  0  0  0  0  0
   -5.6026   -1.3529    2.2451 H   0  0  0  0  0  0  0  0  0  0  0  0
  1  2  1  0
  2  3  1  0
  3  4  2  0
  4  5  1  0
  5  6  2  0
  6  7  1  0
  7  8  1  0
  8  9  1  0
  9 10  2  0
  9 11  1  0
 11 12  1  0
 12 13  1  0
 13 14  1  0
 14 15  1  0
 15 16  2  0
 15 17  1  0
 17 18  1  0
 18 19  1  0
 19 20  2  0
 20 21  1  0
 21 22  1  0
 21 23  1  0
 12 24  1  0
 24 25  2  0
  6 26  1  0
 26 27  2  0
 27  3  1  0
 24  8  1  0
 23 18  2  0
  1 28  1  0
  1 29  1  0
  1 30  1  0
  4 31  1  0
  5 32  1  0
  7 33  1  0
  7 34  1  0
 11 35  1  0
 12 36  1  6
 13 37  1  0
 13 38  1  0
 14 39  1  0
 14 40  1  0
 17 41  1  0
 19 42  1  0
 22 43  1  0
 22 44  1  0
 22 45  1  0
 23 46  1  0
 26 47  1  0
 27 48  1  0
M  END
$$$$
