
     RDKit          3D

 53 55  0  0  0  0  0  0  0  0999 V2000
    6.6558    2.9943   -0.5861 C   0  0  0  0  0  0  0  0  0  0  0  0
    6.4548    1.5735   -1.0849 C   0  0  0  0  0  0  0  0  0  0  0  0
    6.5127    0.6566    0.0082 O   0  0  0  0  0  0  0  0  0  0  0  0
    5.3304    0.1303    0.4498 C   0  0  0  0  0  0  0  0  0  0  0  0
    5.4284   -1.1240    1.0558 C   0  0  0  0  0  0  0  0  0  0  0  0
    4.2914   -1.7654    1.5533 C   0  0  0  0  0  0  0  0  0  0  0  0
    3.0335   -1.1560    1.4596 C   0  0  0  0  0  0  0  0  0  0  0  0
    1.8049   -1.8544    2.0027 C   0  0  0  0  0  0  0  0  0  0  0  0
    0.7167   -2.0926    0.9769 C   0  0  0  0  0  0  0  0  0  0  0  0
   -0.3950   -1.2271    0.9535 C   0  0  0  0  0  0  0  0  0  0  0  0
   -1.4268   -1.3697    0.0077 C   0  0  0  0  0  0  0  0  0  0  0  0
   -2.5998   -0.3973    0.0254 C   0  0  2  0  0  0  0  0  0  0  0  0
   -3.6583   -0.8891   -0.7988 O   0  0  0  0  0  0  0  0  0  0  0  0
   -4.8767   -0.1581   -0.6174 C   0  0  2  0  0  0  0  0  0  0  0  0
   -6.0786   -0.6921   -1.8943 S   0  0  0  0  0  0  0  0  0  0  0  0
   -7.6098   -0.1074   -1.1283 C   0  0  0  0  0  0  0  0  0  0  0  0
   -4.6548    1.3818   -0.6057 C   0  0  1  0  0  0  0  0  0  0  0  0
   -4.6985    1.8593    0.7603 O   0  0  0  0  0  0  0  0  0  0  0  0
   -3.2815    1.7648   -1.1804 C   0  0  2  0  0  0  0  0  0  0  0  0
   -3.2441    1.5162   -2.5849 O   0  0  0  0  0  0  0  0  0  0  0  0
   -2.1615    1.0230   -0.4220 C   0  0  1  0  0  0  0  0  0  0  0  0
   -1.7909    1.7945    0.7400 O   0  0  0  0  0  0  0  0  0  0  0  0
   -1.3310   -2.4043   -0.9302 C   0  0  0  0  0  0  0  0  0  0  0  0
   -0.2408   -3.2762   -0.9168 C   0  0  0  0  0  0  0  0  0  0  0  0
    0.7766   -3.1245    0.0289 C   0  0  0  0  0  0  0  0  0  0  0  0
    2.0806   -4.2561   -0.0165 Cl  0  0  0  0  0  0  0  0  0  0  0  0
    2.9487    0.1187    0.8793 C   0  0  0  0  0  0  0  0  0  0  0  0
    4.0891    0.7578    0.3774 C   0  0  0  0  0  0  0  0  0  0  0  0
    6.6875    3.6989   -1.4242 H   0  0  0  0  0  0  0  0  0  0  0  0
    7.5920    3.0731   -0.0212 H   0  0  0  0  0  0  0  0  0  0  0  0
    5.8499    3.2941    0.0937 H   0  0  0  0  0  0  0  0  0  0  0  0
    5.5416    1.4755   -1.6833 H   0  0  0  0  0  0  0  0  0  0  0  0
    7.2859    1.3156   -1.7517 H   0  0  0  0  0  0  0  0  0  0  0  0
    6.3979   -1.6117    1.1302 H   0  0  0  0  0  0  0  0  0  0  0  0
    4.3971   -2.7487    2.0083 H   0  0  0  0  0  0  0  0  0  0  0  0
    2.0749   -2.8137    2.4632 H   0  0  0  0  0  0  0  0  0  0  0  0
    1.4131   -1.2512    2.8331 H   0  0  0  0  0  0  0  0  0  0  0  0
   -0.4526   -0.4160    1.6804 H   0  0  0  0  0  0  0  0  0  0  0  0
   -2.9648   -0.3809    1.0630 H   0  0  0  0  0  0  0  0  0  0  0  0
   -5.2917   -0.4817    0.3453 H   0  0  0  0  0  0  0  0  0  0  0  0
   -7.7483   -0.5719   -0.1497 H   0  0  0  0  0  0  0  0  0  0  0  0
   -8.4543   -0.3847   -1.7646 H   0  0  0  0  0  0  0  0  0  0  0  0
   -7.6038    0.9795   -1.0234 H   0  0  0  0  0  0  0  0  0  0  0  0
   -5.4436    1.9148   -1.1460 H   0  0  0  0  0  0  0  0  0  0  0  0
   -5.6408    1.9228    1.0066 H   0  0  0  0  0  0  0  0  0  0  0  0
   -3.1402    2.8462   -1.0471 H   0  0  0  0  0  0  0  0  0  0  0  0
   -2.3493    1.7283   -2.9054 H   0  0  0  0  0  0  0  0  0  0  0  0
   -1.2711    0.9716   -1.0604 H   0  0  0  0  0  0  0  0  0  0  0  0
   -2.6249    2.0097    1.2084 H   0  0  0  0  0  0  0  0  0  0  0  0
   -2.1072   -2.5443   -1.6801 H   0  0  0  0  0  0  0  0  0  0  0  0
   -0.1919   -4.0761   -1.6514 H   0  0  0  0  0  0  0  0  0  0  0  0
    1.9919    0.6273    0.8104 H   0  0  0  0  0  0  0  0  0  0  0  0
    3.9771    1.7469   -0.0504 H   0  0  0  0  0  0  0  0  0  0  0  0
  1  2  1  0
  2  3  1  0
  3  4  1  0
  4  5  2  0
  5  6  1  0
  6  7  2  0
  7  8  1  0
  8  9  1  0
  9 10  2  0
 10 11  1  0
 11 12  1  0
 12 13  1  0
 13 14  1  0
 14 15  1  0
 15 16  1  0
 14 17  1  0
 17 18  1  0
 17 19  1  0
 19 20  1  0
 19 21  1  0
 21 22  1  0
 11 23  2  0
 23 24  1  0
 24 25  2  0
 25 26  1  0
  7 27  1  0
 27 28  2  0
 28  4  1  0
 25  9  1  0
 21 12  1  0
  1 29  1  0
  1 30  1  0
  1 31  1  0
  2 32  1  0
  2 33  1  0
  5 34  1  0
  6 35  1  0
  8 36  1  0
  8 37  1  0
 10 38  1  0
 12 39  1  1
 14 40  1  1
 16 41  1  0
 16 42  1  0
 16 43  1  0
 17 44  1  6
 18 45  1  0
 19 46  1  6
 20 47  1  0
 21 48  1  6
 22 49  1  0
 23 50  1  0
 24 51  1  0
 27 52  1  0
 28 53  1  0
M  END
$$$$
