
     RDKit          3D

 74 80  0  0  0  0  0  0  0  0999 V2000
   -4.1468   -1.9798   -2.8472 C   0  0  0  0  0  0  0  0  0  0  0  0
   -5.2579   -1.7829   -1.9794 O   0  0  0  0  0  0  0  0  0  0  0  0
   -5.0261   -1.0713   -0.8293 C   0  0  0  0  0  0  0  0  0  0  0  0
   -3.8386   -0.4155   -0.5021 C   0  0  0  0  0  0  0  0  0  0  0  0
   -3.7094    0.2814    0.7154 C   0  0  0  0  0  0  0  0  0  0  0  0
   -2.4176    1.0004    1.1190 C   0  0  2  0  0  0  0  0  0  0  0  0
   -1.7066    1.6587   -0.0785 C   0  0  0  0  0  0  0  0  0  0  0  0
   -2.3193    2.7788   -0.6777 C   0  0  0  0  0  0  0  0  0  0  0  0
   -1.7321    3.3257   -1.7956 C   0  0  0  0  0  0  0  0  0  0  0  0
   -0.5831    2.8054   -2.3334 C   0  0  0  0  0  0  0  0  0  0  0  0
    0.0521    1.7126   -1.7838 C   0  0  0  0  0  0  0  0  0  0  0  0
   -0.4939    1.1252   -0.6279 C   0  0  0  0  0  0  0  0  0  0  0  0
    0.2418   -0.0525    0.0120 C   0  0  1  0  0  0  0  0  0  0  0  0
    1.3150    0.4569    0.8080 O   0  0  0  0  0  0  0  0  0  0  0  0
    2.5985    0.3677    0.1807 C   0  0  2  0  0  0  0  0  0  0  0  0
    2.9203   -0.9920   -0.1148 O   0  0  0  0  0  0  0  0  0  0  0  0
    4.1938   -1.0763   -0.7550 C   0  0  2  0  0  0  0  0  0  0  0  0
    4.5182   -2.5061   -1.1736 C   0  0  0  0  0  0  0  0  0  0  0  0
    5.8054   -2.5556   -1.7847 O   0  0  0  0  0  0  0  0  0  0  0  0
    6.8201   -2.0525   -0.9140 C   0  0  1  0  0  0  0  0  0  0  0  0
    8.1388   -2.0831   -1.6675 C   0  0  0  0  0  0  0  0  0  0  0  0
    6.5602   -0.7014   -0.5328 O   0  0  0  0  0  0  0  0  0  0  0  0
    5.3189   -0.6098    0.1715 C   0  0  1  0  0  0  0  0  0  0  0  0
    5.0487    0.8273    0.6255 C   0  0  2  0  0  0  0  0  0  0  0  0
    5.9704    1.1951    1.6629 O   0  0  0  0  0  0  0  0  0  0  0  0
    3.6224    0.9611    1.1696 C   0  0  1  0  0  0  0  0  0  0  0  0
    3.3536    2.3491    1.4289 O   0  0  0  0  0  0  0  0  0  0  0  0
   -0.7005   -0.8183    0.9325 C   0  0  1  0  0  0  0  0  0  0  0  0
   -0.0958   -1.7901    1.9144 C   0  0  0  0  0  0  0  0  0  0  0  0
   -1.1143   -1.9384    2.9165 O   0  0  0  0  0  0  0  0  0  0  0  0
   -1.8859   -0.8020    2.9441 C   0  0  0  0  0  0  0  0  0  0  0  0
   -2.7554   -0.5808    3.7692 O   0  0  0  0  0  0  0  0  0  0  0  0
   -1.4107    0.1349    1.8738 C   0  0  2  0  0  0  0  0  0  0  0  0
   -0.1753    3.4802   -3.4411 O   0  0  0  0  0  0  0  0  0  0  0  0
   -1.1965    4.4948   -3.5332 C   0  0  0  0  0  0  0  0  0  0  0  0
   -2.1961    4.3926   -2.4964 O   0  0  0  0  0  0  0  0  0  0  0  0
   -4.8113    0.3124    1.5949 C   0  0  0  0  0  0  0  0  0  0  0  0
   -6.0041   -0.3471    1.2864 C   0  0  0  0  0  0  0  0  0  0  0  0
   -7.1115   -0.3715    2.0899 O   0  0  0  0  0  0  0  0  0  0  0  0
   -6.9091   -0.0714    3.4638 C   0  0  0  0  0  0  0  0  0  0  0  0
   -6.1006   -1.0219    0.0666 C   0  0  0  0  0  0  0  0  0  0  0  0
   -7.2628   -1.6733   -0.2607 O   0  0  0  0  0  0  0  0  0  0  0  0
   -4.4818   -2.6056   -3.6813 H   0  0  0  0  0  0  0  0  0  0  0  0
   -3.3396   -2.5149   -2.3311 H   0  0  0  0  0  0  0  0  0  0  0  0
   -3.7946   -1.0291   -3.2618 H   0  0  0  0  0  0  0  0  0  0  0  0
   -3.0032   -0.4290   -1.1935 H   0  0  0  0  0  0  0  0  0  0  0  0
   -2.6992    1.8215    1.7953 H   0  0  0  0  0  0  0  0  0  0  0  0
   -3.2432    3.1972   -0.2891 H   0  0  0  0  0  0  0  0  0  0  0  0
    0.9507    1.3289   -2.2535 H   0  0  0  0  0  0  0  0  0  0  0  0
    0.5951   -0.7383   -0.7675 H   0  0  0  0  0  0  0  0  0  0  0  0
    2.5801    0.9645   -0.7364 H   0  0  0  0  0  0  0  0  0  0  0  0
    4.1879   -0.4609   -1.6662 H   0  0  0  0  0  0  0  0  0  0  0  0
    4.4822   -3.1964   -0.3234 H   0  0  0  0  0  0  0  0  0  0  0  0
    3.7778   -2.8648   -1.8965 H   0  0  0  0  0  0  0  0  0  0  0  0
    6.8975   -2.6889   -0.0227 H   0  0  0  0  0  0  0  0  0  0  0  0
    8.3788   -3.0988   -1.9981 H   0  0  0  0  0  0  0  0  0  0  0  0
    8.9541   -1.7063   -1.0439 H   0  0  0  0  0  0  0  0  0  0  0  0
    8.0894   -1.4496   -2.5595 H   0  0  0  0  0  0  0  0  0  0  0  0
    5.3746   -1.2429    1.0680 H   0  0  0  0  0  0  0  0  0  0  0  0
    5.2223    1.5303   -0.1971 H   0  0  0  0  0  0  0  0  0  0  0  0
    5.6750    2.0695    1.9853 H   0  0  0  0  0  0  0  0  0  0  0  0
    3.5484    0.4500    2.1381 H   0  0  0  0  0  0  0  0  0  0  0  0
    2.4042    2.4026    1.6449 H   0  0  0  0  0  0  0  0  0  0  0  0
   -1.4303   -1.3733    0.3289 H   0  0  0  0  0  0  0  0  0  0  0  0
    0.8175   -1.4346    2.4029 H   0  0  0  0  0  0  0  0  0  0  0  0
    0.1026   -2.7626    1.4555 H   0  0  0  0  0  0  0  0  0  0  0  0
   -0.6812    0.7945    2.3685 H   0  0  0  0  0  0  0  0  0  0  0  0
   -0.7199    5.4815   -3.4681 H   0  0  0  0  0  0  0  0  0  0  0  0
   -1.6919    4.4061   -4.5070 H   0  0  0  0  0  0  0  0  0  0  0  0
   -4.7156    0.8573    2.5313 H   0  0  0  0  0  0  0  0  0  0  0  0
   -6.7248    0.9983    3.6059 H   0  0  0  0  0  0  0  0  0  0  0  0
   -7.8314   -0.3189    3.9998 H   0  0  0  0  0  0  0  0  0  0  0  0
   -6.1016   -0.6741    3.8934 H   0  0  0  0  0  0  0  0  0  0  0  0
   -7.0971   -2.0795   -1.1311 H   0  0  0  0  0  0  0  0  0  0  0  0
  1  2  1  0
  2  3  1  0
  3  4  2  0
  4  5  1  0
  5  6  1  0
  6  7  1  0
  7  8  2  0
  8  9  1  0
  9 10  2  0
 10 11  1  0
 11 12  2  0
 12 13  1  0
 13 14  1  0
 14 15  1  0
 15 16  1  0
 16 17  1  0
 17 18  1  0
 18 19  1  0
 19 20  1  0
 20 21  1  0
 20 22  1  0
 22 23  1  0
 23 24  1  0
 24 25  1  0
 24 26  1  0
 26 27  1  0
 13 28  1  0
 28 29  1  0
 29 30  1  0
 30 31  1  0
 31 32  2  0
 31 33  1  0
 10 34  1  0
 34 35  1  0
 35 36  1  0
  5 37  2  0
 37 38  1  0
 38 39  1  0
 39 40  1  0
 38 41  2  0
 41 42  1  0
 41  3  1  0
 33  6  1  0
 12  7  1  0
 26 15  1  0
 33 28  1  0
 36  9  1  0
 23 17  1  0
  1 43  1  0
  1 44  1  0
  1 45  1  0
  4 46  1  0
  6 47  1  1
  8 48  1  0
 11 49  1  0
 13 50  1  6
 15 51  1  6
 17 52  1  6
 18 53  1  0
 18 54  1  0
 20 55  1  1
 21 56  1  0
 21 57  1  0
 21 58  1  0
 23 59  1  1
 24 60  1  6
 25 61  1  0
 26 62  1  1
 27 63  1  0
 28 64  1  6
 29 65  1  0
 29 66  1  0
 33 67  1  1
 35 68  1  0
 35 69  1  0
 37 70  1  0
 40 71  1  0
 40 72  1  0
 40 73  1  0
 42 74  1  0
M  END
$$$$
