
     RDKit          3D

 53 56  0  0  0  0  0  0  0  0999 V2000
    0.2093   -2.7677    2.4573 C   0  0  0  0  0  0  0  0  0  0  0  0
   -0.6727   -1.6871    1.9202 C   0  0  0  0  0  0  0  0  0  0  0  0
   -2.0057   -1.6158    2.2751 C   0  0  0  0  0  0  0  0  0  0  0  0
   -2.8569   -0.6851    1.8159 N   0  0  0  0  0  0  0  0  0  0  0  0
   -2.3426    0.2017    0.9491 C   0  0  0  0  0  0  0  0  0  0  0  0
   -3.2258    1.2664    0.4440 C   0  0  0  0  0  0  0  0  0  0  0  0
   -2.7937    2.6056    0.5801 C   0  0  0  0  0  0  0  0  0  0  0  0
   -3.5825    3.6803    0.1709 C   0  0  0  0  0  0  0  0  0  0  0  0
   -4.8300    3.4416   -0.3858 C   0  0  0  0  0  0  0  0  0  0  0  0
   -5.2787    2.1311   -0.5479 C   0  0  0  0  0  0  0  0  0  0  0  0
   -4.4887    1.0267   -0.1599 C   0  0  0  0  0  0  0  0  0  0  0  0
   -5.0164   -0.3860   -0.4031 C   0  0  0  0  0  0  0  0  0  0  0  0
   -5.5135   -0.5959   -1.8403 C   0  0  0  0  0  0  0  0  0  0  0  0
   -6.1178   -0.7349    0.6010 C   0  0  0  0  0  0  0  0  0  0  0  0
   -1.0559    0.2305    0.5523 N   0  0  0  0  0  0  0  0  0  0  0  0
   -0.2270   -0.7072    1.0413 C   0  0  0  0  0  0  0  0  0  0  0  0
    1.1144   -0.7263    0.6190 N   0  0  0  0  0  0  0  0  0  0  0  0
    1.4847    0.3597   -0.2805 C   0  0  0  0  0  0  0  0  0  0  0  0
    2.9582    0.2390   -0.6043 C   0  0  0  0  0  0  0  0  0  0  0  0
    3.8841    1.1524   -0.0847 C   0  0  0  0  0  0  0  0  0  0  0  0
    5.2449    1.0296   -0.3803 C   0  0  0  0  0  0  0  0  0  0  0  0
    5.7007   -0.0149   -1.1987 C   0  0  0  0  0  0  0  0  0  0  0  0
    7.0853   -0.1222   -1.4886 N   0  0  0  0  0  0  0  0  0  0  0  0
    7.7402   -1.0582   -2.2580 C   0  0  0  0  0  0  0  0  0  0  0  0
    9.0625   -0.6929   -2.2043 C   0  0  0  0  0  0  0  0  0  0  0  0
    9.1963    0.4183   -1.4323 N   0  0  0  0  0  0  0  0  0  0  0  0
    7.9914    0.7608   -0.9969 N   0  0  0  0  0  0  0  0  0  0  0  0
    4.7807   -0.9358   -1.7155 C   0  0  0  0  0  0  0  0  0  0  0  0
    3.4204   -0.8066   -1.4167 C   0  0  0  0  0  0  0  0  0  0  0  0
    1.0108   -2.3392    3.0675 H   0  0  0  0  0  0  0  0  0  0  0  0
    0.6463   -3.3483    1.6384 H   0  0  0  0  0  0  0  0  0  0  0  0
   -0.3507   -3.4651    3.0897 H   0  0  0  0  0  0  0  0  0  0  0  0
   -2.4484   -2.3327    2.9616 H   0  0  0  0  0  0  0  0  0  0  0  0
   -1.8230    2.8116    1.0296 H   0  0  0  0  0  0  0  0  0  0  0  0
   -3.2242    4.6979    0.2966 H   0  0  0  0  0  0  0  0  0  0  0  0
   -5.4566    4.2729   -0.6977 H   0  0  0  0  0  0  0  0  0  0  0  0
   -6.2628    1.9780   -0.9852 H   0  0  0  0  0  0  0  0  0  0  0  0
   -4.2051   -1.1102   -0.2781 H   0  0  0  0  0  0  0  0  0  0  0  0
   -4.7435   -0.3143   -2.5672 H   0  0  0  0  0  0  0  0  0  0  0  0
   -5.7606   -1.6506   -2.0072 H   0  0  0  0  0  0  0  0  0  0  0  0
   -6.4148   -0.0135   -2.0596 H   0  0  0  0  0  0  0  0  0  0  0  0
   -6.4440   -1.7723    0.4698 H   0  0  0  0  0  0  0  0  0  0  0  0
   -5.7647   -0.6227    1.6318 H   0  0  0  0  0  0  0  0  0  0  0  0
   -6.9960   -0.0910    0.4795 H   0  0  0  0  0  0  0  0  0  0  0  0
    1.7268   -0.7550    1.4283 H   0  0  0  0  0  0  0  0  0  0  0  0
    1.2902    1.3365    0.1809 H   0  0  0  0  0  0  0  0  0  0  0  0
    0.9166    0.3105   -1.2184 H   0  0  0  0  0  0  0  0  0  0  0  0
    3.5546    1.9705    0.5532 H   0  0  0  0  0  0  0  0  0  0  0  0
    5.9355    1.7607    0.0372 H   0  0  0  0  0  0  0  0  0  0  0  0
    7.2403   -1.8708   -2.7578 H   0  0  0  0  0  0  0  0  0  0  0  0
    9.9139   -1.1643   -2.6737 H   0  0  0  0  0  0  0  0  0  0  0  0
    5.0821   -1.7640   -2.3496 H   0  0  0  0  0  0  0  0  0  0  0  0
    2.7119   -1.5315   -1.8152 H   0  0  0  0  0  0  0  0  0  0  0  0
  1  2  1  0
  2  3  2  0
  3  4  1  0
  4  5  2  0
  5  6  1  0
  6  7  2  0
  7  8  1  0
  8  9  2  0
  9 10  1  0
 10 11  2  0
 11 12  1  0
 12 13  1  0
 12 14  1  0
  5 15  1  0
 15 16  2  0
 16 17  1  0
 17 18  1  0
 18 19  1  0
 19 20  2  0
 20 21  1  0
 21 22  2  0
 22 23  1  0
 23 24  1  0
 24 25  2  0
 25 26  1  0
 26 27  2  0
 22 28  1  0
 28 29  2  0
 16  2  1  0
 29 19  1  0
 11  6  1  0
 27 23  1  0
  1 30  1  0
  1 31  1  0
  1 32  1  0
  3 33  1  0
  7 34  1  0
  8 35  1  0
  9 36  1  0
 10 37  1  0
 12 38  1  0
 13 39  1  0
 13 40  1  0
 13 41  1  0
 14 42  1  0
 14 43  1  0
 14 44  1  0
 17 45  1  0
 18 46  1  0
 18 47  1  0
 20 48  1  0
 21 49  1  0
 24 50  1  0
 25 51  1  0
 28 52  1  0
 29 53  1  0
M  END
$$$$
