
     RDKit          3D

 50 51  0  0  0  0  0  0  0  0999 V2000
    3.7195   -3.5686    1.1702 S   0  0  0  0  0  0  0  0  0  0  0  0
    3.9487   -2.0370    2.0893 C   0  0  0  0  0  0  0  0  0  0  0  0
    4.1006   -1.0351    2.6834 N   0  0  0  0  0  0  0  0  0  0  0  0
    4.6558   -0.0088    1.8960 C   0  0  0  0  0  0  0  0  0  0  0  0
    5.8822    0.5454    2.2763 C   0  0  0  0  0  0  0  0  0  0  0  0
    6.4326    1.6099    1.5624 C   0  0  0  0  0  0  0  0  0  0  0  0
    5.7589    2.1301    0.4558 C   0  0  0  0  0  0  0  0  0  0  0  0
    4.5409    1.5806    0.0457 C   0  0  0  0  0  0  0  0  0  0  0  0
    3.9015    2.1695   -1.0652 N   0  0  0  0  0  0  0  0  0  0  0  0
    2.8644    1.7127   -1.8336 C   0  0  0  0  0  0  0  0  0  0  0  0
    1.9258    2.8418   -2.6281 S   0  0  0  0  0  0  0  0  0  0  0  0
    2.7388    0.3568   -1.9321 N   0  0  0  0  0  0  0  0  0  0  0  0
    1.6548   -0.4063   -2.5365 C   0  0  0  0  0  0  0  0  0  0  0  0
    0.7142   -0.9182   -1.4504 C   0  0  0  0  0  0  0  0  0  0  0  0
   -0.4505   -1.7164   -2.0332 C   0  0  0  0  0  0  0  0  0  0  0  0
   -1.3309   -2.3600   -0.9601 C   0  0  0  0  0  0  0  0  0  0  0  0
   -2.0184   -1.3723   -0.1367 N   0  0  0  0  0  0  0  0  0  0  0  0
   -1.7370   -1.0055    1.1484 C   0  0  0  0  0  0  0  0  0  0  0  0
   -0.4824   -1.5901    2.0880 S   0  0  0  0  0  0  0  0  0  0  0  0
   -2.5217   -0.0278    1.6953 N   0  0  0  0  0  0  0  0  0  0  0  0
   -3.8253    0.4111    1.3857 C   0  0  0  0  0  0  0  0  0  0  0  0
   -4.2352    1.6293    1.9391 C   0  0  0  0  0  0  0  0  0  0  0  0
   -5.5127    2.1318    1.6866 C   0  0  0  0  0  0  0  0  0  0  0  0
   -6.4028    1.4029    0.9005 C   0  0  0  0  0  0  0  0  0  0  0  0
   -6.0328    0.1553    0.3854 C   0  0  0  0  0  0  0  0  0  0  0  0
   -6.9319   -0.5822   -0.4049 N   0  0  0  0  0  0  0  0  0  0  0  0
   -7.5837   -1.3182    0.2393 C   0  0  0  0  0  0  0  0  0  0  0  0
   -8.5877   -2.4571    1.2069 S   0  0  0  0  0  0  0  0  0  0  0  0
   -4.7360   -0.3268    0.6238 C   0  0  0  0  0  0  0  0  0  0  0  0
    3.9808    0.5369    0.7905 C   0  0  0  0  0  0  0  0  0  0  0  0
    6.4040    0.1547    3.1471 H   0  0  0  0  0  0  0  0  0  0  0  0
    7.3825    2.0393    1.8726 H   0  0  0  0  0  0  0  0  0  0  0  0
    6.2059    2.9584   -0.0889 H   0  0  0  0  0  0  0  0  0  0  0  0
    4.1510    3.1342   -1.2602 H   0  0  0  0  0  0  0  0  0  0  0  0
    3.5311   -0.1822   -1.6086 H   0  0  0  0  0  0  0  0  0  0  0  0
    1.1115    0.1966   -3.2685 H   0  0  0  0  0  0  0  0  0  0  0  0
    2.1161   -1.2460   -3.0676 H   0  0  0  0  0  0  0  0  0  0  0  0
    1.2821   -1.5467   -0.7539 H   0  0  0  0  0  0  0  0  0  0  0  0
    0.3335   -0.0666   -0.8740 H   0  0  0  0  0  0  0  0  0  0  0  0
   -1.0609   -1.0590   -2.6649 H   0  0  0  0  0  0  0  0  0  0  0  0
   -0.0591   -2.5105   -2.6807 H   0  0  0  0  0  0  0  0  0  0  0  0
   -2.1181   -2.9418   -1.4521 H   0  0  0  0  0  0  0  0  0  0  0  0
   -0.7504   -3.0526   -0.3445 H   0  0  0  0  0  0  0  0  0  0  0  0
   -2.6016   -0.7216   -0.6461 H   0  0  0  0  0  0  0  0  0  0  0  0
   -2.1018    0.3894    2.5203 H   0  0  0  0  0  0  0  0  0  0  0  0
   -3.5548    2.2169    2.5515 H   0  0  0  0  0  0  0  0  0  0  0  0
   -5.8113    3.0928    2.0986 H   0  0  0  0  0  0  0  0  0  0  0  0
   -7.3931    1.8035    0.6970 H   0  0  0  0  0  0  0  0  0  0  0  0
   -4.4811   -1.3112    0.2426 H   0  0  0  0  0  0  0  0  0  0  0  0
    2.9839    0.1689    0.5622 H   0  0  0  0  0  0  0  0  0  0  0  0
  1  2  2  0
  2  3  2  0
  3  4  1  0
  4  5  2  0
  5  6  1  0
  6  7  2  0
  7  8  1  0
  8  9  1  0
  9 10  1  0
 10 11  2  0
 10 12  1  0
 12 13  1  0
 13 14  1  0
 14 15  1  0
 15 16  1  0
 16 17  1  0
 17 18  1  0
 18 19  2  0
 18 20  1  0
 20 21  1  0
 21 22  2  0
 22 23  1  0
 23 24  2  0
 24 25  1  0
 25 26  1  0
 26 27  2  0
 27 28  2  0
 25 29  2  0
  8 30  2  0
 30  4  1  0
 29 21  1  0
  5 31  1  0
  6 32  1  0
  7 33  1  0
  9 34  1  0
 12 35  1  0
 13 36  1  0
 13 37  1  0
 14 38  1  0
 14 39  1  0
 15 40  1  0
 15 41  1  0
 16 42  1  0
 16 43  1  0
 17 44  1  0
 20 45  1  0
 22 46  1  0
 23 47  1  0
 24 48  1  0
 29 49  1  0
 30 50  1  0
M  END
$$$$
