
     RDKit          3D

 50 52  0  0  0  0  0  0  0  0999 V2000
   -1.3915    1.9820   -1.6696 O   0  0  0  0  0  0  0  0  0  0  0  0
   -1.2251    0.9649   -1.0035 C   0  0  0  0  0  0  0  0  0  0  0  0
    0.1320    0.3402   -0.7688 C   0  0  0  0  0  0  0  0  0  0  0  0
    1.2428    1.3601   -0.9915 C   0  0  0  0  0  0  0  0  0  0  0  0
    2.5657    0.7922   -0.7984 N   0  0  0  0  0  0  0  0  0  0  0  0
    3.0370    0.4641    0.4558 C   0  0  0  0  0  0  0  0  0  0  0  0
    2.3887    0.5977    1.4851 O   0  0  0  0  0  0  0  0  0  0  0  0
    4.4001   -0.1229    0.5037 C   0  0  0  0  0  0  0  0  0  0  0  0
    5.4195    0.3260   -0.3390 C   0  0  0  0  0  0  0  0  0  0  0  0
    6.6993   -0.2371   -0.2587 C   0  0  0  0  0  0  0  0  0  0  0  0
    6.9692   -1.2441    0.6655 C   0  0  0  0  0  0  0  0  0  0  0  0
    8.1659   -1.8771    0.8483 O   0  0  0  0  0  0  0  0  0  0  0  0
    9.2966   -1.3390    0.1949 C   0  0  0  0  0  0  0  0  0  0  0  0
    9.4973   -0.0519    0.5447 F   0  0  0  0  0  0  0  0  0  0  0  0
   10.3869   -2.0485    0.5618 F   0  0  0  0  0  0  0  0  0  0  0  0
    9.1635   -1.4238   -1.1475 F   0  0  0  0  0  0  0  0  0  0  0  0
    5.9419   -1.6938    1.4995 C   0  0  0  0  0  0  0  0  0  0  0  0
    4.6667   -1.1276    1.4318 C   0  0  0  0  0  0  0  0  0  0  0  0
   -2.2565    0.2471   -0.4360 N   0  0  0  0  0  0  0  0  0  0  0  0
   -3.6251    0.7451   -0.4537 C   0  0  2  0  0  0  0  0  0  0  0  0
   -3.7867    1.8365    0.6242 C   0  0  0  0  0  0  0  0  0  0  0  0
   -5.2325    2.2454    0.9347 C   0  0  0  0  0  0  0  0  0  0  0  0
   -6.2911    1.4982    0.1306 C   0  0  0  0  0  0  0  0  0  0  0  0
   -5.9724    0.0289    0.0540 C   0  0  0  0  0  0  0  0  0  0  0  0
   -6.9734   -0.9359    0.2109 C   0  0  0  0  0  0  0  0  0  0  0  0
   -6.6694   -2.2863    0.0618 C   0  0  0  0  0  0  0  0  0  0  0  0
   -5.3727   -2.6767   -0.2658 C   0  0  0  0  0  0  0  0  0  0  0  0
   -4.3713   -1.7188   -0.4343 C   0  0  0  0  0  0  0  0  0  0  0  0
   -4.6514   -0.3576   -0.2543 C   0  0  0  0  0  0  0  0  0  0  0  0
    0.2448   -0.5018   -1.4618 H   0  0  0  0  0  0  0  0  0  0  0  0
    0.1754   -0.0596    0.2502 H   0  0  0  0  0  0  0  0  0  0  0  0
    1.1283    2.2059   -0.3013 H   0  0  0  0  0  0  0  0  0  0  0  0
    1.2136    1.7558   -2.0141 H   0  0  0  0  0  0  0  0  0  0  0  0
    3.0861    0.5105   -1.6173 H   0  0  0  0  0  0  0  0  0  0  0  0
    5.2433    1.1392   -1.0412 H   0  0  0  0  0  0  0  0  0  0  0  0
    7.4606    0.1483   -0.9295 H   0  0  0  0  0  0  0  0  0  0  0  0
    6.1361   -2.4847    2.2239 H   0  0  0  0  0  0  0  0  0  0  0  0
    3.8797   -1.4798    2.0990 H   0  0  0  0  0  0  0  0  0  0  0  0
   -2.0253   -0.4197    0.2876 H   0  0  0  0  0  0  0  0  0  0  0  0
   -3.8067    1.1892   -1.4413 H   0  0  0  0  0  0  0  0  0  0  0  0
   -3.3280    1.4894    1.5614 H   0  0  0  0  0  0  0  0  0  0  0  0
   -3.2131    2.7263    0.3377 H   0  0  0  0  0  0  0  0  0  0  0  0
   -5.3563    3.3244    0.7864 H   0  0  0  0  0  0  0  0  0  0  0  0
   -5.4135    2.0677    2.0035 H   0  0  0  0  0  0  0  0  0  0  0  0
   -6.3416    1.8947   -0.8909 H   0  0  0  0  0  0  0  0  0  0  0  0
   -7.2739    1.6631    0.5880 H   0  0  0  0  0  0  0  0  0  0  0  0
   -7.9949   -0.6405    0.4398 H   0  0  0  0  0  0  0  0  0  0  0  0
   -7.4480   -3.0336    0.1824 H   0  0  0  0  0  0  0  0  0  0  0  0
   -5.1429   -3.7303   -0.4018 H   0  0  0  0  0  0  0  0  0  0  0  0
   -3.3780   -2.0517   -0.7239 H   0  0  0  0  0  0  0  0  0  0  0  0
  1  2  2  0
  2  3  1  0
  3  4  1  0
  4  5  1  0
  5  6  1  0
  6  7  2  0
  6  8  1  0
  8  9  2  0
  9 10  1  0
 10 11  2  0
 11 12  1  0
 12 13  1  0
 13 14  1  0
 13 15  1  0
 13 16  1  0
 11 17  1  0
 17 18  2  0
  2 19  1  0
 19 20  1  0
 20 21  1  0
 21 22  1  0
 22 23  1  0
 23 24  1  0
 24 25  2  0
 25 26  1  0
 26 27  2  0
 27 28  1  0
 28 29  2  0
 18  8  1  0
 29 20  1  0
 29 24  1  0
  3 30  1  0
  3 31  1  0
  4 32  1  0
  4 33  1  0
  5 34  1  0
  9 35  1  0
 10 36  1  0
 17 37  1  0
 18 38  1  0
 19 39  1  0
 20 40  1  6
 21 41  1  0
 21 42  1  0
 22 43  1  0
 22 44  1  0
 23 45  1  0
 23 46  1  0
 25 47  1  0
 26 48  1  0
 27 49  1  0
 28 50  1  0
M  END
$$$$
