
     RDKit          3D

 48 50  0  0  0  0  0  0  0  0999 V2000
   -5.0164   -1.7670    0.0699 O   0  0  0  0  0  0  0  0  0  0  0  0
   -4.1603   -1.1261   -0.5376 C   0  0  0  0  0  0  0  0  0  0  0  0
   -3.7841   -1.4772   -1.8180 N   0  0  0  0  0  0  0  0  0  0  0  0
   -4.5307   -2.5472   -2.3723 O   0  0  0  0  0  0  0  0  0  0  0  0
   -3.4597    0.1114    0.0419 C   0  0  0  0  0  0  0  0  0  0  0  0
   -1.9249   -0.1005    0.0489 C   0  0  0  0  0  0  0  0  0  0  0  0
   -1.3478   -1.4457    1.0747 S   0  0  0  0  0  6  0  0  0  0  0  0
   -1.8899   -2.6884    0.5666 O   0  0  0  0  0  0  0  0  0  0  0  0
   -1.4935   -1.0744    2.4680 O   0  0  0  0  0  0  0  0  0  0  0  0
    0.4015   -1.4639    0.7312 C   0  0  0  0  0  0  0  0  0  0  0  0
    1.2508   -0.6205    1.4544 C   0  0  0  0  0  0  0  0  0  0  0  0
    2.6221   -0.6410    1.1942 C   0  0  0  0  0  0  0  0  0  0  0  0
    3.1324   -1.4970    0.2124 C   0  0  0  0  0  0  0  0  0  0  0  0
    4.4774   -1.5970   -0.0648 O   0  0  0  0  0  0  0  0  0  0  0  0
    5.1835   -0.4234   -0.1931 C   0  0  0  0  0  0  0  0  0  0  0  0
    4.7746    0.6058   -1.0459 C   0  0  0  0  0  0  0  0  0  0  0  0
    5.5538    1.7588   -1.1622 C   0  0  0  0  0  0  0  0  0  0  0  0
    6.7420    1.8681   -0.4391 C   0  0  0  0  0  0  0  0  0  0  0  0
    7.7006    3.2893   -0.5840 Cl  0  0  0  0  0  0  0  0  0  0  0  0
    7.1625    0.8316    0.3942 C   0  0  0  0  0  0  0  0  0  0  0  0
    6.3843   -0.3217    0.5110 C   0  0  0  0  0  0  0  0  0  0  0  0
    2.2823   -2.3623   -0.4805 C   0  0  0  0  0  0  0  0  0  0  0  0
    0.9104   -2.3471   -0.2254 C   0  0  0  0  0  0  0  0  0  0  0  0
   -4.0316    0.4115    1.4458 C   0  0  0  0  0  0  0  0  0  0  0  0
   -3.4682    1.7007    2.0403 C   0  0  0  0  0  0  0  0  0  0  0  0
   -3.0458    2.6204    1.0291 O   0  0  0  0  0  0  0  0  0  0  0  0
   -3.9309    2.6395   -0.0828 C   0  0  0  0  0  0  0  0  0  0  0  0
   -3.8012    1.3322   -0.8649 C   0  0  0  0  0  0  0  0  0  0  0  0
   -3.4564   -0.7943   -2.4918 H   0  0  0  0  0  0  0  0  0  0  0  0
   -5.0551   -2.8607   -1.6004 H   0  0  0  0  0  0  0  0  0  0  0  0
   -1.5637   -0.3207   -0.9628 H   0  0  0  0  0  0  0  0  0  0  0  0
   -1.3985    0.7957    0.3926 H   0  0  0  0  0  0  0  0  0  0  0  0
    0.8609    0.0381    2.2279 H   0  0  0  0  0  0  0  0  0  0  0  0
    3.2854   -0.0022    1.7719 H   0  0  0  0  0  0  0  0  0  0  0  0
    3.8605    0.5140   -1.6255 H   0  0  0  0  0  0  0  0  0  0  0  0
    5.2347    2.5621   -1.8208 H   0  0  0  0  0  0  0  0  0  0  0  0
    8.0931    0.9131    0.9493 H   0  0  0  0  0  0  0  0  0  0  0  0
    6.7106   -1.1365    1.1520 H   0  0  0  0  0  0  0  0  0  0  0  0
    2.6914   -3.0528   -1.2142 H   0  0  0  0  0  0  0  0  0  0  0  0
    0.2568   -3.0319   -0.7621 H   0  0  0  0  0  0  0  0  0  0  0  0
   -5.1217    0.5325    1.3582 H   0  0  0  0  0  0  0  0  0  0  0  0
   -3.9092   -0.4206    2.1467 H   0  0  0  0  0  0  0  0  0  0  0  0
   -4.2116    2.1889    2.6801 H   0  0  0  0  0  0  0  0  0  0  0  0
   -2.5943    1.4875    2.6636 H   0  0  0  0  0  0  0  0  0  0  0  0
   -4.9592    2.8022    0.2624 H   0  0  0  0  0  0  0  0  0  0  0  0
   -3.6660    3.4866   -0.7238 H   0  0  0  0  0  0  0  0  0  0  0  0
   -3.0185    1.4540   -1.6252 H   0  0  0  0  0  0  0  0  0  0  0  0
   -4.7322    1.1761   -1.4250 H   0  0  0  0  0  0  0  0  0  0  0  0
  1  2  2  0
  2  3  1  0
  3  4  1  0
  2  5  1  0
  5  6  1  0
  6  7  1  0
  7  8  2  0
  7  9  2  0
  7 10  1  0
 10 11  2  0
 11 12  1  0
 12 13  2  0
 13 14  1  0
 14 15  1  0
 15 16  2  0
 16 17  1  0
 17 18  2  0
 18 19  1  0
 18 20  1  0
 20 21  2  0
 13 22  1  0
 22 23  2  0
  5 24  1  0
 24 25  1  0
 25 26  1  0
 26 27  1  0
 27 28  1  0
 28  5  1  0
 23 10  1  0
 21 15  1  0
  3 29  1  0
  4 30  1  0
  6 31  1  0
  6 32  1  0
 11 33  1  0
 12 34  1  0
 16 35  1  0
 17 36  1  0
 20 37  1  0
 21 38  1  0
 22 39  1  0
 23 40  1  0
 24 41  1  0
 24 42  1  0
 25 43  1  0
 25 44  1  0
 27 45  1  0
 27 46  1  0
 28 47  1  0
 28 48  1  0
M  END
$$$$
