
     RDKit          3D

 34 37  0  0  0  0  0  0  0  0999 V2000
    3.6394    1.1854    1.3927 C   0  0  0  0  0  0  0  0  0  0  0  0
    2.9370    0.5403    0.2377 C   0  0  0  0  0  0  0  0  0  0  0  0
    1.6405    0.0239    0.3807 C   0  0  0  0  0  0  0  0  0  0  0  0
    0.9885   -0.6048   -0.6966 C   0  0  0  0  0  0  0  0  0  0  0  0
   -0.3381   -1.1386   -0.5274 N   0  0  0  0  0  0  0  0  0  0  0  0
   -0.4727   -2.5143   -0.8232 C   0  0  0  0  0  0  0  0  0  0  0  0
    0.3834   -3.2276   -1.3499 O   0  0  0  0  0  0  0  0  0  0  0  0
   -1.7293   -3.1980   -0.4262 C   0  0  0  0  0  0  0  0  0  0  0  0
   -2.7055   -2.5669    0.2254 C   0  0  0  0  0  0  0  0  0  0  0  0
   -2.5876   -1.1575    0.4996 C   0  0  0  0  0  0  0  0  0  0  0  0
   -3.5974   -0.5216    1.1360 C   0  0  0  0  0  0  0  0  0  0  0  0
   -3.5934    0.8319    1.3543 N   0  0  0  0  0  0  0  0  0  0  0  0
   -2.5961    1.6005    0.8344 C   0  0  0  0  0  0  0  0  0  0  0  0
   -2.4968    2.9038    0.8477 N   0  0  0  0  0  0  0  0  0  0  0  0
   -1.3173    3.1704    0.1731 C   0  0  0  0  0  0  0  0  0  0  0  0
   -0.6527    2.0922   -0.2696 C   0  0  0  0  0  0  0  0  0  0  0  0
   -1.4318    0.9631    0.1393 C   0  0  0  0  0  0  0  0  0  0  0  0
   -1.3926   -0.3861    0.0442 C   0  0  0  0  0  0  0  0  0  0  0  0
    1.6719   -0.7476   -1.9125 C   0  0  0  0  0  0  0  0  0  0  0  0
    2.9673   -0.2487   -2.0584 C   0  0  0  0  0  0  0  0  0  0  0  0
    3.5868    0.3864   -0.9879 C   0  0  0  0  0  0  0  0  0  0  0  0
    4.8341    0.8519   -1.1455 F   0  0  0  0  0  0  0  0  0  0  0  0
    4.2868    0.4578    1.8917 H   0  0  0  0  0  0  0  0  0  0  0  0
    2.9216    1.5740    2.1228 H   0  0  0  0  0  0  0  0  0  0  0  0
    4.2467    2.0316    1.0548 H   0  0  0  0  0  0  0  0  0  0  0  0
    1.1443    0.0958    1.3466 H   0  0  0  0  0  0  0  0  0  0  0  0
   -1.7881   -4.2534   -0.6651 H   0  0  0  0  0  0  0  0  0  0  0  0
   -3.6005   -3.1056    0.5203 H   0  0  0  0  0  0  0  0  0  0  0  0
   -4.4942   -1.0227    1.4874 H   0  0  0  0  0  0  0  0  0  0  0  0
   -4.4042    1.2909    1.7481 H   0  0  0  0  0  0  0  0  0  0  0  0
   -1.0072    4.1974    0.0220 H   0  0  0  0  0  0  0  0  0  0  0  0
    0.2572    2.1031   -0.8420 H   0  0  0  0  0  0  0  0  0  0  0  0
    1.2006   -1.2460   -2.7567 H   0  0  0  0  0  0  0  0  0  0  0  0
    3.4993   -0.3611   -2.9978 H   0  0  0  0  0  0  0  0  0  0  0  0
  1  2  1  0
  2  3  2  0
  3  4  1  0
  4  5  1  0
  5  6  1  0
  6  7  2  0
  6  8  1  0
  8  9  2  0
  9 10  1  0
 10 11  2  0
 11 12  1  0
 12 13  1  0
 13 14  2  0
 14 15  1  0
 15 16  2  0
 16 17  1  0
 17 18  2  0
  4 19  2  0
 19 20  1  0
 20 21  2  0
 21 22  1  0
 21  2  1  0
 18  5  1  0
 18 10  1  0
 17 13  1  0
  1 23  1  0
  1 24  1  0
  1 25  1  0
  3 26  1  0
  8 27  1  0
  9 28  1  0
 11 29  1  0
 12 30  1  0
 15 31  1  0
 16 32  1  0
 19 33  1  0
 20 34  1  0
M  END
$$$$
