
     RDKit          3D

 41 43  0  0  0  0  0  0  0  0999 V2000
    6.2320    0.0721    0.5065 C   0  0  0  0  0  0  0  0  0  0  0  0
    4.8393   -0.4328    0.2638 C   0  0  0  0  0  0  0  0  0  0  0  0
    3.8187    0.2606    0.6461 N   0  0  0  0  0  0  0  0  0  0  0  0
    2.5669   -0.2568    0.4036 C   0  0  0  0  0  0  0  0  0  0  0  0
    2.3384   -1.4261   -0.2212 C   0  0  0  0  0  0  0  0  0  0  0  0
    3.5268   -2.1903   -0.6706 C   0  0  0  0  0  0  0  0  0  0  0  0
    3.4503   -3.2490   -1.2839 O   0  0  0  0  0  0  0  0  0  0  0  0
    4.7326   -1.6332   -0.3682 N   0  0  0  0  0  0  0  0  0  0  0  0
    0.9767   -1.9951   -0.4930 C   0  0  0  0  0  0  0  0  0  0  0  0
    0.1263   -1.1267   -1.4279 C   0  0  0  0  0  0  0  0  0  0  0  0
   -0.4661    0.1618   -0.8267 C   0  0  0  0  0  0  0  0  0  0  0  0
   -1.5825   -0.1318    0.1835 C   0  0  0  0  0  0  0  0  0  0  0  0
   -1.8332   -1.2572    0.6011 O   0  0  0  0  0  0  0  0  0  0  0  0
   -2.2890    0.9840    0.5754 N   0  0  0  0  0  0  0  0  0  0  0  0
   -3.4551    0.8815    1.4226 C   0  0  0  0  0  0  0  0  0  0  0  0
   -4.6692    0.9400    0.5499 C   0  0  0  0  0  0  0  0  0  0  0  0
   -5.4489    2.1202    0.3065 C   0  0  0  0  0  0  0  0  0  0  0  0
   -6.5115    1.8892   -0.5389 C   0  0  0  0  0  0  0  0  0  0  0  0
   -6.5828    0.2601   -1.0482 S   0  0  0  0  0  0  0  0  0  0  0  0
   -5.1948   -0.1415   -0.1359 C   0  0  0  0  0  0  0  0  0  0  0  0
    0.5745    1.1486   -0.2703 C   0  0  0  0  0  0  0  0  0  0  0  0
    1.4263    0.6108    0.8819 C   0  0  0  0  0  0  0  0  0  0  0  0
    6.3546    1.0398    0.0112 H   0  0  0  0  0  0  0  0  0  0  0  0
    6.3828    0.2067    1.5816 H   0  0  0  0  0  0  0  0  0  0  0  0
    6.9864   -0.6211    0.1252 H   0  0  0  0  0  0  0  0  0  0  0  0
    5.5440   -2.1481   -0.6739 H   0  0  0  0  0  0  0  0  0  0  0  0
    1.0677   -2.9834   -0.9591 H   0  0  0  0  0  0  0  0  0  0  0  0
    0.4671   -2.1793    0.4589 H   0  0  0  0  0  0  0  0  0  0  0  0
   -0.7030   -1.7458   -1.7959 H   0  0  0  0  0  0  0  0  0  0  0  0
    0.7198   -0.8629   -2.3136 H   0  0  0  0  0  0  0  0  0  0  0  0
   -0.9710    0.6726   -1.6605 H   0  0  0  0  0  0  0  0  0  0  0  0
   -2.1905    1.8328    0.0357 H   0  0  0  0  0  0  0  0  0  0  0  0
   -3.4358   -0.0411    2.0117 H   0  0  0  0  0  0  0  0  0  0  0  0
   -3.4329    1.7312    2.1126 H   0  0  0  0  0  0  0  0  0  0  0  0
   -5.2404    3.0934    0.7348 H   0  0  0  0  0  0  0  0  0  0  0  0
   -7.2520    2.5982   -0.8828 H   0  0  0  0  0  0  0  0  0  0  0  0
   -4.8175   -1.1567   -0.1458 H   0  0  0  0  0  0  0  0  0  0  0  0
    1.2248    1.4826   -1.0898 H   0  0  0  0  0  0  0  0  0  0  0  0
    0.0635    2.0514    0.0863 H   0  0  0  0  0  0  0  0  0  0  0  0
    1.8398    1.4718    1.4244 H   0  0  0  0  0  0  0  0  0  0  0  0
    0.8168    0.0695    1.6152 H   0  0  0  0  0  0  0  0  0  0  0  0
  1  2  1  0
  2  3  2  0
  3  4  1  0
  4  5  2  0
  5  6  1  0
  6  7  2  0
  6  8  1  0
  5  9  1  0
  9 10  1  0
 10 11  1  0
 11 12  1  0
 12 13  2  0
 12 14  1  0
 14 15  1  0
 15 16  1  0
 16 17  1  0
 17 18  2  0
 18 19  1  0
 19 20  1  0
 11 21  1  0
 21 22  1  0
  8  2  1  0
 20 16  2  0
 22  4  1  0
  1 23  1  0
  1 24  1  0
  1 25  1  0
  8 26  1  0
  9 27  1  0
  9 28  1  0
 10 29  1  0
 10 30  1  0
 11 31  1  0
 14 32  1  0
 15 33  1  0
 15 34  1  0
 17 35  1  0
 18 36  1  0
 20 37  1  0
 21 38  1  0
 21 39  1  0
 22 40  1  0
 22 41  1  0
M  END
$$$$
