
     RDKit          3D

 50 53  0  0  0  0  0  0  0  0999 V2000
   -2.7941    3.2184   -0.0545 C   0  0  0  0  0  0  0  0  0  0  0  0
   -4.0195    2.4530    0.0264 N   0  0  0  0  0  0  0  0  0  0  0  0
   -4.1168    1.0861   -0.1690 C   0  0  0  0  0  0  0  0  0  0  0  0
   -3.0514    0.2452    0.0751 N   0  0  0  0  0  0  0  0  0  0  0  0
   -3.1255   -1.1199   -0.0370 C   0  0  0  0  0  0  0  0  0  0  0  0
   -2.0200   -1.8181    0.3502 N   0  0  0  0  0  0  0  0  0  0  0  0
   -0.6537   -1.5850    0.0535 C   0  0  0  0  0  0  0  0  0  0  0  0
   -0.2086   -0.5179   -0.7400 C   0  0  0  0  0  0  0  0  0  0  0  0
    1.1556   -0.3019   -0.9493 C   0  0  0  0  0  0  0  0  0  0  0  0
    2.0920   -1.1416   -0.3436 C   0  0  0  0  0  0  0  0  0  0  0  0
    3.5436   -0.9501   -0.5664 C   0  0  0  0  0  0  0  0  0  0  0  0
    4.1978   -1.9192   -0.9429 O   0  0  0  0  0  0  0  0  0  0  0  0
    4.1011    0.3017   -0.3407 N   0  0  0  0  0  0  0  0  0  0  0  0
    5.5173    0.4989   -0.6528 C   0  0  0  0  0  0  0  0  0  0  0  0
    5.8438    1.9869   -0.8013 C   0  0  0  0  0  0  0  0  0  0  0  0
    5.5214    2.7744    0.3557 O   0  0  0  0  0  0  0  0  0  0  0  0
    4.5236    2.1893    1.2018 C   0  0  0  0  0  0  0  0  0  0  0  0
    3.4737    1.3825    0.4296 C   0  0  0  0  0  0  0  0  0  0  0  0
    1.6732   -2.2275    0.4308 C   0  0  0  0  0  0  0  0  0  0  0  0
    0.3089   -2.4481    0.6367 C   0  0  0  0  0  0  0  0  0  0  0  0
   -0.2124   -3.4814    1.3809 O   0  0  0  0  0  0  0  0  0  0  0  0
    0.7053   -4.4299    1.9125 C   0  0  0  0  0  0  0  0  0  0  0  0
   -4.1937   -1.7608   -0.4172 N   0  0  0  0  0  0  0  0  0  0  0  0
   -5.2706   -0.9860   -0.7296 C   0  0  0  0  0  0  0  0  0  0  0  0
   -6.4245   -1.4321   -1.1528 N   0  0  0  0  0  0  0  0  0  0  0  0
   -7.1894   -0.2789   -1.3003 C   0  0  0  0  0  0  0  0  0  0  0  0
   -6.5593    0.8630   -0.9840 C   0  0  0  0  0  0  0  0  0  0  0  0
   -7.1832    2.4310   -1.0558 Cl  0  0  0  0  0  0  0  0  0  0  0  0
   -5.2414    0.4872   -0.5907 C   0  0  0  0  0  0  0  0  0  0  0  0
   -3.0034    4.2709    0.1593 H   0  0  0  0  0  0  0  0  0  0  0  0
   -2.3621    3.1512   -1.0578 H   0  0  0  0  0  0  0  0  0  0  0  0
   -2.0589    2.8684    0.6765 H   0  0  0  0  0  0  0  0  0  0  0  0
   -4.8378    2.9601   -0.3135 H   0  0  0  0  0  0  0  0  0  0  0  0
   -2.3392    0.6174    0.6854 H   0  0  0  0  0  0  0  0  0  0  0  0
   -2.1900   -2.8190    0.4349 H   0  0  0  0  0  0  0  0  0  0  0  0
   -0.9131    0.1337   -1.2493 H   0  0  0  0  0  0  0  0  0  0  0  0
    1.4786    0.5034   -1.6042 H   0  0  0  0  0  0  0  0  0  0  0  0
    5.7742   -0.0458   -1.5675 H   0  0  0  0  0  0  0  0  0  0  0  0
    6.0896    0.0641    0.1753 H   0  0  0  0  0  0  0  0  0  0  0  0
    6.9099    2.1239   -1.0076 H   0  0  0  0  0  0  0  0  0  0  0  0
    5.2890    2.4110   -1.6464 H   0  0  0  0  0  0  0  0  0  0  0  0
    4.0433    3.0019    1.7558 H   0  0  0  0  0  0  0  0  0  0  0  0
    5.0356    1.5522    1.9325 H   0  0  0  0  0  0  0  0  0  0  0  0
    2.9705    2.0322   -0.2948 H   0  0  0  0  0  0  0  0  0  0  0  0
    2.7306    0.9766    1.1220 H   0  0  0  0  0  0  0  0  0  0  0  0
    2.4317   -2.8793    0.8529 H   0  0  0  0  0  0  0  0  0  0  0  0
    0.1266   -5.1944    2.4398 H   0  0  0  0  0  0  0  0  0  0  0  0
    1.3777   -3.9618    2.6387 H   0  0  0  0  0  0  0  0  0  0  0  0
    1.2660   -4.9281    1.1147 H   0  0  0  0  0  0  0  0  0  0  0  0
   -8.2120   -0.3578   -1.6472 H   0  0  0  0  0  0  0  0  0  0  0  0
  1  2  1  0
  2  3  1  0
  3  4  1  0
  4  5  1  0
  5  6  1  0
  6  7  1  0
  7  8  2  0
  8  9  1  0
  9 10  2  0
 10 11  1  0
 11 12  2  0
 11 13  1  0
 13 14  1  0
 14 15  1  0
 15 16  1  0
 16 17  1  0
 17 18  1  0
 10 19  1  0
 19 20  2  0
 20 21  1  0
 21 22  1  0
  5 23  2  0
 23 24  1  0
 24 25  2  0
 25 26  1  0
 26 27  2  0
 27 28  1  0
 27 29  1  0
 29  3  2  0
 20  7  1  0
 29 24  1  0
 18 13  1  0
  1 30  1  0
  1 31  1  0
  1 32  1  0
  2 33  1  0
  4 34  1  0
  6 35  1  0
  8 36  1  0
  9 37  1  0
 14 38  1  0
 14 39  1  0
 15 40  1  0
 15 41  1  0
 17 42  1  0
 17 43  1  0
 18 44  1  0
 18 45  1  0
 19 46  1  0
 22 47  1  0
 22 48  1  0
 22 49  1  0
 26 50  1  0
M  END
$$$$
