
     RDKit          3D

 33 36  0  0  0  0  0  0  0  0999 V2000
    1.9890    2.0419   -0.1892 O   0  0  0  0  0  0  0  0  0  0  0  0
    2.3094    0.8537   -0.1063 C   0  0  0  0  0  0  0  0  0  0  0  0
    3.7303    0.5079   -0.0992 C   0  0  0  0  0  0  0  0  0  0  0  0
    4.8312    1.3483   -0.1750 C   0  0  0  0  0  0  0  0  0  0  0  0
    5.9863    0.5336   -0.1302 C   0  0  0  0  0  0  0  0  0  0  0  0
    5.5319   -0.7579   -0.0297 C   0  0  0  0  0  0  0  0  0  0  0  0
    4.1757   -0.7844   -0.0103 O   0  0  0  0  0  0  0  0  0  0  0  0
    1.3545   -0.1638   -0.0194 N   0  0  0  0  0  0  0  0  0  0  0  0
    1.6109   -1.6131    0.0836 C   0  0  0  0  0  0  0  0  0  0  0  0
    0.2588   -2.3320    0.1537 C   0  0  0  0  0  0  0  0  0  0  0  0
   -0.7037   -1.1939    0.0827 C   0  0  0  0  0  0  0  0  0  0  0  0
   -2.0922   -1.2756    0.1065 C   0  0  0  0  0  0  0  0  0  0  0  0
   -2.8531   -0.0989    0.0301 C   0  0  0  0  0  0  0  0  0  0  0  0
   -4.3125   -0.1376    0.0517 C   0  0  0  0  0  0  0  0  0  0  0  0
   -5.3128    0.8073   -0.0047 C   0  0  0  0  0  0  0  0  0  0  0  0
   -6.5033    0.0633    0.0652 C   0  0  0  0  0  0  0  0  0  0  0  0
   -6.2710   -1.2465    0.1582 N   0  0  0  0  0  0  0  0  0  0  0  0
   -4.8912   -1.3723    0.1497 O   0  0  0  0  0  0  0  0  0  0  0  0
   -2.1752    1.1335   -0.0690 C   0  0  0  0  0  0  0  0  0  0  0  0
   -0.7740    1.2026   -0.0922 C   0  0  0  0  0  0  0  0  0  0  0  0
   -0.0447    0.0294   -0.0155 C   0  0  0  0  0  0  0  0  0  0  0  0
    4.7847    2.4267   -0.2534 H   0  0  0  0  0  0  0  0  0  0  0  0
    7.0197    0.8489   -0.1666 H   0  0  0  0  0  0  0  0  0  0  0  0
    6.0206   -1.7203    0.0345 H   0  0  0  0  0  0  0  0  0  0  0  0
    2.1756   -1.9431   -0.7954 H   0  0  0  0  0  0  0  0  0  0  0  0
    2.1986   -1.8124    0.9865 H   0  0  0  0  0  0  0  0  0  0  0  0
    0.1537   -2.8846    1.0925 H   0  0  0  0  0  0  0  0  0  0  0  0
    0.1307   -3.0155   -0.6913 H   0  0  0  0  0  0  0  0  0  0  0  0
   -2.5704   -2.2488    0.1841 H   0  0  0  0  0  0  0  0  0  0  0  0
   -5.2031    1.8774   -0.0845 H   0  0  0  0  0  0  0  0  0  0  0  0
   -7.5259    0.4132    0.0528 H   0  0  0  0  0  0  0  0  0  0  0  0
   -2.7301    2.0670   -0.1303 H   0  0  0  0  0  0  0  0  0  0  0  0
   -0.2985    2.1742   -0.1695 H   0  0  0  0  0  0  0  0  0  0  0  0
  1  2  2  0
  2  3  1  0
  3  4  2  0
  4  5  1  0
  5  6  2  0
  6  7  1  0
  2  8  1  0
  8  9  1  0
  9 10  1  0
 10 11  1  0
 11 12  2  0
 12 13  1  0
 13 14  1  0
 14 15  2  0
 15 16  1  0
 16 17  2  0
 17 18  1  0
 13 19  2  0
 19 20  1  0
 20 21  2  0
  7  3  1  0
 21  8  1  0
 21 11  1  0
 18 14  1  0
  4 22  1  0
  5 23  1  0
  6 24  1  0
  9 25  1  0
  9 26  1  0
 10 27  1  0
 10 28  1  0
 12 29  1  0
 15 30  1  0
 16 31  1  0
 19 32  1  0
 20 33  1  0
M  END
$$$$
