
     RDKit          3D

 47 50  0  0  0  0  0  0  0  0999 V2000
    4.1348    1.7240   -2.0601 C   0  0  0  0  0  0  0  0  0  0  0  0
    4.9583    1.2186   -0.8808 C   0  0  0  0  0  0  0  0  0  0  0  0
    4.1992    0.2025   -0.0189 C   0  0  0  0  0  0  0  0  0  0  0  0
    4.0496   -1.1451   -0.7188 C   0  0  0  0  0  0  0  0  0  0  0  0
    3.3699   -2.4654    0.3336 S   0  0  0  0  0  4  0  0  0  0  0  0
    4.2158   -2.5708    1.5674 O   0  0  0  0  0  0  0  0  0  0  0  0
    1.7941   -1.6919    0.7925 C   0  0  0  0  0  0  0  0  0  0  0  0
    1.4539   -1.1875    2.3776 S   0  0  0  0  0  0  0  0  0  0  0  0
   -0.0649   -0.5800    1.9164 C   0  0  0  0  0  0  0  0  0  0  0  0
   -0.8466    0.0159    2.8367 N   0  0  0  0  0  0  0  0  0  0  0  0
   -2.0320    0.4524    2.3756 C   0  0  0  0  0  0  0  0  0  0  0  0
   -2.9068    1.0532    3.3849 C   0  0  0  0  0  0  0  0  0  0  0  0
   -4.2067    0.7139    3.7079 C   0  0  0  0  0  0  0  0  0  0  0  0
   -4.7524    1.5424    4.7370 C   0  0  0  0  0  0  0  0  0  0  0  0
   -3.8530    2.4907    5.1626 C   0  0  0  0  0  0  0  0  0  0  0  0
   -2.3704    2.3934    4.3087 S   0  0  0  0  0  0  0  0  0  0  0  0
   -2.4606    0.3210    1.0636 C   0  0  0  0  0  0  0  0  0  0  0  0
   -1.6238   -0.2988    0.1281 C   0  0  0  0  0  0  0  0  0  0  0  0
   -2.0337   -0.4022   -1.2729 C   0  0  0  0  0  0  0  0  0  0  0  0
   -2.7106   -1.5362   -1.7505 C   0  0  0  0  0  0  0  0  0  0  0  0
   -3.0585   -1.6344   -3.1009 C   0  0  0  0  0  0  0  0  0  0  0  0
   -2.7209   -0.5998   -3.9886 C   0  0  0  0  0  0  0  0  0  0  0  0
   -2.0767    0.5428   -3.5195 C   0  0  0  0  0  0  0  0  0  0  0  0
   -1.7326    0.6381   -2.1705 C   0  0  0  0  0  0  0  0  0  0  0  0
   -0.3557   -0.7832    0.5675 C   0  0  0  0  0  0  0  0  0  0  0  0
    0.7502   -1.4641   -0.0793 C   0  0  0  0  0  0  0  0  0  0  0  0
    0.7618   -1.8271   -1.3867 N   0  0  0  0  0  0  0  0  0  0  0  0
    3.2511    2.2727   -1.7048 H   0  0  0  0  0  0  0  0  0  0  0  0
    4.7352    2.4189   -2.6642 H   0  0  0  0  0  0  0  0  0  0  0  0
    3.8014    0.9064   -2.7152 H   0  0  0  0  0  0  0  0  0  0  0  0
    5.2334    2.0726   -0.2525 H   0  0  0  0  0  0  0  0  0  0  0  0
    5.8886    0.7777   -1.2501 H   0  0  0  0  0  0  0  0  0  0  0  0
    3.2115    0.6161    0.2418 H   0  0  0  0  0  0  0  0  0  0  0  0
    4.7481    0.0683    0.9231 H   0  0  0  0  0  0  0  0  0  0  0  0
    3.4185   -1.0777   -1.6080 H   0  0  0  0  0  0  0  0  0  0  0  0
    5.0295   -1.5062   -1.0404 H   0  0  0  0  0  0  0  0  0  0  0  0
   -4.7411   -0.1126    3.2498 H   0  0  0  0  0  0  0  0  0  0  0  0
   -5.7502    1.4362    5.1445 H   0  0  0  0  0  0  0  0  0  0  0  0
   -3.9974    3.2412    5.9300 H   0  0  0  0  0  0  0  0  0  0  0  0
   -3.4321    0.6995    0.7556 H   0  0  0  0  0  0  0  0  0  0  0  0
   -2.9477   -2.3543   -1.0735 H   0  0  0  0  0  0  0  0  0  0  0  0
   -3.5795   -2.5172   -3.4676 H   0  0  0  0  0  0  0  0  0  0  0  0
   -2.9951   -0.6777   -5.0400 H   0  0  0  0  0  0  0  0  0  0  0  0
   -1.8420    1.3537   -4.2083 H   0  0  0  0  0  0  0  0  0  0  0  0
   -1.2216    1.5353   -1.8152 H   0  0  0  0  0  0  0  0  0  0  0  0
   -0.0567   -1.7087   -1.9765 H   0  0  0  0  0  0  0  0  0  0  0  0
    1.3648   -2.5665   -1.7408 H   0  0  0  0  0  0  0  0  0  0  0  0
  1  2  1  0
  2  3  1  0
  3  4  1  0
  4  5  1  0
  5  6  2  0
  5  7  1  0
  7  8  1  0
  8  9  1  0
  9 10  2  0
 10 11  1  0
 11 12  1  0
 12 13  2  0
 13 14  1  0
 14 15  2  0
 15 16  1  0
 11 17  2  0
 17 18  1  0
 18 19  1  0
 19 20  2  0
 20 21  1  0
 21 22  2  0
 22 23  1  0
 23 24  2  0
 18 25  2  0
 25 26  1  0
 26 27  1  0
 26  7  2  0
 25  9  1  0
 16 12  1  0
 24 19  1  0
  1 28  1  0
  1 29  1  0
  1 30  1  0
  2 31  1  0
  2 32  1  0
  3 33  1  0
  3 34  1  0
  4 35  1  0
  4 36  1  0
 13 37  1  0
 14 38  1  0
 15 39  1  0
 17 40  1  0
 20 41  1  0
 21 42  1  0
 22 43  1  0
 23 44  1  0
 24 45  1  0
 27 46  1  0
 27 47  1  0
M  END
$$$$
