
     RDKit          3D

 48 50  0  0  0  0  0  0  0  0999 V2000
   -7.2538    0.5392   -1.3590 C   0  0  0  0  0  0  0  0  0  0  0  0
   -6.5032   -0.4872   -0.7251 O   0  0  0  0  0  0  0  0  0  0  0  0
   -5.2968   -0.1366   -0.1699 C   0  0  0  0  0  0  0  0  0  0  0  0
   -4.8612    1.1829    0.0018 C   0  0  0  0  0  0  0  0  0  0  0  0
   -3.6262    1.4475    0.5988 C   0  0  0  0  0  0  0  0  0  0  0  0
   -2.8033    0.3964    1.0276 C   0  0  0  0  0  0  0  0  0  0  0  0
   -1.4480    0.6815    1.6341 C   0  0  0  0  0  0  0  0  0  0  0  0
   -0.4899    1.0769    0.6272 N   0  0  0  0  0  0  0  0  0  0  0  0
   -0.1970    2.3677    0.3063 C   0  0  0  0  0  0  0  0  0  0  0  0
   -0.6773    3.3848    0.7773 O   0  0  0  0  0  0  0  0  0  0  0  0
    0.7536    2.3656   -0.6937 N   0  0  0  0  0  0  0  0  0  0  0  0
    0.9074    1.0464   -1.2517 C   0  0  1  0  0  0  0  0  0  0  0  0
    2.3474    0.6453   -1.5161 C   0  0  0  0  0  0  0  0  0  0  0  0
    3.2156    0.5100   -0.2616 C   0  0  0  0  0  0  0  0  0  0  0  0
    4.6654    0.2125   -0.6166 C   0  0  0  0  0  0  0  0  0  0  0  0
    5.0855    0.3471   -1.7602 O   0  0  0  0  0  0  0  0  0  0  0  0
    5.3859   -0.1790    0.4923 N   0  0  0  0  0  0  0  0  0  0  0  0
    6.7101   -0.5146    0.4236 C   0  0  0  0  0  0  0  0  0  0  0  0
    7.5183   -0.5203   -0.6044 N   0  0  0  0  0  0  0  0  0  0  0  0
    8.7700   -0.9424   -0.2010 C   0  0  0  0  0  0  0  0  0  0  0  0
    8.8892   -1.2532    1.1379 C   0  0  0  0  0  0  0  0  0  0  0  0
    7.3803   -1.0019    1.9202 S   0  0  0  0  0  0  0  0  0  0  0  0
    0.1690    0.2120   -0.2040 C   0  0  0  0  0  0  0  0  0  0  0  0
    0.1505   -1.0105   -0.1532 O   0  0  0  0  0  0  0  0  0  0  0  0
   -3.2345   -0.9278    0.8439 C   0  0  0  0  0  0  0  0  0  0  0  0
   -4.4770   -1.2021    0.2586 C   0  0  0  0  0  0  0  0  0  0  0  0
   -4.9634   -2.4680    0.0337 O   0  0  0  0  0  0  0  0  0  0  0  0
   -4.2370   -3.5591    0.5873 C   0  0  0  0  0  0  0  0  0  0  0  0
   -6.6878    0.9901   -2.1838 H   0  0  0  0  0  0  0  0  0  0  0  0
   -7.5783    1.3009   -0.6389 H   0  0  0  0  0  0  0  0  0  0  0  0
   -8.1553    0.0799   -1.7806 H   0  0  0  0  0  0  0  0  0  0  0  0
   -5.4601    2.0301   -0.3196 H   0  0  0  0  0  0  0  0  0  0  0  0
   -3.3095    2.4845    0.7195 H   0  0  0  0  0  0  0  0  0  0  0  0
   -1.0682   -0.2116    2.1475 H   0  0  0  0  0  0  0  0  0  0  0  0
   -1.5455    1.4763    2.3850 H   0  0  0  0  0  0  0  0  0  0  0  0
    0.9114    3.2250   -1.2072 H   0  0  0  0  0  0  0  0  0  0  0  0
    0.3241    1.0171   -2.1813 H   0  0  0  0  0  0  0  0  0  0  0  0
    2.7950    1.3832   -2.1941 H   0  0  0  0  0  0  0  0  0  0  0  0
    2.3578   -0.3146   -2.0487 H   0  0  0  0  0  0  0  0  0  0  0  0
    3.1976    1.4368    0.3223 H   0  0  0  0  0  0  0  0  0  0  0  0
    2.8384   -0.3036    0.3685 H   0  0  0  0  0  0  0  0  0  0  0  0
    4.9488   -0.2589    1.3969 H   0  0  0  0  0  0  0  0  0  0  0  0
    9.5662   -1.0071   -0.9336 H   0  0  0  0  0  0  0  0  0  0  0  0
    9.7599   -1.6027    1.6749 H   0  0  0  0  0  0  0  0  0  0  0  0
   -2.5732   -1.7350    1.1529 H   0  0  0  0  0  0  0  0  0  0  0  0
   -4.1047   -3.4469    1.6697 H   0  0  0  0  0  0  0  0  0  0  0  0
   -4.8225   -4.4663    0.4165 H   0  0  0  0  0  0  0  0  0  0  0  0
   -3.2739   -3.6909    0.0801 H   0  0  0  0  0  0  0  0  0  0  0  0
  1  2  1  0
  2  3  1  0
  3  4  2  0
  4  5  1  0
  5  6  2  0
  6  7  1  0
  7  8  1  0
  8  9  1  0
  9 10  2  0
  9 11  1  0
 11 12  1  0
 12 13  1  0
 13 14  1  0
 14 15  1  0
 15 16  2  0
 15 17  1  0
 17 18  1  0
 18 19  2  0
 19 20  1  0
 20 21  2  0
 21 22  1  0
 12 23  1  0
 23 24  2  0
  6 25  1  0
 25 26  2  0
 26 27  1  0
 27 28  1  0
 26  3  1  0
 23  8  1  0
 22 18  1  0
  1 29  1  0
  1 30  1  0
  1 31  1  0
  4 32  1  0
  5 33  1  0
  7 34  1  0
  7 35  1  0
 11 36  1  0
 12 37  1  6
 13 38  1  0
 13 39  1  0
 14 40  1  0
 14 41  1  0
 17 42  1  0
 20 43  1  0
 21 44  1  0
 25 45  1  0
 28 46  1  0
 28 47  1  0
 28 48  1  0
M  END
$$$$
