
     RDKit          3D

 64 69  0  0  0  0  0  0  0  0999 V2000
    2.7815    2.7352    2.3525 C   0  0  0  0  0  0  0  0  0  0  0  0
    1.9925    1.4875    1.9269 C   0  0  2  0  0  0  0  0  0  0  0  0
    2.6675    0.8525    0.8059 N   0  0  0  0  0  0  0  0  0  0  0  0
    3.6515   -0.0921    0.9732 C   0  0  0  0  0  0  0  0  0  0  0  0
    4.0384   -0.4513    2.0802 O   0  0  0  0  0  0  0  0  0  0  0  0
    4.1935   -0.5881   -0.2743 C   0  0  0  0  0  0  0  0  0  0  0  0
    3.5698   -0.8082   -1.5283 C   0  0  0  0  0  0  0  0  0  0  0  0
    2.2700   -0.5965   -1.7793 N   0  0  0  0  0  0  0  0  0  0  0  0
    4.4107   -1.2445   -2.4591 N   0  0  0  0  0  0  0  0  0  0  0  0
    5.6070   -1.3085   -1.8304 N   0  0  0  0  0  0  0  0  0  0  0  0
    6.8344   -1.6750   -2.3812 C   0  0  0  0  0  0  0  0  0  0  0  0
    7.9469   -1.6625   -1.6320 C   0  0  0  0  0  0  0  0  0  0  0  0
    7.7504   -1.2386   -0.2171 C   0  0  0  0  0  0  0  0  0  0  0  0
    6.6230   -0.8873    0.3251 N   0  0  0  0  0  0  0  0  0  0  0  0
    5.5190   -0.9224   -0.4888 C   0  0  0  0  0  0  0  0  0  0  0  0
    0.5348    1.7080    1.4664 C   0  0  0  0  0  0  0  0  0  0  0  0
    0.1181    2.9283    1.0877 C   0  0  0  0  0  0  0  0  0  0  0  0
   -1.1841    3.1415    0.4708 C   0  0  0  0  0  0  0  0  0  0  0  0
   -1.5770    4.4471    0.1364 C   0  0  0  0  0  0  0  0  0  0  0  0
   -2.7847    4.6748   -0.5168 C   0  0  0  0  0  0  0  0  0  0  0  0
   -3.6005    3.5949   -0.8429 C   0  0  0  0  0  0  0  0  0  0  0  0
   -3.2231    2.2833   -0.5124 C   0  0  0  0  0  0  0  0  0  0  0  0
   -4.1280    1.2425   -0.9031 C   0  0  0  0  0  0  0  0  0  0  0  0
   -4.8814    0.3613   -1.2179 C   0  0  0  0  0  0  0  0  0  0  0  0
   -5.7567   -0.7061   -1.5480 C   0  0  0  0  0  0  0  0  0  0  0  0
   -5.7961   -2.0027   -1.0042 C   0  0  0  0  0  0  0  0  0  0  0  0
   -6.7768   -2.7429   -1.5376 N   0  0  0  0  0  0  0  0  0  0  0  0
   -7.3605   -1.9076   -2.4176 N   0  0  0  0  0  0  0  0  0  0  0  0
   -8.5062   -2.3604   -3.1672 C   0  0  0  0  0  0  0  0  0  0  0  0
   -6.7674   -0.6779   -2.4806 C   0  0  0  0  0  0  0  0  0  0  0  0
   -2.0054    2.0516    0.1610 C   0  0  0  0  0  0  0  0  0  0  0  0
   -1.5531    0.6919    0.5957 C   0  0  0  0  0  0  0  0  0  0  0  0
   -2.2854   -0.2720    0.3709 O   0  0  0  0  0  0  0  0  0  0  0  0
   -0.3157    0.5882    1.2914 N   0  0  0  0  0  0  0  0  0  0  0  0
   -0.0206   -0.7110    1.8562 C   0  0  0  0  0  0  0  0  0  0  0  0
   -0.0845   -1.8746    1.0739 C   0  0  0  0  0  0  0  0  0  0  0  0
    0.1880   -3.1283    1.6309 C   0  0  0  0  0  0  0  0  0  0  0  0
    0.5202   -3.2352    2.9786 C   0  0  0  0  0  0  0  0  0  0  0  0
    0.5603   -2.0932    3.7729 C   0  0  0  0  0  0  0  0  0  0  0  0
    0.2763   -0.8402    3.2208 C   0  0  0  0  0  0  0  0  0  0  0  0
    2.9346    3.4273    1.5157 H   0  0  0  0  0  0  0  0  0  0  0  0
    2.2777    3.2649    3.1686 H   0  0  0  0  0  0  0  0  0  0  0  0
    3.7793    2.4492    2.7079 H   0  0  0  0  0  0  0  0  0  0  0  0
    2.0370    0.8251    2.7894 H   0  0  0  0  0  0  0  0  0  0  0  0
    2.4989    1.2026   -0.1356 H   0  0  0  0  0  0  0  0  0  0  0  0
    1.5800   -0.5011   -1.0335 H   0  0  0  0  0  0  0  0  0  0  0  0
    1.8689   -0.9495   -2.6369 H   0  0  0  0  0  0  0  0  0  0  0  0
    6.8192   -1.9521   -3.4280 H   0  0  0  0  0  0  0  0  0  0  0  0
    8.9369   -1.9216   -1.9810 H   0  0  0  0  0  0  0  0  0  0  0  0
    8.6649   -1.2292    0.4006 H   0  0  0  0  0  0  0  0  0  0  0  0
    0.7547    3.8030    1.1696 H   0  0  0  0  0  0  0  0  0  0  0  0
   -0.9440    5.2988    0.3790 H   0  0  0  0  0  0  0  0  0  0  0  0
   -3.0857    5.6877   -0.7751 H   0  0  0  0  0  0  0  0  0  0  0  0
   -4.5436    3.7781   -1.3562 H   0  0  0  0  0  0  0  0  0  0  0  0
   -5.1589   -2.4331   -0.2388 H   0  0  0  0  0  0  0  0  0  0  0  0
   -9.3295   -2.5216   -2.4657 H   0  0  0  0  0  0  0  0  0  0  0  0
   -8.7853   -1.6044   -3.9030 H   0  0  0  0  0  0  0  0  0  0  0  0
   -8.2430   -3.2927   -3.6749 H   0  0  0  0  0  0  0  0  0  0  0  0
   -7.1181    0.0942   -3.1481 H   0  0  0  0  0  0  0  0  0  0  0  0
   -0.3503   -1.8156    0.0201 H   0  0  0  0  0  0  0  0  0  0  0  0
    0.1356   -4.0202    1.0133 H   0  0  0  0  0  0  0  0  0  0  0  0
    0.7396   -4.2100    3.4072 H   0  0  0  0  0  0  0  0  0  0  0  0
    0.8116   -2.1726    4.8267 H   0  0  0  0  0  0  0  0  0  0  0  0
    0.2727    0.0306    3.8681 H   0  0  0  0  0  0  0  0  0  0  0  0
  1  2  1  0
  2  3  1  0
  3  4  1  0
  4  5  2  0
  4  6  1  0
  6  7  1  0
  7  8  1  0
  7  9  2  0
  9 10  1  0
 10 11  1  0
 11 12  2  0
 12 13  1  0
 13 14  2  0
 14 15  1  0
  2 16  1  0
 16 17  2  0
 17 18  1  0
 18 19  2  0
 19 20  1  0
 20 21  2  0
 21 22  1  0
 22 23  1  0
 23 24  3  0
 24 25  1  0
 25 26  1  0
 26 27  2  0
 27 28  1  0
 28 29  1  0
 28 30  1  0
 22 31  2  0
 31 32  1  0
 32 33  2  0
 32 34  1  0
 34 35  1  0
 35 36  2  0
 36 37  1  0
 37 38  2  0
 38 39  1  0
 39 40  2  0
 15  6  2  0
 34 16  1  0
 40 35  1  0
 15 10  1  0
 31 18  1  0
 30 25  2  0
  1 41  1  0
  1 42  1  0
  1 43  1  0
  2 44  1  1
  3 45  1  0
  8 46  1  0
  8 47  1  0
 11 48  1  0
 12 49  1  0
 13 50  1  0
 17 51  1  0
 19 52  1  0
 20 53  1  0
 21 54  1  0
 26 55  1  0
 29 56  1  0
 29 57  1  0
 29 58  1  0
 30 59  1  0
 36 60  1  0
 37 61  1  0
 38 62  1  0
 39 63  1  0
 40 64  1  0
M  END
$$$$
