
     RDKit          3D

 13 13  0  0  0  0  0  0  0  0999 V2000
    2.2892   -0.1852   -0.2697 N   0  0  0  0  0  0  0  0  0  0  0  0
    0.9244   -0.1716   -0.1363 C   0  0  0  0  0  0  0  0  0  0  0  0
    0.2615   -1.1154   -0.7418 N   0  0  0  0  0  0  0  0  0  0  0  0
   -1.1095   -1.1512   -0.6355 C   0  0  0  0  0  0  0  0  0  0  0  0
   -1.7979   -2.0105   -1.1779 O   0  0  0  0  0  0  0  0  0  0  0  0
   -1.7361   -0.1741    0.1093 N   0  0  0  0  0  0  0  0  0  0  0  0
   -1.0702    0.8336    0.7461 C   0  0  0  0  0  0  0  0  0  0  0  0
    0.2545    0.8903    0.6595 C   0  0  0  0  0  0  0  0  0  0  0  0
    1.0123    1.8410    1.2309 F   0  0  0  0  0  0  0  0  0  0  0  0
    2.7638    0.7077   -0.2014 H   0  0  0  0  0  0  0  0  0  0  0  0
    2.6072   -0.7699   -1.0359 H   0  0  0  0  0  0  0  0  0  0  0  0
   -2.7441   -0.2515    0.1521 H   0  0  0  0  0  0  0  0  0  0  0  0
   -1.6550    1.5567    1.3005 H   0  0  0  0  0  0  0  0  0  0  0  0
  1  2  1  0
  2  3  2  0
  3  4  1  0
  4  5  2  0
  4  6  1  0
  6  7  1  0
  7  8  2  0
  8  9  1  0
  8  2  1  0
  1 10  1  0
  1 11  1  0
  6 12  1  0
  7 13  1  0
M  END
$$$$
