
     RDKit          3D

 72 76  0  0  0  0  0  0  0  0999 V2000
   -5.3381   -1.2617   -3.5546 C   0  0  0  0  0  0  0  0  0  0  0  0
   -4.7619   -2.2733   -2.5735 C   0  0  0  0  0  0  0  0  0  0  0  0
   -5.5453   -2.3315   -1.2778 C   0  0  0  0  0  0  0  0  0  0  0  0
   -6.4652   -3.3851   -1.1324 C   0  0  0  0  0  0  0  0  0  0  0  0
   -7.2440   -3.5010    0.0120 C   0  0  0  0  0  0  0  0  0  0  0  0
   -7.1082   -2.5703    1.0352 C   0  0  0  0  0  0  0  0  0  0  0  0
   -6.2048   -1.4943    0.9313 C   0  0  0  0  0  0  0  0  0  0  0  0
   -6.0462   -0.6138    2.1557 C   0  0  0  0  0  0  0  0  0  0  0  0
   -7.3007    0.1813    2.4988 C   0  0  0  0  0  0  0  0  0  0  0  0
   -5.4371   -1.3588   -0.2511 C   0  0  0  0  0  0  0  0  0  0  0  0
   -4.4933   -0.3113   -0.4096 N   0  0  0  0  0  0  0  0  0  0  0  0
   -4.8164    1.0234   -0.2710 C   0  0  0  0  0  0  0  0  0  0  0  0
   -5.9559    1.4605   -0.1443 O   0  0  0  0  0  0  0  0  0  0  0  0
   -3.7236    1.8633   -0.3111 N   0  0  0  0  0  0  0  0  0  0  0  0
   -3.9414    3.3271   -0.1850 C   0  0  0  0  0  0  0  0  0  0  0  0
   -2.5496    3.7473   -0.0851 C   0  0  0  0  0  0  0  0  0  0  0  0
   -1.8784    4.9064    0.0221 N   0  0  0  0  0  0  0  0  0  0  0  0
   -0.5458    4.6929    0.0892 N   0  0  0  0  0  0  0  0  0  0  0  0
   -0.3868    3.3610    0.0418 C   0  0  0  0  0  0  0  0  0  0  0  0
    0.8170    2.6917    0.0961 N   0  0  0  0  0  0  0  0  0  0  0  0
    2.0477    3.2844    0.2963 C   0  0  0  0  0  0  0  0  0  0  0  0
    2.2929    4.4656    0.5055 O   0  0  0  0  0  0  0  0  0  0  0  0
    3.1911    2.3282    0.2977 C   0  0  0  0  0  0  0  0  0  0  0  0
    4.2477    2.5476    1.1803 C   0  0  0  0  0  0  0  0  0  0  0  0
    5.3333    1.6621    1.2142 C   0  0  0  0  0  0  0  0  0  0  0  0
    5.4084    0.5410    0.3713 C   0  0  0  0  0  0  0  0  0  0  0  0
    6.4823   -0.3316    0.4057 N   0  0  0  0  0  0  0  0  0  0  0  0
    7.7598    0.0326    1.0441 C   0  0  0  0  0  0  0  0  0  0  0  0
    8.9175   -0.8123    0.4637 C   0  0  0  0  0  0  0  0  0  0  0  0
    8.7608   -2.2702    0.6597 N   0  0  0  0  0  0  0  0  0  0  0  0
    9.5139   -3.0067   -0.3516 C   0  0  0  0  0  0  0  0  0  0  0  0
    7.3362   -2.6602    0.6774 C   0  0  0  0  0  0  0  0  0  0  0  0
    6.3699   -1.7179   -0.0801 C   0  0  0  0  0  0  0  0  0  0  0  0
    4.3403    0.3608   -0.5246 C   0  0  0  0  0  0  0  0  0  0  0  0
    3.2465    1.2374   -0.5708 C   0  0  0  0  0  0  0  0  0  0  0  0
   -1.6355    2.7401   -0.0818 C   0  0  0  0  0  0  0  0  0  0  0  0
   -2.2956    1.4384   -0.1929 C   0  0  0  0  0  0  0  0  0  0  0  0
   -4.7535   -1.2608   -4.4801 H   0  0  0  0  0  0  0  0  0  0  0  0
   -5.3249   -0.2456   -3.1480 H   0  0  0  0  0  0  0  0  0  0  0  0
   -6.3755   -1.5063   -3.8082 H   0  0  0  0  0  0  0  0  0  0  0  0
   -4.7591   -3.2626   -3.0496 H   0  0  0  0  0  0  0  0  0  0  0  0
   -3.7066   -2.0584   -2.3711 H   0  0  0  0  0  0  0  0  0  0  0  0
   -6.5845   -4.1248   -1.9215 H   0  0  0  0  0  0  0  0  0  0  0  0
   -7.9485   -4.3219    0.1133 H   0  0  0  0  0  0  0  0  0  0  0  0
   -7.7022   -2.6992    1.9385 H   0  0  0  0  0  0  0  0  0  0  0  0
   -5.7900   -1.2590    3.0066 H   0  0  0  0  0  0  0  0  0  0  0  0
   -5.1963    0.0676    2.0626 H   0  0  0  0  0  0  0  0  0  0  0  0
   -7.0947    0.8664    3.3269 H   0  0  0  0  0  0  0  0  0  0  0  0
   -8.1171   -0.4776    2.8121 H   0  0  0  0  0  0  0  0  0  0  0  0
   -7.6574    0.7693    1.6486 H   0  0  0  0  0  0  0  0  0  0  0  0
   -3.8315   -0.4366   -1.1572 H   0  0  0  0  0  0  0  0  0  0  0  0
   -4.5245    3.5366    0.7161 H   0  0  0  0  0  0  0  0  0  0  0  0
   -4.4533    3.6903   -1.0796 H   0  0  0  0  0  0  0  0  0  0  0  0
   -2.2174    5.8633    0.0562 H   0  0  0  0  0  0  0  0  0  0  0  0
    0.7631    1.6867    0.0669 H   0  0  0  0  0  0  0  0  0  0  0  0
    4.2308    3.4046    1.8508 H   0  0  0  0  0  0  0  0  0  0  0  0
    6.1189    1.8671    1.9372 H   0  0  0  0  0  0  0  0  0  0  0  0
    7.6899   -0.1161    2.1284 H   0  0  0  0  0  0  0  0  0  0  0  0
    7.9993    1.0864    0.8563 H   0  0  0  0  0  0  0  0  0  0  0  0
    8.9916   -0.5781   -0.6073 H   0  0  0  0  0  0  0  0  0  0  0  0
    9.8590   -0.4968    0.9280 H   0  0  0  0  0  0  0  0  0  0  0  0
   10.5690   -2.7092   -0.3404 H   0  0  0  0  0  0  0  0  0  0  0  0
    9.4887   -4.0814   -0.1405 H   0  0  0  0  0  0  0  0  0  0  0  0
    9.1187   -2.8438   -1.3612 H   0  0  0  0  0  0  0  0  0  0  0  0
    7.0272   -2.6758    1.7309 H   0  0  0  0  0  0  0  0  0  0  0  0
    7.2011   -3.6887    0.3197 H   0  0  0  0  0  0  0  0  0  0  0  0
    5.3549   -2.1047    0.0723 H   0  0  0  0  0  0  0  0  0  0  0  0
    6.5873   -1.7459   -1.1546 H   0  0  0  0  0  0  0  0  0  0  0  0
    4.3596   -0.4579   -1.2394 H   0  0  0  0  0  0  0  0  0  0  0  0
    2.4744    1.0712   -1.3160 H   0  0  0  0  0  0  0  0  0  0  0  0
   -2.1771    0.8151    0.6974 H   0  0  0  0  0  0  0  0  0  0  0  0
   -2.0110    0.8905   -1.0947 H   0  0  0  0  0  0  0  0  0  0  0  0
  1  2  1  0
  2  3  1  0
  3  4  2  0
  4  5  1  0
  5  6  2  0
  6  7  1  0
  7  8  1  0
  8  9  1  0
  7 10  2  0
 10 11  1  0
 11 12  1  0
 12 13  2  0
 12 14  1  0
 14 15  1  0
 15 16  1  0
 16 17  1  0
 17 18  1  0
 18 19  2  0
 19 20  1  0
 20 21  1  0
 21 22  2  0
 21 23  1  0
 23 24  2  0
 24 25  1  0
 25 26  2  0
 26 27  1  0
 27 28  1  0
 28 29  1  0
 29 30  1  0
 30 31  1  0
 30 32  1  0
 32 33  1  0
 26 34  1  0
 34 35  2  0
 19 36  1  0
 36 37  1  0
 10  3  1  0
 37 14  1  0
 36 16  2  0
 35 23  1  0
 33 27  1  0
  1 38  1  0
  1 39  1  0
  1 40  1  0
  2 41  1  0
  2 42  1  0
  4 43  1  0
  5 44  1  0
  6 45  1  0
  8 46  1  0
  8 47  1  0
  9 48  1  0
  9 49  1  0
  9 50  1  0
 11 51  1  0
 15 52  1  0
 15 53  1  0
 17 54  1  0
 20 55  1  0
 24 56  1  0
 25 57  1  0
 28 58  1  0
 28 59  1  0
 29 60  1  0
 29 61  1  0
 31 62  1  0
 31 63  1  0
 31 64  1  0
 32 65  1  0
 32 66  1  0
 33 67  1  0
 33 68  1  0
 34 69  1  0
 35 70  1  0
 37 71  1  0
 37 72  1  0
M  END
$$$$
