
     RDKit          3D

 41 44  0  0  0  0  0  0  0  0999 V2000
    0.1530    3.8213   -0.4945 C   0  0  0  0  0  0  0  0  0  0  0  0
    0.0862    2.8991    0.5972 O   0  0  0  0  0  0  0  0  0  0  0  0
   -0.9237    1.9735    0.4451 C   0  0  0  0  0  0  0  0  0  0  0  0
   -2.2704    2.3435    0.5917 C   0  0  0  0  0  0  0  0  0  0  0  0
   -2.7671    3.9815    0.8548 Cl  0  0  0  0  0  0  0  0  0  0  0  0
   -3.2863    1.3796    0.6090 C   0  0  0  0  0  0  0  0  0  0  0  0
   -2.9538    0.0154    0.5233 C   0  0  0  0  0  0  0  0  0  0  0  0
   -1.6095   -0.3410    0.4121 C   0  0  0  0  0  0  0  0  0  0  0  0
   -1.5789   -1.7183    0.3306 N   0  0  0  0  0  0  0  0  0  0  0  0
   -2.8408   -2.2520    0.4166 C   0  0  0  0  0  0  0  0  0  0  0  0
   -3.2679   -3.5732    0.3891 C   0  0  0  0  0  0  0  0  0  0  0  0
   -4.5893   -3.8381    0.4902 N   0  0  0  0  0  0  0  0  0  0  0  0
   -5.4579   -2.8103    0.6095 C   0  0  0  0  0  0  0  0  0  0  0  0
   -5.0983   -1.4712    0.6390 C   0  0  0  0  0  0  0  0  0  0  0  0
   -3.7282   -1.1876    0.5380 C   0  0  0  0  0  0  0  0  0  0  0  0
   -0.5667    0.6063    0.3533 C   0  0  0  0  0  0  0  0  0  0  0  0
    0.7655    0.1387    0.2992 N   0  0  0  0  0  0  0  0  0  0  0  0
    1.7754    0.6973   -0.4643 C   0  0  0  0  0  0  0  0  0  0  0  0
    1.6370    1.5241   -1.3546 O   0  0  0  0  0  0  0  0  0  0  0  0
    3.1153    0.1159   -0.2034 C   0  0  0  0  0  0  0  0  0  0  0  0
    3.5463   -0.0447    1.1203 C   0  0  0  0  0  0  0  0  0  0  0  0
    4.7983   -0.5948    1.3733 C   0  0  0  0  0  0  0  0  0  0  0  0
    5.5764   -0.9675    0.2925 C   0  0  0  0  0  0  0  0  0  0  0  0
    5.1898   -0.8249   -0.9943 N   0  0  0  0  0  0  0  0  0  0  0  0
    3.9685   -0.2734   -1.2387 C   0  0  0  0  0  0  0  0  0  0  0  0
    3.6026   -0.1264   -2.6868 C   0  0  0  0  0  0  0  0  0  0  0  0
   -0.2891    4.7770   -0.2003 H   0  0  0  0  0  0  0  0  0  0  0  0
   -0.3271    3.4488   -1.4070 H   0  0  0  0  0  0  0  0  0  0  0  0
    1.2086    4.0115   -0.7118 H   0  0  0  0  0  0  0  0  0  0  0  0
   -4.3251    1.6775    0.7221 H   0  0  0  0  0  0  0  0  0  0  0  0
   -0.7425   -2.2658    0.1958 H   0  0  0  0  0  0  0  0  0  0  0  0
   -2.6018   -4.4215    0.2911 H   0  0  0  0  0  0  0  0  0  0  0  0
   -6.5025   -3.1019    0.6836 H   0  0  0  0  0  0  0  0  0  0  0  0
   -5.8442   -0.6919    0.7347 H   0  0  0  0  0  0  0  0  0  0  0  0
    0.9431   -0.7892    0.6561 H   0  0  0  0  0  0  0  0  0  0  0  0
    2.9259    0.2829    1.9512 H   0  0  0  0  0  0  0  0  0  0  0  0
    5.1633   -0.7191    2.3870 H   0  0  0  0  0  0  0  0  0  0  0  0
    6.5638   -1.3990    0.4332 H   0  0  0  0  0  0  0  0  0  0  0  0
    2.6270   -0.5791   -2.8892 H   0  0  0  0  0  0  0  0  0  0  0  0
    4.3369   -0.6326   -3.3227 H   0  0  0  0  0  0  0  0  0  0  0  0
    3.5882    0.9296   -2.9722 H   0  0  0  0  0  0  0  0  0  0  0  0
  1  2  1  0
  2  3  1  0
  3  4  2  0
  4  5  1  0
  4  6  1  0
  6  7  2  0
  7  8  1  0
  8  9  1  0
  9 10  1  0
 10 11  2  0
 11 12  1  0
 12 13  2  0
 13 14  1  0
 14 15  2  0
  8 16  2  0
 16 17  1  0
 17 18  1  0
 18 19  2  0
 18 20  1  0
 20 21  2  0
 21 22  1  0
 22 23  2  0
 23 24  1  0
 24 25  2  0
 25 26  1  0
 16  3  1  0
 25 20  1  0
 15  7  1  0
 15 10  1  0
  1 27  1  0
  1 28  1  0
  1 29  1  0
  6 30  1  0
  9 31  1  0
 11 32  1  0
 13 33  1  0
 14 34  1  0
 17 35  1  0
 21 36  1  0
 22 37  1  0
 23 38  1  0
 26 39  1  0
 26 40  1  0
 26 41  1  0
M  END
$$$$
