
     RDKit          3D

 46 49  0  0  0  0  0  0  0  0999 V2000
   -2.4226   -1.6369   -1.6263 O   0  0  0  0  0  0  0  0  0  0  0  0
   -2.3783   -0.7022   -0.8338 C   0  0  0  0  0  0  0  0  0  0  0  0
   -1.0879   -0.1143   -0.3104 C   0  0  0  0  0  0  0  0  0  0  0  0
    0.1132   -0.6571   -1.0666 C   0  0  0  0  0  0  0  0  0  0  0  0
    0.4015   -2.0361   -0.7921 N   0  0  0  0  0  0  0  0  0  0  0  0
    1.7118   -2.2303   -0.4174 C   0  0  0  0  0  0  0  0  0  0  0  0
    2.1759   -3.3491   -0.2558 O   0  0  0  0  0  0  0  0  0  0  0  0
    2.3250   -1.0034   -0.3082 N   0  0  0  0  0  0  0  0  0  0  0  0
    3.6449   -0.8051    0.1931 C   0  0  0  0  0  0  0  0  0  0  0  0
    4.0783   -1.6499    1.2351 C   0  0  0  0  0  0  0  0  0  0  0  0
    5.3191   -1.4799    1.8401 C   0  0  0  0  0  0  0  0  0  0  0  0
    6.1605   -0.4639    1.4090 C   0  0  0  0  0  0  0  0  0  0  0  0
    5.7907    0.3756    0.3506 C   0  0  0  0  0  0  0  0  0  0  0  0
    6.6917    1.3664   -0.0760 C   0  0  0  0  0  0  0  0  0  0  0  0
    6.3966    2.1919   -1.1580 C   0  0  0  0  0  0  0  0  0  0  0  0
    5.2033    2.0198   -1.8403 C   0  0  0  0  0  0  0  0  0  0  0  0
    4.2964    1.0384   -1.4228 C   0  0  0  0  0  0  0  0  0  0  0  0
    4.5326    0.2099   -0.2943 C   0  0  0  0  0  0  0  0  0  0  0  0
    1.4106   -0.0083   -0.5862 C   0  0  0  0  0  0  0  0  0  0  0  0
    1.5320    1.2049   -0.4689 O   0  0  0  0  0  0  0  0  0  0  0  0
   -3.5011   -0.1089   -0.3017 N   0  0  0  0  0  0  0  0  0  0  0  0
   -4.8164   -0.4776   -0.7867 C   0  0  0  0  0  0  0  0  0  0  0  0
   -5.8952    0.2165    0.0067 C   0  0  0  0  0  0  0  0  0  0  0  0
   -6.6328   -0.4757    0.9655 C   0  0  0  0  0  0  0  0  0  0  0  0
   -7.6010    0.2152    1.6903 C   0  0  0  0  0  0  0  0  0  0  0  0
   -7.8054    1.5688    1.4429 C   0  0  0  0  0  0  0  0  0  0  0  0
   -7.0159    2.1873    0.4893 C   0  0  0  0  0  0  0  0  0  0  0  0
   -6.0626    1.5482   -0.2238 N   0  0  0  0  0  0  0  0  0  0  0  0
   -1.0114   -0.3465    0.7604 H   0  0  0  0  0  0  0  0  0  0  0  0
   -1.1367    0.9767   -0.4182 H   0  0  0  0  0  0  0  0  0  0  0  0
    0.0260   -0.5245   -2.1506 H   0  0  0  0  0  0  0  0  0  0  0  0
   -0.1778   -2.8125   -1.0941 H   0  0  0  0  0  0  0  0  0  0  0  0
    3.4336   -2.4363    1.6249 H   0  0  0  0  0  0  0  0  0  0  0  0
    5.6225   -2.1342    2.6542 H   0  0  0  0  0  0  0  0  0  0  0  0
    7.1266   -0.3447    1.8984 H   0  0  0  0  0  0  0  0  0  0  0  0
    7.6451    1.5000    0.4330 H   0  0  0  0  0  0  0  0  0  0  0  0
    7.1014    2.9571   -1.4727 H   0  0  0  0  0  0  0  0  0  0  0  0
    4.9673    2.6428   -2.7008 H   0  0  0  0  0  0  0  0  0  0  0  0
    3.3937    0.9269   -2.0163 H   0  0  0  0  0  0  0  0  0  0  0  0
   -3.4228    0.8401    0.0509 H   0  0  0  0  0  0  0  0  0  0  0  0
   -4.9243   -1.5674   -0.7475 H   0  0  0  0  0  0  0  0  0  0  0  0
   -4.8854   -0.1743   -1.8394 H   0  0  0  0  0  0  0  0  0  0  0  0
   -6.4562   -1.5296    1.1529 H   0  0  0  0  0  0  0  0  0  0  0  0
   -8.1892   -0.2987    2.4469 H   0  0  0  0  0  0  0  0  0  0  0  0
   -8.5523    2.1334    1.9879 H   0  0  0  0  0  0  0  0  0  0  0  0
   -7.1249    3.2474    0.2769 H   0  0  0  0  0  0  0  0  0  0  0  0
  1  2  2  0
  2  3  1  0
  3  4  1  0
  4  5  1  0
  5  6  1  0
  6  7  2  0
  6  8  1  0
  8  9  1  0
  9 10  2  0
 10 11  1  0
 11 12  2  0
 12 13  1  0
 13 14  2  0
 14 15  1  0
 15 16  2  0
 16 17  1  0
 17 18  2  0
  8 19  1  0
 19 20  2  0
  2 21  1  0
 21 22  1  0
 22 23  1  0
 23 24  2  0
 24 25  1  0
 25 26  2  0
 26 27  1  0
 27 28  2  0
 19  4  1  0
 28 23  1  0
 18  9  1  0
 18 13  1  0
  3 29  1  0
  3 30  1  0
  4 31  1  0
  5 32  1  0
 10 33  1  0
 11 34  1  0
 12 35  1  0
 14 36  1  0
 15 37  1  0
 16 38  1  0
 17 39  1  0
 21 40  1  0
 22 41  1  0
 22 42  1  0
 24 43  1  0
 25 44  1  0
 26 45  1  0
 27 46  1  0
M  END
$$$$
