
     RDKit          3D

 65 69  0  0  0  0  0  0  0  0999 V2000
    7.8069   -2.7869    1.5360 C   0  0  0  0  0  0  0  0  0  0  0  0
    7.5840   -1.5511    0.8675 O   0  0  0  0  0  0  0  0  0  0  0  0
    6.2821   -1.1535    0.7014 C   0  0  0  0  0  0  0  0  0  0  0  0
    5.1705   -1.8513    1.1726 C   0  0  0  0  0  0  0  0  0  0  0  0
    3.8777   -1.3643    0.9431 C   0  0  0  0  0  0  0  0  0  0  0  0
    3.6471   -0.1710    0.2386 C   0  0  0  0  0  0  0  0  0  0  0  0
    2.2667    0.3190    0.0120 C   0  0  0  0  0  0  0  0  0  0  0  0
    1.9583    1.6451   -0.2492 C   0  0  0  0  0  0  0  0  0  0  0  0
    0.6267    1.9905   -0.4349 C   0  0  0  0  0  0  0  0  0  0  0  0
   -0.3832    1.0074   -0.3401 C   0  0  0  0  0  0  0  0  0  0  0  0
   -1.7610    1.2204   -0.4968 C   0  0  0  0  0  0  0  0  0  0  0  0
   -2.2743    2.5117   -0.6748 N   0  0  0  0  0  0  0  0  0  0  0  0
   -2.1913    3.4094    0.4948 C   0  0  0  0  0  0  0  0  0  0  0  0
   -2.4003    4.8610    0.0223 C   0  0  0  0  0  0  0  0  0  0  0  0
   -3.6198    5.0276   -0.7201 O   0  0  0  0  0  0  0  0  0  0  0  0
   -3.6502    4.1408   -1.8568 C   0  0  0  0  0  0  0  0  0  0  0  0
   -3.5509    2.6561   -1.4223 C   0  0  2  0  0  0  0  0  0  0  0  0
   -4.8031    2.2872   -0.6136 C   0  0  0  0  0  0  0  0  0  0  0  0
   -2.6106    0.1845   -0.5180 N   0  0  0  0  0  0  0  0  0  0  0  0
   -2.1454   -1.0499   -0.2957 C   0  0  0  0  0  0  0  0  0  0  0  0
   -3.0298   -2.1196   -0.3214 N   0  0  0  0  0  0  0  0  0  0  0  0
   -4.4603   -1.7971   -0.3170 C   0  0  0  0  0  0  0  0  0  0  0  0
   -5.2892   -3.0476   -0.6514 C   0  0  0  0  0  0  0  0  0  0  0  0
   -4.9537   -4.1610    0.1904 O   0  0  0  0  0  0  0  0  0  0  0  0
   -3.5654   -4.4963    0.0240 C   0  0  0  0  0  0  0  0  0  0  0  0
   -2.6377   -3.3292    0.4317 C   0  0  2  0  0  0  0  0  0  0  0  0
   -2.7101   -3.0995    1.9470 C   0  0  0  0  0  0  0  0  0  0  0  0
   -0.8562   -1.2997   -0.0718 N   0  0  0  0  0  0  0  0  0  0  0  0
    0.0097   -0.3039   -0.1090 C   0  0  0  0  0  0  0  0  0  0  0  0
    1.2923   -0.6241    0.0799 N   0  0  0  0  0  0  0  0  0  0  0  0
    4.7821    0.5116   -0.2353 C   0  0  0  0  0  0  0  0  0  0  0  0
    6.0942    0.0481   -0.0036 C   0  0  0  0  0  0  0  0  0  0  0  0
    7.2944    0.7999   -0.5295 C   0  0  0  0  0  0  0  0  0  0  0  0
    6.9464    2.0827   -1.0463 O   0  0  0  0  0  0  0  0  0  0  0  0
    8.8869   -2.9614    1.5639 H   0  0  0  0  0  0  0  0  0  0  0  0
    7.4505   -2.7454    2.5705 H   0  0  0  0  0  0  0  0  0  0  0  0
    7.3502   -3.6194    0.9907 H   0  0  0  0  0  0  0  0  0  0  0  0
    5.2638   -2.7817    1.7227 H   0  0  0  0  0  0  0  0  0  0  0  0
    3.0327   -1.9375    1.3245 H   0  0  0  0  0  0  0  0  0  0  0  0
    2.7220    2.4128   -0.3031 H   0  0  0  0  0  0  0  0  0  0  0  0
    0.3748    3.0203   -0.6716 H   0  0  0  0  0  0  0  0  0  0  0  0
   -1.2269    3.3488    1.0089 H   0  0  0  0  0  0  0  0  0  0  0  0
   -2.9594    3.1378    1.2281 H   0  0  0  0  0  0  0  0  0  0  0  0
   -1.5633    5.1867   -0.6063 H   0  0  0  0  0  0  0  0  0  0  0  0
   -2.4451    5.5291    0.8880 H   0  0  0  0  0  0  0  0  0  0  0  0
   -4.5883    4.3234   -2.3916 H   0  0  0  0  0  0  0  0  0  0  0  0
   -2.8269    4.4066   -2.5312 H   0  0  0  0  0  0  0  0  0  0  0  0
   -3.5156    2.0410   -2.3307 H   0  0  0  0  0  0  0  0  0  0  0  0
   -5.6920    2.3600   -1.2505 H   0  0  0  0  0  0  0  0  0  0  0  0
   -4.9634    2.9558    0.2379 H   0  0  0  0  0  0  0  0  0  0  0  0
   -4.7714    1.2703   -0.2205 H   0  0  0  0  0  0  0  0  0  0  0  0
   -4.7502   -1.4170    0.6700 H   0  0  0  0  0  0  0  0  0  0  0  0
   -4.7038   -1.0339   -1.0651 H   0  0  0  0  0  0  0  0  0  0  0  0
   -5.1462   -3.3411   -1.6987 H   0  0  0  0  0  0  0  0  0  0  0  0
   -6.3538   -2.8339   -0.5122 H   0  0  0  0  0  0  0  0  0  0  0  0
   -3.3628   -5.3805    0.6376 H   0  0  0  0  0  0  0  0  0  0  0  0
   -3.3936   -4.7783   -1.0224 H   0  0  0  0  0  0  0  0  0  0  0  0
   -1.6169   -3.6341    0.1682 H   0  0  0  0  0  0  0  0  0  0  0  0
   -2.4126   -4.0059    2.4853 H   0  0  0  0  0  0  0  0  0  0  0  0
   -3.7203   -2.8346    2.2753 H   0  0  0  0  0  0  0  0  0  0  0  0
   -2.0397   -2.2942    2.2638 H   0  0  0  0  0  0  0  0  0  0  0  0
    4.6615    1.4235   -0.8166 H   0  0  0  0  0  0  0  0  0  0  0  0
    7.7630    0.2260   -1.3357 H   0  0  0  0  0  0  0  0  0  0  0  0
    8.0175    0.9598    0.2775 H   0  0  0  0  0  0  0  0  0  0  0  0
    7.7827    2.5003   -1.3105 H   0  0  0  0  0  0  0  0  0  0  0  0
  1  2  1  0
  2  3  1  0
  3  4  2  0
  4  5  1  0
  5  6  2  0
  6  7  1  0
  7  8  2  0
  8  9  1  0
  9 10  2  0
 10 11  1  0
 11 12  1  0
 12 13  1  0
 13 14  1  0
 14 15  1  0
 15 16  1  0
 16 17  1  0
 17 18  1  0
 11 19  2  0
 19 20  1  0
 20 21  1  0
 21 22  1  0
 22 23  1  0
 23 24  1  0
 24 25  1  0
 25 26  1  0
 26 27  1  0
 20 28  2  0
 28 29  1  0
 29 30  2  0
  6 31  1  0
 31 32  2  0
 32 33  1  0
 33 34  1  0
 32  3  1  0
 30  7  1  0
 29 10  1  0
 17 12  1  0
 26 21  1  0
  1 35  1  0
  1 36  1  0
  1 37  1  0
  4 38  1  0
  5 39  1  0
  8 40  1  0
  9 41  1  0
 13 42  1  0
 13 43  1  0
 14 44  1  0
 14 45  1  0
 16 46  1  0
 16 47  1  0
 17 48  1  6
 18 49  1  0
 18 50  1  0
 18 51  1  0
 22 52  1  0
 22 53  1  0
 23 54  1  0
 23 55  1  0
 25 56  1  0
 25 57  1  0
 26 58  1  6
 27 59  1  0
 27 60  1  0
 27 61  1  0
 31 62  1  0
 33 63  1  0
 33 64  1  0
 34 65  1  0
M  END
$$$$
