
     RDKit          3D

 59 62  0  0  0  0  0  0  0  0999 V2000
    6.6416    0.5512    0.8322 C   0  0  0  0  0  0  0  0  0  0  0  0
    6.5542   -0.8605    0.9924 O   0  0  0  0  0  0  0  0  0  0  0  0
    5.4662   -1.4102    0.3427 C   0  0  0  0  0  0  0  0  0  0  0  0
    5.3033   -2.7793    0.4759 C   0  0  0  0  0  0  0  0  0  0  0  0
    4.2221   -3.3794   -0.1577 C   0  0  0  0  0  0  0  0  0  0  0  0
    3.3483   -2.5914   -0.8992 C   0  0  0  0  0  0  0  0  0  0  0  0
    3.5837   -1.2189   -0.9844 C   0  0  0  0  0  0  0  0  0  0  0  0
    2.6415   -0.3305   -1.7793 C   0  0  0  0  0  0  0  0  0  0  0  0
    1.2402   -0.3542   -1.2965 N   0  0  0  0  0  0  0  0  0  0  0  0
    0.3712    0.3385   -2.2561 C   0  0  0  0  0  0  0  0  0  0  0  0
   -1.0932    0.1995   -1.8356 C   0  0  0  0  0  0  0  0  0  0  0  0
   -1.3491    0.7697   -0.4223 C   0  0  1  0  0  0  0  0  0  0  0  0
   -1.4141    2.2711   -0.4646 C   0  0  0  0  0  0  0  0  0  0  0  0
   -0.5542    3.1313    0.0394 N   0  0  0  0  0  0  0  0  0  0  0  0
   -1.0838    4.3512   -0.2872 C   0  0  0  0  0  0  0  0  0  0  0  0
   -0.4398    5.6245    0.0891 C   0  0  0  0  0  0  0  0  0  0  0  0
   -2.2289    4.2941   -0.9753 N   0  0  0  0  0  0  0  0  0  0  0  0
   -2.4173    2.9719   -1.0798 N   0  0  0  0  0  0  0  0  0  0  0  0
   -2.6355    0.1781    0.1919 C   0  0  0  0  0  0  0  0  0  0  0  0
   -2.2348   -1.0817    0.7996 N   0  0  0  0  0  0  0  0  0  0  0  0
   -3.0083   -2.1134    1.2753 C   0  0  0  0  0  0  0  0  0  0  0  0
   -2.4822   -3.1073    1.7879 O   0  0  0  0  0  0  0  0  0  0  0  0
   -4.5314   -2.0828    1.1349 C   0  0  0  0  0  0  0  0  0  0  0  0
   -4.9776   -2.3754   -0.2931 C   0  0  0  0  0  0  0  0  0  0  0  0
   -5.2011   -0.8455    1.7191 C   0  0  0  0  0  0  0  0  0  0  0  0
   -0.7834   -1.1475    0.9290 C   0  0  0  0  0  0  0  0  0  0  0  0
   -0.2874    0.2574    0.5765 C   0  0  1  0  0  0  0  0  0  0  0  0
    1.1406    0.2811    0.0308 C   0  0  0  0  0  0  0  0  0  0  0  0
    4.6364   -0.6197   -0.3716 N   0  0  0  0  0  0  0  0  0  0  0  0
    6.7824    0.8238   -0.2196 H   0  0  0  0  0  0  0  0  0  0  0  0
    5.7659    1.0548    1.2564 H   0  0  0  0  0  0  0  0  0  0  0  0
    7.5216    0.8950    1.3844 H   0  0  0  0  0  0  0  0  0  0  0  0
    6.0025   -3.3621    1.0639 H   0  0  0  0  0  0  0  0  0  0  0  0
    4.0579   -4.4493   -0.0701 H   0  0  0  0  0  0  0  0  0  0  0  0
    2.4886   -3.0345   -1.3927 H   0  0  0  0  0  0  0  0  0  0  0  0
    3.0292    0.6969   -1.7934 H   0  0  0  0  0  0  0  0  0  0  0  0
    2.6800   -0.6926   -2.8154 H   0  0  0  0  0  0  0  0  0  0  0  0
    0.6467    1.3961   -2.3579 H   0  0  0  0  0  0  0  0  0  0  0  0
    0.4758   -0.1184   -3.2480 H   0  0  0  0  0  0  0  0  0  0  0  0
   -1.7312    0.6925   -2.5800 H   0  0  0  0  0  0  0  0  0  0  0  0
   -1.3634   -0.8648   -1.8735 H   0  0  0  0  0  0  0  0  0  0  0  0
   -0.1872    6.2059   -0.8030 H   0  0  0  0  0  0  0  0  0  0  0  0
   -1.1077    6.2227    0.7165 H   0  0  0  0  0  0  0  0  0  0  0  0
    0.4826    5.4445    0.6498 H   0  0  0  0  0  0  0  0  0  0  0  0
   -3.2298    2.6288   -1.5792 H   0  0  0  0  0  0  0  0  0  0  0  0
   -3.4239    0.0344   -0.5485 H   0  0  0  0  0  0  0  0  0  0  0  0
   -3.0223    0.8138    0.9974 H   0  0  0  0  0  0  0  0  0  0  0  0
   -4.8799   -2.9257    1.7504 H   0  0  0  0  0  0  0  0  0  0  0  0
   -4.7697   -1.5488   -0.9762 H   0  0  0  0  0  0  0  0  0  0  0  0
   -4.4669   -3.2614   -0.6859 H   0  0  0  0  0  0  0  0  0  0  0  0
   -6.0557   -2.5662   -0.3255 H   0  0  0  0  0  0  0  0  0  0  0  0
   -5.1969   -0.0019    1.0236 H   0  0  0  0  0  0  0  0  0  0  0  0
   -6.2514   -1.0583    1.9479 H   0  0  0  0  0  0  0  0  0  0  0  0
   -4.7123   -0.5293    2.6464 H   0  0  0  0  0  0  0  0  0  0  0  0
   -0.4214   -1.9205    0.2421 H   0  0  0  0  0  0  0  0  0  0  0  0
   -0.5033   -1.4347    1.9482 H   0  0  0  0  0  0  0  0  0  0  0  0
   -0.3168    0.8608    1.4959 H   0  0  0  0  0  0  0  0  0  0  0  0
    1.7804   -0.2410    0.7523 H   0  0  0  0  0  0  0  0  0  0  0  0
    1.4990    1.3176   -0.0165 H   0  0  0  0  0  0  0  0  0  0  0  0
  1  2  1  0
  2  3  1  0
  3  4  2  0
  4  5  1  0
  5  6  2  0
  6  7  1  0
  7  8  1  0
  8  9  1  0
  9 10  1  0
 10 11  1  0
 11 12  1  0
 12 13  1  6
 13 14  2  0
 14 15  1  0
 15 16  1  0
 15 17  2  0
 17 18  1  0
 12 19  1  0
 19 20  1  0
 20 21  1  0
 21 22  2  0
 21 23  1  0
 23 24  1  0
 23 25  1  0
 20 26  1  0
 26 27  1  0
 27 28  1  0
  7 29  2  0
 29  3  1  0
 28  9  1  0
 27 12  1  0
 18 13  1  0
  1 30  1  0
  1 31  1  0
  1 32  1  0
  4 33  1  0
  5 34  1  0
  6 35  1  0
  8 36  1  0
  8 37  1  0
 10 38  1  0
 10 39  1  0
 11 40  1  0
 11 41  1  0
 16 42  1  0
 16 43  1  0
 16 44  1  0
 18 45  1  0
 19 46  1  0
 19 47  1  0
 23 48  1  0
 24 49  1  0
 24 50  1  0
 24 51  1  0
 25 52  1  0
 25 53  1  0
 25 54  1  0
 26 55  1  0
 26 56  1  0
 27 57  1  1
 28 58  1  0
 28 59  1  0
M  END
$$$$
