
     RDKit          3D

 47 49  0  0  0  0  0  0  0  0999 V2000
    8.6774   -2.2074   -0.4977 O   0  0  0  0  0  0  0  0  0  0  0  0
    8.1593   -1.8021    0.5280 C   0  0  0  0  0  0  0  0  0  0  0  0
    8.8707   -1.7273    1.6702 O   0  0  0  0  0  0  0  0  0  0  0  0
    6.7435   -1.3393    0.7180 C   0  0  0  0  0  0  0  0  0  0  0  0
    5.9523   -1.4518   -0.5817 C   0  0  0  0  0  0  0  0  0  0  0  0
    4.5289   -0.9882   -0.4034 C   0  0  0  0  0  0  0  0  0  0  0  0
    3.5354   -1.8797    0.0078 C   0  0  0  0  0  0  0  0  0  0  0  0
    2.2201   -1.4384    0.1888 C   0  0  0  0  0  0  0  0  0  0  0  0
    1.8640   -0.0963   -0.0023 C   0  0  0  0  0  0  0  0  0  0  0  0
    0.5199    0.2614    0.1322 N   0  0  0  0  0  0  0  0  0  0  0  0
    0.1571    1.6615    0.2941 C   0  0  0  0  0  0  0  0  0  0  0  0
   -1.3191    1.7577    0.6005 C   0  0  0  0  0  0  0  0  0  0  0  0
   -1.7673    2.0183    1.9041 C   0  0  0  0  0  0  0  0  0  0  0  0
   -3.1338    2.1009    2.1810 C   0  0  0  0  0  0  0  0  0  0  0  0
   -4.0666    1.9104    1.1621 C   0  0  0  0  0  0  0  0  0  0  0  0
   -3.6296    1.6180   -0.1313 C   0  0  0  0  0  0  0  0  0  0  0  0
   -4.4990    1.4489   -1.1848 O   0  0  0  0  0  0  0  0  0  0  0  0
   -5.5516    0.5816   -0.9980 C   0  0  0  0  0  0  0  0  0  0  0  0
   -6.8058    1.0038   -1.4398 C   0  0  0  0  0  0  0  0  0  0  0  0
   -7.9091    0.1597   -1.3104 C   0  0  0  0  0  0  0  0  0  0  0  0
   -7.7537   -1.1104   -0.7539 C   0  0  0  0  0  0  0  0  0  0  0  0
   -6.4946   -1.5409   -0.3334 C   0  0  0  0  0  0  0  0  0  0  0  0
   -5.3894   -0.6985   -0.4617 C   0  0  0  0  0  0  0  0  0  0  0  0
   -2.2652    1.5578   -0.4162 C   0  0  0  0  0  0  0  0  0  0  0  0
    2.8594    0.7781   -0.4502 C   0  0  0  0  0  0  0  0  0  0  0  0
    4.1791    0.3454   -0.6326 C   0  0  0  0  0  0  0  0  0  0  0  0
    9.7615   -2.0507    1.4195 H   0  0  0  0  0  0  0  0  0  0  0  0
    6.2817   -1.9561    1.4976 H   0  0  0  0  0  0  0  0  0  0  0  0
    6.7650   -0.2984    1.0607 H   0  0  0  0  0  0  0  0  0  0  0  0
    6.4329   -0.8630   -1.3741 H   0  0  0  0  0  0  0  0  0  0  0  0
    5.9561   -2.4884   -0.9437 H   0  0  0  0  0  0  0  0  0  0  0  0
    3.7702   -2.9274    0.1802 H   0  0  0  0  0  0  0  0  0  0  0  0
    1.4648   -2.1632    0.4830 H   0  0  0  0  0  0  0  0  0  0  0  0
    0.0253   -0.3454    0.7810 H   0  0  0  0  0  0  0  0  0  0  0  0
    0.7333    2.1206    1.1073 H   0  0  0  0  0  0  0  0  0  0  0  0
    0.3620    2.2297   -0.6214 H   0  0  0  0  0  0  0  0  0  0  0  0
   -1.0534    2.1649    2.7121 H   0  0  0  0  0  0  0  0  0  0  0  0
   -3.4721    2.3176    3.1911 H   0  0  0  0  0  0  0  0  0  0  0  0
   -5.1275    1.9919    1.3813 H   0  0  0  0  0  0  0  0  0  0  0  0
   -6.9227    1.9898   -1.8806 H   0  0  0  0  0  0  0  0  0  0  0  0
   -8.8879    0.4901   -1.6479 H   0  0  0  0  0  0  0  0  0  0  0  0
   -8.6130   -1.7690   -0.6561 H   0  0  0  0  0  0  0  0  0  0  0  0
   -6.3723   -2.5354    0.0875 H   0  0  0  0  0  0  0  0  0  0  0  0
   -4.4090   -1.0478   -0.1508 H   0  0  0  0  0  0  0  0  0  0  0  0
   -1.9374    1.3402   -1.4306 H   0  0  0  0  0  0  0  0  0  0  0  0
    2.6333    1.8163   -0.6723 H   0  0  0  0  0  0  0  0  0  0  0  0
    4.9269    1.0603   -0.9687 H   0  0  0  0  0  0  0  0  0  0  0  0
  1  2  2  0
  2  3  1  0
  2  4  1  0
  4  5  1  0
  5  6  1  0
  6  7  2  0
  7  8  1  0
  8  9  2  0
  9 10  1  0
 10 11  1  0
 11 12  1  0
 12 13  2  0
 13 14  1  0
 14 15  2  0
 15 16  1  0
 16 17  1  0
 17 18  1  0
 18 19  2  0
 19 20  1  0
 20 21  2  0
 21 22  1  0
 22 23  2  0
 16 24  2  0
  9 25  1  0
 25 26  2  0
 26  6  1  0
 24 12  1  0
 23 18  1  0
  3 27  1  0
  4 28  1  0
  4 29  1  0
  5 30  1  0
  5 31  1  0
  7 32  1  0
  8 33  1  0
 10 34  1  0
 11 35  1  0
 11 36  1  0
 13 37  1  0
 14 38  1  0
 15 39  1  0
 19 40  1  0
 20 41  1  0
 21 42  1  0
 22 43  1  0
 23 44  1  0
 24 45  1  0
 25 46  1  0
 26 47  1  0
M  END
$$$$
