
     RDKit          3D

 37 39  0  0  0  0  0  0  0  0999 V2000
    3.4875    3.5367    2.2221 O   0  0  0  0  0  0  0  0  0  0  0  0
    4.2335    2.6124    1.7726 C   0  0  0  0  0  0  0  0  0  0  0  0
    5.5004    2.5636    1.8653 O   0  0  0  0  0  1  0  0  0  0  0  0
    3.5554    1.4607    1.0617 C   0  0  0  0  0  0  0  0  0  0  0  0
    4.2969    0.3943    0.5533 C   0  0  0  0  0  0  0  0  0  0  0  0
    3.6600   -0.6630   -0.0966 C   0  0  0  0  0  0  0  0  0  0  0  0
    2.2522   -0.6894   -0.2609 C   0  0  0  0  0  0  0  0  0  0  0  0
    1.5044    0.3886    0.2498 C   0  0  0  0  0  0  0  0  0  0  0  0
    2.1613    1.4302    0.8934 C   0  0  0  0  0  0  0  0  0  0  0  0
    0.1701    0.4582    0.1397 N   0  0  0  0  0  0  0  0  0  0  0  0
   -0.5142   -0.5260   -0.4721 C   0  0  0  0  0  0  0  0  0  0  0  0
   -1.9259   -0.4011   -0.6147 N   0  0  0  0  0  0  0  0  0  0  0  0
   -2.7970    0.4915    0.0535 C   0  0  0  0  0  0  0  0  0  0  0  0
   -2.5306    1.0010    1.3311 C   0  0  0  0  0  0  0  0  0  0  0  0
   -3.4496    1.8228    1.9919 C   0  0  0  0  0  0  0  0  0  0  0  0
   -4.6712    2.1218    1.3961 C   0  0  0  0  0  0  0  0  0  0  0  0
   -4.9683    1.5873    0.1465 C   0  0  0  0  0  0  0  0  0  0  0  0
   -6.4896    1.9267   -0.5870 Cl  0  0  0  0  0  0  0  0  0  0  0  0
   -4.0491    0.7703   -0.5159 C   0  0  0  0  0  0  0  0  0  0  0  0
    0.1254   -1.6647   -1.0088 C   0  0  0  0  0  0  0  0  0  0  0  0
   -0.5726   -2.7287   -1.6241 C   0  0  0  0  0  0  0  0  0  0  0  0
    0.1285   -3.8064   -2.1310 C   0  0  0  0  0  0  0  0  0  0  0  0
    1.4642   -3.9088   -2.0753 N   0  0  0  0  0  0  0  0  0  0  0  0
    2.1209   -2.8885   -1.4678 C   0  0  0  0  0  0  0  0  0  0  0  0
    1.5294   -1.7406   -0.9076 C   0  0  0  0  0  0  0  0  0  0  0  0
    0.0000    0.0000    0.0000 Na  0  0  0  0  0 15  0  0  0  0  0  0
    5.3800    0.3946    0.6706 H   0  0  0  0  0  0  0  0  0  0  0  0
    4.2927   -1.4631   -0.4670 H   0  0  0  0  0  0  0  0  0  0  0  0
    1.5733    2.2604    1.2852 H   0  0  0  0  0  0  0  0  0  0  0  0
   -2.1380   -0.4447   -1.6057 H   0  0  0  0  0  0  0  0  0  0  0  0
   -1.5920    0.7719    1.8319 H   0  0  0  0  0  0  0  0  0  0  0  0
   -3.2013    2.2241    2.9713 H   0  0  0  0  0  0  0  0  0  0  0  0
   -5.3817    2.7611    1.9113 H   0  0  0  0  0  0  0  0  0  0  0  0
   -4.3118    0.3543   -1.4840 H   0  0  0  0  0  0  0  0  0  0  0  0
   -1.6554   -2.7311   -1.6919 H   0  0  0  0  0  0  0  0  0  0  0  0
   -0.3846   -4.6381   -2.6042 H   0  0  0  0  0  0  0  0  0  0  0  0
    3.1966   -3.0382   -1.4455 H   0  0  0  0  0  0  0  0  0  0  0  0
  1  2  2  0
  2  3  1  0
  2  4  1  0
  4  5  2  0
  5  6  1  0
  6  7  2  0
  7  8  1  0
  8  9  2  0
  8 10  1  0
 10 11  2  0
 11 12  1  0
 12 13  1  0
 13 14  2  0
 14 15  1  0
 15 16  2  0
 16 17  1  0
 17 18  1  0
 17 19  2  0
 11 20  1  0
 20 21  2  0
 21 22  1  0
 22 23  2  0
 23 24  1  0
 24 25  2  0
  9  4  1  0
 19 13  1  0
 25 20  1  0
 25  7  1  0
  5 27  1  0
  6 28  1  0
  9 29  1  0
 12 30  1  0
 14 31  1  0
 15 32  1  0
 16 33  1  0
 19 34  1  0
 21 35  1  0
 22 36  1  0
 24 37  1  0
M  CHG  2   3  -1  26   1
M  END
$$$$
