
     RDKit          3D

 55 56  0  0  0  0  0  0  0  0999 V2000
    7.2049    0.4971   -1.6399 C   0  0  0  0  0  0  0  0  0  0  0  0
    6.1087    0.1091   -0.8226 O   0  0  0  0  0  0  0  0  0  0  0  0
    5.0248    0.9483   -0.7662 C   0  0  0  0  0  0  0  0  0  0  0  0
    4.9812    2.2239   -1.3456 C   0  0  0  0  0  0  0  0  0  0  0  0
    3.8319    3.0119   -1.2460 C   0  0  0  0  0  0  0  0  0  0  0  0
    2.7098    2.5219   -0.5859 C   0  0  0  0  0  0  0  0  0  0  0  0
    2.7375    1.2411   -0.0190 C   0  0  0  0  0  0  0  0  0  0  0  0
    1.4766    0.7717    0.6024 C   0  0  0  0  0  0  0  0  0  0  0  0
    0.9450    1.4363    1.4849 O   0  0  0  0  0  0  0  0  0  0  0  0
    0.9574   -0.3874    0.0443 N   0  0  0  0  0  0  0  0  0  0  0  0
   -0.4447   -0.6149    0.2665 N   0  0  0  0  0  0  0  0  0  0  0  0
   -1.1996   -0.2518   -0.8593 C   0  0  0  0  0  0  0  0  0  0  0  0
   -0.7103   -0.1734   -1.9876 O   0  0  0  0  0  0  0  0  0  0  0  0
   -2.6069    0.1525   -0.6490 C   0  0  0  0  0  0  0  0  0  0  0  0
   -2.9601    0.9497    0.4468 C   0  0  0  0  0  0  0  0  0  0  0  0
   -4.2909    1.3404    0.6291 C   0  0  0  0  0  0  0  0  0  0  0  0
   -4.6724    2.2070    1.7932 C   0  0  0  0  0  0  0  0  0  0  0  0
   -5.2498    0.9667   -0.3234 C   0  0  0  0  0  0  0  0  0  0  0  0
   -4.8943    0.2079   -1.4502 C   0  0  0  0  0  0  0  0  0  0  0  0
   -5.9320   -0.1679   -2.4622 C   0  0  0  0  0  0  0  0  0  0  0  0
   -3.5658   -0.2046   -1.6017 C   0  0  0  0  0  0  0  0  0  0  0  0
   -0.6719   -1.9107    0.9988 C   0  0  0  0  0  0  0  0  0  0  0  0
    0.3444   -2.0937    2.1530 C   0  0  0  0  0  0  0  0  0  0  0  0
   -0.5353   -3.1055    0.0302 C   0  0  0  0  0  0  0  0  0  0  0  0
   -2.0714   -1.9751    1.6437 C   0  0  0  0  0  0  0  0  0  0  0  0
    3.9058    0.4541   -0.0626 C   0  0  0  0  0  0  0  0  0  0  0  0
    3.9720   -0.8954    0.6039 C   0  0  0  0  0  0  0  0  0  0  0  0
    7.9356   -0.3265   -1.6391 H   0  0  0  0  0  0  0  0  0  0  0  0
    6.8908    0.6533   -2.6803 H   0  0  0  0  0  0  0  0  0  0  0  0
    7.7102    1.3860   -1.2312 H   0  0  0  0  0  0  0  0  0  0  0  0
    5.8319    2.6392   -1.8751 H   0  0  0  0  0  0  0  0  0  0  0  0
    3.8086    4.0045   -1.6918 H   0  0  0  0  0  0  0  0  0  0  0  0
    1.8088    3.1303   -0.5215 H   0  0  0  0  0  0  0  0  0  0  0  0
    1.2502   -0.6028   -0.9104 H   0  0  0  0  0  0  0  0  0  0  0  0
   -2.1918    1.2712    1.1510 H   0  0  0  0  0  0  0  0  0  0  0  0
   -5.6672    1.9373    2.1676 H   0  0  0  0  0  0  0  0  0  0  0  0
   -4.6754    3.2605    1.4908 H   0  0  0  0  0  0  0  0  0  0  0  0
   -3.9679    2.0821    2.6252 H   0  0  0  0  0  0  0  0  0  0  0  0
   -6.2831    1.2875   -0.1975 H   0  0  0  0  0  0  0  0  0  0  0  0
   -5.4684   -0.4802   -3.4003 H   0  0  0  0  0  0  0  0  0  0  0  0
   -6.5745    0.6857   -2.6848 H   0  0  0  0  0  0  0  0  0  0  0  0
   -6.5489   -0.9885   -2.0878 H   0  0  0  0  0  0  0  0  0  0  0  0
   -3.2651   -0.7837   -2.4721 H   0  0  0  0  0  0  0  0  0  0  0  0
    1.3622   -2.2405    1.7788 H   0  0  0  0  0  0  0  0  0  0  0  0
    0.3497   -1.2200    2.8168 H   0  0  0  0  0  0  0  0  0  0  0  0
    0.1072   -2.9758    2.7577 H   0  0  0  0  0  0  0  0  0  0  0  0
   -0.6699   -4.0584    0.5548 H   0  0  0  0  0  0  0  0  0  0  0  0
    0.4511   -3.1247   -0.4462 H   0  0  0  0  0  0  0  0  0  0  0  0
   -1.2848   -3.0601   -0.7705 H   0  0  0  0  0  0  0  0  0  0  0  0
   -2.8651   -2.0548    0.8957 H   0  0  0  0  0  0  0  0  0  0  0  0
   -2.1653   -2.8589    2.2853 H   0  0  0  0  0  0  0  0  0  0  0  0
   -2.2611   -1.0986    2.2687 H   0  0  0  0  0  0  0  0  0  0  0  0
    3.6901   -1.6789   -0.1051 H   0  0  0  0  0  0  0  0  0  0  0  0
    4.9794   -1.1049    0.9829 H   0  0  0  0  0  0  0  0  0  0  0  0
    3.3182   -0.9395    1.4788 H   0  0  0  0  0  0  0  0  0  0  0  0
  1  2  1  0
  2  3  1  0
  3  4  2  0
  4  5  1  0
  5  6  2  0
  6  7  1  0
  7  8  1  0
  8  9  2  0
  8 10  1  0
 10 11  1  0
 11 12  1  0
 12 13  2  0
 12 14  1  0
 14 15  2  0
 15 16  1  0
 16 17  1  0
 16 18  2  0
 18 19  1  0
 19 20  1  0
 19 21  2  0
 11 22  1  0
 22 23  1  0
 22 24  1  0
 22 25  1  0
  7 26  2  0
 26 27  1  0
 26  3  1  0
 21 14  1  0
  1 28  1  0
  1 29  1  0
  1 30  1  0
  4 31  1  0
  5 32  1  0
  6 33  1  0
 10 34  1  0
 15 35  1  0
 17 36  1  0
 17 37  1  0
 17 38  1  0
 18 39  1  0
 20 40  1  0
 20 41  1  0
 20 42  1  0
 21 43  1  0
 23 44  1  0
 23 45  1  0
 23 46  1  0
 24 47  1  0
 24 48  1  0
 24 49  1  0
 25 50  1  0
 25 51  1  0
 25 52  1  0
 27 53  1  0
 27 54  1  0
 27 55  1  0
M  END
$$$$
