
     RDKit          3D

 59 62  0  0  0  0  0  0  0  0999 V2000
    7.4979    0.1749    2.1898 C   0  0  0  0  0  0  0  0  0  0  0  0
    6.5286    1.0361    1.4010 C   0  0  0  0  0  0  0  0  0  0  0  0
    5.4626    0.2502    0.8104 N   0  0  0  0  0  0  0  0  0  0  0  0
    4.2910   -0.1114    1.4057 C   0  0  0  0  0  0  0  0  0  0  0  0
    3.5837   -0.8373    0.4676 C   0  0  0  0  0  0  0  0  0  0  0  0
    2.2479   -1.4834    0.6207 C   0  0  0  0  0  0  0  0  0  0  0  0
    1.2265   -0.6981   -0.0716 N   0  0  0  0  0  0  0  0  0  0  0  0
   -0.0404   -1.4231   -0.1951 C   0  0  0  0  0  0  0  0  0  0  0  0
   -1.0437   -0.3015   -0.4741 C   0  0  1  0  0  0  0  0  0  0  0  0
   -2.4475   -0.7121   -0.4529 N   0  0  0  0  0  0  0  0  0  0  0  0
   -3.0904   -1.2298    0.6459 C   0  0  0  0  0  0  0  0  0  0  0  0
   -2.5817   -1.2588    1.7624 O   0  0  0  0  0  0  0  0  0  0  0  0
   -4.5079   -1.7343    0.4065 C   0  0  0  0  0  0  0  0  0  0  0  0
   -5.4676   -0.6216   -0.0353 C   0  0  0  0  0  0  0  0  0  0  0  0
   -6.3565   -1.2667   -1.0905 C   0  0  0  0  0  0  0  0  0  0  0  0
   -5.4162   -2.2191   -1.8061 C   0  0  0  0  0  0  0  0  0  0  0  0
   -4.5872   -2.8217   -0.6772 C   0  0  0  0  0  0  0  0  0  0  0  0
   -0.6128    0.7499    0.5517 C   0  0  2  0  0  0  0  0  0  0  0  0
   -1.0949    2.1143    0.2176 C   0  0  0  0  0  0  0  0  0  0  0  0
   -0.4453    3.1236   -0.3232 N   0  0  0  0  0  0  0  0  0  0  0  0
   -1.3940    4.1104   -0.4005 C   0  0  0  0  0  0  0  0  0  0  0  0
   -1.0887    5.4565   -0.9218 C   0  0  0  0  0  0  0  0  0  0  0  0
   -2.6054    3.7596    0.0517 N   0  0  0  0  0  0  0  0  0  0  0  0
   -2.3920    2.4955    0.4470 N   0  0  0  0  0  0  0  0  0  0  0  0
    0.9171    0.5926    0.5862 C   0  0  0  0  0  0  0  0  0  0  0  0
    4.4332   -0.8480   -0.6751 C   0  0  0  0  0  0  0  0  0  0  0  0
    4.1692   -1.4695   -1.9955 C   0  0  0  0  0  0  0  0  0  0  0  0
    5.5866   -0.2049   -0.4469 N   0  0  0  0  0  0  0  0  0  0  0  0
    7.9335   -0.6096    1.5628 H   0  0  0  0  0  0  0  0  0  0  0  0
    8.3152    0.7843    2.5928 H   0  0  0  0  0  0  0  0  0  0  0  0
    6.9917   -0.3146    3.0299 H   0  0  0  0  0  0  0  0  0  0  0  0
    7.0496    1.5627    0.5922 H   0  0  0  0  0  0  0  0  0  0  0  0
    6.0653    1.7882    2.0462 H   0  0  0  0  0  0  0  0  0  0  0  0
    4.0597    0.1687    2.4232 H   0  0  0  0  0  0  0  0  0  0  0  0
    2.3069   -2.4873    0.1787 H   0  0  0  0  0  0  0  0  0  0  0  0
    2.0006   -1.6209    1.6815 H   0  0  0  0  0  0  0  0  0  0  0  0
   -0.0094   -2.1452   -1.0174 H   0  0  0  0  0  0  0  0  0  0  0  0
   -0.2914   -1.9632    0.7260 H   0  0  0  0  0  0  0  0  0  0  0  0
   -0.8757    0.0821   -1.4901 H   0  0  0  0  0  0  0  0  0  0  0  0
   -2.8882   -0.8273   -1.3589 H   0  0  0  0  0  0  0  0  0  0  0  0
   -4.8577   -2.1637    1.3546 H   0  0  0  0  0  0  0  0  0  0  0  0
   -6.0573   -0.2432    0.8057 H   0  0  0  0  0  0  0  0  0  0  0  0
   -4.9360    0.2347   -0.4658 H   0  0  0  0  0  0  0  0  0  0  0  0
   -7.1696   -1.8252   -0.6109 H   0  0  0  0  0  0  0  0  0  0  0  0
   -6.7995   -0.5298   -1.7660 H   0  0  0  0  0  0  0  0  0  0  0  0
   -4.7712   -1.6657   -2.4977 H   0  0  0  0  0  0  0  0  0  0  0  0
   -5.9525   -2.9828   -2.3783 H   0  0  0  0  0  0  0  0  0  0  0  0
   -5.1141   -3.6950   -0.2709 H   0  0  0  0  0  0  0  0  0  0  0  0
   -3.6120   -3.1709   -1.0319 H   0  0  0  0  0  0  0  0  0  0  0  0
   -0.9863    0.4954    1.5497 H   0  0  0  0  0  0  0  0  0  0  0  0
   -1.9870    6.0803   -0.9752 H   0  0  0  0  0  0  0  0  0  0  0  0
   -0.3614    5.9585   -0.2722 H   0  0  0  0  0  0  0  0  0  0  0  0
   -0.6610    5.3878   -1.9272 H   0  0  0  0  0  0  0  0  0  0  0  0
   -3.1463    1.9629    0.8595 H   0  0  0  0  0  0  0  0  0  0  0  0
    1.2512    0.6232    1.6314 H   0  0  0  0  0  0  0  0  0  0  0  0
    1.4396    1.3925    0.0506 H   0  0  0  0  0  0  0  0  0  0  0  0
    3.2855   -1.0190   -2.4592 H   0  0  0  0  0  0  0  0  0  0  0  0
    3.9929   -2.5444   -1.8811 H   0  0  0  0  0  0  0  0  0  0  0  0
    5.0127   -1.3354   -2.6803 H   0  0  0  0  0  0  0  0  0  0  0  0
  1  2  1  0
  2  3  1  0
  3  4  1  0
  4  5  2  0
  5  6  1  0
  6  7  1  0
  7  8  1  0
  8  9  1  0
  9 10  1  0
 10 11  1  0
 11 12  2  0
 11 13  1  0
 13 14  1  0
 14 15  1  0
 15 16  1  0
 16 17  1  0
  9 18  1  0
 18 19  1  0
 19 20  2  0
 20 21  1  0
 21 22  1  0
 21 23  2  0
 23 24  1  0
 18 25  1  0
  5 26  1  0
 26 27  1  0
 26 28  2  0
 28  3  1  0
 25  7  1  0
 17 13  1  0
 24 19  1  0
  1 29  1  0
  1 30  1  0
  1 31  1  0
  2 32  1  0
  2 33  1  0
  4 34  1  0
  6 35  1  0
  6 36  1  0
  8 37  1  0
  8 38  1  0
  9 39  1  6
 10 40  1  0
 13 41  1  0
 14 42  1  0
 14 43  1  0
 15 44  1  0
 15 45  1  0
 16 46  1  0
 16 47  1  0
 17 48  1  0
 17 49  1  0
 18 50  1  1
 22 51  1  0
 22 52  1  0
 22 53  1  0
 24 54  1  0
 25 55  1  0
 25 56  1  0
 27 57  1  0
 27 58  1  0
 27 59  1  0
M  END
$$$$
