
     RDKit          3D

 46 49  0  0  0  0  0  0  0  0999 V2000
   -5.0658    1.0332    2.1179 C   0  0  0  0  0  0  0  0  0  0  0  0
   -5.8324    0.3991    1.0591 N   0  0  0  0  0  0  0  0  0  0  0  0
   -7.2720    0.5609    1.1195 C   0  0  0  0  0  0  0  0  0  0  0  0
   -5.2739   -0.3259   -0.0032 C   0  0  0  0  0  0  0  0  0  0  0  0
   -5.9892   -0.9856   -0.7608 O   0  0  0  0  0  0  0  0  0  0  0  0
   -3.8076   -0.3079   -0.2256 C   0  0  0  0  0  0  0  0  0  0  0  0
   -3.0953   -1.2504   -1.0278 C   0  0  0  0  0  0  0  0  0  0  0  0
   -1.7764   -0.8613   -0.9913 C   0  0  0  0  0  0  0  0  0  0  0  0
   -1.7601    0.2645   -0.2246 N   0  0  0  0  0  0  0  0  0  0  0  0
   -2.9615    0.6310    0.2489 N   0  0  0  0  0  0  0  0  0  0  0  0
   -0.5665    1.0047    0.1276 C   0  0  0  0  0  0  0  0  0  0  0  0
    0.5808    0.6243   -0.8015 C   0  0  0  0  0  0  0  0  0  0  0  0
    0.6530   -0.8671   -0.9062 N   0  0  0  0  0  0  0  0  0  0  0  0
    2.1060   -1.4794   -1.5776 S   0  0  0  0  0  6  0  0  0  0  0  0
    2.3514   -0.7714   -2.8120 O   0  0  0  0  0  0  0  0  0  0  0  0
    1.9743   -2.9237   -1.6014 O   0  0  0  0  0  0  0  0  0  0  0  0
    3.3135   -1.1034   -0.3328 C   0  0  0  0  0  0  0  0  0  0  0  0
    3.4389   -2.0274    0.7241 C   0  0  0  0  0  0  0  0  0  0  0  0
    4.4006   -1.8376    1.7056 C   0  0  0  0  0  0  0  0  0  0  0  0
    5.2446   -0.7364    1.6224 C   0  0  0  0  0  0  0  0  0  0  0  0
    5.1189    0.1863    0.5686 C   0  0  0  0  0  0  0  0  0  0  0  0
    5.9806    1.2907    0.4985 C   0  0  0  0  0  0  0  0  0  0  0  0
    5.8576    2.2097   -0.5348 C   0  0  0  0  0  0  0  0  0  0  0  0
    4.8553    2.0015   -1.4558 C   0  0  0  0  0  0  0  0  0  0  0  0
    4.0005    0.9532   -1.4073 N   0  0  0  0  0  0  0  0  0  0  0  0
    4.1318    0.0248   -0.4343 C   0  0  0  0  0  0  0  0  0  0  0  0
   -0.5416   -1.4144   -1.6113 C   0  0  0  0  0  0  0  0  0  0  0  0
   -4.7495    2.0252    1.7827 H   0  0  0  0  0  0  0  0  0  0  0  0
   -5.6906    1.1406    3.0104 H   0  0  0  0  0  0  0  0  0  0  0  0
   -4.2024    0.4239    2.3925 H   0  0  0  0  0  0  0  0  0  0  0  0
   -7.7760    0.1388    0.2467 H   0  0  0  0  0  0  0  0  0  0  0  0
   -7.6443    0.0607    2.0196 H   0  0  0  0  0  0  0  0  0  0  0  0
   -7.5043    1.6287    1.1731 H   0  0  0  0  0  0  0  0  0  0  0  0
   -3.5168   -2.0982   -1.5516 H   0  0  0  0  0  0  0  0  0  0  0  0
   -0.3341    0.7418    1.1653 H   0  0  0  0  0  0  0  0  0  0  0  0
   -0.7887    2.0747    0.0650 H   0  0  0  0  0  0  0  0  0  0  0  0
    1.4997    1.0381   -0.3823 H   0  0  0  0  0  0  0  0  0  0  0  0
    0.4306    1.0586   -1.7978 H   0  0  0  0  0  0  0  0  0  0  0  0
    2.7891   -2.9014    0.7770 H   0  0  0  0  0  0  0  0  0  0  0  0
    4.4980   -2.5481    2.5241 H   0  0  0  0  0  0  0  0  0  0  0  0
    6.0052   -0.5996    2.3892 H   0  0  0  0  0  0  0  0  0  0  0  0
    6.7603    1.4356    1.2434 H   0  0  0  0  0  0  0  0  0  0  0  0
    6.5300    3.0562   -0.6201 H   0  0  0  0  0  0  0  0  0  0  0  0
    4.7037    2.6849   -2.2871 H   0  0  0  0  0  0  0  0  0  0  0  0
   -0.5143   -1.1466   -2.6742 H   0  0  0  0  0  0  0  0  0  0  0  0
   -0.5609   -2.5059   -1.5171 H   0  0  0  0  0  0  0  0  0  0  0  0
  1  2  1  0
  2  3  1  0
  2  4  1  0
  4  5  2  0
  4  6  1  0
  6  7  1  0
  7  8  2  0
  8  9  1  0
  9 10  1  0
  9 11  1  0
 11 12  1  0
 12 13  1  0
 13 14  1  0
 14 15  2  0
 14 16  2  0
 14 17  1  0
 17 18  2  0
 18 19  1  0
 19 20  2  0
 20 21  1  0
 21 22  2  0
 22 23  1  0
 23 24  2  0
 24 25  1  0
 25 26  2  0
 13 27  1  0
 10  6  2  0
 26 17  1  0
 27  8  1  0
 26 21  1  0
  1 28  1  0
  1 29  1  0
  1 30  1  0
  3 31  1  0
  3 32  1  0
  3 33  1  0
  7 34  1  0
 11 35  1  0
 11 36  1  0
 12 37  1  0
 12 38  1  0
 18 39  1  0
 19 40  1  0
 20 41  1  0
 22 42  1  0
 23 43  1  0
 24 44  1  0
 27 45  1  0
 27 46  1  0
M  END
$$$$
