
     RDKit          3D

 65 67  0  0  0  0  0  0  0  0999 V2000
    2.2044   -0.2103   -2.7438 C   0  0  0  0  0  0  0  0  0  0  0  0
    3.1584   -0.7310   -1.7324 C   0  0  0  0  0  0  0  0  0  0  0  0
    4.2522   -1.6022   -1.9357 C   0  0  0  0  0  0  0  0  0  0  0  0
    4.8295   -1.7685   -0.6920 C   0  0  0  0  0  0  0  0  0  0  0  0
    5.9989   -2.5780   -0.2695 C   0  0  0  0  0  0  0  0  0  0  0  0
    4.1055   -0.9698    0.1566 N   0  0  0  0  0  0  0  0  0  0  0  0
    4.3474   -0.6905    1.5641 C   0  0  0  0  0  0  0  0  0  0  0  0
    3.5975   -1.6356    2.4853 C   0  0  0  0  0  0  0  0  0  0  0  0
    2.1669   -1.1856    2.6790 C   0  0  0  0  0  0  0  0  0  0  0  0
    1.8240   -0.5542    3.6741 O   0  0  0  0  0  0  0  0  0  0  0  0
    1.3105   -1.5543    1.6686 N   0  0  0  0  0  0  0  0  0  0  0  0
   -0.0636   -1.0821    1.6372 C   0  0  0  0  0  0  0  0  0  0  0  0
   -0.2108    0.1929    0.7752 C   0  0  0  0  0  0  0  0  0  0  0  0
   -1.5353    0.8387    0.8723 N   0  0  0  0  0  0  0  0  0  0  0  0
   -1.5131    2.2669    0.4812 C   0  0  0  0  0  0  0  0  0  0  0  0
   -0.6990    2.6478   -0.7685 C   0  0  0  0  0  0  0  0  0  0  0  0
   -0.9374    4.1277   -1.0797 C   0  0  0  0  0  0  0  0  0  0  0  0
   -1.0925    4.9453    0.0887 O   0  0  0  0  0  0  0  0  0  0  0  0
   -0.3943    4.4332    1.2172 C   0  0  0  0  0  0  0  0  0  0  0  0
   -1.0311    3.1220    1.6779 C   0  0  0  0  0  0  0  0  0  0  0  0
   -2.6227    0.0338    0.2932 C   0  0  0  0  0  0  0  0  0  0  0  0
   -4.0218    0.3894    0.8130 C   0  0  0  0  0  0  0  0  0  0  0  0
   -4.9346   -0.4507   -0.0818 C   0  0  0  0  0  0  0  0  0  0  0  0
   -4.2290   -0.5122   -1.3835 N   0  0  0  0  0  0  0  0  0  0  0  0
   -4.4890   -1.8101   -2.4088 S   0  0  0  0  0  6  0  0  0  0  0  0
   -3.7145   -3.1688   -1.5468 C   0  0  0  0  0  0  0  0  0  0  0  0
   -5.9142   -2.0563   -2.4467 O   0  0  0  0  0  0  0  0  0  0  0  0
   -3.7322   -1.5731   -3.6221 O   0  0  0  0  0  0  0  0  0  0  0  0
   -2.8568    0.0302   -1.2275 C   0  0  0  0  0  0  0  0  0  0  0  0
    3.0347   -0.4013   -0.4404 N   0  0  0  0  0  0  0  0  0  0  0  0
    1.4831   -0.9820   -3.0377 H   0  0  0  0  0  0  0  0  0  0  0  0
    1.6452    0.6480   -2.3575 H   0  0  0  0  0  0  0  0  0  0  0  0
    2.7479    0.1212   -3.6375 H   0  0  0  0  0  0  0  0  0  0  0  0
    4.5784   -2.0429   -2.8695 H   0  0  0  0  0  0  0  0  0  0  0  0
    6.8039   -1.9355    0.1075 H   0  0  0  0  0  0  0  0  0  0  0  0
    5.7133   -3.2850    0.5198 H   0  0  0  0  0  0  0  0  0  0  0  0
    6.3969   -3.1585   -1.1103 H   0  0  0  0  0  0  0  0  0  0  0  0
    5.4253   -0.7683    1.7302 H   0  0  0  0  0  0  0  0  0  0  0  0
    4.0688    0.3561    1.7386 H   0  0  0  0  0  0  0  0  0  0  0  0
    3.6092   -2.6701    2.1182 H   0  0  0  0  0  0  0  0  0  0  0  0
    4.0674   -1.6427    3.4762 H   0  0  0  0  0  0  0  0  0  0  0  0
    1.7391   -1.7278    0.7599 H   0  0  0  0  0  0  0  0  0  0  0  0
   -0.4162   -0.8983    2.6578 H   0  0  0  0  0  0  0  0  0  0  0  0
   -0.6464   -1.9035    1.2122 H   0  0  0  0  0  0  0  0  0  0  0  0
    0.5676    0.8892    1.1088 H   0  0  0  0  0  0  0  0  0  0  0  0
    0.0170   -0.0580   -0.2697 H   0  0  0  0  0  0  0  0  0  0  0  0
   -2.5449    2.5915    0.2938 H   0  0  0  0  0  0  0  0  0  0  0  0
   -0.9509    2.0447   -1.6460 H   0  0  0  0  0  0  0  0  0  0  0  0
    0.3727    2.4868   -0.5843 H   0  0  0  0  0  0  0  0  0  0  0  0
   -1.8711    4.2210   -1.6357 H   0  0  0  0  0  0  0  0  0  0  0  0
   -0.1387    4.5362   -1.7038 H   0  0  0  0  0  0  0  0  0  0  0  0
    0.6581    4.2869    0.9524 H   0  0  0  0  0  0  0  0  0  0  0  0
   -0.4206    5.1767    2.0190 H   0  0  0  0  0  0  0  0  0  0  0  0
   -1.9021    3.3362    2.3121 H   0  0  0  0  0  0  0  0  0  0  0  0
   -0.3131    2.5939    2.3158 H   0  0  0  0  0  0  0  0  0  0  0  0
   -2.4775   -1.0095    0.5976 H   0  0  0  0  0  0  0  0  0  0  0  0
   -4.2637    1.4478    0.6782 H   0  0  0  0  0  0  0  0  0  0  0  0
   -4.1523    0.1423    1.8714 H   0  0  0  0  0  0  0  0  0  0  0  0
   -5.0600   -1.4503    0.3471 H   0  0  0  0  0  0  0  0  0  0  0  0
   -5.9181    0.0185   -0.1939 H   0  0  0  0  0  0  0  0  0  0  0  0
   -2.6830   -2.9038   -1.3246 H   0  0  0  0  0  0  0  0  0  0  0  0
   -4.2703   -3.3920   -0.6374 H   0  0  0  0  0  0  0  0  0  0  0  0
   -3.7319   -4.0380   -2.2057 H   0  0  0  0  0  0  0  0  0  0  0  0
   -2.8749    1.0362   -1.6521 H   0  0  0  0  0  0  0  0  0  0  0  0
   -2.0962   -0.5605   -1.7441 H   0  0  0  0  0  0  0  0  0  0  0  0
  1  2  1  0
  2  3  1  0
  3  4  2  0
  4  5  1  0
  4  6  1  0
  6  7  1  0
  7  8  1  0
  8  9  1  0
  9 10  2  0
  9 11  1  0
 11 12  1  0
 12 13  1  0
 13 14  1  0
 14 15  1  0
 15 16  1  0
 16 17  1  0
 17 18  1  0
 18 19  1  0
 19 20  1  0
 14 21  1  0
 21 22  1  0
 22 23  1  0
 23 24  1  0
 24 25  1  0
 25 26  1  0
 25 27  2  0
 25 28  2  0
 24 29  1  0
  6 30  1  0
 30  2  2  0
 20 15  1  0
 29 21  1  0
  1 31  1  0
  1 32  1  0
  1 33  1  0
  3 34  1  0
  5 35  1  0
  5 36  1  0
  5 37  1  0
  7 38  1  0
  7 39  1  0
  8 40  1  0
  8 41  1  0
 11 42  1  0
 12 43  1  0
 12 44  1  0
 13 45  1  0
 13 46  1  0
 15 47  1  0
 16 48  1  0
 16 49  1  0
 17 50  1  0
 17 51  1  0
 19 52  1  0
 19 53  1  0
 20 54  1  0
 20 55  1  0
 21 56  1  0
 22 57  1  0
 22 58  1  0
 23 59  1  0
 23 60  1  0
 26 61  1  0
 26 62  1  0
 26 63  1  0
 29 64  1  0
 29 65  1  0
M  END
$$$$
