
     RDKit          3D

 49 52  0  0  0  0  0  0  0  0999 V2000
   -3.2181   -2.0557    2.3059 C   0  0  0  0  0  0  0  0  0  0  0  0
   -2.2541   -1.0654    2.6436 O   0  0  0  0  0  0  0  0  0  0  0  0
   -2.5307    0.2082    2.0628 C   0  0  0  0  0  0  0  0  0  0  0  0
   -1.9857    0.2886    0.6404 C   0  0  2  0  0  0  0  0  0  0  0  0
   -0.4811    0.0214    0.5731 C   0  0  0  0  0  0  0  0  0  0  0  0
    0.0014    0.7688   -0.6263 N   0  0  0  0  0  0  0  0  0  0  0  0
    0.8260   -0.1284   -1.8129 S   0  0  0  0  0  6  0  0  0  0  0  0
   -0.0027   -1.2734   -2.1300 O   0  0  0  0  0  0  0  0  0  0  0  0
    1.2554    0.7929   -2.8429 O   0  0  0  0  0  0  0  0  0  0  0  0
    2.2688   -0.6816   -0.9421 C   0  0  0  0  0  0  0  0  0  0  0  0
    2.4515   -2.0527   -0.6869 C   0  0  0  0  0  0  0  0  0  0  0  0
    3.5893   -2.4907   -0.0057 C   0  0  0  0  0  0  0  0  0  0  0  0
    4.5126   -1.5443    0.4099 C   0  0  0  0  0  0  0  0  0  0  0  0
    4.3284   -0.1811    0.1461 C   0  0  0  0  0  0  0  0  0  0  0  0
    3.2136    0.2694   -0.5385 C   0  0  0  0  0  0  0  0  0  0  0  0
    5.4892    0.6202    0.6470 C   0  0  0  0  0  0  0  0  0  0  0  0
    6.1286   -0.3671    1.6339 C   0  0  0  0  0  0  0  0  0  0  0  0
    5.8143   -1.7770    1.1130 C   0  0  0  0  0  0  0  0  0  0  0  0
   -1.1308    1.5878   -1.1489 C   0  0  0  0  0  0  0  0  0  0  0  0
   -2.1062    1.6774    0.0198 C   0  0  1  0  0  0  0  0  0  0  0  0
   -3.4815    2.0222   -0.3974 C   0  0  0  0  0  0  0  0  0  0  0  0
   -4.2660    2.9768    0.0531 N   0  0  0  0  0  0  0  0  0  0  0  0
   -5.4539    2.8632   -0.6378 N   0  0  0  0  0  0  0  0  0  0  0  0
   -5.3113    1.8444   -1.4572 C   0  0  0  0  0  0  0  0  0  0  0  0
   -6.2576    1.2751   -2.4300 C   0  0  0  0  0  0  0  0  0  0  0  0
   -4.0821    1.2501   -1.3565 O   0  0  0  0  0  0  0  0  0  0  0  0
   -3.2328   -2.2370    1.2280 H   0  0  0  0  0  0  0  0  0  0  0  0
   -4.2119   -1.7565    2.6524 H   0  0  0  0  0  0  0  0  0  0  0  0
   -2.9414   -2.9864    2.8085 H   0  0  0  0  0  0  0  0  0  0  0  0
   -2.0368    0.9557    2.6942 H   0  0  0  0  0  0  0  0  0  0  0  0
   -3.6056    0.4213    2.0984 H   0  0  0  0  0  0  0  0  0  0  0  0
   -2.4902   -0.4561    0.0099 H   0  0  0  0  0  0  0  0  0  0  0  0
    0.0459    0.4220    1.4468 H   0  0  0  0  0  0  0  0  0  0  0  0
   -0.2794   -1.0523    0.5206 H   0  0  0  0  0  0  0  0  0  0  0  0
    1.7157   -2.7806   -1.0223 H   0  0  0  0  0  0  0  0  0  0  0  0
    3.7454   -3.5478    0.1869 H   0  0  0  0  0  0  0  0  0  0  0  0
    3.0763    1.3241   -0.7585 H   0  0  0  0  0  0  0  0  0  0  0  0
    5.1778    1.5407    1.1485 H   0  0  0  0  0  0  0  0  0  0  0  0
    6.1703    0.8526   -0.1780 H   0  0  0  0  0  0  0  0  0  0  0  0
    5.6649   -0.2379    2.6220 H   0  0  0  0  0  0  0  0  0  0  0  0
    7.2026   -0.1973    1.7582 H   0  0  0  0  0  0  0  0  0  0  0  0
    6.5728   -2.1135    0.3988 H   0  0  0  0  0  0  0  0  0  0  0  0
    5.7251   -2.4948    1.9331 H   0  0  0  0  0  0  0  0  0  0  0  0
   -1.5840    1.1029   -2.0218 H   0  0  0  0  0  0  0  0  0  0  0  0
   -0.7721    2.5780   -1.4474 H   0  0  0  0  0  0  0  0  0  0  0  0
   -1.7447    2.4346    0.7292 H   0  0  0  0  0  0  0  0  0  0  0  0
   -5.8418    1.3196   -3.4408 H   0  0  0  0  0  0  0  0  0  0  0  0
   -6.4733    0.2301   -2.1886 H   0  0  0  0  0  0  0  0  0  0  0  0
   -7.2005    1.8298   -2.4229 H   0  0  0  0  0  0  0  0  0  0  0  0
  1  2  1  0
  2  3  1  0
  3  4  1  0
  4  5  1  0
  5  6  1  0
  6  7  1  0
  7  8  2  0
  7  9  2  0
  7 10  1  0
 10 11  2  0
 11 12  1  0
 12 13  2  0
 13 14  1  0
 14 15  2  0
 14 16  1  0
 16 17  1  0
 17 18  1  0
  6 19  1  0
 19 20  1  0
 20 21  1  0
 21 22  2  0
 22 23  1  0
 23 24  2  0
 24 25  1  0
 24 26  1  0
 20  4  1  0
 26 21  1  0
 15 10  1  0
 18 13  1  0
  1 27  1  0
  1 28  1  0
  1 29  1  0
  3 30  1  0
  3 31  1  0
  4 32  1  6
  5 33  1  0
  5 34  1  0
 11 35  1  0
 12 36  1  0
 15 37  1  0
 16 38  1  0
 16 39  1  0
 17 40  1  0
 17 41  1  0
 18 42  1  0
 18 43  1  0
 19 44  1  0
 19 45  1  0
 20 46  1  1
 25 47  1  0
 25 48  1  0
 25 49  1  0
M  END
$$$$
