
     RDKit          3D

 62 64  0  0  0  0  0  0  0  0999 V2000
    1.3512    3.6780    0.3907 C   0  0  0  0  0  0  0  0  0  0  0  0
    1.7344    2.5679   -0.4703 N   0  0  0  0  0  0  0  0  0  0  0  0
    0.6436    1.7163   -0.9664 C   0  0  0  0  0  0  0  0  0  0  0  0
    0.1024    0.7706    0.1275 C   0  0  0  0  0  0  0  0  0  0  0  0
   -0.9109   -0.1651   -0.4044 N   0  0  0  0  0  0  0  0  0  0  0  0
   -0.6475   -1.5825   -0.0330 C   0  0  0  0  0  0  0  0  0  0  0  0
   -0.6504   -1.8690    1.4835 C   0  0  0  0  0  0  0  0  0  0  0  0
    0.1693   -3.1095    1.8249 C   0  0  0  0  0  0  0  0  0  0  0  0
    0.0760   -4.0625    0.7735 O   0  0  0  0  0  0  0  0  0  0  0  0
    0.7537   -3.6411   -0.4133 C   0  0  0  0  0  0  0  0  0  0  0  0
    0.6313   -2.1381   -0.6804 C   0  0  0  0  0  0  0  0  0  0  0  0
   -2.2933    0.2542   -0.0584 C   0  0  0  0  0  0  0  0  0  0  0  0
   -2.6837    1.6377   -0.5833 C   0  0  0  0  0  0  0  0  0  0  0  0
   -4.1898    1.6639   -0.3683 C   0  0  0  0  0  0  0  0  0  0  0  0
   -4.6420    0.2840   -0.6812 N   0  0  0  0  0  0  0  0  0  0  0  0
   -5.9607   -0.3160    0.1952 S   0  0  0  0  0  6  0  0  0  0  0  0
   -7.2801    0.7558   -0.3354 C   0  0  0  0  0  0  0  0  0  0  0  0
   -5.6950   -0.0753    1.5983 O   0  0  0  0  0  0  0  0  0  0  0  0
   -6.2404   -1.6489   -0.2952 O   0  0  0  0  0  0  0  0  0  0  0  0
   -3.4329   -0.5991   -0.6668 C   0  0  0  0  0  0  0  0  0  0  0  0
    3.0750    2.1870   -0.4579 C   0  0  0  0  0  0  0  0  0  0  0  0
    3.9106    2.7781    0.2242 O   0  0  0  0  0  0  0  0  0  0  0  0
    3.4707    1.0328   -1.3610 C   0  0  0  0  0  0  0  0  0  0  0  0
    4.9521    0.6860   -1.2424 C   0  0  0  0  0  0  0  0  0  0  0  0
    5.3584   -0.0515   -0.0572 N   0  0  0  0  0  0  0  0  0  0  0  0
    4.5921   -0.5737    0.9484 C   0  0  0  0  0  0  0  0  0  0  0  0
    5.4602   -1.2147    1.8015 C   0  0  0  0  0  0  0  0  0  0  0  0
    6.7280   -1.0288    1.2238 C   0  0  0  0  0  0  0  0  0  0  0  0
    6.6692   -0.3503    0.0775 N   0  0  0  0  0  0  0  0  0  0  0  0
    0.4613    4.1663   -0.0133 H   0  0  0  0  0  0  0  0  0  0  0  0
    2.1528    4.4172    0.4569 H   0  0  0  0  0  0  0  0  0  0  0  0
    1.1429    3.2958    1.3932 H   0  0  0  0  0  0  0  0  0  0  0  0
    0.9969    1.1318   -1.8202 H   0  0  0  0  0  0  0  0  0  0  0  0
   -0.1407    2.3770   -1.3488 H   0  0  0  0  0  0  0  0  0  0  0  0
    0.9618    0.2415    0.5533 H   0  0  0  0  0  0  0  0  0  0  0  0
   -0.2976    1.3504    0.9689 H   0  0  0  0  0  0  0  0  0  0  0  0
   -1.4487   -2.1881   -0.4772 H   0  0  0  0  0  0  0  0  0  0  0  0
   -0.2730   -1.0289    2.0781 H   0  0  0  0  0  0  0  0  0  0  0  0
   -1.6896   -2.0238    1.8026 H   0  0  0  0  0  0  0  0  0  0  0  0
   -0.2096   -3.5664    2.7450 H   0  0  0  0  0  0  0  0  0  0  0  0
    1.2223   -2.8567    1.9982 H   0  0  0  0  0  0  0  0  0  0  0  0
    1.8075   -3.9349   -0.3456 H   0  0  0  0  0  0  0  0  0  0  0  0
    0.3132   -4.2038   -1.2441 H   0  0  0  0  0  0  0  0  0  0  0  0
    0.6530   -1.9526   -1.7611 H   0  0  0  0  0  0  0  0  0  0  0  0
    1.5191   -1.6486   -0.2650 H   0  0  0  0  0  0  0  0  0  0  0  0
   -2.4138    0.2578    1.0348 H   0  0  0  0  0  0  0  0  0  0  0  0
   -2.4560    1.7281   -1.6534 H   0  0  0  0  0  0  0  0  0  0  0  0
   -2.1944    2.4601   -0.0528 H   0  0  0  0  0  0  0  0  0  0  0  0
   -4.6726    2.3853   -1.0342 H   0  0  0  0  0  0  0  0  0  0  0  0
   -4.4137    1.9356    0.6695 H   0  0  0  0  0  0  0  0  0  0  0  0
   -8.1952    0.4260    0.1617 H   0  0  0  0  0  0  0  0  0  0  0  0
   -7.0553    1.7827   -0.0423 H   0  0  0  0  0  0  0  0  0  0  0  0
   -7.3938    0.6697   -1.4171 H   0  0  0  0  0  0  0  0  0  0  0  0
   -3.2172   -0.8804   -1.7043 H   0  0  0  0  0  0  0  0  0  0  0  0
   -3.5878   -1.5154   -0.0896 H   0  0  0  0  0  0  0  0  0  0  0  0
    3.2728    1.3512   -2.3917 H   0  0  0  0  0  0  0  0  0  0  0  0
    2.8598    0.1520   -1.1488 H   0  0  0  0  0  0  0  0  0  0  0  0
    5.2319    0.0502   -2.0917 H   0  0  0  0  0  0  0  0  0  0  0  0
    5.5755    1.5863   -1.2827 H   0  0  0  0  0  0  0  0  0  0  0  0
    3.5184   -0.4601    0.9913 H   0  0  0  0  0  0  0  0  0  0  0  0
    5.2220   -1.7382    2.7179 H   0  0  0  0  0  0  0  0  0  0  0  0
    7.6961   -1.3533    1.5894 H   0  0  0  0  0  0  0  0  0  0  0  0
  1  2  1  0
  2  3  1  0
  3  4  1  0
  4  5  1  0
  5  6  1  0
  6  7  1  0
  7  8  1  0
  8  9  1  0
  9 10  1  0
 10 11  1  0
  5 12  1  0
 12 13  1  0
 13 14  1  0
 14 15  1  0
 15 16  1  0
 16 17  1  0
 16 18  2  0
 16 19  2  0
 15 20  1  0
  2 21  1  0
 21 22  2  0
 21 23  1  0
 23 24  1  0
 24 25  1  0
 25 26  1  0
 26 27  2  0
 27 28  1  0
 28 29  2  0
 11  6  1  0
 20 12  1  0
 29 25  1  0
  1 30  1  0
  1 31  1  0
  1 32  1  0
  3 33  1  0
  3 34  1  0
  4 35  1  0
  4 36  1  0
  6 37  1  0
  7 38  1  0
  7 39  1  0
  8 40  1  0
  8 41  1  0
 10 42  1  0
 10 43  1  0
 11 44  1  0
 11 45  1  0
 12 46  1  0
 13 47  1  0
 13 48  1  0
 14 49  1  0
 14 50  1  0
 17 51  1  0
 17 52  1  0
 17 53  1  0
 20 54  1  0
 20 55  1  0
 23 56  1  0
 23 57  1  0
 24 58  1  0
 24 59  1  0
 26 60  1  0
 27 61  1  0
 28 62  1  0
M  END
$$$$
