
     RDKit          3D

 40 42  0  0  0  0  0  0  0  0999 V2000
   -5.3088    0.5175   -0.4891 C   0  0  0  0  0  0  0  0  0  0  0  0
   -4.1356    0.0316   -1.3216 C   0  0  0  0  0  0  0  0  0  0  0  0
   -3.4767   -1.1181   -0.7251 N   0  0  0  0  0  0  0  0  0  0  0  0
   -3.9459   -2.3506   -1.0195 N   0  0  0  0  0  0  0  0  0  0  0  0
   -3.1624   -3.1673   -0.3195 C   0  0  0  0  0  0  0  0  0  0  0  0
   -2.1720   -2.4708    0.3901 C   0  0  0  0  0  0  0  0  0  0  0  0
   -2.3655   -1.1321    0.0894 C   0  0  0  0  0  0  0  0  0  0  0  0
   -1.6717    0.0525    0.5436 C   0  0  0  0  0  0  0  0  0  0  0  0
   -2.2740    1.0957    0.7944 O   0  0  0  0  0  0  0  0  0  0  0  0
   -0.2932   -0.0028    0.6785 N   0  0  0  0  0  0  0  0  0  0  0  0
    0.6088   -1.0231    0.1799 C   0  0  0  0  0  0  0  0  0  0  0  0
    1.9963   -0.3695    0.1156 C   0  0  1  0  0  0  0  0  0  0  0  0
    2.3336    0.1632   -1.2798 C   0  0  0  0  0  0  0  0  0  0  0  0
    3.8271    0.4639   -1.4637 C   0  0  0  0  0  0  0  0  0  0  0  0
    4.6132    0.7816   -0.1948 C   0  0  0  0  0  0  0  0  0  0  0  0
    4.0611    1.9585    0.5638 C   0  0  0  0  0  0  0  0  0  0  0  0
    4.7322    2.9646    0.7833 O   0  0  0  0  0  0  0  0  0  0  0  0
    2.7779    1.9046    1.0121 N   0  0  0  0  0  0  0  0  0  0  0  0
    1.9134    0.7439    1.1795 C   0  0  1  0  0  0  0  0  0  0  0  0
    0.4351    1.1608    1.1375 C   0  0  0  0  0  0  0  0  0  0  0  0
   -6.0667   -0.2658   -0.3821 H   0  0  0  0  0  0  0  0  0  0  0  0
   -5.7791    1.3833   -0.9653 H   0  0  0  0  0  0  0  0  0  0  0  0
   -4.9914    0.8107    0.5166 H   0  0  0  0  0  0  0  0  0  0  0  0
   -3.3948    0.8238   -1.4647 H   0  0  0  0  0  0  0  0  0  0  0  0
   -4.4777   -0.2692   -2.3188 H   0  0  0  0  0  0  0  0  0  0  0  0
   -3.3496   -4.2330   -0.3529 H   0  0  0  0  0  0  0  0  0  0  0  0
   -1.4304   -2.8917    1.0523 H   0  0  0  0  0  0  0  0  0  0  0  0
    0.2704   -1.4202   -0.7815 H   0  0  0  0  0  0  0  0  0  0  0  0
    0.6209   -1.8330    0.9173 H   0  0  0  0  0  0  0  0  0  0  0  0
    2.7385   -1.1288    0.3895 H   0  0  0  0  0  0  0  0  0  0  0  0
    1.7513    1.0688   -1.4920 H   0  0  0  0  0  0  0  0  0  0  0  0
    2.0403   -0.5655   -2.0458 H   0  0  0  0  0  0  0  0  0  0  0  0
    3.9302    1.2882   -2.1805 H   0  0  0  0  0  0  0  0  0  0  0  0
    4.2986   -0.4079   -1.9352 H   0  0  0  0  0  0  0  0  0  0  0  0
    4.6770   -0.0788    0.4793 H   0  0  0  0  0  0  0  0  0  0  0  0
    5.6465    1.0204   -0.4759 H   0  0  0  0  0  0  0  0  0  0  0  0
    2.5565    2.7265    1.5654 H   0  0  0  0  0  0  0  0  0  0  0  0
    2.1411    0.3116    2.1621 H   0  0  0  0  0  0  0  0  0  0  0  0
    0.0653    1.4797    2.1179 H   0  0  0  0  0  0  0  0  0  0  0  0
    0.2606    1.9769    0.4253 H   0  0  0  0  0  0  0  0  0  0  0  0
  1  2  1  0
  2  3  1  0
  3  4  1  0
  4  5  2  0
  5  6  1  0
  6  7  2  0
  7  8  1  0
  8  9  2  0
  8 10  1  0
 10 11  1  0
 11 12  1  0
 12 13  1  0
 13 14  1  0
 14 15  1  0
 15 16  1  0
 16 17  2  0
 16 18  1  0
 18 19  1  0
 19 20  1  0
  7  3  1  0
 20 10  1  0
 19 12  1  0
  1 21  1  0
  1 22  1  0
  1 23  1  0
  2 24  1  0
  2 25  1  0
  5 26  1  0
  6 27  1  0
 11 28  1  0
 11 29  1  0
 12 30  1  1
 13 31  1  0
 13 32  1  0
 14 33  1  0
 14 34  1  0
 15 35  1  0
 15 36  1  0
 18 37  1  0
 19 38  1  1
 20 39  1  0
 20 40  1  0
M  END
$$$$
