
     RDKit          3D

 33 34  0  0  0  0  0  0  0  0999 V2000
   -4.6144    1.5089    0.9131 C   0  0  0  0  0  0  0  0  0  0  0  0
   -4.2503    0.0515    0.7067 C   0  0  0  0  0  0  0  0  0  0  0  0
   -2.8470   -0.0208    0.4321 O   0  0  0  0  0  0  0  0  0  0  0  0
   -2.3724   -1.2847    0.2290 C   0  0  0  0  0  0  0  0  0  0  0  0
   -3.0826   -2.2858    0.2792 O   0  0  0  0  0  0  0  0  0  0  0  0
   -0.9320   -1.3227   -0.0618 C   0  0  0  0  0  0  0  0  0  0  0  0
   -0.3289   -2.4591   -0.5833 C   0  0  0  0  0  0  0  0  0  0  0  0
   -0.9121   -3.6369   -0.9056 N   0  0  0  0  0  0  0  0  0  0  0  0
    1.3438   -2.2576   -0.8281 S   0  0  0  0  0  0  0  0  0  0  0  0
    1.3156   -0.6510   -0.2603 C   0  0  0  0  0  0  0  0  0  0  0  0
    2.5674    0.1092   -0.2627 C   0  0  0  0  0  0  0  0  0  0  0  0
    2.7623    1.1393   -1.1924 C   0  0  0  0  0  0  0  0  0  0  0  0
    3.9480    1.8767   -1.1910 C   0  0  0  0  0  0  0  0  0  0  0  0
    4.9455    1.5915   -0.2598 C   0  0  0  0  0  0  0  0  0  0  0  0
    4.7600    0.5697    0.6705 C   0  0  0  0  0  0  0  0  0  0  0  0
    3.5749   -0.1689    0.6704 C   0  0  0  0  0  0  0  0  0  0  0  0
    0.0465   -0.2559    0.1405 C   0  0  0  0  0  0  0  0  0  0  0  0
   -0.2642    1.0928    0.7191 C   0  0  0  0  0  0  0  0  0  0  0  0
   -4.3701    2.0970    0.0223 H   0  0  0  0  0  0  0  0  0  0  0  0
   -5.6811    1.6182    1.1274 H   0  0  0  0  0  0  0  0  0  0  0  0
   -4.0410    1.9354    1.7428 H   0  0  0  0  0  0  0  0  0  0  0  0
   -4.4806   -0.5186    1.6136 H   0  0  0  0  0  0  0  0  0  0  0  0
   -4.8148   -0.3545   -0.1401 H   0  0  0  0  0  0  0  0  0  0  0  0
   -0.3264   -4.4603   -1.0037 H   0  0  0  0  0  0  0  0  0  0  0  0
   -1.8430   -3.8366   -0.5338 H   0  0  0  0  0  0  0  0  0  0  0  0
    1.9923    1.3669   -1.9261 H   0  0  0  0  0  0  0  0  0  0  0  0
    4.0936    2.6713   -1.9182 H   0  0  0  0  0  0  0  0  0  0  0  0
    5.8692    2.1647   -0.2602 H   0  0  0  0  0  0  0  0  0  0  0  0
    5.5379    0.3466    1.3961 H   0  0  0  0  0  0  0  0  0  0  0  0
    3.4404   -0.9618    1.4026 H   0  0  0  0  0  0  0  0  0  0  0  0
    0.6406    1.6589    0.9599 H   0  0  0  0  0  0  0  0  0  0  0  0
   -0.8288    0.9909    1.6516 H   0  0  0  0  0  0  0  0  0  0  0  0
   -0.8483    1.6853    0.0079 H   0  0  0  0  0  0  0  0  0  0  0  0
  1  2  1  0
  2  3  1  0
  3  4  1  0
  4  5  2  0
  4  6  1  0
  6  7  2  0
  7  8  1  0
  7  9  1  0
  9 10  1  0
 10 11  1  0
 11 12  2  0
 12 13  1  0
 13 14  2  0
 14 15  1  0
 15 16  2  0
 10 17  2  0
 17 18  1  0
 17  6  1  0
 16 11  1  0
  1 19  1  0
  1 20  1  0
  1 21  1  0
  2 22  1  0
  2 23  1  0
  8 24  1  0
  8 25  1  0
 12 26  1  0
 13 27  1  0
 14 28  1  0
 15 29  1  0
 16 30  1  0
 18 31  1  0
 18 32  1  0
 18 33  1  0
M  END
$$$$
