
     RDKit          3D

 57 61  0  0  0  0  0  0  0  0999 V2000
    1.7474   -0.9437    1.8701 C   0  0  0  0  0  0  0  0  0  0  0  0
    1.9172   -0.3068    0.4673 C   0  0  2  0  0  0  0  0  0  0  0  0
    1.4068    1.1436    0.4543 C   0  0  0  0  0  0  0  0  0  0  0  0
   -0.1121    1.2098    0.7087 C   0  0  0  0  0  0  0  0  0  0  0  0
   -0.9583    0.3008   -0.2250 C   0  0  1  0  0  0  0  0  0  0  0  0
   -0.3762   -1.1368   -0.3640 C   0  0  1  0  0  0  0  0  0  0  0  0
   -1.1010   -1.8914   -1.4884 C   0  0  0  0  0  0  0  0  0  0  0  0
   -2.5851   -1.7021   -1.4697 C   0  0  0  0  0  0  0  0  0  0  0  0
   -3.2295   -0.7633   -0.7529 C   0  0  0  0  0  0  0  0  0  0  0  0
   -4.7418   -0.6832   -0.7899 C   0  0  0  0  0  0  0  0  0  0  0  0
   -5.2365    0.7324   -1.0870 C   0  0  1  0  0  0  0  0  0  0  0  0
   -6.6567    0.7662   -0.9625 O   0  0  0  0  0  0  0  0  0  0  0  0
   -4.6207    1.7423   -0.1232 C   0  0  0  0  0  0  0  0  0  0  0  0
   -3.0940    1.6817   -0.1543 C   0  0  0  0  0  0  0  0  0  0  0  0
   -2.5003    0.2682    0.1219 C   0  0  2  0  0  0  0  0  0  0  0  0
   -2.7365   -0.1072    1.6044 C   0  0  0  0  0  0  0  0  0  0  0  0
    1.1250   -1.0408   -0.6459 C   0  0  2  0  0  0  0  0  0  0  0  0
    1.9240   -2.3113   -0.9133 C   0  0  0  0  0  0  0  0  0  0  0  0
    3.3120   -1.7574   -0.7496 C   0  0  0  0  0  0  0  0  0  0  0  0
    3.3230   -0.6064   -0.0432 C   0  0  0  0  0  0  0  0  0  0  0  0
    4.5248    0.1972    0.2233 C   0  0  0  0  0  0  0  0  0  0  0  0
    5.5743    0.2520   -0.7037 C   0  0  0  0  0  0  0  0  0  0  0  0
    6.7043    1.0311   -0.4547 C   0  0  0  0  0  0  0  0  0  0  0  0
    6.7583    1.7497    0.7248 C   0  0  0  0  0  0  0  0  0  0  0  0
    5.7760    1.7387    1.6466 N   0  0  0  0  0  0  0  0  0  0  0  0
    4.6917    0.9679    1.3720 C   0  0  0  0  0  0  0  0  0  0  0  0
    2.1215   -1.9732    1.9078 H   0  0  0  0  0  0  0  0  0  0  0  0
    0.7055   -0.9769    2.1989 H   0  0  0  0  0  0  0  0  0  0  0  0
    2.2939   -0.3783    2.6312 H   0  0  0  0  0  0  0  0  0  0  0  0
    1.6297    1.6189   -0.5099 H   0  0  0  0  0  0  0  0  0  0  0  0
    1.9129    1.7455    1.2170 H   0  0  0  0  0  0  0  0  0  0  0  0
   -0.2921    0.9569    1.7573 H   0  0  0  0  0  0  0  0  0  0  0  0
   -0.4277    2.2527    0.5896 H   0  0  0  0  0  0  0  0  0  0  0  0
   -0.8679    0.7566   -1.2248 H   0  0  0  0  0  0  0  0  0  0  0  0
   -0.5375   -1.6946    0.5650 H   0  0  0  0  0  0  0  0  0  0  0  0
   -0.7325   -1.5711   -2.4708 H   0  0  0  0  0  0  0  0  0  0  0  0
   -0.8810   -2.9622   -1.4005 H   0  0  0  0  0  0  0  0  0  0  0  0
   -3.1538   -2.3951   -2.0875 H   0  0  0  0  0  0  0  0  0  0  0  0
   -5.1518   -1.0282    0.1677 H   0  0  0  0  0  0  0  0  0  0  0  0
   -5.1627   -1.3669   -1.5386 H   0  0  0  0  0  0  0  0  0  0  0  0
   -4.9862    1.0001   -2.1209 H   0  0  0  0  0  0  0  0  0  0  0  0
   -6.9458    1.6703   -1.1744 H   0  0  0  0  0  0  0  0  0  0  0  0
   -4.9550    2.7532   -0.3878 H   0  0  0  0  0  0  0  0  0  0  0  0
   -4.9944    1.5707    0.8938 H   0  0  0  0  0  0  0  0  0  0  0  0
   -2.7642    2.0316   -1.1421 H   0  0  0  0  0  0  0  0  0  0  0  0
   -2.7082    2.4056    0.5734 H   0  0  0  0  0  0  0  0  0  0  0  0
   -2.2417   -1.0470    1.8700 H   0  0  0  0  0  0  0  0  0  0  0  0
   -3.7989   -0.2340    1.8376 H   0  0  0  0  0  0  0  0  0  0  0  0
   -2.3685    0.6697    2.2821 H   0  0  0  0  0  0  0  0  0  0  0  0
    1.2116   -0.4425   -1.5731 H   0  0  0  0  0  0  0  0  0  0  0  0
    1.7606   -2.6799   -1.9302 H   0  0  0  0  0  0  0  0  0  0  0  0
    1.7257   -3.1141   -0.1974 H   0  0  0  0  0  0  0  0  0  0  0  0
    4.1769   -2.2444   -1.1794 H   0  0  0  0  0  0  0  0  0  0  0  0
    5.5195   -0.2990   -1.6390 H   0  0  0  0  0  0  0  0  0  0  0  0
    7.5182    1.0775   -1.1692 H   0  0  0  0  0  0  0  0  0  0  0  0
    7.6153    2.3719    0.9652 H   0  0  0  0  0  0  0  0  0  0  0  0
    3.9425    0.9949    2.1550 H   0  0  0  0  0  0  0  0  0  0  0  0
  2  1  1  1
  2  3  1  0
  3  4  1  0
  4  5  1  0
  5  6  1  0
  6  7  1  0
  7  8  1  0
  8  9  2  0
  9 10  1  0
 10 11  1  0
 11 12  1  0
 11 13  1  0
 13 14  1  0
 14 15  1  0
 15 16  1  1
  6 17  1  0
 17 18  1  0
 18 19  1  0
 19 20  2  0
 20 21  1  0
 21 22  2  0
 22 23  1  0
 23 24  2  0
 24 25  1  0
 25 26  2  0
 17  2  1  0
 26 21  1  0
 20  2  1  0
 15  5  1  0
 15  9  1  0
  1 27  1  0
  1 28  1  0
  1 29  1  0
  3 30  1  0
  3 31  1  0
  4 32  1  0
  4 33  1  0
  5 34  1  6
  6 35  1  1
  7 36  1  0
  7 37  1  0
  8 38  1  0
 10 39  1  0
 10 40  1  0
 11 41  1  6
 12 42  1  0
 13 43  1  0
 13 44  1  0
 14 45  1  0
 14 46  1  0
 16 47  1  0
 16 48  1  0
 16 49  1  0
 17 50  1  6
 18 51  1  0
 18 52  1  0
 19 53  1  0
 22 54  1  0
 23 55  1  0
 24 56  1  0
 26 57  1  0
M  END
$$$$
