
     RDKit          3D

 30 32  0  0  0  0  0  0  0  0999 V2000
   -2.5683   -1.7882   -1.9785 C   0  0  0  0  0  0  0  0  0  0  0  0
   -3.2917   -0.7875   -1.4602 C   0  0  0  0  0  0  0  0  0  0  0  0
   -2.8883    0.1619   -0.4173 C   0  0  0  0  0  0  0  0  0  0  0  0
   -3.8374    0.9911    0.2086 C   0  0  0  0  0  0  0  0  0  0  0  0
   -3.4722    1.9042    1.1999 C   0  0  0  0  0  0  0  0  0  0  0  0
   -4.4681    2.6600    1.7506 O   0  0  0  0  0  0  0  0  0  0  0  0
   -2.1495    2.0490    1.6189 C   0  0  0  0  0  0  0  0  0  0  0  0
   -1.1861    1.2410    1.0009 C   0  0  0  0  0  0  0  0  0  0  0  0
    0.1705    1.1769    1.2020 N   0  0  0  0  0  0  0  0  0  0  0  0
    0.5711    0.2575    0.3440 C   0  0  0  0  0  0  0  0  0  0  0  0
    1.9229   -0.2392    0.0994 C   0  0  0  0  0  0  0  0  0  0  0  0
    2.1916   -1.2178   -0.8760 C   0  0  0  0  0  0  0  0  0  0  0  0
    3.4950   -1.6788   -1.0930 C   0  0  0  0  0  0  0  0  0  0  0  0
    4.5343   -1.1614   -0.3343 C   0  0  0  0  0  0  0  0  0  0  0  0
    5.8001   -1.6208   -0.5572 O   0  0  0  0  0  0  0  0  0  0  0  0
    4.2821   -0.1937    0.6320 C   0  0  0  0  0  0  0  0  0  0  0  0
    5.3000    0.2947    1.3555 F   0  0  0  0  0  0  0  0  0  0  0  0
    2.9906    0.2699    0.8542 C   0  0  0  0  0  0  0  0  0  0  0  0
   -0.4324   -0.2928   -0.4080 O   0  0  0  0  0  0  0  0  0  0  0  0
   -1.5710    0.3372    0.0178 C   0  0  0  0  0  0  0  0  0  0  0  0
   -2.9943   -2.4265   -2.7471 H   0  0  0  0  0  0  0  0  0  0  0  0
   -1.5581   -2.0198   -1.6635 H   0  0  0  0  0  0  0  0  0  0  0  0
   -4.3071   -0.6582   -1.8328 H   0  0  0  0  0  0  0  0  0  0  0  0
   -4.8871    0.9250   -0.0730 H   0  0  0  0  0  0  0  0  0  0  0  0
   -4.0846    3.2486    2.4227 H   0  0  0  0  0  0  0  0  0  0  0  0
   -1.8518    2.7535    2.3849 H   0  0  0  0  0  0  0  0  0  0  0  0
    1.3858   -1.6316   -1.4799 H   0  0  0  0  0  0  0  0  0  0  0  0
    3.6930   -2.4342   -1.8483 H   0  0  0  0  0  0  0  0  0  0  0  0
    6.3874   -1.1469    0.0617 H   0  0  0  0  0  0  0  0  0  0  0  0
    2.8234    1.0269    1.6161 H   0  0  0  0  0  0  0  0  0  0  0  0
  1  2  2  3
  2  3  1  0
  3  4  2  0
  4  5  1  0
  5  6  1  0
  5  7  2  0
  7  8  1  0
  8  9  1  0
  9 10  2  0
 10 11  1  0
 11 12  2  0
 12 13  1  0
 13 14  2  0
 14 15  1  0
 14 16  1  0
 16 17  1  0
 16 18  2  0
 10 19  1  0
 19 20  1  0
 20  3  1  0
 20  8  2  0
 18 11  1  0
  1 21  1  0
  1 22  1  0
  2 23  1  0
  4 24  1  0
  6 25  1  0
  7 26  1  0
 12 27  1  0
 13 28  1  0
 15 29  1  0
 18 30  1  0
M  END
$$$$
