
     RDKit          3D

 51 55  0  0  0  0  0  0  0  0999 V2000
    7.4398    0.5046   -0.1328 C   0  0  0  0  0  0  0  0  0  0  0  0
    6.1581    0.2307    0.5786 C   0  0  0  0  0  0  0  0  0  0  0  0
    5.8922   -0.7230    1.5393 C   0  0  0  0  0  0  0  0  0  0  0  0
    4.5378   -0.6811    1.9849 C   0  0  0  0  0  0  0  0  0  0  0  0
    3.8068    0.3065    1.3530 C   0  0  0  0  0  0  0  0  0  0  0  0
    2.3655    0.6857    1.5644 C   0  0  0  0  0  0  0  0  0  0  0  0
    1.4501   -0.4161    1.2013 N   0  0  0  0  0  0  0  0  0  0  0  0
    1.3210   -0.5361   -0.2605 C   0  0  0  0  0  0  0  0  0  0  0  0
   -0.2014   -0.2557   -0.1509 C   0  0  0  0  0  0  0  0  0  0  0  0
    0.0546    0.0196    1.3471 C   0  0  0  0  0  0  0  0  0  0  0  0
   -1.0716   -1.4574   -0.5212 C   0  0  0  0  0  0  0  0  0  0  0  0
   -1.5434   -1.1973   -1.9160 N   0  0  0  0  0  0  0  0  0  0  0  0
   -1.3773   -2.4377   -3.0532 S   0  0  0  0  0  6  0  0  0  0  0  0
   -2.5631   -3.6275   -2.4717 C   0  0  0  0  0  0  0  0  0  0  0  0
   -1.8439   -1.9178   -4.3205 O   0  0  0  0  0  0  0  0  0  0  0  0
   -0.0441   -2.9806   -2.9188 O   0  0  0  0  0  0  0  0  0  0  0  0
   -0.9964    0.1233   -2.3508 C   0  0  0  0  0  0  0  0  0  0  0  0
   -0.6786    0.8784   -1.0580 C   0  0  0  0  0  0  0  0  0  0  0  0
   -1.8848    1.5806   -0.5449 C   0  0  0  0  0  0  0  0  0  0  0  0
   -2.6670    1.2994    0.4743 N   0  0  0  0  0  0  0  0  0  0  0  0
   -3.5801    2.3217    0.4248 C   0  0  0  0  0  0  0  0  0  0  0  0
   -4.7510    2.4665    1.4362 C   0  0  0  0  0  0  0  0  0  0  0  0
   -5.8349    1.4192    1.4578 C   0  0  0  0  0  0  0  0  0  0  0  0
   -4.8650    1.5146    2.6005 C   0  0  0  0  0  0  0  0  0  0  0  0
   -3.3784    3.2075   -0.5584 N   0  0  0  0  0  0  0  0  0  0  0  0
   -2.2411    2.7251   -1.2007 O   0  0  0  0  0  0  0  0  0  0  0  0
    4.7701    1.1631    0.2210 S   0  0  0  0  0  0  0  0  0  0  0  0
    8.2276   -0.1716    0.2138 H   0  0  0  0  0  0  0  0  0  0  0  0
    7.7727    1.5318    0.0505 H   0  0  0  0  0  0  0  0  0  0  0  0
    7.3246    0.3560   -1.2107 H   0  0  0  0  0  0  0  0  0  0  0  0
    6.6321   -1.4192    1.9122 H   0  0  0  0  0  0  0  0  0  0  0  0
    4.1175   -1.3354    2.7382 H   0  0  0  0  0  0  0  0  0  0  0  0
    2.1197    1.6154    1.0238 H   0  0  0  0  0  0  0  0  0  0  0  0
    2.2434    0.9098    2.6359 H   0  0  0  0  0  0  0  0  0  0  0  0
    1.8821    0.1937   -0.8661 H   0  0  0  0  0  0  0  0  0  0  0  0
    1.5941   -1.5327   -0.6376 H   0  0  0  0  0  0  0  0  0  0  0  0
   -0.0899    1.0620    1.6599 H   0  0  0  0  0  0  0  0  0  0  0  0
   -0.5253   -0.6089    2.0340 H   0  0  0  0  0  0  0  0  0  0  0  0
   -1.9614   -1.5112    0.1182 H   0  0  0  0  0  0  0  0  0  0  0  0
   -0.5377   -2.4081   -0.4228 H   0  0  0  0  0  0  0  0  0  0  0  0
   -2.2744   -3.9813   -1.4820 H   0  0  0  0  0  0  0  0  0  0  0  0
   -2.5736   -4.4588   -3.1778 H   0  0  0  0  0  0  0  0  0  0  0  0
   -3.5509   -3.1628   -2.4536 H   0  0  0  0  0  0  0  0  0  0  0  0
   -1.7113    0.6435   -2.9925 H   0  0  0  0  0  0  0  0  0  0  0  0
   -0.0674   -0.0330   -2.9134 H   0  0  0  0  0  0  0  0  0  0  0  0
    0.1016    1.6296   -1.2270 H   0  0  0  0  0  0  0  0  0  0  0  0
   -5.0544    3.4940    1.6117 H   0  0  0  0  0  0  0  0  0  0  0  0
   -6.8532    1.7526    1.6230 H   0  0  0  0  0  0  0  0  0  0  0  0
   -5.7484    0.5680    0.7896 H   0  0  0  0  0  0  0  0  0  0  0  0
   -5.2204    1.9178    3.5440 H   0  0  0  0  0  0  0  0  0  0  0  0
   -4.1212    0.7326    2.7040 H   0  0  0  0  0  0  0  0  0  0  0  0
  1  2  1  0
  2  3  2  0
  3  4  1  0
  4  5  2  0
  5  6  1  0
  6  7  1  0
  7  8  1  0
  8  9  1  0
  9 10  1  0
  9 11  1  0
 11 12  1  0
 12 13  1  0
 13 14  1  0
 13 15  2  0
 13 16  2  0
 12 17  1  0
 17 18  1  0
 18 19  1  0
 19 20  2  0
 20 21  1  0
 21 22  1  0
 22 23  1  0
 23 24  1  0
 21 25  2  0
 25 26  1  0
  5 27  1  0
 27  2  1  0
 10  7  1  0
 26 19  1  0
 18  9  1  0
 24 22  1  0
  1 28  1  0
  1 29  1  0
  1 30  1  0
  3 31  1  0
  4 32  1  0
  6 33  1  0
  6 34  1  0
  8 35  1  0
  8 36  1  0
 10 37  1  0
 10 38  1  0
 11 39  1  0
 11 40  1  0
 14 41  1  0
 14 42  1  0
 14 43  1  0
 17 44  1  0
 17 45  1  0
 18 46  1  0
 22 47  1  0
 23 48  1  0
 23 49  1  0
 24 50  1  0
 24 51  1  0
M  END
$$$$
