
     RDKit          3D

 55 58  0  0  0  0  0  0  0  0999 V2000
   -9.2173   -1.4256    0.4127 C   0  0  0  0  0  0  0  0  0  0  0  0
   -8.6397   -0.8741   -0.7642 O   0  0  0  0  0  0  0  0  0  0  0  0
   -7.3092   -0.5700   -0.7136 C   0  0  0  0  0  0  0  0  0  0  0  0
   -6.7830   -0.0308   -1.8828 C   0  0  0  0  0  0  0  0  0  0  0  0
   -5.4286    0.3246   -1.9682 C   0  0  0  0  0  0  0  0  0  0  0  0
   -4.5521    0.1493   -0.8863 C   0  0  0  0  0  0  0  0  0  0  0  0
   -3.1704    0.5113   -0.9695 N   0  0  0  0  0  0  0  0  0  0  0  0
   -2.5719    1.1454   -2.0345 C   0  0  0  0  0  0  0  0  0  0  0  0
   -3.0283    1.5182   -3.1036 O   0  0  0  0  0  0  0  0  0  0  0  0
   -1.2393    1.3418   -1.7489 N   0  0  0  0  0  0  0  0  0  0  0  0
   -0.8654    0.8246   -0.4653 C   0  0  0  0  0  0  0  0  0  0  0  0
   -0.3896    1.9254    0.4655 C   0  0  0  0  0  0  0  0  0  0  0  0
    0.4668    1.3714    1.5839 C   0  0  0  0  0  0  0  0  0  0  0  0
    0.0353    1.3855    2.7381 O   0  0  0  0  0  0  0  0  0  0  0  0
    1.7248    0.8666    1.2814 N   0  0  0  0  0  0  0  0  0  0  0  0
    2.4840    0.2745    2.3846 C   0  0  0  0  0  0  0  0  0  0  0  0
    3.6763   -0.5418    1.9021 C   0  0  0  0  0  0  0  0  0  0  0  0
    4.6329    0.3283    1.0686 C   0  0  0  0  0  0  0  0  0  0  0  0
    5.6260   -0.5220    0.2931 C   0  0  0  0  0  0  0  0  0  0  0  0
    5.2157   -1.3932   -0.7284 C   0  0  0  0  0  0  0  0  0  0  0  0
    6.1491   -2.1610   -1.4285 C   0  0  0  0  0  0  0  0  0  0  0  0
    7.5037   -2.0685   -1.1186 C   0  0  0  0  0  0  0  0  0  0  0  0
    7.9265   -1.2092   -0.1075 C   0  0  0  0  0  0  0  0  0  0  0  0
    6.9945   -0.4415    0.5941 C   0  0  0  0  0  0  0  0  0  0  0  0
    3.8843    1.3305    0.1651 C   0  0  0  0  0  0  0  0  0  0  0  0
    2.4095    0.9796   -0.0093 C   0  0  0  0  0  0  0  0  0  0  0  0
   -2.2074    0.2448   -0.0132 C   0  0  0  0  0  0  0  0  0  0  0  0
   -2.3153   -0.3713    1.0405 O   0  0  0  0  0  0  0  0  0  0  0  0
   -5.1062   -0.3932    0.2852 C   0  0  0  0  0  0  0  0  0  0  0  0
   -6.4634   -0.7490    0.3736 C   0  0  0  0  0  0  0  0  0  0  0  0
   -8.7553   -2.3853    0.6668 H   0  0  0  0  0  0  0  0  0  0  0  0
   -9.1556   -0.7224    1.2500 H   0  0  0  0  0  0  0  0  0  0  0  0
  -10.2768   -1.6097    0.2103 H   0  0  0  0  0  0  0  0  0  0  0  0
   -7.4284    0.1145   -2.7467 H   0  0  0  0  0  0  0  0  0  0  0  0
   -5.0994    0.7305   -2.9197 H   0  0  0  0  0  0  0  0  0  0  0  0
   -0.6258    1.7432   -2.4472 H   0  0  0  0  0  0  0  0  0  0  0  0
   -0.1552    0.0082   -0.6201 H   0  0  0  0  0  0  0  0  0  0  0  0
    0.1777    2.6993   -0.0627 H   0  0  0  0  0  0  0  0  0  0  0  0
   -1.2408    2.4493    0.9207 H   0  0  0  0  0  0  0  0  0  0  0  0
    2.8188    1.0953    3.0313 H   0  0  0  0  0  0  0  0  0  0  0  0
    1.8150   -0.3594    2.9790 H   0  0  0  0  0  0  0  0  0  0  0  0
    4.2125   -0.9664    2.7597 H   0  0  0  0  0  0  0  0  0  0  0  0
    3.3056   -1.3945    1.3188 H   0  0  0  0  0  0  0  0  0  0  0  0
    5.2091    0.9374    1.7806 H   0  0  0  0  0  0  0  0  0  0  0  0
    4.1648   -1.4887   -0.9885 H   0  0  0  0  0  0  0  0  0  0  0  0
    5.8183   -2.8343   -2.2155 H   0  0  0  0  0  0  0  0  0  0  0  0
    8.2297   -2.6666   -1.6631 H   0  0  0  0  0  0  0  0  0  0  0  0
    8.9832   -1.1364    0.1368 H   0  0  0  0  0  0  0  0  0  0  0  0
    7.3492    0.2223    1.3801 H   0  0  0  0  0  0  0  0  0  0  0  0
    3.9404    2.3223    0.6356 H   0  0  0  0  0  0  0  0  0  0  0  0
    4.3634    1.4338   -0.8160 H   0  0  0  0  0  0  0  0  0  0  0  0
    2.3007    0.0162   -0.5195 H   0  0  0  0  0  0  0  0  0  0  0  0
    1.9356    1.7341   -0.6398 H   0  0  0  0  0  0  0  0  0  0  0  0
   -4.5132   -0.5512    1.1814 H   0  0  0  0  0  0  0  0  0  0  0  0
   -6.8163   -1.1623    1.3128 H   0  0  0  0  0  0  0  0  0  0  0  0
  1  2  1  0
  2  3  1  0
  3  4  2  0
  4  5  1  0
  5  6  2  0
  6  7  1  0
  7  8  1  0
  8  9  2  0
  8 10  1  0
 10 11  1  0
 11 12  1  0
 12 13  1  0
 13 14  2  0
 13 15  1  0
 15 16  1  0
 16 17  1  0
 17 18  1  0
 18 19  1  0
 19 20  2  0
 20 21  1  0
 21 22  2  0
 22 23  1  0
 23 24  2  0
 18 25  1  0
 25 26  1  0
 11 27  1  0
 27 28  2  0
  6 29  1  0
 29 30  2  0
 30  3  1  0
 27  7  1  0
 26 15  1  0
 24 19  1  0
  1 31  1  0
  1 32  1  0
  1 33  1  0
  4 34  1  0
  5 35  1  0
 10 36  1  0
 11 37  1  0
 12 38  1  0
 12 39  1  0
 16 40  1  0
 16 41  1  0
 17 42  1  0
 17 43  1  0
 18 44  1  0
 20 45  1  0
 21 46  1  0
 22 47  1  0
 23 48  1  0
 24 49  1  0
 25 50  1  0
 25 51  1  0
 26 52  1  0
 26 53  1  0
 29 54  1  0
 30 55  1  0
M  END
$$$$
