
     RDKit          3D

 59 61  0  0  0  0  0  0  0  0999 V2000
    4.5463    1.9754    0.3686 O   0  0  0  0  0  0  0  0  0  0  0  0
    5.7636    2.0023    0.1978 C   0  0  0  0  0  0  0  0  0  0  0  0
    6.7640    1.1235    0.9241 C   0  0  0  0  0  0  0  0  0  0  0  0
    6.1313    0.0850    1.8521 C   0  0  0  0  0  0  0  0  0  0  0  0
    5.7848   -1.2477    1.1748 C   0  0  0  0  0  0  0  0  0  0  0  0
    4.6990   -1.1365    0.1043 C   0  0  0  0  0  0  0  0  0  0  0  0
    4.2602   -2.5163   -0.3966 C   0  0  0  0  0  0  0  0  0  0  0  0
    3.2177   -2.4359   -1.5107 C   0  0  0  0  0  0  0  0  0  0  0  0
    1.9474   -1.9072   -1.0496 N   0  0  0  0  0  0  0  0  0  0  0  0
    0.7893   -2.1136   -1.7720 C   0  0  0  0  0  0  0  0  0  0  0  0
    0.7416   -2.8182   -2.7743 O   0  0  0  0  0  0  0  0  0  0  0  0
   -0.4458   -1.4733   -1.2834 C   0  0  0  0  0  0  0  0  0  0  0  0
   -0.5036   -0.4076   -0.4210 C   0  0  0  0  0  0  0  0  0  0  0  0
   -1.6601    0.1392    0.0209 N   0  0  0  0  0  0  0  0  0  0  0  0
   -2.8336   -0.3883   -0.4039 C   0  0  0  0  0  0  0  0  0  0  0  0
   -4.0630    0.1865    0.0694 N   0  0  0  0  0  0  0  0  0  0  0  0
   -5.3400   -0.4676   -0.0827 C   0  0  0  0  0  0  0  0  0  0  0  0
   -5.4731   -1.8663   -0.0358 C   0  0  0  0  0  0  0  0  0  0  0  0
   -6.7218   -2.4846   -0.1656 C   0  0  0  0  0  0  0  0  0  0  0  0
   -7.8685   -1.7157   -0.3374 C   0  0  0  0  0  0  0  0  0  0  0  0
   -7.7684   -0.3291   -0.3775 C   0  0  0  0  0  0  0  0  0  0  0  0
   -6.5190    0.2872   -0.2492 C   0  0  0  0  0  0  0  0  0  0  0  0
   -4.0007    1.4742    0.7105 C   0  0  0  0  0  0  0  0  0  0  0  0
   -3.6352    2.6037   -0.0499 C   0  0  0  0  0  0  0  0  0  0  0  0
   -3.5848    3.8734    0.5285 C   0  0  0  0  0  0  0  0  0  0  0  0
   -3.8925    4.0363    1.8770 C   0  0  0  0  0  0  0  0  0  0  0  0
   -4.2462    2.9299    2.6499 C   0  0  0  0  0  0  0  0  0  0  0  0
   -4.2987    1.6543    2.0754 C   0  0  0  0  0  0  0  0  0  0  0  0
   -4.6876    0.3273    3.1153 Cl  0  0  0  0  0  0  0  0  0  0  0  0
   -2.8533   -1.4188   -1.2758 N   0  0  0  0  0  0  0  0  0  0  0  0
   -1.6728   -1.9336   -1.6958 C   0  0  0  0  0  0  0  0  0  0  0  0
    6.3547    2.8790   -0.6855 N   0  0  0  0  0  0  0  0  0  0  0  0
    5.4563    3.6371   -1.4742 O   0  0  0  0  0  0  0  0  0  0  0  0
    7.4200    0.6392    0.1923 H   0  0  0  0  0  0  0  0  0  0  0  0
    7.3837    1.7964    1.5301 H   0  0  0  0  0  0  0  0  0  0  0  0
    5.2418    0.4908    2.3489 H   0  0  0  0  0  0  0  0  0  0  0  0
    6.8548   -0.1377    2.6475 H   0  0  0  0  0  0  0  0  0  0  0  0
    5.4501   -1.9436    1.9545 H   0  0  0  0  0  0  0  0  0  0  0  0
    6.6906   -1.6832    0.7363 H   0  0  0  0  0  0  0  0  0  0  0  0
    3.8384   -0.6044    0.5226 H   0  0  0  0  0  0  0  0  0  0  0  0
    5.0718   -0.5523   -0.7445 H   0  0  0  0  0  0  0  0  0  0  0  0
    3.8598   -3.1018    0.4406 H   0  0  0  0  0  0  0  0  0  0  0  0
    5.1367   -3.0539   -0.7780 H   0  0  0  0  0  0  0  0  0  0  0  0
    3.5668   -1.7954   -2.3282 H   0  0  0  0  0  0  0  0  0  0  0  0
    3.0492   -3.4365   -1.9250 H   0  0  0  0  0  0  0  0  0  0  0  0
    1.9612   -1.2824   -0.2560 H   0  0  0  0  0  0  0  0  0  0  0  0
    0.3832    0.0894   -0.0429 H   0  0  0  0  0  0  0  0  0  0  0  0
   -4.6053   -2.4992    0.1281 H   0  0  0  0  0  0  0  0  0  0  0  0
   -6.7932   -3.5684   -0.1251 H   0  0  0  0  0  0  0  0  0  0  0  0
   -8.8382   -2.1965   -0.4372 H   0  0  0  0  0  0  0  0  0  0  0  0
   -8.6601    0.2782   -0.5097 H   0  0  0  0  0  0  0  0  0  0  0  0
   -6.4776    1.3728   -0.2976 H   0  0  0  0  0  0  0  0  0  0  0  0
   -3.3949    2.4897   -1.1050 H   0  0  0  0  0  0  0  0  0  0  0  0
   -3.3008    4.7327   -0.0747 H   0  0  0  0  0  0  0  0  0  0  0  0
   -3.8489    5.0239    2.3299 H   0  0  0  0  0  0  0  0  0  0  0  0
   -4.4693    3.0627    3.7052 H   0  0  0  0  0  0  0  0  0  0  0  0
   -1.7611   -2.7648   -2.3915 H   0  0  0  0  0  0  0  0  0  0  0  0
    7.2720    2.7143   -1.0858 H   0  0  0  0  0  0  0  0  0  0  0  0
    4.5817    3.3760   -1.1089 H   0  0  0  0  0  0  0  0  0  0  0  0
  1  2  2  0
  2  3  1  0
  3  4  1  0
  4  5  1  0
  5  6  1  0
  6  7  1  0
  7  8  1  0
  8  9  1  0
  9 10  1  0
 10 11  2  0
 10 12  1  0
 12 13  2  0
 13 14  1  0
 14 15  2  0
 15 16  1  0
 16 17  1  0
 17 18  2  0
 18 19  1  0
 19 20  2  0
 20 21  1  0
 21 22  2  0
 16 23  1  0
 23 24  2  0
 24 25  1  0
 25 26  2  0
 26 27  1  0
 27 28  2  0
 28 29  1  0
 15 30  1  0
 30 31  2  0
  2 32  1  0
 32 33  1  0
 31 12  1  0
 22 17  1  0
 28 23  1  0
  3 34  1  0
  3 35  1  0
  4 36  1  0
  4 37  1  0
  5 38  1  0
  5 39  1  0
  6 40  1  0
  6 41  1  0
  7 42  1  0
  7 43  1  0
  8 44  1  0
  8 45  1  0
  9 46  1  0
 13 47  1  0
 18 48  1  0
 19 49  1  0
 20 50  1  0
 21 51  1  0
 22 52  1  0
 24 53  1  0
 25 54  1  0
 26 55  1  0
 27 56  1  0
 31 57  1  0
 32 58  1  0
 33 59  1  0
M  END
$$$$
