
     RDKit          3D

 67 70  0  0  0  0  0  0  0  0999 V2000
   -7.2087    4.2491   -1.5383 C   0  0  0  0  0  0  0  0  0  0  0  0
   -6.0853    3.7782   -0.6272 C   0  0  0  0  0  0  0  0  0  0  0  0
   -4.7276    3.8623   -1.3280 C   0  0  0  0  0  0  0  0  0  0  0  0
   -3.5715    3.4167   -0.4292 C   0  0  0  0  0  0  0  0  0  0  0  0
   -3.6518    1.9879   -0.1850 N   0  0  0  0  0  0  0  0  0  0  0  0
   -2.5758    1.4707    0.5235 C   0  0  0  0  0  0  0  0  0  0  0  0
   -2.0206    2.1662    1.5234 N   0  0  0  0  0  0  0  0  0  0  0  0
   -0.9870    1.5817    2.1583 C   0  0  0  0  0  0  0  0  0  0  0  0
   -0.4771    0.3506    1.8132 C   0  0  0  0  0  0  0  0  0  0  0  0
    0.6503   -0.2477    2.5520 C   0  0  0  0  0  0  0  0  0  0  0  0
    0.6638   -1.4552    2.7689 O   0  0  0  0  0  0  0  0  0  0  0  0
    1.6581    0.6127    2.9393 N   0  0  0  0  0  0  0  0  0  0  0  0
    2.9012    0.1105    3.4901 C   0  0  0  0  0  0  0  0  0  0  0  0
    4.0094    0.1874    2.4686 C   0  0  0  0  0  0  0  0  0  0  0  0
    3.9320   -0.5445    1.2767 C   0  0  0  0  0  0  0  0  0  0  0  0
    4.9441   -0.4604    0.3140 C   0  0  0  0  0  0  0  0  0  0  0  0
    6.0661    0.3508    0.5338 C   0  0  0  0  0  0  0  0  0  0  0  0
    7.0937    0.4511   -0.4491 N   0  0  0  0  0  0  0  0  0  0  0  0
    8.2795    1.1525   -0.3565 C   0  0  0  0  0  0  0  0  0  0  0  0
    8.9294    0.9712   -1.5534 C   0  0  0  0  0  0  0  0  0  0  0  0
    8.1989    0.1729   -2.3844 N   0  0  0  0  0  0  0  0  0  0  0  0
    7.1136   -0.1244   -1.7031 C   0  0  0  0  0  0  0  0  0  0  0  0
    6.1563    1.0690    1.7352 C   0  0  0  0  0  0  0  0  0  0  0  0
    5.1351    0.9892    2.6897 C   0  0  0  0  0  0  0  0  0  0  0  0
   -1.1184   -0.3117    0.7748 C   0  0  0  0  0  0  0  0  0  0  0  0
   -0.6206   -1.5413    0.3058 N   0  0  0  0  0  0  0  0  0  0  0  0
   -1.4549   -2.3080   -0.6250 C   0  0  1  0  0  0  0  0  0  0  0  0
   -0.5544   -3.3634   -1.3029 C   0  0  0  0  0  0  0  0  0  0  0  0
   -1.2836   -4.6630   -1.6642 C   0  0  0  0  0  0  0  0  0  0  0  0
   -2.7500   -4.4263   -2.0027 C   0  0  2  0  0  0  0  0  0  0  0  0
   -2.8345   -3.5497   -3.1254 O   0  0  0  0  0  0  0  0  0  0  0  0
   -3.5108   -3.7954   -0.8330 C   0  0  0  0  0  0  0  0  0  0  0  0
   -2.6183   -2.9819    0.1117 C   0  0  0  0  0  0  0  0  0  0  0  0
   -2.1542    0.2632    0.1274 N   0  0  0  0  0  0  0  0  0  0  0  0
   -7.0447    5.2810   -1.8651 H   0  0  0  0  0  0  0  0  0  0  0  0
   -7.2826    3.6152   -2.4272 H   0  0  0  0  0  0  0  0  0  0  0  0
   -8.1674    4.2083   -1.0123 H   0  0  0  0  0  0  0  0  0  0  0  0
   -6.2903    2.7486   -0.3130 H   0  0  0  0  0  0  0  0  0  0  0  0
   -6.0740    4.3971    0.2776 H   0  0  0  0  0  0  0  0  0  0  0  0
   -4.7442    3.2565   -2.2424 H   0  0  0  0  0  0  0  0  0  0  0  0
   -4.5492    4.9001   -1.6340 H   0  0  0  0  0  0  0  0  0  0  0  0
   -2.6287    3.6584   -0.9354 H   0  0  0  0  0  0  0  0  0  0  0  0
   -3.6067    3.9797    0.5118 H   0  0  0  0  0  0  0  0  0  0  0  0
   -3.7185    1.4114   -1.0191 H   0  0  0  0  0  0  0  0  0  0  0  0
   -0.5876    2.1550    2.9886 H   0  0  0  0  0  0  0  0  0  0  0  0
    1.6896    1.5464    2.5514 H   0  0  0  0  0  0  0  0  0  0  0  0
    3.1327    0.7398    4.3569 H   0  0  0  0  0  0  0  0  0  0  0  0
    2.7939   -0.9202    3.8459 H   0  0  0  0  0  0  0  0  0  0  0  0
    3.0710   -1.1861    1.0855 H   0  0  0  0  0  0  0  0  0  0  0  0
    4.8163   -1.0504   -0.5884 H   0  0  0  0  0  0  0  0  0  0  0  0
    8.5762    1.7048    0.5203 H   0  0  0  0  0  0  0  0  0  0  0  0
    9.8901    1.3697   -1.8547 H   0  0  0  0  0  0  0  0  0  0  0  0
    6.3155   -0.7455   -2.0852 H   0  0  0  0  0  0  0  0  0  0  0  0
    6.9988    1.7159    1.9601 H   0  0  0  0  0  0  0  0  0  0  0  0
    5.2286    1.5651    3.6086 H   0  0  0  0  0  0  0  0  0  0  0  0
   -0.3033   -2.1015    1.1040 H   0  0  0  0  0  0  0  0  0  0  0  0
   -1.8475   -1.6542   -1.4149 H   0  0  0  0  0  0  0  0  0  0  0  0
    0.3074   -3.6188   -0.6722 H   0  0  0  0  0  0  0  0  0  0  0  0
   -0.1289   -2.9192   -2.2124 H   0  0  0  0  0  0  0  0  0  0  0  0
   -0.7668   -5.1280   -2.5123 H   0  0  0  0  0  0  0  0  0  0  0  0
   -1.2142   -5.3653   -0.8242 H   0  0  0  0  0  0  0  0  0  0  0  0
   -3.2360   -5.3652   -2.2892 H   0  0  0  0  0  0  0  0  0  0  0  0
   -2.3960   -3.9889   -3.8747 H   0  0  0  0  0  0  0  0  0  0  0  0
   -3.9905   -4.5852   -0.2419 H   0  0  0  0  0  0  0  0  0  0  0  0
   -4.3126   -3.1511   -1.2147 H   0  0  0  0  0  0  0  0  0  0  0  0
   -2.2195   -3.6475    0.8901 H   0  0  0  0  0  0  0  0  0  0  0  0
   -3.2373   -2.2471    0.6400 H   0  0  0  0  0  0  0  0  0  0  0  0
  1  2  1  0
  2  3  1  0
  3  4  1  0
  4  5  1  0
  5  6  1  0
  6  7  2  0
  7  8  1  0
  8  9  2  0
  9 10  1  0
 10 11  2  0
 10 12  1  0
 12 13  1  0
 13 14  1  0
 14 15  2  0
 15 16  1  0
 16 17  2  0
 17 18  1  0
 18 19  1  0
 19 20  2  0
 20 21  1  0
 21 22  2  0
 17 23  1  0
 23 24  2  0
  9 25  1  0
 25 26  1  0
 26 27  1  0
 27 28  1  0
 28 29  1  0
 29 30  1  0
 30 31  1  0
 30 32  1  0
 32 33  1  0
 25 34  2  0
 34  6  1  0
 24 14  1  0
 33 27  1  0
 22 18  1  0
  1 35  1  0
  1 36  1  0
  1 37  1  0
  2 38  1  0
  2 39  1  0
  3 40  1  0
  3 41  1  0
  4 42  1  0
  4 43  1  0
  5 44  1  0
  8 45  1  0
 12 46  1  0
 13 47  1  0
 13 48  1  0
 15 49  1  0
 16 50  1  0
 19 51  1  0
 20 52  1  0
 22 53  1  0
 23 54  1  0
 24 55  1  0
 26 56  1  0
 27 57  1  6
 28 58  1  0
 28 59  1  0
 29 60  1  0
 29 61  1  0
 30 62  1  6
 31 63  1  0
 32 64  1  0
 32 65  1  0
 33 66  1  0
 33 67  1  0
M  END
$$$$
