
     RDKit          3D

 40 42  0  0  0  0  0  0  0  0999 V2000
    2.7261    1.6025   -0.1014 O   0  0  0  0  0  0  0  0  0  0  0  0
    3.0398    0.4188   -0.1316 C   0  0  0  0  0  0  0  0  0  0  0  0
    2.2200   -0.6318   -0.5013 N   0  0  0  0  0  0  0  0  0  0  0  0
    0.8886   -0.5279   -0.8479 C   0  0  0  0  0  0  0  0  0  0  0  0
    0.1056   -1.6292   -1.2750 C   0  0  0  0  0  0  0  0  0  0  0  0
   -1.1459   -1.1168   -1.5237 C   0  0  0  0  0  0  0  0  0  0  0  0
   -1.0678    0.2101   -1.2121 N   0  0  0  0  0  0  0  0  0  0  0  0
   -2.1162    1.2179   -1.3134 C   0  0  0  0  0  0  0  0  0  0  0  0
   -3.4317    0.7704   -0.7037 C   0  0  0  0  0  0  0  0  0  0  0  0
   -4.4810    0.4223   -1.5787 C   0  0  0  0  0  0  0  0  0  0  0  0
   -5.7104   -0.0149   -1.0887 C   0  0  0  0  0  0  0  0  0  0  0  0
   -5.9080   -0.1113    0.2788 C   0  0  0  0  0  0  0  0  0  0  0  0
   -7.1229   -0.5468    0.7152 O   0  0  0  0  0  0  0  0  0  0  0  0
   -4.8947    0.2269    1.1684 C   0  0  0  0  0  0  0  0  0  0  0  0
   -3.6446    0.6796    0.6952 C   0  0  0  0  0  0  0  0  0  0  0  0
   -2.5745    1.0264    1.7148 C   0  0  0  0  0  0  0  0  0  0  0  0
   -3.0747    1.1539    2.9794 F   0  0  0  0  0  0  0  0  0  0  0  0
   -1.9528    2.2054    1.4554 F   0  0  0  0  0  0  0  0  0  0  0  0
   -1.6111    0.0735    1.8013 F   0  0  0  0  0  0  0  0  0  0  0  0
    0.1621    0.5875   -0.8313 N   0  0  0  0  0  0  0  0  0  0  0  0
    4.4364    0.0472    0.2454 C   0  0  0  0  0  0  0  0  0  0  0  0
    5.2510    0.9672    0.9140 C   0  0  0  0  0  0  0  0  0  0  0  0
    4.8039    2.1812    1.2646 F   0  0  0  0  0  0  0  0  0  0  0  0
    6.5665    0.6511    1.2666 C   0  0  0  0  0  0  0  0  0  0  0  0
    7.0950   -0.5987    0.9552 C   0  0  0  0  0  0  0  0  0  0  0  0
    6.3000   -1.5294    0.2932 C   0  0  0  0  0  0  0  0  0  0  0  0
    4.9870   -1.2029   -0.0542 C   0  0  0  0  0  0  0  0  0  0  0  0
    4.2651   -2.1411   -0.6884 F   0  0  0  0  0  0  0  0  0  0  0  0
    2.6024   -1.5657   -0.5515 H   0  0  0  0  0  0  0  0  0  0  0  0
    0.4135   -2.6575   -1.3944 H   0  0  0  0  0  0  0  0  0  0  0  0
   -2.0596   -1.5771   -1.8720 H   0  0  0  0  0  0  0  0  0  0  0  0
   -2.2269    1.4311   -2.3837 H   0  0  0  0  0  0  0  0  0  0  0  0
   -1.7672    2.1429   -0.8437 H   0  0  0  0  0  0  0  0  0  0  0  0
   -4.3469    0.4859   -2.6578 H   0  0  0  0  0  0  0  0  0  0  0  0
   -6.5111   -0.2812   -1.7737 H   0  0  0  0  0  0  0  0  0  0  0  0
   -7.1291   -0.5512    1.6867 H   0  0  0  0  0  0  0  0  0  0  0  0
   -5.0639    0.1439    2.2403 H   0  0  0  0  0  0  0  0  0  0  0  0
    7.1668    1.3927    1.7873 H   0  0  0  0  0  0  0  0  0  0  0  0
    8.1184   -0.8441    1.2289 H   0  0  0  0  0  0  0  0  0  0  0  0
    6.6929   -2.5108    0.0419 H   0  0  0  0  0  0  0  0  0  0  0  0
  1  2  2  0
  2  3  1  0
  3  4  1  0
  4  5  1  0
  5  6  2  0
  6  7  1  0
  7  8  1  0
  8  9  1  0
  9 10  2  0
 10 11  1  0
 11 12  2  0
 12 13  1  0
 12 14  1  0
 14 15  2  0
 15 16  1  0
 16 17  1  0
 16 18  1  0
 16 19  1  0
  7 20  1  0
  2 21  1  0
 21 22  2  0
 22 23  1  0
 22 24  1  0
 24 25  2  0
 25 26  1  0
 26 27  2  0
 27 28  1  0
 20  4  2  0
 27 21  1  0
 15  9  1  0
  3 29  1  0
  5 30  1  0
  6 31  1  0
  8 32  1  0
  8 33  1  0
 10 34  1  0
 11 35  1  0
 13 36  1  0
 14 37  1  0
 24 38  1  0
 25 39  1  0
 26 40  1  0
M  END
$$$$
