
     RDKit          3D

 46 50  0  0  0  0  0  0  0  0999 V2000
   -5.6067   -0.2786   -2.4868 O   0  0  0  0  0  0  0  0  0  0  0  0
   -5.3531   -0.1168   -1.2903 C   0  0  0  0  0  0  0  0  0  0  0  0
   -6.4148    0.2105   -0.3488 C   0  0  0  0  0  0  0  0  0  0  0  0
   -7.7887    0.1254   -0.5054 C   0  0  0  0  0  0  0  0  0  0  0  0
   -8.3751    0.6084    0.6879 C   0  0  0  0  0  0  0  0  0  0  0  0
   -7.3308    0.9784    1.4994 C   0  0  0  0  0  0  0  0  0  0  0  0
   -6.1441    0.7508    0.8817 O   0  0  0  0  0  0  0  0  0  0  0  0
   -4.0379   -0.2472   -0.8372 N   0  0  0  0  0  0  0  0  0  0  0  0
   -3.6293   -0.3557    0.5653 C   0  0  0  0  0  0  0  0  0  0  0  0
   -2.3019   -1.1141    0.7613 C   0  0  0  0  0  0  0  0  0  0  0  0
   -1.2011   -0.5673   -0.0573 N   0  0  0  0  0  0  0  0  0  0  0  0
    0.1561   -0.6196    0.2934 C   0  0  0  0  0  0  0  0  0  0  0  0
    0.5863   -1.4226    1.2890 C   0  0  0  0  0  0  0  0  0  0  0  0
    2.0137   -1.4867    1.6686 C   0  0  0  0  0  0  0  0  0  0  0  0
    2.3646   -2.2261    2.5841 O   0  0  0  0  0  0  0  0  0  0  0  0
    2.8181   -0.6713    0.9153 N   0  0  0  0  0  0  0  0  0  0  0  0
    4.1751   -0.5897    1.1116 N   0  0  0  0  0  0  0  0  0  0  0  0
    4.6859    0.2500    0.2612 C   0  0  0  0  0  0  0  0  0  0  0  0
    6.1352    0.5662    0.2091 C   0  0  0  0  0  0  0  0  0  0  0  0
    6.9864   -0.0767    1.1218 C   0  0  0  0  0  0  0  0  0  0  0  0
    8.3590    0.1822    1.1187 C   0  0  0  0  0  0  0  0  0  0  0  0
    8.8951    1.0855    0.2045 C   0  0  0  0  0  0  0  0  0  0  0  0
    8.0610    1.7303   -0.7066 C   0  0  0  0  0  0  0  0  0  0  0  0
    6.6863    1.4737   -0.7066 C   0  0  0  0  0  0  0  0  0  0  0  0
    3.5507    1.0047   -0.8441 S   0  0  0  0  0  0  0  0  0  0  0  0
    2.2904    0.0980   -0.0760 C   0  0  0  0  0  0  0  0  0  0  0  0
    1.0503    0.1620   -0.4137 N   0  0  0  0  0  0  0  0  0  0  0  0
   -1.6163    0.1216   -1.3026 C   0  0  0  0  0  0  0  0  0  0  0  0
   -2.9680   -0.3873   -1.8243 C   0  0  0  0  0  0  0  0  0  0  0  0
   -8.2925   -0.2420   -1.3897 H   0  0  0  0  0  0  0  0  0  0  0  0
   -9.4274    0.6877    0.9221 H   0  0  0  0  0  0  0  0  0  0  0  0
   -7.2681    1.4044    2.4913 H   0  0  0  0  0  0  0  0  0  0  0  0
   -3.5270    0.6669    0.9472 H   0  0  0  0  0  0  0  0  0  0  0  0
   -4.4069   -0.8695    1.1386 H   0  0  0  0  0  0  0  0  0  0  0  0
   -2.4390   -2.1694    0.4957 H   0  0  0  0  0  0  0  0  0  0  0  0
   -2.0561   -1.0654    1.8282 H   0  0  0  0  0  0  0  0  0  0  0  0
   -0.0613   -2.0732    1.8582 H   0  0  0  0  0  0  0  0  0  0  0  0
    6.5899   -0.7870    1.8460 H   0  0  0  0  0  0  0  0  0  0  0  0
    9.0077   -0.3224    1.8308 H   0  0  0  0  0  0  0  0  0  0  0  0
    9.9637    1.2872    0.2019 H   0  0  0  0  0  0  0  0  0  0  0  0
    8.4811    2.4356   -1.4201 H   0  0  0  0  0  0  0  0  0  0  0  0
    6.0727    1.9981   -1.4338 H   0  0  0  0  0  0  0  0  0  0  0  0
   -1.6766    1.1985   -1.1029 H   0  0  0  0  0  0  0  0  0  0  0  0
   -0.8729   -0.0346   -2.0935 H   0  0  0  0  0  0  0  0  0  0  0  0
   -2.9006   -1.4536   -2.0729 H   0  0  0  0  0  0  0  0  0  0  0  0
   -3.2331    0.1506   -2.7412 H   0  0  0  0  0  0  0  0  0  0  0  0
  1  2  2  0
  2  3  1  0
  3  4  2  0
  4  5  1  0
  5  6  2  0
  6  7  1  0
  2  8  1  0
  8  9  1  0
  9 10  1  0
 10 11  1  0
 11 12  1  0
 12 13  2  0
 13 14  1  0
 14 15  2  0
 14 16  1  0
 16 17  1  0
 17 18  2  0
 18 19  1  0
 19 20  2  0
 20 21  1  0
 21 22  2  0
 22 23  1  0
 23 24  2  0
 18 25  1  0
 25 26  1  0
 26 27  2  0
 11 28  1  0
 28 29  1  0
  7  3  1  0
 29  8  1  0
 27 12  1  0
 26 16  1  0
 24 19  1  0
  4 30  1  0
  5 31  1  0
  6 32  1  0
  9 33  1  0
  9 34  1  0
 10 35  1  0
 10 36  1  0
 13 37  1  0
 20 38  1  0
 21 39  1  0
 22 40  1  0
 23 41  1  0
 24 42  1  0
 28 43  1  0
 28 44  1  0
 29 45  1  0
 29 46  1  0
M  END
$$$$
