
     RDKit          3D

 39 43  0  0  0  0  0  0  0  0999 V2000
    5.5233    2.0522   -1.0707 O   0  0  0  0  0  0  0  0  0  0  0  0
    4.5280    1.6908   -0.4540 C   0  0  0  0  0  0  0  0  0  0  0  0
    3.9568    2.4677    0.5420 N   0  0  0  0  0  0  0  0  0  0  0  0
    2.6140    2.2770    0.9060 N   0  0  0  0  0  0  0  0  0  0  0  0
    2.1518    0.9459    0.8745 C   0  0  0  0  0  0  0  0  0  0  0  0
    1.0796    0.6367    1.6167 N   0  0  0  0  0  0  0  0  0  0  0  0
    0.5882   -0.6120    1.4769 C   0  0  0  0  0  0  0  0  0  0  0  0
   -0.6484   -0.9805    2.2877 C   0  0  0  0  0  0  0  0  0  0  0  0
   -1.9619   -0.7395    1.6822 N   0  0  0  0  0  0  0  0  0  0  0  0
   -2.2498   -1.5238    0.4679 C   0  0  0  0  0  0  0  0  0  0  0  0
   -3.2490   -0.6882   -0.2715 C   0  0  0  0  0  0  0  0  0  0  0  0
   -4.0478   -1.0209   -1.3513 C   0  0  0  0  0  0  0  0  0  0  0  0
   -4.8818   -0.0334   -1.8810 C   0  0  0  0  0  0  0  0  0  0  0  0
   -4.8976    1.2611   -1.3344 C   0  0  0  0  0  0  0  0  0  0  0  0
   -4.0796    1.5872   -0.2500 C   0  0  0  0  0  0  0  0  0  0  0  0
   -3.2647    0.5981    0.2716 C   0  0  0  0  0  0  0  0  0  0  0  0
   -2.2765    0.6713    1.3948 C   0  0  0  0  0  0  0  0  0  0  0  0
    1.0996   -1.5525    0.6523 N   0  0  0  0  0  0  0  0  0  0  0  0
    2.1764   -1.2228   -0.0706 C   0  0  0  0  0  0  0  0  0  0  0  0
    2.7591   -2.1346   -0.9464 C   0  0  0  0  0  0  0  0  0  0  0  0
    3.8944   -1.8100   -1.7020 C   0  0  0  0  0  0  0  0  0  0  0  0
    4.4769   -0.5517   -1.5742 C   0  0  0  0  0  0  0  0  0  0  0  0
    3.9046    0.3703   -0.6992 C   0  0  0  0  0  0  0  0  0  0  0  0
    2.7556    0.0378    0.0238 C   0  0  0  0  0  0  0  0  0  0  0  0
    4.2929    3.4268    0.5766 H   0  0  0  0  0  0  0  0  0  0  0  0
    2.2774    2.7441    1.7467 H   0  0  0  0  0  0  0  0  0  0  0  0
   -0.5995   -0.4417    3.2427 H   0  0  0  0  0  0  0  0  0  0  0  0
   -0.5744   -2.0427    2.5542 H   0  0  0  0  0  0  0  0  0  0  0  0
   -2.6702   -2.4973    0.7379 H   0  0  0  0  0  0  0  0  0  0  0  0
   -1.3773   -1.6622   -0.1775 H   0  0  0  0  0  0  0  0  0  0  0  0
   -4.0297   -2.0184   -1.7772 H   0  0  0  0  0  0  0  0  0  0  0  0
   -5.5237   -0.2663   -2.7271 H   0  0  0  0  0  0  0  0  0  0  0  0
   -5.5516    2.0165   -1.7633 H   0  0  0  0  0  0  0  0  0  0  0  0
   -4.0860    2.5883    0.1677 H   0  0  0  0  0  0  0  0  0  0  0  0
   -1.4127    1.2481    1.0513 H   0  0  0  0  0  0  0  0  0  0  0  0
   -2.7144    1.1480    2.2770 H   0  0  0  0  0  0  0  0  0  0  0  0
    2.3190   -3.1251   -1.0433 H   0  0  0  0  0  0  0  0  0  0  0  0
    4.3262   -2.5457   -2.3767 H   0  0  0  0  0  0  0  0  0  0  0  0
    5.3726   -0.2984   -2.1371 H   0  0  0  0  0  0  0  0  0  0  0  0
  1  2  2  0
  2  3  1  0
  3  4  1  0
  4  5  1  0
  5  6  1  0
  6  7  2  0
  7  8  1  0
  8  9  1  0
  9 10  1  0
 10 11  1  0
 11 12  2  0
 12 13  1  0
 13 14  2  0
 14 15  1  0
 15 16  2  0
 16 17  1  0
  7 18  1  0
 18 19  2  0
 19 20  1  0
 20 21  2  0
 21 22  1  0
 22 23  2  0
 23 24  1  0
 23  2  1  0
 24  5  2  0
 17  9  1  0
 24 19  1  0
 16 11  1  0
  3 25  1  0
  4 26  1  0
  8 27  1  0
  8 28  1  0
 10 29  1  0
 10 30  1  0
 12 31  1  0
 13 32  1  0
 14 33  1  0
 15 34  1  0
 17 35  1  0
 17 36  1  0
 20 37  1  0
 21 38  1  0
 22 39  1  0
M  END
$$$$
