
     RDKit          3D

 33 34  0  0  0  0  0  0  0  0999 V2000
    4.5671    2.4008    0.5029 N   0  0  0  0  0  0  0  0  0  0  0  0
    4.0626    1.1511    0.2099 C   0  0  0  0  0  0  0  0  0  0  0  0
    4.9300    0.1588    0.0648 N   0  0  0  0  0  0  0  0  0  0  0  0
    4.3829   -1.0279   -0.2184 C   0  0  0  0  0  0  0  0  0  0  0  0
    5.5196   -2.2970   -0.4371 Cl  0  0  0  0  0  0  0  0  0  0  0  0
    3.0390   -1.2710   -0.3309 C   0  0  0  0  0  0  0  0  0  0  0  0
    2.2137   -0.1881   -0.1255 C   0  0  0  0  0  0  0  0  0  0  0  0
    0.8167   -0.3453   -0.2401 N   0  0  0  0  0  0  0  0  0  0  0  0
    0.2521   -1.3071    0.7318 C   0  0  0  0  0  0  0  0  0  0  0  0
   -1.2617   -1.5020    0.4782 C   0  0  0  0  0  0  0  0  0  0  0  0
   -2.0267   -0.2329    0.5079 N   0  0  0  0  0  0  0  0  0  0  0  0
   -3.4466   -0.4944    0.2200 C   0  0  0  0  0  0  0  0  0  0  0  0
   -4.3725    0.7041    0.4787 C   0  0  0  0  0  0  0  0  0  0  0  0
   -5.7322    0.3378    0.2505 O   0  0  0  0  0  0  0  0  0  0  0  0
   -1.4248    0.7087   -0.4661 C   0  0  0  0  0  0  0  0  0  0  0  0
    0.0856    0.9413   -0.2232 C   0  0  0  0  0  0  0  0  0  0  0  0
    2.7343    1.0253    0.1372 N   0  0  0  0  0  0  0  0  0  0  0  0
    3.8745    2.9497    0.9918 H   0  0  0  0  0  0  0  0  0  0  0  0
    5.4813    2.3174    0.9249 H   0  0  0  0  0  0  0  0  0  0  0  0
    2.6596   -2.2482   -0.5893 H   0  0  0  0  0  0  0  0  0  0  0  0
    0.4103   -0.9454    1.7567 H   0  0  0  0  0  0  0  0  0  0  0  0
    0.7312   -2.2890    0.6454 H   0  0  0  0  0  0  0  0  0  0  0  0
   -1.3958   -1.9994   -0.4921 H   0  0  0  0  0  0  0  0  0  0  0  0
   -1.6482   -2.1784    1.2502 H   0  0  0  0  0  0  0  0  0  0  0  0
   -3.5846   -0.8484   -0.8106 H   0  0  0  0  0  0  0  0  0  0  0  0
   -3.8030   -1.3131    0.8599 H   0  0  0  0  0  0  0  0  0  0  0  0
   -4.2868    1.0383    1.5176 H   0  0  0  0  0  0  0  0  0  0  0  0
   -4.1423    1.5507   -0.1745 H   0  0  0  0  0  0  0  0  0  0  0  0
   -5.8242    0.1340   -0.6957 H   0  0  0  0  0  0  0  0  0  0  0  0
   -1.5663    0.3344   -1.4889 H   0  0  0  0  0  0  0  0  0  0  0  0
   -1.9199    1.6834   -0.3998 H   0  0  0  0  0  0  0  0  0  0  0  0
    0.4572    1.6009   -1.0177 H   0  0  0  0  0  0  0  0  0  0  0  0
    0.2180    1.4508    0.7412 H   0  0  0  0  0  0  0  0  0  0  0  0
  1  2  1  0
  2  3  2  0
  3  4  1  0
  4  5  1  0
  4  6  2  0
  6  7  1  0
  7  8  1  0
  8  9  1  0
  9 10  1  0
 10 11  1  0
 11 12  1  0
 12 13  1  0
 13 14  1  0
 11 15  1  0
 15 16  1  0
  7 17  2  0
 17  2  1  0
 16  8  1  0
  1 18  1  0
  1 19  1  0
  6 20  1  0
  9 21  1  0
  9 22  1  0
 10 23  1  0
 10 24  1  0
 12 25  1  0
 12 26  1  0
 13 27  1  0
 13 28  1  0
 14 29  1  0
 15 30  1  0
 15 31  1  0
 16 32  1  0
 16 33  1  0
M  END
$$$$
