
     RDKit          3D

 58 61  0  0  0  0  0  0  0  0999 V2000
   -3.2912   -2.5663   -2.8711 C   0  0  0  0  0  0  0  0  0  0  0  0
   -4.5416   -1.7721   -2.5006 C   0  0  0  0  0  0  0  0  0  0  0  0
   -5.4610   -2.5822   -1.5899 C   0  0  0  0  0  0  0  0  0  0  0  0
   -4.1859   -0.4371   -1.9287 C   0  0  0  0  0  0  0  0  0  0  0  0
   -4.2246    0.5844   -2.8273 O   0  0  0  0  0  0  0  0  0  0  0  0
   -3.9108    1.7695   -2.2081 N   0  0  0  0  0  0  0  0  0  0  0  0
   -3.6638    1.4677   -0.9274 C   0  0  0  0  0  0  0  0  0  0  0  0
   -3.3191    2.5258    0.0150 C   0  0  0  0  0  0  0  0  0  0  0  0
   -2.0562    3.1449   -0.0255 C   0  0  0  0  0  0  0  0  0  0  0  0
   -0.8179    2.6663   -1.1385 Cl  0  0  0  0  0  0  0  0  0  0  0  0
   -1.7337    4.1686    0.8742 C   0  0  0  0  0  0  0  0  0  0  0  0
   -2.6632    4.5908    1.8215 C   0  0  0  0  0  0  0  0  0  0  0  0
   -3.9183    3.9895    1.8723 C   0  0  0  0  0  0  0  0  0  0  0  0
   -4.2476    2.9656    0.9756 C   0  0  0  0  0  0  0  0  0  0  0  0
   -5.8335    2.2821    1.1167 Cl  0  0  0  0  0  0  0  0  0  0  0  0
   -3.8197    0.0641   -0.6909 C   0  0  0  0  0  0  0  0  0  0  0  0
   -3.6723   -0.6600    0.6028 C   0  0  0  0  0  0  0  0  0  0  0  0
   -2.8102   -1.8001    0.5259 O   0  0  0  0  0  0  0  0  0  0  0  0
   -1.4605   -1.6289    0.6398 C   0  0  0  0  0  0  0  0  0  0  0  0
   -0.8004   -0.4554    0.9885 C   0  0  0  0  0  0  0  0  0  0  0  0
    0.5984   -0.4233    1.0538 C   0  0  0  0  0  0  0  0  0  0  0  0
    1.3641   -1.5645    0.7723 C   0  0  0  0  0  0  0  0  0  0  0  0
    2.8316   -1.4998    0.8723 C   0  0  0  0  0  0  0  0  0  0  0  0
    3.5646   -0.5412    0.2826 C   0  0  0  0  0  0  0  0  0  0  0  0
    5.0294   -0.4718    0.3684 C   0  0  0  0  0  0  0  0  0  0  0  0
    5.8358   -1.6147    0.2798 C   0  0  0  0  0  0  0  0  0  0  0  0
    7.2277   -1.5106    0.3366 C   0  0  0  0  0  0  0  0  0  0  0  0
    7.8304   -0.2599    0.4731 C   0  0  0  0  0  0  0  0  0  0  0  0
    7.0387    0.8918    0.5471 C   0  0  0  0  0  0  0  0  0  0  0  0
    7.6294    2.2447    0.6867 C   0  0  0  0  0  0  0  0  0  0  0  0
    7.0091    3.2890    0.7661 O   0  0  0  0  0  0  0  0  0  0  0  0
    8.9737    2.2279    0.7211 O   0  0  0  0  0  0  0  0  0  0  0  0
    5.6420    0.7824    0.4881 C   0  0  0  0  0  0  0  0  0  0  0  0
    0.6885   -2.7515    0.4495 C   0  0  0  0  0  0  0  0  0  0  0  0
    1.5328   -4.2225    0.1005 Cl  0  0  0  0  0  0  0  0  0  0  0  0
   -0.7087   -2.7780    0.3834 C   0  0  0  0  0  0  0  0  0  0  0  0
   -2.6493   -1.9949   -3.5512 H   0  0  0  0  0  0  0  0  0  0  0  0
   -3.5621   -3.5015   -3.3730 H   0  0  0  0  0  0  0  0  0  0  0  0
   -2.6957   -2.8220   -1.9905 H   0  0  0  0  0  0  0  0  0  0  0  0
   -5.0996   -1.5950   -3.4307 H   0  0  0  0  0  0  0  0  0  0  0  0
   -4.9494   -2.9191   -0.6830 H   0  0  0  0  0  0  0  0  0  0  0  0
   -5.8220   -3.4765   -2.1099 H   0  0  0  0  0  0  0  0  0  0  0  0
   -6.3357   -1.9959   -1.2867 H   0  0  0  0  0  0  0  0  0  0  0  0
   -0.7549    4.6430    0.8379 H   0  0  0  0  0  0  0  0  0  0  0  0
   -2.4112    5.3896    2.5157 H   0  0  0  0  0  0  0  0  0  0  0  0
   -4.6425    4.3277    2.6110 H   0  0  0  0  0  0  0  0  0  0  0  0
   -3.3910   -0.0053    1.4340 H   0  0  0  0  0  0  0  0  0  0  0  0
   -4.6606   -1.0462    0.8823 H   0  0  0  0  0  0  0  0  0  0  0  0
   -1.3299    0.4589    1.2244 H   0  0  0  0  0  0  0  0  0  0  0  0
    1.0852    0.5091    1.3352 H   0  0  0  0  0  0  0  0  0  0  0  0
    3.2992   -2.2925    1.4515 H   0  0  0  0  0  0  0  0  0  0  0  0
    3.0894    0.2481   -0.2964 H   0  0  0  0  0  0  0  0  0  0  0  0
    5.3884   -2.5987    0.1528 H   0  0  0  0  0  0  0  0  0  0  0  0
    7.8412   -2.4059    0.2684 H   0  0  0  0  0  0  0  0  0  0  0  0
    8.9149   -0.1938    0.5152 H   0  0  0  0  0  0  0  0  0  0  0  0
    9.2184    3.1728    0.8098 H   0  0  0  0  0  0  0  0  0  0  0  0
    5.0325    1.6833    0.5445 H   0  0  0  0  0  0  0  0  0  0  0  0
   -1.2213   -3.7007    0.1212 H   0  0  0  0  0  0  0  0  0  0  0  0
  1  2  1  0
  2  3  1  0
  2  4  1  0
  4  5  1  0
  5  6  1  0
  6  7  2  0
  7  8  1  0
  8  9  2  0
  9 10  1  0
  9 11  1  0
 11 12  2  0
 12 13  1  0
 13 14  2  0
 14 15  1  0
  7 16  1  0
 16 17  1  0
 17 18  1  0
 18 19  1  0
 19 20  2  0
 20 21  1  0
 21 22  2  0
 22 23  1  0
 23 24  2  0
 24 25  1  0
 25 26  2  0
 26 27  1  0
 27 28  2  0
 28 29  1  0
 29 30  1  0
 30 31  2  0
 30 32  1  0
 29 33  2  0
 22 34  1  0
 34 35  1  0
 34 36  2  0
 16  4  2  0
 36 19  1  0
 14  8  1  0
 33 25  1  0
  1 37  1  0
  1 38  1  0
  1 39  1  0
  2 40  1  0
  3 41  1  0
  3 42  1  0
  3 43  1  0
 11 44  1  0
 12 45  1  0
 13 46  1  0
 17 47  1  0
 17 48  1  0
 20 49  1  0
 21 50  1  0
 23 51  1  0
 24 52  1  0
 26 53  1  0
 27 54  1  0
 28 55  1  0
 32 56  1  0
 33 57  1  0
 36 58  1  0
M  END
$$$$
