
     RDKit          3D

 42 44  0  0  0  0  0  0  0  0999 V2000
   -1.9831    4.1980   -1.5286 C   0  0  0  0  0  0  0  0  0  0  0  0
   -2.4621    2.8438   -1.4028 N   0  0  0  0  0  0  0  0  0  0  0  0
   -1.5823    1.8016   -1.1907 C   0  0  0  0  0  0  0  0  0  0  0  0
   -0.3623    1.9426   -1.1591 O   0  0  0  0  0  0  0  0  0  0  0  0
   -2.1837    0.4541   -0.9422 C   0  0  0  0  0  0  0  0  0  0  0  0
   -3.3916    0.1295   -1.5779 C   0  0  0  0  0  0  0  0  0  0  0  0
   -3.9803   -1.1029   -1.3420 C   0  0  0  0  0  0  0  0  0  0  0  0
   -5.4682   -1.4974   -2.1025 Cl  0  0  0  0  0  0  0  0  0  0  0  0
   -3.3599   -2.0312   -0.5121 C   0  0  0  0  0  0  0  0  0  0  0  0
   -2.1227   -1.7484    0.1037 C   0  0  0  0  0  0  0  0  0  0  0  0
   -1.4906   -2.8799    0.8702 C   0  0  0  0  0  0  0  0  0  0  0  0
   -1.5451   -0.4719   -0.0718 C   0  0  0  0  0  0  0  0  0  0  0  0
   -0.3294   -0.0593    0.5315 N   0  0  0  0  0  0  0  0  0  0  0  0
    0.1501   -0.3640    1.7888 C   0  0  0  0  0  0  0  0  0  0  0  0
   -0.4789   -0.9836    2.6403 O   0  0  0  0  0  0  0  0  0  0  0  0
    1.3945    0.2954    2.1184 C   0  0  0  0  0  0  0  0  0  0  0  0
    1.6471    1.0204    3.2724 C   0  0  0  0  0  0  0  0  0  0  0  0
    2.9263    1.5373    3.0936 C   0  0  0  0  0  0  0  0  0  0  0  0
    3.7697    2.6714    4.3303 Br  0  0  0  0  0  0  0  0  0  0  0  0
    3.4822    1.1638    1.9486 N   0  0  0  0  0  0  0  0  0  0  0  0
    2.5778    0.3228    1.3776 N   0  0  0  0  0  0  0  0  0  0  0  0
    2.9032   -0.4790    0.2291 C   0  0  0  0  0  0  0  0  0  0  0  0
    2.0665   -1.5353   -0.0120 N   0  0  0  0  0  0  0  0  0  0  0  0
    2.3309   -2.3464   -1.0568 C   0  0  0  0  0  0  0  0  0  0  0  0
    3.4166   -2.1799   -1.8905 C   0  0  0  0  0  0  0  0  0  0  0  0
    4.2680   -1.1088   -1.6446 C   0  0  0  0  0  0  0  0  0  0  0  0
    4.0209   -0.2315   -0.5795 C   0  0  0  0  0  0  0  0  0  0  0  0
    5.1106    1.1021   -0.4602 Cl  0  0  0  0  0  0  0  0  0  0  0  0
   -1.8053    4.5985   -0.5275 H   0  0  0  0  0  0  0  0  0  0  0  0
   -2.7506    4.7922   -2.0306 H   0  0  0  0  0  0  0  0  0  0  0  0
   -1.0530    4.2254   -2.1036 H   0  0  0  0  0  0  0  0  0  0  0  0
   -3.4349    2.7184   -1.1561 H   0  0  0  0  0  0  0  0  0  0  0  0
   -3.8646    0.8242   -2.2670 H   0  0  0  0  0  0  0  0  0  0  0  0
   -3.8268   -3.0041   -0.3630 H   0  0  0  0  0  0  0  0  0  0  0  0
   -1.8592   -2.8975    1.8998 H   0  0  0  0  0  0  0  0  0  0  0  0
   -1.7409   -3.8415    0.4075 H   0  0  0  0  0  0  0  0  0  0  0  0
   -0.4008   -2.8285    0.8562 H   0  0  0  0  0  0  0  0  0  0  0  0
    0.1157    0.7399    0.0757 H   0  0  0  0  0  0  0  0  0  0  0  0
    0.9617    1.1752    4.0948 H   0  0  0  0  0  0  0  0  0  0  0  0
    1.6230   -3.1590   -1.2062 H   0  0  0  0  0  0  0  0  0  0  0  0
    3.5914   -2.8585   -2.7181 H   0  0  0  0  0  0  0  0  0  0  0  0
    5.1201   -0.9481   -2.3001 H   0  0  0  0  0  0  0  0  0  0  0  0
  1  2  1  0
  2  3  1  0
  3  4  2  0
  3  5  1  0
  5  6  2  0
  6  7  1  0
  7  8  1  0
  7  9  2  0
  9 10  1  0
 10 11  1  0
 10 12  2  0
 12 13  1  0
 13 14  1  0
 14 15  2  0
 14 16  1  0
 16 17  2  0
 17 18  1  0
 18 19  1  0
 18 20  2  0
 20 21  1  0
 21 22  1  0
 22 23  2  0
 23 24  1  0
 24 25  2  0
 25 26  1  0
 26 27  2  0
 27 28  1  0
 12  5  1  0
 21 16  1  0
 27 22  1  0
  1 29  1  0
  1 30  1  0
  1 31  1  0
  2 32  1  0
  6 33  1  0
  9 34  1  0
 11 35  1  0
 11 36  1  0
 11 37  1  0
 13 38  1  0
 17 39  1  0
 24 40  1  0
 25 41  1  0
 26 42  1  0
M  END
$$$$
