
     RDKit          3D

 35 36  0  0  0  0  0  0  0  0999 V2000
    4.5147    1.4634   -0.1767 C   0  0  0  0  0  0  0  0  0  0  0  0
    3.2169    0.7110   -0.1737 C   0  0  0  0  0  0  0  0  0  0  0  0
    2.3348    0.8139   -1.2493 C   0  0  0  0  0  0  0  0  0  0  0  0
    1.0963    0.1456   -1.2504 C   0  0  0  0  0  0  0  0  0  0  0  0
    0.2414    0.3001   -2.4819 C   0  0  0  0  0  0  0  0  0  0  0  0
    0.7409   -0.6535   -0.1309 C   0  0  0  0  0  0  0  0  0  0  0  0
   -0.8150   -1.5590   -0.1713 S   0  0  0  0  0  6  0  0  0  0  0  0
   -0.9731   -2.3972    0.9987 O   0  0  0  0  0  0  0  0  0  0  0  0
   -0.9242   -2.1692   -1.4831 O   0  0  0  0  0  0  0  0  0  0  0  0
   -1.9981   -0.3757   -0.0667 N   0  0  0  0  0  0  0  0  0  0  0  0
   -3.3489   -0.7573   -0.5055 C   0  0  0  0  0  0  0  0  0  0  0  0
   -4.1391    0.5010   -0.1560 C   0  0  0  0  0  0  0  0  0  0  0  0
   -3.4685    1.0482    1.1038 C   0  0  0  0  0  0  0  0  0  0  0  0
   -2.0368    0.5954    0.9547 C   0  0  0  0  0  0  0  0  0  0  0  0
   -1.1037    0.9666    1.6424 O   0  0  0  0  0  0  0  0  0  0  0  0
    1.6220   -0.7530    0.9731 C   0  0  0  0  0  0  0  0  0  0  0  0
    1.3413   -1.5554    2.2147 C   0  0  0  0  0  0  0  0  0  0  0  0
    2.8467   -0.0581    0.9306 C   0  0  0  0  0  0  0  0  0  0  0  0
    5.2776    0.9293    0.3995 H   0  0  0  0  0  0  0  0  0  0  0  0
    4.8991    1.5763   -1.1959 H   0  0  0  0  0  0  0  0  0  0  0  0
    4.3721    2.4567    0.2598 H   0  0  0  0  0  0  0  0  0  0  0  0
    2.6190    1.4243   -2.1057 H   0  0  0  0  0  0  0  0  0  0  0  0
    0.5869    1.1359   -3.1013 H   0  0  0  0  0  0  0  0  0  0  0  0
   -0.7965    0.5261   -2.2279 H   0  0  0  0  0  0  0  0  0  0  0  0
    0.2930   -0.6025   -3.0975 H   0  0  0  0  0  0  0  0  0  0  0  0
   -3.3942   -0.9683   -1.5767 H   0  0  0  0  0  0  0  0  0  0  0  0
   -3.7138   -1.6149    0.0692 H   0  0  0  0  0  0  0  0  0  0  0  0
   -5.2047    0.3009   -0.0124 H   0  0  0  0  0  0  0  0  0  0  0  0
   -4.0413    1.2340   -0.9670 H   0  0  0  0  0  0  0  0  0  0  0  0
   -3.5337    2.1369    1.1641 H   0  0  0  0  0  0  0  0  0  0  0  0
   -3.8881    0.5927    2.0059 H   0  0  0  0  0  0  0  0  0  0  0  0
    0.4154   -1.2223    2.6922 H   0  0  0  0  0  0  0  0  0  0  0  0
    2.1333   -1.4302    2.9621 H   0  0  0  0  0  0  0  0  0  0  0  0
    1.3000   -2.6232    1.9802 H   0  0  0  0  0  0  0  0  0  0  0  0
    3.5281   -0.1188    1.7789 H   0  0  0  0  0  0  0  0  0  0  0  0
  1  2  1  0
  2  3  2  0
  3  4  1  0
  4  5  1  0
  4  6  2  0
  6  7  1  0
  7  8  2  0
  7  9  2  0
  7 10  1  0
 10 11  1  0
 11 12  1  0
 12 13  1  0
 13 14  1  0
 14 15  2  0
  6 16  1  0
 16 17  1  0
 16 18  2  0
 18  2  1  0
 14 10  1  0
  1 19  1  0
  1 20  1  0
  1 21  1  0
  3 22  1  0
  5 23  1  0
  5 24  1  0
  5 25  1  0
 11 26  1  0
 11 27  1  0
 12 28  1  0
 12 29  1  0
 13 30  1  0
 13 31  1  0
 17 32  1  0
 17 33  1  0
 17 34  1  0
 18 35  1  0
M  END
$$$$
