
     RDKit          3D

 60 62  0  0  0  0  0  0  0  0999 V2000
   -6.1592    0.5020    1.7838 C   0  0  0  0  0  0  0  0  0  0  0  0
   -5.1284    0.2392    3.2156 S   0  0  0  0  0  6  0  0  0  0  0  0
   -4.7610    1.5361    3.7408 O   0  0  0  0  0  0  0  0  0  0  0  0
   -5.7709   -0.7573    4.0456 O   0  0  0  0  0  0  0  0  0  0  0  0
   -3.7528   -0.4562    2.5679 N   0  0  0  0  0  0  0  0  0  0  0  0
   -3.7887   -1.8353    2.0462 C   0  0  0  0  0  0  0  0  0  0  0  0
   -2.9899   -1.7850    0.7460 C   0  0  0  0  0  0  0  0  0  0  0  0
   -1.9696   -0.6771    1.0084 C   0  0  0  0  0  0  0  0  0  0  0  0
   -1.1561   -0.1411   -0.0953 N   0  0  0  0  0  0  0  0  0  0  0  0
    0.1895   -0.7560   -0.1532 C   0  0  0  0  0  0  0  0  0  0  0  0
    1.1479   -0.1866    0.9144 C   0  0  0  0  0  0  0  0  0  0  0  0
    2.4309   -0.8695    0.9397 N   0  0  0  0  0  0  0  0  0  0  0  0
    3.3984   -0.6332   -0.0207 C   0  0  0  0  0  0  0  0  0  0  0  0
    3.2274    0.1423   -0.9551 O   0  0  0  0  0  0  0  0  0  0  0  0
    4.6903   -1.4312    0.2080 C   0  0  0  0  0  0  0  0  0  0  0  0
    5.7569   -1.1714   -0.6875 O   0  0  0  0  0  0  0  0  0  0  0  0
    6.5489   -0.0831   -0.4478 C   0  0  0  0  0  0  0  0  0  0  0  0
    7.7032   -0.0222   -1.2386 C   0  0  0  0  0  0  0  0  0  0  0  0
    8.6051    1.0340   -1.1005 C   0  0  0  0  0  0  0  0  0  0  0  0
    8.3449    2.0328   -0.1721 C   0  0  0  0  0  0  0  0  0  0  0  0
    9.2063    3.0491   -0.0341 F   0  0  0  0  0  0  0  0  0  0  0  0
    7.1991    1.9946    0.6138 C   0  0  0  0  0  0  0  0  0  0  0  0
    6.2962    0.9351    0.4758 C   0  0  0  0  0  0  0  0  0  0  0  0
   -1.7325    0.0350   -1.4476 C   0  0  0  0  0  0  0  0  0  0  0  0
   -1.8727   -1.2562   -2.2825 C   0  0  0  0  0  0  0  0  0  0  0  0
   -2.9875   -1.1493   -3.3162 C   0  0  0  0  0  0  0  0  0  0  0  0
   -2.9979    0.1498   -3.8887 O   0  0  0  0  0  0  0  0  0  0  0  0
   -3.3954    1.1671   -2.9710 C   0  0  0  0  0  0  0  0  0  0  0  0
   -3.0076    0.8831   -1.5179 C   0  0  0  0  0  0  0  0  0  0  0  0
   -2.8148    0.3666    1.7720 C   0  0  0  0  0  0  0  0  0  0  0  0
   -7.1016    0.9338    2.1291 H   0  0  0  0  0  0  0  0  0  0  0  0
   -6.3532   -0.4540    1.2959 H   0  0  0  0  0  0  0  0  0  0  0  0
   -5.6674    1.1990    1.1046 H   0  0  0  0  0  0  0  0  0  0  0  0
   -3.3063   -2.4960    2.7747 H   0  0  0  0  0  0  0  0  0  0  0  0
   -4.8027   -2.2006    1.8650 H   0  0  0  0  0  0  0  0  0  0  0  0
   -2.5219   -2.7493    0.5268 H   0  0  0  0  0  0  0  0  0  0  0  0
   -3.6720   -1.5414   -0.0723 H   0  0  0  0  0  0  0  0  0  0  0  0
   -1.2865   -1.0852    1.7679 H   0  0  0  0  0  0  0  0  0  0  0  0
    0.1166   -1.8477   -0.0635 H   0  0  0  0  0  0  0  0  0  0  0  0
    0.6555   -0.5690   -1.1289 H   0  0  0  0  0  0  0  0  0  0  0  0
    0.7329   -0.2809    1.9221 H   0  0  0  0  0  0  0  0  0  0  0  0
    1.3254    0.8783    0.7235 H   0  0  0  0  0  0  0  0  0  0  0  0
    2.6008   -1.5501    1.6695 H   0  0  0  0  0  0  0  0  0  0  0  0
    4.4241   -2.4859    0.0666 H   0  0  0  0  0  0  0  0  0  0  0  0
    5.0146   -1.3353    1.2520 H   0  0  0  0  0  0  0  0  0  0  0  0
    7.8986   -0.8041   -1.9690 H   0  0  0  0  0  0  0  0  0  0  0  0
    9.5005    1.0827   -1.7114 H   0  0  0  0  0  0  0  0  0  0  0  0
    7.0096    2.7940    1.3239 H   0  0  0  0  0  0  0  0  0  0  0  0
    5.4021    0.9503    1.0893 H   0  0  0  0  0  0  0  0  0  0  0  0
   -0.9923    0.6505   -1.9834 H   0  0  0  0  0  0  0  0  0  0  0  0
   -0.9224   -1.4273   -2.8052 H   0  0  0  0  0  0  0  0  0  0  0  0
   -2.0383   -2.1493   -1.6750 H   0  0  0  0  0  0  0  0  0  0  0  0
   -2.8244   -1.8781   -4.1167 H   0  0  0  0  0  0  0  0  0  0  0  0
   -3.9673   -1.3662   -2.8742 H   0  0  0  0  0  0  0  0  0  0  0  0
   -2.9239    2.0974   -3.3068 H   0  0  0  0  0  0  0  0  0  0  0  0
   -4.4788    1.3108   -3.0525 H   0  0  0  0  0  0  0  0  0  0  0  0
   -2.8853    1.8362   -0.9903 H   0  0  0  0  0  0  0  0  0  0  0  0
   -3.8454    0.3642   -1.0420 H   0  0  0  0  0  0  0  0  0  0  0  0
   -3.3669    1.0263    1.1025 H   0  0  0  0  0  0  0  0  0  0  0  0
   -2.1840    0.9737    2.4287 H   0  0  0  0  0  0  0  0  0  0  0  0
  1  2  1  0
  2  3  2  0
  2  4  2  0
  2  5  1  0
  5  6  1  0
  6  7  1  0
  7  8  1  0
  8  9  1  0
  9 10  1  0
 10 11  1  0
 11 12  1  0
 12 13  1  0
 13 14  2  0
 13 15  1  0
 15 16  1  0
 16 17  1  0
 17 18  2  0
 18 19  1  0
 19 20  2  0
 20 21  1  0
 20 22  1  0
 22 23  2  0
  9 24  1  0
 24 25  1  0
 25 26  1  0
 26 27  1  0
 27 28  1  0
 28 29  1  0
  8 30  1  0
 30  5  1  0
 23 17  1  0
 29 24  1  0
  1 31  1  0
  1 32  1  0
  1 33  1  0
  6 34  1  0
  6 35  1  0
  7 36  1  0
  7 37  1  0
  8 38  1  0
 10 39  1  0
 10 40  1  0
 11 41  1  0
 11 42  1  0
 12 43  1  0
 15 44  1  0
 15 45  1  0
 18 46  1  0
 19 47  1  0
 22 48  1  0
 23 49  1  0
 24 50  1  0
 25 51  1  0
 25 52  1  0
 26 53  1  0
 26 54  1  0
 28 55  1  0
 28 56  1  0
 29 57  1  0
 29 58  1  0
 30 59  1  0
 30 60  1  0
M  END
$$$$
