
     RDKit          3D

 86 90  0  0  0  0  0  0  0  0999 V2000
   -7.2296    4.1581   -1.1924 C   0  0  0  0  0  0  0  0  0  0  0  0
   -6.8977    2.6721   -1.1114 C   0  0  0  0  0  0  0  0  0  0  0  0
   -7.6642    2.0071    0.0294 C   0  0  0  0  0  0  0  0  0  0  0  0
   -5.4626    2.4895   -0.9378 N   0  0  0  0  0  0  0  0  0  0  0  0
   -4.8330    1.3133   -1.2894 C   0  0  0  0  0  0  0  0  0  0  0  0
   -5.4019    0.3818   -1.8495 O   0  0  0  0  0  0  0  0  0  0  0  0
   -3.3533    1.2729   -0.9060 C   0  0  1  0  0  0  0  0  0  0  0  0
   -3.1911    1.2473    0.6260 C   0  0  0  0  0  0  0  0  0  0  0  0
   -2.3654    0.0678    1.1399 C   0  0  0  0  0  0  0  0  0  0  0  0
   -1.0369   -0.0545    0.3795 C   0  0  1  0  0  0  0  0  0  0  0  0
   -0.2081   -1.1487    0.8802 N   0  0  0  0  0  0  0  0  0  0  0  0
   -0.4393   -2.5116    0.7683 C   0  0  0  0  0  0  0  0  0  0  0  0
   -1.5479   -3.0409    0.1434 N   0  0  0  0  0  0  0  0  0  0  0  0
   -1.8031   -4.3983    0.1110 C   0  0  0  0  0  0  0  0  0  0  0  0
   -1.1594   -5.3023    0.6277 O   0  0  0  0  0  0  0  0  0  0  0  0
   -3.0548   -4.7666   -0.6114 C   0  0  0  0  0  0  0  0  0  0  0  0
   -3.4552   -4.1044   -1.7818 C   0  0  0  0  0  0  0  0  0  0  0  0
   -4.6437   -4.4725   -2.4163 C   0  0  0  0  0  0  0  0  0  0  0  0
   -5.4150   -5.5035   -1.8892 C   0  0  0  0  0  0  0  0  0  0  0  0
   -6.5521   -5.8559   -2.5026 F   0  0  0  0  0  0  0  0  0  0  0  0
   -5.0191   -6.1804   -0.7412 C   0  0  0  0  0  0  0  0  0  0  0  0
   -3.8335   -5.8150   -0.1018 C   0  0  0  0  0  0  0  0  0  0  0  0
    0.5390   -3.1866    1.3241 N   0  0  0  0  0  0  0  0  0  0  0  0
    1.4117   -2.2681    1.8312 C   0  0  0  0  0  0  0  0  0  0  0  0
    2.6093   -2.4745    2.5283 C   0  0  0  0  0  0  0  0  0  0  0  0
    3.3407   -1.3621    2.9606 C   0  0  0  0  0  0  0  0  0  0  0  0
    2.8956   -0.0551    2.7093 C   0  0  0  0  0  0  0  0  0  0  0  0
    3.7093    1.1316    3.1938 C   0  0  0  0  0  0  0  0  0  0  0  0
    4.6903    1.6967    2.2542 N   0  0  0  0  0  0  0  0  0  0  0  0
    5.7497    0.7578    1.8901 C   0  0  0  0  0  0  0  0  0  0  0  0
    6.8671    1.4668    1.1223 C   0  0  0  0  0  0  0  0  0  0  0  0
    6.3918    2.2852   -0.0926 C   0  0  0  0  0  0  0  0  0  0  0  0
    6.3270    1.5179   -1.4521 C   0  0  0  0  0  0  0  0  0  0  0  0
    5.3651    0.3330   -1.5060 C   0  0  0  0  0  0  0  0  0  0  0  0
    7.7218    1.0389   -1.8895 C   0  0  0  0  0  0  0  0  0  0  0  0
    5.8813    2.4384   -2.4622 O   0  0  0  0  0  0  0  0  0  0  0  0
    5.1205    3.0834    0.2671 C   0  0  0  0  0  0  0  0  0  0  0  0
    4.0823    2.3031    1.0720 C   0  0  0  0  0  0  0  0  0  0  0  0
    1.6883    0.1526    2.0136 C   0  0  0  0  0  0  0  0  0  0  0  0
    0.9727   -0.9748    1.5806 C   0  0  0  0  0  0  0  0  0  0  0  0
   -1.2023   -0.0606   -1.1525 C   0  0  0  0  0  0  0  0  0  0  0  0
   -2.6535    0.0960   -1.5984 C   0  0  0  0  0  0  0  0  0  0  0  0
   -8.3022    4.3129   -1.3509 H   0  0  0  0  0  0  0  0  0  0  0  0
   -6.6925    4.6292   -2.0226 H   0  0  0  0  0  0  0  0  0  0  0  0
   -6.9404    4.6825   -0.2746 H   0  0  0  0  0  0  0  0  0  0  0  0
   -7.1903    2.1942   -2.0539 H   0  0  0  0  0  0  0  0  0  0  0  0
   -8.7439    2.1421   -0.0941 H   0  0  0  0  0  0  0  0  0  0  0  0
   -7.4619    0.9316    0.0640 H   0  0  0  0  0  0  0  0  0  0  0  0
   -7.3739    2.4268    0.9984 H   0  0  0  0  0  0  0  0  0  0  0  0
   -4.9736    3.1400   -0.3357 H   0  0  0  0  0  0  0  0  0  0  0  0
   -2.9040    2.2007   -1.2876 H   0  0  0  0  0  0  0  0  0  0  0  0
   -2.6981    2.1783    0.9360 H   0  0  0  0  0  0  0  0  0  0  0  0
   -4.1620    1.2393    1.1367 H   0  0  0  0  0  0  0  0  0  0  0  0
   -2.1709    0.2025    2.2115 H   0  0  0  0  0  0  0  0  0  0  0  0
   -2.9612   -0.8478    1.0562 H   0  0  0  0  0  0  0  0  0  0  0  0
   -0.4811    0.8646    0.6039 H   0  0  0  0  0  0  0  0  0  0  0  0
   -2.2369   -2.4153   -0.2353 H   0  0  0  0  0  0  0  0  0  0  0  0
   -2.8437   -3.3254   -2.2267 H   0  0  0  0  0  0  0  0  0  0  0  0
   -4.9699   -3.9698   -3.3223 H   0  0  0  0  0  0  0  0  0  0  0  0
   -5.6304   -6.9893   -0.3538 H   0  0  0  0  0  0  0  0  0  0  0  0
   -3.5152   -6.3461    0.7941 H   0  0  0  0  0  0  0  0  0  0  0  0
    2.9513   -3.4851    2.7239 H   0  0  0  0  0  0  0  0  0  0  0  0
    4.2699   -1.5282    3.5022 H   0  0  0  0  0  0  0  0  0  0  0  0
    3.0186    1.9253    3.5111 H   0  0  0  0  0  0  0  0  0  0  0  0
    4.2284    0.8499    4.1206 H   0  0  0  0  0  0  0  0  0  0  0  0
    6.1935    0.3282    2.7970 H   0  0  0  0  0  0  0  0  0  0  0  0
    5.3591   -0.0782    1.3036 H   0  0  0  0  0  0  0  0  0  0  0  0
    7.6346    0.7394    0.8417 H   0  0  0  0  0  0  0  0  0  0  0  0
    7.3611    2.1602    1.8184 H   0  0  0  0  0  0  0  0  0  0  0  0
    7.1601    3.0579   -0.2548 H   0  0  0  0  0  0  0  0  0  0  0  0
    5.6448   -0.4606   -0.8100 H   0  0  0  0  0  0  0  0  0  0  0  0
    5.3562   -0.1052   -2.5120 H   0  0  0  0  0  0  0  0  0  0  0  0
    4.3333    0.6378   -1.3200 H   0  0  0  0  0  0  0  0  0  0  0  0
    8.1037    0.2329   -1.2564 H   0  0  0  0  0  0  0  0  0  0  0  0
    7.7000    0.6740   -2.9233 H   0  0  0  0  0  0  0  0  0  0  0  0
    8.4422    1.8651   -1.8742 H   0  0  0  0  0  0  0  0  0  0  0  0
    6.5232    3.1685   -2.5035 H   0  0  0  0  0  0  0  0  0  0  0  0
    5.4312    3.9468    0.8733 H   0  0  0  0  0  0  0  0  0  0  0  0
    4.6482    3.5074   -0.6254 H   0  0  0  0  0  0  0  0  0  0  0  0
    3.3025    3.0116    1.3792 H   0  0  0  0  0  0  0  0  0  0  0  0
    3.5978    1.5549    0.4397 H   0  0  0  0  0  0  0  0  0  0  0  0
    1.3341    1.1598    1.8224 H   0  0  0  0  0  0  0  0  0  0  0  0
   -0.7793   -0.9615   -1.6117 H   0  0  0  0  0  0  0  0  0  0  0  0
   -0.6210    0.7744   -1.5664 H   0  0  0  0  0  0  0  0  0  0  0  0
   -2.6856    0.2345   -2.6865 H   0  0  0  0  0  0  0  0  0  0  0  0
   -3.1972   -0.8355   -1.4005 H   0  0  0  0  0  0  0  0  0  0  0  0
  1  2  1  0
  2  3  1  0
  2  4  1  0
  4  5  1  0
  5  6  2  0
  5  7  1  0
  7  8  1  0
  8  9  1  0
  9 10  1  0
 10 11  1  0
 11 12  1  0
 12 13  1  0
 13 14  1  0
 14 15  2  0
 14 16  1  0
 16 17  2  0
 17 18  1  0
 18 19  2  0
 19 20  1  0
 19 21  1  0
 21 22  2  0
 12 23  2  0
 23 24  1  0
 24 25  2  0
 25 26  1  0
 26 27  2  0
 27 28  1  0
 28 29  1  0
 29 30  1  0
 30 31  1  0
 31 32  1  0
 32 33  1  0
 33 34  1  0
 33 35  1  0
 33 36  1  0
 32 37  1  0
 37 38  1  0
 27 39  1  0
 39 40  2  0
 10 41  1  0
 41 42  1  0
 42  7  1  0
 40 11  1  0
 22 16  1  0
 40 24  1  0
 38 29  1  0
  1 43  1  0
  1 44  1  0
  1 45  1  0
  2 46  1  0
  3 47  1  0
  3 48  1  0
  3 49  1  0
  4 50  1  0
  7 51  1  6
  8 52  1  0
  8 53  1  0
  9 54  1  0
  9 55  1  0
 10 56  1  6
 13 57  1  0
 17 58  1  0
 18 59  1  0
 21 60  1  0
 22 61  1  0
 25 62  1  0
 26 63  1  0
 28 64  1  0
 28 65  1  0
 30 66  1  0
 30 67  1  0
 31 68  1  0
 31 69  1  0
 32 70  1  0
 34 71  1  0
 34 72  1  0
 34 73  1  0
 35 74  1  0
 35 75  1  0
 35 76  1  0
 36 77  1  0
 37 78  1  0
 37 79  1  0
 38 80  1  0
 38 81  1  0
 39 82  1  0
 41 83  1  0
 41 84  1  0
 42 85  1  0
 42 86  1  0
M  END
$$$$
