
     RDKit          3D

 22 22  0  0  0  0  0  0  0  0999 V2000
    2.9983    0.4176    0.7710 N   0  0  0  0  0  0  0  0  0  0  0  0
    2.3410   -0.8719    0.5600 C   0  0  0  0  0  0  0  0  0  0  0  0
    1.4551   -0.8942   -0.6943 C   0  0  0  0  0  0  0  0  0  0  0  0
    0.1278   -0.1923   -0.5181 C   0  0  0  0  0  0  0  0  0  0  0  0
    0.0410    1.2048   -0.6451 C   0  0  0  0  0  0  0  0  0  0  0  0
   -1.1805    1.8625   -0.4836 C   0  0  0  0  0  0  0  0  0  0  0  0
   -2.3140    1.1210   -0.1922 C   0  0  0  0  0  0  0  0  0  0  0  0
   -3.5099    1.7614   -0.0346 O   0  0  0  0  0  0  0  0  0  0  0  0
   -2.2436   -0.2627   -0.0568 C   0  0  0  0  0  0  0  0  0  0  0  0
   -3.4010   -0.9319    0.2350 O   0  0  0  0  0  0  0  0  0  0  0  0
   -1.0310   -0.9268   -0.2156 C   0  0  0  0  0  0  0  0  0  0  0  0
    3.6217    0.6199   -0.0090 H   0  0  0  0  0  0  0  0  0  0  0  0
    3.5839    0.3673    1.6035 H   0  0  0  0  0  0  0  0  0  0  0  0
    3.1214   -1.6340    0.4536 H   0  0  0  0  0  0  0  0  0  0  0  0
    1.7540   -1.1275    1.4492 H   0  0  0  0  0  0  0  0  0  0  0  0
    1.2654   -1.9408   -0.9669 H   0  0  0  0  0  0  0  0  0  0  0  0
    1.9867   -0.4637   -1.5530 H   0  0  0  0  0  0  0  0  0  0  0  0
    0.9327    1.7897   -0.8611 H   0  0  0  0  0  0  0  0  0  0  0  0
   -1.2428    2.9417   -0.5796 H   0  0  0  0  0  0  0  0  0  0  0  0
   -4.1428    1.0438    0.1662 H   0  0  0  0  0  0  0  0  0  0  0  0
   -3.1901   -1.8785    0.3035 H   0  0  0  0  0  0  0  0  0  0  0  0
   -0.9734   -2.0053   -0.1088 H   0  0  0  0  0  0  0  0  0  0  0  0
  1  2  1  0
  2  3  1  0
  3  4  1  0
  4  5  2  0
  5  6  1  0
  6  7  2  0
  7  8  1  0
  7  9  1  0
  9 10  1  0
  9 11  2  0
 11  4  1  0
  1 12  1  0
  1 13  1  0
  2 14  1  0
  2 15  1  0
  3 16  1  0
  3 17  1  0
  5 18  1  0
  6 19  1  0
  8 20  1  0
 10 21  1  0
 11 22  1  0
M  END
$$$$
