
     RDKit          3D

 40 42  0  0  0  0  0  0  0  0999 V2000
    0.6898    0.0000    0.0000 Cl  0  0  0  0  0  0  0  0  0  0  0  0
    0.1323    1.6414   -1.6826 O   0  0  0  0  0  0  0  0  0  0  0  0
    0.5493    0.7547   -0.8774 C   0  0  0  0  0  0  0  0  0  0  0  0
   -0.4662   -0.0080   -0.2420 N   0  0  0  0  0  0  0  0  0  0  0  0
   -1.8424    0.1893   -0.4745 C   0  0  1  0  0  0  0  0  0  0  0  0
   -2.5943   -0.9651   -1.0585 C   0  0  0  0  0  0  0  0  0  0  0  0
   -4.0074   -0.7199   -0.8225 N   0  0  0  0  0  0  0  0  0  0  0  0
   -4.3399    0.6916   -0.9252 C   0  0  0  0  0  0  0  0  0  0  0  0
   -3.7920    1.4582    0.2861 C   0  0  0  0  0  0  0  0  0  0  0  0
   -2.6007    0.6545    0.7734 C   0  0  0  0  0  0  0  0  0  0  0  0
   -3.2137   -0.5530    1.4882 C   0  0  0  0  0  0  0  0  0  0  0  0
   -4.2531   -1.1308    0.5693 C   0  0  0  0  0  0  0  0  0  0  0  0
    1.9532    0.5472   -0.6345 C   0  0  0  0  0  0  0  0  0  0  0  0
    2.6488   -0.3317    0.1754 C   0  0  0  0  0  0  0  0  0  0  0  0
    3.9813   -0.2845    0.1890 C   0  0  0  0  0  0  0  0  0  0  0  0
    4.8198   -1.1294    0.9746 C   0  0  0  0  0  0  0  0  0  0  0  0
    6.1795   -0.9867    0.9045 C   0  0  0  0  0  0  0  0  0  0  0  0
    6.8195   -0.0623    0.1098 C   0  0  0  0  0  0  0  0  0  0  0  0
    6.0090    0.7595   -0.6541 C   0  0  0  0  0  0  0  0  0  0  0  0
    6.6560    1.9871   -1.7179 Cl  0  0  0  0  0  0  0  0  0  0  0  0
    4.6857    0.5979   -0.5657 C   0  0  0  0  0  0  0  0  0  0  0  0
    3.3202    1.4812   -1.4074 S   0  0  0  0  0  0  0  0  0  0  0  0
   -0.6898    0.0000    0.0000 H   0  0  0  0  0  0  0  0  0  0  0  0
   -0.1258   -0.7570    0.4377 H   0  0  0  0  0  0  0  0  0  0  0  0
   -1.9469    1.0158   -1.2132 H   0  0  0  0  0  0  0  0  0  0  0  0
   -2.4623   -1.0583   -2.1639 H   0  0  0  0  0  0  0  0  0  0  0  0
   -2.3596   -1.9384   -0.6179 H   0  0  0  0  0  0  0  0  0  0  0  0
   -5.4401    0.7668   -0.9005 H   0  0  0  0  0  0  0  0  0  0  0  0
   -3.9470    1.1063   -1.8598 H   0  0  0  0  0  0  0  0  0  0  0  0
   -4.5537    1.5788    1.0670 H   0  0  0  0  0  0  0  0  0  0  0  0
   -3.3896    2.4184   -0.0945 H   0  0  0  0  0  0  0  0  0  0  0  0
   -1.9614    1.2363    1.4486 H   0  0  0  0  0  0  0  0  0  0  0  0
   -3.7335   -0.1357    2.3758 H   0  0  0  0  0  0  0  0  0  0  0  0
   -2.4706   -1.2612    1.8351 H   0  0  0  0  0  0  0  0  0  0  0  0
   -4.1505   -2.2367    0.5707 H   0  0  0  0  0  0  0  0  0  0  0  0
   -5.2556   -0.7805    0.8176 H   0  0  0  0  0  0  0  0  0  0  0  0
    2.0097   -1.0605    0.7963 H   0  0  0  0  0  0  0  0  0  0  0  0
    4.4349   -1.8848    1.6299 H   0  0  0  0  0  0  0  0  0  0  0  0
    6.8180   -1.6391    1.5108 H   0  0  0  0  0  0  0  0  0  0  0  0
    7.8891    0.0384    0.0649 H   0  0  0  0  0  0  0  0  0  0  0  0
  2  3  2  0
  3  4  1  0
  4  5  1  0
  5  6  1  0
  6  7  1  0
  7  8  1  0
  8  9  1  0
  9 10  1  0
 10 11  1  0
 11 12  1  0
  3 13  1  0
 13 14  2  0
 14 15  1  0
 15 16  2  0
 16 17  1  0
 17 18  2  0
 18 19  1  0
 19 20  1  0
 19 21  2  0
 21 22  1  0
 10  5  1  0
 22 13  1  0
 12  7  1  0
 21 15  1  0
  1 23  1  0
  4 24  1  0
  5 25  1  6
  6 26  1  0
  6 27  1  0
  8 28  1  0
  8 29  1  0
  9 30  1  0
  9 31  1  0
 10 32  1  0
 11 33  1  0
 11 34  1  0
 12 35  1  0
 12 36  1  0
 14 37  1  0
 16 38  1  0
 17 39  1  0
 18 40  1  0
M  END
$$$$
