
     RDKit          3D

 68 70  0  0  0  0  0  0  0  0999 V2000
    9.1724   -2.0386   -0.9679 C   0  0  0  0  0  0  0  0  0  0  0  0
    7.9033   -1.5167   -0.3109 C   0  0  0  0  0  0  0  0  0  0  0  0
    6.6611   -1.8986   -1.1173 C   0  0  0  0  0  0  0  0  0  0  0  0
    5.3484   -1.4927   -0.4409 C   0  0  0  0  0  0  0  0  0  0  0  0
    5.1553    0.0223   -0.3469 C   0  0  0  0  0  0  0  0  0  0  0  0
    3.7894    0.3701    0.2506 C   0  0  0  0  0  0  0  0  0  0  0  0
    3.5999    1.8861    0.3616 C   0  0  0  0  0  0  0  0  0  0  0  0
    2.2758    2.2545    1.0273 C   0  0  0  0  0  0  0  0  0  0  0  0
    1.0884    1.9305    0.1425 C   0  0  0  0  0  0  0  0  0  0  0  0
    0.9819    2.3601   -1.0016 O   0  0  0  0  0  0  0  0  0  0  0  0
    0.1462    1.1335    0.7484 N   0  0  0  0  0  0  0  0  0  0  0  0
   -0.9996    0.5847    0.0027 C   0  0  2  0  0  0  0  0  0  0  0  0
   -2.0362    1.6661   -0.4188 C   0  0  0  0  0  0  0  0  0  0  0  0
   -2.8797    2.1891    0.6730 N   0  0  0  0  0  0  0  0  0  0  0  0
   -3.9832    3.0021    0.1530 C   0  0  0  0  0  0  0  0  0  0  0  0
   -4.4923    3.7140    1.3943 C   0  0  0  0  0  0  0  0  0  0  0  0
   -3.2801    3.8185    2.3114 C   0  0  0  0  0  0  0  0  0  0  0  0
   -2.1616    3.0830    1.5851 C   0  0  0  0  0  0  0  0  0  0  0  0
   -1.6551   -0.5666    0.8176 C   0  0  2  0  0  0  0  0  0  0  0  0
   -0.6175   -1.4644    1.2673 O   0  0  0  0  0  0  0  0  0  0  0  0
   -2.6927   -1.3599    0.0499 C   0  0  0  0  0  0  0  0  0  0  0  0
   -2.3340   -2.1563   -1.0502 C   0  0  0  0  0  0  0  0  0  0  0  0
   -3.3044   -2.8707   -1.7567 C   0  0  0  0  0  0  0  0  0  0  0  0
   -4.6392   -2.8027   -1.3665 C   0  0  0  0  0  0  0  0  0  0  0  0
   -5.0115   -1.9992   -0.2858 C   0  0  0  0  0  0  0  0  0  0  0  0
   -4.0436   -1.2914    0.4254 C   0  0  0  0  0  0  0  0  0  0  0  0
   -6.3086   -1.8615    0.1377 O   0  0  0  0  0  0  0  0  0  0  0  0
   -7.2335   -2.3408   -0.8448 C   0  0  0  0  0  0  0  0  0  0  0  0
   -6.7808   -3.6794   -1.4039 C   0  0  0  0  0  0  0  0  0  0  0  0
   -5.5334   -3.5445   -2.0951 O   0  0  0  0  0  0  0  0  0  0  0  0
    9.1554   -3.1307   -1.0423 H   0  0  0  0  0  0  0  0  0  0  0  0
   10.0504   -1.7527   -0.3797 H   0  0  0  0  0  0  0  0  0  0  0  0
    9.2896   -1.6266   -1.9755 H   0  0  0  0  0  0  0  0  0  0  0  0
    7.8298   -1.9257    0.7034 H   0  0  0  0  0  0  0  0  0  0  0  0
    7.9795   -0.4280   -0.2186 H   0  0  0  0  0  0  0  0  0  0  0  0
    6.6485   -2.9862   -1.2605 H   0  0  0  0  0  0  0  0  0  0  0  0
    6.7147   -1.4504   -2.1168 H   0  0  0  0  0  0  0  0  0  0  0  0
    5.2996   -1.9356    0.5611 H   0  0  0  0  0  0  0  0  0  0  0  0
    4.5198   -1.9229   -1.0169 H   0  0  0  0  0  0  0  0  0  0  0  0
    5.2433    0.4664   -1.3456 H   0  0  0  0  0  0  0  0  0  0  0  0
    5.9407    0.4630    0.2766 H   0  0  0  0  0  0  0  0  0  0  0  0
    2.9983   -0.0598   -0.3754 H   0  0  0  0  0  0  0  0  0  0  0  0
    3.6986   -0.0847    1.2445 H   0  0  0  0  0  0  0  0  0  0  0  0
    3.6632    2.3388   -0.6352 H   0  0  0  0  0  0  0  0  0  0  0  0
    4.4183    2.3080    0.9575 H   0  0  0  0  0  0  0  0  0  0  0  0
    2.1892    1.7575    1.9996 H   0  0  0  0  0  0  0  0  0  0  0  0
    2.2442    3.3337    1.2185 H   0  0  0  0  0  0  0  0  0  0  0  0
    0.4578    0.5475    1.5169 H   0  0  0  0  0  0  0  0  0  0  0  0
   -0.5637    0.1662   -0.9147 H   0  0  0  0  0  0  0  0  0  0  0  0
   -2.6967    1.2008   -1.1626 H   0  0  0  0  0  0  0  0  0  0  0  0
   -1.5383    2.4916   -0.9417 H   0  0  0  0  0  0  0  0  0  0  0  0
   -4.7656    2.3896   -0.3062 H   0  0  0  0  0  0  0  0  0  0  0  0
   -3.6350    3.7379   -0.5833 H   0  0  0  0  0  0  0  0  0  0  0  0
   -5.2763    3.1241    1.8837 H   0  0  0  0  0  0  0  0  0  0  0  0
   -4.9108    4.6966    1.1553 H   0  0  0  0  0  0  0  0  0  0  0  0
   -3.5013    3.3428    3.2736 H   0  0  0  0  0  0  0  0  0  0  0  0
   -3.0095    4.8610    2.5062 H   0  0  0  0  0  0  0  0  0  0  0  0
   -1.5387    3.8046    1.0421 H   0  0  0  0  0  0  0  0  0  0  0  0
   -1.5335    2.5394    2.2966 H   0  0  0  0  0  0  0  0  0  0  0  0
   -2.0959   -0.1678    1.7389 H   0  0  0  0  0  0  0  0  0  0  0  0
   -1.0349   -2.3355    1.3905 H   0  0  0  0  0  0  0  0  0  0  0  0
   -1.2937   -2.2252   -1.3623 H   0  0  0  0  0  0  0  0  0  0  0  0
   -3.0185   -3.4863   -2.6055 H   0  0  0  0  0  0  0  0  0  0  0  0
   -4.3523   -0.6657    1.2606 H   0  0  0  0  0  0  0  0  0  0  0  0
   -8.2088   -2.4459   -0.3586 H   0  0  0  0  0  0  0  0  0  0  0  0
   -7.3255   -1.5849   -1.6351 H   0  0  0  0  0  0  0  0  0  0  0  0
   -7.5176   -4.0578   -2.1193 H   0  0  0  0  0  0  0  0  0  0  0  0
   -6.6595   -4.4275   -0.6100 H   0  0  0  0  0  0  0  0  0  0  0  0
  1  2  1  0
  2  3  1  0
  3  4  1  0
  4  5  1  0
  5  6  1  0
  6  7  1  0
  7  8  1  0
  8  9  1  0
  9 10  2  0
  9 11  1  0
 11 12  1  0
 12 13  1  0
 13 14  1  0
 14 15  1  0
 15 16  1  0
 16 17  1  0
 17 18  1  0
 12 19  1  0
 19 20  1  0
 19 21  1  0
 21 22  2  0
 22 23  1  0
 23 24  2  0
 24 25  1  0
 25 26  2  0
 25 27  1  0
 27 28  1  0
 28 29  1  0
 29 30  1  0
 18 14  1  0
 26 21  1  0
 30 24  1  0
  1 31  1  0
  1 32  1  0
  1 33  1  0
  2 34  1  0
  2 35  1  0
  3 36  1  0
  3 37  1  0
  4 38  1  0
  4 39  1  0
  5 40  1  0
  5 41  1  0
  6 42  1  0
  6 43  1  0
  7 44  1  0
  7 45  1  0
  8 46  1  0
  8 47  1  0
 11 48  1  0
 12 49  1  6
 13 50  1  0
 13 51  1  0
 15 52  1  0
 15 53  1  0
 16 54  1  0
 16 55  1  0
 17 56  1  0
 17 57  1  0
 18 58  1  0
 18 59  1  0
 19 60  1  1
 20 61  1  0
 22 62  1  0
 23 63  1  0
 26 64  1  0
 28 65  1  0
 28 66  1  0
 29 67  1  0
 29 68  1  0
M  END
$$$$
