
     RDKit          3D

 53 57  0  0  0  0  0  0  0  0999 V2000
   -6.4898    0.6809    2.5949 C   0  0  0  0  0  0  0  0  0  0  0  0
   -5.6315    0.4523    1.4572 N   0  0  0  0  0  0  0  0  0  0  0  0
   -4.2617    0.3914    1.4874 C   0  0  0  0  0  0  0  0  0  0  0  0
   -3.8216    0.1670    0.1950 C   0  0  0  0  0  0  0  0  0  0  0  0
   -2.4156    0.0919   -0.1431 C   0  0  0  0  0  0  0  0  0  0  0  0
   -1.8170    1.1413   -0.8657 C   0  0  0  0  0  0  0  0  0  0  0  0
   -0.4667    1.0815   -1.2282 C   0  0  0  0  0  0  0  0  0  0  0  0
    0.2722   -0.0311   -0.8571 C   0  0  0  0  0  0  0  0  0  0  0  0
   -0.3202   -1.0672   -0.1315 C   0  0  0  0  0  0  0  0  0  0  0  0
   -1.6595   -1.0243    0.2326 C   0  0  0  0  0  0  0  0  0  0  0  0
    0.6525   -2.1654    0.1506 C   0  0  0  0  0  0  0  0  0  0  0  0
    1.9466   -1.6093   -0.4557 C   0  0  0  0  0  0  0  0  0  0  0  0
    1.6286   -0.3231   -1.1045 N   0  0  0  0  0  0  0  0  0  0  0  0
    2.5137    0.4907   -1.7949 C   0  0  0  0  0  0  0  0  0  0  0  0
    2.2134    1.5786   -2.2973 O   0  0  0  0  0  0  0  0  0  0  0  0
    3.9516   -0.0053   -1.9219 C   0  0  0  0  0  0  0  0  0  0  0  0
    4.8416    0.4415   -0.7847 C   0  0  0  0  0  0  0  0  0  0  0  0
    5.0231    1.8086   -0.5186 C   0  0  0  0  0  0  0  0  0  0  0  0
    5.8419    2.2251    0.5302 C   0  0  0  0  0  0  0  0  0  0  0  0
    6.4956    1.2807    1.3242 C   0  0  0  0  0  0  0  0  0  0  0  0
    6.3460   -0.0916    1.0686 C   0  0  0  0  0  0  0  0  0  0  0  0
    7.0342   -1.1282    1.9263 C   0  0  0  0  0  0  0  0  0  0  0  0
    7.7037   -2.0594    1.1876 F   0  0  0  0  0  0  0  0  0  0  0  0
    6.1521   -1.8286    2.6944 F   0  0  0  0  0  0  0  0  0  0  0  0
    7.9496   -0.6092    2.7904 F   0  0  0  0  0  0  0  0  0  0  0  0
    5.5162   -0.5006    0.0093 C   0  0  0  0  0  0  0  0  0  0  0  0
   -4.9737    0.0763   -0.6475 C   0  0  0  0  0  0  0  0  0  0  0  0
   -5.2379   -0.1490   -2.0095 C   0  0  0  0  0  0  0  0  0  0  0  0
   -4.2646   -0.3958   -2.9630 N   0  0  0  0  0  0  0  0  0  0  0  0
   -6.5174   -0.1304   -2.4367 N   0  0  0  0  0  0  0  0  0  0  0  0
   -7.4917    0.0772   -1.5308 C   0  0  0  0  0  0  0  0  0  0  0  0
   -7.3671    0.2871   -0.2106 N   0  0  0  0  0  0  0  0  0  0  0  0
   -6.0787    0.2738    0.1720 C   0  0  0  0  0  0  0  0  0  0  0  0
   -7.1525   -0.1806    2.7085 H   0  0  0  0  0  0  0  0  0  0  0  0
   -5.8807    0.7999    3.4947 H   0  0  0  0  0  0  0  0  0  0  0  0
   -7.0677    1.5920    2.4161 H   0  0  0  0  0  0  0  0  0  0  0  0
   -3.7122    0.5257    2.4121 H   0  0  0  0  0  0  0  0  0  0  0  0
   -2.4019    2.0155   -1.1484 H   0  0  0  0  0  0  0  0  0  0  0  0
   -0.0292    1.9049   -1.7836 H   0  0  0  0  0  0  0  0  0  0  0  0
   -2.1110   -1.8440    0.7849 H   0  0  0  0  0  0  0  0  0  0  0  0
    0.7621   -2.3455    1.2257 H   0  0  0  0  0  0  0  0  0  0  0  0
    0.3520   -3.0926   -0.3500 H   0  0  0  0  0  0  0  0  0  0  0  0
    2.3626   -2.3028   -1.1955 H   0  0  0  0  0  0  0  0  0  0  0  0
    2.7002   -1.4372    0.3207 H   0  0  0  0  0  0  0  0  0  0  0  0
    3.9737   -1.0925   -2.0403 H   0  0  0  0  0  0  0  0  0  0  0  0
    4.3595    0.3878   -2.8637 H   0  0  0  0  0  0  0  0  0  0  0  0
    4.5184    2.5616   -1.1273 H   0  0  0  0  0  0  0  0  0  0  0  0
    5.9634    3.2878    0.7311 H   0  0  0  0  0  0  0  0  0  0  0  0
    7.1227    1.6230    2.1468 H   0  0  0  0  0  0  0  0  0  0  0  0
    5.3994   -1.5677   -0.1900 H   0  0  0  0  0  0  0  0  0  0  0  0
   -3.3232   -0.1078   -2.7396 H   0  0  0  0  0  0  0  0  0  0  0  0
   -4.5970   -0.2282   -3.9042 H   0  0  0  0  0  0  0  0  0  0  0  0
   -8.5063    0.0734   -1.9185 H   0  0  0  0  0  0  0  0  0  0  0  0
  1  2  1  0
  2  3  1  0
  3  4  2  0
  4  5  1  0
  5  6  2  0
  6  7  1  0
  7  8  2  0
  8  9  1  0
  9 10  2  0
  9 11  1  0
 11 12  1  0
 12 13  1  0
 13 14  1  0
 14 15  2  0
 14 16  1  0
 16 17  1  0
 17 18  2  0
 18 19  1  0
 19 20  2  0
 20 21  1  0
 21 22  1  0
 22 23  1  0
 22 24  1  0
 22 25  1  0
 21 26  2  0
  4 27  1  0
 27 28  2  0
 28 29  1  0
 28 30  1  0
 30 31  2  0
 31 32  1  0
 32 33  2  0
 33  2  1  0
 10  5  1  0
 26 17  1  0
 33 27  1  0
 13  8  1  0
  1 34  1  0
  1 35  1  0
  1 36  1  0
  3 37  1  0
  6 38  1  0
  7 39  1  0
 10 40  1  0
 11 41  1  0
 11 42  1  0
 12 43  1  0
 12 44  1  0
 16 45  1  0
 16 46  1  0
 18 47  1  0
 19 48  1  0
 20 49  1  0
 26 50  1  0
 29 51  1  0
 29 52  1  0
 31 53  1  0
M  END
$$$$
