
     RDKit          3D

 24 25  0  0  0  0  0  0  0  0999 V2000
   -0.9868   -0.1954    1.4241 O   0  0  0  0  0  0  0  0  0  0  0  0
   -0.9627   -0.1484    0.2024 C   0  0  0  0  0  0  0  0  0  0  0  0
    0.1667   -0.1349   -0.5937 N   0  0  0  0  0  0  0  0  0  0  0  0
    1.5109   -0.0732   -0.1700 C   0  0  0  0  0  0  0  0  0  0  0  0
    1.9009    0.1526    1.1516 C   0  0  0  0  0  0  0  0  0  0  0  0
    3.2574    0.2095    1.4933 C   0  0  0  0  0  0  0  0  0  0  0  0
    4.2395    0.0457    0.5158 C   0  0  0  0  0  0  0  0  0  0  0  0
    5.8923    0.1293    1.0072 Cl  0  0  0  0  0  0  0  0  0  0  0  0
    3.8587   -0.1740   -0.8100 C   0  0  0  0  0  0  0  0  0  0  0  0
    5.0098   -0.3818   -2.0827 Cl  0  0  0  0  0  0  0  0  0  0  0  0
    2.5003   -0.2308   -1.1488 C   0  0  0  0  0  0  0  0  0  0  0  0
   -2.1059   -0.1210   -0.5718 N   0  0  0  0  0  0  0  0  0  0  0  0
   -3.2860   -0.0148    0.0871 N   0  0  0  0  0  0  0  0  0  0  0  0
   -3.8524    1.1286    0.5438 C   0  0  0  0  0  0  0  0  0  0  0  0
   -5.0845    0.8627    0.9230 N   0  0  0  0  0  0  0  0  0  0  0  0
   -5.3101   -0.4865    0.7045 N   0  0  0  0  0  0  0  0  0  0  0  0
   -4.2086   -0.9993    0.1978 C   0  0  0  0  0  0  0  0  0  0  0  0
    0.0137   -0.3330   -1.5726 H   0  0  0  0  0  0  0  0  0  0  0  0
    1.1751    0.2936    1.9480 H   0  0  0  0  0  0  0  0  0  0  0  0
    3.5361    0.3836    2.5305 H   0  0  0  0  0  0  0  0  0  0  0  0
    2.2257   -0.4028   -2.1866 H   0  0  0  0  0  0  0  0  0  0  0  0
   -2.0784    0.4265   -1.4196 H   0  0  0  0  0  0  0  0  0  0  0  0
   -3.3610    2.0890    0.5788 H   0  0  0  0  0  0  0  0  0  0  0  0
   -4.0504   -2.0252   -0.0979 H   0  0  0  0  0  0  0  0  0  0  0  0
  1  2  2  0
  2  3  1  0
  3  4  1  0
  4  5  2  0
  5  6  1  0
  6  7  2  0
  7  8  1  0
  7  9  1  0
  9 10  1  0
  9 11  2  0
  2 12  1  0
 12 13  1  0
 13 14  1  0
 14 15  2  0
 15 16  1  0
 16 17  2  0
 11  4  1  0
 17 13  1  0
  3 18  1  0
  5 19  1  0
  6 20  1  0
 11 21  1  0
 12 22  1  0
 14 23  1  0
 17 24  1  0
M  END
$$$$
