
     RDKit          3D

 65 68  0  0  0  0  0  0  0  0999 V2000
    0.9427   -2.5335   -1.2995 C   0  0  0  0  0  0  0  0  0  0  0  0
    0.4947   -2.9474    0.0782 C   0  0  0  0  0  0  0  0  0  0  0  0
    0.8984   -4.2270    0.5080 C   0  0  0  0  0  0  0  0  0  0  0  0
    0.5385   -4.7210    1.7596 C   0  0  0  0  0  0  0  0  0  0  0  0
   -0.2336   -3.9436    2.6104 C   0  0  0  0  0  0  0  0  0  0  0  0
   -0.6317   -2.6677    2.2128 C   0  0  0  0  0  0  0  0  0  0  0  0
   -0.2662   -2.1358    0.9536 C   0  0  0  0  0  0  0  0  0  0  0  0
   -0.7367   -0.7081    0.6483 C   0  0  0  0  0  0  0  0  0  0  0  0
    0.3643    0.1920    0.0118 C   0  0  0  0  0  0  0  0  0  0  0  0
    0.1698    0.8746   -0.9924 O   0  0  0  0  0  0  0  0  0  0  0  0
    1.5415    0.2593    0.7408 N   0  0  0  0  0  0  0  0  0  0  0  0
    2.6887    1.0440    0.2997 C   0  0  0  0  0  0  0  0  0  0  0  0
    3.3538    1.7321    1.4926 C   0  0  0  0  0  0  0  0  0  0  0  0
    4.5077    2.6390    1.0563 C   0  0  0  0  0  0  0  0  0  0  0  0
    5.1828    2.1914   -0.2409 C   0  0  0  0  0  0  0  0  0  0  0  0
    5.1281    0.6804   -0.4123 C   0  0  0  0  0  0  0  0  0  0  0  0
    3.6903    0.1565   -0.4572 C   0  0  0  0  0  0  0  0  0  0  0  0
   -2.0595   -0.5506   -0.0252 N   0  0  0  0  0  0  0  0  0  0  0  0
   -2.8635    0.5979    0.1428 C   0  0  0  0  0  0  0  0  0  0  0  0
   -3.9389    0.7355   -0.4473 O   0  0  0  0  0  0  0  0  0  0  0  0
   -2.4030    1.6433    1.1504 C   0  0  0  0  0  0  0  0  0  0  0  0
   -3.0904    2.9200    1.0179 N   0  0  0  0  0  0  0  0  0  0  0  0
   -4.0354    3.4053    1.8804 C   0  0  0  0  0  0  0  0  0  0  0  0
   -4.3220    4.6684    1.4228 C   0  0  0  0  0  0  0  0  0  0  0  0
   -3.5636    4.9685    0.3250 N   0  0  0  0  0  0  0  0  0  0  0  0
   -2.8307    3.8981    0.0840 C   0  0  0  0  0  0  0  0  0  0  0  0
   -1.8538    3.7499   -1.0264 C   0  0  0  0  0  0  0  0  0  0  0  0
   -2.3736   -1.3990   -1.1338 C   0  0  0  0  0  0  0  0  0  0  0  0
   -2.6447   -2.7593   -0.9394 C   0  0  0  0  0  0  0  0  0  0  0  0
   -2.9601   -3.5855   -2.0231 C   0  0  0  0  0  0  0  0  0  0  0  0
   -3.0206   -3.0523   -3.3080 C   0  0  0  0  0  0  0  0  0  0  0  0
   -2.7780   -1.6969   -3.4962 C   0  0  0  0  0  0  0  0  0  0  0  0
   -2.8409   -1.1852   -4.7323 F   0  0  0  0  0  0  0  0  0  0  0  0
   -2.4641   -0.8667   -2.4253 C   0  0  0  0  0  0  0  0  0  0  0  0
    0.3085   -1.7674   -1.7422 H   0  0  0  0  0  0  0  0  0  0  0  0
    1.9700   -2.1633   -1.2607 H   0  0  0  0  0  0  0  0  0  0  0  0
    0.9089   -3.3887   -1.9850 H   0  0  0  0  0  0  0  0  0  0  0  0
    1.4964   -4.8579   -0.1491 H   0  0  0  0  0  0  0  0  0  0  0  0
    0.8538   -5.7163    2.0626 H   0  0  0  0  0  0  0  0  0  0  0  0
   -0.5283   -4.3310    3.5826 H   0  0  0  0  0  0  0  0  0  0  0  0
   -1.2431   -2.0867    2.9025 H   0  0  0  0  0  0  0  0  0  0  0  0
   -0.8684   -0.2470    1.6369 H   0  0  0  0  0  0  0  0  0  0  0  0
    1.7164   -0.4605    1.4340 H   0  0  0  0  0  0  0  0  0  0  0  0
    2.3277    1.8237   -0.3843 H   0  0  0  0  0  0  0  0  0  0  0  0
    2.6206    2.3226    2.0577 H   0  0  0  0  0  0  0  0  0  0  0  0
    3.7319    0.9724    2.1909 H   0  0  0  0  0  0  0  0  0  0  0  0
    4.1441    3.6647    0.9251 H   0  0  0  0  0  0  0  0  0  0  0  0
    5.2453    2.6794    1.8656 H   0  0  0  0  0  0  0  0  0  0  0  0
    6.2220    2.5384   -0.2523 H   0  0  0  0  0  0  0  0  0  0  0  0
    4.6853    2.6675   -1.0943 H   0  0  0  0  0  0  0  0  0  0  0  0
    5.6589    0.2094    0.4241 H   0  0  0  0  0  0  0  0  0  0  0  0
    5.6557    0.3809   -1.3246 H   0  0  0  0  0  0  0  0  0  0  0  0
    3.3615    0.0651   -1.5002 H   0  0  0  0  0  0  0  0  0  0  0  0
    3.6870   -0.8655   -0.0543 H   0  0  0  0  0  0  0  0  0  0  0  0
   -2.5954    1.2652    2.1606 H   0  0  0  0  0  0  0  0  0  0  0  0
   -1.3398    1.8688    1.0543 H   0  0  0  0  0  0  0  0  0  0  0  0
   -4.4221    2.8358    2.7120 H   0  0  0  0  0  0  0  0  0  0  0  0
   -5.0284    5.3799    1.8277 H   0  0  0  0  0  0  0  0  0  0  0  0
   -1.8214    4.6617   -1.6293 H   0  0  0  0  0  0  0  0  0  0  0  0
   -2.1303    2.9197   -1.6851 H   0  0  0  0  0  0  0  0  0  0  0  0
   -0.8472    3.5720   -0.6373 H   0  0  0  0  0  0  0  0  0  0  0  0
   -2.6434   -3.1880    0.0592 H   0  0  0  0  0  0  0  0  0  0  0  0
   -3.1686   -4.6396   -1.8601 H   0  0  0  0  0  0  0  0  0  0  0  0
   -3.2669   -3.6785   -4.1598 H   0  0  0  0  0  0  0  0  0  0  0  0
   -2.2807    0.1864   -2.6132 H   0  0  0  0  0  0  0  0  0  0  0  0
  1  2  1  0
  2  3  2  0
  3  4  1  0
  4  5  2  0
  5  6  1  0
  6  7  2  0
  7  8  1  0
  8  9  1  0
  9 10  2  0
  9 11  1  0
 11 12  1  0
 12 13  1  0
 13 14  1  0
 14 15  1  0
 15 16  1  0
 16 17  1  0
  8 18  1  0
 18 19  1  0
 19 20  2  0
 19 21  1  0
 21 22  1  0
 22 23  1  0
 23 24  2  0
 24 25  1  0
 25 26  2  0
 26 27  1  0
 18 28  1  0
 28 29  2  0
 29 30  1  0
 30 31  2  0
 31 32  1  0
 32 33  1  0
 32 34  2  0
  7  2  1  0
 17 12  1  0
 26 22  1  0
 34 28  1  0
  1 35  1  0
  1 36  1  0
  1 37  1  0
  3 38  1  0
  4 39  1  0
  5 40  1  0
  6 41  1  0
  8 42  1  0
 11 43  1  0
 12 44  1  0
 13 45  1  0
 13 46  1  0
 14 47  1  0
 14 48  1  0
 15 49  1  0
 15 50  1  0
 16 51  1  0
 16 52  1  0
 17 53  1  0
 17 54  1  0
 21 55  1  0
 21 56  1  0
 23 57  1  0
 24 58  1  0
 27 59  1  0
 27 60  1  0
 27 61  1  0
 29 62  1  0
 30 63  1  0
 31 64  1  0
 34 65  1  0
M  END
$$$$
