
     RDKit          3D

 44 47  0  0  0  0  0  0  0  0999 V2000
   -0.4461   -3.7020   -1.2808 C   0  0  0  0  0  0  0  0  0  0  0  0
   -0.6609   -2.5427   -0.3114 C   0  0  1  0  0  0  0  0  0  0  0  0
    0.6292   -1.7421   -0.0860 C   0  0  0  0  0  0  0  0  0  0  0  0
    1.7792   -2.4262    0.4493 N   0  0  0  0  0  0  0  0  0  0  0  0
    2.9867   -1.8668    0.8085 C   0  0  0  0  0  0  0  0  0  0  0  0
    3.8832   -2.6629    1.1002 O   0  0  0  0  0  0  0  0  0  0  0  0
    3.2283   -0.4278    0.8996 C   0  0  0  0  0  0  0  0  0  0  0  0
    4.3637    0.1228    1.5505 C   0  0  0  0  0  0  0  0  0  0  0  0
    4.3964    1.4542    1.5564 N   0  0  0  0  0  0  0  0  0  0  0  0
    3.2720    1.8095    0.8987 N   0  0  0  0  0  0  0  0  0  0  0  0
    2.8015    3.0980    0.6739 C   0  0  0  0  0  0  0  0  0  0  0  0
    1.6544    3.3014    0.0129 C   0  0  0  0  0  0  0  0  0  0  0  0
    0.9396    2.0774   -0.4825 C   0  0  0  0  0  0  0  0  0  0  0  0
    1.4190    0.8759   -0.2957 N   0  0  0  0  0  0  0  0  0  0  0  0
    2.5585    0.6990    0.4378 C   0  0  0  0  0  0  0  0  0  0  0  0
   -0.2539    2.2324   -1.1533 N   0  0  0  0  0  0  0  0  0  0  0  0
   -1.1367    1.1183   -1.5116 C   0  0  2  0  0  0  0  0  0  0  0  0
   -2.0615    1.5689   -2.6457 C   0  0  0  0  0  0  0  0  0  0  0  0
   -1.9601    0.6351   -0.3243 C   0  0  0  0  0  0  0  0  0  0  0  0
   -2.5641    1.5590    0.5493 C   0  0  0  0  0  0  0  0  0  0  0  0
   -3.3483    1.1214    1.6129 C   0  0  0  0  0  0  0  0  0  0  0  0
   -3.9109    2.0233    2.4277 F   0  0  0  0  0  0  0  0  0  0  0  0
   -3.5709   -0.2303    1.8321 C   0  0  0  0  0  0  0  0  0  0  0  0
   -2.9925   -1.1648    0.9766 C   0  0  0  0  0  0  0  0  0  0  0  0
   -2.1770   -0.7389   -0.0799 C   0  0  0  0  0  0  0  0  0  0  0  0
   -1.6472   -1.6754   -0.9341 O   0  0  0  0  0  0  0  0  0  0  0  0
    0.2536   -4.4415   -0.8815 H   0  0  0  0  0  0  0  0  0  0  0  0
   -1.3974   -4.2053   -1.4858 H   0  0  0  0  0  0  0  0  0  0  0  0
   -0.0673   -3.3432   -2.2443 H   0  0  0  0  0  0  0  0  0  0  0  0
   -1.0321   -2.9545    0.6348 H   0  0  0  0  0  0  0  0  0  0  0  0
    0.3884   -0.9568    0.6327 H   0  0  0  0  0  0  0  0  0  0  0  0
    0.9361   -1.3092   -1.0424 H   0  0  0  0  0  0  0  0  0  0  0  0
    1.8493   -3.4302    0.3503 H   0  0  0  0  0  0  0  0  0  0  0  0
    5.1674   -0.4209    2.0339 H   0  0  0  0  0  0  0  0  0  0  0  0
    3.4117    3.8983    1.0696 H   0  0  0  0  0  0  0  0  0  0  0  0
    1.2468    4.2814   -0.1851 H   0  0  0  0  0  0  0  0  0  0  0  0
   -0.6917    3.1437   -1.1363 H   0  0  0  0  0  0  0  0  0  0  0  0
   -0.5225    0.3037   -1.9084 H   0  0  0  0  0  0  0  0  0  0  0  0
   -2.7189    0.7530   -2.9657 H   0  0  0  0  0  0  0  0  0  0  0  0
   -2.6956    2.4110   -2.3446 H   0  0  0  0  0  0  0  0  0  0  0  0
   -1.4773    1.8934   -3.5142 H   0  0  0  0  0  0  0  0  0  0  0  0
   -2.4383    2.6282    0.4134 H   0  0  0  0  0  0  0  0  0  0  0  0
   -4.2005   -0.5461    2.6576 H   0  0  0  0  0  0  0  0  0  0  0  0
   -3.1933   -2.2218    1.1272 H   0  0  0  0  0  0  0  0  0  0  0  0
  1  2  1  0
  2  3  1  0
  3  4  1  0
  4  5  1  0
  5  6  2  0
  5  7  1  0
  7  8  1  0
  8  9  2  0
  9 10  1  0
 10 11  1  0
 11 12  2  0
 12 13  1  0
 13 14  2  0
 14 15  1  0
 13 16  1  0
 16 17  1  0
 17 18  1  0
 17 19  1  0
 19 20  2  0
 20 21  1  0
 21 22  1  0
 21 23  2  0
 23 24  1  0
 24 25  2  0
 25 26  1  0
 26  2  1  0
 15  7  2  0
 25 19  1  0
 15 10  1  0
  1 27  1  0
  1 28  1  0
  1 29  1  0
  2 30  1  1
  3 31  1  0
  3 32  1  0
  4 33  1  0
  8 34  1  0
 11 35  1  0
 12 36  1  0
 16 37  1  0
 17 38  1  6
 18 39  1  0
 18 40  1  0
 18 41  1  0
 20 42  1  0
 23 43  1  0
 24 44  1  0
M  END
$$$$
