
     RDKit          3D

 84 90  0  0  0  0  0  0  0  0999 V2000
   -3.2109   -1.2061   -2.0570 O   0  0  0  0  0  0  0  0  0  0  0  0
   -2.8503   -0.8974   -0.9295 C   0  0  0  0  0  0  0  0  0  0  0  0
   -2.5435   -1.7641    0.0997 N   0  0  0  0  0  0  0  0  0  0  0  0
   -2.7732   -3.1804    0.0175 C   0  0  0  0  0  0  0  0  0  0  0  0
   -4.1979   -3.5788    0.3741 C   0  0  0  0  0  0  0  0  0  0  0  0
   -5.1970   -3.6701   -0.6121 C   0  0  0  0  0  0  0  0  0  0  0  0
   -6.5123   -4.0127   -0.2890 C   0  0  0  0  0  0  0  0  0  0  0  0
   -6.8604   -4.2687    1.0336 C   0  0  0  0  0  0  0  0  0  0  0  0
   -5.8943   -4.1755    2.0317 C   0  0  0  0  0  0  0  0  0  0  0  0
   -4.5800   -3.8324    1.7039 C   0  0  0  0  0  0  0  0  0  0  0  0
   -2.0101   -4.0048   -1.0015 C   0  0  0  0  0  0  0  0  0  0  0  0
   -1.6464   -4.1064    0.4446 C   0  0  0  0  0  0  0  0  0  0  0  0
   -2.6944    0.5276   -0.5775 C   0  0  0  0  0  0  0  0  0  0  0  0
   -1.5724    1.2275   -1.0507 C   0  0  0  0  0  0  0  0  0  0  0  0
   -0.5394    0.5917   -1.9595 C   0  0  0  0  0  0  0  0  0  0  0  0
    0.7836    0.4890   -1.3270 N   0  0  0  0  0  0  0  0  0  0  0  0
    1.8560    0.3752   -2.3146 C   0  0  0  0  0  0  0  0  0  0  0  0
    3.2236    0.6180   -1.6603 C   0  0  0  0  0  0  0  0  0  0  0  0
    3.2643    0.1750   -0.1797 C   0  0  0  0  0  0  0  0  0  0  0  0
    4.6598   -0.0332    0.2675 N   0  0  0  0  0  0  0  0  0  0  0  0
    5.2497   -1.3105   -0.1557 C   0  0  0  0  0  0  0  0  0  0  0  0
    6.7348   -1.3762    0.2097 C   0  0  0  0  0  0  0  0  0  0  0  0
    6.9440   -1.1673    1.7027 C   0  0  0  0  0  0  0  0  0  0  0  0
    6.2593    0.1162    2.1585 C   0  0  0  0  0  0  0  0  0  0  0  0
    4.7925    0.1515    1.7216 C   0  0  0  0  0  0  0  0  0  0  0  0
    2.2920   -0.9941    0.0373 C   0  0  0  0  0  0  0  0  0  0  0  0
    0.8548   -0.5868   -0.3290 C   0  0  0  0  0  0  0  0  0  0  0  0
   -1.4584    2.5538   -0.6277 C   0  0  0  0  0  0  0  0  0  0  0  0
   -0.3382    3.4338   -0.9899 C   0  0  0  0  0  0  0  0  0  0  0  0
   -0.2562    4.0301   -2.2565 C   0  0  0  0  0  0  0  0  0  0  0  0
    0.8275    4.8419   -2.5955 C   0  0  0  0  0  0  0  0  0  0  0  0
    1.8445    5.0734   -1.6699 C   0  0  0  0  0  0  0  0  0  0  0  0
    1.7861    4.5000   -0.3922 C   0  0  0  0  0  0  0  0  0  0  0  0
    2.8607    4.7593    0.6308 C   0  0  0  0  0  0  0  0  0  0  0  0
    4.0192    5.2404    0.0936 F   0  0  0  0  0  0  0  0  0  0  0  0
    3.2108    3.6436    1.3302 F   0  0  0  0  0  0  0  0  0  0  0  0
    2.4770    5.6767    1.5623 F   0  0  0  0  0  0  0  0  0  0  0  0
    0.6856    3.6929   -0.0620 C   0  0  0  0  0  0  0  0  0  0  0  0
   -2.3628    3.1507    0.1927 N   0  0  0  0  0  0  0  0  0  0  0  0
   -3.4387    2.4715    0.6083 C   0  0  0  0  0  0  0  0  0  0  0  0
   -4.3480    3.1238    1.4286 C   0  0  0  0  0  0  0  0  0  0  0  0
   -5.4931    2.4822    1.8982 C   0  0  0  0  0  0  0  0  0  0  0  0
   -6.7017    3.4135    3.0134 Br  0  0  0  0  0  0  0  0  0  0  0  0
   -5.7528    1.1660    1.5470 C   0  0  0  0  0  0  0  0  0  0  0  0
   -4.8499    0.4964    0.7230 C   0  0  0  0  0  0  0  0  0  0  0  0
   -3.6731    1.1347    0.2494 C   0  0  0  0  0  0  0  0  0  0  0  0
   -2.3367   -1.3817    1.0137 H   0  0  0  0  0  0  0  0  0  0  0  0
   -4.9409   -3.4593   -1.6501 H   0  0  0  0  0  0  0  0  0  0  0  0
   -7.2626   -4.0776   -1.0735 H   0  0  0  0  0  0  0  0  0  0  0  0
   -7.8832   -4.5352    1.2859 H   0  0  0  0  0  0  0  0  0  0  0  0
   -6.1627   -4.3692    3.0662 H   0  0  0  0  0  0  0  0  0  0  0  0
   -3.8400   -3.7609    2.4985 H   0  0  0  0  0  0  0  0  0  0  0  0
   -2.5069   -4.8511   -1.4630 H   0  0  0  0  0  0  0  0  0  0  0  0
   -1.3312   -3.4865   -1.6693 H   0  0  0  0  0  0  0  0  0  0  0  0
   -1.8943   -5.0304    0.9566 H   0  0  0  0  0  0  0  0  0  0  0  0
   -0.7062   -3.6675    0.7578 H   0  0  0  0  0  0  0  0  0  0  0  0
   -0.4902    1.2260   -2.8552 H   0  0  0  0  0  0  0  0  0  0  0  0
   -0.8469   -0.3862   -2.3424 H   0  0  0  0  0  0  0  0  0  0  0  0
    1.7382    1.1178   -3.1140 H   0  0  0  0  0  0  0  0  0  0  0  0
    1.8319   -0.6116   -2.7966 H   0  0  0  0  0  0  0  0  0  0  0  0
    3.4738    1.6871   -1.7091 H   0  0  0  0  0  0  0  0  0  0  0  0
    3.9781    0.1004   -2.2643 H   0  0  0  0  0  0  0  0  0  0  0  0
    2.8707    1.0321    0.3869 H   0  0  0  0  0  0  0  0  0  0  0  0
    4.7330   -2.1602    0.3066 H   0  0  0  0  0  0  0  0  0  0  0  0
    5.1720   -1.4346   -1.2402 H   0  0  0  0  0  0  0  0  0  0  0  0
    7.2877   -0.6117   -0.3498 H   0  0  0  0  0  0  0  0  0  0  0  0
    7.1452   -2.3496   -0.0874 H   0  0  0  0  0  0  0  0  0  0  0  0
    6.5289   -2.0209    2.2523 H   0  0  0  0  0  0  0  0  0  0  0  0
    8.0141   -1.1258    1.9324 H   0  0  0  0  0  0  0  0  0  0  0  0
    6.3196    0.2017    3.2487 H   0  0  0  0  0  0  0  0  0  0  0  0
    6.7884    0.9821    1.7405 H   0  0  0  0  0  0  0  0  0  0  0  0
    4.2272   -0.6144    2.2669 H   0  0  0  0  0  0  0  0  0  0  0  0
    4.3835    1.1273    2.0145 H   0  0  0  0  0  0  0  0  0  0  0  0
    2.5844   -1.8443   -0.5920 H   0  0  0  0  0  0  0  0  0  0  0  0
    2.3115   -1.3406    1.0767 H   0  0  0  0  0  0  0  0  0  0  0  0
    0.3318   -1.4887   -0.6730 H   0  0  0  0  0  0  0  0  0  0  0  0
    0.3455   -0.2497    0.5810 H   0  0  0  0  0  0  0  0  0  0  0  0
   -1.0444    3.8631   -2.9894 H   0  0  0  0  0  0  0  0  0  0  0  0
    0.8786    5.2945   -3.5840 H   0  0  0  0  0  0  0  0  0  0  0  0
    2.6849    5.7061   -1.9492 H   0  0  0  0  0  0  0  0  0  0  0  0
    0.6253    3.2454    0.9307 H   0  0  0  0  0  0  0  0  0  0  0  0
   -4.1522    4.1589    1.7007 H   0  0  0  0  0  0  0  0  0  0  0  0
   -6.6464    0.6554    1.8981 H   0  0  0  0  0  0  0  0  0  0  0  0
   -5.0801   -0.5314    0.4444 H   0  0  0  0  0  0  0  0  0  0  0  0
  1  2  2  0
  2  3  1  0
  3  4  1  0
  4  5  1  0
  5  6  2  0
  6  7  1  0
  7  8  2  0
  8  9  1  0
  9 10  2  0
  4 11  1  0
 11 12  1  0
  2 13  1  0
 13 14  2  0
 14 15  1  0
 15 16  1  0
 16 17  1  0
 17 18  1  0
 18 19  1  0
 19 20  1  0
 20 21  1  0
 21 22  1  0
 22 23  1  0
 23 24  1  0
 24 25  1  0
 19 26  1  0
 26 27  1  0
 14 28  1  0
 28 29  1  0
 29 30  2  0
 30 31  1  0
 31 32  2  0
 32 33  1  0
 33 34  1  0
 34 35  1  0
 34 36  1  0
 34 37  1  0
 33 38  2  0
 28 39  2  0
 39 40  1  0
 40 41  2  0
 41 42  1  0
 42 43  1  0
 42 44  2  0
 44 45  1  0
 45 46  2  0
 12  4  1  0
 46 13  1  0
 10  5  1  0
 27 16  1  0
 38 29  1  0
 46 40  1  0
 25 20  1  0
  3 47  1  0
  6 48  1  0
  7 49  1  0
  8 50  1  0
  9 51  1  0
 10 52  1  0
 11 53  1  0
 11 54  1  0
 12 55  1  0
 12 56  1  0
 15 57  1  0
 15 58  1  0
 17 59  1  0
 17 60  1  0
 18 61  1  0
 18 62  1  0
 19 63  1  0
 21 64  1  0
 21 65  1  0
 22 66  1  0
 22 67  1  0
 23 68  1  0
 23 69  1  0
 24 70  1  0
 24 71  1  0
 25 72  1  0
 25 73  1  0
 26 74  1  0
 26 75  1  0
 27 76  1  0
 27 77  1  0
 30 78  1  0
 31 79  1  0
 32 80  1  0
 38 81  1  0
 41 82  1  0
 44 83  1  0
 45 84  1  0
M  END
$$$$
