
     RDKit          3D

 36 38  0  0  0  0  0  0  0  0999 V2000
    1.3351    3.6822    0.5801 C   0  0  0  0  0  0  0  0  0  0  0  0
    0.9007    2.3628    1.1352 C   0  0  0  0  0  0  0  0  0  0  0  0
    0.6189    1.2230    0.4650 C   0  0  0  0  0  0  0  0  0  0  0  0
    0.6897    1.0705   -1.0483 C   0  0  0  0  0  0  0  0  0  0  0  0
    1.5159   -0.1396   -1.4460 C   0  0  0  0  0  0  0  0  0  0  0  0
    1.7739   -1.1705   -0.6200 C   0  0  0  0  0  0  0  0  0  0  0  0
    2.6085   -2.3466   -1.0293 C   0  0  0  0  0  0  0  0  0  0  0  0
    1.2178   -1.1937    0.7913 C   0  0  0  0  0  0  0  0  0  0  0  0
    0.1289   -0.1036    1.0871 C   0  0  0  0  0  0  0  0  0  0  0  0
   -0.0199    0.0216    2.5526 N   0  0  0  0  0  0  0  0  0  0  0  0
   -1.2176   -0.5071    0.4281 C   0  0  0  0  0  0  0  0  0  0  0  0
   -2.1072   -1.4608    1.0865 C   0  0  0  0  0  0  0  0  0  0  0  0
   -3.2779   -1.8249    0.5445 C   0  0  0  0  0  0  0  0  0  0  0  0
   -3.6898   -1.2594   -0.7589 C   0  0  0  0  0  0  0  0  0  0  0  0
   -4.7523   -1.5721   -1.2827 O   0  0  0  0  0  0  0  0  0  0  0  0
   -2.8055   -0.3828   -1.3312 N   0  0  0  0  0  0  0  0  0  0  0  0
   -1.6017   -0.0082   -0.7717 C   0  0  0  0  0  0  0  0  0  0  0  0
   -0.7525    0.9494   -1.5800 C   0  0  0  0  0  0  0  0  0  0  0  0
    1.3306    3.7293   -0.5097 H   0  0  0  0  0  0  0  0  0  0  0  0
    2.3465    3.9136    0.9282 H   0  0  0  0  0  0  0  0  0  0  0  0
    0.6640    4.4677    0.9425 H   0  0  0  0  0  0  0  0  0  0  0  0
    0.7807    2.3820    2.2167 H   0  0  0  0  0  0  0  0  0  0  0  0
    1.1663    1.9344   -1.5204 H   0  0  0  0  0  0  0  0  0  0  0  0
    1.8986   -0.1475   -2.4644 H   0  0  0  0  0  0  0  0  0  0  0  0
    3.4740   -2.4461   -0.3665 H   0  0  0  0  0  0  0  0  0  0  0  0
    2.0196   -3.2678   -0.9744 H   0  0  0  0  0  0  0  0  0  0  0  0
    2.9816   -2.2488   -2.0541 H   0  0  0  0  0  0  0  0  0  0  0  0
    2.0705   -1.0603    1.4726 H   0  0  0  0  0  0  0  0  0  0  0  0
    0.8058   -2.1904    0.9999 H   0  0  0  0  0  0  0  0  0  0  0  0
    0.8720    0.3392    2.9296 H   0  0  0  0  0  0  0  0  0  0  0  0
   -0.1429   -0.9047    2.9528 H   0  0  0  0  0  0  0  0  0  0  0  0
   -1.8191   -1.8830    2.0413 H   0  0  0  0  0  0  0  0  0  0  0  0
   -3.9565   -2.5234    1.0142 H   0  0  0  0  0  0  0  0  0  0  0  0
   -3.0911   -0.0036   -2.2248 H   0  0  0  0  0  0  0  0  0  0  0  0
   -1.2323    1.9371   -1.5549 H   0  0  0  0  0  0  0  0  0  0  0  0
   -0.7332    0.6321   -2.6310 H   0  0  0  0  0  0  0  0  0  0  0  0
  1  2  1  0
  2  3  2  0
  3  4  1  0
  4  5  1  0
  5  6  2  0
  6  7  1  0
  6  8  1  0
  8  9  1  0
  9 10  1  0
  9 11  1  0
 11 12  1  0
 12 13  2  0
 13 14  1  0
 14 15  2  0
 14 16  1  0
 16 17  1  0
 17 18  1  0
  9  3  1  0
 17 11  2  0
 18  4  1  0
  1 19  1  0
  1 20  1  0
  1 21  1  0
  2 22  1  0
  4 23  1  0
  5 24  1  0
  7 25  1  0
  7 26  1  0
  7 27  1  0
  8 28  1  0
  8 29  1  0
 10 30  1  0
 10 31  1  0
 12 32  1  0
 13 33  1  0
 16 34  1  0
 18 35  1  0
 18 36  1  0
M  END
$$$$
