
     RDKit          3D

 50 52  0  0  0  0  0  0  0  0999 V2000
   -3.1915   -1.8167    2.1958 C   0  0  0  0  0  0  0  0  0  0  0  0
   -1.8686   -1.1808    1.8577 C   0  0  0  0  0  0  0  0  0  0  0  0
   -0.9402   -1.3132    2.6600 O   0  0  0  0  0  0  0  0  0  0  0  0
   -1.7130   -0.4912    0.6565 N   0  0  0  0  0  0  0  0  0  0  0  0
   -2.7599   -0.2587   -0.3694 C   0  0  0  0  0  0  0  0  0  0  0  0
   -3.8120    0.7691    0.0699 C   0  0  0  0  0  0  0  0  0  0  0  0
   -5.1459    0.5205   -0.6234 C   0  0  0  0  0  0  0  0  0  0  0  0
   -4.9194    0.1347   -1.9745 O   0  0  0  0  0  0  0  0  0  0  0  0
   -4.3304   -1.1614   -2.1041 C   0  0  0  0  0  0  0  0  0  0  0  0
   -3.3892   -1.5249   -0.9548 C   0  0  0  0  0  0  0  0  0  0  0  0
   -0.3859    0.1220    0.3880 C   0  0  0  0  0  0  0  0  0  0  0  0
    0.0070    1.2064    1.4226 C   0  0  0  0  0  0  0  0  0  0  0  0
    1.3893    0.9675    2.0348 C   0  0  0  0  0  0  0  0  0  0  0  0
    2.4491    0.7037    0.9642 C   0  0  0  0  0  0  0  0  0  0  0  0
    2.0106   -0.2467   -0.0605 N   0  0  0  0  0  0  0  0  0  0  0  0
    2.6303   -0.4079   -1.2954 C   0  0  0  0  0  0  0  0  0  0  0  0
    2.1327   -1.0211   -2.2368 O   0  0  0  0  0  0  0  0  0  0  0  0
    3.9313    0.2379   -1.5336 C   0  0  0  0  0  0  0  0  0  0  0  0
    4.0310    1.1875   -2.5561 C   0  0  0  0  0  0  0  0  0  0  0  0
    5.2633    1.7858   -2.8112 C   0  0  0  0  0  0  0  0  0  0  0  0
    5.3965    2.9689   -4.0523 Cl  0  0  0  0  0  0  0  0  0  0  0  0
    6.3926    1.4339   -2.0680 C   0  0  0  0  0  0  0  0  0  0  0  0
    6.2912    0.4674   -1.0649 C   0  0  0  0  0  0  0  0  0  0  0  0
    5.0610   -0.1323   -0.8069 C   0  0  0  0  0  0  0  0  0  0  0  0
    4.9916   -1.0709    0.1469 F   0  0  0  0  0  0  0  0  0  0  0  0
    0.7346   -0.9207    0.1849 C   0  0  0  0  0  0  0  0  0  0  0  0
   -3.2664   -1.9113    3.2847 H   0  0  0  0  0  0  0  0  0  0  0  0
   -4.0463   -1.2250    1.8756 H   0  0  0  0  0  0  0  0  0  0  0  0
   -3.2329   -2.8191    1.7624 H   0  0  0  0  0  0  0  0  0  0  0  0
   -2.2498    0.1956   -1.2299 H   0  0  0  0  0  0  0  0  0  0  0  0
   -3.4418    1.7652   -0.2069 H   0  0  0  0  0  0  0  0  0  0  0  0
   -3.9567    0.8058    1.1539 H   0  0  0  0  0  0  0  0  0  0  0  0
   -5.7309   -0.2526   -0.1109 H   0  0  0  0  0  0  0  0  0  0  0  0
   -5.7442    1.4373   -0.6222 H   0  0  0  0  0  0  0  0  0  0  0  0
   -3.7817   -1.1661   -3.0520 H   0  0  0  0  0  0  0  0  0  0  0  0
   -5.1304   -1.9046   -2.1921 H   0  0  0  0  0  0  0  0  0  0  0  0
   -3.9793   -2.0584   -0.2065 H   0  0  0  0  0  0  0  0  0  0  0  0
   -2.6254   -2.2317   -1.2991 H   0  0  0  0  0  0  0  0  0  0  0  0
   -0.4607    0.6607   -0.5658 H   0  0  0  0  0  0  0  0  0  0  0  0
   -0.7383    1.3024    2.2204 H   0  0  0  0  0  0  0  0  0  0  0  0
    0.0170    2.1800    0.9143 H   0  0  0  0  0  0  0  0  0  0  0  0
    1.3402    0.1101    2.7168 H   0  0  0  0  0  0  0  0  0  0  0  0
    1.6847    1.8296    2.6435 H   0  0  0  0  0  0  0  0  0  0  0  0
    2.7130    1.6448    0.4681 H   0  0  0  0  0  0  0  0  0  0  0  0
    3.3535    0.3091    1.4377 H   0  0  0  0  0  0  0  0  0  0  0  0
    3.1547    1.4472   -3.1449 H   0  0  0  0  0  0  0  0  0  0  0  0
    7.3534    1.9005   -2.2725 H   0  0  0  0  0  0  0  0  0  0  0  0
    7.1636    0.1722   -0.4894 H   0  0  0  0  0  0  0  0  0  0  0  0
    0.8760   -1.5660    1.0579 H   0  0  0  0  0  0  0  0  0  0  0  0
    0.4724   -1.5843   -0.6466 H   0  0  0  0  0  0  0  0  0  0  0  0
  1  2  1  0
  2  3  2  0
  2  4  1  0
  4  5  1  0
  5  6  1  0
  6  7  1  0
  7  8  1  0
  8  9  1  0
  9 10  1  0
  4 11  1  0
 11 12  1  0
 12 13  1  0
 13 14  1  0
 14 15  1  0
 15 16  1  0
 16 17  2  0
 16 18  1  0
 18 19  2  0
 19 20  1  0
 20 21  1  0
 20 22  2  0
 22 23  1  0
 23 24  2  0
 24 25  1  0
 15 26  1  0
 10  5  1  0
 26 11  1  0
 24 18  1  0
  1 27  1  0
  1 28  1  0
  1 29  1  0
  5 30  1  0
  6 31  1  0
  6 32  1  0
  7 33  1  0
  7 34  1  0
  9 35  1  0
  9 36  1  0
 10 37  1  0
 10 38  1  0
 11 39  1  0
 12 40  1  0
 12 41  1  0
 13 42  1  0
 13 43  1  0
 14 44  1  0
 14 45  1  0
 19 46  1  0
 22 47  1  0
 23 48  1  0
 26 49  1  0
 26 50  1  0
M  END
$$$$
