
     RDKit          3D

 69 73  0  0  0  0  0  0  0  0999 V2000
   -7.8965    2.6683    3.4893 C   0  0  0  0  0  0  0  0  0  0  0  0
   -7.7666    1.5704    2.4514 C   0  0  0  0  0  0  0  0  0  0  0  0
   -6.3930    1.1686    2.3974 O   0  0  0  0  0  0  0  0  0  0  0  0
   -6.1435    0.1718    1.5149 C   0  0  0  0  0  0  0  0  0  0  0  0
   -6.9749   -0.3740    0.8060 O   0  0  0  0  0  0  0  0  0  0  0  0
   -4.8098   -0.1081    1.5339 N   0  0  0  0  0  0  0  0  0  0  0  0
   -4.1862   -0.9962    0.5688 C   0  0  2  0  0  0  0  0  0  0  0  0
   -2.8766   -1.5714    1.1290 C   0  0  0  0  0  0  0  0  0  0  0  0
   -1.6748   -0.6892    0.8037 C   0  0  0  0  0  0  0  0  0  0  0  0
   -1.4742   -0.4833   -0.7173 C   0  0  2  0  0  0  0  0  0  0  0  0
   -2.7535   -0.7746   -1.5157 C   0  0  1  0  0  0  0  0  0  0  0  0
   -3.9937   -0.2701   -0.7757 C   0  0  0  0  0  0  0  0  0  0  0  0
   -2.6244   -0.1496   -2.9025 C   0  0  0  0  0  0  0  0  0  0  0  0
   -1.2755   -0.4222   -3.5651 C   0  0  1  0  0  0  0  0  0  0  0  0
   -0.3661    0.7805   -3.6831 C   0  0  0  0  0  0  0  0  0  0  0  0
   -0.7092    1.9474   -3.7705 O   0  0  0  0  0  0  0  0  0  0  0  0
    0.9371    0.3637   -3.7189 O   0  0  0  0  0  0  0  0  0  0  0  0
    0.9882   -1.0632   -3.5762 C   0  0  2  0  0  0  0  0  0  0  0  0
    1.1609   -1.6919   -4.9581 C   0  0  0  0  0  0  0  0  0  0  0  0
   -0.3333   -1.4216   -2.8851 C   0  0  1  0  0  0  0  0  0  0  0  0
   -0.3177   -1.3377   -1.3099 C   0  0  1  0  0  0  0  0  0  0  0  0
    1.0353   -1.0501   -0.6920 C   0  0  0  0  0  0  0  0  0  0  0  0
    1.5317    0.1583   -0.3722 C   0  0  0  0  0  0  0  0  0  0  0  0
    2.8608    0.3692    0.2221 C   0  0  0  0  0  0  0  0  0  0  0  0
    3.3292    1.6588    0.4444 C   0  0  0  0  0  0  0  0  0  0  0  0
    4.5947    1.8312    1.0093 C   0  0  0  0  0  0  0  0  0  0  0  0
    5.3769    0.7213    1.3465 C   0  0  0  0  0  0  0  0  0  0  0  0
    6.7141    0.8621    1.9412 C   0  0  0  0  0  0  0  0  0  0  0  0
    6.9296    1.6979    3.0535 C   0  0  0  0  0  0  0  0  0  0  0  0
    8.1995    1.8354    3.6246 C   0  0  0  0  0  0  0  0  0  0  0  0
    9.2788    1.1382    3.0905 C   0  0  0  0  0  0  0  0  0  0  0  0
    9.0781    0.3126    1.9924 C   0  0  0  0  0  0  0  0  0  0  0  0
   10.1159   -0.3569    1.4732 F   0  0  0  0  0  0  0  0  0  0  0  0
    7.8173    0.1686    1.4187 C   0  0  0  0  0  0  0  0  0  0  0  0
    4.8111   -0.5263    1.0843 C   0  0  0  0  0  0  0  0  0  0  0  0
    3.5873   -0.7272    0.5357 N   0  0  0  0  0  0  0  0  0  0  0  0
   -8.9259    3.0304    3.5510 H   0  0  0  0  0  0  0  0  0  0  0  0
   -7.5923    2.3026    4.4751 H   0  0  0  0  0  0  0  0  0  0  0  0
   -7.2384    3.5079    3.2455 H   0  0  0  0  0  0  0  0  0  0  0  0
   -8.3951    0.7185    2.7345 H   0  0  0  0  0  0  0  0  0  0  0  0
   -8.0780    1.9499    1.4719 H   0  0  0  0  0  0  0  0  0  0  0  0
   -4.2478    0.5411    2.0666 H   0  0  0  0  0  0  0  0  0  0  0  0
   -4.8767   -1.8353    0.4150 H   0  0  0  0  0  0  0  0  0  0  0  0
   -2.9506   -1.7160    2.2135 H   0  0  0  0  0  0  0  0  0  0  0  0
   -2.7050   -2.5650    0.6953 H   0  0  0  0  0  0  0  0  0  0  0  0
   -0.7813   -1.1092    1.2773 H   0  0  0  0  0  0  0  0  0  0  0  0
   -1.8282    0.2929    1.2702 H   0  0  0  0  0  0  0  0  0  0  0  0
   -1.2253    0.5788   -0.8508 H   0  0  0  0  0  0  0  0  0  0  0  0
   -2.8638   -1.8609   -1.6476 H   0  0  0  0  0  0  0  0  0  0  0  0
   -4.8898   -0.4105   -1.3924 H   0  0  0  0  0  0  0  0  0  0  0  0
   -3.9029    0.8128   -0.6159 H   0  0  0  0  0  0  0  0  0  0  0  0
   -2.8231    0.9275   -2.8506 H   0  0  0  0  0  0  0  0  0  0  0  0
   -3.4189   -0.5657   -3.5356 H   0  0  0  0  0  0  0  0  0  0  0  0
   -1.4773   -0.7364   -4.5976 H   0  0  0  0  0  0  0  0  0  0  0  0
    1.8701   -1.3336   -2.9904 H   0  0  0  0  0  0  0  0  0  0  0  0
    0.3974   -1.3597   -5.6683 H   0  0  0  0  0  0  0  0  0  0  0  0
    1.1388   -2.7841   -4.8981 H   0  0  0  0  0  0  0  0  0  0  0  0
    2.1237   -1.3897   -5.3847 H   0  0  0  0  0  0  0  0  0  0  0  0
   -0.6312   -2.4461   -3.1451 H   0  0  0  0  0  0  0  0  0  0  0  0
   -0.5366   -2.3668   -0.9811 H   0  0  0  0  0  0  0  0  0  0  0  0
    1.6518   -1.9311   -0.5033 H   0  0  0  0  0  0  0  0  0  0  0  0
    0.9582    1.0591   -0.5684 H   0  0  0  0  0  0  0  0  0  0  0  0
    2.7340    2.5255    0.1772 H   0  0  0  0  0  0  0  0  0  0  0  0
    4.9685    2.8403    1.1672 H   0  0  0  0  0  0  0  0  0  0  0  0
    6.0979    2.2444    3.4957 H   0  0  0  0  0  0  0  0  0  0  0  0
    8.3415    2.4829    4.4863 H   0  0  0  0  0  0  0  0  0  0  0  0
   10.2710    1.2324    3.5195 H   0  0  0  0  0  0  0  0  0  0  0  0
    7.7169   -0.4797    0.5524 H   0  0  0  0  0  0  0  0  0  0  0  0
    5.3414   -1.4438    1.3274 H   0  0  0  0  0  0  0  0  0  0  0  0
  1  2  1  0
  2  3  1  0
  3  4  1  0
  4  5  2  0
  4  6  1  0
  6  7  1  0
  7  8  1  0
  8  9  1  0
  9 10  1  0
 10 11  1  0
 11 12  1  0
 11 13  1  0
 13 14  1  0
 14 15  1  0
 15 16  2  0
 15 17  1  0
 17 18  1  0
 18 19  1  0
 18 20  1  0
 20 21  1  0
 21 22  1  0
 22 23  2  0
 23 24  1  0
 24 25  2  0
 25 26  1  0
 26 27  2  0
 27 28  1  0
 28 29  2  0
 29 30  1  0
 30 31  2  0
 31 32  1  0
 32 33  1  0
 32 34  2  0
 27 35  1  0
 35 36  2  0
 12  7  1  0
 20 14  1  0
 36 24  1  0
 21 10  1  0
 34 28  1  0
  1 37  1  0
  1 38  1  0
  1 39  1  0
  2 40  1  0
  2 41  1  0
  6 42  1  0
  7 43  1  6
  8 44  1  0
  8 45  1  0
  9 46  1  0
  9 47  1  0
 10 48  1  1
 11 49  1  6
 12 50  1  0
 12 51  1  0
 13 52  1  0
 13 53  1  0
 14 54  1  6
 18 55  1  1
 19 56  1  0
 19 57  1  0
 19 58  1  0
 20 59  1  1
 21 60  1  1
 22 61  1  0
 23 62  1  0
 25 63  1  0
 26 64  1  0
 29 65  1  0
 30 66  1  0
 31 67  1  0
 34 68  1  0
 35 69  1  0
M  END
$$$$
