
     RDKit          3D

 58 62  0  0  0  0  0  0  0  0999 V2000
   -9.8893    1.1563   -0.3124 C   0  0  0  0  0  0  0  0  0  0  0  0
   -8.3912    1.1540   -0.2444 C   0  0  0  0  0  0  0  0  0  0  0  0
   -7.6415    1.6318   -1.3179 C   0  0  0  0  0  0  0  0  0  0  0  0
   -6.2511    1.6174   -1.2286 C   0  0  0  0  0  0  0  0  0  0  0  0
   -5.6525    1.1187   -0.0746 C   0  0  0  0  0  0  0  0  0  0  0  0
   -4.1853    1.1033    0.0475 C   0  0  0  0  0  0  0  0  0  0  0  0
   -3.5796    2.1562   -0.1279 O   0  0  0  0  0  0  0  0  0  0  0  0
   -3.5479   -0.0956    0.3135 N   0  0  0  0  0  0  0  0  0  0  0  0
   -4.1561   -1.4207    0.3767 C   0  0  0  0  0  0  0  0  0  0  0  0
   -2.9791   -2.3822    0.3505 C   0  0  0  0  0  0  0  0  0  0  0  0
   -1.8850   -1.5887    1.0532 C   0  0  0  0  0  0  0  0  0  0  0  0
   -2.0914   -0.1573    0.5311 C   0  0  1  0  0  0  0  0  0  0  0  0
   -1.3016    0.1463   -0.7556 C   0  0  0  0  0  0  0  0  0  0  0  0
    0.1283   -0.0065   -0.6043 N   0  0  0  0  0  0  0  0  0  0  0  0
    0.9561   -0.8399   -1.2911 C   0  0  0  0  0  0  0  0  0  0  0  0
    2.2088   -0.6091   -0.7493 C   0  0  0  0  0  0  0  0  0  0  0  0
    3.4462   -1.2826   -1.1565 C   0  0  0  0  0  0  0  0  0  0  0  0
    3.3899   -2.1841   -1.9944 O   0  0  0  0  0  0  0  0  0  0  0  0
    4.6759   -0.8992   -0.5973 N   0  0  0  0  0  0  0  0  0  0  0  0
    5.8794   -1.5413   -1.1236 C   0  0  0  0  0  0  0  0  0  0  0  0
    6.9990   -1.6159   -0.0896 C   0  0  0  0  0  0  0  0  0  0  0  0
    7.3122   -0.2402    0.4284 C   0  0  0  0  0  0  0  0  0  0  0  0
    8.6077    0.0976    0.8402 C   0  0  0  0  0  0  0  0  0  0  0  0
    8.8772    1.3743    1.3315 C   0  0  0  0  0  0  0  0  0  0  0  0
    7.8533    2.3140    1.4299 C   0  0  0  0  0  0  0  0  0  0  0  0
    6.5567    1.9769    1.0383 C   0  0  0  0  0  0  0  0  0  0  0  0
    6.2736    0.6988    0.5328 C   0  0  0  0  0  0  0  0  0  0  0  0
    4.8498    0.3438    0.1622 C   0  0  0  0  0  0  0  0  0  0  0  0
    2.0757    0.3392    0.2370 N   0  0  0  0  0  0  0  0  0  0  0  0
    0.8044    0.7085    0.3076 N   0  0  0  0  0  0  0  0  0  0  0  0
   -6.4688    0.6990    0.9622 C   0  0  0  0  0  0  0  0  0  0  0  0
   -7.8223    0.6908    0.8960 N   0  0  0  0  0  0  0  0  0  0  0  0
  -10.2629    2.1845   -0.3615 H   0  0  0  0  0  0  0  0  0  0  0  0
  -10.3206    0.6754    0.5739 H   0  0  0  0  0  0  0  0  0  0  0  0
  -10.2292    0.6052   -1.1946 H   0  0  0  0  0  0  0  0  0  0  0  0
   -8.1288    2.0090   -2.2116 H   0  0  0  0  0  0  0  0  0  0  0  0
   -5.6420    1.9936   -2.0471 H   0  0  0  0  0  0  0  0  0  0  0  0
   -4.8494   -1.5758   -0.4540 H   0  0  0  0  0  0  0  0  0  0  0  0
   -4.6963   -1.5038    1.3242 H   0  0  0  0  0  0  0  0  0  0  0  0
   -3.2025   -3.3311    0.8441 H   0  0  0  0  0  0  0  0  0  0  0  0
   -2.6846   -2.5944   -0.6832 H   0  0  0  0  0  0  0  0  0  0  0  0
   -2.0646   -1.6107    2.1359 H   0  0  0  0  0  0  0  0  0  0  0  0
   -0.8882   -2.0000    0.8767 H   0  0  0  0  0  0  0  0  0  0  0  0
   -1.8246    0.5725    1.3057 H   0  0  0  0  0  0  0  0  0  0  0  0
   -1.4663    1.1756   -1.0926 H   0  0  0  0  0  0  0  0  0  0  0  0
   -1.6233   -0.5108   -1.5730 H   0  0  0  0  0  0  0  0  0  0  0  0
    0.6209   -1.5024   -2.0758 H   0  0  0  0  0  0  0  0  0  0  0  0
    5.6504   -2.5545   -1.4708 H   0  0  0  0  0  0  0  0  0  0  0  0
    6.1953   -0.9609   -2.0007 H   0  0  0  0  0  0  0  0  0  0  0  0
    6.6973   -2.2474    0.7559 H   0  0  0  0  0  0  0  0  0  0  0  0
    7.8860   -2.0642   -0.5522 H   0  0  0  0  0  0  0  0  0  0  0  0
    9.4129   -0.6308    0.7778 H   0  0  0  0  0  0  0  0  0  0  0  0
    9.8848    1.6337    1.6467 H   0  0  0  0  0  0  0  0  0  0  0  0
    8.0614    3.3063    1.8219 H   0  0  0  0  0  0  0  0  0  0  0  0
    5.7632    2.7149    1.1376 H   0  0  0  0  0  0  0  0  0  0  0  0
    4.2884    0.2426    1.0968 H   0  0  0  0  0  0  0  0  0  0  0  0
    4.4287    1.1600   -0.4369 H   0  0  0  0  0  0  0  0  0  0  0  0
   -6.0574    0.3503    1.9055 H   0  0  0  0  0  0  0  0  0  0  0  0
  1  2  1  0
  2  3  2  0
  3  4  1  0
  4  5  2  0
  5  6  1  0
  6  7  2  0
  6  8  1  0
  8  9  1  0
  9 10  1  0
 10 11  1  0
 11 12  1  0
 12 13  1  0
 13 14  1  0
 14 15  1  0
 15 16  2  0
 16 17  1  0
 17 18  2  0
 17 19  1  0
 19 20  1  0
 20 21  1  0
 21 22  1  0
 22 23  2  0
 23 24  1  0
 24 25  2  0
 25 26  1  0
 26 27  2  0
 27 28  1  0
 16 29  1  0
 29 30  2  0
  5 31  1  0
 31 32  2  0
 32  2  1  0
 12  8  1  0
 30 14  1  0
 28 19  1  0
 27 22  1  0
  1 33  1  0
  1 34  1  0
  1 35  1  0
  3 36  1  0
  4 37  1  0
  9 38  1  0
  9 39  1  0
 10 40  1  0
 10 41  1  0
 11 42  1  0
 11 43  1  0
 12 44  1  1
 13 45  1  0
 13 46  1  0
 15 47  1  0
 20 48  1  0
 20 49  1  0
 21 50  1  0
 21 51  1  0
 23 52  1  0
 24 53  1  0
 25 54  1  0
 26 55  1  0
 28 56  1  0
 28 57  1  0
 31 58  1  0
M  END
$$$$
