
     RDKit          3D

 62 63  0  0  0  0  0  0  0  0999 V2000
    2.9381   -0.7547   -1.5974 C   0  0  0  0  0  0  0  0  0  0  0  0
    3.4003    0.2617   -0.6701 N   0  0  0  0  0  0  0  0  0  0  0  0
    4.5844   -0.1477    0.0797 C   0  0  0  0  0  0  0  0  0  0  0  0
    4.6912    0.9516    1.1148 C   0  0  0  0  0  0  0  0  0  0  0  0
    3.2458    1.1516    1.5347 C   0  0  0  0  0  0  0  0  0  0  0  0
    2.4157    0.8054    0.2859 C   0  0  2  0  0  0  0  0  0  0  0  0
    1.1999   -0.0767    0.6209 C   0  0  0  0  0  0  0  0  0  0  0  0
    0.2145    0.6154    1.5631 C   0  0  0  0  0  0  0  0  0  0  0  0
   -0.9587   -0.1529    1.8256 O   0  0  0  0  0  0  0  0  0  0  0  0
   -2.0234   -0.2229    0.8429 C   0  0  2  0  0  0  0  0  0  0  0  0
   -3.2844   -0.4690    1.7180 C   0  0  0  0  0  0  0  0  0  0  0  0
   -1.9197   -1.5144   -0.0077 C   0  0  0  0  0  0  0  0  0  0  0  0
   -2.7614   -1.7227   -1.1198 C   0  0  0  0  0  0  0  0  0  0  0  0
   -2.6945   -2.9003   -1.8686 C   0  0  0  0  0  0  0  0  0  0  0  0
   -1.8028   -3.9059   -1.5083 C   0  0  0  0  0  0  0  0  0  0  0  0
   -0.9891   -3.7410   -0.3916 C   0  0  0  0  0  0  0  0  0  0  0  0
   -1.0562   -2.5632    0.3572 C   0  0  0  0  0  0  0  0  0  0  0  0
   -2.1632    1.0919    0.0316 C   0  0  0  0  0  0  0  0  0  0  0  0
   -1.5551    1.2445   -1.2331 C   0  0  0  0  0  0  0  0  0  0  0  0
   -1.6491    2.4408   -1.9519 C   0  0  0  0  0  0  0  0  0  0  0  0
   -2.3439    3.5172   -1.4144 C   0  0  0  0  0  0  0  0  0  0  0  0
   -2.4599    4.9901   -2.2942 Cl  0  0  0  0  0  0  0  0  0  0  0  0
   -2.9367    3.4090   -0.1617 C   0  0  0  0  0  0  0  0  0  0  0  0
   -2.8404    2.2113    0.5565 C   0  0  0  0  0  0  0  0  0  0  0  0
   -2.3782   -0.9949    0.1940 O   0  0  0  0  0  0  0  0  0  0  0  0
   -1.8439    0.0039   -0.2465 C   0  0  0  0  0  0  0  0  0  0  0  0
   -2.5421    1.0232   -0.7683 O   0  0  0  0  0  0  0  0  0  0  0  0
   -0.4099    0.2933   -0.2999 C   0  0  0  0  0  0  0  0  0  0  0  0
    0.4544   -0.6118    0.1777 C   0  0  0  0  0  0  0  0  0  0  0  0
    1.9057   -0.4130    0.1682 C   0  0  0  0  0  0  0  0  0  0  0  0
    2.7139   -1.2170    0.5948 O   0  0  0  0  0  0  0  0  0  0  0  0
    2.2891    0.7576   -0.3624 O   0  0  0  0  0  0  0  0  0  0  0  0
    2.0921   -0.3853   -2.1869 H   0  0  0  0  0  0  0  0  0  0  0  0
    2.6408   -1.6813   -1.0944 H   0  0  0  0  0  0  0  0  0  0  0  0
    3.7298   -1.0026   -2.3133 H   0  0  0  0  0  0  0  0  0  0  0  0
    4.4396   -1.1201    0.5668 H   0  0  0  0  0  0  0  0  0  0  0  0
    5.4777   -0.1937   -0.5507 H   0  0  0  0  0  0  0  0  0  0  0  0
    5.0870    1.8712    0.6664 H   0  0  0  0  0  0  0  0  0  0  0  0
    5.3333    0.6760    1.9564 H   0  0  0  0  0  0  0  0  0  0  0  0
    3.0677    2.1757    1.8782 H   0  0  0  0  0  0  0  0  0  0  0  0
    3.0246    0.4696    2.3644 H   0  0  0  0  0  0  0  0  0  0  0  0
    2.0408    1.7391   -0.1531 H   0  0  0  0  0  0  0  0  0  0  0  0
    0.6816   -0.3474   -0.3011 H   0  0  0  0  0  0  0  0  0  0  0  0
    1.5273   -1.0213    1.0730 H   0  0  0  0  0  0  0  0  0  0  0  0
    0.6966    0.7422    2.5386 H   0  0  0  0  0  0  0  0  0  0  0  0
   -0.0310    1.6280    1.2307 H   0  0  0  0  0  0  0  0  0  0  0  0
   -3.3665    0.2647    2.5282 H   0  0  0  0  0  0  0  0  0  0  0  0
   -4.2105   -0.4428    1.1318 H   0  0  0  0  0  0  0  0  0  0  0  0
   -3.2333   -1.4425    2.2237 H   0  0  0  0  0  0  0  0  0  0  0  0
   -3.4853   -0.9643   -1.4131 H   0  0  0  0  0  0  0  0  0  0  0  0
   -3.3461   -3.0340   -2.7283 H   0  0  0  0  0  0  0  0  0  0  0  0
   -1.7532   -4.8239   -2.0878 H   0  0  0  0  0  0  0  0  0  0  0  0
   -0.3077   -4.5335   -0.0931 H   0  0  0  0  0  0  0  0  0  0  0  0
   -0.4319   -2.4772    1.2440 H   0  0  0  0  0  0  0  0  0  0  0  0
   -0.9905    0.4284   -1.6809 H   0  0  0  0  0  0  0  0  0  0  0  0
   -1.1724    2.5221   -2.9253 H   0  0  0  0  0  0  0  0  0  0  0  0
   -3.4689    4.2529    0.2695 H   0  0  0  0  0  0  0  0  0  0  0  0
   -3.2933    2.1808    1.5443 H   0  0  0  0  0  0  0  0  0  0  0  0
   -3.4764    0.7382   -0.6880 H   0  0  0  0  0  0  0  0  0  0  0  0
   -0.1041    1.2394   -0.7288 H   0  0  0  0  0  0  0  0  0  0  0  0
    0.1248   -1.5542    0.6035 H   0  0  0  0  0  0  0  0  0  0  0  0
    3.2668    0.7352   -0.2950 H   0  0  0  0  0  0  0  0  0  0  0  0
  1  2  1  0
  2  3  1  0
  3  4  1  0
  4  5  1  0
  5  6  1  0
  6  7  1  0
  7  8  1  0
  8  9  1  0
 10  9  1  1
 10 11  1  0
 10 12  1  0
 12 13  2  0
 13 14  1  0
 14 15  2  0
 15 16  1  0
 16 17  2  0
 10 18  1  0
 18 19  2  0
 19 20  1  0
 20 21  2  0
 21 22  1  0
 21 23  1  0
 23 24  2  0
 25 26  2  0
 26 27  1  0
 26 28  1  0
 28 29  2  0
 29 30  1  0
 30 31  2  0
 30 32  1  0
  6  2  1  0
 17 12  1  0
 24 18  1  0
  1 33  1  0
  1 34  1  0
  1 35  1  0
  3 36  1  0
  3 37  1  0
  4 38  1  0
  4 39  1  0
  5 40  1  0
  5 41  1  0
  6 42  1  6
  7 43  1  0
  7 44  1  0
  8 45  1  0
  8 46  1  0
 11 47  1  0
 11 48  1  0
 11 49  1  0
 13 50  1  0
 14 51  1  0
 15 52  1  0
 16 53  1  0
 17 54  1  0
 19 55  1  0
 20 56  1  0
 23 57  1  0
 24 58  1  0
 27 59  1  0
 28 60  1  0
 29 61  1  0
 32 62  1  0
M  END
$$$$
