
     RDKit          3D

 46 48  0  0  0  0  0  0  0  0999 V2000
   -7.4524   -0.8061   -0.2891 C   0  0  0  0  0  0  0  0  0  0  0  0
   -6.8361   -0.0187    0.7831 N   0  0  0  0  0  0  0  0  0  0  0  0
   -7.4461    1.3141    0.8220 C   0  0  0  0  0  0  0  0  0  0  0  0
   -5.3771    0.1063    0.5906 C   0  0  0  0  0  0  0  0  0  0  0  0
   -4.6148   -1.2223    0.7615 C   0  0  0  0  0  0  0  0  0  0  0  0
   -3.1734   -1.0359    0.7945 N   0  0  0  0  0  0  0  0  0  0  0  0
   -2.4503   -0.7898   -0.3596 C   0  0  0  0  0  0  0  0  0  0  0  0
   -2.9734   -0.7426   -1.4687 O   0  0  0  0  0  0  0  0  0  0  0  0
   -0.9536   -0.5885   -0.1040 C   0  0  0  0  0  0  0  0  0  0  0  0
   -0.2621   -0.2741   -1.3041 O   0  0  0  0  0  0  0  0  0  0  0  0
    1.0859   -0.0698   -1.2154 C   0  0  0  0  0  0  0  0  0  0  0  0
    1.7096    0.2379   -2.4286 C   0  0  0  0  0  0  0  0  0  0  0  0
    3.0871    0.4741   -2.4887 C   0  0  0  0  0  0  0  0  0  0  0  0
    3.8657    0.4052   -1.3349 C   0  0  0  0  0  0  0  0  0  0  0  0
    5.2481    0.6567   -1.4353 N   0  0  0  0  0  0  0  0  0  0  0  0
    5.9285    0.5538   -0.3464 C   0  0  0  0  0  0  0  0  0  0  0  0
    5.4024    0.2275    0.8858 N   0  0  0  0  0  0  0  0  0  0  0  0
    4.0628    0.0228    1.1002 C   0  0  0  0  0  0  0  0  0  0  0  0
    3.5615   -0.1945    2.1980 O   0  0  0  0  0  0  0  0  0  0  0  0
    3.2320    0.0944   -0.1228 C   0  0  0  0  0  0  0  0  0  0  0  0
    1.8517   -0.1421   -0.0542 C   0  0  0  0  0  0  0  0  0  0  0  0
    6.4089    0.2535    1.9131 C   0  0  0  0  0  0  0  0  0  0  0  0
    7.7100    0.1419    1.1355 C   0  0  0  0  0  0  0  0  0  0  0  0
    7.4007    0.7949   -0.2099 C   0  0  0  0  0  0  0  0  0  0  0  0
   -8.5385   -0.8586   -0.1503 H   0  0  0  0  0  0  0  0  0  0  0  0
   -7.2542   -0.3830   -1.2805 H   0  0  0  0  0  0  0  0  0  0  0  0
   -7.0969   -1.8410   -0.2738 H   0  0  0  0  0  0  0  0  0  0  0  0
   -7.2886    1.8695   -0.1098 H   0  0  0  0  0  0  0  0  0  0  0  0
   -8.5245    1.2389    1.0016 H   0  0  0  0  0  0  0  0  0  0  0  0
   -7.0339    1.9025    1.6493 H   0  0  0  0  0  0  0  0  0  0  0  0
   -4.9829    0.8025    1.3434 H   0  0  0  0  0  0  0  0  0  0  0  0
   -5.1485    0.5497   -0.3874 H   0  0  0  0  0  0  0  0  0  0  0  0
   -4.8469   -1.9131   -0.0559 H   0  0  0  0  0  0  0  0  0  0  0  0
   -4.8910   -1.7025    1.7066 H   0  0  0  0  0  0  0  0  0  0  0  0
   -2.7231   -0.9636    1.6976 H   0  0  0  0  0  0  0  0  0  0  0  0
   -0.8519    0.2338    0.6147 H   0  0  0  0  0  0  0  0  0  0  0  0
   -0.5687   -1.5238    0.3203 H   0  0  0  0  0  0  0  0  0  0  0  0
    1.1157    0.2953   -3.3389 H   0  0  0  0  0  0  0  0  0  0  0  0
    3.5544    0.7139   -3.4403 H   0  0  0  0  0  0  0  0  0  0  0  0
    1.4151   -0.3777    0.9104 H   0  0  0  0  0  0  0  0  0  0  0  0
    6.2633   -0.5606    2.6291 H   0  0  0  0  0  0  0  0  0  0  0  0
    6.3331    1.2104    2.4412 H   0  0  0  0  0  0  0  0  0  0  0  0
    8.5543    0.6077    1.6513 H   0  0  0  0  0  0  0  0  0  0  0  0
    7.9549   -0.9160    0.9769 H   0  0  0  0  0  0  0  0  0  0  0  0
    7.5830    1.8739   -0.1879 H   0  0  0  0  0  0  0  0  0  0  0  0
    7.9601    0.3431   -1.0325 H   0  0  0  0  0  0  0  0  0  0  0  0
  1  2  1  0
  2  3  1  0
  2  4  1  0
  4  5  1  0
  5  6  1  0
  6  7  1  0
  7  8  2  0
  7  9  1  0
  9 10  1  0
 10 11  1  0
 11 12  2  0
 12 13  1  0
 13 14  2  0
 14 15  1  0
 15 16  2  0
 16 17  1  0
 17 18  1  0
 18 19  2  0
 18 20  1  0
 20 21  2  0
 17 22  1  0
 22 23  1  0
 23 24  1  0
 21 11  1  0
 20 14  1  0
 24 16  1  0
  1 25  1  0
  1 26  1  0
  1 27  1  0
  3 28  1  0
  3 29  1  0
  3 30  1  0
  4 31  1  0
  4 32  1  0
  5 33  1  0
  5 34  1  0
  6 35  1  0
  9 36  1  0
  9 37  1  0
 12 38  1  0
 13 39  1  0
 21 40  1  0
 22 41  1  0
 22 42  1  0
 23 43  1  0
 23 44  1  0
 24 45  1  0
 24 46  1  0
M  END
$$$$
