
     RDKit          3D

 38 40  0  0  0  0  0  0  0  0999 V2000
    0.7234   -4.5780   -0.2980 C   0  0  0  0  0  0  0  0  0  0  0  0
   -0.1256   -3.4753   -0.7870 C   0  0  0  0  0  0  0  0  0  0  0  0
   -1.0756   -3.8007   -1.6999 O   0  0  0  0  0  0  0  0  0  0  0  0
   -1.8059   -2.6776   -2.0288 N   0  0  0  0  0  0  0  0  0  0  0  0
   -1.2894   -1.6698   -1.3094 C   0  0  0  0  0  0  0  0  0  0  0  0
   -1.8940   -0.3429   -1.3349 C   0  0  0  0  0  0  0  0  0  0  0  0
   -2.4411    0.1650   -0.1436 C   0  0  0  0  0  0  0  0  0  0  0  0
   -3.0238    1.4334   -0.1117 C   0  0  0  0  0  0  0  0  0  0  0  0
   -3.0707    2.2071   -1.2683 C   0  0  0  0  0  0  0  0  0  0  0  0
   -2.5322    1.7149   -2.4575 C   0  0  0  0  0  0  0  0  0  0  0  0
   -1.9441    0.4453   -2.4952 C   0  0  0  0  0  0  0  0  0  0  0  0
   -1.2444   -0.0577   -3.9957 Cl  0  0  0  0  0  0  0  0  0  0  0  0
   -0.1885   -2.1243   -0.5236 C   0  0  0  0  0  0  0  0  0  0  0  0
    0.6474   -1.4101    0.4239 C   0  0  0  0  0  0  0  0  0  0  0  0
    0.8699   -1.9165    1.5211 O   0  0  0  0  0  0  0  0  0  0  0  0
    1.1504   -0.1598    0.0152 N   0  0  0  0  0  0  0  0  0  0  0  0
    1.5667    0.0306   -1.3762 C   0  0  0  0  0  0  0  0  0  0  0  0
    1.4652    0.8810    0.9654 C   0  0  0  0  0  0  0  0  0  0  0  0
    2.1910    2.0246    0.5840 C   0  0  0  0  0  0  0  0  0  0  0  0
    2.4721    3.0527    1.4945 C   0  0  0  0  0  0  0  0  0  0  0  0
    2.0208    2.9616    2.8046 C   0  0  0  0  0  0  0  0  0  0  0  0
    2.3611    4.2229    3.9215 Cl  0  0  0  0  0  0  0  0  0  0  0  0
    1.2865    1.8546    3.2073 C   0  0  0  0  0  0  0  0  0  0  0  0
    1.0076    0.8293    2.2931 C   0  0  0  0  0  0  0  0  0  0  0  0
    0.6826   -5.4390   -0.9725 H   0  0  0  0  0  0  0  0  0  0  0  0
    1.7678   -4.2597   -0.2235 H   0  0  0  0  0  0  0  0  0  0  0  0
    0.3901   -4.9035    0.6921 H   0  0  0  0  0  0  0  0  0  0  0  0
   -2.4269   -0.4293    0.7688 H   0  0  0  0  0  0  0  0  0  0  0  0
   -3.4460    1.8142    0.8157 H   0  0  0  0  0  0  0  0  0  0  0  0
   -3.5273    3.1939   -1.2452 H   0  0  0  0  0  0  0  0  0  0  0  0
   -2.5705    2.3290   -3.3543 H   0  0  0  0  0  0  0  0  0  0  0  0
    1.0718    0.9136   -1.7907 H   0  0  0  0  0  0  0  0  0  0  0  0
    2.6547    0.1520   -1.4112 H   0  0  0  0  0  0  0  0  0  0  0  0
    1.3393   -0.8322   -2.0060 H   0  0  0  0  0  0  0  0  0  0  0  0
    2.5666    2.1555   -0.4263 H   0  0  0  0  0  0  0  0  0  0  0  0
    3.0423    3.9188    1.1685 H   0  0  0  0  0  0  0  0  0  0  0  0
    0.9208    1.7756    4.2279 H   0  0  0  0  0  0  0  0  0  0  0  0
    0.4080    0.0008    2.6597 H   0  0  0  0  0  0  0  0  0  0  0  0
  1  2  1  0
  2  3  1  0
  3  4  1  0
  4  5  2  0
  5  6  1  0
  6  7  2  0
  7  8  1  0
  8  9  2  0
  9 10  1  0
 10 11  2  0
 11 12  1  0
  5 13  1  0
 13 14  1  0
 14 15  2  0
 14 16  1  0
 16 17  1  0
 16 18  1  0
 18 19  2  0
 19 20  1  0
 20 21  2  0
 21 22  1  0
 21 23  1  0
 23 24  2  0
 13  2  2  0
 24 18  1  0
 11  6  1  0
  1 25  1  0
  1 26  1  0
  1 27  1  0
  7 28  1  0
  8 29  1  0
  9 30  1  0
 10 31  1  0
 17 32  1  0
 17 33  1  0
 17 34  1  0
 19 35  1  0
 20 36  1  0
 23 37  1  0
 24 38  1  0
M  END
$$$$
