
     RDKit          3D

 51 54  0  0  0  0  0  0  0  0999 V2000
    4.8240   -1.5498   -0.7572 C   0  0  0  0  0  0  0  0  0  0  0  0
    4.5863   -0.3100    0.0669 C   0  0  0  0  0  0  0  0  0  0  0  0
    5.4603    0.5548    0.1533 O   0  0  0  0  0  0  0  0  0  0  0  0
    3.2229   -0.1759    0.7474 C   0  0  1  0  0  0  0  0  0  0  0  0
    3.1974    0.9269    1.8379 C   0  0  0  0  0  0  0  0  0  0  0  0
    1.8074    1.5788    1.7754 C   0  0  0  0  0  0  0  0  0  0  0  0
    1.0037    0.6394    0.8817 C   0  0  1  0  0  0  0  0  0  0  0  0
   -0.2860    1.1469    0.2280 C   0  0  2  0  0  0  0  0  0  0  0  0
   -1.2131    1.8868    1.1505 C   0  0  0  0  0  0  0  0  0  0  0  0
   -2.5452    1.7847    1.1083 C   0  0  0  0  0  0  0  0  0  0  0  0
   -3.2232    0.8354    0.2513 C   0  0  0  0  0  0  0  0  0  0  0  0
   -4.5184    1.0267   -0.0520 C   0  0  0  0  0  0  0  0  0  0  0  0
   -5.2888    0.0288   -0.8291 C   0  0  0  0  0  0  0  0  0  0  0  0
   -6.4675    0.2526   -1.0966 O   0  0  0  0  0  0  0  0  0  0  0  0
   -4.6154   -1.2672   -1.2021 C   0  0  0  0  0  0  0  0  0  0  0  0
   -3.1186   -1.0657   -1.3973 C   0  0  0  0  0  0  0  0  0  0  0  0
   -2.4151   -0.3884   -0.1830 C   0  0  2  0  0  0  0  0  0  0  0  0
   -2.4199   -1.3699    1.0195 C   0  0  0  0  0  0  0  0  0  0  0  0
   -0.9427    0.0042   -0.6228 C   0  0  2  0  0  0  0  0  0  0  0  0
   -0.0269   -1.2513   -0.7575 C   0  0  0  0  0  0  0  0  0  0  0  0
    1.4605   -0.9797   -1.0149 C   0  0  0  0  0  0  0  0  0  0  0  0
    2.0379    0.1852   -0.1860 C   0  0  2  0  0  0  0  0  0  0  0  0
    2.4541    1.3116   -1.1737 C   0  0  0  0  0  0  0  0  0  0  0  0
    5.8942   -1.6506   -0.9644 H   0  0  0  0  0  0  0  0  0  0  0  0
    4.4997   -2.4336   -0.1996 H   0  0  0  0  0  0  0  0  0  0  0  0
    4.2841   -1.4771   -1.7043 H   0  0  0  0  0  0  0  0  0  0  0  0
    3.0244   -1.1337    1.2523 H   0  0  0  0  0  0  0  0  0  0  0  0
    3.3596    0.4694    2.8222 H   0  0  0  0  0  0  0  0  0  0  0  0
    3.9717    1.6908    1.7114 H   0  0  0  0  0  0  0  0  0  0  0  0
    1.3701    1.6693    2.7754 H   0  0  0  0  0  0  0  0  0  0  0  0
    1.8740    2.5870    1.3507 H   0  0  0  0  0  0  0  0  0  0  0  0
    0.7367   -0.2180    1.5207 H   0  0  0  0  0  0  0  0  0  0  0  0
    0.0039    1.9308   -0.4852 H   0  0  0  0  0  0  0  0  0  0  0  0
   -0.7786    2.6401    1.8046 H   0  0  0  0  0  0  0  0  0  0  0  0
   -3.1476    2.4478    1.7277 H   0  0  0  0  0  0  0  0  0  0  0  0
   -5.0811    1.8959    0.2716 H   0  0  0  0  0  0  0  0  0  0  0  0
   -5.0534   -1.6260   -2.1415 H   0  0  0  0  0  0  0  0  0  0  0  0
   -4.8239   -2.0074   -0.4229 H   0  0  0  0  0  0  0  0  0  0  0  0
   -2.9766   -0.4418   -2.2922 H   0  0  0  0  0  0  0  0  0  0  0  0
   -2.6625   -2.0376   -1.6223 H   0  0  0  0  0  0  0  0  0  0  0  0
   -1.7404   -1.0386    1.8132 H   0  0  0  0  0  0  0  0  0  0  0  0
   -3.4155   -1.4624    1.4697 H   0  0  0  0  0  0  0  0  0  0  0  0
   -2.1211   -2.3807    0.7214 H   0  0  0  0  0  0  0  0  0  0  0  0
   -1.0167    0.4272   -1.6380 H   0  0  0  0  0  0  0  0  0  0  0  0
   -0.0740   -1.8501    0.1583 H   0  0  0  0  0  0  0  0  0  0  0  0
   -0.4004   -1.9015   -1.5575 H   0  0  0  0  0  0  0  0  0  0  0  0
    1.5908   -0.7920   -2.0891 H   0  0  0  0  0  0  0  0  0  0  0  0
    2.0088   -1.9079   -0.8114 H   0  0  0  0  0  0  0  0  0  0  0  0
    1.6212    1.6229   -1.8139 H   0  0  0  0  0  0  0  0  0  0  0  0
    3.2456    0.9692   -1.8501 H   0  0  0  0  0  0  0  0  0  0  0  0
    2.8330    2.2037   -0.6655 H   0  0  0  0  0  0  0  0  0  0  0  0
  1  2  1  0
  2  3  2  0
  2  4  1  0
  4  5  1  0
  5  6  1  0
  6  7  1  0
  7  8  1  0
  8  9  1  0
  9 10  2  0
 10 11  1  0
 11 12  2  0
 12 13  1  0
 13 14  2  0
 13 15  1  0
 15 16  1  0
 16 17  1  0
 17 18  1  1
 17 19  1  0
 19 20  1  0
 20 21  1  0
 21 22  1  0
 22 23  1  6
 22  4  1  0
 22  7  1  0
 19  8  1  0
 17 11  1  0
  1 24  1  0
  1 25  1  0
  1 26  1  0
  4 27  1  1
  5 28  1  0
  5 29  1  0
  6 30  1  0
  6 31  1  0
  7 32  1  1
  8 33  1  6
  9 34  1  0
 10 35  1  0
 12 36  1  0
 15 37  1  0
 15 38  1  0
 16 39  1  0
 16 40  1  0
 18 41  1  0
 18 42  1  0
 18 43  1  0
 19 44  1  6
 20 45  1  0
 20 46  1  0
 21 47  1  0
 21 48  1  0
 23 49  1  0
 23 50  1  0
 23 51  1  0
M  END
$$$$
