
     RDKit          3D

 23 23  0  0  0  0  0  0  0  0999 V2000
   -2.5621    1.8478   -0.9931 C   0  0  0  0  0  0  0  0  0  0  0  0
   -2.7120    0.5599   -0.4151 O   0  0  0  0  0  0  0  0  0  0  0  0
   -1.5894   -0.0389    0.0938 C   0  0  0  0  0  0  0  0  0  0  0  0
   -0.3293    0.5623    0.1853 C   0  0  0  0  0  0  0  0  0  0  0  0
    0.7637   -0.1338    0.7330 C   0  0  0  0  0  0  0  0  0  0  0  0
    2.1221    0.5226    0.8190 C   0  0  0  0  0  0  0  0  0  0  0  0
    2.9913    0.2932   -0.3928 C   0  0  0  0  0  0  0  0  0  0  0  0
    2.7453   -0.3632   -1.3898 O   0  0  0  0  0  0  0  0  0  0  0  0
    4.1802    0.9258   -0.2812 O   0  0  0  0  0  0  0  0  0  0  0  0
    0.5845   -1.4505    1.1770 C   0  0  0  0  0  0  0  0  0  0  0  0
   -0.6676   -2.0588    1.0924 C   0  0  0  0  0  0  0  0  0  0  0  0
   -1.7441   -1.3524    0.5568 C   0  0  0  0  0  0  0  0  0  0  0  0
   -2.9744   -1.9501    0.4759 O   0  0  0  0  0  0  0  0  0  0  0  0
   -3.5347    2.1505   -1.3931 H   0  0  0  0  0  0  0  0  0  0  0  0
   -1.8516    1.8294   -1.8263 H   0  0  0  0  0  0  0  0  0  0  0  0
   -2.2693    2.5859   -0.2392 H   0  0  0  0  0  0  0  0  0  0  0  0
   -0.1718    1.5777   -0.1638 H   0  0  0  0  0  0  0  0  0  0  0  0
    1.9936    1.6033    0.9532 H   0  0  0  0  0  0  0  0  0  0  0  0
    2.6519    0.1429    1.7009 H   0  0  0  0  0  0  0  0  0  0  0  0
    4.6425    0.6996   -1.1162 H   0  0  0  0  0  0  0  0  0  0  0  0
    1.4197   -2.0124    1.5896 H   0  0  0  0  0  0  0  0  0  0  0  0
   -0.7851   -3.0788    1.4444 H   0  0  0  0  0  0  0  0  0  0  0  0
   -2.9034   -2.8621    0.7959 H   0  0  0  0  0  0  0  0  0  0  0  0
  1  2  1  0
  2  3  1  0
  3  4  2  0
  4  5  1  0
  5  6  1  0
  6  7  1  0
  7  8  2  0
  7  9  1  0
  5 10  2  0
 10 11  1  0
 11 12  2  0
 12 13  1  0
 12  3  1  0
  1 14  1  0
  1 15  1  0
  1 16  1  0
  4 17  1  0
  6 18  1  0
  6 19  1  0
  9 20  1  0
 10 21  1  0
 11 22  1  0
 13 23  1  0
M  END
$$$$
