
     RDKit          3D

 58 62  0  0  0  0  0  0  0  0999 V2000
    7.6349   -1.7941   -3.2872 O   0  0  0  0  0  0  0  0  0  0  0  0
    7.2421   -1.5992   -2.1423 C   0  0  0  0  0  0  0  0  0  0  0  0
    7.8901   -2.2749   -0.9917 C   0  0  0  0  0  0  0  0  0  0  0  0
    7.4693   -2.0708    0.2637 C   0  0  0  0  0  0  0  0  0  0  0  0
    6.3491   -1.1660    0.5217 C   0  0  0  0  0  0  0  0  0  0  0  0
    5.8848   -0.9293    1.8150 C   0  0  0  0  0  0  0  0  0  0  0  0
    4.8115   -0.0573    2.0174 C   0  0  0  0  0  0  0  0  0  0  0  0
    4.1928    0.5840    0.9385 C   0  0  0  0  0  0  0  0  0  0  0  0
    3.1570    1.4060    1.2874 O   0  0  0  0  0  0  0  0  0  0  0  0
    2.4588    2.0636    0.2296 C   0  0  0  0  0  0  0  0  0  0  0  0
    1.3165    2.8839    0.8271 C   0  0  0  0  0  0  0  0  0  0  0  0
    0.3342    2.0754    1.6856 C   0  0  0  0  0  0  0  0  0  0  0  0
   -0.2771    0.8458    0.9969 C   0  0  0  0  0  0  0  0  0  0  0  0
   -0.8678    1.1345   -0.3188 N   0  0  0  0  0  0  0  0  0  0  0  0
   -1.2044   -0.1216   -1.0391 C   0  0  0  0  0  0  0  0  0  0  0  0
   -2.4230   -0.8970   -0.4803 C   0  0  0  0  0  0  0  0  0  0  0  0
   -3.6004   -0.0079   -0.4122 N   0  0  0  0  0  0  0  0  0  0  0  0
   -4.7726   -0.6704   -0.0005 C   0  0  0  0  0  0  0  0  0  0  0  0
   -4.9029   -1.2253    1.2888 C   0  0  0  0  0  0  0  0  0  0  0  0
   -6.0634   -1.8771    1.6893 C   0  0  0  0  0  0  0  0  0  0  0  0
   -7.1408   -1.9998    0.8155 C   0  0  0  0  0  0  0  0  0  0  0  0
   -7.0300   -1.4528   -0.4756 C   0  0  0  0  0  0  0  0  0  0  0  0
   -8.2310   -1.4875   -1.7138 S   0  0  0  0  0  0  0  0  0  0  0  0
   -7.2377   -0.6398   -2.8077 C   0  0  0  0  0  0  0  0  0  0  0  0
   -6.0178   -0.3311   -2.2561 C   0  0  0  0  0  0  0  0  0  0  0  0
   -5.8727   -0.7937   -0.8992 C   0  0  0  0  0  0  0  0  0  0  0  0
   -3.3454    1.2392    0.3372 C   0  0  0  0  0  0  0  0  0  0  0  0
   -2.1001    1.9596   -0.2367 C   0  0  0  0  0  0  0  0  0  0  0  0
    4.6564    0.3514   -0.3570 C   0  0  0  0  0  0  0  0  0  0  0  0
    5.7293   -0.5212   -0.5582 C   0  0  0  0  0  0  0  0  0  0  0  0
    6.1985   -0.7606   -1.8580 N   0  0  0  0  0  0  0  0  0  0  0  0
    8.7149   -2.9353   -1.2274 H   0  0  0  0  0  0  0  0  0  0  0  0
    7.9475   -2.5673    1.1003 H   0  0  0  0  0  0  0  0  0  0  0  0
    6.3459   -1.4131    2.6718 H   0  0  0  0  0  0  0  0  0  0  0  0
    4.4522    0.1261    3.0277 H   0  0  0  0  0  0  0  0  0  0  0  0
    2.0625    1.3324   -0.4837 H   0  0  0  0  0  0  0  0  0  0  0  0
    3.1394    2.7449   -0.2953 H   0  0  0  0  0  0  0  0  0  0  0  0
    0.7788    3.3938    0.0196 H   0  0  0  0  0  0  0  0  0  0  0  0
    1.7429    3.6673    1.4664 H   0  0  0  0  0  0  0  0  0  0  0  0
    0.8480    1.7366    2.5944 H   0  0  0  0  0  0  0  0  0  0  0  0
   -0.4620    2.7458    2.0306 H   0  0  0  0  0  0  0  0  0  0  0  0
   -1.0028    0.3871    1.6784 H   0  0  0  0  0  0  0  0  0  0  0  0
    0.5248    0.1065    0.8747 H   0  0  0  0  0  0  0  0  0  0  0  0
   -1.4102    0.1419   -2.0853 H   0  0  0  0  0  0  0  0  0  0  0  0
   -0.3299   -0.7830   -1.0702 H   0  0  0  0  0  0  0  0  0  0  0  0
   -2.1762   -1.3063    0.5069 H   0  0  0  0  0  0  0  0  0  0  0  0
   -2.6332   -1.7412   -1.1488 H   0  0  0  0  0  0  0  0  0  0  0  0
   -4.0817   -1.1475    1.9967 H   0  0  0  0  0  0  0  0  0  0  0  0
   -6.1323   -2.2943    2.6909 H   0  0  0  0  0  0  0  0  0  0  0  0
   -8.0488   -2.5085    1.1259 H   0  0  0  0  0  0  0  0  0  0  0  0
   -7.5918   -0.4071   -3.8023 H   0  0  0  0  0  0  0  0  0  0  0  0
   -5.2407    0.2060   -2.7859 H   0  0  0  0  0  0  0  0  0  0  0  0
   -4.2080    1.9107    0.2430 H   0  0  0  0  0  0  0  0  0  0  0  0
   -3.1951    1.0384    1.4049 H   0  0  0  0  0  0  0  0  0  0  0  0
   -2.3371    2.2936   -1.2561 H   0  0  0  0  0  0  0  0  0  0  0  0
   -1.9161    2.8794    0.3286 H   0  0  0  0  0  0  0  0  0  0  0  0
    4.2026    0.8348   -1.2142 H   0  0  0  0  0  0  0  0  0  0  0  0
    5.7682   -0.3073   -2.6520 H   0  0  0  0  0  0  0  0  0  0  0  0
  1  2  2  0
  2  3  1  0
  3  4  2  0
  4  5  1  0
  5  6  2  0
  6  7  1  0
  7  8  2  0
  8  9  1  0
  9 10  1  0
 10 11  1  0
 11 12  1  0
 12 13  1  0
 13 14  1  0
 14 15  1  0
 15 16  1  0
 16 17  1  0
 17 18  1  0
 18 19  2  0
 19 20  1  0
 20 21  2  0
 21 22  1  0
 22 23  1  0
 23 24  1  0
 24 25  2  0
 25 26  1  0
 17 27  1  0
 27 28  1  0
  8 29  1  0
 29 30  2  0
 30 31  1  0
 31  2  1  0
 30  5  1  0
 28 14  1  0
 26 18  1  0
 26 22  2  0
  3 32  1  0
  4 33  1  0
  6 34  1  0
  7 35  1  0
 10 36  1  0
 10 37  1  0
 11 38  1  0
 11 39  1  0
 12 40  1  0
 12 41  1  0
 13 42  1  0
 13 43  1  0
 15 44  1  0
 15 45  1  0
 16 46  1  0
 16 47  1  0
 19 48  1  0
 20 49  1  0
 21 50  1  0
 24 51  1  0
 25 52  1  0
 27 53  1  0
 27 54  1  0
 28 55  1  0
 28 56  1  0
 29 57  1  0
 31 58  1  0
M  END
$$$$
