
     RDKit          3D

 55 58  0  0  0  0  0  0  0  0999 V2000
   -5.6218   -2.1265    0.5297 C   0  0  0  0  0  0  0  0  0  0  0  0
   -4.7409   -1.0174    0.4017 O   0  0  0  0  0  0  0  0  0  0  0  0
   -5.2951    0.2171    0.1609 C   0  0  0  0  0  0  0  0  0  0  0  0
   -6.6743    0.4323    0.0137 C   0  0  0  0  0  0  0  0  0  0  0  0
   -7.1742    1.7070   -0.2689 C   0  0  0  0  0  0  0  0  0  0  0  0
   -6.3027    2.7813   -0.4064 C   0  0  0  0  0  0  0  0  0  0  0  0
   -4.9308    2.5803   -0.2570 C   0  0  0  0  0  0  0  0  0  0  0  0
   -4.3999    1.3083    0.0356 C   0  0  0  0  0  0  0  0  0  0  0  0
   -2.9942    1.2253    0.1437 N   0  0  0  0  0  0  0  0  0  0  0  0
   -2.4466    0.4690    1.2889 C   0  0  0  0  0  0  0  0  0  0  0  0
   -1.6484   -0.7840    0.8757 C   0  0  0  0  0  0  0  0  0  0  0  0
   -0.6300   -0.5218   -0.1543 N   0  0  0  0  0  0  0  0  0  0  0  0
    0.4758   -1.3182   -0.4054 C   0  0  0  0  0  0  0  0  0  0  0  0
    1.3327   -0.9883   -1.2312 O   0  0  0  0  0  0  0  0  0  0  0  0
    0.6300   -2.6120    0.3836 C   0  0  0  0  0  0  0  0  0  0  0  0
    1.7663   -2.3393    1.7755 S   0  0  0  0  0  0  0  0  0  0  0  0
    3.2524   -2.2826    0.8572 C   0  0  0  0  0  0  0  0  0  0  0  0
    3.6503   -3.3491    0.2508 N   0  0  0  0  0  0  0  0  0  0  0  0
    4.8133   -3.2730   -0.4874 C   0  0  0  0  0  0  0  0  0  0  0  0
    5.3157   -4.2430   -1.0469 O   0  0  0  0  0  0  0  0  0  0  0  0
    5.4841   -1.9495   -0.6365 C   0  0  0  0  0  0  0  0  0  0  0  0
    4.9881   -0.9109    0.0453 C   0  0  0  0  0  0  0  0  0  0  0  0
    5.5818    0.4272   -0.0440 C   0  0  0  0  0  0  0  0  0  0  0  0
    5.5034    1.1651   -1.2324 C   0  0  0  0  0  0  0  0  0  0  0  0
    6.0670    2.4417   -1.3071 C   0  0  0  0  0  0  0  0  0  0  0  0
    6.7081    2.9894   -0.1952 C   0  0  0  0  0  0  0  0  0  0  0  0
    6.7893    2.2627    0.9910 C   0  0  0  0  0  0  0  0  0  0  0  0
    6.2279    0.9850    1.0679 C   0  0  0  0  0  0  0  0  0  0  0  0
    3.8988   -1.0869    0.8527 N   0  0  0  0  0  0  0  0  0  0  0  0
   -0.8659    0.6533   -1.0026 C   0  0  0  0  0  0  0  0  0  0  0  0
   -2.3652    0.9527   -1.1673 C   0  0  0  0  0  0  0  0  0  0  0  0
   -5.0132   -3.0135    0.7410 H   0  0  0  0  0  0  0  0  0  0  0  0
   -6.3094   -1.9897    1.3705 H   0  0  0  0  0  0  0  0  0  0  0  0
   -6.1644   -2.3099   -0.4054 H   0  0  0  0  0  0  0  0  0  0  0  0
   -7.3925   -0.3761    0.1096 H   0  0  0  0  0  0  0  0  0  0  0  0
   -8.2454    1.8571   -0.3813 H   0  0  0  0  0  0  0  0  0  0  0  0
   -6.6859    3.7746   -0.6259 H   0  0  0  0  0  0  0  0  0  0  0  0
   -4.2552    3.4277   -0.3517 H   0  0  0  0  0  0  0  0  0  0  0  0
   -3.2110    0.2085    2.0312 H   0  0  0  0  0  0  0  0  0  0  0  0
   -1.7565    1.1476    1.8077 H   0  0  0  0  0  0  0  0  0  0  0  0
   -1.1713   -1.2080    1.7639 H   0  0  0  0  0  0  0  0  0  0  0  0
   -2.3107   -1.5493    0.4607 H   0  0  0  0  0  0  0  0  0  0  0  0
    1.0067   -3.3894   -0.2901 H   0  0  0  0  0  0  0  0  0  0  0  0
   -0.3287   -2.9771    0.7570 H   0  0  0  0  0  0  0  0  0  0  0  0
    6.3458   -1.9027   -1.2879 H   0  0  0  0  0  0  0  0  0  0  0  0
    4.9986    0.7539   -2.1056 H   0  0  0  0  0  0  0  0  0  0  0  0
    6.0103    3.0072   -2.2342 H   0  0  0  0  0  0  0  0  0  0  0  0
    7.1514    3.9810   -0.2559 H   0  0  0  0  0  0  0  0  0  0  0  0
    7.2968    2.6862    1.8544 H   0  0  0  0  0  0  0  0  0  0  0  0
    6.3167    0.4229    1.9940 H   0  0  0  0  0  0  0  0  0  0  0  0
    3.4238   -0.2649    1.2017 H   0  0  0  0  0  0  0  0  0  0  0  0
   -0.4084    0.5062   -1.9864 H   0  0  0  0  0  0  0  0  0  0  0  0
   -0.3588    1.4980   -0.5209 H   0  0  0  0  0  0  0  0  0  0  0  0
   -2.8470    0.0919   -1.6522 H   0  0  0  0  0  0  0  0  0  0  0  0
   -2.4866    1.8230   -1.8251 H   0  0  0  0  0  0  0  0  0  0  0  0
  1  2  1  0
  2  3  1  0
  3  4  2  0
  4  5  1  0
  5  6  2  0
  6  7  1  0
  7  8  2  0
  8  9  1  0
  9 10  1  0
 10 11  1  0
 11 12  1  0
 12 13  1  0
 13 14  2  0
 13 15  1  0
 15 16  1  0
 16 17  1  0
 17 18  2  0
 18 19  1  0
 19 20  2  0
 19 21  1  0
 21 22  2  0
 22 23  1  0
 23 24  2  0
 24 25  1  0
 25 26  2  0
 26 27  1  0
 27 28  2  0
 22 29  1  0
 12 30  1  0
 30 31  1  0
  8  3  1  0
 31  9  1  0
 29 17  1  0
 28 23  1  0
  1 32  1  0
  1 33  1  0
  1 34  1  0
  4 35  1  0
  5 36  1  0
  6 37  1  0
  7 38  1  0
 10 39  1  0
 10 40  1  0
 11 41  1  0
 11 42  1  0
 15 43  1  0
 15 44  1  0
 21 45  1  0
 24 46  1  0
 25 47  1  0
 26 48  1  0
 27 49  1  0
 28 50  1  0
 29 51  1  0
 30 52  1  0
 30 53  1  0
 31 54  1  0
 31 55  1  0
M  END
$$$$
