
     RDKit          3D

 53 54  0  0  0  0  0  0  0  0999 V2000
   -2.6263   -3.1314    2.9467 C   0  0  0  0  0  0  0  0  0  0  0  0
   -1.7524   -3.3993    1.7372 C   0  0  0  0  0  0  0  0  0  0  0  0
   -1.3491   -2.1374    1.1923 O   0  0  0  0  0  0  0  0  0  0  0  0
   -0.5398   -2.2385    0.1077 C   0  0  0  0  0  0  0  0  0  0  0  0
   -0.1724   -3.2758   -0.4186 O   0  0  0  0  0  0  0  0  0  0  0  0
   -0.1014   -0.8970   -0.3282 C   0  0  0  0  0  0  0  0  0  0  0  0
   -0.9573    0.1347   -0.5084 C   0  0  0  0  0  0  0  0  0  0  0  0
   -2.4598    0.0436   -0.3099 C   0  0  0  0  0  0  0  0  0  0  0  0
   -3.0887    1.1044   -1.0482 O   0  0  0  0  0  0  0  0  0  0  0  0
   -4.5151    0.9911   -1.0025 C   0  0  0  0  0  0  0  0  0  0  0  0
   -5.1387    2.1795   -1.7449 C   0  0  0  0  0  0  0  0  0  0  0  0
   -4.7722    3.4638   -1.1369 N   0  0  0  0  0  0  0  0  0  0  0  0
   -0.4709    1.3560   -0.9620 N   0  0  0  0  0  0  0  0  0  0  0  0
    0.8213    1.5595   -1.4187 C   0  0  0  0  0  0  0  0  0  0  0  0
    1.0724    2.8731   -2.1125 C   0  0  0  0  0  0  0  0  0  0  0  0
    1.7412    0.5817   -1.2586 C   0  0  0  0  0  0  0  0  0  0  0  0
    3.1319    0.7047   -1.7346 C   0  0  0  0  0  0  0  0  0  0  0  0
    3.6534   -0.0784   -2.5115 O   0  0  0  0  0  0  0  0  0  0  0  0
    3.7309    1.7629   -1.1322 O   0  0  0  0  0  0  0  0  0  0  0  0
    5.1074    1.9144   -1.4767 C   0  0  0  0  0  0  0  0  0  0  0  0
    1.3928   -0.7580   -0.6152 C   0  0  0  0  0  0  0  0  0  0  0  0
    2.2129   -0.9779    0.6641 C   0  0  0  0  0  0  0  0  0  0  0  0
    2.0357   -0.0977    1.7549 C   0  0  0  0  0  0  0  0  0  0  0  0
    2.7559   -0.2574    2.9397 C   0  0  0  0  0  0  0  0  0  0  0  0
    3.6695   -1.2980    3.0617 C   0  0  0  0  0  0  0  0  0  0  0  0
    3.8634   -2.1766    1.9974 C   0  0  0  0  0  0  0  0  0  0  0  0
    3.1443   -2.0214    0.8058 C   0  0  0  0  0  0  0  0  0  0  0  0
    3.4676   -3.1612   -0.4502 Cl  0  0  0  0  0  0  0  0  0  0  0  0
   -3.5025   -2.5380    2.6651 H   0  0  0  0  0  0  0  0  0  0  0  0
   -2.9638   -4.0680    3.3993 H   0  0  0  0  0  0  0  0  0  0  0  0
   -2.0778   -2.5527    3.6975 H   0  0  0  0  0  0  0  0  0  0  0  0
   -2.3202   -3.9610    0.9869 H   0  0  0  0  0  0  0  0  0  0  0  0
   -0.8685   -3.9727    2.0388 H   0  0  0  0  0  0  0  0  0  0  0  0
   -2.6996    0.1716    0.7517 H   0  0  0  0  0  0  0  0  0  0  0  0
   -2.8434   -0.9170   -0.6717 H   0  0  0  0  0  0  0  0  0  0  0  0
   -4.8522    0.9756    0.0407 H   0  0  0  0  0  0  0  0  0  0  0  0
   -4.8198    0.0576   -1.4888 H   0  0  0  0  0  0  0  0  0  0  0  0
   -4.7902    2.1878   -2.7831 H   0  0  0  0  0  0  0  0  0  0  0  0
   -6.2288    2.0839   -1.7548 H   0  0  0  0  0  0  0  0  0  0  0  0
   -5.0795    3.4763   -0.1653 H   0  0  0  0  0  0  0  0  0  0  0  0
   -3.7515    3.4981   -1.0906 H   0  0  0  0  0  0  0  0  0  0  0  0
   -1.2008    1.9967   -1.2832 H   0  0  0  0  0  0  0  0  0  0  0  0
    2.0059    2.8904   -2.6811 H   0  0  0  0  0  0  0  0  0  0  0  0
    1.1000    3.6853   -1.3790 H   0  0  0  0  0  0  0  0  0  0  0  0
    0.2684    3.0837   -2.8267 H   0  0  0  0  0  0  0  0  0  0  0  0
    5.4980    2.7815   -0.9370 H   0  0  0  0  0  0  0  0  0  0  0  0
    5.2163    2.0970   -2.5503 H   0  0  0  0  0  0  0  0  0  0  0  0
    5.6789    1.0316   -1.1725 H   0  0  0  0  0  0  0  0  0  0  0  0
    1.6274   -1.5221   -1.3656 H   0  0  0  0  0  0  0  0  0  0  0  0
    1.3292    0.7291    1.6842 H   0  0  0  0  0  0  0  0  0  0  0  0
    2.6030    0.4337    3.7651 H   0  0  0  0  0  0  0  0  0  0  0  0
    4.2332   -1.4254    3.9823 H   0  0  0  0  0  0  0  0  0  0  0  0
    4.5821   -2.9865    2.1003 H   0  0  0  0  0  0  0  0  0  0  0  0
  1  2  1  0
  2  3  1  0
  3  4  1  0
  4  5  2  0
  4  6  1  0
  6  7  2  0
  7  8  1  0
  8  9  1  0
  9 10  1  0
 10 11  1  0
 11 12  1  0
  7 13  1  0
 13 14  1  0
 14 15  1  0
 14 16  2  0
 16 17  1  0
 17 18  2  0
 17 19  1  0
 19 20  1  0
 16 21  1  0
 21 22  1  0
 22 23  2  0
 23 24  1  0
 24 25  2  0
 25 26  1  0
 26 27  2  0
 27 28  1  0
 21  6  1  0
 27 22  1  0
  1 29  1  0
  1 30  1  0
  1 31  1  0
  2 32  1  0
  2 33  1  0
  8 34  1  0
  8 35  1  0
 10 36  1  0
 10 37  1  0
 11 38  1  0
 11 39  1  0
 12 40  1  0
 12 41  1  0
 13 42  1  0
 15 43  1  0
 15 44  1  0
 15 45  1  0
 20 46  1  0
 20 47  1  0
 20 48  1  0
 21 49  1  0
 23 50  1  0
 24 51  1  0
 25 52  1  0
 26 53  1  0
M  END
$$$$
