
     RDKit          3D

 44 47  0  0  0  0  0  0  0  0999 V2000
    5.6460   -1.8192   -1.2852 C   0  0  0  0  0  0  0  0  0  0  0  0
    5.3728   -1.0626    0.0076 C   0  0  0  0  0  0  0  0  0  0  0  0
    4.3962    0.0162   -0.1959 N   0  0  0  0  0  0  0  0  0  0  0  0
    4.9461    1.3088   -0.6280 C   0  0  0  0  0  0  0  0  0  0  0  0
    5.2654    2.1965    0.5722 C   0  0  0  0  0  0  0  0  0  0  0  0
    3.0254   -0.1907   -0.0847 C   0  0  0  0  0  0  0  0  0  0  0  0
    2.4683   -1.4822    0.0299 C   0  0  0  0  0  0  0  0  0  0  0  0
    1.0843   -1.7093    0.1237 C   0  0  0  0  0  0  0  0  0  0  0  0
    0.2036   -0.6367    0.1196 C   0  0  0  0  0  0  0  0  0  0  0  0
   -1.2356   -0.8084    0.1946 C   0  0  0  0  0  0  0  0  0  0  0  0
   -2.0547    0.2556    0.2301 C   0  0  0  0  0  0  0  0  0  0  0  0
   -3.4602    0.0181    0.2984 C   0  0  0  0  0  0  0  0  0  0  0  0
   -4.1303   -1.1241    0.3117 N   0  0  0  0  0  0  0  0  0  0  0  0
   -5.4579   -0.7892    0.4013 C   0  0  0  0  0  0  0  0  0  0  0  0
   -6.5901   -1.6141    0.4635 C   0  0  0  0  0  0  0  0  0  0  0  0
   -7.8529   -1.0120    0.5512 C   0  0  0  0  0  0  0  0  0  0  0  0
   -7.9831    0.3779    0.5740 C   0  0  0  0  0  0  0  0  0  0  0  0
   -6.8623    1.2191    0.5176 C   0  0  0  0  0  0  0  0  0  0  0  0
   -5.6175    0.5910    0.4348 C   0  0  0  0  0  0  0  0  0  0  0  0
   -4.3386    1.0796    0.3737 N   0  0  0  0  0  0  0  0  0  0  0  0
   -1.4921    1.6356    0.2147 C   0  0  0  0  0  0  0  0  0  0  0  0
   -2.2092    2.6299    0.3147 O   0  0  0  0  0  0  0  0  0  0  0  0
   -0.1133    1.7661    0.0791 O   0  0  0  0  0  0  0  0  0  0  0  0
    0.7291    0.6386    0.0358 C   0  0  0  0  0  0  0  0  0  0  0  0
    2.1050    0.8698   -0.0717 C   0  0  0  0  0  0  0  0  0  0  0  0
    6.3664   -2.6235   -1.1045 H   0  0  0  0  0  0  0  0  0  0  0  0
    4.7366   -2.2674   -1.6999 H   0  0  0  0  0  0  0  0  0  0  0  0
    6.0659   -1.1570   -2.0508 H   0  0  0  0  0  0  0  0  0  0  0  0
    5.0552   -1.7487    0.8010 H   0  0  0  0  0  0  0  0  0  0  0  0
    6.3184   -0.6354    0.3654 H   0  0  0  0  0  0  0  0  0  0  0  0
    4.2765    1.8193   -1.3286 H   0  0  0  0  0  0  0  0  0  0  0  0
    5.8721    1.1479   -1.1915 H   0  0  0  0  0  0  0  0  0  0  0  0
    4.3871    2.3610    1.2008 H   0  0  0  0  0  0  0  0  0  0  0  0
    5.6312    3.1732    0.2371 H   0  0  0  0  0  0  0  0  0  0  0  0
    6.0404    1.7460    1.2020 H   0  0  0  0  0  0  0  0  0  0  0  0
    3.1016   -2.3674    0.0291 H   0  0  0  0  0  0  0  0  0  0  0  0
    0.7188   -2.7298    0.2031 H   0  0  0  0  0  0  0  0  0  0  0  0
   -1.6257   -1.8209    0.2049 H   0  0  0  0  0  0  0  0  0  0  0  0
   -6.4800   -2.6917    0.4491 H   0  0  0  0  0  0  0  0  0  0  0  0
   -8.7398   -1.6394    0.6034 H   0  0  0  0  0  0  0  0  0  0  0  0
   -8.9756    0.8210    0.6410 H   0  0  0  0  0  0  0  0  0  0  0  0
   -6.9627    2.3003    0.5380 H   0  0  0  0  0  0  0  0  0  0  0  0
   -4.0667    2.0565    0.3976 H   0  0  0  0  0  0  0  0  0  0  0  0
    2.4358    1.9015   -0.1270 H   0  0  0  0  0  0  0  0  0  0  0  0
  1  2  1  0
  2  3  1  0
  3  4  1  0
  4  5  1  0
  3  6  1  0
  6  7  2  0
  7  8  1  0
  8  9  2  0
  9 10  1  0
 10 11  2  0
 11 12  1  0
 12 13  2  0
 13 14  1  0
 14 15  2  0
 15 16  1  0
 16 17  2  0
 17 18  1  0
 18 19  2  0
 19 20  1  0
 11 21  1  0
 21 22  2  0
 21 23  1  0
 23 24  1  0
 24 25  2  0
 25  6  1  0
 24  9  1  0
 20 12  1  0
 19 14  1  0
  1 26  1  0
  1 27  1  0
  1 28  1  0
  2 29  1  0
  2 30  1  0
  4 31  1  0
  4 32  1  0
  5 33  1  0
  5 34  1  0
  5 35  1  0
  7 36  1  0
  8 37  1  0
 10 38  1  0
 15 39  1  0
 16 40  1  0
 17 41  1  0
 18 42  1  0
 20 43  1  0
 25 44  1  0
M  END
$$$$
