
     RDKit          3D

 52 55  0  0  0  0  0  0  0  0999 V2000
    8.8706   -0.6511   -0.0987 C   0  0  0  0  0  0  0  0  0  0  0  0
    7.6735   -1.1068   -0.9312 C   0  0  0  0  0  0  0  0  0  0  0  0
    7.8524   -2.5473   -1.4060 C   0  0  0  0  0  0  0  0  0  0  0  0
    6.3977   -0.9502   -0.1791 C   0  0  0  0  0  0  0  0  0  0  0  0
    5.3109   -0.2960   -0.5168 N   0  0  0  0  0  0  0  0  0  0  0  0
    4.4802   -0.5136    0.5636 C   0  0  0  0  0  0  0  0  0  0  0  0
    3.1324    0.0418    0.6336 C   0  0  0  0  0  0  0  0  0  0  0  0
    2.3280   -0.1418    1.7677 C   0  0  0  0  0  0  0  0  0  0  0  0
    1.0366    0.4005    1.8320 C   0  0  0  0  0  0  0  0  0  0  0  0
    0.5311    1.1350    0.7608 C   0  0  0  0  0  0  0  0  0  0  0  0
   -0.7009    1.7191    0.6853 O   0  0  0  0  0  0  0  0  0  0  0  0
   -1.5693    1.6421    1.8200 C   0  0  0  0  0  0  0  0  0  0  0  0
   -2.6575    2.6905    1.6363 C   0  0  0  0  0  0  0  0  0  0  0  0
   -3.6121    2.0157    0.6618 C   0  0  0  0  0  0  0  0  0  0  0  0
   -3.6408    0.6041    1.1124 N   0  0  0  0  0  0  0  0  0  0  0  0
   -4.0550   -0.5536   -0.0581 S   0  0  0  0  0  6  0  0  0  0  0  0
   -4.1890   -1.8296    0.6183 O   0  0  0  0  0  0  0  0  0  0  0  0
   -3.1790   -0.3997   -1.2005 O   0  0  0  0  0  0  0  0  0  0  0  0
   -5.6514   -0.2223   -0.6844 C   0  0  0  0  0  0  0  0  0  0  0  0
   -6.5547   -1.1656   -1.1380 C   0  0  0  0  0  0  0  0  0  0  0  0
   -7.6426   -0.4476   -1.5404 N   0  0  0  0  0  0  0  0  0  0  0  0
   -8.8588   -0.9884   -2.0925 C   0  0  0  0  0  0  0  0  0  0  0  0
   -7.3790    0.8759   -1.3297 C   0  0  0  0  0  0  0  0  0  0  0  0
   -6.1841    1.0545   -0.8109 N   0  0  0  0  0  0  0  0  0  0  0  0
   -2.3658    0.3297    1.8407 C   0  0  0  0  0  0  0  0  0  0  0  0
    1.3243    1.3140   -0.3745 C   0  0  0  0  0  0  0  0  0  0  0  0
    2.6135    0.7759   -0.4397 C   0  0  0  0  0  0  0  0  0  0  0  0
    5.0330   -1.2698    1.5280 N   0  0  0  0  0  0  0  0  0  0  0  0
    6.3016   -1.5638    1.0349 O   0  0  0  0  0  0  0  0  0  0  0  0
    8.7430    0.3837    0.2380 H   0  0  0  0  0  0  0  0  0  0  0  0
    9.0055   -1.2753    0.7917 H   0  0  0  0  0  0  0  0  0  0  0  0
    9.7933   -0.7022   -0.6871 H   0  0  0  0  0  0  0  0  0  0  0  0
    7.6200   -0.4640   -1.8190 H   0  0  0  0  0  0  0  0  0  0  0  0
    8.7634   -2.6481   -2.0057 H   0  0  0  0  0  0  0  0  0  0  0  0
    7.0056   -2.8632   -2.0255 H   0  0  0  0  0  0  0  0  0  0  0  0
    7.9239   -3.2446   -0.5637 H   0  0  0  0  0  0  0  0  0  0  0  0
    2.6993   -0.7119    2.6179 H   0  0  0  0  0  0  0  0  0  0  0  0
    0.4608    0.2202    2.7331 H   0  0  0  0  0  0  0  0  0  0  0  0
   -1.0214    1.8359    2.7487 H   0  0  0  0  0  0  0  0  0  0  0  0
   -2.2843    3.6387    1.2378 H   0  0  0  0  0  0  0  0  0  0  0  0
   -3.1664    2.8792    2.5894 H   0  0  0  0  0  0  0  0  0  0  0  0
   -4.6049    2.4675    0.7272 H   0  0  0  0  0  0  0  0  0  0  0  0
   -3.2373    2.1042   -0.3633 H   0  0  0  0  0  0  0  0  0  0  0  0
   -6.4960   -2.2442   -1.1968 H   0  0  0  0  0  0  0  0  0  0  0  0
   -9.6884   -0.3139   -1.8653 H   0  0  0  0  0  0  0  0  0  0  0  0
   -9.0498   -1.9671   -1.6447 H   0  0  0  0  0  0  0  0  0  0  0  0
   -8.7308   -1.0828   -3.1734 H   0  0  0  0  0  0  0  0  0  0  0  0
   -8.0838    1.6617   -1.5703 H   0  0  0  0  0  0  0  0  0  0  0  0
   -2.6319    0.0618    2.8691 H   0  0  0  0  0  0  0  0  0  0  0  0
   -1.8070   -0.4974    1.3935 H   0  0  0  0  0  0  0  0  0  0  0  0
    0.9351    1.8763   -1.2205 H   0  0  0  0  0  0  0  0  0  0  0  0
    3.2064    0.9338   -1.3387 H   0  0  0  0  0  0  0  0  0  0  0  0
  1  2  1  0
  2  3  1  0
  2  4  1  0
  4  5  2  0
  5  6  1  0
  6  7  1  0
  7  8  2  0
  8  9  1  0
  9 10  2  0
 10 11  1  0
 11 12  1  0
 12 13  1  0
 13 14  1  0
 14 15  1  0
 15 16  1  0
 16 17  2  0
 16 18  2  0
 16 19  1  0
 19 20  2  0
 20 21  1  0
 21 22  1  0
 21 23  1  0
 23 24  2  0
 15 25  1  0
 10 26  1  0
 26 27  2  0
  6 28  2  0
 28 29  1  0
 29  4  1  0
 27  7  1  0
 25 12  1  0
 24 19  1  0
  1 30  1  0
  1 31  1  0
  1 32  1  0
  2 33  1  0
  3 34  1  0
  3 35  1  0
  3 36  1  0
  8 37  1  0
  9 38  1  0
 12 39  1  0
 13 40  1  0
 13 41  1  0
 14 42  1  0
 14 43  1  0
 20 44  1  0
 22 45  1  0
 22 46  1  0
 22 47  1  0
 23 48  1  0
 25 49  1  0
 25 50  1  0
 26 51  1  0
 27 52  1  0
M  END
$$$$
