
     RDKit          3D

 45 48  0  0  0  0  0  0  0  0999 V2000
    1.7089    0.5417    3.6263 O   0  0  0  0  0  0  0  0  0  0  0  0
    1.0852    0.5007    2.5684 C   0  0  0  0  0  0  0  0  0  0  0  0
    1.2331   -0.5102    1.6533 N   0  0  0  0  0  0  0  0  0  0  0  0
    2.3074   -1.4848    1.7532 C   0  0  0  0  0  0  0  0  0  0  0  0
    3.6212   -0.9639    1.1560 C   0  0  0  0  0  0  0  0  0  0  0  0
    3.5376   -0.6344   -0.3204 C   0  0  0  0  0  0  0  0  0  0  0  0
    4.7020   -0.5605   -1.0806 C   0  0  0  0  0  0  0  0  0  0  0  0
    4.6095   -0.1863   -2.4193 C   0  0  0  0  0  0  0  0  0  0  0  0
    3.3661    0.1182   -2.9608 C   0  0  0  0  0  0  0  0  0  0  0  0
    2.2577    0.0322   -2.1387 C   0  0  0  0  0  0  0  0  0  0  0  0
    2.3182   -0.3389   -0.8394 N   0  0  0  0  0  0  0  0  0  0  0  0
    0.1105    1.6046    2.1906 C   0  0  0  0  0  0  0  0  0  0  0  0
    0.6371    2.4744    1.0633 C   0  0  0  0  0  0  0  0  0  0  0  0
   -0.1273    2.0262   -0.1603 C   0  0  0  0  0  0  0  0  0  0  0  0
    0.1476    2.4414   -1.2771 O   0  0  0  0  0  0  0  0  0  0  0  0
   -1.1490    1.1621    0.2546 N   0  0  0  0  0  0  0  0  0  0  0  0
   -2.0289    0.5461   -0.6372 C   0  0  0  0  0  0  0  0  0  0  0  0
   -1.8253    0.5473   -1.9596 N   0  0  0  0  0  0  0  0  0  0  0  0
   -2.8469   -0.1417   -2.4707 N   0  0  0  0  0  0  0  0  0  0  0  0
   -3.7253   -0.6189   -1.5429 C   0  0  0  0  0  0  0  0  0  0  0  0
   -4.8934   -1.3760   -1.6858 C   0  0  0  0  0  0  0  0  0  0  0  0
   -5.5900   -1.7024   -0.5209 C   0  0  0  0  0  0  0  0  0  0  0  0
   -5.1342   -1.2819    0.7255 C   0  0  0  0  0  0  0  0  0  0  0  0
   -3.9612   -0.5226    0.8427 C   0  0  0  0  0  0  0  0  0  0  0  0
   -3.2279   -0.1849   -0.3165 C   0  0  0  0  0  0  0  0  0  0  0  0
   -1.2176    1.0780    1.6905 C   0  0  0  0  0  0  0  0  0  0  0  0
    0.9745   -0.3229    0.6832 H   0  0  0  0  0  0  0  0  0  0  0  0
    1.9726   -2.3825    1.2218 H   0  0  0  0  0  0  0  0  0  0  0  0
    2.4569   -1.7460    2.8064 H   0  0  0  0  0  0  0  0  0  0  0  0
    4.3906   -1.7309    1.3057 H   0  0  0  0  0  0  0  0  0  0  0  0
    3.9432   -0.0603    1.6871 H   0  0  0  0  0  0  0  0  0  0  0  0
    5.6700   -0.7781   -0.6408 H   0  0  0  0  0  0  0  0  0  0  0  0
    5.5038   -0.1188   -3.0320 H   0  0  0  0  0  0  0  0  0  0  0  0
    3.2621    0.4277   -3.9946 H   0  0  0  0  0  0  0  0  0  0  0  0
    1.2635    0.2773   -2.5078 H   0  0  0  0  0  0  0  0  0  0  0  0
   -0.0417    2.1976    3.1013 H   0  0  0  0  0  0  0  0  0  0  0  0
    0.4021    3.5291    1.2409 H   0  0  0  0  0  0  0  0  0  0  0  0
    1.7121    2.3595    0.8971 H   0  0  0  0  0  0  0  0  0  0  0  0
   -2.8895   -0.2541   -3.4767 H   0  0  0  0  0  0  0  0  0  0  0  0
   -5.2505   -1.6981   -2.6589 H   0  0  0  0  0  0  0  0  0  0  0  0
   -6.5031   -2.2900   -0.5891 H   0  0  0  0  0  0  0  0  0  0  0  0
   -5.6951   -1.5430    1.6203 H   0  0  0  0  0  0  0  0  0  0  0  0
   -3.6446   -0.2032    1.8291 H   0  0  0  0  0  0  0  0  0  0  0  0
   -2.0387    1.7224    2.0249 H   0  0  0  0  0  0  0  0  0  0  0  0
   -1.4030    0.0492    2.0121 H   0  0  0  0  0  0  0  0  0  0  0  0
  1  2  2  0
  2  3  1  0
  3  4  1  0
  4  5  1  0
  5  6  1  0
  6  7  2  0
  7  8  1  0
  8  9  2  0
  9 10  1  0
 10 11  2  0
  2 12  1  0
 12 13  1  0
 13 14  1  0
 14 15  2  0
 14 16  1  0
 16 17  1  0
 17 18  2  0
 18 19  1  0
 19 20  1  0
 20 21  2  0
 21 22  1  0
 22 23  2  0
 23 24  1  0
 24 25  2  0
 16 26  1  0
 11  6  1  0
 26 12  1  0
 25 17  1  0
 25 20  1  0
  3 27  1  0
  4 28  1  0
  4 29  1  0
  5 30  1  0
  5 31  1  0
  7 32  1  0
  8 33  1  0
  9 34  1  0
 10 35  1  0
 12 36  1  0
 13 37  1  0
 13 38  1  0
 19 39  1  0
 21 40  1  0
 22 41  1  0
 23 42  1  0
 24 43  1  0
 26 44  1  0
 26 45  1  0
M  END
$$$$
