
     RDKit          3D

 36 37  0  0  0  0  0  0  0  0999 V2000
    2.8463    0.1764   -1.0871 C   0  0  0  0  0  0  0  0  0  0  0  0
    2.0704    0.4485    0.1706 C   0  0  0  0  0  0  0  0  0  0  0  0
    2.6451   -0.3879    1.2180 N   0  0  0  0  0  0  0  0  0  0  0  0
    0.6030    0.1611    0.0358 C   0  0  0  0  0  0  0  0  0  0  0  0
   -0.0004    1.0103   -1.0447 C   0  0  0  0  0  0  0  0  0  0  0  0
   -1.4971    0.7695   -1.1242 C   0  0  0  0  0  0  0  0  0  0  0  0
   -2.1860    1.1372    0.1697 C   0  0  0  0  0  0  0  0  0  0  0  0
   -1.5427    0.3988    1.2947 C   0  0  0  0  0  0  0  0  0  0  0  0
   -1.7992   -1.0876    1.0773 C   0  0  0  0  0  0  0  0  0  0  0  0
   -1.1835   -1.4937   -0.2299 C   0  0  0  0  0  0  0  0  0  0  0  0
   -1.6985   -0.7045   -1.3983 C   0  0  0  0  0  0  0  0  0  0  0  0
    0.3140   -1.2988   -0.1176 C   0  0  0  0  0  0  0  0  0  0  0  0
   -0.0525    0.6072    1.3487 C   0  0  0  0  0  0  0  0  0  0  0  0
    0.6893    0.0000    0.0000 Cl  0  0  0  0  0  0  0  0  0  0  0  0
    2.2303   -0.1113   -1.9440 H   0  0  0  0  0  0  0  0  0  0  0  0
    3.4086    1.1163   -1.3629 H   0  0  0  0  0  0  0  0  0  0  0  0
    3.6358   -0.5928   -0.9542 H   0  0  0  0  0  0  0  0  0  0  0  0
    2.1917    1.4917    0.5007 H   0  0  0  0  0  0  0  0  0  0  0  0
    2.4181   -0.0687    2.1670 H   0  0  0  0  0  0  0  0  0  0  0  0
    3.6863   -0.3091    1.0984 H   0  0  0  0  0  0  0  0  0  0  0  0
    0.1625    2.0722   -0.7578 H   0  0  0  0  0  0  0  0  0  0  0  0
    0.4039    0.8014   -2.0510 H   0  0  0  0  0  0  0  0  0  0  0  0
   -1.9064    1.3230   -1.9976 H   0  0  0  0  0  0  0  0  0  0  0  0
   -3.2411    0.7586    0.0723 H   0  0  0  0  0  0  0  0  0  0  0  0
   -2.2349    2.2210    0.3273 H   0  0  0  0  0  0  0  0  0  0  0  0
   -1.9541    0.7118    2.2686 H   0  0  0  0  0  0  0  0  0  0  0  0
   -1.2469   -1.6102    1.8882 H   0  0  0  0  0  0  0  0  0  0  0  0
   -2.8794   -1.3196    1.1520 H   0  0  0  0  0  0  0  0  0  0  0  0
   -1.3791   -2.5821   -0.3753 H   0  0  0  0  0  0  0  0  0  0  0  0
   -2.7384   -0.9630   -1.6492 H   0  0  0  0  0  0  0  0  0  0  0  0
   -1.0362   -0.9693   -2.2738 H   0  0  0  0  0  0  0  0  0  0  0  0
    0.6080   -1.7892    0.8567 H   0  0  0  0  0  0  0  0  0  0  0  0
    0.8670   -1.7517   -0.9466 H   0  0  0  0  0  0  0  0  0  0  0  0
    0.3814    0.1172    2.2174 H   0  0  0  0  0  0  0  0  0  0  0  0
    0.1041    1.7170    1.4508 H   0  0  0  0  0  0  0  0  0  0  0  0
   -0.6893    0.0000    0.0000 H   0  0  0  0  0  0  0  0  0  0  0  0
  1  2  1  0
  2  3  1  0
  2  4  1  0
  4  5  1  0
  5  6  1  0
  6  7  1  0
  7  8  1  0
  8  9  1  0
  9 10  1  0
 10 11  1  0
 10 12  1  0
  8 13  1  0
 12  4  1  0
 13  4  1  0
 11  6  1  0
  1 15  1  0
  1 16  1  0
  1 17  1  0
  2 18  1  0
  3 19  1  0
  3 20  1  0
  5 21  1  0
  5 22  1  0
  6 23  1  0
  7 24  1  0
  7 25  1  0
  8 26  1  0
  9 27  1  0
  9 28  1  0
 10 29  1  0
 11 30  1  0
 11 31  1  0
 12 32  1  0
 12 33  1  0
 13 34  1  0
 13 35  1  0
 14 36  1  0
M  END
$$$$
