
     RDKit          3D

 53 57  0  0  0  0  0  0  0  0999 V2000
    0.7445   -1.9438   -0.6159 O   0  0  0  0  0  0  0  0  0  0  0  0
    0.5816   -1.0907    0.2485 C   0  0  0  0  0  0  0  0  0  0  0  0
    1.7528   -0.5082    1.0270 C   0  0  0  0  0  0  0  0  0  0  0  0
    3.1168   -0.9075    0.4534 C   0  0  0  0  0  0  0  0  0  0  0  0
    3.4099   -0.2687   -0.9147 C   0  0  2  0  0  0  0  0  0  0  0  0
    4.5202   -0.8983   -1.6007 N   0  0  0  0  0  0  0  0  0  0  0  0
    5.8018   -1.0290   -1.1632 C   0  0  0  0  0  0  0  0  0  0  0  0
    6.4898   -1.9279   -1.6439 O   0  0  0  0  0  0  0  0  0  0  0  0
    6.3763   -0.1069   -0.1529 C   0  0  0  0  0  0  0  0  0  0  0  0
    7.5714   -0.5564    0.4505 C   0  0  0  0  0  0  0  0  0  0  0  0
    8.3006    0.2544    1.3189 C   0  0  0  0  0  0  0  0  0  0  0  0
    7.8573    1.5406    1.5836 C   0  0  0  0  0  0  0  0  0  0  0  0
    6.6784    1.9999    0.9945 C   0  0  0  0  0  0  0  0  0  0  0  0
    5.9092    1.1813    0.1427 C   0  0  0  0  0  0  0  0  0  0  0  0
    4.7315    1.7845   -0.3260 N   0  0  0  0  0  0  0  0  0  0  0  0
    3.5886    1.2415   -0.8248 C   0  0  0  0  0  0  0  0  0  0  0  0
    2.6369    2.0027   -1.0320 O   0  0  0  0  0  0  0  0  0  0  0  0
   -0.6253   -0.5553    0.6642 N   0  0  0  0  0  0  0  0  0  0  0  0
   -1.9140   -0.8665    0.1839 C   0  0  0  0  0  0  0  0  0  0  0  0
   -2.1737   -1.8151   -0.8075 C   0  0  0  0  0  0  0  0  0  0  0  0
   -3.4870   -2.0673   -1.2280 C   0  0  0  0  0  0  0  0  0  0  0  0
   -4.5609   -1.3778   -0.6680 C   0  0  0  0  0  0  0  0  0  0  0  0
   -5.8590   -1.6644   -1.1093 N   0  0  0  0  0  0  0  0  0  0  0  0
   -6.8266   -0.9841   -0.5917 C   0  0  0  0  0  0  0  0  0  0  0  0
   -6.6894    0.0031    0.3592 N   0  0  0  0  0  0  0  0  0  0  0  0
   -7.8626    0.6602    0.8870 C   0  0  0  0  0  0  0  0  0  0  0  0
   -8.9139    1.2718   -0.0079 C   0  0  0  0  0  0  0  0  0  0  0  0
   -8.0262    2.1584    0.8089 C   0  0  0  0  0  0  0  0  0  0  0  0
   -5.4426    0.2910    0.9065 C   0  0  0  0  0  0  0  0  0  0  0  0
   -5.2498    1.0778    1.8313 O   0  0  0  0  0  0  0  0  0  0  0  0
   -4.2980   -0.4319    0.3195 C   0  0  0  0  0  0  0  0  0  0  0  0
   -2.9890   -0.1730    0.7490 C   0  0  0  0  0  0  0  0  0  0  0  0
    1.6569    0.5817    1.0735 H   0  0  0  0  0  0  0  0  0  0  0  0
    1.6785   -0.8909    2.0524 H   0  0  0  0  0  0  0  0  0  0  0  0
    3.8836   -0.6239    1.1831 H   0  0  0  0  0  0  0  0  0  0  0  0
    3.1680   -2.0005    0.3646 H   0  0  0  0  0  0  0  0  0  0  0  0
    2.5619   -0.4290   -1.5908 H   0  0  0  0  0  0  0  0  0  0  0  0
    4.2756   -1.6447   -2.2425 H   0  0  0  0  0  0  0  0  0  0  0  0
    7.9566   -1.5505    0.2226 H   0  0  0  0  0  0  0  0  0  0  0  0
    9.2208   -0.1145    1.7653 H   0  0  0  0  0  0  0  0  0  0  0  0
    8.4257    2.1887    2.2464 H   0  0  0  0  0  0  0  0  0  0  0  0
    6.3545    3.0121    1.2309 H   0  0  0  0  0  0  0  0  0  0  0  0
    4.6270    2.7821   -0.1780 H   0  0  0  0  0  0  0  0  0  0  0  0
   -0.5816    0.1585    1.3822 H   0  0  0  0  0  0  0  0  0  0  0  0
   -1.3778   -2.3834   -1.2796 H   0  0  0  0  0  0  0  0  0  0  0  0
   -3.6703   -2.8110   -2.0001 H   0  0  0  0  0  0  0  0  0  0  0  0
   -7.8653   -1.1754   -0.9052 H   0  0  0  0  0  0  0  0  0  0  0  0
   -8.2110    0.1890    1.8037 H   0  0  0  0  0  0  0  0  0  0  0  0
   -8.7625    1.2713   -1.0812 H   0  0  0  0  0  0  0  0  0  0  0  0
   -9.9512    1.1783    0.2929 H   0  0  0  0  0  0  0  0  0  0  0  0
   -7.2633    2.7337    0.2965 H   0  0  0  0  0  0  0  0  0  0  0  0
   -8.4494    2.6611    1.6710 H   0  0  0  0  0  0  0  0  0  0  0  0
   -2.8263    0.5731    1.5233 H   0  0  0  0  0  0  0  0  0  0  0  0
  1  2  2  0
  2  3  1  0
  3  4  1  0
  4  5  1  0
  5  6  1  0
  6  7  1  0
  7  8  2  0
  7  9  1  0
  9 10  2  0
 10 11  1  0
 11 12  2  0
 12 13  1  0
 13 14  2  0
 14 15  1  0
 15 16  1  0
 16 17  2  0
  2 18  1  0
 18 19  1  0
 19 20  2  0
 20 21  1  0
 21 22  2  0
 22 23  1  0
 23 24  2  0
 24 25  1  0
 25 26  1  0
 26 27  1  0
 27 28  1  0
 25 29  1  0
 29 30  2  0
 29 31  1  0
 31 32  2  0
 16  5  1  0
 32 19  1  0
 14  9  1  0
 31 22  1  0
 28 26  1  0
  3 33  1  0
  3 34  1  0
  4 35  1  0
  4 36  1  0
  5 37  1  6
  6 38  1  0
 10 39  1  0
 11 40  1  0
 12 41  1  0
 13 42  1  0
 15 43  1  0
 18 44  1  0
 20 45  1  0
 21 46  1  0
 24 47  1  0
 26 48  1  0
 27 49  1  0
 27 50  1  0
 28 51  1  0
 28 52  1  0
 32 53  1  0
M  END
$$$$
