
     RDKit          3D

 60 63  0  0  0  0  0  0  0  0999 V2000
   -4.4067    0.9775   -0.7531 C   0  0  0  0  0  0  0  0  0  0  0  0
   -2.9251    1.1793   -0.4742 C   0  0  0  0  0  0  0  0  0  0  0  0
   -2.3301    2.3891   -0.6298 C   0  0  0  0  0  0  0  0  0  0  0  0
   -3.0556    3.4761   -1.1987 C   0  0  0  0  0  0  0  0  0  0  0  0
   -3.4826    3.7534   -2.4829 C   0  0  0  0  0  0  0  0  0  0  0  0
   -4.1298    4.9972   -2.3924 C   0  0  0  0  0  0  0  0  0  0  0  0
   -4.1175    5.4873   -1.1516 N   0  0  0  0  0  0  0  0  0  0  0  0
   -3.4627    4.5492   -0.4363 N   0  0  0  0  0  0  0  0  0  0  0  0
   -3.2812    4.7619    0.9824 C   0  0  0  0  0  0  0  0  0  0  0  0
   -0.9494    2.5565   -0.2305 C   0  0  0  0  0  0  0  0  0  0  0  0
   -0.2325    1.5794    0.3394 C   0  0  0  0  0  0  0  0  0  0  0  0
    1.1718    1.9080    0.7377 C   0  0  0  0  0  0  0  0  0  0  0  0
    1.5889    3.0627    0.7157 O   0  0  0  0  0  0  0  0  0  0  0  0
    1.9364    0.8448    1.1332 N   0  0  0  0  0  0  0  0  0  0  0  0
    3.3369    0.9593    1.4843 C   0  0  0  0  0  0  0  0  0  0  0  0
    4.1889   -0.0185    0.7030 C   0  0  0  0  0  0  0  0  0  0  0  0
    4.0994   -1.3898    0.9541 C   0  0  0  0  0  0  0  0  0  0  0  0
    4.8716   -2.2691    0.1967 C   0  0  0  0  0  0  0  0  0  0  0  0
    5.7115   -1.7478   -0.7828 C   0  0  0  0  0  0  0  0  0  0  0  0
    6.7006   -2.7976   -1.7907 S   0  0  0  0  0  6  0  0  0  0  0  0
    8.2473   -2.8653   -0.9256 C   0  0  0  0  0  0  0  0  0  0  0  0
    6.9178   -2.1167   -3.0518 O   0  0  0  0  0  0  0  0  0  0  0  0
    6.1070   -4.1211   -1.7542 O   0  0  0  0  0  0  0  0  0  0  0  0
    5.7352   -0.3828   -0.9946 C   0  0  0  0  0  0  0  0  0  0  0  0
    5.0033    0.4883   -0.2606 N   0  0  0  0  0  0  0  0  0  0  0  0
   -0.8617    0.2412    0.5184 C   0  0  0  0  0  0  0  0  0  0  0  0
   -0.1836   -0.6642    1.0138 O   0  0  0  0  0  0  0  0  0  0  0  0
   -2.1956    0.0905    0.0690 N   0  0  0  0  0  0  0  0  0  0  0  0
   -2.7406   -1.2409    0.1527 C   0  0  0  0  0  0  0  0  0  0  0  0
   -3.3051   -1.8575   -0.9723 C   0  0  0  0  0  0  0  0  0  0  0  0
   -3.8366   -3.1460   -0.8882 C   0  0  0  0  0  0  0  0  0  0  0  0
   -3.7983   -3.8400    0.3204 C   0  0  0  0  0  0  0  0  0  0  0  0
   -3.2136   -3.2582    1.4543 C   0  0  0  0  0  0  0  0  0  0  0  0
   -3.1718   -3.9984    2.7678 C   0  0  0  0  0  0  0  0  0  0  0  0
   -3.2073   -5.3530    2.6235 F   0  0  0  0  0  0  0  0  0  0  0  0
   -4.2250   -3.6815    3.5708 F   0  0  0  0  0  0  0  0  0  0  0  0
   -2.0527   -3.7339    3.4966 F   0  0  0  0  0  0  0  0  0  0  0  0
   -2.6930   -1.9560    1.3593 C   0  0  0  0  0  0  0  0  0  0  0  0
   -4.9813    1.9068   -0.7075 H   0  0  0  0  0  0  0  0  0  0  0  0
   -4.5586    0.5479   -1.7468 H   0  0  0  0  0  0  0  0  0  0  0  0
   -4.8725    0.3307   -0.0017 H   0  0  0  0  0  0  0  0  0  0  0  0
   -3.3377    3.1440   -3.3632 H   0  0  0  0  0  0  0  0  0  0  0  0
   -4.6040    5.5704   -3.1791 H   0  0  0  0  0  0  0  0  0  0  0  0
   -3.9899    5.5196    1.3271 H   0  0  0  0  0  0  0  0  0  0  0  0
   -3.4687    3.8259    1.5139 H   0  0  0  0  0  0  0  0  0  0  0  0
   -2.2577    5.1050    1.1494 H   0  0  0  0  0  0  0  0  0  0  0  0
   -0.5069    3.5362   -0.4035 H   0  0  0  0  0  0  0  0  0  0  0  0
    1.5012   -0.0767    1.1659 H   0  0  0  0  0  0  0  0  0  0  0  0
    3.4259    0.7470    2.5562 H   0  0  0  0  0  0  0  0  0  0  0  0
    3.6954    1.9812    1.3190 H   0  0  0  0  0  0  0  0  0  0  0  0
    3.4283   -1.7729    1.7177 H   0  0  0  0  0  0  0  0  0  0  0  0
    4.8030   -3.3411    0.3675 H   0  0  0  0  0  0  0  0  0  0  0  0
    8.0807   -3.2807    0.0709 H   0  0  0  0  0  0  0  0  0  0  0  0
    8.6656   -1.8582   -0.8628 H   0  0  0  0  0  0  0  0  0  0  0  0
    8.9212   -3.5133   -1.4894 H   0  0  0  0  0  0  0  0  0  0  0  0
    6.3464    0.0754   -1.7684 H   0  0  0  0  0  0  0  0  0  0  0  0
   -3.3052   -1.3569   -1.9373 H   0  0  0  0  0  0  0  0  0  0  0  0
   -4.2697   -3.6131   -1.7698 H   0  0  0  0  0  0  0  0  0  0  0  0
   -4.2164   -4.8448    0.3727 H   0  0  0  0  0  0  0  0  0  0  0  0
   -2.2576   -1.4955    2.2466 H   0  0  0  0  0  0  0  0  0  0  0  0
  1  2  1  0
  2  3  2  0
  3  4  1  0
  4  5  2  0
  5  6  1  0
  6  7  2  0
  7  8  1  0
  8  9  1  0
  3 10  1  0
 10 11  2  0
 11 12  1  0
 12 13  2  0
 12 14  1  0
 14 15  1  0
 15 16  1  0
 16 17  2  0
 17 18  1  0
 18 19  2  0
 19 20  1  0
 20 21  1  0
 20 22  2  0
 20 23  2  0
 19 24  1  0
 24 25  2  0
 11 26  1  0
 26 27  2  0
 26 28  1  0
 28 29  1  0
 29 30  2  0
 30 31  1  0
 31 32  2  0
 32 33  1  0
 33 34  1  0
 34 35  1  0
 34 36  1  0
 34 37  1  0
 33 38  2  0
 28  2  1  0
 38 29  1  0
  8  4  1  0
 25 16  1  0
  1 39  1  0
  1 40  1  0
  1 41  1  0
  5 42  1  0
  6 43  1  0
  9 44  1  0
  9 45  1  0
  9 46  1  0
 10 47  1  0
 14 48  1  0
 15 49  1  0
 15 50  1  0
 17 51  1  0
 18 52  1  0
 21 53  1  0
 21 54  1  0
 21 55  1  0
 24 56  1  0
 30 57  1  0
 31 58  1  0
 32 59  1  0
 38 60  1  0
M  END
$$$$
