
     RDKit          3D

 30 30  0  0  0  0  0  0  0  0999 V2000
   -3.7910    1.4737   -2.2374 C   0  0  0  0  0  0  0  0  0  0  0  0
   -2.4742    1.5279   -1.6985 O   0  0  0  0  0  0  0  0  0  0  0  0
   -2.0794    0.4701   -0.9236 C   0  0  0  0  0  0  0  0  0  0  0  0
   -2.8214   -0.6810   -0.6686 C   0  0  0  0  0  0  0  0  0  0  0  0
   -2.3136   -1.7044    0.1430 C   0  0  0  0  0  0  0  0  0  0  0  0
   -1.0348   -1.5359    0.6843 C   0  0  0  0  0  0  0  0  0  0  0  0
   -0.3060   -2.3614    1.5075 N   0  0  0  0  0  0  0  0  0  0  0  0
    0.9124   -1.7952    1.7824 C   0  0  0  0  0  0  0  0  0  0  0  0
    0.9780   -0.5739    1.1414 C   0  0  0  0  0  0  0  0  0  0  0  0
    2.1222    0.3805    1.1610 C   0  0  0  0  0  0  0  0  0  0  0  0
    2.9370    0.3002   -0.1282 C   0  0  0  0  0  0  0  0  0  0  0  0
    4.0545    1.2816   -0.0928 N   0  0  0  0  0  4  0  0  0  0  0  0
   -0.2622   -0.4014    0.4468 C   0  0  0  0  0  0  0  0  0  0  0  0
   -0.8008    0.6156   -0.3676 C   0  0  0  0  0  0  0  0  0  0  0  0
    0.0000    0.0000    0.0000 Cl  0  0  0  0  0 15  0  0  0  0  0  0
   -3.9600    2.3978   -2.7985 H   0  0  0  0  0  0  0  0  0  0  0  0
   -4.5420    1.4243   -1.4420 H   0  0  0  0  0  0  0  0  0  0  0  0
   -3.8959    0.6364   -2.9350 H   0  0  0  0  0  0  0  0  0  0  0  0
   -3.8143   -0.8209   -1.0862 H   0  0  0  0  0  0  0  0  0  0  0  0
   -2.9027   -2.5950    0.3413 H   0  0  0  0  0  0  0  0  0  0  0  0
   -0.6317   -3.2536    1.8574 H   0  0  0  0  0  0  0  0  0  0  0  0
    1.6160   -2.3140    2.4214 H   0  0  0  0  0  0  0  0  0  0  0  0
    2.7690    0.1671    2.0216 H   0  0  0  0  0  0  0  0  0  0  0  0
    1.7441    1.4006    1.3037 H   0  0  0  0  0  0  0  0  0  0  0  0
    3.3896   -0.6875   -0.2636 H   0  0  0  0  0  0  0  0  0  0  0  0
    2.3389    0.5424   -1.0122 H   0  0  0  0  0  0  0  0  0  0  0  0
    4.6074    1.2325   -0.9589 H   0  0  0  0  0  0  0  0  0  0  0  0
    4.6953    1.1022    0.6914 H   0  0  0  0  0  0  0  0  0  0  0  0
    3.7086    2.2467   -0.0061 H   0  0  0  0  0  0  0  0  0  0  0  0
   -0.2430    1.5247   -0.5676 H   0  0  0  0  0  0  0  0  0  0  0  0
  1  2  1  0
  2  3  1  0
  3  4  2  0
  4  5  1  0
  5  6  2  0
  6  7  1  0
  7  8  1  0
  8  9  2  0
  9 10  1  0
 10 11  1  0
 11 12  1  0
  9 13  1  0
 13 14  2  0
 14  3  1  0
 13  6  1  0
  1 16  1  0
  1 17  1  0
  1 18  1  0
  4 19  1  0
  5 20  1  0
  7 21  1  0
  8 22  1  0
 10 23  1  0
 10 24  1  0
 11 25  1  0
 11 26  1  0
 12 27  1  0
 12 28  1  0
 12 29  1  0
 14 30  1  0
M  CHG  2  12   1  15  -1
M  END
$$$$
