
     RDKit          3D

 47 48  0  0  0  0  0  0  0  0999 V2000
    6.6912   -0.7273    2.7334 C   0  0  0  0  0  0  0  0  0  0  0  0
    6.8209    0.0067    1.4298 C   0  0  0  0  0  0  0  0  0  0  0  0
    5.5460    0.0793    0.6927 C   0  0  0  0  0  0  0  0  0  0  0  0
    5.1890   -0.9069   -0.2129 C   0  0  0  0  0  0  0  0  0  0  0  0
    3.9958   -0.8307   -0.8970 C   0  0  0  0  0  0  0  0  0  0  0  0
    3.1406    0.2239   -0.6927 C   0  0  0  0  0  0  0  0  0  0  0  0
    1.8382    0.3267   -1.4258 C   0  0  0  0  0  0  0  0  0  0  0  0
    1.1592    1.5883   -0.9688 C   0  0  0  0  0  0  0  0  0  0  0  0
   -0.0774    1.7952   -1.5533 O   0  0  0  0  0  0  0  0  0  0  0  0
   -1.1819    1.0300   -1.3729 C   0  0  0  0  0  0  0  0  0  0  0  0
   -2.3205    1.3468   -2.0685 C   0  0  0  0  0  0  0  0  0  0  0  0
   -3.4551    0.6010   -1.9096 C   0  0  0  0  0  0  0  0  0  0  0  0
   -3.5258   -0.4746   -1.0721 C   0  0  0  0  0  0  0  0  0  0  0  0
   -4.7489   -1.2609   -0.8707 C   0  0  0  0  0  0  0  0  0  0  0  0
   -5.4209   -0.8564    0.3847 C   0  0  0  0  0  0  0  0  0  0  0  0
   -6.9646   -1.8500    0.6449 S   0  0  0  0  0  0  0  0  0  0  0  0
   -7.8775   -0.5601    1.4565 C   0  0  0  0  0  0  0  0  0  0  0  0
   -9.0115   -0.6490    1.9360 O   0  0  0  0  0  0  0  0  0  0  0  0
   -7.0399    0.5619    1.4329 N   0  0  0  0  0  0  0  0  0  0  0  0
   -6.0055    0.4875    0.4487 C   0  0  0  0  0  0  0  0  0  0  0  0
   -5.6231    1.4625   -0.2922 O   0  0  0  0  0  0  0  0  0  0  0  0
   -2.3840   -0.7924   -0.3743 C   0  0  0  0  0  0  0  0  0  0  0  0
   -1.2060   -0.0367   -0.5243 C   0  0  0  0  0  0  0  0  0  0  0  0
    3.4821    1.1749    0.1789 N   0  0  0  0  0  0  0  0  0  0  0  0
    4.6409    1.1136    0.8521 C   0  0  0  0  0  0  0  0  0  0  0  0
    0.6872    0.0000    0.0000 Cl  0  0  0  0  0  0  0  0  0  0  0  0
    6.2448   -0.0769    3.4946 H   0  0  0  0  0  0  0  0  0  0  0  0
    6.1484   -1.6755    2.5733 H   0  0  0  0  0  0  0  0  0  0  0  0
    7.7085   -0.9993    3.0861 H   0  0  0  0  0  0  0  0  0  0  0  0
    7.5726   -0.4956    0.7808 H   0  0  0  0  0  0  0  0  0  0  0  0
    7.1587    1.0414    1.6703 H   0  0  0  0  0  0  0  0  0  0  0  0
    5.8661   -1.7394   -0.3729 H   0  0  0  0  0  0  0  0  0  0  0  0
    3.7157   -1.6139   -1.6141 H   0  0  0  0  0  0  0  0  0  0  0  0
    1.2525   -0.5803   -1.4058 H   0  0  0  0  0  0  0  0  0  0  0  0
    2.1163    0.5512   -2.5218 H   0  0  0  0  0  0  0  0  0  0  0  0
    1.1051    1.5081    0.1500 H   0  0  0  0  0  0  0  0  0  0  0  0
    1.8006    2.4735   -1.2319 H   0  0  0  0  0  0  0  0  0  0  0  0
   -2.3009    2.1849   -2.7336 H   0  0  0  0  0  0  0  0  0  0  0  0
   -4.3488    0.8595   -2.4990 H   0  0  0  0  0  0  0  0  0  0  0  0
   -5.4404   -1.1775   -1.7675 H   0  0  0  0  0  0  0  0  0  0  0  0
   -4.5009   -2.3552   -0.8572 H   0  0  0  0  0  0  0  0  0  0  0  0
   -4.8008   -1.0907    1.2836 H   0  0  0  0  0  0  0  0  0  0  0  0
   -7.1247    1.4132    2.0658 H   0  0  0  0  0  0  0  0  0  0  0  0
   -2.3717   -1.6268    0.3001 H   0  0  0  0  0  0  0  0  0  0  0  0
   -0.3538   -0.3429    0.0932 H   0  0  0  0  0  0  0  0  0  0  0  0
    4.8918    1.8955    1.5503 H   0  0  0  0  0  0  0  0  0  0  0  0
   -0.6872    0.0000    0.0000 H   0  0  0  0  0  0  0  0  0  0  0  0
  1  2  1  0
  2  3  1  0
  3  4  2  0
  4  5  1  0
  5  6  2  0
  6  7  1  0
  7  8  1  0
  8  9  1  0
  9 10  1  0
 10 11  2  0
 11 12  1  0
 12 13  2  0
 13 14  1  0
 14 15  1  0
 15 16  1  0
 16 17  1  0
 17 18  2  0
 17 19  1  0
 19 20  1  0
 20 21  2  0
 13 22  1  0
 22 23  2  0
  6 24  1  0
 24 25  2  0
 25  3  1  0
 23 10  1  0
 20 15  1  0
  1 27  1  0
  1 28  1  0
  1 29  1  0
  2 30  1  0
  2 31  1  0
  4 32  1  0
  5 33  1  0
  7 34  1  0
  7 35  1  0
  8 36  1  0
  8 37  1  0
 11 38  1  0
 12 39  1  0
 14 40  1  0
 14 41  1  0
 15 42  1  0
 19 43  1  0
 22 44  1  0
 23 45  1  0
 25 46  1  0
 26 47  1  0
M  END
$$$$
