
     RDKit          3D

 30 31  0  0  0  0  0  0  0  0999 V2000
   -3.0901    4.2665   -1.0620 N   0  0  0  0  0  0  0  0  0  0  0  0
   -2.5476    3.2407   -0.9985 C   0  0  0  0  0  0  0  0  0  0  0  0
   -1.8477    1.9903   -0.8980 C   0  0  0  0  0  0  0  0  0  0  0  0
   -0.6983    1.9615   -0.2126 N   0  0  0  0  0  0  0  0  0  0  0  0
   -0.2713    0.6790   -0.3003 N   0  0  0  0  0  0  0  0  0  0  0  0
    0.9138    0.2952    0.3677 C   0  0  0  0  0  0  0  0  0  0  0  0
    0.9046   -0.7434    1.3111 C   0  0  0  0  0  0  0  0  0  0  0  0
   -0.5259   -1.5888    1.7942 Cl  0  0  0  0  0  0  0  0  0  0  0  0
    2.0837   -1.0906    1.9843 C   0  0  0  0  0  0  0  0  0  0  0  0
    3.2809   -0.4020    1.7445 C   0  0  0  0  0  0  0  0  0  0  0  0
    4.5507   -0.7963    2.4603 C   0  0  0  0  0  0  0  0  0  0  0  0
    5.2098   -1.7937    1.8121 F   0  0  0  0  0  0  0  0  0  0  0  0
    4.3251   -1.2504    3.7228 F   0  0  0  0  0  0  0  0  0  0  0  0
    5.4364    0.2286    2.5810 F   0  0  0  0  0  0  0  0  0  0  0  0
    3.2817    0.6346    0.8021 C   0  0  0  0  0  0  0  0  0  0  0  0
    2.1100    0.9889    0.1204 C   0  0  0  0  0  0  0  0  0  0  0  0
    2.2721    2.2129   -1.0935 Cl  0  0  0  0  0  0  0  0  0  0  0  0
   -1.1356   -0.1100   -1.0705 C   0  0  0  0  0  0  0  0  0  0  0  0
   -0.8896   -1.4089   -1.3937 N   0  0  0  0  0  0  0  0  0  0  0  0
   -2.1666    0.7318   -1.4348 C   0  0  0  0  0  0  0  0  0  0  0  0
   -3.5672    0.3259   -2.4642 S   0  0  0  0  0  4  0  0  0  0  0  0
   -4.4781    1.5190   -2.4440 O   0  0  0  0  0  0  0  0  0  0  0  0
   -4.2589   -1.0074   -1.4527 C   0  0  0  0  0  0  0  0  0  0  0  0
   -3.5027   -2.1378   -1.5401 F   0  0  0  0  0  0  0  0  0  0  0  0
   -5.5063   -1.3566   -1.8590 F   0  0  0  0  0  0  0  0  0  0  0  0
   -4.3411   -0.6868   -0.1370 F   0  0  0  0  0  0  0  0  0  0  0  0
    2.0683   -1.8927    2.7238 H   0  0  0  0  0  0  0  0  0  0  0  0
    4.2097    1.1678    0.5904 H   0  0  0  0  0  0  0  0  0  0  0  0
   -1.6333   -2.0257   -1.7267 H   0  0  0  0  0  0  0  0  0  0  0  0
   -0.1866   -1.9515   -0.8910 H   0  0  0  0  0  0  0  0  0  0  0  0
  1  2  3  0
  2  3  1  0
  3  4  2  0
  4  5  1  0
  5  6  1  0
  6  7  2  0
  7  8  1  0
  7  9  1  0
  9 10  2  0
 10 11  1  0
 11 12  1  0
 11 13  1  0
 11 14  1  0
 10 15  1  0
 15 16  2  0
 16 17  1  0
  5 18  1  0
 18 19  1  0
 18 20  2  0
 20 21  1  0
 21 22  2  0
 21 23  1  0
 23 24  1  0
 23 25  1  0
 23 26  1  0
 20  3  1  0
 16  6  1  0
  9 27  1  0
 15 28  1  0
 19 29  1  0
 19 30  1  0
M  END
$$$$
