
     RDKit          3D

 60 64  0  0  0  0  0  0  0  0999 V2000
    8.2467    3.1308    2.8108 C   0  0  0  0  0  0  0  0  0  0  0  0
    6.9633    3.7423    2.8883 O   0  0  0  0  0  0  0  0  0  0  0  0
    5.9681    2.9837    2.3060 C   0  0  0  0  0  0  0  0  0  0  0  0
    4.6949    3.5245    2.3235 C   0  0  0  0  0  0  0  0  0  0  0  0
    3.6544    2.7932    1.7485 C   0  0  0  0  0  0  0  0  0  0  0  0
    3.8948    1.5373    1.1682 C   0  0  0  0  0  0  0  0  0  0  0  0
    2.8294    0.7283    0.5555 C   0  0  0  0  0  0  0  0  0  0  0  0
    3.1815   -0.4603    0.0321 N   0  0  0  0  0  0  0  0  0  0  0  0
    2.2592   -1.2558   -0.5650 C   0  0  0  0  0  0  0  0  0  0  0  0
    2.6613   -2.4821   -1.0951 N   0  0  0  0  0  0  0  0  0  0  0  0
    2.3173   -2.7393   -2.5082 C   0  0  0  0  0  0  0  0  0  0  0  0
    3.5665   -3.1055   -3.3300 C   0  0  0  0  0  0  0  0  0  0  0  0
    4.2896   -4.2299   -2.8109 O   0  0  0  0  0  0  0  0  0  0  0  0
    4.2946   -4.2894   -1.3746 C   0  0  0  0  0  0  0  0  0  0  0  0
    4.0043   -2.9409   -0.6987 C   0  0  0  0  0  0  0  0  0  0  0  0
    0.9286   -0.7962   -0.5484 C   0  0  0  0  0  0  0  0  0  0  0  0
   -0.5263   -1.5420   -1.1059 S   0  0  0  0  0  0  0  0  0  0  0  0
   -1.4974   -0.2263   -0.6168 C   0  0  0  0  0  0  0  0  0  0  0  0
   -2.9923   -0.2404   -0.8286 C   0  0  0  0  0  0  0  0  0  0  0  0
   -3.7840   -0.2201    0.4052 N   0  0  0  0  0  0  0  0  0  0  0  0
   -3.5611   -1.3073    1.3524 C   0  0  0  0  0  0  0  0  0  0  0  0
   -5.1354    0.0664    0.1943 C   0  0  0  0  0  0  0  0  0  0  0  0
   -6.0512   -0.3945    1.0651 N   0  0  0  0  0  0  0  0  0  0  0  0
   -7.3464   -0.0592    0.8721 C   0  0  0  0  0  0  0  0  0  0  0  0
   -7.7773    0.7432   -0.1548 C   0  0  0  0  0  0  0  0  0  0  0  0
   -9.1988    1.0901   -0.2881 C   0  0  0  0  0  0  0  0  0  0  0  0
  -10.0606    0.4208    0.2757 O   0  0  0  0  0  0  0  0  0  0  0  0
   -9.5112    2.2165   -1.0225 N   0  0  0  0  0  0  0  0  0  0  0  0
  -10.8692    2.6120   -0.9274 O   0  0  0  0  0  0  0  0  0  0  0  0
   -6.7877    1.1562   -1.0108 C   0  0  0  0  0  0  0  0  0  0  0  0
   -5.4834    0.8357   -0.8551 N   0  0  0  0  0  0  0  0  0  0  0  0
   -0.7383    0.7665   -0.0349 C   0  0  0  0  0  0  0  0  0  0  0  0
    0.6470    0.4415    0.0197 C   0  0  0  0  0  0  0  0  0  0  0  0
    1.5938    1.2357    0.5663 N   0  0  0  0  0  0  0  0  0  0  0  0
    5.2208    1.1005    1.2120 C   0  0  0  0  0  0  0  0  0  0  0  0
    6.2589    1.7856    1.7614 N   0  0  0  0  0  0  0  0  0  0  0  0
    8.5611    2.9998    1.7697 H   0  0  0  0  0  0  0  0  0  0  0  0
    8.2665    2.1786    3.3537 H   0  0  0  0  0  0  0  0  0  0  0  0
    8.9658    3.8015    3.2935 H   0  0  0  0  0  0  0  0  0  0  0  0
    4.5133    4.4936    2.7744 H   0  0  0  0  0  0  0  0  0  0  0  0
    2.6499    3.2130    1.7583 H   0  0  0  0  0  0  0  0  0  0  0  0
    1.6159   -3.5819   -2.5308 H   0  0  0  0  0  0  0  0  0  0  0  0
    1.8365   -1.8784   -2.9878 H   0  0  0  0  0  0  0  0  0  0  0  0
    4.2565   -2.2542   -3.3807 H   0  0  0  0  0  0  0  0  0  0  0  0
    3.2783   -3.3480   -4.3584 H   0  0  0  0  0  0  0  0  0  0  0  0
    5.2751   -4.6657   -1.0652 H   0  0  0  0  0  0  0  0  0  0  0  0
    3.5463   -5.0332   -1.0756 H   0  0  0  0  0  0  0  0  0  0  0  0
    4.0553   -3.0663    0.3893 H   0  0  0  0  0  0  0  0  0  0  0  0
    4.7683   -2.2146   -1.0061 H   0  0  0  0  0  0  0  0  0  0  0  0
   -3.2845   -1.1082   -1.4353 H   0  0  0  0  0  0  0  0  0  0  0  0
   -3.1954    0.6494   -1.4389 H   0  0  0  0  0  0  0  0  0  0  0  0
   -2.4949   -1.4200    1.5732 H   0  0  0  0  0  0  0  0  0  0  0  0
   -3.9215   -2.2622    0.9542 H   0  0  0  0  0  0  0  0  0  0  0  0
   -4.0418   -1.1121    2.3184 H   0  0  0  0  0  0  0  0  0  0  0  0
   -8.0375   -0.4652    1.6071 H   0  0  0  0  0  0  0  0  0  0  0  0
   -8.8544    2.9784   -1.1585 H   0  0  0  0  0  0  0  0  0  0  0  0
  -11.2670    1.8891   -0.3911 H   0  0  0  0  0  0  0  0  0  0  0  0
   -6.9928    1.7611   -1.8887 H   0  0  0  0  0  0  0  0  0  0  0  0
   -1.1607    1.6836    0.3566 H   0  0  0  0  0  0  0  0  0  0  0  0
    5.5074    0.1403    0.7875 H   0  0  0  0  0  0  0  0  0  0  0  0
  1  2  1  0
  2  3  1  0
  3  4  2  0
  4  5  1  0
  5  6  2  0
  6  7  1  0
  7  8  2  0
  8  9  1  0
  9 10  1  0
 10 11  1  0
 11 12  1  0
 12 13  1  0
 13 14  1  0
 14 15  1  0
  9 16  2  0
 16 17  1  0
 17 18  1  0
 18 19  1  0
 19 20  1  0
 20 21  1  0
 20 22  1  0
 22 23  2  0
 23 24  1  0
 24 25  2  0
 25 26  1  0
 26 27  2  0
 26 28  1  0
 28 29  1  0
 25 30  1  0
 30 31  2  0
 18 32  2  0
 32 33  1  0
 33 34  2  0
  6 35  1  0
 35 36  2  0
 36  3  1  0
 34  7  1  0
 15 10  1  0
 33 16  1  0
 31 22  1  0
  1 37  1  0
  1 38  1  0
  1 39  1  0
  4 40  1  0
  5 41  1  0
 11 42  1  0
 11 43  1  0
 12 44  1  0
 12 45  1  0
 14 46  1  0
 14 47  1  0
 15 48  1  0
 15 49  1  0
 19 50  1  0
 19 51  1  0
 21 52  1  0
 21 53  1  0
 21 54  1  0
 24 55  1  0
 28 56  1  0
 29 57  1  0
 30 58  1  0
 32 59  1  0
 35 60  1  0
M  END
$$$$
