
     RDKit          3D

 54 57  0  0  0  0  0  0  0  0999 V2000
    2.3018    0.1531   -1.1784 C   0  0  0  0  0  0  0  0  0  0  0  0
    1.8672   -0.2364    0.2595 C   0  0  2  0  0  0  0  0  0  0  0  0
    1.1795   -1.6085    0.2477 C   0  0  0  0  0  0  0  0  0  0  0  0
   -0.1656   -1.5641   -0.4987 C   0  0  0  0  0  0  0  0  0  0  0  0
   -1.1266   -0.4621    0.0235 C   0  0  1  0  0  0  0  0  0  0  0  0
   -0.4216    0.9273    0.1100 C   0  0  1  0  0  0  0  0  0  0  0  0
   -1.3554    1.9505    0.7698 C   0  0  0  0  0  0  0  0  0  0  0  0
   -2.6636    2.0788   -0.0000 C   0  0  0  0  0  0  0  0  0  0  0  0
   -3.3533    0.7462   -0.1741 C   0  0  0  0  0  0  0  0  0  0  0  0
   -4.6551    0.6272    0.1427 C   0  0  0  0  0  0  0  0  0  0  0  0
   -5.4127   -0.6174   -0.1205 C   0  0  0  0  0  0  0  0  0  0  0  0
   -6.5910   -0.6910    0.2191 O   0  0  0  0  0  0  0  0  0  0  0  0
   -4.7218   -1.7182   -0.8798 C   0  0  0  0  0  0  0  0  0  0  0  0
   -3.2420   -1.7594   -0.5272 C   0  0  0  0  0  0  0  0  0  0  0  0
   -2.5061   -0.4027   -0.7389 C   0  0  2  0  0  0  0  0  0  0  0  0
   -2.3204   -0.1652   -2.2545 C   0  0  0  0  0  0  0  0  0  0  0  0
    0.8845    0.7727    0.8974 C   0  0  2  0  0  0  0  0  0  0  0  0
    1.7483    2.0059    1.1389 C   0  0  0  0  0  0  0  0  0  0  0  0
    3.1287    1.4275    1.4979 C   0  0  0  0  0  0  0  0  0  0  0  0
    3.0408   -0.0984    1.2623 C   0  0  2  0  0  0  0  0  0  0  0  0
    4.3668   -0.7419    0.8689 C   0  0  0  0  0  0  0  0  0  0  0  0
    4.4510   -1.6393    0.0265 O   0  0  0  0  0  0  0  0  0  0  0  0
    5.6132   -0.3066    1.6357 C   0  0  0  0  0  0  0  0  0  0  0  0
    6.7079   -1.1780    1.3909 O   0  0  0  0  0  0  0  0  0  0  0  0
    1.4525    0.3046   -1.8497 H   0  0  0  0  0  0  0  0  0  0  0  0
    2.9122   -0.6335   -1.6336 H   0  0  0  0  0  0  0  0  0  0  0  0
    2.8938    1.0732   -1.2035 H   0  0  0  0  0  0  0  0  0  0  0  0
    1.8258   -2.3630   -0.2154 H   0  0  0  0  0  0  0  0  0  0  0  0
    0.9976   -1.9476    1.2758 H   0  0  0  0  0  0  0  0  0  0  0  0
   -0.6336   -2.5490   -0.3937 H   0  0  0  0  0  0  0  0  0  0  0  0
    0.0254   -1.4264   -1.5676 H   0  0  0  0  0  0  0  0  0  0  0  0
   -1.3594   -0.7448    1.0633 H   0  0  0  0  0  0  0  0  0  0  0  0
   -0.1949    1.2914   -0.8976 H   0  0  0  0  0  0  0  0  0  0  0  0
   -1.5639    1.6586    1.8072 H   0  0  0  0  0  0  0  0  0  0  0  0
   -0.8725    2.9339    0.8074 H   0  0  0  0  0  0  0  0  0  0  0  0
   -3.3097    2.7950    0.5225 H   0  0  0  0  0  0  0  0  0  0  0  0
   -2.4662    2.5087   -0.9898 H   0  0  0  0  0  0  0  0  0  0  0  0
   -5.2388    1.4442    0.5528 H   0  0  0  0  0  0  0  0  0  0  0  0
   -4.8800   -1.5596   -1.9511 H   0  0  0  0  0  0  0  0  0  0  0  0
   -5.1832   -2.6729   -0.6042 H   0  0  0  0  0  0  0  0  0  0  0  0
   -2.7681   -2.5529   -1.1172 H   0  0  0  0  0  0  0  0  0  0  0  0
   -3.1543   -2.0612    0.5261 H   0  0  0  0  0  0  0  0  0  0  0  0
   -1.6927    0.7064   -2.4641 H   0  0  0  0  0  0  0  0  0  0  0  0
   -1.8577   -1.0284   -2.7442 H   0  0  0  0  0  0  0  0  0  0  0  0
   -3.2802    0.0080   -2.7550 H   0  0  0  0  0  0  0  0  0  0  0  0
    0.6043    0.3977    1.8964 H   0  0  0  0  0  0  0  0  0  0  0  0
    1.8163    2.6327    0.2427 H   0  0  0  0  0  0  0  0  0  0  0  0
    1.3567    2.6284    1.9499 H   0  0  0  0  0  0  0  0  0  0  0  0
    3.3759    1.6363    2.5450 H   0  0  0  0  0  0  0  0  0  0  0  0
    3.9015    1.9014    0.8826 H   0  0  0  0  0  0  0  0  0  0  0  0
    2.7595   -0.5741    2.2133 H   0  0  0  0  0  0  0  0  0  0  0  0
    5.4030   -0.3187    2.7082 H   0  0  0  0  0  0  0  0  0  0  0  0
    5.9006    0.6991    1.3207 H   0  0  0  0  0  0  0  0  0  0  0  0
    6.4758   -1.6872    0.5868 H   0  0  0  0  0  0  0  0  0  0  0  0
  2  1  1  6
  2  3  1  0
  3  4  1  0
  4  5  1  0
  5  6  1  0
  6  7  1  0
  7  8  1  0
  8  9  1  0
  9 10  2  0
 10 11  1  0
 11 12  2  0
 11 13  1  0
 13 14  1  0
 14 15  1  0
 15 16  1  6
  6 17  1  0
 17 18  1  0
 18 19  1  0
 19 20  1  0
 20 21  1  0
 21 22  2  0
 21 23  1  0
 23 24  1  0
 17  2  1  0
 20  2  1  0
 15  5  1  0
 15  9  1  0
  1 25  1  0
  1 26  1  0
  1 27  1  0
  3 28  1  0
  3 29  1  0
  4 30  1  0
  4 31  1  0
  5 32  1  1
  6 33  1  6
  7 34  1  0
  7 35  1  0
  8 36  1  0
  8 37  1  0
 10 38  1  0
 13 39  1  0
 13 40  1  0
 14 41  1  0
 14 42  1  0
 16 43  1  0
 16 44  1  0
 16 45  1  0
 17 46  1  1
 18 47  1  0
 18 48  1  0
 19 49  1  0
 19 50  1  0
 20 51  1  1
 23 52  1  0
 23 53  1  0
 24 54  1  0
M  END
$$$$
