
     RDKit          3D

 57 60  0  0  0  0  0  0  0  0999 V2000
    8.1210   -0.3132   -0.8982 C   0  0  0  0  0  0  0  0  0  0  0  0
    6.6419   -0.1981   -1.0814 C   0  0  0  0  0  0  0  0  0  0  0  0
    5.9239    0.8675   -0.5406 C   0  0  0  0  0  0  0  0  0  0  0  0
    4.5421    0.9207   -0.7035 C   0  0  0  0  0  0  0  0  0  0  0  0
    3.9028   -0.1058   -1.3967 C   0  0  0  0  0  0  0  0  0  0  0  0
    2.3969   -0.0714   -1.5937 C   0  0  0  0  0  0  0  0  0  0  0  0
    1.6222   -0.0239   -0.3387 N   0  0  0  0  0  0  0  0  0  0  0  0
    1.7354   -1.2586    0.4386 C   0  0  0  0  0  0  0  0  0  0  0  0
    1.1203   -1.0698    1.8334 C   0  0  0  0  0  0  0  0  0  0  0  0
   -0.1530   -0.2147    1.8401 C   0  0  0  0  0  0  0  0  0  0  0  0
   -0.7973   -0.1903    0.4503 C   0  0  0  0  0  0  0  0  0  0  0  0
   -2.1115    0.4946    0.4211 N   0  0  0  0  0  0  0  0  0  0  0  0
   -2.1571    1.8672    0.6915 C   0  0  0  0  0  0  0  0  0  0  0  0
   -1.1785    2.5409    0.9897 O   0  0  0  0  0  0  0  0  0  0  0  0
   -3.4801    2.5507    0.6127 C   0  0  0  0  0  0  0  0  0  0  0  0
   -3.5590    3.9805    0.1191 C   0  0  0  0  0  0  0  0  0  0  0  0
   -4.0991    2.8724   -0.7303 C   0  0  0  0  0  0  0  0  0  0  0  0
   -3.3195   -0.3139    0.1359 C   0  0  0  0  0  0  0  0  0  0  0  0
   -3.3196   -0.8847   -1.2876 C   0  0  0  0  0  0  0  0  0  0  0  0
   -4.5702   -1.7236   -1.5106 C   0  0  0  0  0  0  0  0  0  0  0  0
   -4.6710   -2.7483   -0.5225 O   0  0  0  0  0  0  0  0  0  0  0  0
   -4.7941   -2.2242    0.7990 C   0  0  0  0  0  0  0  0  0  0  0  0
   -3.5564   -1.4203    1.1730 C   0  0  0  0  0  0  0  0  0  0  0  0
    0.2127    0.3291   -0.6133 C   0  0  0  0  0  0  0  0  0  0  0  0
    4.5792   -1.1602   -1.9201 N   0  0  0  0  0  0  0  0  0  0  0  0
    5.9204   -1.1830   -1.7458 C   0  0  0  0  0  0  0  0  0  0  0  0
    8.5848    0.6768   -0.8324 H   0  0  0  0  0  0  0  0  0  0  0  0
    8.3440   -0.8685    0.0179 H   0  0  0  0  0  0  0  0  0  0  0  0
    8.5809   -0.8311   -1.7465 H   0  0  0  0  0  0  0  0  0  0  0  0
    6.4290    1.6568    0.0097 H   0  0  0  0  0  0  0  0  0  0  0  0
    3.9668    1.7411   -0.2846 H   0  0  0  0  0  0  0  0  0  0  0  0
    2.1856    0.8258   -2.1908 H   0  0  0  0  0  0  0  0  0  0  0  0
    2.0885   -0.9326   -2.2012 H   0  0  0  0  0  0  0  0  0  0  0  0
    1.2452   -2.0914   -0.0825 H   0  0  0  0  0  0  0  0  0  0  0  0
    2.7816   -1.5529    0.5810 H   0  0  0  0  0  0  0  0  0  0  0  0
    0.8967   -2.0592    2.2507 H   0  0  0  0  0  0  0  0  0  0  0  0
    1.8547   -0.6092    2.5061 H   0  0  0  0  0  0  0  0  0  0  0  0
    0.1107    0.7992    2.1617 H   0  0  0  0  0  0  0  0  0  0  0  0
   -0.8537   -0.5989    2.5906 H   0  0  0  0  0  0  0  0  0  0  0  0
   -0.9858   -1.2390    0.1905 H   0  0  0  0  0  0  0  0  0  0  0  0
   -4.1408    2.3164    1.4413 H   0  0  0  0  0  0  0  0  0  0  0  0
   -2.6402    4.4656   -0.1939 H   0  0  0  0  0  0  0  0  0  0  0  0
   -4.2620    4.6444    0.6086 H   0  0  0  0  0  0  0  0  0  0  0  0
   -5.1748    2.7859   -0.8268 H   0  0  0  0  0  0  0  0  0  0  0  0
   -3.5477    2.6167   -1.6283 H   0  0  0  0  0  0  0  0  0  0  0  0
   -4.1959    0.3367    0.2016 H   0  0  0  0  0  0  0  0  0  0  0  0
   -3.2659   -0.0779   -2.0270 H   0  0  0  0  0  0  0  0  0  0  0  0
   -2.4409   -1.5214   -1.4404 H   0  0  0  0  0  0  0  0  0  0  0  0
   -5.4760   -1.1060   -1.4908 H   0  0  0  0  0  0  0  0  0  0  0  0
   -4.5232   -2.2083   -2.4909 H   0  0  0  0  0  0  0  0  0  0  0  0
   -4.9099   -3.0699    1.4844 H   0  0  0  0  0  0  0  0  0  0  0  0
   -5.7037   -1.6159    0.8683 H   0  0  0  0  0  0  0  0  0  0  0  0
   -2.6992   -2.1018    1.2084 H   0  0  0  0  0  0  0  0  0  0  0  0
   -3.6697   -0.9899    2.1744 H   0  0  0  0  0  0  0  0  0  0  0  0
    0.1624    1.4176   -0.7158 H   0  0  0  0  0  0  0  0  0  0  0  0
   -0.1097   -0.0780   -1.5819 H   0  0  0  0  0  0  0  0  0  0  0  0
    6.4157   -2.0510   -2.1730 H   0  0  0  0  0  0  0  0  0  0  0  0
  1  2  1  0
  2  3  2  0
  3  4  1  0
  4  5  2  0
  5  6  1  0
  6  7  1  0
  7  8  1  0
  8  9  1  0
  9 10  1  0
 10 11  1  0
 11 12  1  0
 12 13  1  0
 13 14  2  0
 13 15  1  0
 15 16  1  0
 16 17  1  0
 12 18  1  0
 18 19  1  0
 19 20  1  0
 20 21  1  0
 21 22  1  0
 22 23  1  0
 11 24  1  0
  5 25  1  0
 25 26  2  0
 26  2  1  0
 24  7  1  0
 17 15  1  0
 23 18  1  0
  1 27  1  0
  1 28  1  0
  1 29  1  0
  3 30  1  0
  4 31  1  0
  6 32  1  0
  6 33  1  0
  8 34  1  0
  8 35  1  0
  9 36  1  0
  9 37  1  0
 10 38  1  0
 10 39  1  0
 11 40  1  0
 15 41  1  0
 16 42  1  0
 16 43  1  0
 17 44  1  0
 17 45  1  0
 18 46  1  0
 19 47  1  0
 19 48  1  0
 20 49  1  0
 20 50  1  0
 22 51  1  0
 22 52  1  0
 23 53  1  0
 23 54  1  0
 24 55  1  0
 24 56  1  0
 26 57  1  0
M  END
$$$$
