
     RDKit          3D

 54 57  0  0  0  0  0  0  0  0999 V2000
    8.5947   -4.5100    1.1229 C   0  0  0  0  0  0  0  0  0  0  0  0
    8.6144   -3.5657    0.0582 O   0  0  0  0  0  0  0  0  0  0  0  0
    7.5987   -2.6491    0.0287 C   0  0  0  0  0  0  0  0  0  0  0  0
    6.5312   -2.5769    0.9237 C   0  0  0  0  0  0  0  0  0  0  0  0
    5.5550   -1.5848    0.7769 C   0  0  0  0  0  0  0  0  0  0  0  0
    5.6314   -0.6526   -0.2685 C   0  0  0  0  0  0  0  0  0  0  0  0
    4.5557    0.3984   -0.4347 C   0  0  0  0  0  0  0  0  0  0  0  0
    3.2470   -0.1623   -0.8690 C   0  0  0  0  0  0  0  0  0  0  0  0
    2.0494    0.1365   -0.4133 N   0  0  0  0  0  0  0  0  0  0  0  0
    1.2130   -0.6417   -1.1540 C   0  0  0  0  0  0  0  0  0  0  0  0
   -0.1447   -0.6637   -1.0284 N   0  0  0  0  0  0  0  0  0  0  0  0
   -0.8710    0.0909   -0.1399 C   0  0  0  0  0  0  0  0  0  0  0  0
   -0.4380    0.8829    0.6891 O   0  0  0  0  0  0  0  0  0  0  0  0
   -2.3623   -0.1833   -0.2710 C   0  0  0  0  0  0  0  0  0  0  0  0
   -3.2255    0.7383    0.5993 C   0  0  0  0  0  0  0  0  0  0  0  0
   -3.2387    2.1975    0.1116 C   0  0  2  0  0  0  0  0  0  0  0  0
   -3.7642    3.1154    1.1029 N   0  0  0  0  0  0  0  0  0  0  0  0
   -4.9897    3.0919    1.6932 C   0  0  0  0  0  0  0  0  0  0  0  0
   -5.1233    3.6560    2.7779 O   0  0  0  0  0  0  0  0  0  0  0  0
   -6.1494    2.4265    1.0504 C   0  0  0  0  0  0  0  0  0  0  0  0
   -7.2425    2.1760    1.9085 C   0  0  0  0  0  0  0  0  0  0  0  0
   -8.4497    1.6740    1.4253 C   0  0  0  0  0  0  0  0  0  0  0  0
   -8.5926    1.4327    0.0684 C   0  0  0  0  0  0  0  0  0  0  0  0
   -7.5231    1.6789   -0.7931 C   0  0  0  0  0  0  0  0  0  0  0  0
   -6.2838    2.1521   -0.3174 C   0  0  0  0  0  0  0  0  0  0  0  0
   -5.3047    2.3033   -1.3124 N   0  0  0  0  0  0  0  0  0  0  0  0
   -3.9481    2.3566   -1.2276 C   0  0  0  0  0  0  0  0  0  0  0  0
   -3.3105    2.3568   -2.2864 O   0  0  0  0  0  0  0  0  0  0  0  0
    1.8254   -1.4180   -2.0530 N   0  0  0  0  0  0  0  0  0  0  0  0
    3.1150   -1.1015   -1.8517 N   0  0  0  0  0  0  0  0  0  0  0  0
    6.7062   -0.7277   -1.1633 C   0  0  0  0  0  0  0  0  0  0  0  0
    7.6792   -1.7196   -1.0116 C   0  0  0  0  0  0  0  0  0  0  0  0
    9.4759   -5.1522    1.0190 H   0  0  0  0  0  0  0  0  0  0  0  0
    7.7078   -5.1493    1.0649 H   0  0  0  0  0  0  0  0  0  0  0  0
    8.6595   -4.0113    2.0964 H   0  0  0  0  0  0  0  0  0  0  0  0
    6.4257   -3.2753    1.7481 H   0  0  0  0  0  0  0  0  0  0  0  0
    4.7286   -1.5452    1.4863 H   0  0  0  0  0  0  0  0  0  0  0  0
    4.4335    0.9296    0.5185 H   0  0  0  0  0  0  0  0  0  0  0  0
    4.8756    1.1547   -1.1641 H   0  0  0  0  0  0  0  0  0  0  0  0
   -0.5942   -1.2900   -1.6773 H   0  0  0  0  0  0  0  0  0  0  0  0
   -2.6550   -0.1079   -1.3248 H   0  0  0  0  0  0  0  0  0  0  0  0
   -2.5288   -1.2215    0.0462 H   0  0  0  0  0  0  0  0  0  0  0  0
   -2.8651    0.7014    1.6361 H   0  0  0  0  0  0  0  0  0  0  0  0
   -4.2417    0.3285    0.6146 H   0  0  0  0  0  0  0  0  0  0  0  0
   -2.2126    2.5475   -0.0503 H   0  0  0  0  0  0  0  0  0  0  0  0
   -3.0746    3.5528    1.7029 H   0  0  0  0  0  0  0  0  0  0  0  0
   -7.1612    2.3976    2.9726 H   0  0  0  0  0  0  0  0  0  0  0  0
   -9.2769    1.4947    2.1069 H   0  0  0  0  0  0  0  0  0  0  0  0
   -9.5340    1.0553   -0.3234 H   0  0  0  0  0  0  0  0  0  0  0  0
   -7.6669    1.4724   -1.8521 H   0  0  0  0  0  0  0  0  0  0  0  0
   -5.6066    2.2500   -2.2786 H   0  0  0  0  0  0  0  0  0  0  0  0
    3.8389   -1.5618   -2.3939 H   0  0  0  0  0  0  0  0  0  0  0  0
    6.8038   -0.0156   -1.9809 H   0  0  0  0  0  0  0  0  0  0  0  0
    8.5136   -1.7673   -1.7088 H   0  0  0  0  0  0  0  0  0  0  0  0
  1  2  1  0
  2  3  1  0
  3  4  2  0
  4  5  1  0
  5  6  2  0
  6  7  1  0
  7  8  1  0
  8  9  2  0
  9 10  1  0
 10 11  1  0
 11 12  1  0
 12 13  2  0
 12 14  1  0
 14 15  1  0
 15 16  1  0
 16 17  1  0
 17 18  1  0
 18 19  2  0
 18 20  1  0
 20 21  2  0
 21 22  1  0
 22 23  2  0
 23 24  1  0
 24 25  2  0
 25 26  1  0
 26 27  1  0
 27 28  2  0
 10 29  2  0
 29 30  1  0
  6 31  1  0
 31 32  2  0
 32  3  1  0
 30  8  1  0
 27 16  1  0
 25 20  1  0
  1 33  1  0
  1 34  1  0
  1 35  1  0
  4 36  1  0
  5 37  1  0
  7 38  1  0
  7 39  1  0
 11 40  1  0
 14 41  1  0
 14 42  1  0
 15 43  1  0
 15 44  1  0
 16 45  1  6
 17 46  1  0
 21 47  1  0
 22 48  1  0
 23 49  1  0
 24 50  1  0
 26 51  1  0
 30 52  1  0
 31 53  1  0
 32 54  1  0
M  END
$$$$
