
     RDKit          3D

 35 37  0  0  0  0  0  0  0  0999 V2000
   -4.0685    2.9568   -0.7207 O   0  0  0  0  0  0  0  0  0  0  0  0
   -3.3215    1.8349   -0.5122 C   0  0  0  0  0  0  0  0  0  0  0  0
   -3.5131    0.7579   -1.3665 C   0  0  0  0  0  0  0  0  0  0  0  0
   -2.7697   -0.4057   -1.1826 C   0  0  0  0  0  0  0  0  0  0  0  0
   -3.0024   -1.4184   -2.0704 O   0  0  0  0  0  0  0  0  0  0  0  0
   -1.8458   -0.5189   -0.1355 C   0  0  0  0  0  0  0  0  0  0  0  0
   -1.6454    0.5973    0.6930 C   0  0  0  0  0  0  0  0  0  0  0  0
   -2.3904    1.7661    0.5168 C   0  0  0  0  0  0  0  0  0  0  0  0
   -0.7458    0.6292    1.7321 O   0  0  0  0  0  0  0  0  0  0  0  0
    0.2665   -0.4076    1.7139 C   0  0  2  0  0  0  0  0  0  0  0  0
    1.4271   -0.0061    0.7958 C   0  0  0  0  0  0  0  0  0  0  0  0
    1.7281    1.3606    0.5999 C   0  0  0  0  0  0  0  0  0  0  0  0
    2.7906    1.7711   -0.2137 C   0  0  0  0  0  0  0  0  0  0  0  0
    3.5782    0.8108   -0.8286 C   0  0  0  0  0  0  0  0  0  0  0  0
    4.6292    1.1430   -1.6370 O   0  0  0  0  0  0  0  0  0  0  0  0
    3.3162   -0.5390   -0.6257 C   0  0  0  0  0  0  0  0  0  0  0  0
    4.1035   -1.4813   -1.2254 O   0  0  0  0  0  0  0  0  0  0  0  0
    2.2636   -0.9526    0.1834 C   0  0  0  0  0  0  0  0  0  0  0  0
   -0.4415   -1.7657    1.5017 C   0  0  2  0  0  0  0  0  0  0  0  0
    0.4066   -2.8932    1.7041 O   0  0  0  0  0  0  0  0  0  0  0  0
   -1.0917   -1.7926    0.1216 C   0  0  0  0  0  0  0  0  0  0  0  0
   -3.8406    3.6139   -0.0429 H   0  0  0  0  0  0  0  0  0  0  0  0
   -4.2355    0.8236   -2.1747 H   0  0  0  0  0  0  0  0  0  0  0  0
   -2.2439   -2.0235   -2.0709 H   0  0  0  0  0  0  0  0  0  0  0  0
   -2.2265    2.6061    1.1839 H   0  0  0  0  0  0  0  0  0  0  0  0
    0.6996   -0.4234    2.7231 H   0  0  0  0  0  0  0  0  0  0  0  0
    1.1244    2.1261    1.0853 H   0  0  0  0  0  0  0  0  0  0  0  0
    2.9798    2.8311   -0.3459 H   0  0  0  0  0  0  0  0  0  0  0  0
    4.6761    2.1134   -1.6843 H   0  0  0  0  0  0  0  0  0  0  0  0
    4.7661   -0.9623   -1.7232 H   0  0  0  0  0  0  0  0  0  0  0  0
    2.1210   -2.0190    0.3253 H   0  0  0  0  0  0  0  0  0  0  0  0
   -1.2369   -1.8410    2.2569 H   0  0  0  0  0  0  0  0  0  0  0  0
   -0.1455   -3.6930    1.6523 H   0  0  0  0  0  0  0  0  0  0  0  0
   -0.3411   -1.9450   -0.6624 H   0  0  0  0  0  0  0  0  0  0  0  0
   -1.7704   -2.6535    0.0752 H   0  0  0  0  0  0  0  0  0  0  0  0
  1  2  1  0
  2  3  2  0
  3  4  1  0
  4  5  1  0
  4  6  2  0
  6  7  1  0
  7  8  2  0
  7  9  1  0
  9 10  1  0
 10 11  1  0
 11 12  2  0
 12 13  1  0
 13 14  2  0
 14 15  1  0
 14 16  1  0
 16 17  1  0
 16 18  2  0
 10 19  1  0
 19 20  1  0
 19 21  1  0
  8  2  1  0
 18 11  1  0
 21  6  1  0
  1 22  1  0
  3 23  1  0
  5 24  1  0
  8 25  1  0
 10 26  1  1
 12 27  1  0
 13 28  1  0
 15 29  1  0
 17 30  1  0
 18 31  1  0
 19 32  1  1
 20 33  1  0
 21 34  1  0
 21 35  1  0
M  END
$$$$
