
     RDKit          3D

 41 42  0  0  0  0  0  0  0  0999 V2000
    5.8370   -1.7767    2.4843 C   0  0  0  0  0  0  0  0  0  0  0  0
    5.2159   -1.0181    1.4537 O   0  0  0  0  0  0  0  0  0  0  0  0
    5.4854   -1.5749    0.1612 C   0  0  0  0  0  0  0  0  0  0  0  0
    4.8046   -0.7187   -0.9045 C   0  0  0  0  0  0  0  0  0  0  0  0
    3.3733   -0.6386   -0.6765 N   0  0  0  0  0  0  0  0  0  0  0  0
    2.4839   -0.4202   -1.7011 C   0  0  0  0  0  0  0  0  0  0  0  0
    2.7831   -0.3835   -2.8863 O   0  0  0  0  0  0  0  0  0  0  0  0
    1.0895   -0.1817   -1.2750 C   0  0  0  0  0  0  0  0  0  0  0  0
    0.8341    0.9020   -0.4209 C   0  0  0  0  0  0  0  0  0  0  0  0
   -0.4741    1.1839   -0.0255 C   0  0  0  0  0  0  0  0  0  0  0  0
   -1.5249    0.3849   -0.4819 C   0  0  0  0  0  0  0  0  0  0  0  0
   -2.8866    0.6580   -0.1217 N   0  0  0  0  0  0  0  0  0  0  0  0
   -3.4881    1.8687   -0.7382 C   0  0  0  0  0  0  0  0  0  0  0  0
   -4.9266    2.1022   -0.2681 C   0  0  0  0  0  0  0  0  0  0  0  0
   -5.6300    0.8098    0.1303 C   0  0  0  0  0  0  0  0  0  0  0  0
   -5.0467    0.2031    1.4025 C   0  0  0  0  0  0  0  0  0  0  0  0
   -3.2692    0.3722    1.5102 S   0  0  0  0  0  6  0  0  0  0  0  0
   -2.7174   -0.9077    1.9034 O   0  0  0  0  0  0  0  0  0  0  0  0
   -2.9615    1.5789    2.2520 O   0  0  0  0  0  0  0  0  0  0  0  0
   -1.2739   -0.6896   -1.3365 C   0  0  0  0  0  0  0  0  0  0  0  0
    0.0349   -0.9781   -1.7348 C   0  0  0  0  0  0  0  0  0  0  0  0
    0.2757   -2.3528   -2.7522 Cl  0  0  0  0  0  0  0  0  0  0  0  0
    5.4703   -2.8070    2.4752 H   0  0  0  0  0  0  0  0  0  0  0  0
    5.5841   -1.3269    3.4474 H   0  0  0  0  0  0  0  0  0  0  0  0
    6.9253   -1.7637    2.3662 H   0  0  0  0  0  0  0  0  0  0  0  0
    5.0979   -2.5993    0.1246 H   0  0  0  0  0  0  0  0  0  0  0  0
    6.5667   -1.5899   -0.0124 H   0  0  0  0  0  0  0  0  0  0  0  0
    5.0006   -1.1290   -1.9008 H   0  0  0  0  0  0  0  0  0  0  0  0
    5.1820    0.3088   -0.8670 H   0  0  0  0  0  0  0  0  0  0  0  0
    3.0759   -0.5584    0.2904 H   0  0  0  0  0  0  0  0  0  0  0  0
    1.6471    1.5389   -0.0798 H   0  0  0  0  0  0  0  0  0  0  0  0
   -0.6653    2.0261    0.6352 H   0  0  0  0  0  0  0  0  0  0  0  0
   -3.5024    1.7158   -1.8251 H   0  0  0  0  0  0  0  0  0  0  0  0
   -2.8809    2.7596   -0.5401 H   0  0  0  0  0  0  0  0  0  0  0  0
   -4.9334    2.7989    0.5777 H   0  0  0  0  0  0  0  0  0  0  0  0
   -5.4846    2.5985   -1.0701 H   0  0  0  0  0  0  0  0  0  0  0  0
   -5.5521    0.0875   -0.6914 H   0  0  0  0  0  0  0  0  0  0  0  0
   -6.6997    0.9940    0.2779 H   0  0  0  0  0  0  0  0  0  0  0  0
   -5.2892   -0.8623    1.4519 H   0  0  0  0  0  0  0  0  0  0  0  0
   -5.4623    0.6944    2.2890 H   0  0  0  0  0  0  0  0  0  0  0  0
   -2.0984   -1.3092   -1.6794 H   0  0  0  0  0  0  0  0  0  0  0  0
  1  2  1  0
  2  3  1  0
  3  4  1  0
  4  5  1  0
  5  6  1  0
  6  7  2  0
  6  8  1  0
  8  9  2  0
  9 10  1  0
 10 11  2  0
 11 12  1  0
 12 13  1  0
 13 14  1  0
 14 15  1  0
 15 16  1  0
 16 17  1  0
 17 18  2  0
 17 19  2  0
 11 20  1  0
 20 21  2  0
 21 22  1  0
 21  8  1  0
 17 12  1  0
  1 23  1  0
  1 24  1  0
  1 25  1  0
  3 26  1  0
  3 27  1  0
  4 28  1  0
  4 29  1  0
  5 30  1  0
  9 31  1  0
 10 32  1  0
 13 33  1  0
 13 34  1  0
 14 35  1  0
 14 36  1  0
 15 37  1  0
 15 38  1  0
 16 39  1  0
 16 40  1  0
 20 41  1  0
M  END
$$$$
