
     RDKit          3D

 44 46  0  0  0  0  0  0  0  0999 V2000
    5.6362    1.1341   -0.8805 C   0  0  0  0  0  0  0  0  0  0  0  0
    4.2253    0.7203   -0.5811 C   0  0  0  0  0  0  0  0  0  0  0  0
    3.8923    0.1997    0.6755 C   0  0  0  0  0  0  0  0  0  0  0  0
    2.5744   -0.1584    0.9672 C   0  0  0  0  0  0  0  0  0  0  0  0
    1.5731    0.0164    0.0088 C   0  0  0  0  0  0  0  0  0  0  0  0
    0.2051   -0.3663    0.3030 C   0  0  0  0  0  0  0  0  0  0  0  0
   -0.8318    0.5460    0.5072 C   0  0  0  0  0  0  0  0  0  0  0  0
   -0.7907    2.0024    0.5728 C   0  0  0  0  0  0  0  0  0  0  0  0
   -1.6440    2.6999    0.0205 O   0  0  0  0  0  0  0  0  0  0  0  0
    0.3421    2.6607    1.3379 C   0  0  0  0  0  0  0  0  0  0  0  0
    0.7089    1.9630    2.4515 F   0  0  0  0  0  0  0  0  0  0  0  0
   -1.9915   -0.2073    0.6223 N   0  0  0  0  0  0  0  0  0  0  0  0
   -3.3432    0.2928    0.8311 C   0  0  0  0  0  0  0  0  0  0  0  0
   -4.2483    0.1707   -0.3943 C   0  0  0  0  0  0  0  0  0  0  0  0
   -3.8338    1.0686   -1.5518 C   0  0  0  0  0  0  0  0  0  0  0  0
   -4.7251    0.8749   -2.6456 O   0  0  0  0  0  0  0  0  0  0  0  0
   -1.6914   -1.5488    0.5933 C   0  0  0  0  0  0  0  0  0  0  0  0
   -2.5834   -2.5446    0.7319 N   0  0  0  0  0  0  0  0  0  0  0  0
   -2.0033   -3.7500    0.6273 C   0  0  0  0  0  0  0  0  0  0  0  0
   -0.7060   -4.0294    0.4073 N   0  0  0  0  0  0  0  0  0  0  0  0
    0.1574   -3.0021    0.2831 C   0  0  0  0  0  0  0  0  0  0  0  0
    1.4860   -3.3277    0.0554 N   0  0  0  0  0  0  0  0  0  0  0  0
   -0.3306   -1.6881    0.3809 C   0  0  0  0  0  0  0  0  0  0  0  0
    1.8975    0.5425   -1.2461 C   0  0  0  0  0  0  0  0  0  0  0  0
    3.2164    0.8993   -1.5355 C   0  0  0  0  0  0  0  0  0  0  0  0
    6.3507    0.5094   -0.3343 H   0  0  0  0  0  0  0  0  0  0  0  0
    5.8577    1.0234   -1.9472 H   0  0  0  0  0  0  0  0  0  0  0  0
    5.7880    2.1793   -0.5939 H   0  0  0  0  0  0  0  0  0  0  0  0
    4.6579    0.0670    1.4372 H   0  0  0  0  0  0  0  0  0  0  0  0
    2.3349   -0.5672    1.9472 H   0  0  0  0  0  0  0  0  0  0  0  0
    1.2152    2.7852    0.6935 H   0  0  0  0  0  0  0  0  0  0  0  0
    0.0126    3.6483    1.6741 H   0  0  0  0  0  0  0  0  0  0  0  0
   -3.7674   -0.2909    1.6579 H   0  0  0  0  0  0  0  0  0  0  0  0
   -3.2972    1.3253    1.1875 H   0  0  0  0  0  0  0  0  0  0  0  0
   -5.2754    0.4238   -0.1024 H   0  0  0  0  0  0  0  0  0  0  0  0
   -4.2934   -0.8680   -0.7441 H   0  0  0  0  0  0  0  0  0  0  0  0
   -2.8262    0.8288   -1.9027 H   0  0  0  0  0  0  0  0  0  0  0  0
   -3.8655    2.1251   -1.2699 H   0  0  0  0  0  0  0  0  0  0  0  0
   -5.6062    1.1721   -2.3616 H   0  0  0  0  0  0  0  0  0  0  0  0
   -2.6619   -4.6070    0.7294 H   0  0  0  0  0  0  0  0  0  0  0  0
    2.0252   -2.6280   -0.4376 H   0  0  0  0  0  0  0  0  0  0  0  0
    1.5754   -4.2825   -0.2701 H   0  0  0  0  0  0  0  0  0  0  0  0
    1.1308    0.6738   -2.0071 H   0  0  0  0  0  0  0  0  0  0  0  0
    3.4531    1.3134   -2.5135 H   0  0  0  0  0  0  0  0  0  0  0  0
  1  2  1  0
  2  3  2  0
  3  4  1  0
  4  5  2  0
  5  6  1  0
  6  7  2  0
  7  8  1  0
  8  9  2  0
  8 10  1  0
 10 11  1  0
  7 12  1  0
 12 13  1  0
 13 14  1  0
 14 15  1  0
 15 16  1  0
 12 17  1  0
 17 18  2  0
 18 19  1  0
 19 20  2  0
 20 21  1  0
 21 22  1  0
 21 23  2  0
  5 24  1  0
 24 25  2  0
 25  2  1  0
 23  6  1  0
 23 17  1  0
  1 26  1  0
  1 27  1  0
  1 28  1  0
  3 29  1  0
  4 30  1  0
 10 31  1  0
 10 32  1  0
 13 33  1  0
 13 34  1  0
 14 35  1  0
 14 36  1  0
 15 37  1  0
 15 38  1  0
 16 39  1  0
 19 40  1  0
 22 41  1  0
 22 42  1  0
 24 43  1  0
 25 44  1  0
M  END
$$$$
