
     RDKit          3D

 58 63  0  0  0  0  0  0  0  0999 V2000
    4.4061    2.1808   -2.3895 O   0  0  0  0  0  0  0  0  0  0  0  0
    3.9048    1.6160   -1.4223 C   0  0  0  0  0  0  0  0  0  0  0  0
    3.0642    0.4254   -1.6523 C   0  0  0  0  0  0  0  0  0  0  0  0
    2.5435   -0.2355   -0.6101 C   0  0  0  0  0  0  0  0  0  0  0  0
    1.7018   -1.4387   -0.7853 C   0  0  0  0  0  0  0  0  0  0  0  0
    2.0018   -2.4176   -1.7413 C   0  0  0  0  0  0  0  0  0  0  0  0
    1.1991   -3.5517   -1.8696 C   0  0  0  0  0  0  0  0  0  0  0  0
    0.0898   -3.7203   -1.0414 C   0  0  0  0  0  0  0  0  0  0  0  0
   -0.6106   -4.8812   -1.2197 O   0  0  0  0  0  0  0  0  0  0  0  0
   -0.2678   -2.7587   -0.0826 C   0  0  0  0  0  0  0  0  0  0  0  0
   -1.4916   -2.8459    0.7596 C   0  0  0  0  0  0  0  0  0  0  0  0
   -1.7436   -3.9419    1.6122 C   0  0  0  0  0  0  0  0  0  0  0  0
   -0.8823   -5.0098    1.5985 O   0  0  0  0  0  0  0  0  0  0  0  0
   -2.8648   -3.9945    2.4449 C   0  0  0  0  0  0  0  0  0  0  0  0
   -3.7738   -2.9434    2.4340 C   0  0  0  0  0  0  0  0  0  0  0  0
   -4.8490   -3.0542    3.2746 O   0  0  0  0  0  0  0  0  0  0  0  0
   -3.5745   -1.8522    1.5854 C   0  0  0  0  0  0  0  0  0  0  0  0
   -4.5315   -0.7393    1.5436 C   0  0  0  0  0  0  0  0  0  0  0  0
   -5.5257   -0.7325    2.2627 O   0  0  0  0  0  0  0  0  0  0  0  0
   -4.2464    0.3628    0.6155 C   0  0  0  0  0  0  0  0  0  0  0  0
   -3.1380    0.3019   -0.1345 C   0  0  0  0  0  0  0  0  0  0  0  0
   -2.7737    1.3703   -1.0885 C   0  0  0  0  0  0  0  0  0  0  0  0
   -2.2417    1.0339   -2.3442 C   0  0  0  0  0  0  0  0  0  0  0  0
   -1.8680    2.0275   -3.2575 C   0  0  0  0  0  0  0  0  0  0  0  0
   -2.0164    3.3661   -2.9115 C   0  0  0  0  0  0  0  0  0  0  0  0
   -1.6668    4.3684   -3.7693 O   0  0  0  0  0  0  0  0  0  0  0  0
   -2.5232    3.7266   -1.6684 C   0  0  0  0  0  0  0  0  0  0  0  0
   -2.9001    2.7317   -0.7581 C   0  0  0  0  0  0  0  0  0  0  0  0
   -2.2439   -0.7541   -0.1116 O   0  0  0  0  0  0  0  0  0  0  0  0
   -2.4507   -1.8051    0.7547 C   0  0  0  0  0  0  0  0  0  0  0  0
    0.5781   -1.6330    0.0384 C   0  0  0  0  0  0  0  0  0  0  0  0
    2.7212    0.1429    0.7094 O   0  0  0  0  0  0  0  0  0  0  0  0
    3.4721    1.2601    0.9781 C   0  0  0  0  0  0  0  0  0  0  0  0
    3.6003    1.5986    2.3278 C   0  0  0  0  0  0  0  0  0  0  0  0
    4.3409    2.7192    2.6852 C   0  0  0  0  0  0  0  0  0  0  0  0
    4.4336    3.0155    4.0119 O   0  0  0  0  0  0  0  0  0  0  0  0
    4.9614    3.5063    1.7177 C   0  0  0  0  0  0  0  0  0  0  0  0
    4.8332    3.1599    0.3682 C   0  0  0  0  0  0  0  0  0  0  0  0
    5.4476    3.9420   -0.5704 O   0  0  0  0  0  0  0  0  0  0  0  0
    4.0855    2.0339   -0.0116 C   0  0  0  0  0  0  0  0  0  0  0  0
    2.9084    0.1456   -2.6872 H   0  0  0  0  0  0  0  0  0  0  0  0
    2.8738   -2.3249   -2.3848 H   0  0  0  0  0  0  0  0  0  0  0  0
    1.4464   -4.3156   -2.6022 H   0  0  0  0  0  0  0  0  0  0  0  0
   -0.9573   -5.1296   -0.3379 H   0  0  0  0  0  0  0  0  0  0  0  0
   -1.0505   -5.5568    2.3887 H   0  0  0  0  0  0  0  0  0  0  0  0
   -3.0523   -4.8467    3.0937 H   0  0  0  0  0  0  0  0  0  0  0  0
   -5.4098   -2.2523    3.1657 H   0  0  0  0  0  0  0  0  0  0  0  0
   -4.9602    1.1759    0.5809 H   0  0  0  0  0  0  0  0  0  0  0  0
   -2.1148   -0.0145   -2.6247 H   0  0  0  0  0  0  0  0  0  0  0  0
   -1.4557    1.7363   -4.2197 H   0  0  0  0  0  0  0  0  0  0  0  0
   -1.3965    3.9762   -4.6141 H   0  0  0  0  0  0  0  0  0  0  0  0
   -2.6196    4.7791   -1.4055 H   0  0  0  0  0  0  0  0  0  0  0  0
   -3.2811    3.0363    0.2135 H   0  0  0  0  0  0  0  0  0  0  0  0
    0.3424   -0.8759    0.7858 H   0  0  0  0  0  0  0  0  0  0  0  0
    3.1232    0.9921    3.0959 H   0  0  0  0  0  0  0  0  0  0  0  0
    4.9252    3.8477    4.1224 H   0  0  0  0  0  0  0  0  0  0  0  0
    5.5396    4.3793    2.0067 H   0  0  0  0  0  0  0  0  0  0  0  0
    5.9381    4.6675   -0.1522 H   0  0  0  0  0  0  0  0  0  0  0  0
  1  2  2  0
  2  3  1  0
  3  4  2  0
  4  5  1  0
  5  6  2  0
  6  7  1  0
  7  8  2  0
  8  9  1  0
  8 10  1  0
 10 11  1  0
 11 12  2  0
 12 13  1  0
 12 14  1  0
 14 15  2  0
 15 16  1  0
 15 17  1  0
 17 18  1  0
 18 19  2  0
 18 20  1  0
 20 21  2  0
 21 22  1  0
 22 23  2  0
 23 24  1  0
 24 25  2  0
 25 26  1  0
 25 27  1  0
 27 28  2  0
 21 29  1  0
 29 30  1  0
 10 31  2  0
  4 32  1  0
 32 33  1  0
 33 34  2  0
 34 35  1  0
 35 36  1  0
 35 37  2  0
 37 38  1  0
 38 39  1  0
 38 40  2  0
 40  2  1  0
 31  5  1  0
 40 33  1  0
 30 11  1  0
 30 17  2  0
 28 22  1  0
  3 41  1  0
  6 42  1  0
  7 43  1  0
  9 44  1  0
 13 45  1  0
 14 46  1  0
 16 47  1  0
 20 48  1  0
 23 49  1  0
 24 50  1  0
 26 51  1  0
 27 52  1  0
 28 53  1  0
 31 54  1  0
 34 55  1  0
 36 56  1  0
 37 57  1  0
 39 58  1  0
M  END
$$$$
