
     RDKit          3D

 58 60  0  0  0  0  0  0  0  0999 V2000
    8.6588    1.0016    0.8208 C   0  0  0  0  0  0  0  0  0  0  0  0
    7.4183    0.5485    0.1071 C   0  0  0  0  0  0  0  0  0  0  0  0
    7.0275   -0.7921    0.1722 C   0  0  0  0  0  0  0  0  0  0  0  0
    5.8551   -1.2224   -0.4519 C   0  0  0  0  0  0  0  0  0  0  0  0
    5.0537   -0.3219   -1.1610 C   0  0  0  0  0  0  0  0  0  0  0  0
    3.7783   -0.7889   -1.8174 C   0  0  0  0  0  0  0  0  0  0  0  0
    2.6165   -0.2317   -1.1599 N   0  0  0  0  0  0  0  0  0  0  0  0
    2.0556   -0.8388   -0.0574 C   0  0  0  0  0  0  0  0  0  0  0  0
    2.3906   -1.9422    0.3532 O   0  0  0  0  0  0  0  0  0  0  0  0
    0.9370   -0.0159    0.5840 C   0  0  0  0  0  0  0  0  0  0  0  0
    0.6583   -0.5014    2.0056 C   0  0  0  0  0  0  0  0  0  0  0  0
   -0.3126    0.0203   -0.3351 C   0  0  0  0  0  0  0  0  0  0  0  0
   -1.3791    1.0249    0.1493 C   0  0  0  0  0  0  0  0  0  0  0  0
   -2.6262    0.3466    0.7041 C   0  0  0  0  0  0  0  0  0  0  0  0
   -3.2576   -0.5494   -0.2983 N   0  0  0  0  0  0  0  0  0  0  0  0
   -4.6463    0.0532   -1.0787 S   0  0  0  0  0  6  0  0  0  0  0  0
   -4.3292    1.3707   -1.5844 O   0  0  0  0  0  0  0  0  0  0  0  0
   -5.1746   -0.9856   -1.9340 O   0  0  0  0  0  0  0  0  0  0  0  0
   -5.8727    0.2897    0.0765 C   0  0  0  0  0  0  0  0  0  0  0  0
   -6.2608   -0.6142    1.0841 C   0  0  0  0  0  0  0  0  0  0  0  0
   -5.7316   -1.9609    1.3885 C   0  0  0  0  0  0  0  0  0  0  0  0
   -7.2453   -0.0965    1.8315 N   0  0  0  0  0  0  0  0  0  0  0  0
   -7.5278    1.1414    1.2850 O   0  0  0  0  0  0  0  0  0  0  0  0
   -6.7094    1.3685    0.2217 C   0  0  0  0  0  0  0  0  0  0  0  0
   -6.8989    2.6492   -0.4833 C   0  0  0  0  0  0  0  0  0  0  0  0
   -2.3103   -1.2341   -1.2214 C   0  0  0  0  0  0  0  0  0  0  0  0
   -0.9298   -1.3687   -0.5871 C   0  0  0  0  0  0  0  0  0  0  0  0
    5.4488    1.0209   -1.2265 C   0  0  0  0  0  0  0  0  0  0  0  0
    6.6167    1.4519   -0.5906 C   0  0  0  0  0  0  0  0  0  0  0  0
    8.9351    2.0217    0.5370 H   0  0  0  0  0  0  0  0  0  0  0  0
    9.5023    0.3495    0.5705 H   0  0  0  0  0  0  0  0  0  0  0  0
    8.4967    0.9777    1.9032 H   0  0  0  0  0  0  0  0  0  0  0  0
    7.6307   -1.5139    0.7245 H   0  0  0  0  0  0  0  0  0  0  0  0
    5.5638   -2.2680   -0.3683 H   0  0  0  0  0  0  0  0  0  0  0  0
    3.7579   -0.4611   -2.8633 H   0  0  0  0  0  0  0  0  0  0  0  0
    3.7086   -1.8834   -1.8160 H   0  0  0  0  0  0  0  0  0  0  0  0
    2.4316    0.7487   -1.3104 H   0  0  0  0  0  0  0  0  0  0  0  0
    1.3232    1.0095    0.6747 H   0  0  0  0  0  0  0  0  0  0  0  0
    1.5726   -0.4477    2.6069 H   0  0  0  0  0  0  0  0  0  0  0  0
   -0.0935    0.1178    2.4989 H   0  0  0  0  0  0  0  0  0  0  0  0
    0.3187   -1.5408    2.0310 H   0  0  0  0  0  0  0  0  0  0  0  0
    0.0243    0.3947   -1.3137 H   0  0  0  0  0  0  0  0  0  0  0  0
   -1.6698    1.6561   -0.7017 H   0  0  0  0  0  0  0  0  0  0  0  0
   -0.9675    1.7118    0.8980 H   0  0  0  0  0  0  0  0  0  0  0  0
   -3.3329    1.1095    1.0505 H   0  0  0  0  0  0  0  0  0  0  0  0
   -2.3800   -0.2570    1.5865 H   0  0  0  0  0  0  0  0  0  0  0  0
   -5.5696   -2.5356    0.4716 H   0  0  0  0  0  0  0  0  0  0  0  0
   -4.7795   -1.8879    1.9200 H   0  0  0  0  0  0  0  0  0  0  0  0
   -6.4259   -2.5286    2.0174 H   0  0  0  0  0  0  0  0  0  0  0  0
   -7.9115    3.0412   -0.3160 H   0  0  0  0  0  0  0  0  0  0  0  0
   -6.7652    2.5258   -1.5643 H   0  0  0  0  0  0  0  0  0  0  0  0
   -6.1818    3.3922   -0.1234 H   0  0  0  0  0  0  0  0  0  0  0  0
   -2.7032   -2.2347   -1.4377 H   0  0  0  0  0  0  0  0  0  0  0  0
   -2.2299   -0.6815   -2.1667 H   0  0  0  0  0  0  0  0  0  0  0  0
   -1.0189   -1.9416    0.3424 H   0  0  0  0  0  0  0  0  0  0  0  0
   -0.2788   -1.9483   -1.2526 H   0  0  0  0  0  0  0  0  0  0  0  0
    4.8464    1.7480   -1.7722 H   0  0  0  0  0  0  0  0  0  0  0  0
    6.8930    2.5030   -0.6437 H   0  0  0  0  0  0  0  0  0  0  0  0
  1  2  1  0
  2  3  2  0
  3  4  1  0
  4  5  2  0
  5  6  1  0
  6  7  1  0
  7  8  1  0
  8  9  2  0
  8 10  1  0
 10 11  1  0
 10 12  1  0
 12 13  1  0
 13 14  1  0
 14 15  1  0
 15 16  1  0
 16 17  2  0
 16 18  2  0
 16 19  1  0
 19 20  1  0
 20 21  1  0
 20 22  2  0
 22 23  1  0
 23 24  1  0
 24 25  1  0
 15 26  1  0
 26 27  1  0
  5 28  1  0
 28 29  2  0
 29  2  1  0
 27 12  1  0
 24 19  2  0
  1 30  1  0
  1 31  1  0
  1 32  1  0
  3 33  1  0
  4 34  1  0
  6 35  1  0
  6 36  1  0
  7 37  1  0
 10 38  1  0
 11 39  1  0
 11 40  1  0
 11 41  1  0
 12 42  1  0
 13 43  1  0
 13 44  1  0
 14 45  1  0
 14 46  1  0
 21 47  1  0
 21 48  1  0
 21 49  1  0
 25 50  1  0
 25 51  1  0
 25 52  1  0
 26 53  1  0
 26 54  1  0
 27 55  1  0
 27 56  1  0
 28 57  1  0
 29 58  1  0
M  END
$$$$
