
     RDKit          3D

 32 33  0  0  0  0  0  0  0  0999 V2000
   -3.5207   -2.0507    0.6467 C   0  0  0  0  0  0  0  0  0  0  0  0
   -2.9553   -0.7260    0.2534 C   0  0  0  0  0  0  0  0  0  0  0  0
   -1.6839   -0.5245   -0.1141 C   0  0  0  0  0  0  0  0  0  0  0  0
   -1.2023    0.7190   -0.4747 N   0  0  0  0  0  0  0  0  0  0  0  0
    0.1969    0.9243   -0.8203 C   0  0  1  0  0  0  0  0  0  0  0  0
    1.0407    1.3776    0.3580 C   0  0  0  0  0  0  0  0  0  0  0  0
    2.4258    0.9687   -0.0892 C   0  0  1  0  0  0  0  0  0  0  0  0
    3.3186    0.8882    1.0677 N   0  0  0  0  0  0  0  0  0  0  0  0
    4.5378    0.8598    0.8143 N   0  0  0  0  0  4  0  0  0  0  0  0
    5.6498    0.8512    0.5657 N   0  0  0  0  0  2  0  0  0  0  0  0
    2.1553   -0.3599   -0.8098 C   0  0  1  0  0  0  0  0  0  0  0  0
    2.2730   -1.6268    0.0469 C   0  0  0  0  0  0  0  0  0  0  0  0
    3.6316   -2.0066    0.2332 O   0  0  0  0  0  0  0  0  0  0  0  0
    0.8013   -0.2864   -1.3106 O   0  0  0  0  0  0  0  0  0  0  0  0
   -2.0088    1.8483   -0.4387 C   0  0  0  0  0  0  0  0  0  0  0  0
   -1.6113    2.9836   -0.6929 O   0  0  0  0  0  0  0  0  0  0  0  0
   -3.3136    1.6356   -0.0861 N   0  0  0  0  0  0  0  0  0  0  0  0
   -3.8662    0.4418    0.2762 C   0  0  0  0  0  0  0  0  0  0  0  0
   -5.0422    0.3422    0.6080 O   0  0  0  0  0  0  0  0  0  0  0  0
   -4.3424   -2.3308   -0.0205 H   0  0  0  0  0  0  0  0  0  0  0  0
   -3.9008   -2.0168    1.6729 H   0  0  0  0  0  0  0  0  0  0  0  0
   -2.7677   -2.8444    0.5975 H   0  0  0  0  0  0  0  0  0  0  0  0
   -0.9802   -1.3515   -0.1432 H   0  0  0  0  0  0  0  0  0  0  0  0
    0.2613    1.6585   -1.6338 H   0  0  0  0  0  0  0  0  0  0  0  0
    0.9509    2.4498    0.5590 H   0  0  0  0  0  0  0  0  0  0  0  0
    0.7557    0.8481    1.2765 H   0  0  0  0  0  0  0  0  0  0  0  0
    2.7909    1.7117   -0.8124 H   0  0  0  0  0  0  0  0  0  0  0  0
    2.8289   -0.4502   -1.6702 H   0  0  0  0  0  0  0  0  0  0  0  0
    1.7455   -2.4638   -0.4248 H   0  0  0  0  0  0  0  0  0  0  0  0
    1.8116   -1.4843    1.0298 H   0  0  0  0  0  0  0  0  0  0  0  0
    3.9339   -2.4302   -0.5895 H   0  0  0  0  0  0  0  0  0  0  0  0
   -3.9138    2.4445   -0.0570 H   0  0  0  0  0  0  0  0  0  0  0  0
  1  2  1  0
  2  3  2  0
  3  4  1  0
  4  5  1  0
  5  6  1  0
  6  7  1  0
  7  8  1  0
  8  9  2  0
  9 10  2  0
  7 11  1  0
 11 12  1  0
 12 13  1  0
 11 14  1  0
  4 15  1  0
 15 16  2  0
 15 17  1  0
 17 18  1  0
 18 19  2  0
 18  2  1  0
 14  5  1  0
  1 20  1  0
  1 21  1  0
  1 22  1  0
  3 23  1  0
  5 24  1  6
  6 25  1  0
  6 26  1  0
  7 27  1  6
 11 28  1  6
 12 29  1  0
 12 30  1  0
 13 31  1  0
 17 32  1  0
M  CHG  2   9   1  10  -1
M  END
$$$$
