
     RDKit          3D

 52 55  0  0  0  0  0  0  0  0999 V2000
   -2.7393   -2.7396   -0.4030 O   0  0  0  0  0  0  0  0  0  0  0  0
   -2.6731   -1.5363   -0.6460 C   0  0  0  0  0  0  0  0  0  0  0  0
   -1.8056   -1.0378   -1.8046 C   0  0  0  0  0  0  0  0  0  0  0  0
   -0.8682   -0.0221   -1.3858 N   0  0  0  0  0  0  0  0  0  0  0  0
    0.5013   -0.2230   -1.3526 N   0  0  0  0  0  0  0  0  0  0  0  0
    0.9740    0.9694   -1.1227 C   0  0  0  0  0  0  0  0  0  0  0  0
    2.4339    1.4062   -0.9646 C   0  0  0  0  0  0  0  0  0  0  0  0
    3.5000    0.5067   -1.0772 N   0  0  0  0  0  0  0  0  0  0  0  0
    3.3876   -0.8168   -1.6793 C   0  0  0  0  0  0  0  0  0  0  0  0
    3.3185   -1.9107   -0.6122 C   0  0  0  0  0  0  0  0  0  0  0  0
    4.0729   -1.6123    0.6877 C   0  0  0  0  0  0  0  0  0  0  0  0
    5.5464   -1.2363    0.5319 C   0  0  0  0  0  0  0  0  0  0  0  0
    5.8815   -0.1634   -0.5088 C   0  0  0  0  0  0  0  0  0  0  0  0
    4.8455    0.9540   -0.6687 C   0  0  0  0  0  0  0  0  0  0  0  0
    2.6780    2.6747   -0.7021 N   0  0  0  0  0  0  0  0  0  0  0  0
    1.6315    3.5638   -0.6095 C   0  0  0  0  0  0  0  0  0  0  0  0
    0.3417    3.2413   -0.7622 C   0  0  0  0  0  0  0  0  0  0  0  0
    0.0395    1.9443   -1.0119 N   0  0  0  0  0  0  0  0  0  0  0  0
   -1.1649    1.3353   -1.2116 C   0  0  0  0  0  0  0  0  0  0  0  0
   -2.2846    1.8236   -1.2376 O   0  0  0  0  0  0  0  0  0  0  0  0
   -3.4217   -0.5382   -0.0273 N   0  0  0  0  0  0  0  0  0  0  0  0
   -4.3141   -0.6768    1.0697 C   0  0  0  0  0  0  0  0  0  0  0  0
   -4.4394   -1.8836    1.7732 C   0  0  0  0  0  0  0  0  0  0  0  0
   -5.3177   -2.0122    2.8546 C   0  0  0  0  0  0  0  0  0  0  0  0
   -6.0863   -0.9319    3.2615 C   0  0  0  0  0  0  0  0  0  0  0  0
   -5.9726    0.2788    2.5861 C   0  0  0  0  0  0  0  0  0  0  0  0
   -5.0955    0.4234    1.4872 C   0  0  0  0  0  0  0  0  0  0  0  0
   -5.0184    1.7701    0.8137 C   0  0  0  0  0  0  0  0  0  0  0  0
   -5.0738    1.6850   -0.5459 F   0  0  0  0  0  0  0  0  0  0  0  0
   -3.8636    2.4303    1.1107 F   0  0  0  0  0  0  0  0  0  0  0  0
   -6.0261    2.6183    1.1677 F   0  0  0  0  0  0  0  0  0  0  0  0
   -1.2487   -1.8806   -2.2265 H   0  0  0  0  0  0  0  0  0  0  0  0
   -2.4632   -0.6233   -2.5763 H   0  0  0  0  0  0  0  0  0  0  0  0
    4.2401   -0.9995   -2.3435 H   0  0  0  0  0  0  0  0  0  0  0  0
    2.5408   -0.8932   -2.3658 H   0  0  0  0  0  0  0  0  0  0  0  0
    2.2685   -2.0868   -0.3484 H   0  0  0  0  0  0  0  0  0  0  0  0
    3.6821   -2.8510   -1.0462 H   0  0  0  0  0  0  0  0  0  0  0  0
    3.5554   -0.8108    1.2303 H   0  0  0  0  0  0  0  0  0  0  0  0
    4.0048   -2.4924    1.3410 H   0  0  0  0  0  0  0  0  0  0  0  0
    6.1261   -2.1374    0.2950 H   0  0  0  0  0  0  0  0  0  0  0  0
    5.9093   -0.8975    1.5115 H   0  0  0  0  0  0  0  0  0  0  0  0
    6.8425    0.2915   -0.2295 H   0  0  0  0  0  0  0  0  0  0  0  0
    6.0768   -0.6442   -1.4757 H   0  0  0  0  0  0  0  0  0  0  0  0
    5.2173    1.6646   -1.4172 H   0  0  0  0  0  0  0  0  0  0  0  0
    4.7799    1.4913    0.2868 H   0  0  0  0  0  0  0  0  0  0  0  0
    1.9100    4.5941   -0.4034 H   0  0  0  0  0  0  0  0  0  0  0  0
   -0.4730    3.9529   -0.6922 H   0  0  0  0  0  0  0  0  0  0  0  0
   -3.3590    0.3855   -0.4611 H   0  0  0  0  0  0  0  0  0  0  0  0
   -3.8532   -2.7602    1.5141 H   0  0  0  0  0  0  0  0  0  0  0  0
   -5.3938   -2.9627    3.3764 H   0  0  0  0  0  0  0  0  0  0  0  0
   -6.7694   -1.0309    4.1016 H   0  0  0  0  0  0  0  0  0  0  0  0
   -6.5806    1.1209    2.9187 H   0  0  0  0  0  0  0  0  0  0  0  0
  1  2  2  0
  2  3  1  0
  3  4  1  0
  4  5  1  0
  5  6  2  0
  6  7  1  0
  7  8  1  0
  8  9  1  0
  9 10  1  0
 10 11  1  0
 11 12  1  0
 12 13  1  0
 13 14  1  0
  7 15  2  0
 15 16  1  0
 16 17  2  0
 17 18  1  0
 18 19  1  0
 19 20  2  0
  2 21  1  0
 21 22  1  0
 22 23  2  0
 23 24  1  0
 24 25  2  0
 25 26  1  0
 26 27  2  0
 27 28  1  0
 28 29  1  0
 28 30  1  0
 28 31  1  0
 19  4  1  0
 27 22  1  0
 18  6  1  0
 14  8  1  0
  3 32  1  0
  3 33  1  0
  9 34  1  0
  9 35  1  0
 10 36  1  0
 10 37  1  0
 11 38  1  0
 11 39  1  0
 12 40  1  0
 12 41  1  0
 13 42  1  0
 13 43  1  0
 14 44  1  0
 14 45  1  0
 16 46  1  0
 17 47  1  0
 21 48  1  0
 23 49  1  0
 24 50  1  0
 25 51  1  0
 26 52  1  0
M  END
$$$$
