
     RDKit          3D

 49 51  0  0  0  0  0  0  0  0999 V2000
   -2.5559    3.3552   -0.4975 C   0  0  0  0  0  0  0  0  0  0  0  0
   -2.5602    2.2397    0.3785 O   0  0  0  0  0  0  0  0  0  0  0  0
   -3.8543    1.6573    0.5054 C   0  0  0  0  0  0  0  0  0  0  0  0
   -3.7942    0.3920    1.3708 C   0  0  0  0  0  0  0  0  0  0  0  0
   -3.0964   -0.7050    0.7137 N   0  0  0  0  0  0  0  0  0  0  0  0
   -1.7474   -0.9003    0.9088 C   0  0  0  0  0  0  0  0  0  0  0  0
   -1.0918   -0.2676    1.7269 O   0  0  0  0  0  0  0  0  0  0  0  0
   -1.2141   -1.8907    0.0663 N   0  0  0  0  0  0  0  0  0  0  0  0
   -1.9587   -3.1505   -0.0448 C   0  0  0  0  0  0  0  0  0  0  0  0
   -1.5331   -4.0057   -1.2277 C   0  0  0  0  0  0  0  0  0  0  0  0
   -0.0353   -4.2558   -1.2045 C   0  0  0  0  0  0  0  0  0  0  0  0
    0.6998   -2.9226   -1.1984 C   0  0  0  0  0  0  0  0  0  0  0  0
    0.2837   -1.9801   -0.0245 C   0  0  0  0  0  0  0  0  0  0  0  0
    0.8855   -2.5322    1.2913 C   0  0  0  0  0  0  0  0  0  0  0  0
    0.8658   -0.6022   -0.3543 C   0  0  0  0  0  0  0  0  0  0  0  0
    0.3795    0.1736   -1.3405 N   0  0  0  0  0  0  0  0  0  0  0  0
    1.1763    1.3156   -1.2712 O   0  0  0  0  0  0  0  0  0  0  0  0
    2.0929    1.0974   -0.2817 C   0  0  0  0  0  0  0  0  0  0  0  0
    3.0513    2.1639   -0.0129 C   0  0  0  0  0  0  0  0  0  0  0  0
    4.0009    1.9966    1.0105 C   0  0  0  0  0  0  0  0  0  0  0  0
    4.9338    2.9979    1.2924 C   0  0  0  0  0  0  0  0  0  0  0  0
    4.9208    4.1723    0.5515 C   0  0  0  0  0  0  0  0  0  0  0  0
    5.8146    5.1329    0.8195 F   0  0  0  0  0  0  0  0  0  0  0  0
    3.9926    4.3647   -0.4642 C   0  0  0  0  0  0  0  0  0  0  0  0
    3.0588    3.3630   -0.7462 C   0  0  0  0  0  0  0  0  0  0  0  0
    1.9775   -0.0873    0.2764 N   0  0  0  0  0  0  0  0  0  0  0  0
   -1.5403    3.7582   -0.5380 H   0  0  0  0  0  0  0  0  0  0  0  0
   -3.2280    4.1356   -0.1282 H   0  0  0  0  0  0  0  0  0  0  0  0
   -2.8503    3.0510   -1.5065 H   0  0  0  0  0  0  0  0  0  0  0  0
   -4.2469    1.4111   -0.4885 H   0  0  0  0  0  0  0  0  0  0  0  0
   -4.5230    2.3852    0.9787 H   0  0  0  0  0  0  0  0  0  0  0  0
   -4.8120    0.0365    1.5601 H   0  0  0  0  0  0  0  0  0  0  0  0
   -3.3132    0.6074    2.3306 H   0  0  0  0  0  0  0  0  0  0  0  0
   -3.3850   -0.9035   -0.2323 H   0  0  0  0  0  0  0  0  0  0  0  0
   -3.0343   -2.9653   -0.1212 H   0  0  0  0  0  0  0  0  0  0  0  0
   -1.8127   -3.6997    0.8936 H   0  0  0  0  0  0  0  0  0  0  0  0
   -1.8063   -3.5005   -2.1625 H   0  0  0  0  0  0  0  0  0  0  0  0
   -2.0703   -4.9604   -1.2081 H   0  0  0  0  0  0  0  0  0  0  0  0
    0.2389   -4.8535   -0.3283 H   0  0  0  0  0  0  0  0  0  0  0  0
    0.2565   -4.8341   -2.0885 H   0  0  0  0  0  0  0  0  0  0  0  0
    0.4954   -2.4319   -2.1607 H   0  0  0  0  0  0  0  0  0  0  0  0
    1.7831   -3.1006   -1.1791 H   0  0  0  0  0  0  0  0  0  0  0  0
    1.9677   -2.6831    1.1984 H   0  0  0  0  0  0  0  0  0  0  0  0
    0.4421   -3.4926    1.5723 H   0  0  0  0  0  0  0  0  0  0  0  0
    0.7339   -1.8519    2.1354 H   0  0  0  0  0  0  0  0  0  0  0  0
    4.0119    1.0792    1.5983 H   0  0  0  0  0  0  0  0  0  0  0  0
    5.6643    2.8675    2.0844 H   0  0  0  0  0  0  0  0  0  0  0  0
    3.9992    5.2916   -1.0292 H   0  0  0  0  0  0  0  0  0  0  0  0
    2.3371    3.5317   -1.5432 H   0  0  0  0  0  0  0  0  0  0  0  0
  1  2  1  0
  2  3  1  0
  3  4  1  0
  4  5  1  0
  5  6  1  0
  6  7  2  0
  6  8  1  0
  8  9  1  0
  9 10  1  0
 10 11  1  0
 11 12  1  0
 12 13  1  0
 13 14  1  0
 13 15  1  0
 15 16  2  0
 16 17  1  0
 17 18  1  0
 18 19  1  0
 19 20  2  0
 20 21  1  0
 21 22  2  0
 22 23  1  0
 22 24  1  0
 24 25  2  0
 18 26  2  0
 13  8  1  0
 26 15  1  0
 25 19  1  0
  1 27  1  0
  1 28  1  0
  1 29  1  0
  3 30  1  0
  3 31  1  0
  4 32  1  0
  4 33  1  0
  5 34  1  0
  9 35  1  0
  9 36  1  0
 10 37  1  0
 10 38  1  0
 11 39  1  0
 11 40  1  0
 12 41  1  0
 12 42  1  0
 14 43  1  0
 14 44  1  0
 14 45  1  0
 20 46  1  0
 21 47  1  0
 24 48  1  0
 25 49  1  0
M  END
$$$$
