
     RDKit          3D

 30 32  0  0  0  0  0  0  0  0999 V2000
   -1.9452    0.1341   -2.7479 O   0  0  0  0  0  0  0  0  0  0  0  0
   -1.3650    0.0766   -1.6657 C   0  0  0  0  0  0  0  0  0  0  0  0
    0.1147    0.0706   -1.6036 C   0  0  0  0  0  0  0  0  0  0  0  0
    0.7946    0.1461   -2.8052 O   0  0  0  0  0  0  0  0  0  0  0  0
    0.7065    0.0098   -0.3961 C   0  0  0  0  0  0  0  0  0  0  0  0
    2.1736    0.0104   -0.2099 C   0  0  0  0  0  0  0  0  0  0  0  0
    2.7527    0.8383    0.7648 C   0  0  0  0  0  0  0  0  0  0  0  0
    4.1340    0.8376    0.9763 C   0  0  0  0  0  0  0  0  0  0  0  0
    4.9545    0.0038    0.2205 C   0  0  0  0  0  0  0  0  0  0  0  0
    4.3950   -0.8307   -0.7442 C   0  0  0  0  0  0  0  0  0  0  0  0
    3.0134   -0.8301   -0.9553 C   0  0  0  0  0  0  0  0  0  0  0  0
    0.0100   -0.0368    0.8064 O   0  0  0  0  0  0  0  0  0  0  0  0
   -1.3610   -0.0410    0.7804 C   0  0  0  0  0  0  0  0  0  0  0  0
   -2.0193   -0.1010    2.0082 C   0  0  0  0  0  0  0  0  0  0  0  0
   -3.4113   -0.1060    2.0410 C   0  0  0  0  0  0  0  0  0  0  0  0
   -4.0148   -0.1654    3.2621 O   0  0  0  0  0  0  0  0  0  0  0  0
   -4.1578   -0.0519    0.8669 C   0  0  0  0  0  0  0  0  0  0  0  0
   -3.4946    0.0082   -0.3565 C   0  0  0  0  0  0  0  0  0  0  0  0
   -4.2765    0.0607   -1.4788 O   0  0  0  0  0  0  0  0  0  0  0  0
   -2.0965    0.0133   -0.3996 C   0  0  0  0  0  0  0  0  0  0  0  0
    0.1000    0.2065   -3.4939 H   0  0  0  0  0  0  0  0  0  0  0  0
    2.1303    1.4973    1.3665 H   0  0  0  0  0  0  0  0  0  0  0  0
    4.5674    1.4881    1.7315 H   0  0  0  0  0  0  0  0  0  0  0  0
    6.0290    0.0031    0.3838 H   0  0  0  0  0  0  0  0  0  0  0  0
    5.0322   -1.4843   -1.3343 H   0  0  0  0  0  0  0  0  0  0  0  0
    2.5992   -1.4951   -1.7100 H   0  0  0  0  0  0  0  0  0  0  0  0
   -1.4538   -0.1445    2.9351 H   0  0  0  0  0  0  0  0  0  0  0  0
   -4.9792   -0.1656    3.1375 H   0  0  0  0  0  0  0  0  0  0  0  0
   -5.2432   -0.0550    0.8837 H   0  0  0  0  0  0  0  0  0  0  0  0
   -3.6887    0.1028   -2.2660 H   0  0  0  0  0  0  0  0  0  0  0  0
  1  2  2  0
  2  3  1  0
  3  4  1  0
  3  5  2  0
  5  6  1  0
  6  7  2  0
  7  8  1  0
  8  9  2  0
  9 10  1  0
 10 11  2  0
  5 12  1  0
 12 13  1  0
 13 14  2  0
 14 15  1  0
 15 16  1  0
 15 17  2  0
 17 18  1  0
 18 19  1  0
 18 20  2  0
 20  2  1  0
 11  6  1  0
 20 13  1  0
  4 21  1  0
  7 22  1  0
  8 23  1  0
  9 24  1  0
 10 25  1  0
 11 26  1  0
 14 27  1  0
 16 28  1  0
 17 29  1  0
 19 30  1  0
M  END
$$$$
