
     RDKit          3D

 43 44  0  0  0  0  0  0  0  0999 V2000
   -3.0083   -1.9094   -1.4424 C   0  0  0  0  0  0  0  0  0  0  0  0
   -1.4994   -1.5750   -1.2854 C   0  0  0  0  0  0  0  0  0  0  0  0
   -0.9913   -1.3640   -2.7340 C   0  0  0  0  0  0  0  0  0  0  0  0
   -0.8099   -2.8259   -0.7046 C   0  0  0  0  0  0  0  0  0  0  0  0
   -1.2916   -0.2934   -0.3527 C   0  0  0  0  0  0  0  0  0  0  0  0
   -1.6842    0.8545   -1.1302 O   0  0  0  0  0  0  0  0  0  0  0  0
    0.1702   -0.0544    0.1396 C   0  0  0  0  0  0  0  0  0  0  0  0
    1.2453    0.1644   -0.9288 C   0  0  0  0  0  0  0  0  0  0  0  0
    2.5087    0.7401   -0.3268 C   0  0  0  0  0  0  0  0  0  0  0  0
    3.5051   -0.1049    0.1818 C   0  0  0  0  0  0  0  0  0  0  0  0
    4.6605    0.4313    0.7545 C   0  0  0  0  0  0  0  0  0  0  0  0
    4.8214    1.8134    0.8253 C   0  0  0  0  0  0  0  0  0  0  0  0
    6.2450    2.4726    1.5323 Cl  0  0  0  0  0  0  0  0  0  0  0  0
    3.8366    2.6647    0.3295 C   0  0  0  0  0  0  0  0  0  0  0  0
    2.6815    2.1291   -0.2439 C   0  0  0  0  0  0  0  0  0  0  0  0
   -2.2330   -0.3699    0.9016 C   0  0  0  0  0  0  0  0  0  0  0  0
   -2.1114    0.7366    1.8334 N   0  0  0  0  0  0  0  0  0  0  0  0
   -1.8674    0.6847    3.1688 C   0  0  0  0  0  0  0  0  0  0  0  0
   -1.8476    1.9037    3.6559 N   0  0  0  0  0  0  0  0  0  0  0  0
   -2.0950    2.6799    2.5596 C   0  0  0  0  0  0  0  0  0  0  0  0
   -2.2615    2.0104    1.4144 N   0  0  0  0  0  0  0  0  0  0  0  0
   -3.5764   -1.0363   -1.7816 H   0  0  0  0  0  0  0  0  0  0  0  0
   -3.1647   -2.7080   -2.1779 H   0  0  0  0  0  0  0  0  0  0  0  0
   -3.4480   -2.2681   -0.5059 H   0  0  0  0  0  0  0  0  0  0  0  0
   -1.2366   -2.2295   -3.3624 H   0  0  0  0  0  0  0  0  0  0  0  0
    0.0894   -1.2496   -2.7985 H   0  0  0  0  0  0  0  0  0  0  0  0
   -1.4543   -0.4901   -3.2044 H   0  0  0  0  0  0  0  0  0  0  0  0
    0.2784   -2.7163   -0.6798 H   0  0  0  0  0  0  0  0  0  0  0  0
   -1.0263   -3.7118   -1.3135 H   0  0  0  0  0  0  0  0  0  0  0  0
   -1.1512   -3.0411    0.3127 H   0  0  0  0  0  0  0  0  0  0  0  0
   -1.8179    1.6055   -0.5092 H   0  0  0  0  0  0  0  0  0  0  0  0
    0.4775   -0.8701    0.8065 H   0  0  0  0  0  0  0  0  0  0  0  0
    0.1776    0.8509    0.7595 H   0  0  0  0  0  0  0  0  0  0  0  0
    0.8877    0.8352   -1.7184 H   0  0  0  0  0  0  0  0  0  0  0  0
    1.5107   -0.7835   -1.4056 H   0  0  0  0  0  0  0  0  0  0  0  0
    3.3886   -1.1852    0.1333 H   0  0  0  0  0  0  0  0  0  0  0  0
    5.4283   -0.2322    1.1427 H   0  0  0  0  0  0  0  0  0  0  0  0
    3.9595    3.7427    0.3872 H   0  0  0  0  0  0  0  0  0  0  0  0
    1.9145    2.8012   -0.6241 H   0  0  0  0  0  0  0  0  0  0  0  0
   -2.0528   -1.2885    1.4696 H   0  0  0  0  0  0  0  0  0  0  0  0
   -3.2868   -0.3425    0.6019 H   0  0  0  0  0  0  0  0  0  0  0  0
   -1.7168   -0.2318    3.7219 H   0  0  0  0  0  0  0  0  0  0  0  0
   -2.1539    3.7604    2.5979 H   0  0  0  0  0  0  0  0  0  0  0  0
  1  2  1  0
  2  3  1  0
  2  4  1  0
  2  5  1  0
  5  6  1  0
  5  7  1  0
  7  8  1  0
  8  9  1  0
  9 10  2  0
 10 11  1  0
 11 12  2  0
 12 13  1  0
 12 14  1  0
 14 15  2  0
  5 16  1  0
 16 17  1  0
 17 18  1  0
 18 19  2  0
 19 20  1  0
 20 21  2  0
 15  9  1  0
 21 17  1  0
  1 22  1  0
  1 23  1  0
  1 24  1  0
  3 25  1  0
  3 26  1  0
  3 27  1  0
  4 28  1  0
  4 29  1  0
  4 30  1  0
  6 31  1  0
  7 32  1  0
  7 33  1  0
  8 34  1  0
  8 35  1  0
 10 36  1  0
 11 37  1  0
 14 38  1  0
 15 39  1  0
 16 40  1  0
 16 41  1  0
 18 42  1  0
 20 43  1  0
M  END
$$$$
