
     RDKit          3D

 44 46  0  0  0  0  0  0  0  0999 V2000
    7.4808    0.4816    1.5781 C   0  0  0  0  0  0  0  0  0  0  0  0
    7.5682   -0.4968    0.5082 N   0  0  0  0  0  0  0  0  0  0  0  0
    7.1598   -0.0887   -1.0602 S   0  0  0  0  0  6  0  0  0  0  0  0
    7.9076    1.0921   -1.4294 O   0  0  0  0  0  0  0  0  0  0  0  0
    7.2195   -1.3074   -1.8351 O   0  0  0  0  0  0  0  0  0  0  0  0
    5.4466    0.3646   -0.9003 C   0  0  0  0  0  0  0  0  0  0  0  0
    5.0810    1.7102   -0.9271 C   0  0  0  0  0  0  0  0  0  0  0  0
    3.7338    2.0682   -0.8089 C   0  0  0  0  0  0  0  0  0  0  0  0
    2.7495    1.0671   -0.6699 C   0  0  0  0  0  0  0  0  0  0  0  0
    1.3880    1.2802   -0.5394 N   0  0  0  0  0  0  0  0  0  0  0  0
    0.7675    0.1289   -0.4416 C   0  0  0  0  0  0  0  0  0  0  0  0
   -0.5962    0.0832   -0.2989 N   0  0  0  0  0  0  0  0  0  0  0  0
   -1.3863   -1.0408   -0.2331 C   0  0  0  0  0  0  0  0  0  0  0  0
   -1.0287   -2.2077   -0.3292 O   0  0  0  0  0  0  0  0  0  0  0  0
   -2.8406   -0.7676   -0.0580 C   0  0  0  0  0  0  0  0  0  0  0  0
   -3.3030    0.3016    0.7155 C   0  0  0  0  0  0  0  0  0  0  0  0
   -4.6747    0.5276    0.8562 C   0  0  0  0  0  0  0  0  0  0  0  0
   -4.9879    1.6103    1.6328 O   0  0  0  0  0  0  0  0  0  0  0  0
   -6.3682    1.8754    1.8523 C   0  0  0  0  0  0  0  0  0  0  0  0
   -5.5880   -0.3241    0.2265 C   0  0  0  0  0  0  0  0  0  0  0  0
   -5.1325   -1.4066   -0.5326 C   0  0  0  0  0  0  0  0  0  0  0  0
   -5.9175   -2.3129   -1.1915 O   0  0  0  0  0  0  0  0  0  0  0  0
   -7.3263   -2.1745   -1.0590 C   0  0  0  0  0  0  0  0  0  0  0  0
   -3.7601   -1.6262   -0.6677 C   0  0  0  0  0  0  0  0  0  0  0  0
    1.7486   -1.2582   -0.4811 S   0  0  0  0  0  0  0  0  0  0  0  0
    3.1467   -0.2720   -0.6591 C   0  0  0  0  0  0  0  0  0  0  0  0
    4.4922   -0.6547   -0.7795 C   0  0  0  0  0  0  0  0  0  0  0  0
    6.4981    0.4304    2.0542 H   0  0  0  0  0  0  0  0  0  0  0  0
    7.6597    1.4988    1.2207 H   0  0  0  0  0  0  0  0  0  0  0  0
    8.2395    0.2543    2.3325 H   0  0  0  0  0  0  0  0  0  0  0  0
    7.5450   -1.4914    0.7231 H   0  0  0  0  0  0  0  0  0  0  0  0
    5.8315    2.4903   -1.0422 H   0  0  0  0  0  0  0  0  0  0  0  0
    3.4355    3.1124   -0.8276 H   0  0  0  0  0  0  0  0  0  0  0  0
   -1.0176    1.0008   -0.3133 H   0  0  0  0  0  0  0  0  0  0  0  0
   -2.6125    0.9554    1.2419 H   0  0  0  0  0  0  0  0  0  0  0  0
   -6.8774    2.1133    0.9127 H   0  0  0  0  0  0  0  0  0  0  0  0
   -6.8541    1.0393    2.3660 H   0  0  0  0  0  0  0  0  0  0  0  0
   -6.4407    2.7530    2.5019 H   0  0  0  0  0  0  0  0  0  0  0  0
   -6.6508   -0.1483    0.3300 H   0  0  0  0  0  0  0  0  0  0  0  0
   -7.7967   -2.9850   -1.6240 H   0  0  0  0  0  0  0  0  0  0  0  0
   -7.6705   -1.2270   -1.4863 H   0  0  0  0  0  0  0  0  0  0  0  0
   -7.6364   -2.2732   -0.0135 H   0  0  0  0  0  0  0  0  0  0  0  0
   -3.4082   -2.4725   -1.2557 H   0  0  0  0  0  0  0  0  0  0  0  0
    4.7758   -1.7036   -0.7819 H   0  0  0  0  0  0  0  0  0  0  0  0
  1  2  1  0
  2  3  1  0
  3  4  2  0
  3  5  2  0
  3  6  1  0
  6  7  2  0
  7  8  1  0
  8  9  2  0
  9 10  1  0
 10 11  2  0
 11 12  1  0
 12 13  1  0
 13 14  2  0
 13 15  1  0
 15 16  2  0
 16 17  1  0
 17 18  1  0
 18 19  1  0
 17 20  2  0
 20 21  1  0
 21 22  1  0
 22 23  1  0
 21 24  2  0
 11 25  1  0
 25 26  1  0
 26 27  2  0
 27  6  1  0
 26  9  1  0
 24 15  1  0
  1 28  1  0
  1 29  1  0
  1 30  1  0
  2 31  1  0
  7 32  1  0
  8 33  1  0
 12 34  1  0
 16 35  1  0
 19 36  1  0
 19 37  1  0
 19 38  1  0
 20 39  1  0
 23 40  1  0
 23 41  1  0
 23 42  1  0
 24 43  1  0
 27 44  1  0
M  END
$$$$
