
     RDKit          3D

 62 65  0  0  0  0  0  0  0  0999 V2000
    6.9412   -1.4540   -2.9068 C   0  0  0  0  0  0  0  0  0  0  0  0
    5.5931   -1.1294   -3.2194 O   0  0  0  0  0  0  0  0  0  0  0  0
    4.8728   -0.4856   -2.2516 C   0  0  0  0  0  0  0  0  0  0  0  0
    3.5391   -0.2347   -2.5800 C   0  0  0  0  0  0  0  0  0  0  0  0
    2.6946    0.4331   -1.6847 C   0  0  0  0  0  0  0  0  0  0  0  0
    3.1571    0.8631   -0.4317 C   0  0  0  0  0  0  0  0  0  0  0  0
    2.2737    1.6207    0.5644 C   0  0  0  0  0  0  0  0  0  0  0  0
    1.9104    0.8780    1.8375 C   0  0  0  0  0  0  0  0  0  0  0  0
    2.6751    0.9558    2.7977 O   0  0  0  0  0  0  0  0  0  0  0  0
    0.7192    0.1519    1.8769 N   0  0  0  0  0  0  0  0  0  0  0  0
    0.3641   -0.5427    3.1083 C   0  0  0  0  0  0  0  0  0  0  0  0
   -1.1137   -0.3541    3.4232 C   0  0  0  0  0  0  0  0  0  0  0  0
   -2.0384   -0.7907    2.2830 C   0  0  0  0  0  0  0  0  0  0  0  0
   -1.3007   -1.0429    0.9591 C   0  0  0  0  0  0  0  0  0  0  0  0
   -2.2435   -1.0719   -0.2027 N   0  0  0  0  0  0  0  0  0  0  0  0
   -3.0630    0.1406   -0.4872 C   0  0  0  0  0  0  0  0  0  0  0  0
   -4.5643   -0.0991   -0.3528 C   0  0  0  0  0  0  0  0  0  0  0  0
   -5.3063    1.2032   -0.6294 C   0  0  0  0  0  0  0  0  0  0  0  0
   -4.9620    1.7208   -1.9129 O   0  0  0  0  0  0  0  0  0  0  0  0
   -3.5713    2.0194   -2.0412 C   0  0  0  0  0  0  0  0  0  0  0  0
   -2.7225    0.7690   -1.8383 C   0  0  0  0  0  0  0  0  0  0  0  0
   -2.4012   -2.5153   -1.0691 S   0  0  0  0  0  6  0  0  0  0  0  0
   -3.3834   -3.5018    0.0415 C   0  0  0  0  0  0  0  0  0  0  0  0
   -1.0887   -3.1215   -1.1495 O   0  0  0  0  0  0  0  0  0  0  0  0
   -3.1899   -2.2828   -2.2578 O   0  0  0  0  0  0  0  0  0  0  0  0
   -0.1467   -0.0518    0.7159 C   0  0  0  0  0  0  0  0  0  0  0  0
    1.3791    2.7633    0.0862 C   0  0  0  0  0  0  0  0  0  0  0  0
    2.6657    3.0990    0.7554 C   0  0  0  0  0  0  0  0  0  0  0  0
    4.5031    0.5909   -0.1183 C   0  0  0  0  0  0  0  0  0  0  0  0
    5.3528   -0.0730   -1.0117 C   0  0  0  0  0  0  0  0  0  0  0  0
    7.5336   -0.5508   -2.7278 H   0  0  0  0  0  0  0  0  0  0  0  0
    7.3742   -1.9678   -3.7716 H   0  0  0  0  0  0  0  0  0  0  0  0
    6.9950   -2.1379   -2.0540 H   0  0  0  0  0  0  0  0  0  0  0  0
    3.1539   -0.5680   -3.5427 H   0  0  0  0  0  0  0  0  0  0  0  0
    1.6630    0.6118   -1.9799 H   0  0  0  0  0  0  0  0  0  0  0  0
    0.6052   -1.6032    2.9769 H   0  0  0  0  0  0  0  0  0  0  0  0
    0.9612   -0.1764    3.9490 H   0  0  0  0  0  0  0  0  0  0  0  0
   -1.2922    0.7104    3.6321 H   0  0  0  0  0  0  0  0  0  0  0  0
   -1.3737   -0.8944    4.3414 H   0  0  0  0  0  0  0  0  0  0  0  0
   -2.5669   -1.7093    2.5707 H   0  0  0  0  0  0  0  0  0  0  0  0
   -2.8253   -0.0357    2.1858 H   0  0  0  0  0  0  0  0  0  0  0  0
   -0.8365   -2.0323    1.0634 H   0  0  0  0  0  0  0  0  0  0  0  0
   -2.8040    0.9007    0.2626 H   0  0  0  0  0  0  0  0  0  0  0  0
   -4.9020   -0.8501   -1.0722 H   0  0  0  0  0  0  0  0  0  0  0  0
   -4.8113   -0.4706    0.6466 H   0  0  0  0  0  0  0  0  0  0  0  0
   -6.3870    1.0262   -0.6182 H   0  0  0  0  0  0  0  0  0  0  0  0
   -5.0866    1.9568    0.1373 H   0  0  0  0  0  0  0  0  0  0  0  0
   -3.4050    2.4194   -3.0473 H   0  0  0  0  0  0  0  0  0  0  0  0
   -3.3026    2.8053   -1.3242 H   0  0  0  0  0  0  0  0  0  0  0  0
   -1.6570    1.0202   -1.8946 H   0  0  0  0  0  0  0  0  0  0  0  0
   -2.9357    0.0763   -2.6588 H   0  0  0  0  0  0  0  0  0  0  0  0
   -2.8378   -3.6466    0.9755 H   0  0  0  0  0  0  0  0  0  0  0  0
   -3.5504   -4.4703   -0.4359 H   0  0  0  0  0  0  0  0  0  0  0  0
   -4.3395   -3.0060    0.2150 H   0  0  0  0  0  0  0  0  0  0  0  0
    0.4655   -0.4110   -0.1157 H   0  0  0  0  0  0  0  0  0  0  0  0
   -0.5405    0.9279    0.4322 H   0  0  0  0  0  0  0  0  0  0  0  0
    0.4738    2.9912    0.6371 H   0  0  0  0  0  0  0  0  0  0  0  0
    1.2997    2.9545   -0.9767 H   0  0  0  0  0  0  0  0  0  0  0  0
    3.4634    3.5075    0.1455 H   0  0  0  0  0  0  0  0  0  0  0  0
    2.6422    3.5025    1.7611 H   0  0  0  0  0  0  0  0  0  0  0  0
    4.8987    0.9052    0.8481 H   0  0  0  0  0  0  0  0  0  0  0  0
    6.3796   -0.2429   -0.7039 H   0  0  0  0  0  0  0  0  0  0  0  0
  1  2  1  0
  2  3  1  0
  3  4  2  0
  4  5  1  0
  5  6  2  0
  6  7  1  0
  7  8  1  0
  8  9  2  0
  8 10  1  0
 10 11  1  0
 11 12  1  0
 12 13  1  0
 13 14  1  0
 14 15  1  0
 15 16  1  0
 16 17  1  0
 17 18  1  0
 18 19  1  0
 19 20  1  0
 20 21  1  0
 15 22  1  0
 22 23  1  0
 22 24  2  0
 22 25  2  0
 14 26  1  0
  7 27  1  0
 27 28  1  0
  6 29  1  0
 29 30  2  0
 30  3  1  0
 28  7  1  0
 26 10  1  0
 21 16  1  0
  1 31  1  0
  1 32  1  0
  1 33  1  0
  4 34  1  0
  5 35  1  0
 11 36  1  0
 11 37  1  0
 12 38  1  0
 12 39  1  0
 13 40  1  0
 13 41  1  0
 14 42  1  0
 16 43  1  0
 17 44  1  0
 17 45  1  0
 18 46  1  0
 18 47  1  0
 20 48  1  0
 20 49  1  0
 21 50  1  0
 21 51  1  0
 23 52  1  0
 23 53  1  0
 23 54  1  0
 26 55  1  0
 26 56  1  0
 27 57  1  0
 27 58  1  0
 28 59  1  0
 28 60  1  0
 29 61  1  0
 30 62  1  0
M  END
$$$$
