
     RDKit          3D

 57 60  0  0  0  0  0  0  0  0999 V2000
   -5.4122    0.0641    1.4155 C   0  0  0  0  0  0  0  0  0  0  0  0
   -5.0613    0.0773   -0.0502 C   0  0  0  0  0  0  0  0  0  0  0  0
   -5.7840    0.6654   -0.8550 O   0  0  0  0  0  0  0  0  0  0  0  0
   -3.7723   -0.6292   -0.4654 C   0  0  1  0  0  0  0  0  0  0  0  0
   -3.6810   -0.8837   -1.9926 C   0  0  0  0  0  0  0  0  0  0  0  0
   -2.2043   -0.7088   -2.3820 C   0  0  0  0  0  0  0  0  0  0  0  0
   -1.4818   -0.6584   -1.0427 C   0  0  1  0  0  0  0  0  0  0  0  0
   -0.0477   -0.1158   -0.9973 C   0  0  2  0  0  0  0  0  0  0  0  0
    0.8707   -0.8795   -1.9599 C   0  0  0  0  0  0  0  0  0  0  0  0
    2.3218   -0.4237   -1.8510 C   0  0  0  0  0  0  0  0  0  0  0  0
    2.8376   -0.5292   -0.4103 C   0  0  1  0  0  0  0  0  0  0  0  0
    4.3332   -0.1662   -0.3439 C   0  0  0  0  0  0  0  0  0  0  0  0
    4.8379    0.0894    1.0797 C   0  0  2  0  0  0  0  0  0  0  0  0
    6.1536   -0.4384    1.2237 O   0  0  0  0  0  0  0  0  0  0  0  0
    3.9384   -0.5421    2.1300 C   0  0  0  0  0  0  0  0  0  0  0  0
    2.4883   -0.0528    2.0533 C   0  0  0  0  0  0  0  0  0  0  0  0
    1.9671    0.2608    0.6135 C   0  0  1  0  0  0  0  0  0  0  0  0
    2.0709    1.7898    0.3712 C   0  0  0  0  0  0  0  0  0  0  0  0
    0.4731   -0.2172    0.4699 C   0  0  1  0  0  0  0  0  0  0  0  0
   -0.5066    0.4483    1.4721 C   0  0  0  0  0  0  0  0  0  0  0  0
   -1.9599   -0.0345    1.3139 C   0  0  0  0  0  0  0  0  0  0  0  0
   -2.4590    0.1205   -0.1315 C   0  0  2  0  0  0  0  0  0  0  0  0
   -2.5863    1.6240   -0.4865 C   0  0  0  0  0  0  0  0  0  0  0  0
   -6.4930    0.1867    1.5303 H   0  0  0  0  0  0  0  0  0  0  0  0
   -5.1308   -0.8925    1.8627 H   0  0  0  0  0  0  0  0  0  0  0  0
   -4.9006    0.8830    1.9247 H   0  0  0  0  0  0  0  0  0  0  0  0
   -3.7801   -1.6123    0.0262 H   0  0  0  0  0  0  0  0  0  0  0  0
   -4.3032   -0.2073   -2.5876 H   0  0  0  0  0  0  0  0  0  0  0  0
   -4.0172   -1.9030   -2.2164 H   0  0  0  0  0  0  0  0  0  0  0  0
   -1.8590   -1.5377   -3.0082 H   0  0  0  0  0  0  0  0  0  0  0  0
   -2.0629    0.2173   -2.9502 H   0  0  0  0  0  0  0  0  0  0  0  0
   -1.4343   -1.7010   -0.6849 H   0  0  0  0  0  0  0  0  0  0  0  0
   -0.0528    0.9318   -1.3159 H   0  0  0  0  0  0  0  0  0  0  0  0
    0.8149   -1.9561   -1.7541 H   0  0  0  0  0  0  0  0  0  0  0  0
    0.5349   -0.7386   -2.9939 H   0  0  0  0  0  0  0  0  0  0  0  0
    2.9381   -1.0471   -2.5106 H   0  0  0  0  0  0  0  0  0  0  0  0
    2.4147    0.6039   -2.2212 H   0  0  0  0  0  0  0  0  0  0  0  0
    2.7657   -1.5939   -0.1377 H   0  0  0  0  0  0  0  0  0  0  0  0
    4.5391    0.7265   -0.9487 H   0  0  0  0  0  0  0  0  0  0  0  0
    4.9127   -0.9709   -0.8157 H   0  0  0  0  0  0  0  0  0  0  0  0
    4.9080    1.1662    1.2687 H   0  0  0  0  0  0  0  0  0  0  0  0
    6.7149   -0.0095    0.5551 H   0  0  0  0  0  0  0  0  0  0  0  0
    4.3399   -0.3574    3.1342 H   0  0  0  0  0  0  0  0  0  0  0  0
    3.9626   -1.6345    2.0150 H   0  0  0  0  0  0  0  0  0  0  0  0
    1.8722   -0.8291    2.5245 H   0  0  0  0  0  0  0  0  0  0  0  0
    2.3791    0.8341    2.6906 H   0  0  0  0  0  0  0  0  0  0  0  0
    1.5169    2.3557    1.1269 H   0  0  0  0  0  0  0  0  0  0  0  0
    3.1016    2.1497    0.4201 H   0  0  0  0  0  0  0  0  0  0  0  0
    1.6809    2.0851   -0.6064 H   0  0  0  0  0  0  0  0  0  0  0  0
    0.4696   -1.2898    0.7226 H   0  0  0  0  0  0  0  0  0  0  0  0
   -0.4848    1.5368    1.3637 H   0  0  0  0  0  0  0  0  0  0  0  0
   -0.1923    0.2391    2.5006 H   0  0  0  0  0  0  0  0  0  0  0  0
   -2.0155   -1.0870    1.6206 H   0  0  0  0  0  0  0  0  0  0  0  0
   -2.5958    0.5243    2.0087 H   0  0  0  0  0  0  0  0  0  0  0  0
   -1.6294    2.1509   -0.4513 H   0  0  0  0  0  0  0  0  0  0  0  0
   -3.2508    2.1333    0.2207 H   0  0  0  0  0  0  0  0  0  0  0  0
   -2.9997    1.7833   -1.4875 H   0  0  0  0  0  0  0  0  0  0  0  0
  1  2  1  0
  2  3  2  0
  2  4  1  0
  4  5  1  0
  5  6  1  0
  6  7  1  0
  7  8  1  0
  8  9  1  0
  9 10  1  0
 10 11  1  0
 11 12  1  0
 12 13  1  0
 13 14  1  0
 13 15  1  0
 15 16  1  0
 16 17  1  0
 17 18  1  6
 17 19  1  0
 19 20  1  0
 20 21  1  0
 21 22  1  0
 22 23  1  6
 22  4  1  0
 22  7  1  0
 19  8  1  0
 17 11  1  0
  1 24  1  0
  1 25  1  0
  1 26  1  0
  4 27  1  1
  5 28  1  0
  5 29  1  0
  6 30  1  0
  6 31  1  0
  7 32  1  1
  8 33  1  6
  9 34  1  0
  9 35  1  0
 10 36  1  0
 10 37  1  0
 11 38  1  1
 12 39  1  0
 12 40  1  0
 13 41  1  1
 14 42  1  0
 15 43  1  0
 15 44  1  0
 16 45  1  0
 16 46  1  0
 18 47  1  0
 18 48  1  0
 18 49  1  0
 19 50  1  1
 20 51  1  0
 20 52  1  0
 21 53  1  0
 21 54  1  0
 23 55  1  0
 23 56  1  0
 23 57  1  0
M  END
$$$$
