
     RDKit          3D

 25 25  0  0  0  0  0  0  0  0999 V2000
    2.4463   -1.6464    0.5378 N   0  0  0  0  0  0  0  0  0  0  0  0
    2.3173   -0.3728   -0.2097 C   0  0  0  0  0  0  0  0  0  0  0  0
    1.1054   -0.3804   -1.1601 C   0  0  0  0  0  0  0  0  0  0  0  0
   -0.2608   -0.3094   -0.5092 C   0  0  0  0  0  0  0  0  0  0  0  0
   -0.7858   -1.4151    0.1812 C   0  0  0  0  0  0  0  0  0  0  0  0
   -2.0480   -1.3537    0.7766 C   0  0  0  0  0  0  0  0  0  0  0  0
   -2.7871   -0.1863    0.6777 C   0  0  0  0  0  0  0  0  0  0  0  0
   -4.0219   -0.1250    1.2575 O   0  0  0  0  0  0  0  0  0  0  0  0
   -2.2842    0.9170   -0.0049 C   0  0  0  0  0  0  0  0  0  0  0  0
   -3.0665    2.0379   -0.0665 O   0  0  0  0  0  0  0  0  0  0  0  0
   -1.0272    0.8653   -0.5996 C   0  0  0  0  0  0  0  0  0  0  0  0
    2.3222    0.8170    0.7578 C   0  0  0  0  0  0  0  0  0  0  0  0
    2.6701    0.7955    1.9301 O   0  0  0  0  0  0  0  0  0  0  0  0
    2.0155    1.9953    0.1761 O   0  0  0  0  0  0  0  0  0  0  0  0
    3.0904   -1.4988    1.3193 H   0  0  0  0  0  0  0  0  0  0  0  0
    2.8656   -2.3540   -0.0616 H   0  0  0  0  0  0  0  0  0  0  0  0
    3.2299   -0.2674   -0.8102 H   0  0  0  0  0  0  0  0  0  0  0  0
    1.1374   -1.2781   -1.7928 H   0  0  0  0  0  0  0  0  0  0  0  0
    1.2058    0.4592   -1.8615 H   0  0  0  0  0  0  0  0  0  0  0  0
   -0.2094   -2.3344    0.2652 H   0  0  0  0  0  0  0  0  0  0  0  0
   -2.4464   -2.2091    1.3131 H   0  0  0  0  0  0  0  0  0  0  0  0
   -4.3370    0.7792    1.0604 H   0  0  0  0  0  0  0  0  0  0  0  0
   -2.5895    2.7074   -0.5857 H   0  0  0  0  0  0  0  0  0  0  0  0
   -0.6328    1.7265   -1.1307 H   0  0  0  0  0  0  0  0  0  0  0  0
    2.0905    2.6307    0.9200 H   0  0  0  0  0  0  0  0  0  0  0  0
  1  2  1  0
  2  3  1  0
  3  4  1  0
  4  5  2  0
  5  6  1  0
  6  7  2  0
  7  8  1  0
  7  9  1  0
  9 10  1  0
  9 11  2  0
  2 12  1  0
 12 13  2  0
 12 14  1  0
 11  4  1  0
  1 15  1  0
  1 16  1  0
  2 17  1  0
  3 18  1  0
  3 19  1  0
  5 20  1  0
  6 21  1  0
  8 22  1  0
 10 23  1  0
 11 24  1  0
 14 25  1  0
M  END
$$$$
