
     RDKit          3D

 42 45  0  0  0  0  0  0  0  0999 V2000
    6.9621    1.1973    0.1889 C   0  0  0  0  0  0  0  0  0  0  0  0
    6.5508   -0.1350    0.4666 O   0  0  0  0  0  0  0  0  0  0  0  0
    5.2060   -0.3795    0.5112 C   0  0  0  0  0  0  0  0  0  0  0  0
    4.8688   -1.7013    0.7868 C   0  0  0  0  0  0  0  0  0  0  0  0
    3.5305   -2.0888    0.8623 C   0  0  0  0  0  0  0  0  0  0  0  0
    2.4931   -1.1597    0.6610 C   0  0  0  0  0  0  0  0  0  0  0  0
    1.1048   -1.6251    0.7455 C   0  0  0  0  0  0  0  0  0  0  0  0
    0.7514   -2.8402    1.1879 N   0  0  0  0  0  0  0  0  0  0  0  0
   -0.6332   -2.8491    1.0921 O   0  0  0  0  0  0  0  0  0  0  0  0
   -1.0323   -1.6291    0.5902 C   0  0  0  0  0  0  0  0  0  0  0  0
   -2.3853   -1.2434    0.3583 C   0  0  0  0  0  0  0  0  0  0  0  0
   -2.6789    0.0021   -0.0788 C   0  0  0  0  0  0  0  0  0  0  0  0
   -1.7370    0.9900   -0.3352 O   0  0  0  0  0  0  0  0  0  0  0  0
   -4.0760    0.4068   -0.3172 C   0  0  0  0  0  0  0  0  0  0  0  0
   -4.4260    1.6857   -0.7700 C   0  0  0  0  0  0  0  0  0  0  0  0
   -5.7657    2.0232   -0.9813 C   0  0  0  0  0  0  0  0  0  0  0  0
   -6.7696    1.0861   -0.7422 C   0  0  0  0  0  0  0  0  0  0  0  0
   -6.4373   -0.1908   -0.2914 C   0  0  0  0  0  0  0  0  0  0  0  0
   -5.0971   -0.5216   -0.0823 C   0  0  0  0  0  0  0  0  0  0  0  0
   -4.7680   -1.8019    0.3688 N   0  0  0  0  0  0  0  0  0  0  0  0
   -3.4859   -2.2233    0.6023 C   0  0  0  0  0  0  0  0  0  0  0  0
   -3.2846   -3.3689    0.9949 O   0  0  0  0  0  0  0  0  0  0  0  0
    0.0261   -0.8640    0.3617 N   0  0  0  0  0  0  0  0  0  0  0  0
    2.8348    0.1837    0.3825 C   0  0  0  0  0  0  0  0  0  0  0  0
    1.8022    1.0730    0.2073 O   0  0  0  0  0  0  0  0  0  0  0  0
    2.1110    2.4162   -0.1385 C   0  0  0  0  0  0  0  0  0  0  0  0
    4.1900    0.5583    0.3114 C   0  0  0  0  0  0  0  0  0  0  0  0
    8.0562    1.2163    0.1882 H   0  0  0  0  0  0  0  0  0  0  0  0
    6.6229    1.5165   -0.8021 H   0  0  0  0  0  0  0  0  0  0  0  0
    6.6176    1.8867    0.9667 H   0  0  0  0  0  0  0  0  0  0  0  0
    5.6525   -2.4388    0.9451 H   0  0  0  0  0  0  0  0  0  0  0  0
    3.3066   -3.1325    1.0785 H   0  0  0  0  0  0  0  0  0  0  0  0
   -0.8385    0.6308   -0.1538 H   0  0  0  0  0  0  0  0  0  0  0  0
   -3.6567    2.4307   -0.9622 H   0  0  0  0  0  0  0  0  0  0  0  0
   -6.0229    3.0195   -1.3330 H   0  0  0  0  0  0  0  0  0  0  0  0
   -7.8109    1.3518   -0.9076 H   0  0  0  0  0  0  0  0  0  0  0  0
   -7.2274   -0.9134   -0.1083 H   0  0  0  0  0  0  0  0  0  0  0  0
   -5.4939   -2.4851    0.5419 H   0  0  0  0  0  0  0  0  0  0  0  0
    2.6570    2.4658   -1.0862 H   0  0  0  0  0  0  0  0  0  0  0  0
    1.1659    2.9515   -0.2717 H   0  0  0  0  0  0  0  0  0  0  0  0
    2.6628    2.9127    0.6662 H   0  0  0  0  0  0  0  0  0  0  0  0
    4.4545    1.5867    0.1039 H   0  0  0  0  0  0  0  0  0  0  0  0
  1  2  1  0
  2  3  1  0
  3  4  2  0
  4  5  1  0
  5  6  2  0
  6  7  1  0
  7  8  2  0
  8  9  1  0
  9 10  1  0
 10 11  1  0
 11 12  2  0
 12 13  1  0
 12 14  1  0
 14 15  2  0
 15 16  1  0
 16 17  2  0
 17 18  1  0
 18 19  2  0
 19 20  1  0
 20 21  1  0
 21 22  2  0
 10 23  2  0
  6 24  1  0
 24 25  1  0
 25 26  1  0
 24 27  2  0
 27  3  1  0
 23  7  1  0
 21 11  1  0
 19 14  1  0
  1 28  1  0
  1 29  1  0
  1 30  1  0
  4 31  1  0
  5 32  1  0
 13 33  1  0
 15 34  1  0
 16 35  1  0
 17 36  1  0
 18 37  1  0
 20 38  1  0
 26 39  1  0
 26 40  1  0
 26 41  1  0
 27 42  1  0
M  END
$$$$
