
     RDKit          3D

 38 40  0  0  0  0  0  0  0  0999 V2000
   -3.6582    2.3438   -0.9116 C   0  0  0  0  0  0  0  0  0  0  0  0
   -4.0957    1.2840    0.0645 C   0  0  0  0  0  0  0  0  0  0  0  0
   -5.4075    1.3503    0.5694 C   0  0  0  0  0  0  0  0  0  0  0  0
   -5.8744    0.4001    1.4738 C   0  0  0  0  0  0  0  0  0  0  0  0
   -5.0360   -0.6280    1.8843 C   0  0  0  0  0  0  0  0  0  0  0  0
   -3.7303   -0.7079    1.3922 C   0  0  0  0  0  0  0  0  0  0  0  0
   -3.2422    0.2376    0.4824 C   0  0  0  0  0  0  0  0  0  0  0  0
   -1.9249    0.1857   -0.0337 N   0  0  0  0  0  0  0  0  0  0  0  0
   -0.9388   -0.7517    0.2310 C   0  0  0  0  0  0  0  0  0  0  0  0
   -1.0225   -1.7188    0.9784 O   0  0  0  0  0  0  0  0  0  0  0  0
    0.3440   -0.4283   -0.5101 C   0  0  0  0  0  0  0  0  0  0  0  0
    1.3595   -1.5578   -0.3810 C   0  0  0  0  0  0  0  0  0  0  0  0
    2.6085   -1.2269   -1.0251 N   0  0  0  0  0  0  0  0  0  0  0  0
    2.8665   -1.3189   -2.3787 C   0  0  0  0  0  0  0  0  0  0  0  0
    2.0875   -1.7241   -3.2311 O   0  0  0  0  0  0  0  0  0  0  0  0
    4.1553   -0.8561   -2.6786 O   0  0  0  0  0  0  0  0  0  0  0  0
    4.6237   -0.4527   -1.4387 C   0  0  0  0  0  0  0  0  0  0  0  0
    5.8587    0.1098   -1.1966 C   0  0  0  0  0  0  0  0  0  0  0  0
    6.1536    0.4687    0.1220 C   0  0  0  0  0  0  0  0  0  0  0  0
    5.2156    0.2595    1.1526 C   0  0  0  0  0  0  0  0  0  0  0  0
    3.9683   -0.3128    0.8822 C   0  0  0  0  0  0  0  0  0  0  0  0
    3.7079   -0.6588   -0.4262 C   0  0  0  0  0  0  0  0  0  0  0  0
   -4.4568    3.0668   -1.1098 H   0  0  0  0  0  0  0  0  0  0  0  0
   -2.8055    2.9011   -0.5104 H   0  0  0  0  0  0  0  0  0  0  0  0
   -3.3845    1.8888   -1.8689 H   0  0  0  0  0  0  0  0  0  0  0  0
   -6.0784    2.1483    0.2576 H   0  0  0  0  0  0  0  0  0  0  0  0
   -6.8899    0.4615    1.8559 H   0  0  0  0  0  0  0  0  0  0  0  0
   -5.3923   -1.3750    2.5891 H   0  0  0  0  0  0  0  0  0  0  0  0
   -3.1182   -1.5315    1.7451 H   0  0  0  0  0  0  0  0  0  0  0  0
   -1.6781    0.9152   -0.6885 H   0  0  0  0  0  0  0  0  0  0  0  0
    0.7536    0.4999   -0.0937 H   0  0  0  0  0  0  0  0  0  0  0  0
    0.1136   -0.2504   -1.5673 H   0  0  0  0  0  0  0  0  0  0  0  0
    0.9610   -2.4584   -0.8645 H   0  0  0  0  0  0  0  0  0  0  0  0
    1.5481   -1.8155    0.6672 H   0  0  0  0  0  0  0  0  0  0  0  0
    6.5718    0.2679   -1.9977 H   0  0  0  0  0  0  0  0  0  0  0  0
    7.1182    0.9144    0.3567 H   0  0  0  0  0  0  0  0  0  0  0  0
    5.4681    0.5455    2.1719 H   0  0  0  0  0  0  0  0  0  0  0  0
    3.2509   -0.4753    1.6777 H   0  0  0  0  0  0  0  0  0  0  0  0
  1  2  1  0
  2  3  2  0
  3  4  1  0
  4  5  2  0
  5  6  1  0
  6  7  2  0
  7  8  1  0
  8  9  1  0
  9 10  2  0
  9 11  1  0
 11 12  1  0
 12 13  1  0
 13 14  1  0
 14 15  2  0
 14 16  1  0
 16 17  1  0
 17 18  2  0
 18 19  1  0
 19 20  2  0
 20 21  1  0
 21 22  2  0
  7  2  1  0
 22 13  1  0
 22 17  1  0
  1 23  1  0
  1 24  1  0
  1 25  1  0
  3 26  1  0
  4 27  1  0
  5 28  1  0
  6 29  1  0
  8 30  1  0
 11 31  1  0
 11 32  1  0
 12 33  1  0
 12 34  1  0
 18 35  1  0
 19 36  1  0
 20 37  1  0
 21 38  1  0
M  END
$$$$
