
     RDKit          3D

 38 39  0  0  0  0  0  0  0  0999 V2000
    0.9223    2.0007   -2.2704 N   0  0  0  0  0  0  0  0  0  0  0  0
    2.4432    1.8232   -1.6286 S   0  0  0  0  0  6  0  0  0  0  0  0
    2.5161    2.7020   -0.4939 O   0  0  0  0  0  0  0  0  0  0  0  0
    3.3918    1.8348   -2.7078 O   0  0  0  0  0  0  0  0  0  0  0  0
    2.2932    0.2687   -1.0422 N   0  0  0  0  0  0  0  0  0  0  0  0
    2.2139   -0.8051   -2.0793 C   0  0  0  0  0  0  0  0  0  0  0  0
    1.8866   -2.1403   -1.3895 C   0  0  0  0  0  0  0  0  0  0  0  0
    0.7238   -1.9608   -0.5164 N   0  0  0  0  0  0  0  0  0  0  0  0
    0.3735   -2.9623    0.3380 C   0  0  0  0  0  0  0  0  0  0  0  0
    0.8096   -4.2206    0.2941 N   0  0  0  0  0  0  0  0  0  0  0  0
    0.2036   -4.8584    1.3645 O   0  0  0  0  0  0  0  0  0  0  0  0
   -0.6246   -3.9960    2.0635 N   0  0  0  0  0  0  0  0  0  0  0  0
   -0.5400   -2.8231    1.4201 C   0  0  0  0  0  0  0  0  0  0  0  0
   -1.3417   -1.6621    1.8194 C   0  0  0  0  0  0  0  0  0  0  0  0
   -1.6197   -1.5616    3.0842 N   0  0  0  0  0  0  0  0  0  0  0  0
   -2.5235   -0.5244    3.3478 O   0  0  0  0  0  0  0  0  0  0  0  0
   -1.7124   -0.8836    0.7361 N   0  0  0  0  0  0  0  0  0  0  0  0
   -1.6900    0.5230    0.6346 C   0  0  0  0  0  0  0  0  0  0  0  0
   -2.3622    1.1168   -0.4498 C   0  0  0  0  0  0  0  0  0  0  0  0
   -2.4222    2.5050   -0.5886 C   0  0  0  0  0  0  0  0  0  0  0  0
   -1.8122    3.3154    0.3610 C   0  0  0  0  0  0  0  0  0  0  0  0
   -1.8753    4.6456    0.2041 F   0  0  0  0  0  0  0  0  0  0  0  0
   -1.1462    2.7507    1.4444 C   0  0  0  0  0  0  0  0  0  0  0  0
   -0.3160    3.8513    2.7399 Br  0  0  0  0  0  0  0  0  0  0  0  0
   -1.0879    1.3601    1.5836 C   0  0  0  0  0  0  0  0  0  0  0  0
    0.2721    2.1923   -1.5087 H   0  0  0  0  0  0  0  0  0  0  0  0
    0.9307    2.7827   -2.9279 H   0  0  0  0  0  0  0  0  0  0  0  0
    3.0698    0.1083   -0.3945 H   0  0  0  0  0  0  0  0  0  0  0  0
    3.1680   -0.8895   -2.6084 H   0  0  0  0  0  0  0  0  0  0  0  0
    1.4192   -0.5698   -2.7944 H   0  0  0  0  0  0  0  0  0  0  0  0
    1.6860   -2.9073   -2.1457 H   0  0  0  0  0  0  0  0  0  0  0  0
    2.7539   -2.4547   -0.7959 H   0  0  0  0  0  0  0  0  0  0  0  0
    0.6934   -0.9993   -0.1647 H   0  0  0  0  0  0  0  0  0  0  0  0
   -2.6842   -0.6264    4.3053 H   0  0  0  0  0  0  0  0  0  0  0  0
   -1.6312   -1.3263   -0.1755 H   0  0  0  0  0  0  0  0  0  0  0  0
   -2.8644    0.4930   -1.1880 H   0  0  0  0  0  0  0  0  0  0  0  0
   -2.9500    2.9591   -1.4208 H   0  0  0  0  0  0  0  0  0  0  0  0
   -0.5670    0.9390    2.4401 H   0  0  0  0  0  0  0  0  0  0  0  0
  1  2  1  0
  2  3  2  0
  2  4  2  0
  2  5  1  0
  5  6  1  0
  6  7  1  0
  7  8  1  0
  8  9  1  0
  9 10  2  0
 10 11  1  0
 11 12  1  0
 12 13  2  0
 13 14  1  0
 14 15  2  0
 15 16  1  0
 14 17  1  0
 17 18  1  0
 18 19  2  0
 19 20  1  0
 20 21  2  0
 21 22  1  0
 21 23  1  0
 23 24  1  0
 23 25  2  0
 13  9  1  0
 25 18  1  0
  1 26  1  0
  1 27  1  0
  5 28  1  0
  6 29  1  0
  6 30  1  0
  7 31  1  0
  7 32  1  0
  8 33  1  0
 16 34  1  0
 17 35  1  0
 19 36  1  0
 20 37  1  0
 25 38  1  0
M  END
$$$$
