
     RDKit          3D

 60 63  0  0  0  0  0  0  0  0999 V2000
    7.2140   -3.3609   -1.8497 C   0  0  0  0  0  0  0  0  0  0  0  0
    7.0788   -2.1995   -1.0431 O   0  0  0  0  0  0  0  0  0  0  0  0
    5.8111   -1.7182   -0.8307 C   0  0  0  0  0  0  0  0  0  0  0  0
    4.6523   -2.2717   -1.3795 C   0  0  0  0  0  0  0  0  0  0  0  0
    3.3982   -1.7119   -1.1088 C   0  0  0  0  0  0  0  0  0  0  0  0
    3.2822   -0.5958   -0.2831 C   0  0  0  0  0  0  0  0  0  0  0  0
    2.0551    0.0277    0.0311 N   0  0  0  0  0  0  0  0  0  0  0  0
    0.7863   -0.3912   -0.2977 C   0  0  0  0  0  0  0  0  0  0  0  0
    0.5102   -1.4435   -0.8656 O   0  0  0  0  0  0  0  0  0  0  0  0
   -0.2132    0.4878    0.0727 N   0  0  0  0  0  0  0  0  0  0  0  0
   -0.0917    1.8266    0.6499 C   0  0  0  0  0  0  0  0  0  0  0  0
   -1.4735    2.4723    0.4258 C   0  0  1  0  0  0  0  0  0  0  0  0
   -1.4550    3.1780   -0.9348 C   0  0  0  0  0  0  0  0  0  0  0  0
   -2.8209    3.5799   -1.4556 C   0  0  0  0  0  0  0  0  0  0  0  0
   -3.6103    2.3685   -1.9138 C   0  0  0  0  0  0  0  0  0  0  0  0
   -4.4417    1.7712   -0.8090 C   0  0  0  0  0  0  0  0  0  0  0  0
   -5.6600    1.6702   -0.9753 O   0  0  0  0  0  0  0  0  0  0  0  0
   -3.8204    1.3586    0.3578 N   0  0  0  0  0  0  0  0  0  0  0  0
   -4.6926    0.7733    1.3869 C   0  0  0  0  0  0  0  0  0  0  0  0
   -4.6460   -0.7375    1.4023 C   0  0  0  0  0  0  0  0  0  0  0  0
   -4.0096   -1.4265    2.4475 C   0  0  0  0  0  0  0  0  0  0  0  0
   -3.9498   -2.8228    2.4481 C   0  0  0  0  0  0  0  0  0  0  0  0
   -4.5285   -3.5443    1.4063 C   0  0  0  0  0  0  0  0  0  0  0  0
   -5.1647   -2.8654    0.3745 C   0  0  0  0  0  0  0  0  0  0  0  0
   -5.7233   -3.5609   -0.6244 F   0  0  0  0  0  0  0  0  0  0  0  0
   -5.2295   -1.4762    0.3628 C   0  0  0  0  0  0  0  0  0  0  0  0
   -2.3786    1.2374    0.5928 C   0  0  1  0  0  0  0  0  0  0  0  0
   -1.6154    0.1380   -0.1528 C   0  0  0  0  0  0  0  0  0  0  0  0
    4.4453   -0.0343    0.2640 C   0  0  0  0  0  0  0  0  0  0  0  0
    5.7071   -0.5844   -0.0027 C   0  0  0  0  0  0  0  0  0  0  0  0
    6.8892   -0.0945    0.4975 O   0  0  0  0  0  0  0  0  0  0  0  0
    6.8403    1.0848    1.2859 C   0  0  0  0  0  0  0  0  0  0  0  0
    6.8696   -3.1739   -2.8721 H   0  0  0  0  0  0  0  0  0  0  0  0
    8.2781   -3.6115   -1.8989 H   0  0  0  0  0  0  0  0  0  0  0  0
    6.6923   -4.2148   -1.4049 H   0  0  0  0  0  0  0  0  0  0  0  0
    4.6828   -3.1411   -2.0279 H   0  0  0  0  0  0  0  0  0  0  0  0
    2.5302   -2.1760   -1.5674 H   0  0  0  0  0  0  0  0  0  0  0  0
    2.1099    0.8146    0.6541 H   0  0  0  0  0  0  0  0  0  0  0  0
    0.7312    2.3833    0.1910 H   0  0  0  0  0  0  0  0  0  0  0  0
    0.1170    1.7037    1.7189 H   0  0  0  0  0  0  0  0  0  0  0  0
   -1.6883    3.2169    1.2016 H   0  0  0  0  0  0  0  0  0  0  0  0
   -0.9488    2.5638   -1.6913 H   0  0  0  0  0  0  0  0  0  0  0  0
   -0.8423    4.0841   -0.8369 H   0  0  0  0  0  0  0  0  0  0  0  0
   -3.3676    4.1589   -0.7019 H   0  0  0  0  0  0  0  0  0  0  0  0
   -2.6702    4.2407   -2.3183 H   0  0  0  0  0  0  0  0  0  0  0  0
   -2.9889    1.5976   -2.3772 H   0  0  0  0  0  0  0  0  0  0  0  0
   -4.3128    2.6980   -2.6909 H   0  0  0  0  0  0  0  0  0  0  0  0
   -5.7338    1.0913    1.2566 H   0  0  0  0  0  0  0  0  0  0  0  0
   -4.3853    1.1820    2.3578 H   0  0  0  0  0  0  0  0  0  0  0  0
   -3.5528   -0.8802    3.2698 H   0  0  0  0  0  0  0  0  0  0  0  0
   -3.4520   -3.3472    3.2597 H   0  0  0  0  0  0  0  0  0  0  0  0
   -4.4890   -4.6286    1.3908 H   0  0  0  0  0  0  0  0  0  0  0  0
   -5.7375   -0.9793   -0.4599 H   0  0  0  0  0  0  0  0  0  0  0  0
   -2.2882    0.9910    1.6630 H   0  0  0  0  0  0  0  0  0  0  0  0
   -1.8019    0.1315   -1.2299 H   0  0  0  0  0  0  0  0  0  0  0  0
   -1.8219   -0.8625    0.2393 H   0  0  0  0  0  0  0  0  0  0  0  0
    4.3529    0.8358    0.9036 H   0  0  0  0  0  0  0  0  0  0  0  0
    6.2756    0.9186    2.2091 H   0  0  0  0  0  0  0  0  0  0  0  0
    7.8660    1.3431    1.5665 H   0  0  0  0  0  0  0  0  0  0  0  0
    6.4303    1.9253    0.7162 H   0  0  0  0  0  0  0  0  0  0  0  0
  1  2  1  0
  2  3  1  0
  3  4  2  0
  4  5  1  0
  5  6  2  0
  6  7  1  0
  7  8  1  0
  8  9  2  0
  8 10  1  0
 10 11  1  0
 11 12  1  0
 12 13  1  0
 13 14  1  0
 14 15  1  0
 15 16  1  0
 16 17  2  0
 16 18  1  0
 18 19  1  0
 19 20  1  0
 20 21  2  0
 21 22  1  0
 22 23  2  0
 23 24  1  0
 24 25  1  0
 24 26  2  0
 18 27  1  0
 27 28  1  0
  6 29  1  0
 29 30  2  0
 30 31  1  0
 31 32  1  0
 30  3  1  0
 28 10  1  0
 27 12  1  0
 26 20  1  0
  1 33  1  0
  1 34  1  0
  1 35  1  0
  4 36  1  0
  5 37  1  0
  7 38  1  0
 11 39  1  0
 11 40  1  0
 12 41  1  1
 13 42  1  0
 13 43  1  0
 14 44  1  0
 14 45  1  0
 15 46  1  0
 15 47  1  0
 19 48  1  0
 19 49  1  0
 21 50  1  0
 22 51  1  0
 23 52  1  0
 26 53  1  0
 27 54  1  1
 28 55  1  0
 28 56  1  0
 29 57  1  0
 32 58  1  0
 32 59  1  0
 32 60  1  0
M  END
$$$$
