
     RDKit          3D

 94 96  0  0  0  0  0  0  0  0999 V2000
   -1.0330   -0.4245    0.1594 C   0  0  0  0  0  0  0  0  0  0  0  0
    0.4050    0.6165    0.0700 S   0  0  0  0  0  6  0  0  0  0  0  0
    0.5896    1.3005    1.3276 O   0  0  0  0  0  0  0  0  0  0  0  0
    0.4262    1.3026   -1.2018 O   0  0  0  0  0  0  0  0  0  0  0  0
    1.5169   -0.5488   -0.0408 O   0  0  0  0  0  0  0  0  0  0  0  0
    2.4615   -3.5953    0.1043 C   0  0  0  0  0  0  0  0  0  0  0  0
    3.8447   -3.1747   -0.3075 C   0  0  0  0  0  0  0  0  0  0  0  0
    4.9581   -4.0048   -0.1053 C   0  0  0  0  0  0  0  0  0  0  0  0
    4.8868   -5.2141    0.5287 O   0  0  0  0  0  0  0  0  0  0  0  0
    6.2313   -3.6398   -0.5482 C   0  0  0  0  0  0  0  0  0  0  0  0
    6.4310   -2.4214   -1.1911 C   0  0  0  0  0  0  0  0  0  0  0  0
    5.3543   -1.5595   -1.3724 C   0  0  0  0  0  0  0  0  0  0  0  0
    4.0773   -1.9212   -0.9162 C   0  0  0  0  0  0  0  0  0  0  0  0
    3.0076   -0.9082   -1.0970 C   0  0  0  0  0  0  0  0  0  0  0  0
    2.7916   -0.4096   -2.1941 O   0  0  0  0  0  0  0  0  0  0  0  0
    2.3463   -0.5544    0.0547 N   0  0  0  0  0  0  0  0  0  0  0  0
    1.4389    0.5910    0.1096 C   0  0  0  0  0  0  0  0  0  0  0  0
    2.2141    1.9301    0.1768 C   0  0  0  0  0  0  0  0  0  0  0  0
    3.4942    2.0360    1.4883 S   0  0  0  0  0  0  0  0  0  0  0  0
    3.9689    3.7483    1.3235 C   0  0  0  0  0  0  0  0  0  0  0  0
    4.4023    4.2813    0.1049 C   0  0  0  0  0  0  0  0  0  0  0  0
    4.7766    5.6245    0.0152 C   0  0  0  0  0  0  0  0  0  0  0  0
    4.7329    6.4385    1.1455 C   0  0  0  0  0  0  0  0  0  0  0  0
    4.3169    5.9113    2.3679 C   0  0  0  0  0  0  0  0  0  0  0  0
    3.9390    4.5693    2.4569 C   0  0  0  0  0  0  0  0  0  0  0  0
    0.4081    0.4139    1.2489 C   0  0  0  0  0  0  0  0  0  0  0  0
    1.0993    0.1647    2.4885 O   0  0  0  0  0  0  0  0  0  0  0  0
   -0.5830   -0.7692    1.0381 C   0  0  0  0  0  0  0  0  0  0  0  0
   -1.6290   -0.7511   -0.0094 N   0  0  0  0  0  0  0  0  0  0  0  0
   -1.1505   -1.3203   -1.2791 C   0  0  0  0  0  0  0  0  0  0  0  0
   -2.2868   -1.4541   -2.3047 C   0  0  0  0  0  0  0  0  0  0  0  0
   -1.7822   -2.0601   -3.6209 C   0  0  0  0  0  0  0  0  0  0  0  0
   -2.9032   -2.1598   -4.6550 C   0  0  0  0  0  0  0  0  0  0  0  0
   -3.5860   -0.8146   -4.8875 C   0  0  0  0  0  0  0  0  0  0  0  0
   -4.0719   -0.1927   -3.5796 C   0  0  0  0  0  0  0  0  0  0  0  0
   -2.9323   -0.0821   -2.5595 C   0  0  0  0  0  0  0  0  0  0  0  0
   -3.4262    0.4967   -1.2335 C   0  0  0  0  0  0  0  0  0  0  0  0
   -2.2986    0.5654   -0.1869 C   0  0  0  0  0  0  0  0  0  0  0  0
   -2.9283    1.0235    1.1489 C   0  0  0  0  0  0  0  0  0  0  0  0
   -2.7268    2.1432    1.6119 O   0  0  0  0  0  0  0  0  0  0  0  0
   -3.7094    0.0555    1.7476 N   0  0  0  0  0  0  0  0  0  0  0  0
   -4.3729    0.1786    3.0496 C   0  0  0  0  0  0  0  0  0  0  0  0
   -3.3455    0.3830    4.1725 C   0  0  0  0  0  0  0  0  0  0  0  0
   -5.3812    1.3371    3.0427 C   0  0  0  0  0  0  0  0  0  0  0  0
   -5.1383   -1.1298    3.3159 C   0  0  0  0  0  0  0  0  0  0  0  0
   -1.9123    0.2193    0.2234 H   0  0  0  0  0  0  0  0  0  0  0  0
   -1.0828   -1.0372   -0.7428 H   0  0  0  0  0  0  0  0  0  0  0  0
   -0.9607   -1.0490    1.0518 H   0  0  0  0  0  0  0  0  0  0  0  0
    2.0513   -0.3794   -0.8468 H   0  0  0  0  0  0  0  0  0  0  0  0
    2.2667   -3.2957    1.1382 H   0  0  0  0  0  0  0  0  0  0  0  0
    1.6978   -3.1630   -0.5519 H   0  0  0  0  0  0  0  0  0  0  0  0
    2.3317   -4.6782    0.0167 H   0  0  0  0  0  0  0  0  0  0  0  0
    4.0294   -5.3014    0.9774 H   0  0  0  0  0  0  0  0  0  0  0  0
    7.0707   -4.3121   -0.3877 H   0  0  0  0  0  0  0  0  0  0  0  0
    7.4225   -2.1412   -1.5381 H   0  0  0  0  0  0  0  0  0  0  0  0
    5.5089   -0.5980   -1.8594 H   0  0  0  0  0  0  0  0  0  0  0  0
    2.7688   -0.8005    0.9460 H   0  0  0  0  0  0  0  0  0  0  0  0
    0.8957    0.6379   -0.8379 H   0  0  0  0  0  0  0  0  0  0  0  0
    1.5057    2.7567    0.3031 H   0  0  0  0  0  0  0  0  0  0  0  0
    2.7206    2.0800   -0.7837 H   0  0  0  0  0  0  0  0  0  0  0  0
    4.4674    3.6575   -0.7824 H   0  0  0  0  0  0  0  0  0  0  0  0
    5.1117    6.0304   -0.9365 H   0  0  0  0  0  0  0  0  0  0  0  0
    5.0300    7.4820    1.0769 H   0  0  0  0  0  0  0  0  0  0  0  0
    4.2957    6.5415    3.2539 H   0  0  0  0  0  0  0  0  0  0  0  0
    3.6228    4.1696    3.4172 H   0  0  0  0  0  0  0  0  0  0  0  0
   -0.1430    1.3491    1.3829 H   0  0  0  0  0  0  0  0  0  0  0  0
    0.4745    0.3752    3.2083 H   0  0  0  0  0  0  0  0  0  0  0  0
   -1.1113   -0.9022    1.9924 H   0  0  0  0  0  0  0  0  0  0  0  0
   -0.0085   -1.7033    0.9676 H   0  0  0  0  0  0  0  0  0  0  0  0
   -0.7395   -2.3224   -1.0954 H   0  0  0  0  0  0  0  0  0  0  0  0
   -0.3490   -0.7170   -1.7145 H   0  0  0  0  0  0  0  0  0  0  0  0
   -3.0448   -2.1354   -1.8890 H   0  0  0  0  0  0  0  0  0  0  0  0
   -1.3673   -3.0579   -3.4409 H   0  0  0  0  0  0  0  0  0  0  0  0
   -0.9693   -1.4461   -4.0267 H   0  0  0  0  0  0  0  0  0  0  0  0
   -3.6465   -2.8919   -4.3150 H   0  0  0  0  0  0  0  0  0  0  0  0
   -2.4980   -2.5341   -5.6020 H   0  0  0  0  0  0  0  0  0  0  0  0
   -2.8843   -0.1306   -5.3801 H   0  0  0  0  0  0  0  0  0  0  0  0
   -4.4334   -0.9444   -5.5691 H   0  0  0  0  0  0  0  0  0  0  0  0
   -4.4935    0.7998   -3.7834 H   0  0  0  0  0  0  0  0  0  0  0  0
   -4.8839   -0.8075   -3.1682 H   0  0  0  0  0  0  0  0  0  0  0  0
   -2.1727    0.6002   -2.9694 H   0  0  0  0  0  0  0  0  0  0  0  0
   -4.2621   -0.1108   -0.8607 H   0  0  0  0  0  0  0  0  0  0  0  0
   -3.8333    1.5031   -1.3982 H   0  0  0  0  0  0  0  0  0  0  0  0
   -1.5686    1.3213   -0.5029 H   0  0  0  0  0  0  0  0  0  0  0  0
   -3.5711   -0.8763    1.3603 H   0  0  0  0  0  0  0  0  0  0  0  0
   -3.8305    0.3894    5.1552 H   0  0  0  0  0  0  0  0  0  0  0  0
   -2.5959   -0.4170    4.1730 H   0  0  0  0  0  0  0  0  0  0  0  0
   -2.8094    1.3321    4.0686 H   0  0  0  0  0  0  0  0  0  0  0  0
   -5.9551    1.3668    3.9761 H   0  0  0  0  0  0  0  0  0  0  0  0
   -6.0893    1.2382    2.2112 H   0  0  0  0  0  0  0  0  0  0  0  0
   -4.8880    2.3091    2.9341 H   0  0  0  0  0  0  0  0  0  0  0  0
   -5.6667   -1.0975    4.2750 H   0  0  0  0  0  0  0  0  0  0  0  0
   -4.4576   -1.9887    3.3372 H   0  0  0  0  0  0  0  0  0  0  0  0
   -5.8772   -1.3216    2.5289 H   0  0  0  0  0  0  0  0  0  0  0  0
  1  2  1  0
  2  3  2  0
  2  4  2  0
  2  5  1  0
  6  7  1  0
  7  8  2  0
  8  9  1  0
  8 10  1  0
 10 11  2  0
 11 12  1  0
 12 13  2  0
 13 14  1  0
 14 15  2  0
 14 16  1  0
 16 17  1  0
 17 18  1  0
 18 19  1  0
 19 20  1  0
 20 21  2  0
 21 22  1  0
 22 23  2  0
 23 24  1  0
 24 25  2  0
 17 26  1  0
 26 27  1  0
 26 28  1  0
 28 29  1  0
 29 30  1  0
 30 31  1  0
 31 32  1  0
 32 33  1  0
 33 34  1  0
 34 35  1  0
 35 36  1  0
 36 37  1  0
 37 38  1  0
 38 39  1  0
 39 40  2  0
 39 41  1  0
 41 42  1  0
 42 43  1  0
 42 44  1  0
 42 45  1  0
 13  7  1  0
 25 20  1  0
 38 29  1  0
 36 31  1  0
  1 46  1  0
  1 47  1  0
  1 48  1  0
  5 49  1  0
  6 50  1  0
  6 51  1  0
  6 52  1  0
  9 53  1  0
 10 54  1  0
 11 55  1  0
 12 56  1  0
 16 57  1  0
 17 58  1  0
 18 59  1  0
 18 60  1  0
 21 61  1  0
 22 62  1  0
 23 63  1  0
 24 64  1  0
 25 65  1  0
 26 66  1  0
 27 67  1  0
 28 68  1  0
 28 69  1  0
 30 70  1  0
 30 71  1  0
 31 72  1  0
 32 73  1  0
 32 74  1  0
 33 75  1  0
 33 76  1  0
 34 77  1  0
 34 78  1  0
 35 79  1  0
 35 80  1  0
 36 81  1  0
 37 82  1  0
 37 83  1  0
 38 84  1  0
 41 85  1  0
 43 86  1  0
 43 87  1  0
 43 88  1  0
 44 89  1  0
 44 90  1  0
 44 91  1  0
 45 92  1  0
 45 93  1  0
 45 94  1  0
M  END
$$$$
