
     RDKit          3D

 30 30  0  0  0  0  0  0  0  0999 V2000
    0.6849    0.0000    0.0000 Cl  0  0  0  0  0  0  0  0  0  0  0  0
    4.7656   -2.2278   -0.7944 O   0  0  0  0  0  0  0  0  0  0  0  0
    4.5480   -1.0675   -1.1362 C   0  0  0  0  0  0  0  0  0  0  0  0
    5.5388   -0.2737   -1.6643 O   0  0  0  0  0  0  0  0  0  0  0  0
    3.1788   -0.4935   -0.9797 C   0  0  0  0  0  0  0  0  0  0  0  0
    3.0053    0.6908   -1.3409 O   0  0  0  0  0  0  0  0  0  0  0  0
    2.1684   -1.2795   -0.4496 N   0  0  0  0  0  0  0  0  0  0  0  0
    0.8504   -0.8642   -0.1910 C   0  0  0  0  0  0  0  0  0  0  0  0
   -0.4457   -2.1251   -0.3702 S   0  0  0  0  0  0  0  0  0  0  0  0
   -1.8054   -1.0772    0.0804 C   0  0  0  0  0  0  0  0  0  0  0  0
   -1.2147    0.0964    0.3282 C   0  0  0  0  0  0  0  0  0  0  0  0
    0.1488    0.2121    0.1972 C   0  0  0  0  0  0  0  0  0  0  0  0
    0.8855    1.4114    0.7452 C   0  0  0  0  0  0  0  0  0  0  0  0
    0.2344    2.4376    1.0401 O   0  0  0  0  0  0  0  0  0  0  0  0
    2.2263    1.4655    0.9643 O   0  0  0  0  0  0  0  0  0  0  0  0
   -2.2110    1.1929    0.7219 C   0  0  0  0  0  0  0  0  0  0  0  0
   -3.4491    0.8840   -0.1351 C   0  0  0  0  0  0  0  0  0  0  0  0
   -4.0185   -0.2994    0.4286 N   0  0  0  0  0  0  0  0  0  0  0  0
   -3.2206   -1.4375    0.1639 C   0  0  0  0  0  0  0  0  0  0  0  0
   -0.6849    0.0000    0.0000 H   0  0  0  0  0  0  0  0  0  0  0  0
    6.5231   -0.5193   -1.6380 H   0  0  0  0  0  0  0  0  0  0  0  0
    2.4461   -2.3156   -0.2117 H   0  0  0  0  0  0  0  0  0  0  0  0
    2.6664    1.9928    1.7353 H   0  0  0  0  0  0  0  0  0  0  0  0
   -1.8891    2.1785    0.4040 H   0  0  0  0  0  0  0  0  0  0  0  0
   -2.4950    1.1098    1.7724 H   0  0  0  0  0  0  0  0  0  0  0  0
   -4.1261    1.7390   -0.1991 H   0  0  0  0  0  0  0  0  0  0  0  0
   -3.0677    0.6344   -1.1468 H   0  0  0  0  0  0  0  0  0  0  0  0
   -4.3970   -0.2035    1.3754 H   0  0  0  0  0  0  0  0  0  0  0  0
   -3.3285   -2.1426    1.0380 H   0  0  0  0  0  0  0  0  0  0  0  0
   -3.5176   -2.0072   -0.7378 H   0  0  0  0  0  0  0  0  0  0  0  0
  2  3  2  0
  3  4  1  0
  3  5  1  0
  5  6  2  0
  5  7  1  0
  7  8  1  0
  8  9  1  0
  9 10  1  0
 10 11  2  0
 11 12  1  0
 12 13  1  0
 13 14  2  0
 13 15  1  0
 11 16  1  0
 16 17  1  0
 17 18  1  0
 18 19  1  0
 12  8  2  0
 19 10  1  0
  1 20  1  0
  4 21  1  0
  7 22  1  0
 15 23  1  0
 16 24  1  0
 16 25  1  0
 17 26  1  0
 17 27  1  0
 18 28  1  0
 19 29  1  0
 19 30  1  0
M  END
$$$$
