
     RDKit          3D

 72 76  0  0  0  0  0  0  0  0999 V2000
   -5.8192    4.6344    0.6286 C   0  0  0  0  0  0  0  0  0  0  0  0
   -5.5452    3.2581    0.2263 N   0  0  0  0  0  0  0  0  0  0  0  0
   -4.8116    3.2234   -1.0567 C   0  0  0  0  0  0  0  0  0  0  0  0
   -4.1758    1.8489   -1.3657 C   0  0  0  0  0  0  0  0  0  0  0  0
   -3.2679    1.3868   -0.2857 N   0  0  0  0  0  0  0  0  0  0  0  0
   -1.9256    1.2041   -0.7008 C   0  0  0  0  0  0  0  0  0  0  0  0
   -1.1302    2.2549   -1.1697 C   0  0  0  0  0  0  0  0  0  0  0  0
    0.1932    2.0236   -1.5574 C   0  0  0  0  0  0  0  0  0  0  0  0
    0.7569    0.7387   -1.4938 C   0  0  0  0  0  0  0  0  0  0  0  0
    2.1549    0.5000   -1.9011 C   0  0  0  0  0  0  0  0  0  0  0  0
    2.6530    0.9907   -3.1190 C   0  0  0  0  0  0  0  0  0  0  0  0
    3.9757    0.7594   -3.5033 C   0  0  0  0  0  0  0  0  0  0  0  0
    4.8264    0.0310   -2.6746 C   0  0  0  0  0  0  0  0  0  0  0  0
    4.3663   -0.4694   -1.4503 C   0  0  0  0  0  0  0  0  0  0  0  0
    5.2751   -1.2839   -0.5528 C   0  0  0  0  0  0  0  0  0  0  0  0
    6.5461   -0.6113   -0.2416 N   0  0  0  0  0  0  0  0  0  0  0  0
    6.3752    0.5698    0.6330 C   0  0  0  0  0  0  0  0  0  0  0  0
    6.6991    0.2935    2.1094 C   0  0  0  0  0  0  0  0  0  0  0  0
    8.0400   -0.1705    2.3192 O   0  0  0  0  0  0  0  0  0  0  0  0
    8.5792   -0.8623    1.1847 C   0  0  0  0  0  0  0  0  0  0  0  0
    7.4964   -1.5718    0.3597 C   0  0  0  0  0  0  0  0  0  0  0  0
    3.0316   -0.2325   -1.0798 C   0  0  0  0  0  0  0  0  0  0  0  0
   -0.0483   -0.3157   -1.0250 C   0  0  0  0  0  0  0  0  0  0  0  0
   -1.3690   -0.0929   -0.6283 C   0  0  0  0  0  0  0  0  0  0  0  0
   -2.2353   -1.0998   -0.1490 N   0  0  0  0  0  0  0  0  0  0  0  0
   -1.9699   -2.4323    0.0312 C   0  0  0  0  0  0  0  0  0  0  0  0
   -0.9199   -3.0243   -0.1831 O   0  0  0  0  0  0  0  0  0  0  0  0
   -3.1608   -3.1974    0.5005 C   0  0  0  0  0  0  0  0  0  0  0  0
   -3.6377   -4.1139   -0.3575 C   0  0  0  0  0  0  0  0  0  0  0  0
   -4.7232   -4.8833   -0.0193 N   0  0  0  0  0  0  0  0  0  0  0  0
   -5.3795   -4.7963    1.1822 C   0  0  0  0  0  0  0  0  0  0  0  0
   -6.3503   -5.4850    1.4665 O   0  0  0  0  0  0  0  0  0  0  0  0
   -4.8350   -3.8033    2.1416 C   0  0  0  0  0  0  0  0  0  0  0  0
   -3.7737   -3.0382    1.8147 C   0  0  0  0  0  0  0  0  0  0  0  0
   -3.1846   -2.0563    2.7772 C   0  0  0  0  0  0  0  0  0  0  0  0
   -3.7202   -2.1707    4.0217 F   0  0  0  0  0  0  0  0  0  0  0  0
   -3.4179   -0.7787    2.3841 F   0  0  0  0  0  0  0  0  0  0  0  0
   -1.8460   -2.1995    2.9215 F   0  0  0  0  0  0  0  0  0  0  0  0
   -3.3600    2.1735    0.9676 C   0  0  0  0  0  0  0  0  0  0  0  0
   -4.8360    2.5027    1.2841 C   0  0  0  0  0  0  0  0  0  0  0  0
   -6.3751    5.1606   -0.1553 H   0  0  0  0  0  0  0  0  0  0  0  0
   -4.9001    5.1944    0.8368 H   0  0  0  0  0  0  0  0  0  0  0  0
   -6.4472    4.6549    1.5262 H   0  0  0  0  0  0  0  0  0  0  0  0
   -4.0160    3.9810   -1.0632 H   0  0  0  0  0  0  0  0  0  0  0  0
   -5.5046    3.4796   -1.8670 H   0  0  0  0  0  0  0  0  0  0  0  0
   -3.6731    1.8912   -2.3404 H   0  0  0  0  0  0  0  0  0  0  0  0
   -4.9729    1.1017   -1.4635 H   0  0  0  0  0  0  0  0  0  0  0  0
   -1.5269    3.2637   -1.2306 H   0  0  0  0  0  0  0  0  0  0  0  0
    0.7920    2.8654   -1.9006 H   0  0  0  0  0  0  0  0  0  0  0  0
    2.0044    1.5481   -3.7912 H   0  0  0  0  0  0  0  0  0  0  0  0
    4.3411    1.1436   -4.4519 H   0  0  0  0  0  0  0  0  0  0  0  0
    5.8558   -0.1445   -2.9808 H   0  0  0  0  0  0  0  0  0  0  0  0
    5.4735   -2.2226   -1.0880 H   0  0  0  0  0  0  0  0  0  0  0  0
    4.7528   -1.5582    0.3735 H   0  0  0  0  0  0  0  0  0  0  0  0
    5.3752    1.0090    0.5517 H   0  0  0  0  0  0  0  0  0  0  0  0
    7.0728    1.3345    0.2679 H   0  0  0  0  0  0  0  0  0  0  0  0
    6.0112   -0.4531    2.5240 H   0  0  0  0  0  0  0  0  0  0  0  0
    6.5765    1.2089    2.6974 H   0  0  0  0  0  0  0  0  0  0  0  0
    9.1318   -0.1409    0.5711 H   0  0  0  0  0  0  0  0  0  0  0  0
    9.3040   -1.5913    1.5610 H   0  0  0  0  0  0  0  0  0  0  0  0
    6.9677   -2.2699    1.0228 H   0  0  0  0  0  0  0  0  0  0  0  0
    7.9654   -2.1567   -0.4390 H   0  0  0  0  0  0  0  0  0  0  0  0
    2.6697   -0.6191   -0.1277 H   0  0  0  0  0  0  0  0  0  0  0  0
    0.3748   -1.3152   -0.9899 H   0  0  0  0  0  0  0  0  0  0  0  0
   -3.1603   -0.7255    0.0605 H   0  0  0  0  0  0  0  0  0  0  0  0
   -3.2022   -4.2923   -1.3373 H   0  0  0  0  0  0  0  0  0  0  0  0
   -5.0809   -5.5740   -0.6698 H   0  0  0  0  0  0  0  0  0  0  0  0
   -5.3362   -3.7501    3.1017 H   0  0  0  0  0  0  0  0  0  0  0  0
   -2.7920    3.1107    0.9018 H   0  0  0  0  0  0  0  0  0  0  0  0
   -2.9381    1.5904    1.7942 H   0  0  0  0  0  0  0  0  0  0  0  0
   -4.8930    3.0154    2.2525 H   0  0  0  0  0  0  0  0  0  0  0  0
   -5.3759    1.5556    1.4136 H   0  0  0  0  0  0  0  0  0  0  0  0
  1  2  1  0
  2  3  1  0
  3  4  1  0
  4  5  1  0
  5  6  1  0
  6  7  2  0
  7  8  1  0
  8  9  2  0
  9 10  1  0
 10 11  2  0
 11 12  1  0
 12 13  2  0
 13 14  1  0
 14 15  1  0
 15 16  1  0
 16 17  1  0
 17 18  1  0
 18 19  1  0
 19 20  1  0
 20 21  1  0
 14 22  2  0
  9 23  1  0
 23 24  2  0
 24 25  1  0
 25 26  1  0
 26 27  2  0
 26 28  1  0
 28 29  2  0
 29 30  1  0
 30 31  1  0
 31 32  2  0
 31 33  1  0
 33 34  2  0
 34 35  1  0
 35 36  1  0
 35 37  1  0
 35 38  1  0
  5 39  1  0
 39 40  1  0
 40  2  1  0
 24  6  1  0
 34 28  1  0
 22 10  1  0
 21 16  1  0
  1 41  1  0
  1 42  1  0
  1 43  1  0
  3 44  1  0
  3 45  1  0
  4 46  1  0
  4 47  1  0
  7 48  1  0
  8 49  1  0
 11 50  1  0
 12 51  1  0
 13 52  1  0
 15 53  1  0
 15 54  1  0
 17 55  1  0
 17 56  1  0
 18 57  1  0
 18 58  1  0
 20 59  1  0
 20 60  1  0
 21 61  1  0
 21 62  1  0
 22 63  1  0
 23 64  1  0
 25 65  1  0
 29 66  1  0
 30 67  1  0
 33 68  1  0
 39 69  1  0
 39 70  1  0
 40 71  1  0
 40 72  1  0
M  END
$$$$
