
     RDKit          3D

 48 50  0  0  0  0  0  0  0  0999 V2000
   -2.0004    1.9670    1.8625 C   0  0  0  0  0  0  0  0  0  0  0  0
   -0.9063    1.0252    1.3813 C   0  0  0  0  0  0  0  0  0  0  0  0
   -1.1517    0.4839   -0.0275 C   0  0  0  0  0  0  0  0  0  0  0  0
   -2.2694   -0.4328   -0.1259 N   0  0  0  0  0  0  0  0  0  0  0  0
   -2.2704   -1.7922    0.1259 C   0  0  0  0  0  0  0  0  0  0  0  0
   -1.0824   -2.5606    0.6085 C   0  0  0  0  0  0  0  0  0  0  0  0
   -0.2572   -2.8806   -0.5530 N   0  0  0  0  0  0  0  0  0  0  0  0
    1.2888   -3.4499   -0.2611 S   0  0  0  0  0  6  0  0  0  0  0  0
    1.7397   -4.0853   -1.4775 O   0  0  0  0  0  0  0  0  0  0  0  0
    1.2820   -4.1381    1.0103 O   0  0  0  0  0  0  0  0  0  0  0  0
    2.1931   -1.9337   -0.0813 C   0  0  0  0  0  0  0  0  0  0  0  0
    2.4203   -1.1364   -1.2039 C   0  0  0  0  0  0  0  0  0  0  0  0
    3.1061    0.0751   -1.0655 C   0  0  0  0  0  0  0  0  0  0  0  0
    3.5761    0.4875    0.1849 C   0  0  0  0  0  0  0  0  0  0  0  0
    4.2742    1.6925    0.4046 N   0  0  0  0  0  0  0  0  0  0  0  0
    4.5471    2.6865   -0.5188 C   0  0  0  0  0  0  0  0  0  0  0  0
    5.3446    3.8141    0.0870 C   0  0  0  0  0  0  0  0  0  0  0  0
    4.1975    2.7190   -1.6924 O   0  0  0  0  0  0  0  0  0  0  0  0
    3.3588   -0.3369    1.2990 C   0  0  0  0  0  0  0  0  0  0  0  0
    2.6688   -1.5458    1.1714 C   0  0  0  0  0  0  0  0  0  0  0  0
   -3.4547   -2.3208   -0.1409 N   0  0  0  0  0  0  0  0  0  0  0  0
   -4.2367   -1.2793   -0.5672 C   0  0  0  0  0  0  0  0  0  0  0  0
   -5.5727   -1.2386   -0.9795 C   0  0  0  0  0  0  0  0  0  0  0  0
   -6.0829    0.0031   -1.3654 C   0  0  0  0  0  0  0  0  0  0  0  0
   -5.2535    1.1207   -1.3231 C   0  0  0  0  0  0  0  0  0  0  0  0
   -3.9560    1.1322   -0.9315 N   0  0  0  0  0  0  0  0  0  0  0  0
   -3.5196   -0.0913   -0.5708 C   0  0  0  0  0  0  0  0  0  0  0  0
   -1.7312    2.3885    2.8362 H   0  0  0  0  0  0  0  0  0  0  0  0
   -2.1419    2.7965    1.1626 H   0  0  0  0  0  0  0  0  0  0  0  0
   -2.9544    1.4445    1.9800 H   0  0  0  0  0  0  0  0  0  0  0  0
    0.0447    1.5710    1.3812 H   0  0  0  0  0  0  0  0  0  0  0  0
   -0.8019    0.2046    2.0993 H   0  0  0  0  0  0  0  0  0  0  0  0
   -1.3156    1.3059   -0.7339 H   0  0  0  0  0  0  0  0  0  0  0  0
   -0.2644   -0.0496   -0.3792 H   0  0  0  0  0  0  0  0  0  0  0  0
   -0.5250   -1.9836    1.3507 H   0  0  0  0  0  0  0  0  0  0  0  0
   -1.4267   -3.4883    1.0785 H   0  0  0  0  0  0  0  0  0  0  0  0
   -0.7250   -3.3671   -1.3192 H   0  0  0  0  0  0  0  0  0  0  0  0
    2.0656   -1.4450   -2.1854 H   0  0  0  0  0  0  0  0  0  0  0  0
    3.2654    0.6701   -1.9603 H   0  0  0  0  0  0  0  0  0  0  0  0
    4.5971    1.8552    1.3504 H   0  0  0  0  0  0  0  0  0  0  0  0
    6.2427    3.4219    0.5725 H   0  0  0  0  0  0  0  0  0  0  0  0
    4.7301    4.3492    0.8164 H   0  0  0  0  0  0  0  0  0  0  0  0
    5.6515    4.5108   -0.6989 H   0  0  0  0  0  0  0  0  0  0  0  0
    3.7227   -0.0500    2.2830 H   0  0  0  0  0  0  0  0  0  0  0  0
    2.5117   -2.1715    2.0473 H   0  0  0  0  0  0  0  0  0  0  0  0
   -6.1769   -2.1373   -0.9965 H   0  0  0  0  0  0  0  0  0  0  0  0
   -7.1122    0.0966   -1.6956 H   0  0  0  0  0  0  0  0  0  0  0  0
   -5.6394    2.0933   -1.6226 H   0  0  0  0  0  0  0  0  0  0  0  0
  1  2  1  0
  2  3  1  0
  3  4  1  0
  4  5  1  0
  5  6  1  0
  6  7  1  0
  7  8  1  0
  8  9  2  0
  8 10  2  0
  8 11  1  0
 11 12  2  0
 12 13  1  0
 13 14  2  0
 14 15  1  0
 15 16  1  0
 16 17  1  0
 16 18  2  0
 14 19  1  0
 19 20  2  0
  5 21  2  0
 21 22  1  0
 22 23  2  0
 23 24  1  0
 24 25  2  0
 25 26  1  0
 26 27  2  0
 27  4  1  0
 20 11  1  0
 27 22  1  0
  1 28  1  0
  1 29  1  0
  1 30  1  0
  2 31  1  0
  2 32  1  0
  3 33  1  0
  3 34  1  0
  6 35  1  0
  6 36  1  0
  7 37  1  0
 12 38  1  0
 13 39  1  0
 15 40  1  0
 17 41  1  0
 17 42  1  0
 17 43  1  0
 19 44  1  0
 20 45  1  0
 23 46  1  0
 24 47  1  0
 25 48  1  0
M  END
$$$$
