
     RDKit          3D

 57 63  0  0  0  0  0  0  0  0999 V2000
    1.6600    1.0238    1.6848 C   0  0  0  0  0  0  0  0  0  0  0  0
    1.8107    0.5625    0.2056 C   0  0  2  0  0  0  0  0  0  0  0  0
    1.1270    1.6419   -0.6603 C   0  0  0  0  0  0  0  0  0  0  0  0
   -0.3846    1.7258   -0.3599 C   0  0  0  0  0  0  0  0  0  0  0  0
   -1.1310    0.3634   -0.4471 C   0  0  1  0  0  0  0  0  0  0  0  0
   -0.3629   -0.8141    0.2456 C   0  0  2  0  0  0  0  0  0  0  0  0
    1.0999   -0.7661   -0.1966 C   0  0  2  0  0  0  0  0  0  0  0  0
    2.0254   -1.8910    0.1783 C   0  0  2  0  0  0  0  0  0  0  0  0
    2.8652   -1.9941    1.4193 C   0  0  0  0  0  0  0  0  0  0  0  0
    3.4084   -1.3033    0.1890 C   0  0  2  0  0  0  0  0  0  0  0  0
    3.3143    0.2077   -0.0887 C   0  0  1  0  0  0  0  0  0  0  0  0
    3.8114    0.5403   -1.4901 C   0  0  0  0  0  0  0  0  0  0  0  0
    5.3092    0.6308   -1.2979 C   0  0  0  0  0  0  0  0  0  0  0  0
    5.4056    1.1068    0.1190 C   0  0  0  0  0  0  0  0  0  0  0  0
    6.3989    1.5922    0.6346 O   0  0  0  0  0  0  0  0  0  0  0  0
    4.2240    0.9016    0.7689 O   0  0  0  0  0  0  0  0  0  0  0  0
   -1.0348   -2.1153   -0.1218 C   0  0  1  0  0  0  0  0  0  0  0  0
   -1.9672   -2.7878    0.8578 C   0  0  0  0  0  0  0  0  0  0  0  0
   -2.5167   -2.1517   -0.3851 C   0  0  1  0  0  0  0  0  0  0  0  0
   -3.3358   -0.9241   -0.2935 C   0  0  0  0  0  0  0  0  0  0  0  0
   -4.6550   -0.9764   -0.5665 C   0  0  0  0  0  0  0  0  0  0  0  0
   -5.5176    0.2243   -0.6102 C   0  0  0  0  0  0  0  0  0  0  0  0
   -6.7327    0.0857   -0.7344 O   0  0  0  0  0  0  0  0  0  0  0  0
   -4.8816    1.5833   -0.4811 C   0  0  0  0  0  0  0  0  0  0  0  0
   -3.3818    1.5425   -0.7565 C   0  0  0  0  0  0  0  0  0  0  0  0
   -2.6376    0.4172    0.0182 C   0  0  2  0  0  0  0  0  0  0  0  0
   -2.7542    0.7028    1.5367 C   0  0  0  0  0  0  0  0  0  0  0  0
    2.2722    0.4651    2.3911 H   0  0  0  0  0  0  0  0  0  0  0  0
    0.6337    0.9784    2.0553 H   0  0  0  0  0  0  0  0  0  0  0  0
    1.9846    2.0677    1.7840 H   0  0  0  0  0  0  0  0  0  0  0  0
    1.2420    1.4193   -1.7284 H   0  0  0  0  0  0  0  0  0  0  0  0
    1.5892    2.6226   -0.4951 H   0  0  0  0  0  0  0  0  0  0  0  0
   -0.5341    2.1827    0.6228 H   0  0  0  0  0  0  0  0  0  0  0  0
   -0.8183    2.4254   -1.0843 H   0  0  0  0  0  0  0  0  0  0  0  0
   -1.1496    0.1253   -1.5242 H   0  0  0  0  0  0  0  0  0  0  0  0
   -0.3925   -0.7226    1.3341 H   0  0  0  0  0  0  0  0  0  0  0  0
    1.0853   -0.8172   -1.2989 H   0  0  0  0  0  0  0  0  0  0  0  0
    1.8575   -2.7963   -0.3928 H   0  0  0  0  0  0  0  0  0  0  0  0
    3.2782   -2.9700    1.6629 H   0  0  0  0  0  0  0  0  0  0  0  0
    2.5817   -1.4548    2.3071 H   0  0  0  0  0  0  0  0  0  0  0  0
    4.1999   -1.8120   -0.3462 H   0  0  0  0  0  0  0  0  0  0  0  0
    3.5256   -0.1898   -2.2531 H   0  0  0  0  0  0  0  0  0  0  0  0
    3.4662    1.5283   -1.8139 H   0  0  0  0  0  0  0  0  0  0  0  0
    5.7992   -0.3422   -1.3885 H   0  0  0  0  0  0  0  0  0  0  0  0
    5.7574    1.3516   -1.9858 H   0  0  0  0  0  0  0  0  0  0  0  0
   -0.4329   -2.7504   -0.7619 H   0  0  0  0  0  0  0  0  0  0  0  0
   -1.9508   -3.8717    0.9058 H   0  0  0  0  0  0  0  0  0  0  0  0
   -2.1546   -2.3223    1.8177 H   0  0  0  0  0  0  0  0  0  0  0  0
   -2.8283   -2.8290   -1.1793 H   0  0  0  0  0  0  0  0  0  0  0  0
   -5.1578   -1.9109   -0.7925 H   0  0  0  0  0  0  0  0  0  0  0  0
   -5.0886    1.9667    0.5232 H   0  0  0  0  0  0  0  0  0  0  0  0
   -5.3573    2.2560   -1.2036 H   0  0  0  0  0  0  0  0  0  0  0  0
   -3.2268    1.4033   -1.8357 H   0  0  0  0  0  0  0  0  0  0  0  0
   -2.9712    2.5274   -0.5057 H   0  0  0  0  0  0  0  0  0  0  0  0
   -2.3871    1.7041    1.7842 H   0  0  0  0  0  0  0  0  0  0  0  0
   -2.1977   -0.0108    2.1484 H   0  0  0  0  0  0  0  0  0  0  0  0
   -3.7918    0.6478    1.8850 H   0  0  0  0  0  0  0  0  0  0  0  0
  2  1  1  1
  2  3  1  0
  3  4  1  0
  4  5  1  0
  5  6  1  0
  6  7  1  0
  7  8  1  0
  8  9  1  0
  9 10  1  0
 10 11  1  0
 11 12  1  0
 12 13  1  0
 13 14  1  0
 14 15  2  0
 14 16  1  0
  6 17  1  0
 17 18  1  0
 18 19  1  0
 19 20  1  0
 20 21  2  0
 21 22  1  0
 22 23  2  0
 22 24  1  0
 24 25  1  0
 25 26  1  0
 26 27  1  1
  7  2  1  0
 10  8  1  0
 11 16  1  1
 19 17  1  0
 26 20  1  0
 11  2  1  0
 26  5  1  0
  1 28  1  0
  1 29  1  0
  1 30  1  0
  3 31  1  0
  3 32  1  0
  4 33  1  0
  4 34  1  0
  5 35  1  6
  6 36  1  1
  7 37  1  6
  8 38  1  6
  9 39  1  0
  9 40  1  0
 10 41  1  6
 12 42  1  0
 12 43  1  0
 13 44  1  0
 13 45  1  0
 17 46  1  6
 18 47  1  0
 18 48  1  0
 19 49  1  6
 21 50  1  0
 24 51  1  0
 24 52  1  0
 25 53  1  0
 25 54  1  0
 27 55  1  0
 27 56  1  0
 27 57  1  0
M  END
$$$$
