
     RDKit          3D

 85 87  0  0  0  0  0  0  0  0999 V2000
   -2.4803    4.2647   -0.0209 C   0  0  0  0  0  0  0  0  0  0  0  0
   -2.6431    2.8794    0.5287 C   0  0  0  0  0  0  0  0  0  0  0  0
   -3.8482    2.1849    0.3572 C   0  0  0  0  0  0  0  0  0  0  0  0
   -3.9924    0.8769    0.8405 C   0  0  0  0  0  0  0  0  0  0  0  0
   -5.2881    0.1285    0.6762 C   0  0  0  0  0  0  0  0  0  0  0  0
   -5.3496   -0.6461   -0.9372 S   0  0  0  0  0  6  0  0  0  0  0  0
   -4.2831   -1.6240   -1.0510 O   0  0  0  0  0  0  0  0  0  0  0  0
   -5.5445    0.3701   -1.9579 O   0  0  0  0  0  0  0  0  0  0  0  0
   -6.8737   -1.5692   -0.8354 C   0  0  0  0  0  0  0  0  0  0  0  0
   -6.8472   -2.8919   -0.3821 C   0  0  0  0  0  0  0  0  0  0  0  0
   -8.0400   -3.6080   -0.2925 C   0  0  0  0  0  0  0  0  0  0  0  0
   -9.2434   -3.0099   -0.6693 C   0  0  0  0  0  0  0  0  0  0  0  0
   -9.2586   -1.6963   -1.1428 C   0  0  0  0  0  0  0  0  0  0  0  0
   -8.0716   -0.9694   -1.2325 C   0  0  0  0  0  0  0  0  0  0  0  0
   -2.9074    0.2724    1.4916 C   0  0  0  0  0  0  0  0  0  0  0  0
   -1.7002    0.9537    1.6729 C   0  0  0  0  0  0  0  0  0  0  0  0
   -0.7448    0.2351    2.3374 O   0  0  0  0  0  0  0  0  0  0  0  0
    0.4492    0.9015    2.7535 C   0  0  0  0  0  0  0  0  0  0  0  0
    1.5461    0.8713    1.7150 C   0  0  0  0  0  0  0  0  0  0  0  0
    2.5187    1.8804    1.6927 C   0  0  0  0  0  0  0  0  0  0  0  0
    3.5798    1.8283    0.7827 C   0  0  0  0  0  0  0  0  0  0  0  0
    3.7014    0.7587   -0.1142 C   0  0  0  0  0  0  0  0  0  0  0  0
    4.8434    0.7148   -1.1101 C   0  0  0  0  0  0  0  0  0  0  0  0
    5.5315   -0.5895   -1.1718 N   0  0  0  0  0  0  0  0  0  0  0  0
    6.4779   -0.6332   -2.2923 C   0  0  0  0  0  0  0  0  0  0  0  0
    7.7559   -0.0145   -1.7641 C   0  0  0  0  0  0  0  0  0  0  0  0
    7.7582   -0.3546   -0.2816 C   0  0  0  0  0  0  0  0  0  0  0  0
    6.3449   -0.8517    0.0455 C   0  0  2  0  0  0  0  0  0  0  0  0
    6.3474   -2.3581    0.3922 C   0  0  0  0  0  0  0  0  0  0  0  0
    5.0933   -2.7508    0.9437 O   0  0  0  0  0  0  0  0  0  0  0  0
    2.7256   -0.2461   -0.0922 C   0  0  0  0  0  0  0  0  0  0  0  0
    1.6662   -0.1960    0.8172 C   0  0  0  0  0  0  0  0  0  0  0  0
   -1.5665    2.2478    1.1734 C   0  0  0  0  0  0  0  0  0  0  0  0
    2.6840   -0.8344    0.1994 O   0  0  0  0  0  0  0  0  0  0  0  0
    2.2518    0.2256    0.6185 C   0  0  0  0  0  0  0  0  0  0  0  0
    3.0656    1.1001    1.2556 O   0  0  0  0  0  0  0  0  0  0  0  0
    0.8274    0.7162    0.5777 C   0  0  0  0  0  0  0  0  0  0  0  0
    0.0330    0.0847   -0.5670 C   0  0  0  0  0  0  0  0  0  0  0  0
    0.7051    0.4035   -1.8024 O   0  0  0  0  0  0  0  0  0  0  0  0
   -1.3739    0.6740   -0.6919 C   0  0  0  0  0  0  0  0  0  0  0  0
   -2.2880    0.2992    0.4348 C   0  0  0  0  0  0  0  0  0  0  0  0
   -3.0544   -0.6484    0.4510 O   0  0  0  0  0  0  0  0  0  0  0  0
   -2.1821    1.1193    1.4942 O   0  0  0  0  0  0  0  0  0  0  0  0
   -0.0709   -1.4357   -0.3687 C   0  0  0  0  0  0  0  0  0  0  0  0
   -0.2265   -2.0354    0.6793 O   0  0  0  0  0  0  0  0  0  0  0  0
   -0.0091   -2.0963   -1.5496 O   0  0  0  0  0  0  0  0  0  0  0  0
   -1.8302    4.8636    0.6256 H   0  0  0  0  0  0  0  0  0  0  0  0
   -2.0427    4.2267   -1.0239 H   0  0  0  0  0  0  0  0  0  0  0  0
   -3.4443    4.7797   -0.0751 H   0  0  0  0  0  0  0  0  0  0  0  0
   -4.6726    2.6661   -0.1688 H   0  0  0  0  0  0  0  0  0  0  0  0
   -5.3831   -0.6561    1.4336 H   0  0  0  0  0  0  0  0  0  0  0  0
   -6.1416    0.8058    0.7644 H   0  0  0  0  0  0  0  0  0  0  0  0
   -5.9095   -3.3716   -0.1042 H   0  0  0  0  0  0  0  0  0  0  0  0
   -8.0300   -4.6372    0.0614 H   0  0  0  0  0  0  0  0  0  0  0  0
  -10.1711   -3.5725   -0.6008 H   0  0  0  0  0  0  0  0  0  0  0  0
  -10.1970   -1.2405   -1.4493 H   0  0  0  0  0  0  0  0  0  0  0  0
   -8.0878    0.0484   -1.6170 H   0  0  0  0  0  0  0  0  0  0  0  0
   -2.9921   -0.7450    1.8663 H   0  0  0  0  0  0  0  0  0  0  0  0
    0.2395    1.9180    3.1086 H   0  0  0  0  0  0  0  0  0  0  0  0
    0.8187    0.3519    3.6283 H   0  0  0  0  0  0  0  0  0  0  0  0
    2.4638    2.7114    2.3920 H   0  0  0  0  0  0  0  0  0  0  0  0
    4.3188    2.6266    0.7878 H   0  0  0  0  0  0  0  0  0  0  0  0
    5.5542    1.5235   -0.8980 H   0  0  0  0  0  0  0  0  0  0  0  0
    4.4010    0.9430   -2.0887 H   0  0  0  0  0  0  0  0  0  0  0  0
    6.6548   -1.6802   -2.5669 H   0  0  0  0  0  0  0  0  0  0  0  0
    6.1127   -0.1326   -3.1956 H   0  0  0  0  0  0  0  0  0  0  0  0
    8.6445   -0.4010   -2.2737 H   0  0  0  0  0  0  0  0  0  0  0  0
    7.7391    1.0754   -1.8956 H   0  0  0  0  0  0  0  0  0  0  0  0
    7.9987    0.5420    0.3009 H   0  0  0  0  0  0  0  0  0  0  0  0
    8.5243   -1.1059   -0.0629 H   0  0  0  0  0  0  0  0  0  0  0  0
    5.9503   -0.3192    0.9198 H   0  0  0  0  0  0  0  0  0  0  0  0
    7.1161   -2.5718    1.1441 H   0  0  0  0  0  0  0  0  0  0  0  0
    6.5534   -2.9766   -0.4900 H   0  0  0  0  0  0  0  0  0  0  0  0
    5.0420   -3.7188    0.8937 H   0  0  0  0  0  0  0  0  0  0  0  0
    2.8007   -1.0922   -0.7716 H   0  0  0  0  0  0  0  0  0  0  0  0
    0.9403   -1.0078    0.8240 H   0  0  0  0  0  0  0  0  0  0  0  0
   -0.6276    2.7881    1.2538 H   0  0  0  0  0  0  0  0  0  0  0  0
    3.9494    0.6744    1.2250 H   0  0  0  0  0  0  0  0  0  0  0  0
    0.3873    0.4949    1.5546 H   0  0  0  0  0  0  0  0  0  0  0  0
    0.8596    1.8025    0.4422 H   0  0  0  0  0  0  0  0  0  0  0  0
    0.5247   -0.3541   -2.4012 H   0  0  0  0  0  0  0  0  0  0  0  0
   -1.8508    0.3341   -1.6208 H   0  0  0  0  0  0  0  0  0  0  0  0
   -1.3389    1.7671   -0.7835 H   0  0  0  0  0  0  0  0  0  0  0  0
   -2.8133    0.7499    2.1502 H   0  0  0  0  0  0  0  0  0  0  0  0
   -0.0801   -3.0412   -1.2975 H   0  0  0  0  0  0  0  0  0  0  0  0
  1  2  1  0
  2  3  2  0
  3  4  1  0
  4  5  1  0
  5  6  1  0
  6  7  2  0
  6  8  2  0
  6  9  1  0
  9 10  2  0
 10 11  1  0
 11 12  2  0
 12 13  1  0
 13 14  2  0
  4 15  2  0
 15 16  1  0
 16 17  1  0
 17 18  1  0
 18 19  1  0
 19 20  2  0
 20 21  1  0
 21 22  2  0
 22 23  1  0
 23 24  1  0
 24 25  1  0
 25 26  1  0
 26 27  1  0
 27 28  1  0
 28 29  1  0
 29 30  1  0
 22 31  1  0
 31 32  2  0
 16 33  2  0
 34 35  2  0
 35 36  1  0
 35 37  1  0
 37 38  1  0
 38 39  1  0
 38 40  1  0
 40 41  1  0
 41 42  2  0
 41 43  1  0
 38 44  1  0
 44 45  2  0
 44 46  1  0
 33  2  1  0
 14  9  1  0
 32 19  1  0
 28 24  1  0
  1 47  1  0
  1 48  1  0
  1 49  1  0
  3 50  1  0
  5 51  1  0
  5 52  1  0
 10 53  1  0
 11 54  1  0
 12 55  1  0
 13 56  1  0
 14 57  1  0
 15 58  1  0
 18 59  1  0
 18 60  1  0
 20 61  1  0
 21 62  1  0
 23 63  1  0
 23 64  1  0
 25 65  1  0
 25 66  1  0
 26 67  1  0
 26 68  1  0
 27 69  1  0
 27 70  1  0
 28 71  1  1
 29 72  1  0
 29 73  1  0
 30 74  1  0
 31 75  1  0
 32 76  1  0
 33 77  1  0
 36 78  1  0
 37 79  1  0
 37 80  1  0
 39 81  1  0
 40 82  1  0
 40 83  1  0
 43 84  1  0
 46 85  1  0
M  END
$$$$
