
     RDKit          3D

 25 26  0  0  0  0  0  0  0  0999 V2000
    3.8817   -0.0179   -1.4035 C   0  0  0  0  0  0  0  0  0  0  0  0
    2.9410   -0.3606   -0.3688 N   0  0  0  0  0  0  0  0  0  0  0  0
    2.7537   -1.9592    0.1671 S   0  0  0  0  0  0  0  0  0  0  0  0
    1.3413   -1.5212    1.1278 C   0  0  0  0  0  0  0  0  0  0  0  0
    0.7360   -2.3153    1.8297 O   0  0  0  0  0  0  0  0  0  0  0  0
    1.0856   -0.1905    0.9438 N   0  0  0  0  0  0  0  0  0  0  0  0
   -0.0562    0.4531    1.5512 C   0  0  0  0  0  0  0  0  0  0  0  0
   -1.2927    0.3338    0.6900 C   0  0  0  0  0  0  0  0  0  0  0  0
   -1.5699    1.2937   -0.2942 C   0  0  0  0  0  0  0  0  0  0  0  0
   -2.6994    1.1708   -1.1048 C   0  0  0  0  0  0  0  0  0  0  0  0
   -3.5588    0.0856   -0.9449 C   0  0  0  0  0  0  0  0  0  0  0  0
   -3.2882   -0.8799    0.0228 C   0  0  0  0  0  0  0  0  0  0  0  0
   -2.1595   -0.7593    0.8348 C   0  0  0  0  0  0  0  0  0  0  0  0
    1.9387    0.4841    0.0890 C   0  0  0  0  0  0  0  0  0  0  0  0
    1.8263    1.6636   -0.2265 O   0  0  0  0  0  0  0  0  0  0  0  0
    4.8638   -0.4365   -1.1651 H   0  0  0  0  0  0  0  0  0  0  0  0
    3.5262   -0.4217   -2.3563 H   0  0  0  0  0  0  0  0  0  0  0  0
    3.9678    1.0685   -1.4945 H   0  0  0  0  0  0  0  0  0  0  0  0
    0.1693    1.5119    1.7273 H   0  0  0  0  0  0  0  0  0  0  0  0
   -0.2476    0.0027    2.5329 H   0  0  0  0  0  0  0  0  0  0  0  0
   -0.9029    2.1423   -0.4391 H   0  0  0  0  0  0  0  0  0  0  0  0
   -2.9060    1.9209   -1.8639 H   0  0  0  0  0  0  0  0  0  0  0  0
   -4.4372   -0.0101   -1.5776 H   0  0  0  0  0  0  0  0  0  0  0  0
   -3.9545   -1.7303    0.1435 H   0  0  0  0  0  0  0  0  0  0  0  0
   -1.9582   -1.5284    1.5791 H   0  0  0  0  0  0  0  0  0  0  0  0
  1  2  1  0
  2  3  1  0
  3  4  1  0
  4  5  2  0
  4  6  1  0
  6  7  1  0
  7  8  1  0
  8  9  2  0
  9 10  1  0
 10 11  2  0
 11 12  1  0
 12 13  2  0
  6 14  1  0
 14 15  2  0
 14  2  1  0
 13  8  1  0
  1 16  1  0
  1 17  1  0
  1 18  1  0
  7 19  1  0
  7 20  1  0
  9 21  1  0
 10 22  1  0
 11 23  1  0
 12 24  1  0
 13 25  1  0
M  END
$$$$
