
     RDKit          3D

 37 39  0  0  0  0  0  0  0  0999 V2000
    5.7742   -1.3174    0.8853 C   0  0  0  0  0  0  0  0  0  0  0  0
    4.9516   -0.1665    0.7515 O   0  0  0  0  0  0  0  0  0  0  0  0
    3.6126   -0.3612    0.5209 C   0  0  0  0  0  0  0  0  0  0  0  0
    3.0018   -1.6154    0.4108 C   0  0  0  0  0  0  0  0  0  0  0  0
    1.6402   -1.7542    0.1746 C   0  0  0  0  0  0  0  0  0  0  0  0
    1.1344   -2.9875    0.0931 N   0  0  0  0  0  0  0  0  0  0  0  0
   -0.1800   -3.0872   -0.1280 C   0  0  0  0  0  0  0  0  0  0  0  0
   -1.0294   -2.0706   -0.2915 N   0  0  0  0  0  0  0  0  0  0  0  0
   -0.5129   -0.8310   -0.2227 C   0  0  0  0  0  0  0  0  0  0  0  0
   -1.3667    0.2874   -0.4379 N   0  0  0  0  0  0  0  0  0  0  0  0
   -2.7807    0.3134   -0.4353 C   0  0  0  0  0  0  0  0  0  0  0  0
   -3.5481   -0.5423    0.3664 C   0  0  0  0  0  0  0  0  0  0  0  0
   -4.9441   -0.4464    0.3956 C   0  0  0  0  0  0  0  0  0  0  0  0
   -5.9076   -1.6598    1.4912 Br  0  0  0  0  0  0  0  0  0  0  0  0
   -5.5958    0.5282   -0.3588 C   0  0  0  0  0  0  0  0  0  0  0  0
   -6.9622    0.6137   -0.3236 O   0  0  0  0  0  0  0  0  0  0  0  0
   -4.8398    1.4104   -1.1318 C   0  0  0  0  0  0  0  0  0  0  0  0
   -5.6802    2.7686   -2.1556 Br  0  0  0  0  0  0  0  0  0  0  0  0
   -3.4453    1.3137   -1.1605 C   0  0  0  0  0  0  0  0  0  0  0  0
    0.8558   -0.6039    0.0306 C   0  0  0  0  0  0  0  0  0  0  0  0
    1.4629    0.6728    0.1556 C   0  0  0  0  0  0  0  0  0  0  0  0
    2.8314    0.7985    0.4012 C   0  0  0  0  0  0  0  0  0  0  0  0
    3.4926    1.9928    0.5279 O   0  0  0  0  0  0  0  0  0  0  0  0
    2.7140    3.1791    0.5923 C   0  0  0  0  0  0  0  0  0  0  0  0
    5.7745   -1.9116   -0.0344 H   0  0  0  0  0  0  0  0  0  0  0  0
    5.4720   -1.9204    1.7477 H   0  0  0  0  0  0  0  0  0  0  0  0
    6.7992   -0.9770    1.0609 H   0  0  0  0  0  0  0  0  0  0  0  0
    3.5777   -2.5304    0.5100 H   0  0  0  0  0  0  0  0  0  0  0  0
   -0.5950   -4.0878   -0.1838 H   0  0  0  0  0  0  0  0  0  0  0  0
   -0.9808    0.8391   -1.1981 H   0  0  0  0  0  0  0  0  0  0  0  0
   -3.0574   -1.2917    0.9826 H   0  0  0  0  0  0  0  0  0  0  0  0
   -7.2337    1.3442   -0.9075 H   0  0  0  0  0  0  0  0  0  0  0  0
   -2.8743    2.0199   -1.7580 H   0  0  0  0  0  0  0  0  0  0  0  0
    0.8390    1.5557    0.0690 H   0  0  0  0  0  0  0  0  0  0  0  0
    3.3939    4.0161    0.7781 H   0  0  0  0  0  0  0  0  0  0  0  0
    1.9987    3.1410    1.4207 H   0  0  0  0  0  0  0  0  0  0  0  0
    2.2075    3.3674   -0.3598 H   0  0  0  0  0  0  0  0  0  0  0  0
  1  2  1  0
  2  3  1  0
  3  4  2  0
  4  5  1  0
  5  6  2  0
  6  7  1  0
  7  8  2  0
  8  9  1  0
  9 10  1  0
 10 11  1  0
 11 12  2  0
 12 13  1  0
 13 14  1  0
 13 15  2  0
 15 16  1  0
 15 17  1  0
 17 18  1  0
 17 19  2  0
  9 20  2  0
 20 21  1  0
 21 22  2  0
 22 23  1  0
 23 24  1  0
 22  3  1  0
 20  5  1  0
 19 11  1  0
  1 25  1  0
  1 26  1  0
  1 27  1  0
  4 28  1  0
  7 29  1  0
 10 30  1  0
 12 31  1  0
 16 32  1  0
 19 33  1  0
 21 34  1  0
 24 35  1  0
 24 36  1  0
 24 37  1  0
M  END
$$$$
