
     RDKit          3D

 18 18  0  0  0  0  0  0  0  0999 V2000
    2.2940   -3.4903   -2.4947 N   0  0  0  0  0  0  0  0  0  0  0  0
    1.9425   -2.6464   -1.7800 C   0  0  0  0  0  0  0  0  0  0  0  0
    1.4880   -1.6038   -0.9240 C   0  0  0  0  0  0  0  0  0  0  0  0
    2.3821   -1.0976    0.0625 C   0  0  0  0  0  0  0  0  0  0  0  0
    3.1120   -0.6754    0.8599 N   0  0  0  0  0  0  0  0  0  0  0  0
    0.2361   -1.1275   -1.0761 C   0  0  0  0  0  0  0  0  0  0  0  0
   -0.3606   -0.0637   -0.2539 C   0  0  0  0  0  0  0  0  0  0  0  0
   -0.1997    1.2676   -0.6634 C   0  0  0  0  0  0  0  0  0  0  0  0
   -0.7396    2.3097    0.0938 C   0  0  0  0  0  0  0  0  0  0  0  0
   -1.4442    2.0330    1.2640 C   0  0  0  0  0  0  0  0  0  0  0  0
   -1.6121    0.7126    1.6810 C   0  0  0  0  0  0  0  0  0  0  0  0
   -1.0735   -0.3328    0.9268 C   0  0  0  0  0  0  0  0  0  0  0  0
   -1.3130   -1.9499    1.4900 Cl  0  0  0  0  0  0  0  0  0  0  0  0
   -0.4299   -1.5369   -1.8347 H   0  0  0  0  0  0  0  0  0  0  0  0
    0.3478    1.5090   -1.5726 H   0  0  0  0  0  0  0  0  0  0  0  0
   -0.6075    3.3405   -0.2284 H   0  0  0  0  0  0  0  0  0  0  0  0
   -1.8610    2.8464    1.8537 H   0  0  0  0  0  0  0  0  0  0  0  0
   -2.1614    0.5055    2.5962 H   0  0  0  0  0  0  0  0  0  0  0  0
  1  2  3  0
  2  3  1  0
  3  4  1  0
  4  5  3  0
  3  6  2  3
  6  7  1  0
  7  8  2  0
  8  9  1  0
  9 10  2  0
 10 11  1  0
 11 12  2  0
 12 13  1  0
 12  7  1  0
  6 14  1  0
  8 15  1  0
  9 16  1  0
 10 17  1  0
 11 18  1  0
M  END
$$$$
