
     RDKit          3D

 52 55  0  0  0  0  0  0  0  0999 V2000
    7.5631    0.9590    2.1616 C   0  0  0  0  0  0  0  0  0  0  0  0
    6.4745    0.5160    1.3085 N   0  0  0  0  0  0  0  0  0  0  0  0
    6.7625   -0.6050    0.4275 C   0  0  0  0  0  0  0  0  0  0  0  0
    5.2542    1.2011    1.3574 C   0  0  0  0  0  0  0  0  0  0  0  0
    5.0355    2.0473    2.2271 O   0  0  0  0  0  0  0  0  0  0  0  0
    4.2227    0.9111    0.3570 C   0  0  0  0  0  0  0  0  0  0  0  0
    2.9023    1.3182    0.4181 C   0  0  0  0  0  0  0  0  0  0  0  0
    2.3469    0.8433   -0.7277 N   0  0  0  0  0  0  0  0  0  0  0  0
    0.9751    0.9696   -1.1700 C   0  0  0  0  0  0  0  0  0  0  0  0
    0.1568   -0.2969   -0.8815 C   0  0  2  0  0  0  0  0  0  0  0  0
    0.5229   -1.4524   -1.8240 C   0  0  0  0  0  0  0  0  0  0  0  0
   -0.7435   -2.2881   -1.8636 C   0  0  2  0  0  0  0  0  0  0  0  0
   -0.7899   -3.0237   -2.9967 F   0  0  0  0  0  0  0  0  0  0  0  0
   -1.8456   -1.2408   -1.8469 C   0  0  0  0  0  0  0  0  0  0  0  0
   -1.2916   -0.1348   -1.0769 N   0  0  0  0  0  0  0  0  0  0  0  0
   -2.0241    0.7488   -0.3026 C   0  0  0  0  0  0  0  0  0  0  0  0
   -1.4969    1.4828    0.5293 O   0  0  0  0  0  0  0  0  0  0  0  0
   -3.5224    0.8181   -0.5094 C   0  0  0  0  0  0  0  0  0  0  0  0
   -4.3728   -0.0410    0.4328 C   0  0  0  0  0  0  0  0  0  0  0  0
   -4.3771    0.2105    1.8180 C   0  0  0  0  0  0  0  0  0  0  0  0
   -5.1341   -0.5614    2.7027 C   0  0  0  0  0  0  0  0  0  0  0  0
   -5.9120   -1.6084    2.2200 C   0  0  0  0  0  0  0  0  0  0  0  0
   -5.9321   -1.8804    0.8557 C   0  0  0  0  0  0  0  0  0  0  0  0
   -5.1709   -1.1051   -0.0239 C   0  0  0  0  0  0  0  0  0  0  0  0
   -4.0840    2.2169   -0.8009 C   0  0  0  0  0  0  0  0  0  0  0  0
   -4.0524    1.1983   -1.8907 C   0  0  0  0  0  0  0  0  0  0  0  0
    3.2507    0.1944   -1.4784 N   0  0  0  0  0  0  0  0  0  0  0  0
    4.4057    0.2353   -0.8285 N   0  0  0  0  0  0  0  0  0  0  0  0
    7.3116    1.8592    2.7278 H   0  0  0  0  0  0  0  0  0  0  0  0
    8.4347    1.1736    1.5351 H   0  0  0  0  0  0  0  0  0  0  0  0
    7.8073    0.1561    2.8636 H   0  0  0  0  0  0  0  0  0  0  0  0
    5.8954   -1.2641    0.3446 H   0  0  0  0  0  0  0  0  0  0  0  0
    7.5896   -1.1940    0.8355 H   0  0  0  0  0  0  0  0  0  0  0  0
    7.0463   -0.2185   -0.5551 H   0  0  0  0  0  0  0  0  0  0  0  0
    2.3522    1.8826    1.1581 H   0  0  0  0  0  0  0  0  0  0  0  0
    0.5654    1.8491   -0.6643 H   0  0  0  0  0  0  0  0  0  0  0  0
    0.9879    1.2067   -2.2405 H   0  0  0  0  0  0  0  0  0  0  0  0
    0.2989   -0.6118    0.1613 H   0  0  0  0  0  0  0  0  0  0  0  0
    0.7597   -1.0984   -2.8352 H   0  0  0  0  0  0  0  0  0  0  0  0
    1.3816   -2.0296   -1.4674 H   0  0  0  0  0  0  0  0  0  0  0  0
   -0.8072   -2.9547   -0.9972 H   0  0  0  0  0  0  0  0  0  0  0  0
   -2.0707   -0.8823   -2.8567 H   0  0  0  0  0  0  0  0  0  0  0  0
   -2.7577   -1.6362   -1.4002 H   0  0  0  0  0  0  0  0  0  0  0  0
   -3.7720    1.0257    2.2150 H   0  0  0  0  0  0  0  0  0  0  0  0
   -5.1130   -0.3426    3.7672 H   0  0  0  0  0  0  0  0  0  0  0  0
   -6.5029   -2.2100    2.9062 H   0  0  0  0  0  0  0  0  0  0  0  0
   -6.5413   -2.6953    0.4744 H   0  0  0  0  0  0  0  0  0  0  0  0
   -5.2086   -1.3393   -1.0852 H   0  0  0  0  0  0  0  0  0  0  0  0
   -5.0474    2.4862   -0.3819 H   0  0  0  0  0  0  0  0  0  0  0  0
   -3.3868    3.0462   -0.8524 H   0  0  0  0  0  0  0  0  0  0  0  0
   -5.0039    0.8031   -2.2264 H   0  0  0  0  0  0  0  0  0  0  0  0
   -3.3426    1.3555   -2.6956 H   0  0  0  0  0  0  0  0  0  0  0  0
  1  2  1  0
  2  3  1  0
  2  4  1  0
  4  5  2  0
  4  6  1  0
  6  7  2  0
  7  8  1  0
  8  9  1  0
  9 10  1  0
 10 11  1  0
 11 12  1  0
 12 13  1  0
 12 14  1  0
 14 15  1  0
 15 16  1  0
 16 17  2  0
 16 18  1  0
 18 19  1  0
 19 20  2  0
 20 21  1  0
 21 22  2  0
 22 23  1  0
 23 24  2  0
 18 25  1  0
 25 26  1  0
  8 27  1  0
 27 28  2  0
 28  6  1  0
 15 10  1  0
 26 18  1  0
 24 19  1  0
  1 29  1  0
  1 30  1  0
  1 31  1  0
  3 32  1  0
  3 33  1  0
  3 34  1  0
  7 35  1  0
  9 36  1  0
  9 37  1  0
 10 38  1  1
 11 39  1  0
 11 40  1  0
 12 41  1  1
 14 42  1  0
 14 43  1  0
 20 44  1  0
 21 45  1  0
 22 46  1  0
 23 47  1  0
 24 48  1  0
 25 49  1  0
 25 50  1  0
 26 51  1  0
 26 52  1  0
M  END
$$$$
