
     RDKit          3D

 57 60  0  0  0  0  0  0  0  0999 V2000
    9.8333   -0.9702    0.0067 C   0  0  0  0  0  0  0  0  0  0  0  0
    8.9505   -0.1708   -0.7693 O   0  0  0  0  0  0  0  0  0  0  0  0
    7.6104   -0.3688   -0.5762 C   0  0  0  0  0  0  0  0  0  0  0  0
    7.0328   -1.2984    0.2879 C   0  0  0  0  0  0  0  0  0  0  0  0
    5.6402   -1.3993    0.3850 C   0  0  0  0  0  0  0  0  0  0  0  0
    4.8065   -0.5732   -0.3803 C   0  0  0  0  0  0  0  0  0  0  0  0
    3.3029   -0.6860   -0.2742 C   0  0  0  0  0  0  0  0  0  0  0  0
    2.7002   -0.0046    0.9524 C   0  0  0  0  0  0  0  0  0  0  0  0
    3.3709    0.2801    1.9449 O   0  0  0  0  0  0  0  0  0  0  0  0
    1.3343    0.2562    0.9111 N   0  0  0  0  0  0  0  0  0  0  0  0
    0.4353   -0.1480   -0.1748 C   0  0  0  0  0  0  0  0  0  0  0  0
   -1.0304   -0.2205    0.2737 C   0  0  0  0  0  0  0  0  0  0  0  0
   -1.5172    1.0727    0.8557 N   0  0  0  0  0  0  0  0  0  0  0  0
   -2.4879    2.0239   -0.1829 S   0  0  0  0  0  6  0  0  0  0  0  0
   -1.7917    2.0486   -1.4522 O   0  0  0  0  0  0  0  0  0  0  0  0
   -2.8438    3.2376    0.5180 O   0  0  0  0  0  0  0  0  0  0  0  0
   -3.9903    1.0747   -0.3586 C   0  0  0  0  0  0  0  0  0  0  0  0
   -4.4055    0.3071    0.7410 C   0  0  0  0  0  0  0  0  0  0  0  0
   -5.5472   -0.4835    0.6529 C   0  0  0  0  0  0  0  0  0  0  0  0
   -6.2792   -0.5111   -0.5324 C   0  0  0  0  0  0  0  0  0  0  0  0
   -5.8794    0.2586   -1.6275 C   0  0  0  0  0  0  0  0  0  0  0  0
   -4.7382    1.0792   -1.5521 C   0  0  0  0  0  0  0  0  0  0  0  0
   -4.3711    1.9046   -2.7542 C   0  0  0  0  0  0  0  0  0  0  0  0
   -7.4075   -1.3209   -0.6419 N   0  0  0  0  0  0  0  0  0  0  0  0
   -7.8714   -2.0539    0.4133 C   0  0  0  0  0  0  0  0  0  0  0  0
   -8.8529   -2.7845    0.3011 O   0  0  0  0  0  0  0  0  0  0  0  0
   -7.1242   -1.8542    1.7322 C   0  0  0  0  0  0  0  0  0  0  0  0
   -5.8501   -1.2295    1.7562 O   0  0  0  0  0  0  0  0  0  0  0  0
   -0.4431    1.8720    1.5392 C   0  0  0  0  0  0  0  0  0  0  0  0
    0.7185    0.9945    2.0177 C   0  0  0  0  0  0  0  0  0  0  0  0
    5.3922    0.3657   -1.2378 C   0  0  0  0  0  0  0  0  0  0  0  0
    6.7825    0.4610   -1.3349 C   0  0  0  0  0  0  0  0  0  0  0  0
    9.6999   -0.7816    1.0770 H   0  0  0  0  0  0  0  0  0  0  0  0
    9.7118   -2.0328   -0.2263 H   0  0  0  0  0  0  0  0  0  0  0  0
   10.8569   -0.6874   -0.2557 H   0  0  0  0  0  0  0  0  0  0  0  0
    7.6340   -1.9567    0.9057 H   0  0  0  0  0  0  0  0  0  0  0  0
    5.2095   -2.1200    1.0776 H   0  0  0  0  0  0  0  0  0  0  0  0
    2.8613   -0.2599   -1.1821 H   0  0  0  0  0  0  0  0  0  0  0  0
    3.0264   -1.7471   -0.2467 H   0  0  0  0  0  0  0  0  0  0  0  0
    0.7458   -1.1241   -0.5602 H   0  0  0  0  0  0  0  0  0  0  0  0
    0.5557    0.5870   -0.9788 H   0  0  0  0  0  0  0  0  0  0  0  0
   -1.1469   -0.9873    1.0496 H   0  0  0  0  0  0  0  0  0  0  0  0
   -1.6556   -0.5382   -0.5668 H   0  0  0  0  0  0  0  0  0  0  0  0
   -3.8458    0.3236    1.6736 H   0  0  0  0  0  0  0  0  0  0  0  0
   -6.4599    0.2296   -2.5479 H   0  0  0  0  0  0  0  0  0  0  0  0
   -4.0991    2.9241   -2.4629 H   0  0  0  0  0  0  0  0  0  0  0  0
   -3.5470    1.4361   -3.3007 H   0  0  0  0  0  0  0  0  0  0  0  0
   -5.2184    1.9968   -3.4430 H   0  0  0  0  0  0  0  0  0  0  0  0
   -7.9202   -1.3966   -1.5101 H   0  0  0  0  0  0  0  0  0  0  0  0
   -6.9945   -2.8484    2.1753 H   0  0  0  0  0  0  0  0  0  0  0  0
   -7.7851   -1.2814    2.3940 H   0  0  0  0  0  0  0  0  0  0  0  0
   -0.0498    2.6282    0.8489 H   0  0  0  0  0  0  0  0  0  0  0  0
   -0.8906    2.3842    2.3979 H   0  0  0  0  0  0  0  0  0  0  0  0
    0.3641    0.2504    2.7407 H   0  0  0  0  0  0  0  0  0  0  0  0
    1.4656    1.6167    2.5211 H   0  0  0  0  0  0  0  0  0  0  0  0
    4.7761    1.0325   -1.8363 H   0  0  0  0  0  0  0  0  0  0  0  0
    7.2262    1.1932   -2.0054 H   0  0  0  0  0  0  0  0  0  0  0  0
  1  2  1  0
  2  3  1  0
  3  4  2  0
  4  5  1  0
  5  6  2  0
  6  7  1  0
  7  8  1  0
  8  9  2  0
  8 10  1  0
 10 11  1  0
 11 12  1  0
 12 13  1  0
 13 14  1  0
 14 15  2  0
 14 16  2  0
 14 17  1  0
 17 18  2  0
 18 19  1  0
 19 20  2  0
 20 21  1  0
 21 22  2  0
 22 23  1  0
 20 24  1  0
 24 25  1  0
 25 26  2  0
 25 27  1  0
 27 28  1  0
 13 29  1  0
 29 30  1  0
  6 31  1  0
 31 32  2  0
 32  3  1  0
 30 10  1  0
 22 17  1  0
 28 19  1  0
  1 33  1  0
  1 34  1  0
  1 35  1  0
  4 36  1  0
  5 37  1  0
  7 38  1  0
  7 39  1  0
 11 40  1  0
 11 41  1  0
 12 42  1  0
 12 43  1  0
 18 44  1  0
 21 45  1  0
 23 46  1  0
 23 47  1  0
 23 48  1  0
 24 49  1  0
 27 50  1  0
 27 51  1  0
 29 52  1  0
 29 53  1  0
 30 54  1  0
 30 55  1  0
 31 56  1  0
 32 57  1  0
M  END
$$$$
