
     RDKit          3D

 58 61  0  0  0  0  0  0  0  0999 V2000
    7.5384   -2.1239    0.9101 C   0  0  0  0  0  0  0  0  0  0  0  0
    6.3374   -1.7583    1.5796 O   0  0  0  0  0  0  0  0  0  0  0  0
    5.5536   -0.8074    0.9832 C   0  0  0  0  0  0  0  0  0  0  0  0
    5.6958   -0.3748   -0.3392 C   0  0  0  0  0  0  0  0  0  0  0  0
    4.8467    0.6117   -0.8547 C   0  0  0  0  0  0  0  0  0  0  0  0
    3.8459    1.1669   -0.0520 C   0  0  0  0  0  0  0  0  0  0  0  0
    2.9869    2.2327   -0.6162 C   0  0  0  0  0  0  0  0  0  0  0  0
    3.5387    3.1732   -1.1812 O   0  0  0  0  0  0  0  0  0  0  0  0
    1.6059    2.1287   -0.4873 N   0  0  0  0  0  0  0  0  0  0  0  0
    0.8852    0.8959   -0.1468 C   0  0  0  0  0  0  0  0  0  0  0  0
   -0.5235    0.8547   -0.7597 C   0  0  0  0  0  0  0  0  0  0  0  0
   -1.3423    2.0197   -0.2985 N   0  0  0  0  0  0  0  0  0  0  0  0
   -2.8642    2.1899   -1.0481 S   0  0  0  0  0  6  0  0  0  0  0  0
   -2.6216    2.1986   -2.4757 O   0  0  0  0  0  0  0  0  0  0  0  0
   -3.5715    3.2788   -0.4102 O   0  0  0  0  0  0  0  0  0  0  0  0
   -3.7110    0.6761   -0.6237 C   0  0  0  0  0  0  0  0  0  0  0  0
   -4.0760   -0.1767   -1.6765 C   0  0  0  0  0  0  0  0  0  0  0  0
   -4.7629   -1.3577   -1.4118 C   0  0  0  0  0  0  0  0  0  0  0  0
   -5.0727   -1.7015   -0.0968 C   0  0  0  0  0  0  0  0  0  0  0  0
   -4.7040   -0.8626    0.9568 C   0  0  0  0  0  0  0  0  0  0  0  0
   -4.0242    0.3455    0.7112 C   0  0  0  0  0  0  0  0  0  0  0  0
   -3.6813    1.2271    1.8807 C   0  0  0  0  0  0  0  0  0  0  0  0
   -5.7347   -2.8983    0.1736 N   0  0  0  0  0  0  0  0  0  0  0  0
   -6.2013   -3.7014   -0.8310 C   0  0  0  0  0  0  0  0  0  0  0  0
   -6.7619   -4.7675   -0.5895 O   0  0  0  0  0  0  0  0  0  0  0  0
   -6.0452   -3.1347   -2.2407 C   0  0  0  0  0  0  0  0  0  0  0  0
   -5.0535   -2.1483   -2.4886 O   0  0  0  0  0  0  0  0  0  0  0  0
   -0.5653    3.3078   -0.2212 C   0  0  0  0  0  0  0  0  0  0  0  0
    0.7803    3.2444   -0.9510 C   0  0  0  0  0  0  0  0  0  0  0  0
    3.7084    0.7614    1.2755 C   0  0  0  0  0  0  0  0  0  0  0  0
    4.5368   -0.2446    1.7738 C   0  0  0  0  0  0  0  0  0  0  0  0
    4.3661   -0.5887    3.0920 O   0  0  0  0  0  0  0  0  0  0  0  0
    3.6887   -1.8407    3.1992 C   0  0  0  0  0  0  0  0  0  0  0  0
    8.1576   -1.2480    0.6878 H   0  0  0  0  0  0  0  0  0  0  0  0
    8.1091   -2.7733    1.5804 H   0  0  0  0  0  0  0  0  0  0  0  0
    7.3206   -2.6952    0.0015 H   0  0  0  0  0  0  0  0  0  0  0  0
    6.4595   -0.7808   -0.9945 H   0  0  0  0  0  0  0  0  0  0  0  0
    4.9749    0.9565   -1.8791 H   0  0  0  0  0  0  0  0  0  0  0  0
    1.4593    0.0261   -0.4811 H   0  0  0  0  0  0  0  0  0  0  0  0
    0.8073    0.8611    0.9458 H   0  0  0  0  0  0  0  0  0  0  0  0
   -0.4456    0.8578   -1.8527 H   0  0  0  0  0  0  0  0  0  0  0  0
   -1.0093   -0.0747   -0.4474 H   0  0  0  0  0  0  0  0  0  0  0  0
   -3.8402    0.0746   -2.7085 H   0  0  0  0  0  0  0  0  0  0  0  0
   -4.9561   -1.1405    1.9781 H   0  0  0  0  0  0  0  0  0  0  0  0
   -2.6040    1.4132    1.9304 H   0  0  0  0  0  0  0  0  0  0  0  0
   -3.9593    0.7541    2.8285 H   0  0  0  0  0  0  0  0  0  0  0  0
   -4.2220    2.1753    1.8228 H   0  0  0  0  0  0  0  0  0  0  0  0
   -5.8966   -3.2120    1.1209 H   0  0  0  0  0  0  0  0  0  0  0  0
   -7.0156   -2.7181   -2.5345 H   0  0  0  0  0  0  0  0  0  0  0  0
   -5.8303   -3.9763   -2.9073 H   0  0  0  0  0  0  0  0  0  0  0  0
   -0.3999    3.5104    0.8438 H   0  0  0  0  0  0  0  0  0  0  0  0
   -1.1424    4.1483   -0.6191 H   0  0  0  0  0  0  0  0  0  0  0  0
    1.3215    4.1876   -0.8152 H   0  0  0  0  0  0  0  0  0  0  0  0
    0.6251    3.1065   -2.0280 H   0  0  0  0  0  0  0  0  0  0  0  0
    2.9715    1.2233    1.9265 H   0  0  0  0  0  0  0  0  0  0  0  0
    3.4318   -1.9891    4.2505 H   0  0  0  0  0  0  0  0  0  0  0  0
    4.3279   -2.6715    2.8899 H   0  0  0  0  0  0  0  0  0  0  0  0
    2.7575   -1.8415    2.6231 H   0  0  0  0  0  0  0  0  0  0  0  0
  1  2  1  0
  2  3  1  0
  3  4  2  0
  4  5  1  0
  5  6  2  0
  6  7  1  0
  7  8  2  0
  7  9  1  0
  9 10  1  0
 10 11  1  0
 11 12  1  0
 12 13  1  0
 13 14  2  0
 13 15  2  0
 13 16  1  0
 16 17  2  0
 17 18  1  0
 18 19  2  0
 19 20  1  0
 20 21  2  0
 21 22  1  0
 19 23  1  0
 23 24  1  0
 24 25  2  0
 24 26  1  0
 26 27  1  0
 12 28  1  0
 28 29  1  0
  6 30  1  0
 30 31  2  0
 31 32  1  0
 32 33  1  0
 31  3  1  0
 29  9  1  0
 21 16  1  0
 27 18  1  0
  1 34  1  0
  1 35  1  0
  1 36  1  0
  4 37  1  0
  5 38  1  0
 10 39  1  0
 10 40  1  0
 11 41  1  0
 11 42  1  0
 17 43  1  0
 20 44  1  0
 22 45  1  0
 22 46  1  0
 22 47  1  0
 23 48  1  0
 26 49  1  0
 26 50  1  0
 28 51  1  0
 28 52  1  0
 29 53  1  0
 29 54  1  0
 30 55  1  0
 33 56  1  0
 33 57  1  0
 33 58  1  0
M  END
$$$$
