
     RDKit          3D

 65 69  0  0  0  0  0  0  0  0999 V2000
    7.9112    3.2868   -0.1782 C   0  0  0  0  0  0  0  0  0  0  0  0
    7.6038    2.3126    0.9538 C   0  0  0  0  0  0  0  0  0  0  0  0
    6.7156    1.2233    0.5355 N   0  0  0  0  0  0  0  0  0  0  0  0
    7.3207    0.3509   -0.4918 C   0  0  0  0  0  0  0  0  0  0  0  0
    6.7012   -1.0706   -0.5757 C   0  0  0  0  0  0  0  0  0  0  0  0
    5.3109   -1.1852   -0.0978 N   0  0  0  0  0  0  0  0  0  0  0  0
    4.3980   -0.4408   -0.9860 C   0  0  0  0  0  0  0  0  0  0  0  0
    2.9416   -0.8090   -0.7760 C   0  0  0  0  0  0  0  0  0  0  0  0
    1.9909    0.1784   -0.4904 C   0  0  0  0  0  0  0  0  0  0  0  0
    0.6459   -0.1606   -0.3110 C   0  0  0  0  0  0  0  0  0  0  0  0
    0.2199   -1.4911   -0.4131 C   0  0  0  0  0  0  0  0  0  0  0  0
   -1.1900   -1.8321   -0.2113 C   0  0  0  0  0  0  0  0  0  0  0  0
   -2.3441   -1.1023   -0.4638 C   0  0  0  0  0  0  0  0  0  0  0  0
   -3.4708   -1.8778   -0.0663 C   0  0  0  0  0  0  0  0  0  0  0  0
   -4.8692   -1.7172   -0.0537 C   0  0  0  0  0  0  0  0  0  0  0  0
   -5.4747   -0.5493   -0.5187 N   0  0  0  0  0  0  0  0  0  0  0  0
   -6.8090   -0.2456   -0.0057 C   0  0  2  0  0  0  0  0  0  0  0  0
   -7.8837   -0.8802   -0.8934 C   0  0  0  0  0  0  0  0  0  0  0  0
   -6.9662    1.2711    0.0490 C   0  0  0  0  0  0  0  0  0  0  0  0
   -7.1258    1.9151    1.2865 C   0  0  0  0  0  0  0  0  0  0  0  0
   -7.2562    3.3038    1.3556 C   0  0  0  0  0  0  0  0  0  0  0  0
   -7.2234    4.0674    0.1907 C   0  0  0  0  0  0  0  0  0  0  0  0
   -7.0562    3.4450   -1.0443 C   0  0  0  0  0  0  0  0  0  0  0  0
   -6.9260    2.0570   -1.1155 C   0  0  0  0  0  0  0  0  0  0  0  0
   -5.6143   -2.7450    0.4225 N   0  0  0  0  0  0  0  0  0  0  0  0
   -4.9895   -3.8570    0.8592 C   0  0  0  0  0  0  0  0  0  0  0  0
   -3.6705   -4.1068    0.9024 N   0  0  0  0  0  0  0  0  0  0  0  0
   -2.9693   -3.0719    0.4197 C   0  0  0  0  0  0  0  0  0  0  0  0
   -1.6065   -3.0300    0.3321 N   0  0  0  0  0  0  0  0  0  0  0  0
    1.1707   -2.4760   -0.7105 C   0  0  0  0  0  0  0  0  0  0  0  0
    2.5161   -2.1387   -0.8903 C   0  0  0  0  0  0  0  0  0  0  0  0
    5.2450   -0.6830    1.2953 C   0  0  0  0  0  0  0  0  0  0  0  0
    6.2720    0.4175    1.6834 C   0  0  0  0  0  0  0  0  0  0  0  0
    6.9899    3.6788   -0.6222 H   0  0  0  0  0  0  0  0  0  0  0  0
    8.5046    2.8176   -0.9692 H   0  0  0  0  0  0  0  0  0  0  0  0
    8.4859    4.1360    0.2060 H   0  0  0  0  0  0  0  0  0  0  0  0
    8.5410    1.9218    1.3696 H   0  0  0  0  0  0  0  0  0  0  0  0
    7.1161    2.8879    1.7509 H   0  0  0  0  0  0  0  0  0  0  0  0
    8.3989    0.2324   -0.3238 H   0  0  0  0  0  0  0  0  0  0  0  0
    7.1918    0.8381   -1.4657 H   0  0  0  0  0  0  0  0  0  0  0  0
    6.7851   -1.4494   -1.6018 H   0  0  0  0  0  0  0  0  0  0  0  0
    7.3144   -1.7500    0.0323 H   0  0  0  0  0  0  0  0  0  0  0  0
    4.6209   -0.6835   -2.0341 H   0  0  0  0  0  0  0  0  0  0  0  0
    4.5269    0.6441   -0.8909 H   0  0  0  0  0  0  0  0  0  0  0  0
    2.2916    1.2197   -0.3984 H   0  0  0  0  0  0  0  0  0  0  0  0
   -0.0631    0.6297   -0.0765 H   0  0  0  0  0  0  0  0  0  0  0  0
   -2.3764   -0.1127   -0.9005 H   0  0  0  0  0  0  0  0  0  0  0  0
   -4.8321    0.2343   -0.4750 H   0  0  0  0  0  0  0  0  0  0  0  0
   -6.9304   -0.6297    1.0162 H   0  0  0  0  0  0  0  0  0  0  0  0
   -7.7732   -0.5906   -1.9446 H   0  0  0  0  0  0  0  0  0  0  0  0
   -8.8863   -0.5825   -0.5666 H   0  0  0  0  0  0  0  0  0  0  0  0
   -7.8339   -1.9733   -0.8578 H   0  0  0  0  0  0  0  0  0  0  0  0
   -7.1490    1.3384    2.2088 H   0  0  0  0  0  0  0  0  0  0  0  0
   -7.3827    3.7890    2.3200 H   0  0  0  0  0  0  0  0  0  0  0  0
   -7.3253    5.1479    0.2452 H   0  0  0  0  0  0  0  0  0  0  0  0
   -7.0258    4.0399   -1.9534 H   0  0  0  0  0  0  0  0  0  0  0  0
   -6.7851    1.5879   -2.0874 H   0  0  0  0  0  0  0  0  0  0  0  0
   -5.6361   -4.6491    1.2244 H   0  0  0  0  0  0  0  0  0  0  0  0
   -1.0056   -3.7755    0.6482 H   0  0  0  0  0  0  0  0  0  0  0  0
    0.8824   -3.5173   -0.8244 H   0  0  0  0  0  0  0  0  0  0  0  0
    3.2398   -2.9192   -1.1173 H   0  0  0  0  0  0  0  0  0  0  0  0
    5.4165   -1.5406    1.9587 H   0  0  0  0  0  0  0  0  0  0  0  0
    4.2352   -0.3318    1.5394 H   0  0  0  0  0  0  0  0  0  0  0  0
    7.1405   -0.0584    2.1587 H   0  0  0  0  0  0  0  0  0  0  0  0
    5.8054    1.0611    2.4391 H   0  0  0  0  0  0  0  0  0  0  0  0
  1  2  1  0
  2  3  1  0
  3  4  1  0
  4  5  1  0
  5  6  1  0
  6  7  1  0
  7  8  1  0
  8  9  2  0
  9 10  1  0
 10 11  2  0
 11 12  1  0
 12 13  2  0
 13 14  1  0
 14 15  2  0
 15 16  1  0
 16 17  1  0
 17 18  1  0
 17 19  1  0
 19 20  2  0
 20 21  1  0
 21 22  2  0
 22 23  1  0
 23 24  2  0
 15 25  1  0
 25 26  2  0
 26 27  1  0
 27 28  2  0
 28 29  1  0
 11 30  1  0
 30 31  2  0
  6 32  1  0
 32 33  1  0
 33  3  1  0
 31  8  1  0
 29 12  1  0
 28 14  1  0
 24 19  1  0
  1 34  1  0
  1 35  1  0
  1 36  1  0
  2 37  1  0
  2 38  1  0
  4 39  1  0
  4 40  1  0
  5 41  1  0
  5 42  1  0
  7 43  1  0
  7 44  1  0
  9 45  1  0
 10 46  1  0
 13 47  1  0
 16 48  1  0
 17 49  1  1
 18 50  1  0
 18 51  1  0
 18 52  1  0
 20 53  1  0
 21 54  1  0
 22 55  1  0
 23 56  1  0
 24 57  1  0
 26 58  1  0
 29 59  1  0
 30 60  1  0
 31 61  1  0
 32 62  1  0
 32 63  1  0
 33 64  1  0
 33 65  1  0
M  END
$$$$
