
     RDKit          3D

 36 38  0  0  0  0  0  0  0  0999 V2000
   -1.2476    2.3012    0.4982 O   0  0  0  0  0  0  0  0  0  0  0  0
   -0.8474    1.1417    0.3793 C   0  0  0  0  0  0  0  0  0  0  0  0
    0.5054    0.9407    0.3478 N   0  0  0  0  0  0  0  0  0  0  0  0
    1.1278   -0.2560    0.1727 C   0  0  0  0  0  0  0  0  0  0  0  0
    2.5891   -0.2824    0.0222 C   0  0  0  0  0  0  0  0  0  0  0  0
    3.1787   -0.8408   -1.1226 C   0  0  0  0  0  0  0  0  0  0  0  0
    4.5679   -0.8647   -1.2732 C   0  0  0  0  0  0  0  0  0  0  0  0
    5.3875   -0.3299   -0.2800 C   0  0  0  0  0  0  0  0  0  0  0  0
    4.8054    0.2308    0.8641 C   0  0  0  0  0  0  0  0  0  0  0  0
    5.6639    0.7935    1.9136 N   0  0  0  0  0  4  0  0  0  0  0  0
    5.1104    1.3237    2.8871 O   0  0  0  0  0  0  0  0  0  0  0  0
    6.8908    0.7050    1.7640 O   0  0  0  0  0  1  0  0  0  0  0  0
    3.4118    0.2591    1.0195 C   0  0  0  0  0  0  0  0  0  0  0  0
    0.3889   -1.3667    0.1801 C   0  0  0  0  0  0  0  0  0  0  0  0
   -1.0820   -1.3177    0.4081 C   0  0  0  0  0  0  0  0  0  0  0  0
   -1.6573    0.0210    0.2481 N   0  0  0  0  0  0  0  0  0  0  0  0
   -3.1015    0.1113    0.1121 C   0  0  0  0  0  0  0  0  0  0  0  0
   -3.9070   -0.9573    0.5632 C   0  0  0  0  0  0  0  0  0  0  0  0
   -5.3006   -0.9561    0.4163 C   0  0  0  0  0  0  0  0  0  0  0  0
   -5.9345    0.1116   -0.2021 C   0  0  0  0  0  0  0  0  0  0  0  0
   -5.1730    1.1762   -0.6674 C   0  0  0  0  0  0  0  0  0  0  0  0
   -3.7816    1.1819   -0.5059 C   0  0  0  0  0  0  0  0  0  0  0  0
   -3.1752    2.2759   -1.0610 O   0  0  0  0  0  0  0  0  0  0  0  0
    1.0508    1.7935    0.3717 H   0  0  0  0  0  0  0  0  0  0  0  0
    2.5551   -1.2536   -1.9144 H   0  0  0  0  0  0  0  0  0  0  0  0
    5.0092   -1.2983   -2.1684 H   0  0  0  0  0  0  0  0  0  0  0  0
    6.4676   -0.3556   -0.4120 H   0  0  0  0  0  0  0  0  0  0  0  0
    2.9618    0.6871    1.9141 H   0  0  0  0  0  0  0  0  0  0  0  0
    0.8431   -2.3467    0.0708 H   0  0  0  0  0  0  0  0  0  0  0  0
   -1.5545   -1.9899   -0.3181 H   0  0  0  0  0  0  0  0  0  0  0  0
   -1.2877   -1.6714    1.4249 H   0  0  0  0  0  0  0  0  0  0  0  0
   -3.4800   -1.8175    1.0697 H   0  0  0  0  0  0  0  0  0  0  0  0
   -5.8863   -1.7937    0.7872 H   0  0  0  0  0  0  0  0  0  0  0  0
   -7.0137    0.1172   -0.3255 H   0  0  0  0  0  0  0  0  0  0  0  0
   -5.6575    2.0133   -1.1642 H   0  0  0  0  0  0  0  0  0  0  0  0
   -2.4276    2.5136   -0.4727 H   0  0  0  0  0  0  0  0  0  0  0  0
  1  2  2  0
  2  3  1  0
  3  4  1  0
  4  5  1  0
  5  6  2  0
  6  7  1  0
  7  8  2  0
  8  9  1  0
  9 10  1  0
 10 11  2  0
 10 12  1  0
  9 13  2  0
  4 14  2  0
 14 15  1  0
 15 16  1  0
 16 17  1  0
 17 18  2  0
 18 19  1  0
 19 20  2  0
 20 21  1  0
 21 22  2  0
 22 23  1  0
 16  2  1  0
 22 17  1  0
 13  5  1  0
  3 24  1  0
  6 25  1  0
  7 26  1  0
  8 27  1  0
 13 28  1  0
 14 29  1  0
 15 30  1  0
 15 31  1  0
 18 32  1  0
 19 33  1  0
 20 34  1  0
 21 35  1  0
 23 36  1  0
M  CHG  2  10   1  12  -1
M  END
$$$$
