
     RDKit          3D

 28 31  0  0  0  0  0  0  0  0999 V2000
   -4.0923    0.4157    1.9207 C   0  0  0  0  0  0  0  0  0  0  0  0
   -4.6997    0.2563    0.6793 C   0  0  0  0  0  0  0  0  0  0  0  0
   -4.1384   -0.5787   -0.2919 C   0  0  0  0  0  0  0  0  0  0  0  0
   -2.9444   -1.2505    0.0190 C   0  0  0  0  0  0  0  0  0  0  0  0
   -2.0230   -2.3345   -0.9495 S   0  0  0  0  0  0  0  0  0  0  0  0
   -0.8847   -2.5021    0.3219 C   0  0  0  0  0  0  0  0  0  0  0  0
    0.5285   -3.5328    0.1451 S   0  0  0  0  0  0  0  0  0  0  0  0
    1.7862   -2.6998    1.5488 S   0  0  0  0  0  0  0  0  0  0  0  0
    2.2689   -1.2355    0.7061 C   0  0  0  0  0  0  0  0  0  0  0  0
    2.3773   -1.1693   -0.6020 N   0  0  0  0  0  0  0  0  0  0  0  0
    2.7674    0.1047   -0.9757 C   0  0  0  0  0  0  0  0  0  0  0  0
    2.9734    0.5509   -2.2968 C   0  0  0  0  0  0  0  0  0  0  0  0
    3.3698    1.8716   -2.5315 C   0  0  0  0  0  0  0  0  0  0  0  0
    3.5631    2.7487   -1.4689 C   0  0  0  0  0  0  0  0  0  0  0  0
    3.3658    2.3309   -0.1492 C   0  0  0  0  0  0  0  0  0  0  0  0
    2.9673    1.0026    0.0747 C   0  0  0  0  0  0  0  0  0  0  0  0
    2.6507    0.1989    1.5631 S   0  0  0  0  0  0  0  0  0  0  0  0
   -1.1477   -1.8276    1.4190 N   0  0  0  0  0  0  0  0  0  0  0  0
   -2.3161   -1.1044    1.2571 C   0  0  0  0  0  0  0  0  0  0  0  0
   -2.9034   -0.2582    2.2193 C   0  0  0  0  0  0  0  0  0  0  0  0
   -4.5423    1.0670    2.6662 H   0  0  0  0  0  0  0  0  0  0  0  0
   -5.6240    0.7867    0.4595 H   0  0  0  0  0  0  0  0  0  0  0  0
   -4.6143   -0.7031   -1.2598 H   0  0  0  0  0  0  0  0  0  0  0  0
    2.8224   -0.1370   -3.1229 H   0  0  0  0  0  0  0  0  0  0  0  0
    3.5279    2.2116   -3.5524 H   0  0  0  0  0  0  0  0  0  0  0  0
    3.8719    3.7736   -1.6655 H   0  0  0  0  0  0  0  0  0  0  0  0
    3.5169    3.0165    0.6792 H   0  0  0  0  0  0  0  0  0  0  0  0
   -2.4274   -0.1382    3.1873 H   0  0  0  0  0  0  0  0  0  0  0  0
  1  2  2  0
  2  3  1  0
  3  4  2  0
  4  5  1  0
  5  6  1  0
  6  7  1  0
  7  8  1  0
  8  9  1  0
  9 10  2  0
 10 11  1  0
 11 12  2  0
 12 13  1  0
 13 14  2  0
 14 15  1  0
 15 16  2  0
 16 17  1  0
  6 18  2  0
 18 19  1  0
 19 20  2  0
 20  1  1  0
 19  4  1  0
 17  9  1  0
 16 11  1  0
  1 21  1  0
  2 22  1  0
  3 23  1  0
 12 24  1  0
 13 25  1  0
 14 26  1  0
 15 27  1  0
 20 28  1  0
M  END
$$$$
