
     RDKit          3D

 56 59  0  0  0  0  0  0  0  0999 V2000
   -7.0729    3.4262    1.5069 C   0  0  0  0  0  0  0  0  0  0  0  0
   -6.7163    2.3905    0.6036 O   0  0  0  0  0  0  0  0  0  0  0  0
   -5.3266    2.0968    0.6503 C   0  0  0  0  0  0  0  0  0  0  0  0
   -4.8934    1.0231   -0.3628 C   0  0  0  0  0  0  0  0  0  0  0  0
   -5.6666    0.5286   -1.1836 O   0  0  0  0  0  0  0  0  0  0  0  0
   -3.5584    0.6468   -0.3197 N   0  0  0  0  0  0  0  0  0  0  0  0
   -2.6078    0.9714    0.7207 C   0  0  0  0  0  0  0  0  0  0  0  0
   -1.2636    0.5665    0.1394 C   0  0  2  0  0  0  0  0  0  0  0  0
   -0.5838    1.6924   -0.6461 C   0  0  0  0  0  0  0  0  0  0  0  0
    0.1989    0.9619   -1.7327 C   0  0  1  0  0  0  0  0  0  0  0  0
    1.4461    0.4032   -1.2357 N   0  0  0  0  0  0  0  0  0  0  0  0
    2.5542    1.2025   -1.0360 C   0  0  0  0  0  0  0  0  0  0  0  0
    2.5645    2.4048   -1.2747 O   0  0  0  0  0  0  0  0  0  0  0  0
    3.7626    0.5445   -0.4655 C   0  0  0  0  0  0  0  0  0  0  0  0
    4.7016    1.3446    0.2015 C   0  0  0  0  0  0  0  0  0  0  0  0
    5.8614    0.7824    0.7510 C   0  0  0  0  0  0  0  0  0  0  0  0
    6.0982   -0.5869    0.6314 C   0  0  0  0  0  0  0  0  0  0  0  0
    7.1876   -1.2535    1.1212 O   0  0  0  0  0  0  0  0  0  0  0  0
    8.1891   -0.4783    1.7672 C   0  0  0  0  0  0  0  0  0  0  0  0
    5.1605   -1.3723   -0.0496 C   0  0  0  0  0  0  0  0  0  0  0  0
    5.3706   -2.6898   -0.1990 F   0  0  0  0  0  0  0  0  0  0  0  0
    4.0032   -0.8242   -0.5996 C   0  0  0  0  0  0  0  0  0  0  0  0
   -0.7801   -0.1252   -2.1826 C   0  0  0  0  0  0  0  0  0  0  0  0
   -1.5654   -0.5404   -0.9118 C   0  0  1  0  0  0  0  0  0  0  0  0
   -1.1298   -1.8818   -0.4175 C   0  0  0  0  0  0  0  0  0  0  0  0
   -1.8302   -2.9592   -0.1418 N   0  0  0  0  0  0  0  0  0  0  0  0
   -0.8640   -3.8405    0.2698 C   0  0  0  0  0  0  0  0  0  0  0  0
   -1.1738   -5.2167    0.7015 C   0  0  0  0  0  0  0  0  0  0  0  0
    0.3830   -3.3500    0.2640 N   0  0  0  0  0  0  0  0  0  0  0  0
    0.2103   -2.0472   -0.1911 O   0  0  0  0  0  0  0  0  0  0  0  0
   -3.0912   -0.4723   -1.1244 C   0  0  0  0  0  0  0  0  0  0  0  0
   -6.5689    4.3594    1.2367 H   0  0  0  0  0  0  0  0  0  0  0  0
   -8.1531    3.5822    1.4437 H   0  0  0  0  0  0  0  0  0  0  0  0
   -6.8197    3.1451    2.5341 H   0  0  0  0  0  0  0  0  0  0  0  0
   -5.0789    1.7384    1.6554 H   0  0  0  0  0  0  0  0  0  0  0  0
   -4.7594    3.0084    0.4296 H   0  0  0  0  0  0  0  0  0  0  0  0
   -2.8571    0.3585    1.5942 H   0  0  0  0  0  0  0  0  0  0  0  0
   -2.6616    2.0258    1.0045 H   0  0  0  0  0  0  0  0  0  0  0  0
   -0.5890    0.2361    0.9390 H   0  0  0  0  0  0  0  0  0  0  0  0
    0.0443    2.3106    0.0036 H   0  0  0  0  0  0  0  0  0  0  0  0
   -1.3295    2.3504   -1.1100 H   0  0  0  0  0  0  0  0  0  0  0  0
    0.4419    1.6392   -2.5590 H   0  0  0  0  0  0  0  0  0  0  0  0
    1.4430   -0.5272   -0.8361 H   0  0  0  0  0  0  0  0  0  0  0  0
    4.5321    2.4167    0.2964 H   0  0  0  0  0  0  0  0  0  0  0  0
    6.5553    1.4438    1.2592 H   0  0  0  0  0  0  0  0  0  0  0  0
    8.9908   -1.1568    2.0750 H   0  0  0  0  0  0  0  0  0  0  0  0
    7.7946    0.0022    2.6686 H   0  0  0  0  0  0  0  0  0  0  0  0
    8.6210    0.2593    1.0824 H   0  0  0  0  0  0  0  0  0  0  0  0
    3.3347   -1.4832   -1.1438 H   0  0  0  0  0  0  0  0  0  0  0  0
   -0.2725   -0.9636   -2.6732 H   0  0  0  0  0  0  0  0  0  0  0  0
   -1.4564    0.3155   -2.9257 H   0  0  0  0  0  0  0  0  0  0  0  0
   -0.4954   -5.9358    0.2314 H   0  0  0  0  0  0  0  0  0  0  0  0
   -1.0763   -5.3062    1.7882 H   0  0  0  0  0  0  0  0  0  0  0  0
   -2.1975   -5.4896    0.4280 H   0  0  0  0  0  0  0  0  0  0  0  0
   -3.6237   -1.3634   -0.7722 H   0  0  0  0  0  0  0  0  0  0  0  0
   -3.3866   -0.3138   -2.1672 H   0  0  0  0  0  0  0  0  0  0  0  0
  1  2  1  0
  2  3  1  0
  3  4  1  0
  4  5  2  0
  4  6  1  0
  6  7  1  0
  7  8  1  0
  8  9  1  0
  9 10  1  0
 10 11  1  0
 11 12  1  0
 12 13  2  0
 12 14  1  0
 14 15  2  0
 15 16  1  0
 16 17  2  0
 17 18  1  0
 18 19  1  0
 17 20  1  0
 20 21  1  0
 20 22  2  0
 10 23  1  0
 23 24  1  0
 24 25  1  1
 25 26  2  0
 26 27  1  0
 27 28  1  0
 27 29  2  0
 29 30  1  0
 24 31  1  0
 31  6  1  0
 24  8  1  0
 30 25  1  0
 22 14  1  0
  1 32  1  0
  1 33  1  0
  1 34  1  0
  3 35  1  0
  3 36  1  0
  7 37  1  0
  7 38  1  0
  8 39  1  1
  9 40  1  0
  9 41  1  0
 10 42  1  6
 11 43  1  0
 15 44  1  0
 16 45  1  0
 19 46  1  0
 19 47  1  0
 19 48  1  0
 22 49  1  0
 23 50  1  0
 23 51  1  0
 28 52  1  0
 28 53  1  0
 28 54  1  0
 31 55  1  0
 31 56  1  0
M  END
$$$$
