
     RDKit          3D

 47 51  0  0  0  0  0  0  0  0999 V2000
    3.3590    3.1530   -2.1069 C   0  0  0  0  0  0  0  0  0  0  0  0
    3.7013    3.3891   -0.6432 C   0  0  0  0  0  0  0  0  0  0  0  0
    3.2577    2.2398    0.2273 C   0  0  0  0  0  0  0  0  0  0  0  0
    4.1288    1.1705    0.4873 C   0  0  0  0  0  0  0  0  0  0  0  0
    3.7182    0.1003    1.2833 C   0  0  0  0  0  0  0  0  0  0  0  0
    2.4232    0.0924    1.8094 C   0  0  0  0  0  0  0  0  0  0  0  0
    1.9114   -1.2577    2.8375 S   0  0  0  0  0  6  0  0  0  0  0  0
    0.7457   -0.8593    3.6037 O   0  0  0  0  0  0  0  0  0  0  0  0
    3.0897   -1.8093    3.4786 O   0  0  0  0  0  0  0  0  0  0  0  0
    1.3581   -2.4647    1.7479 C   0  0  0  0  0  0  0  0  0  0  0  0
    1.9642   -3.6934    1.6224 N   0  0  0  0  0  0  0  0  0  0  0  0
    1.3169   -4.3783    0.6873 N   0  0  0  0  0  0  0  0  0  0  0  0
    0.3179   -3.6001    0.2372 N   0  0  0  0  0  0  0  0  0  0  0  0
    0.2983   -2.3596    0.8676 C   0  0  0  0  0  0  0  0  0  0  0  0
   -0.6199   -1.3779    0.5682 N   0  0  0  0  0  0  0  0  0  0  0  0
   -1.5409   -1.6133   -0.3464 C   0  0  0  0  0  0  0  0  0  0  0  0
   -2.4689   -0.6386   -0.6345 N   0  0  0  0  0  0  0  0  0  0  0  0
   -2.7551    0.4353    0.2994 C   0  0  0  0  0  0  0  0  0  0  0  0
   -3.8314    1.3607   -0.1897 C   0  0  0  0  0  0  0  0  0  0  0  0
   -3.7005    2.4808   -0.9876 C   0  0  0  0  0  0  0  0  0  0  0  0
   -4.9513    3.1155   -1.2375 C   0  0  0  0  0  0  0  0  0  0  0  0
   -5.9954    2.4518   -0.6363 C   0  0  0  0  0  0  0  0  0  0  0  0
   -5.4687    1.0688    0.2180 S   0  0  0  0  0  0  0  0  0  0  0  0
   -1.5432   -2.9108   -1.0260 C   0  0  0  0  0  0  0  0  0  0  0  0
   -2.6433   -3.3938   -2.2229 S   0  0  0  0  0  0  0  0  0  0  0  0
   -1.8717   -4.9276   -2.3798 C   0  0  0  0  0  0  0  0  0  0  0  0
   -0.7982   -5.0707   -1.5214 C   0  0  0  0  0  0  0  0  0  0  0  0
   -0.6317   -3.9001   -0.7506 C   0  0  0  0  0  0  0  0  0  0  0  0
    1.5470    1.1531    1.5660 C   0  0  0  0  0  0  0  0  0  0  0  0
    1.9639    2.2205    0.7692 C   0  0  0  0  0  0  0  0  0  0  0  0
    3.6977    3.9959   -2.7176 H   0  0  0  0  0  0  0  0  0  0  0  0
    2.2776    3.0441   -2.2476 H   0  0  0  0  0  0  0  0  0  0  0  0
    3.8355    2.2445   -2.4875 H   0  0  0  0  0  0  0  0  0  0  0  0
    3.2305    4.3184   -0.2971 H   0  0  0  0  0  0  0  0  0  0  0  0
    4.7827    3.5376   -0.5349 H   0  0  0  0  0  0  0  0  0  0  0  0
    5.1362    1.1699    0.0753 H   0  0  0  0  0  0  0  0  0  0  0  0
    4.4117   -0.7148    1.4918 H   0  0  0  0  0  0  0  0  0  0  0  0
   -3.2809   -0.9522   -1.1557 H   0  0  0  0  0  0  0  0  0  0  0  0
   -1.8441    1.0252    0.4718 H   0  0  0  0  0  0  0  0  0  0  0  0
   -3.0424    0.0103    1.2707 H   0  0  0  0  0  0  0  0  0  0  0  0
   -2.7488    2.8317   -1.3721 H   0  0  0  0  0  0  0  0  0  0  0  0
   -5.0791    4.0146   -1.8291 H   0  0  0  0  0  0  0  0  0  0  0  0
   -7.0447    2.7115   -0.6580 H   0  0  0  0  0  0  0  0  0  0  0  0
   -2.2482   -5.6470   -3.0936 H   0  0  0  0  0  0  0  0  0  0  0  0
   -0.1835   -5.9608   -1.4633 H   0  0  0  0  0  0  0  0  0  0  0  0
    0.5431    1.1534    1.9851 H   0  0  0  0  0  0  0  0  0  0  0  0
    1.2758    3.0414    0.5763 H   0  0  0  0  0  0  0  0  0  0  0  0
  1  2  1  0
  2  3  1  0
  3  4  2  0
  4  5  1  0
  5  6  2  0
  6  7  1  0
  7  8  2  0
  7  9  2  0
  7 10  1  0
 10 11  1  0
 11 12  2  0
 12 13  1  0
 13 14  1  0
 14 15  1  0
 15 16  2  0
 16 17  1  0
 17 18  1  0
 18 19  1  0
 19 20  2  0
 20 21  1  0
 21 22  2  0
 22 23  1  0
 16 24  1  0
 24 25  1  0
 25 26  1  0
 26 27  2  0
 27 28  1  0
  6 29  1  0
 29 30  2  0
 30  3  1  0
 14 10  2  0
 23 19  1  0
 28 24  2  0
 28 13  1  0
  1 31  1  0
  1 32  1  0
  1 33  1  0
  2 34  1  0
  2 35  1  0
  4 36  1  0
  5 37  1  0
 17 38  1  0
 18 39  1  0
 18 40  1  0
 20 41  1  0
 21 42  1  0
 22 43  1  0
 26 44  1  0
 27 45  1  0
 29 46  1  0
 30 47  1  0
M  END
$$$$
