
     RDKit          3D

 55 59  0  0  0  0  0  0  0  0999 V2000
    5.7044    0.0799   -0.9769 C   0  0  0  0  0  0  0  0  0  0  0  0
    4.7206    1.1473   -0.7503 N   0  0  0  0  0  0  0  0  0  0  0  0
    5.4106    2.3801   -0.3550 C   0  0  0  0  0  0  0  0  0  0  0  0
    3.7256    0.7049    0.2446 C   0  0  0  0  0  0  0  0  0  0  0  0
    2.5661    1.6948    0.4190 C   0  0  0  0  0  0  0  0  0  0  0  0
    1.4996    1.1839    1.3928 C   0  0  0  0  0  0  0  0  0  0  0  0
    0.7515    0.0380    0.8990 N   0  0  0  0  0  0  0  0  0  0  0  0
   -0.1425    0.1117   -0.1377 C   0  0  0  0  0  0  0  0  0  0  0  0
   -0.6585   -1.1459   -0.3614 C   0  0  0  0  0  0  0  0  0  0  0  0
   -1.5890   -1.4488   -1.3982 C   0  0  0  0  0  0  0  0  0  0  0  0
   -2.6272   -0.7232   -1.8535 C   0  0  0  0  0  0  0  0  0  0  0  0
   -3.1424    0.5110   -1.3811 C   0  0  0  0  0  0  0  0  0  0  0  0
   -3.1476    1.6829   -2.1064 C   0  0  0  0  0  0  0  0  0  0  0  0
   -3.7187    2.6498   -1.3193 N   0  0  0  0  0  0  0  0  0  0  0  0
   -4.0986    2.1249   -0.1064 C   0  0  0  0  0  0  0  0  0  0  0  0
   -4.7289    2.7359    0.9857 C   0  0  0  0  0  0  0  0  0  0  0  0
   -5.0004    1.9427    2.1117 C   0  0  0  0  0  0  0  0  0  0  0  0
   -4.6496    0.5961    2.1410 C   0  0  0  0  0  0  0  0  0  0  0  0
   -4.0171    0.0032    1.0381 C   0  0  0  0  0  0  0  0  0  0  0  0
   -3.7372    0.7768   -0.1098 C   0  0  0  0  0  0  0  0  0  0  0  0
   -3.2049   -1.4372   -3.0177 C   0  0  0  0  0  0  0  0  0  0  0  0
   -4.1037   -1.0527   -3.7462 O   0  0  0  0  0  0  0  0  0  0  0  0
   -2.5257   -2.5918   -3.1500 N   0  0  0  0  0  0  0  0  0  0  0  0
   -1.5065   -2.6519   -2.2637 C   0  0  0  0  0  0  0  0  0  0  0  0
   -0.6690   -3.5347   -2.2233 O   0  0  0  0  0  0  0  0  0  0  0  0
   -0.0787   -2.0187    0.6119 C   0  0  0  0  0  0  0  0  0  0  0  0
   -0.2182   -3.3914    0.9193 C   0  0  0  0  0  0  0  0  0  0  0  0
    0.5192   -3.9552    1.9660 C   0  0  0  0  0  0  0  0  0  0  0  0
    1.3912   -3.1737    2.7135 C   0  0  0  0  0  0  0  0  0  0  0  0
    1.5477   -1.8118    2.4401 C   0  0  0  0  0  0  0  0  0  0  0  0
    0.8023   -1.2505    1.3884 C   0  0  0  0  0  0  0  0  0  0  0  0
    6.2753   -0.1549   -0.0687 H   0  0  0  0  0  0  0  0  0  0  0  0
    5.2089   -0.8378   -1.3236 H   0  0  0  0  0  0  0  0  0  0  0  0
    6.4135    0.3644   -1.7645 H   0  0  0  0  0  0  0  0  0  0  0  0
    5.8509    2.3091    0.6501 H   0  0  0  0  0  0  0  0  0  0  0  0
    6.2172    2.6148   -1.0626 H   0  0  0  0  0  0  0  0  0  0  0  0
    4.7250    3.2393   -0.3835 H   0  0  0  0  0  0  0  0  0  0  0  0
    3.3084   -0.2531   -0.0919 H   0  0  0  0  0  0  0  0  0  0  0  0
    4.2061    0.5234    1.2140 H   0  0  0  0  0  0  0  0  0  0  0  0
    2.1152    1.9105   -0.5566 H   0  0  0  0  0  0  0  0  0  0  0  0
    2.9434    2.6458    0.8149 H   0  0  0  0  0  0  0  0  0  0  0  0
    0.7624    1.9739    1.5847 H   0  0  0  0  0  0  0  0  0  0  0  0
    1.9467    0.9285    2.3577 H   0  0  0  0  0  0  0  0  0  0  0  0
   -0.3224    1.0531   -0.6397 H   0  0  0  0  0  0  0  0  0  0  0  0
   -2.8002    1.9145   -3.1110 H   0  0  0  0  0  0  0  0  0  0  0  0
   -3.8597    3.6095   -1.5955 H   0  0  0  0  0  0  0  0  0  0  0  0
   -5.0046    3.7834    0.9692 H   0  0  0  0  0  0  0  0  0  0  0  0
   -5.4913    2.3857    2.9791 H   0  0  0  0  0  0  0  0  0  0  0  0
   -4.8695   -0.0066    3.0279 H   0  0  0  0  0  0  0  0  0  0  0  0
   -3.7468   -1.0473    1.0773 H   0  0  0  0  0  0  0  0  0  0  0  0
   -2.6707   -3.2510   -3.8971 H   0  0  0  0  0  0  0  0  0  0  0  0
   -0.8878   -4.0224    0.3414 H   0  0  0  0  0  0  0  0  0  0  0  0
    0.4121   -5.0149    2.1872 H   0  0  0  0  0  0  0  0  0  0  0  0
    1.9603   -3.6275    3.5217 H   0  0  0  0  0  0  0  0  0  0  0  0
    2.2332   -1.2169    3.0338 H   0  0  0  0  0  0  0  0  0  0  0  0
  1  2  1  0
  2  3  1  0
  2  4  1  0
  4  5  1  0
  5  6  1  0
  6  7  1  0
  7  8  1  0
  8  9  2  0
  9 10  1  0
 10 11  2  0
 11 12  1  0
 12 13  2  0
 13 14  1  0
 14 15  1  0
 15 16  2  0
 16 17  1  0
 17 18  2  0
 18 19  1  0
 19 20  2  0
 11 21  1  0
 21 22  2  0
 21 23  1  0
 23 24  1  0
 24 25  2  0
  9 26  1  0
 26 27  2  0
 27 28  1  0
 28 29  2  0
 29 30  1  0
 30 31  2  0
 31  7  1  0
 24 10  1  0
 31 26  1  0
 20 12  1  0
 20 15  1  0
  1 32  1  0
  1 33  1  0
  1 34  1  0
  3 35  1  0
  3 36  1  0
  3 37  1  0
  4 38  1  0
  4 39  1  0
  5 40  1  0
  5 41  1  0
  6 42  1  0
  6 43  1  0
  8 44  1  0
 13 45  1  0
 14 46  1  0
 16 47  1  0
 17 48  1  0
 18 49  1  0
 19 50  1  0
 23 51  1  0
 27 52  1  0
 28 53  1  0
 29 54  1  0
 30 55  1  0
M  END
$$$$
