
     RDKit          3D

 44 45  0  0  0  0  0  0  0  0999 V2000
    6.3911    0.2877    0.9847 C   0  0  0  0  0  0  0  0  0  0  0  0
    5.2312    1.1042    1.0891 O   0  0  0  0  0  0  0  0  0  0  0  0
    5.0020    1.9007   -0.0809 C   0  0  0  0  0  0  0  0  0  0  0  0
    4.2808    1.0981   -1.1639 C   0  0  0  0  0  0  0  0  0  0  0  0
    3.0342    0.5455   -0.6613 N   0  0  0  0  0  0  0  0  0  0  0  0
    2.1399   -0.0651   -1.5132 C   0  0  0  0  0  0  0  0  0  0  0  0
    2.2947   -0.0906   -2.7298 O   0  0  0  0  0  0  0  0  0  0  0  0
    0.9501   -0.7001   -0.8068 C   0  0  0  0  0  0  0  0  0  0  0  0
    0.0950   -1.5291   -1.7678 C   0  0  0  0  0  0  0  0  0  0  0  0
   -1.0903   -2.1825   -1.0529 C   0  0  0  0  0  0  0  0  0  0  0  0
   -1.4237   -1.5244    0.2847 C   0  0  0  0  0  0  0  0  0  0  0  0
   -1.2968   -0.0567    0.1417 N   0  0  0  0  0  0  0  0  0  0  0  0
   -2.0717    0.8757    1.3478 S   0  0  0  0  0  6  0  0  0  0  0  0
   -1.8570    2.2741    1.0441 O   0  0  0  0  0  0  0  0  0  0  0  0
   -1.6859    0.3148    2.6264 O   0  0  0  0  0  0  0  0  0  0  0  0
   -3.7890    0.5321    1.0673 C   0  0  0  0  0  0  0  0  0  0  0  0
   -4.5576   -0.0714    2.0660 C   0  0  0  0  0  0  0  0  0  0  0  0
   -5.9050   -0.3380    1.8230 C   0  0  0  0  0  0  0  0  0  0  0  0
   -6.4747   -0.0000    0.5934 C   0  0  0  0  0  0  0  0  0  0  0  0
   -5.7023    0.6082   -0.3982 C   0  0  0  0  0  0  0  0  0  0  0  0
   -4.3548    0.8786   -0.1637 C   0  0  0  0  0  0  0  0  0  0  0  0
    0.1044    0.3916   -0.1385 C   0  0  0  0  0  0  0  0  0  0  0  0
    6.5091   -0.2587    1.9245 H   0  0  0  0  0  0  0  0  0  0  0  0
    7.2814    0.9042    0.8282 H   0  0  0  0  0  0  0  0  0  0  0  0
    6.2874   -0.4391    0.1748 H   0  0  0  0  0  0  0  0  0  0  0  0
    4.3681    2.7382    0.2308 H   0  0  0  0  0  0  0  0  0  0  0  0
    5.9430    2.3190   -0.4553 H   0  0  0  0  0  0  0  0  0  0  0  0
    4.8902    0.2545   -1.5037 H   0  0  0  0  0  0  0  0  0  0  0  0
    4.0647    1.7312   -2.0310 H   0  0  0  0  0  0  0  0  0  0  0  0
    3.0358    0.2863    0.3202 H   0  0  0  0  0  0  0  0  0  0  0  0
    1.3534   -1.3759   -0.0399 H   0  0  0  0  0  0  0  0  0  0  0  0
   -0.2854   -0.8838   -2.5712 H   0  0  0  0  0  0  0  0  0  0  0  0
    0.6987   -2.3000   -2.2620 H   0  0  0  0  0  0  0  0  0  0  0  0
   -1.9638   -2.1421   -1.7155 H   0  0  0  0  0  0  0  0  0  0  0  0
   -0.8839   -3.2458   -0.8819 H   0  0  0  0  0  0  0  0  0  0  0  0
   -0.7458   -1.8824    1.0688 H   0  0  0  0  0  0  0  0  0  0  0  0
   -2.4391   -1.8145    0.5696 H   0  0  0  0  0  0  0  0  0  0  0  0
   -4.1201   -0.3318    3.0269 H   0  0  0  0  0  0  0  0  0  0  0  0
   -6.5141   -0.8056    2.5930 H   0  0  0  0  0  0  0  0  0  0  0  0
   -7.5265   -0.2066    0.4091 H   0  0  0  0  0  0  0  0  0  0  0  0
   -6.1525    0.8748   -1.3513 H   0  0  0  0  0  0  0  0  0  0  0  0
   -3.7519    1.3566   -0.9328 H   0  0  0  0  0  0  0  0  0  0  0  0
    0.0436    1.2748   -0.7869 H   0  0  0  0  0  0  0  0  0  0  0  0
    0.5933    0.6990    0.7942 H   0  0  0  0  0  0  0  0  0  0  0  0
  1  2  1  0
  2  3  1  0
  3  4  1  0
  4  5  1  0
  5  6  1  0
  6  7  2  0
  6  8  1  0
  8  9  1  0
  9 10  1  0
 10 11  1  0
 11 12  1  0
 12 13  1  0
 13 14  2  0
 13 15  2  0
 13 16  1  0
 16 17  2  0
 17 18  1  0
 18 19  2  0
 19 20  1  0
 20 21  2  0
 12 22  1  0
 22  8  1  0
 21 16  1  0
  1 23  1  0
  1 24  1  0
  1 25  1  0
  3 26  1  0
  3 27  1  0
  4 28  1  0
  4 29  1  0
  5 30  1  0
  8 31  1  0
  9 32  1  0
  9 33  1  0
 10 34  1  0
 10 35  1  0
 11 36  1  0
 11 37  1  0
 17 38  1  0
 18 39  1  0
 19 40  1  0
 20 41  1  0
 21 42  1  0
 22 43  1  0
 22 44  1  0
M  END
$$$$
