
     RDKit          3D

 59 64  0  0  0  0  0  0  0  0999 V2000
    0.6599    0.6713   -1.6432 O   0  0  0  0  0  0  0  0  0  0  0  0
    0.0164    1.1627   -0.7202 C   0  0  0  0  0  0  0  0  0  0  0  0
   -1.3753    1.5193   -0.9782 C   0  0  0  0  0  0  0  0  0  0  0  0
   -1.7248    2.8385   -1.2428 C   0  0  0  0  0  0  0  0  0  0  0  0
   -0.7987    3.8064   -1.2359 F   0  0  0  0  0  0  0  0  0  0  0  0
   -3.0496    3.1749   -1.5144 C   0  0  0  0  0  0  0  0  0  0  0  0
   -4.0312    2.1797   -1.5237 C   0  0  0  0  0  0  0  0  0  0  0  0
   -3.6773    0.8526   -1.2660 C   0  0  0  0  0  0  0  0  0  0  0  0
   -4.6859   -0.1717   -1.2129 N   0  0  0  0  0  0  0  0  0  0  0  0
   -5.5932   -0.1568    0.2120 S   0  0  0  0  0  6  0  0  0  0  0  0
   -6.3439    1.0721    0.3038 O   0  0  0  0  0  0  0  0  0  0  0  0
   -4.7371   -0.6090    1.2807 O   0  0  0  0  0  0  0  0  0  0  0  0
   -6.6655   -1.3940   -0.1662 N   0  0  0  0  0  0  0  0  0  0  0  0
   -7.5655   -1.1683   -1.3314 C   0  0  0  0  0  0  0  0  0  0  0  0
   -8.8072   -1.9815   -1.0157 C   0  0  0  0  0  0  0  0  0  0  0  0
   -8.9524   -1.7711    0.4741 C   0  0  1  0  0  0  0  0  0  0  0  0
   -9.7189   -2.7466    1.0124 F   0  0  0  0  0  0  0  0  0  0  0  0
   -7.5170   -1.8568    0.9745 C   0  0  0  0  0  0  0  0  0  0  0  0
   -2.3457    0.5271   -0.9918 C   0  0  0  0  0  0  0  0  0  0  0  0
   -2.0242   -0.7505   -0.7360 F   0  0  0  0  0  0  0  0  0  0  0  0
    0.5654    1.3945    0.6115 C   0  0  0  0  0  0  0  0  0  0  0  0
   -0.1178    1.8521    1.7309 C   0  0  0  0  0  0  0  0  0  0  0  0
    0.7647    1.9186    2.7803 N   0  0  0  0  0  0  0  0  0  0  0  0
    2.0015    1.5113    2.3713 C   0  0  0  0  0  0  0  0  0  0  0  0
    3.0825    1.4574    3.1669 N   0  0  0  0  0  0  0  0  0  0  0  0
    4.1885    1.0104    2.5194 C   0  0  0  0  0  0  0  0  0  0  0  0
    4.2820    0.6353    1.1733 C   0  0  0  0  0  0  0  0  0  0  0  0
    5.5410    0.1672    0.5864 C   0  0  0  0  0  0  0  0  0  0  0  0
    6.7615    0.7767    0.8090 C   0  0  0  0  0  0  0  0  0  0  0  0
    7.9372    0.3611    0.2883 N   0  0  0  0  0  0  0  0  0  0  0  0
    7.9107   -0.7248   -0.5097 C   0  0  0  0  0  0  0  0  0  0  0  0
    9.2049   -1.2081   -1.1144 C   0  0  0  0  0  0  0  0  0  0  0  0
    9.6262   -2.6526   -0.9581 C   0  0  0  0  0  0  0  0  0  0  0  0
   10.3702   -1.5782   -0.2237 C   0  0  0  0  0  0  0  0  0  0  0  0
    6.7749   -1.3890   -0.7997 N   0  0  0  0  0  0  0  0  0  0  0  0
    5.6293   -0.9309   -0.2481 C   0  0  0  0  0  0  0  0  0  0  0  0
    3.1049    0.7241    0.4119 C   0  0  0  0  0  0  0  0  0  0  0  0
    1.9202    1.1749    1.0273 C   0  0  0  0  0  0  0  0  0  0  0  0
   -3.3116    4.2107   -1.7136 H   0  0  0  0  0  0  0  0  0  0  0  0
   -5.0669    2.4452   -1.7258 H   0  0  0  0  0  0  0  0  0  0  0  0
   -4.2530   -1.0999   -1.2525 H   0  0  0  0  0  0  0  0  0  0  0  0
   -7.0908   -1.5116   -2.2547 H   0  0  0  0  0  0  0  0  0  0  0  0
   -7.8291   -0.1106   -1.4351 H   0  0  0  0  0  0  0  0  0  0  0  0
   -9.6854   -1.6485   -1.5759 H   0  0  0  0  0  0  0  0  0  0  0  0
   -8.6526   -3.0442   -1.2381 H   0  0  0  0  0  0  0  0  0  0  0  0
   -9.3994   -0.7970    0.7018 H   0  0  0  0  0  0  0  0  0  0  0  0
   -7.2433   -2.8882    1.2206 H   0  0  0  0  0  0  0  0  0  0  0  0
   -7.3895   -1.2517    1.8772 H   0  0  0  0  0  0  0  0  0  0  0  0
   -1.1521    2.1315    1.8842 H   0  0  0  0  0  0  0  0  0  0  0  0
    0.5580    2.2109    3.7251 H   0  0  0  0  0  0  0  0  0  0  0  0
    5.0606    0.9461    3.1694 H   0  0  0  0  0  0  0  0  0  0  0  0
    6.8458    1.6658    1.4294 H   0  0  0  0  0  0  0  0  0  0  0  0
    9.4555   -0.7384   -2.0608 H   0  0  0  0  0  0  0  0  0  0  0  0
    8.9878   -3.3150   -0.3841 H   0  0  0  0  0  0  0  0  0  0  0  0
   10.1115   -3.1283   -1.8019 H   0  0  0  0  0  0  0  0  0  0  0  0
   11.3650   -1.3185   -0.5653 H   0  0  0  0  0  0  0  0  0  0  0  0
   10.2378   -1.5079    0.8500 H   0  0  0  0  0  0  0  0  0  0  0  0
    4.7495   -1.5148   -0.5088 H   0  0  0  0  0  0  0  0  0  0  0  0
    3.0913    0.4630   -0.6431 H   0  0  0  0  0  0  0  0  0  0  0  0
  1  2  2  0
  2  3  1  0
  3  4  2  0
  4  5  1  0
  4  6  1  0
  6  7  2  0
  7  8  1  0
  8  9  1  0
  9 10  1  0
 10 11  2  0
 10 12  2  0
 10 13  1  0
 13 14  1  0
 14 15  1  0
 15 16  1  0
 16 17  1  0
 16 18  1  0
  8 19  2  0
 19 20  1  0
  2 21  1  0
 21 22  2  0
 22 23  1  0
 23 24  1  0
 24 25  2  0
 25 26  1  0
 26 27  2  0
 27 28  1  0
 28 29  2  0
 29 30  1  0
 30 31  2  0
 31 32  1  0
 32 33  1  0
 33 34  1  0
 31 35  1  0
 35 36  2  0
 27 37  1  0
 37 38  2  0
 19  3  1  0
 38 21  1  0
 18 13  1  0
 38 24  1  0
 36 28  1  0
 34 32  1  0
  6 39  1  0
  7 40  1  0
  9 41  1  0
 14 42  1  0
 14 43  1  0
 15 44  1  0
 15 45  1  0
 16 46  1  6
 18 47  1  0
 18 48  1  0
 22 49  1  0
 23 50  1  0
 26 51  1  0
 29 52  1  0
 32 53  1  0
 33 54  1  0
 33 55  1  0
 34 56  1  0
 34 57  1  0
 36 58  1  0
 37 59  1  0
M  END
$$$$
