
     RDKit          3D

 49 53  0  0  0  0  0  0  0  0999 V2000
    8.4117   -0.4839    0.6707 C   0  0  0  0  0  0  0  0  0  0  0  0
    7.1268    0.1141    0.1015 C   0  0  0  0  0  0  0  0  0  0  0  0
    7.3931    0.6983   -1.2827 C   0  0  0  0  0  0  0  0  0  0  0  0
    6.1830   -0.9575    0.0047 O   0  0  0  0  0  0  0  0  0  0  0  0
    4.8488   -0.6856    0.1047 C   0  0  0  0  0  0  0  0  0  0  0  0
    4.2587    0.5752    0.1474 C   0  0  0  0  0  0  0  0  0  0  0  0
    2.8664    0.7003    0.2460 C   0  0  0  0  0  0  0  0  0  0  0  0
    2.0437   -0.4330    0.3007 C   0  0  0  0  0  0  0  0  0  0  0  0
    0.5852   -0.3038    0.3936 C   0  0  0  0  0  0  0  0  0  0  0  0
   -0.3499   -1.0629   -0.5010 C   0  0  0  0  0  0  0  0  0  0  0  0
   -1.6495   -1.0260   -0.4771 N   0  0  0  0  0  0  0  0  0  0  0  0
   -2.2080   -0.1975    0.4611 C   0  0  0  0  0  0  0  0  0  0  0  0
   -3.5192    0.1143    0.7681 C   0  0  0  0  0  0  0  0  0  0  0  0
   -4.6863   -0.4383    0.1002 C   0  0  0  0  0  0  0  0  0  0  0  0
   -4.8510   -1.8250    0.1082 C   0  0  0  0  0  0  0  0  0  0  0  0
   -5.9801   -2.3532   -0.4788 C   0  0  0  0  0  0  0  0  0  0  0  0
   -6.9418   -1.6076   -1.0570 N   0  0  0  0  0  0  0  0  0  0  0  0
   -6.7827   -0.2743   -1.0836 C   0  0  0  0  0  0  0  0  0  0  0  0
   -7.7715    0.4840   -1.6966 C   0  0  0  0  0  0  0  0  0  0  0  0
   -7.6908    1.8747   -1.7871 C   0  0  0  0  0  0  0  0  0  0  0  0
   -6.5914    2.5327   -1.2578 C   0  0  0  0  0  0  0  0  0  0  0  0
   -5.5851    1.7957   -0.6346 C   0  0  0  0  0  0  0  0  0  0  0  0
   -5.6634    0.3823   -0.5231 C   0  0  0  0  0  0  0  0  0  0  0  0
   -3.4297    1.0123    1.8500 C   0  0  0  0  0  0  0  0  0  0  0  0
   -2.1724    1.2907    2.1952 N   0  0  0  0  0  0  0  0  0  0  0  0
   -1.4195    0.5493    1.3448 N   0  0  0  0  0  0  0  0  0  0  0  0
   -0.0320    0.4801    1.2942 C   0  0  0  0  0  0  0  0  0  0  0  0
    2.6420   -1.6963    0.2491 C   0  0  0  0  0  0  0  0  0  0  0  0
    4.0316   -1.8171    0.1512 C   0  0  0  0  0  0  0  0  0  0  0  0
    9.1934    0.2752    0.7722 H   0  0  0  0  0  0  0  0  0  0  0  0
    8.2223   -0.9229    1.6565 H   0  0  0  0  0  0  0  0  0  0  0  0
    8.7868   -1.2927    0.0336 H   0  0  0  0  0  0  0  0  0  0  0  0
    6.7930    0.8890    0.8008 H   0  0  0  0  0  0  0  0  0  0  0  0
    7.7326   -0.0793   -1.9762 H   0  0  0  0  0  0  0  0  0  0  0  0
    6.4827    1.1241   -1.7156 H   0  0  0  0  0  0  0  0  0  0  0  0
    8.1528    1.4848   -1.2401 H   0  0  0  0  0  0  0  0  0  0  0  0
    4.8452    1.4859    0.0943 H   0  0  0  0  0  0  0  0  0  0  0  0
    2.4345    1.6993    0.2659 H   0  0  0  0  0  0  0  0  0  0  0  0
    0.1339   -1.7090   -1.2533 H   0  0  0  0  0  0  0  0  0  0  0  0
   -4.1170   -2.4819    0.5629 H   0  0  0  0  0  0  0  0  0  0  0  0
   -6.1513   -3.4255   -0.4976 H   0  0  0  0  0  0  0  0  0  0  0  0
   -8.6322   -0.0273   -2.1225 H   0  0  0  0  0  0  0  0  0  0  0  0
   -8.4831    2.4337   -2.2775 H   0  0  0  0  0  0  0  0  0  0  0  0
   -6.5105    3.6140   -1.3328 H   0  0  0  0  0  0  0  0  0  0  0  0
   -4.7250    2.3371   -0.2482 H   0  0  0  0  0  0  0  0  0  0  0  0
   -4.2376    1.4784    2.4006 H   0  0  0  0  0  0  0  0  0  0  0  0
    0.4865    1.0846    2.0267 H   0  0  0  0  0  0  0  0  0  0  0  0
    2.0429   -2.6031    0.2966 H   0  0  0  0  0  0  0  0  0  0  0  0
    4.4834   -2.8062    0.1153 H   0  0  0  0  0  0  0  0  0  0  0  0
  1  2  1  0
  2  3  1  0
  2  4  1  0
  4  5  1  0
  5  6  2  0
  6  7  1  0
  7  8  2  0
  8  9  1  0
  9 10  1  0
 10 11  2  0
 11 12  1  0
 12 13  2  0
 13 14  1  0
 14 15  2  0
 15 16  1  0
 16 17  2  0
 17 18  1  0
 18 19  2  0
 19 20  1  0
 20 21  2  0
 21 22  1  0
 22 23  2  0
 13 24  1  0
 24 25  2  0
 25 26  1  0
 26 27  1  0
  8 28  1  0
 28 29  2  0
 29  5  1  0
 27  9  2  0
 26 12  1  0
 23 14  1  0
 23 18  1  0
  1 30  1  0
  1 31  1  0
  1 32  1  0
  2 33  1  0
  3 34  1  0
  3 35  1  0
  3 36  1  0
  6 37  1  0
  7 38  1  0
 10 39  1  0
 15 40  1  0
 16 41  1  0
 19 42  1  0
 20 43  1  0
 21 44  1  0
 22 45  1  0
 24 46  1  0
 27 47  1  0
 28 48  1  0
 29 49  1  0
M  END
$$$$
