
     RDKit          3D

 39 41  0  0  0  0  0  0  0  0999 V2000
   -2.0719   -1.3259    1.1509 C   0  0  0  0  0  0  0  0  0  0  0  0
   -2.6408   -0.9361   -0.2301 C   0  0  0  0  0  0  0  0  0  0  0  0
   -4.0914   -1.4453   -0.3080 C   0  0  0  0  0  0  0  0  0  0  0  0
   -1.8140   -1.5880   -1.3515 C   0  0  0  0  0  0  0  0  0  0  0  0
   -0.4353   -0.9776   -1.5186 C   0  0  0  0  0  0  0  0  0  0  0  0
    0.4658   -1.6069   -2.0708 O   0  0  0  0  0  0  0  0  0  0  0  0
   -0.2160    0.4287   -1.0908 C   0  0  0  0  0  0  0  0  0  0  0  0
   -1.2533    1.1510   -0.6383 C   0  0  0  0  0  0  0  0  0  0  0  0
   -2.6330    0.5970   -0.4128 C   0  0  0  0  0  0  0  0  0  0  0  0
   -1.0582    2.4808   -0.3471 N   0  0  0  0  0  0  0  0  0  0  0  0
    0.0962    3.1606   -0.6020 C   0  0  0  0  0  0  0  0  0  0  0  0
    0.2314    4.7850   -0.2867 S   0  0  0  0  0  0  0  0  0  0  0  0
    1.1207    2.4557   -1.1463 N   0  0  0  0  0  0  0  0  0  0  0  0
    1.1655    0.9986   -1.2247 C   0  0  0  0  0  0  0  0  0  0  0  0
    2.1383    0.4570   -0.1859 C   0  0  0  0  0  0  0  0  0  0  0  0
    2.0178    0.7755    1.1788 C   0  0  0  0  0  0  0  0  0  0  0  0
    2.9218    0.2669    2.1148 C   0  0  0  0  0  0  0  0  0  0  0  0
    3.9583   -0.5693    1.7039 C   0  0  0  0  0  0  0  0  0  0  0  0
    4.0790   -0.8927    0.3572 C   0  0  0  0  0  0  0  0  0  0  0  0
    5.0771   -1.7075   -0.0896 O   0  0  0  0  0  0  0  0  0  0  0  0
    3.1828   -0.3927   -0.5828 C   0  0  0  0  0  0  0  0  0  0  0  0
   -2.6595   -0.8736    1.9581 H   0  0  0  0  0  0  0  0  0  0  0  0
   -1.0338   -1.0050    1.2822 H   0  0  0  0  0  0  0  0  0  0  0  0
   -2.0982   -2.4124    1.2928 H   0  0  0  0  0  0  0  0  0  0  0  0
   -4.5478   -1.2002   -1.2736 H   0  0  0  0  0  0  0  0  0  0  0  0
   -4.7109   -0.9954    0.4761 H   0  0  0  0  0  0  0  0  0  0  0  0
   -4.1356   -2.5336   -0.1871 H   0  0  0  0  0  0  0  0  0  0  0  0
   -1.6896   -2.6593   -1.1519 H   0  0  0  0  0  0  0  0  0  0  0  0
   -2.3249   -1.4845   -2.3171 H   0  0  0  0  0  0  0  0  0  0  0  0
   -3.0845    1.0667    0.4711 H   0  0  0  0  0  0  0  0  0  0  0  0
   -3.2558    0.8815   -1.2715 H   0  0  0  0  0  0  0  0  0  0  0  0
   -1.8289    3.0359    0.0119 H   0  0  0  0  0  0  0  0  0  0  0  0
    1.9909    2.9548   -1.2793 H   0  0  0  0  0  0  0  0  0  0  0  0
    1.5514    0.7943   -2.2312 H   0  0  0  0  0  0  0  0  0  0  0  0
    1.2182    1.4282    1.5229 H   0  0  0  0  0  0  0  0  0  0  0  0
    2.8167    0.5272    3.1650 H   0  0  0  0  0  0  0  0  0  0  0  0
    4.6549   -0.9551    2.4410 H   0  0  0  0  0  0  0  0  0  0  0  0
    5.5995   -2.0044    0.6730 H   0  0  0  0  0  0  0  0  0  0  0  0
    3.2971   -0.6801   -1.6261 H   0  0  0  0  0  0  0  0  0  0  0  0
  1  2  1  0
  2  3  1  0
  2  4  1  0
  4  5  1  0
  5  6  2  0
  5  7  1  0
  7  8  2  0
  8  9  1  0
  8 10  1  0
 10 11  1  0
 11 12  2  0
 11 13  1  0
 13 14  1  0
 14 15  1  0
 15 16  2  0
 16 17  1  0
 17 18  2  0
 18 19  1  0
 19 20  1  0
 19 21  2  0
  9  2  1  0
 21 15  1  0
 14  7  1  0
  1 22  1  0
  1 23  1  0
  1 24  1  0
  3 25  1  0
  3 26  1  0
  3 27  1  0
  4 28  1  0
  4 29  1  0
  9 30  1  0
  9 31  1  0
 10 32  1  0
 13 33  1  0
 14 34  1  0
 16 35  1  0
 17 36  1  0
 18 37  1  0
 20 38  1  0
 21 39  1  0
M  END
$$$$
