
     RDKit          3D

 48 50  0  0  0  0  0  0  0  0999 V2000
   -3.8593    2.3757    2.6211 C   0  0  0  0  0  0  0  0  0  0  0  0
   -2.7389    1.9508    1.7974 N   0  0  0  0  0  0  0  0  0  0  0  0
   -1.9420    0.8276    2.2993 C   0  0  0  0  0  0  0  0  0  0  0  0
   -2.2039   -0.4983    1.6188 C   0  0  0  0  0  0  0  0  0  0  0  0
   -3.4276   -0.8033    1.0070 C   0  0  0  0  0  0  0  0  0  0  0  0
   -3.6359   -2.0508    0.4130 C   0  0  0  0  0  0  0  0  0  0  0  0
   -2.6310   -3.0183    0.4362 C   0  0  0  0  0  0  0  0  0  0  0  0
   -1.4165   -2.7364    1.0530 C   0  0  0  0  0  0  0  0  0  0  0  0
   -1.2052   -1.4878    1.6455 C   0  0  0  0  0  0  0  0  0  0  0  0
   -2.4000    2.7238    0.6901 C   0  0  0  0  0  0  0  0  0  0  0  0
   -2.9868    3.7481    0.3541 O   0  0  0  0  0  0  0  0  0  0  0  0
   -1.2645    2.2917   -0.1453 C   0  0  0  0  0  0  0  0  0  0  0  0
   -0.0234    2.9129    0.0099 C   0  0  0  0  0  0  0  0  0  0  0  0
    1.0587    2.4828   -0.7563 C   0  0  0  0  0  0  0  0  0  0  0  0
    0.8820    1.4354   -1.6666 C   0  0  0  0  0  0  0  0  0  0  0  0
    2.2688    0.8116   -2.5827 S   0  0  0  0  0  6  0  0  0  0  0  0
    1.7885    0.4454   -3.9013 O   0  0  0  0  0  0  0  0  0  0  0  0
    3.3658    1.7412   -2.4128 O   0  0  0  0  0  0  0  0  0  0  0  0
    2.6881   -0.6848   -1.7287 C   0  0  0  0  0  0  0  0  0  0  0  0
    3.9247   -1.3559   -2.3334 C   0  0  0  0  0  0  0  0  0  0  0  0
    4.3073   -2.4881   -1.3878 C   0  0  0  0  0  0  0  0  0  0  0  0
    3.8486   -1.9250    0.2441 S   0  0  0  0  0  6  0  0  0  0  0  0
    5.0376   -1.5577    0.9814 O   0  0  0  0  0  0  0  0  0  0  0  0
    2.8442   -2.8249    0.7723 O   0  0  0  0  0  0  0  0  0  0  0  0
    3.0214   -0.4397   -0.2654 C   0  0  0  0  0  0  0  0  0  0  0  0
   -0.3705    0.8522   -1.8636 C   0  0  0  0  0  0  0  0  0  0  0  0
   -1.4510    1.2890   -1.1003 C   0  0  0  0  0  0  0  0  0  0  0  0
   -4.4846    3.1144    2.1098 H   0  0  0  0  0  0  0  0  0  0  0  0
   -3.4683    2.8105    3.5469 H   0  0  0  0  0  0  0  0  0  0  0  0
   -4.4795    1.5081    2.8646 H   0  0  0  0  0  0  0  0  0  0  0  0
   -2.1321    0.7107    3.3760 H   0  0  0  0  0  0  0  0  0  0  0  0
   -0.8836    1.0855    2.1908 H   0  0  0  0  0  0  0  0  0  0  0  0
   -4.2256   -0.0692    0.9713 H   0  0  0  0  0  0  0  0  0  0  0  0
   -4.5854   -2.2713   -0.0653 H   0  0  0  0  0  0  0  0  0  0  0  0
   -2.7967   -3.9959   -0.0232 H   0  0  0  0  0  0  0  0  0  0  0  0
   -0.6307   -3.4897    1.0793 H   0  0  0  0  0  0  0  0  0  0  0  0
   -0.2484   -1.2961    2.1297 H   0  0  0  0  0  0  0  0  0  0  0  0
    0.0938    3.7238    0.7223 H   0  0  0  0  0  0  0  0  0  0  0  0
    2.0253    2.9647   -0.6340 H   0  0  0  0  0  0  0  0  0  0  0  0
    1.8298   -1.3637   -1.8195 H   0  0  0  0  0  0  0  0  0  0  0  0
    3.7418   -1.7282   -3.3467 H   0  0  0  0  0  0  0  0  0  0  0  0
    4.7527   -0.6395   -2.3954 H   0  0  0  0  0  0  0  0  0  0  0  0
    3.7376   -3.3991   -1.5991 H   0  0  0  0  0  0  0  0  0  0  0  0
    5.3775   -2.7032   -1.4162 H   0  0  0  0  0  0  0  0  0  0  0  0
    3.7130    0.3970   -0.1243 H   0  0  0  0  0  0  0  0  0  0  0  0
    2.1357   -0.2910    0.3556 H   0  0  0  0  0  0  0  0  0  0  0  0
   -0.5189    0.0692   -2.6025 H   0  0  0  0  0  0  0  0  0  0  0  0
   -2.4323    0.8459   -1.2465 H   0  0  0  0  0  0  0  0  0  0  0  0
  1  2  1  0
  2  3  1  0
  3  4  1  0
  4  5  2  0
  5  6  1  0
  6  7  2  0
  7  8  1  0
  8  9  2  0
  2 10  1  0
 10 11  2  0
 10 12  1  0
 12 13  2  0
 13 14  1  0
 14 15  2  0
 15 16  1  0
 16 17  2  0
 16 18  2  0
 16 19  1  0
 19 20  1  0
 20 21  1  0
 21 22  1  0
 22 23  2  0
 22 24  2  0
 22 25  1  0
 15 26  1  0
 26 27  2  0
  9  4  1  0
 27 12  1  0
 25 19  1  0
  1 28  1  0
  1 29  1  0
  1 30  1  0
  3 31  1  0
  3 32  1  0
  5 33  1  0
  6 34  1  0
  7 35  1  0
  8 36  1  0
  9 37  1  0
 13 38  1  0
 14 39  1  0
 19 40  1  0
 20 41  1  0
 20 42  1  0
 21 43  1  0
 21 44  1  0
 25 45  1  0
 25 46  1  0
 26 47  1  0
 27 48  1  0
M  END
$$$$
