
     RDKit          3D

 42 44  0  0  0  0  0  0  0  0999 V2000
    3.5124    2.5446   -0.7963 O   0  0  0  0  0  0  0  0  0  0  0  0
    3.6755    1.6030   -0.0279 C   0  0  0  0  0  0  0  0  0  0  0  0
    2.7454    1.2272    0.9172 N   0  0  0  0  0  0  0  0  0  0  0  0
    1.4558    1.8765    0.9994 C   0  0  0  0  0  0  0  0  0  0  0  0
    0.4603    1.0382    0.2595 C   0  0  0  0  0  0  0  0  0  0  0  0
    0.2925    0.9204   -1.1058 C   0  0  0  0  0  0  0  0  0  0  0  0
   -0.7510    0.0157   -1.4483 C   0  0  0  0  0  0  0  0  0  0  0  0
   -1.3550   -0.5308   -0.3326 C   0  0  0  0  0  0  0  0  0  0  0  0
   -2.7036   -1.6757   -0.1454 S   0  0  0  0  0  6  0  0  0  0  0  0
   -3.1813   -1.9194   -1.4893 O   0  0  0  0  0  0  0  0  0  0  0  0
   -2.1978   -2.7550    0.6770 O   0  0  0  0  0  0  0  0  0  0  0  0
   -3.9522   -0.8916    0.7049 N   0  0  0  0  0  0  0  0  0  0  0  0
   -4.4526    0.3725    0.0762 C   0  0  0  0  0  0  0  0  0  0  0  0
   -5.8000    0.7662    0.6883 C   0  0  0  0  0  0  0  0  0  0  0  0
   -6.8308   -0.1989    0.4381 O   0  0  0  0  0  0  0  0  0  0  0  0
   -6.3338   -1.5362    0.2944 C   0  0  0  0  0  0  0  0  0  0  0  0
   -5.0715   -1.8004    1.1216 C   0  0  0  0  0  0  0  0  0  0  0  0
   -0.6538    0.0545    1.1133 S   0  0  0  0  0  0  0  0  0  0  0  0
    4.9132    0.7781   -0.1147 C   0  0  0  0  0  0  0  0  0  0  0  0
    5.6306    0.7818   -1.3220 C   0  0  0  0  0  0  0  0  0  0  0  0
    6.7997    0.0279   -1.4555 C   0  0  0  0  0  0  0  0  0  0  0  0
    7.2610   -0.7275   -0.3801 C   0  0  0  0  0  0  0  0  0  0  0  0
    6.5547   -0.7163    0.8179 C   0  0  0  0  0  0  0  0  0  0  0  0
    7.0072   -1.4342    1.8536 F   0  0  0  0  0  0  0  0  0  0  0  0
    5.3890    0.0299    0.9662 C   0  0  0  0  0  0  0  0  0  0  0  0
    2.8222    0.3229    1.3587 H   0  0  0  0  0  0  0  0  0  0  0  0
    1.4989    2.8851    0.5750 H   0  0  0  0  0  0  0  0  0  0  0  0
    1.2044    1.9668    2.0615 H   0  0  0  0  0  0  0  0  0  0  0  0
    0.9034    1.4590   -1.8255 H   0  0  0  0  0  0  0  0  0  0  0  0
   -1.0513   -0.2307   -2.4606 H   0  0  0  0  0  0  0  0  0  0  0  0
   -4.5731    0.2343   -1.0038 H   0  0  0  0  0  0  0  0  0  0  0  0
   -3.7236    1.1706    0.2555 H   0  0  0  0  0  0  0  0  0  0  0  0
   -6.1398    1.7227    0.2791 H   0  0  0  0  0  0  0  0  0  0  0  0
   -5.7116    0.8870    1.7746 H   0  0  0  0  0  0  0  0  0  0  0  0
   -6.1454   -1.7116   -0.7705 H   0  0  0  0  0  0  0  0  0  0  0  0
   -7.1350   -2.2154    0.6002 H   0  0  0  0  0  0  0  0  0  0  0  0
   -4.7851   -2.8539    1.0338 H   0  0  0  0  0  0  0  0  0  0  0  0
   -5.2666   -1.6063    2.1836 H   0  0  0  0  0  0  0  0  0  0  0  0
    5.2769    1.3744   -2.1638 H   0  0  0  0  0  0  0  0  0  0  0  0
    7.3476    0.0350   -2.3950 H   0  0  0  0  0  0  0  0  0  0  0  0
    8.1681   -1.3172   -0.4645 H   0  0  0  0  0  0  0  0  0  0  0  0
    4.8961    0.0269    1.9306 H   0  0  0  0  0  0  0  0  0  0  0  0
  1  2  2  0
  2  3  1  0
  3  4  1  0
  4  5  1  0
  5  6  2  0
  6  7  1  0
  7  8  2  0
  8  9  1  0
  9 10  2  0
  9 11  2  0
  9 12  1  0
 12 13  1  0
 13 14  1  0
 14 15  1  0
 15 16  1  0
 16 17  1  0
  8 18  1  0
  2 19  1  0
 19 20  2  0
 20 21  1  0
 21 22  2  0
 22 23  1  0
 23 24  1  0
 23 25  2  0
 18  5  1  0
 25 19  1  0
 17 12  1  0
  3 26  1  0
  4 27  1  0
  4 28  1  0
  6 29  1  0
  7 30  1  0
 13 31  1  0
 13 32  1  0
 14 33  1  0
 14 34  1  0
 16 35  1  0
 16 36  1  0
 17 37  1  0
 17 38  1  0
 20 39  1  0
 21 40  1  0
 22 41  1  0
 25 42  1  0
M  END
$$$$
