
     RDKit          3D

 64 65  0  0  0  0  0  0  0  0999 V2000
    4.0076    0.1538   -2.5663 C   0  0  0  0  0  0  0  0  0  0  0  0
    3.7797    0.0741   -1.1625 O   0  0  0  0  0  0  0  0  0  0  0  0
    4.7655    0.5325   -0.3227 C   0  0  0  0  0  0  0  0  0  0  0  0
    6.0281    0.9498   -0.7786 C   0  0  0  0  0  0  0  0  0  0  0  0
    7.0155    1.4043    0.1055 C   0  0  0  0  0  0  0  0  0  0  0  0
    8.2121    1.9247   -0.4201 N   0  0  0  0  0  0  0  0  0  0  0  0
    6.6903    1.5198    1.4641 C   0  0  0  0  0  0  0  0  0  0  0  0
    7.8373    2.1501    2.5948 Cl  0  0  0  0  0  0  0  0  0  0  0  0
    5.4495    1.0991    1.9386 C   0  0  0  0  0  0  0  0  0  0  0  0
    4.4805    0.5897    1.0580 C   0  0  0  0  0  0  0  0  0  0  0  0
    3.1894    0.1538    1.6875 C   0  0  0  0  0  0  0  0  0  0  0  0
    2.9870    0.3574    2.8797 O   0  0  0  0  0  0  0  0  0  0  0  0
    2.2710   -0.4819    0.8844 N   0  0  0  0  0  0  0  0  0  0  0  0
    0.9303   -0.8607    1.3528 C   0  0  0  0  0  0  0  0  0  0  0  0
   -0.0017    0.3612    1.3110 C   0  0  0  0  0  0  0  0  0  0  0  0
   -0.8026    0.3996    0.0128 C   0  0  0  0  0  0  0  0  0  0  0  0
   -1.7178   -0.7443   -0.0919 N   0  0  0  0  0  0  0  0  0  0  0  0
   -2.2425   -0.8798   -1.4575 C   0  0  0  0  0  0  0  0  0  0  0  0
   -3.5689   -1.6512   -1.5180 C   0  0  0  0  0  0  0  0  0  0  0  0
   -4.6976   -0.9635   -0.7512 C   0  0  0  0  0  0  0  0  0  0  0  0
   -5.0038    0.2736   -1.3952 O   0  0  0  0  0  0  0  0  0  0  0  0
   -5.9879    1.0406   -0.8359 C   0  0  0  0  0  0  0  0  0  0  0  0
   -6.7051    0.7395    0.3244 C   0  0  0  0  0  0  0  0  0  0  0  0
   -7.6884    1.6193    0.7878 C   0  0  0  0  0  0  0  0  0  0  0  0
   -7.9496    2.7919    0.0901 C   0  0  0  0  0  0  0  0  0  0  0  0
   -8.8932    3.6313    0.5365 F   0  0  0  0  0  0  0  0  0  0  0  0
   -7.2459    3.1042   -1.0644 C   0  0  0  0  0  0  0  0  0  0  0  0
   -6.2643    2.2259   -1.5257 C   0  0  0  0  0  0  0  0  0  0  0  0
   -1.1563   -1.9899    0.4553 C   0  0  0  0  0  0  0  0  0  0  0  0
    0.3821   -2.0458    0.5142 C   0  0  0  0  0  0  0  0  0  0  0  0
    0.7418   -3.3327    1.0458 O   0  0  0  0  0  0  0  0  0  0  0  0
    2.1396   -3.5848    1.0660 C   0  0  0  0  0  0  0  0  0  0  0  0
   -0.0001    0.3978    0.0000 O   0  0  0  0  0  0  0  0  0  0  0  0
    4.8113   -0.5259   -2.8687 H   0  0  0  0  0  0  0  0  0  0  0  0
    4.2136    1.1839   -2.8778 H   0  0  0  0  0  0  0  0  0  0  0  0
    3.0914   -0.1679   -3.0722 H   0  0  0  0  0  0  0  0  0  0  0  0
    6.2752    0.9356   -1.8353 H   0  0  0  0  0  0  0  0  0  0  0  0
    8.5405    1.4705   -1.2662 H   0  0  0  0  0  0  0  0  0  0  0  0
    8.9440    2.0152    0.2834 H   0  0  0  0  0  0  0  0  0  0  0  0
    5.2335    1.1728    3.0031 H   0  0  0  0  0  0  0  0  0  0  0  0
    2.4573   -0.4843   -0.1127 H   0  0  0  0  0  0  0  0  0  0  0  0
    1.0393   -1.1690    2.4003 H   0  0  0  0  0  0  0  0  0  0  0  0
   -0.6998    0.3118    2.1582 H   0  0  0  0  0  0  0  0  0  0  0  0
    0.5580    1.2971    1.4280 H   0  0  0  0  0  0  0  0  0  0  0  0
   -0.1070    0.4297   -0.8368 H   0  0  0  0  0  0  0  0  0  0  0  0
   -1.3894    1.3255   -0.0154 H   0  0  0  0  0  0  0  0  0  0  0  0
   -2.4173    0.1144   -1.8899 H   0  0  0  0  0  0  0  0  0  0  0  0
   -1.5009   -1.3675   -2.1030 H   0  0  0  0  0  0  0  0  0  0  0  0
   -3.4438   -2.6713   -1.1397 H   0  0  0  0  0  0  0  0  0  0  0  0
   -3.8570   -1.7351   -2.5732 H   0  0  0  0  0  0  0  0  0  0  0  0
   -5.5793   -1.6128   -0.7784 H   0  0  0  0  0  0  0  0  0  0  0  0
   -4.4021   -0.7968    0.2894 H   0  0  0  0  0  0  0  0  0  0  0  0
   -6.5234   -0.1671    0.8915 H   0  0  0  0  0  0  0  0  0  0  0  0
   -8.2492    1.3960    1.6889 H   0  0  0  0  0  0  0  0  0  0  0  0
   -7.4628    4.0241   -1.5966 H   0  0  0  0  0  0  0  0  0  0  0  0
   -5.7097    2.4634   -2.4293 H   0  0  0  0  0  0  0  0  0  0  0  0
   -1.5228   -2.8763   -0.0765 H   0  0  0  0  0  0  0  0  0  0  0  0
   -1.5465   -2.1113    1.4753 H   0  0  0  0  0  0  0  0  0  0  0  0
    0.7592   -1.9968   -0.5167 H   0  0  0  0  0  0  0  0  0  0  0  0
    2.6092   -3.0516    1.8949 H   0  0  0  0  0  0  0  0  0  0  0  0
    2.6086   -3.3138    0.1165 H   0  0  0  0  0  0  0  0  0  0  0  0
    2.2880   -4.6539    1.2321 H   0  0  0  0  0  0  0  0  0  0  0  0
   -0.7635   -0.1991    0.0000 H   0  0  0  0  0  0  0  0  0  0  0  0
    0.7636   -0.1986    0.0000 H   0  0  0  0  0  0  0  0  0  0  0  0
  1  2  1  0
  2  3  1  0
  3  4  2  0
  4  5  1  0
  5  6  1  0
  5  7  2  0
  7  8  1  0
  7  9  1  0
  9 10  2  0
 10 11  1  0
 11 12  2  0
 11 13  1  0
 13 14  1  0
 14 15  1  0
 15 16  1  0
 16 17  1  0
 17 18  1  0
 18 19  1  0
 19 20  1  0
 20 21  1  0
 21 22  1  0
 22 23  2  0
 23 24  1  0
 24 25  2  0
 25 26  1  0
 25 27  1  0
 27 28  2  0
 17 29  1  0
 29 30  1  0
 30 31  1  0
 31 32  1  0
 10  3  1  0
 30 14  1  0
 28 22  1  0
  1 34  1  0
  1 35  1  0
  1 36  1  0
  4 37  1  0
  6 38  1  0
  6 39  1  0
  9 40  1  0
 13 41  1  0
 14 42  1  0
 15 43  1  0
 15 44  1  0
 16 45  1  0
 16 46  1  0
 18 47  1  0
 18 48  1  0
 19 49  1  0
 19 50  1  0
 20 51  1  0
 20 52  1  0
 23 53  1  0
 24 54  1  0
 27 55  1  0
 28 56  1  0
 29 57  1  0
 29 58  1  0
 30 59  1  0
 32 60  1  0
 32 61  1  0
 32 62  1  0
 33 63  1  0
 33 64  1  0
M  END
$$$$
