
     RDKit          3D

 38 39  0  0  0  0  0  0  0  0999 V2000
    6.3340    0.3913   -0.0968 C   0  0  0  0  0  0  0  0  0  0  0  0
    5.3671    1.1101   -0.8519 O   0  0  0  0  0  0  0  0  0  0  0  0
    4.0575    0.9459   -0.4929 C   0  0  0  0  0  0  0  0  0  0  0  0
    3.5827    0.1266    0.5306 C   0  0  0  0  0  0  0  0  0  0  0  0
    2.2101    0.0513    0.7918 C   0  0  0  0  0  0  0  0  0  0  0  0
    1.2954    0.7945    0.0354 C   0  0  0  0  0  0  0  0  0  0  0  0
   -0.1884    0.6934    0.3090 C   0  0  0  0  0  0  0  0  0  0  0  0
   -0.8906   -0.3416   -0.5823 C   0  0  1  0  0  0  0  0  0  0  0  0
   -0.5087   -1.7327   -0.2531 N   0  0  0  0  0  0  0  0  0  0  0  0
   -1.5715   -2.5509   -0.8388 C   0  0  0  0  0  0  0  0  0  0  0  0
   -2.8395   -1.8049   -0.4480 C   0  0  2  0  0  0  0  0  0  0  0  0
   -3.9089   -2.0879   -1.3448 O   0  0  0  0  0  0  0  0  0  0  0  0
   -2.4362   -0.3194   -0.5074 C   0  0  1  0  0  0  0  0  0  0  0  0
   -2.9175    0.3950    0.6479 O   0  0  0  0  0  0  0  0  0  0  0  0
   -4.2681    0.5457    0.7174 C   0  0  0  0  0  0  0  0  0  0  0  0
   -4.6397    1.3213    1.9430 C   0  0  0  0  0  0  0  0  0  0  0  0
   -5.0684    0.0976   -0.0930 O   0  0  0  0  0  0  0  0  0  0  0  0
    1.7763    1.6120   -0.9932 C   0  0  0  0  0  0  0  0  0  0  0  0
    3.1471    1.6852   -1.2513 C   0  0  0  0  0  0  0  0  0  0  0  0
    6.3174    0.6927    0.9559 H   0  0  0  0  0  0  0  0  0  0  0  0
    7.3219    0.6383   -0.4976 H   0  0  0  0  0  0  0  0  0  0  0  0
    6.1927   -0.6895   -0.2018 H   0  0  0  0  0  0  0  0  0  0  0  0
    4.2500   -0.4689    1.1442 H   0  0  0  0  0  0  0  0  0  0  0  0
    1.8558   -0.5990    1.5896 H   0  0  0  0  0  0  0  0  0  0  0  0
   -0.6342    1.6840    0.1481 H   0  0  0  0  0  0  0  0  0  0  0  0
   -0.3486    0.4637    1.3709 H   0  0  0  0  0  0  0  0  0  0  0  0
   -0.6097   -0.1707   -1.6317 H   0  0  0  0  0  0  0  0  0  0  0  0
    0.3943   -1.9547   -0.6745 H   0  0  0  0  0  0  0  0  0  0  0  0
   -1.4661   -2.6224   -1.9283 H   0  0  0  0  0  0  0  0  0  0  0  0
   -1.5623   -3.5681   -0.4356 H   0  0  0  0  0  0  0  0  0  0  0  0
   -3.1543   -2.0919    0.5628 H   0  0  0  0  0  0  0  0  0  0  0  0
   -4.6408   -1.4831   -1.0935 H   0  0  0  0  0  0  0  0  0  0  0  0
   -2.8271    0.1736   -1.4077 H   0  0  0  0  0  0  0  0  0  0  0  0
   -5.7167    1.5115    1.9384 H   0  0  0  0  0  0  0  0  0  0  0  0
   -4.1205    2.2832    1.9455 H   0  0  0  0  0  0  0  0  0  0  0  0
   -4.3865    0.7447    2.8360 H   0  0  0  0  0  0  0  0  0  0  0  0
    1.0915    2.1986   -1.6006 H   0  0  0  0  0  0  0  0  0  0  0  0
    3.5104    2.3251   -2.0517 H   0  0  0  0  0  0  0  0  0  0  0  0
  1  2  1  0
  2  3  1  0
  3  4  2  0
  4  5  1  0
  5  6  2  0
  6  7  1  0
  7  8  1  0
  8  9  1  0
  9 10  1  0
 10 11  1  0
 11 12  1  0
 11 13  1  0
 13 14  1  0
 14 15  1  0
 15 16  1  0
 15 17  2  0
  6 18  1  0
 18 19  2  0
 19  3  1  0
 13  8  1  0
  1 20  1  0
  1 21  1  0
  1 22  1  0
  4 23  1  0
  5 24  1  0
  7 25  1  0
  7 26  1  0
  8 27  1  6
  9 28  1  0
 10 29  1  0
 10 30  1  0
 11 31  1  1
 12 32  1  0
 13 33  1  6
 16 34  1  0
 16 35  1  0
 16 36  1  0
 18 37  1  0
 19 38  1  0
M  END
$$$$
