
     RDKit          3D

 43 46  0  0  0  0  0  0  0  0999 V2000
    0.7567    0.0370   -1.7638 O   0  0  0  0  0  0  0  0  0  0  0  0
    1.2150   -1.0146   -1.3371 C   0  0  0  0  0  0  0  0  0  0  0  0
    0.3299   -2.2041   -1.0062 C   0  0  0  0  0  0  0  0  0  0  0  0
   -1.1601   -1.9731   -1.2589 C   0  0  0  0  0  0  0  0  0  0  0  0
   -1.7895   -0.8143   -0.4859 C   0  0  2  0  0  0  0  0  0  0  0  0
   -1.4157   -0.7685    0.9062 N   0  0  0  0  0  0  0  0  0  0  0  0
   -2.5215   -0.7312    1.7289 C   0  0  0  0  0  0  0  0  0  0  0  0
   -2.4557   -0.5573    2.9332 O   0  0  0  0  0  0  0  0  0  0  0  0
   -3.6325   -0.9252    0.9713 N   0  0  0  0  0  0  0  0  0  0  0  0
   -4.9752   -0.9874    1.4951 C   0  0  0  0  0  0  0  0  0  0  0  0
   -5.6585    0.3178    1.2901 C   0  0  0  0  0  0  0  0  0  0  0  0
   -6.4457    0.8249    0.2781 C   0  0  0  0  0  0  0  0  0  0  0  0
   -6.8193    2.1322    0.6768 C   0  0  0  0  0  0  0  0  0  0  0  0
   -6.2260    2.3447    1.8986 C   0  0  0  0  0  0  0  0  0  0  0  0
   -5.5193    1.2493    2.2794 O   0  0  0  0  0  0  0  0  0  0  0  0
   -3.3051   -1.0078   -0.3514 C   0  0  0  0  0  0  0  0  0  0  0  0
   -4.0770   -1.1984   -1.2826 O   0  0  0  0  0  0  0  0  0  0  0  0
    2.5392   -1.2931   -1.0835 N   0  0  0  0  0  0  0  0  0  0  0  0
    3.5192   -0.3457   -1.2142 C   0  0  0  0  0  0  0  0  0  0  0  0
    3.4455    0.9181   -1.5461 N   0  0  0  0  0  0  0  0  0  0  0  0
    4.6904    1.5263   -1.5245 N   0  0  0  0  0  0  0  0  0  0  0  0
    5.6318    0.6874   -1.1577 C   0  0  0  0  0  0  0  0  0  0  0  0
    7.1274    1.1105   -1.0187 C   0  0  0  0  0  0  0  0  0  0  0  0
    7.4638    2.5007   -0.5444 C   0  0  0  0  0  0  0  0  0  0  0  0
    7.6971    1.3290    0.3608 C   0  0  0  0  0  0  0  0  0  0  0  0
    5.0914   -0.9066   -0.8482 S   0  0  0  0  0  0  0  0  0  0  0  0
    0.4955   -2.4792    0.0415 H   0  0  0  0  0  0  0  0  0  0  0  0
    0.6595   -3.0484   -1.6237 H   0  0  0  0  0  0  0  0  0  0  0  0
   -1.3323   -1.8111   -2.3312 H   0  0  0  0  0  0  0  0  0  0  0  0
   -1.6829   -2.9076   -1.0130 H   0  0  0  0  0  0  0  0  0  0  0  0
   -1.5975    0.1650   -0.9321 H   0  0  0  0  0  0  0  0  0  0  0  0
   -0.5633   -0.3429    1.2507 H   0  0  0  0  0  0  0  0  0  0  0  0
   -4.9430   -1.2349    2.5612 H   0  0  0  0  0  0  0  0  0  0  0  0
   -5.5218   -1.7789    0.9709 H   0  0  0  0  0  0  0  0  0  0  0  0
   -6.7133    0.3091   -0.6372 H   0  0  0  0  0  0  0  0  0  0  0  0
   -7.4411    2.8350    0.1381 H   0  0  0  0  0  0  0  0  0  0  0  0
   -6.2154    3.1730    2.5983 H   0  0  0  0  0  0  0  0  0  0  0  0
    2.8297   -2.2092   -0.7747 H   0  0  0  0  0  0  0  0  0  0  0  0
    7.7795    0.6779   -1.7678 H   0  0  0  0  0  0  0  0  0  0  0  0
    8.3274    2.9895   -0.9797 H   0  0  0  0  0  0  0  0  0  0  0  0
    6.6486    3.1772   -0.3067 H   0  0  0  0  0  0  0  0  0  0  0  0
    8.7201    1.0233    0.5426 H   0  0  0  0  0  0  0  0  0  0  0  0
    7.0440    1.2115    1.2195 H   0  0  0  0  0  0  0  0  0  0  0  0
  1  2  2  0
  2  3  1  0
  3  4  1  0
  4  5  1  0
  5  6  1  0
  6  7  1  0
  7  8  2  0
  7  9  1  0
  9 10  1  0
 10 11  1  0
 11 12  2  0
 12 13  1  0
 13 14  2  0
 14 15  1  0
  9 16  1  0
 16 17  2  0
  2 18  1  0
 18 19  1  0
 19 20  2  0
 20 21  1  0
 21 22  2  0
 22 23  1  0
 23 24  1  0
 24 25  1  0
 22 26  1  0
 16  5  1  0
 26 19  1  0
 15 11  1  0
 25 23  1  0
  3 27  1  0
  3 28  1  0
  4 29  1  0
  4 30  1  0
  5 31  1  6
  6 32  1  0
 10 33  1  0
 10 34  1  0
 12 35  1  0
 13 36  1  0
 14 37  1  0
 18 38  1  0
 23 39  1  0
 24 40  1  0
 24 41  1  0
 25 42  1  0
 25 43  1  0
M  END
$$$$
