
     RDKit          3D

 71 75  0  0  0  0  0  0  0  0999 V2000
   -9.3111    0.9865    3.0767 C   0  0  0  0  0  0  0  0  0  0  0  0
   -9.0314    0.9877    1.5777 C   0  0  0  0  0  0  0  0  0  0  0  0
   -8.1255   -0.0990    1.1862 N   0  0  0  0  0  0  0  0  0  0  0  0
   -8.2264   -0.3571   -0.2657 C   0  0  0  0  0  0  0  0  0  0  0  0
   -7.0295   -1.1758   -0.7902 C   0  0  0  0  0  0  0  0  0  0  0  0
   -5.7486   -0.4406   -0.6988 N   0  0  0  0  0  0  0  0  0  0  0  0
   -4.6279   -1.3880   -0.6372 C   0  0  0  0  0  0  0  0  0  0  0  0
   -3.2835   -0.7334   -0.9291 C   0  0  0  0  0  0  0  0  0  0  0  0
   -3.1417   -0.0027   -2.1257 C   0  0  0  0  0  0  0  0  0  0  0  0
   -1.9360    0.6149   -2.4563 C   0  0  0  0  0  0  0  0  0  0  0  0
   -0.8374    0.4916   -1.6067 C   0  0  0  0  0  0  0  0  0  0  0  0
    0.4360    1.1619   -1.9843 C   0  0  0  0  0  0  0  0  0  0  0  0
    0.3771    2.2840   -2.4710 O   0  0  0  0  0  0  0  0  0  0  0  0
    1.5697    0.3997   -1.7674 N   0  0  0  0  0  0  0  0  0  0  0  0
    2.9088    0.7779   -2.0028 C   0  0  0  0  0  0  0  0  0  0  0  0
    3.3004    2.0604   -2.3892 C   0  0  0  0  0  0  0  0  0  0  0  0
    4.6504    2.3586   -2.6159 C   0  0  0  0  0  0  0  0  0  0  0  0
    5.6375    1.3791   -2.4623 C   0  0  0  0  0  0  0  0  0  0  0  0
    7.0764    1.7183   -2.7180 C   0  0  0  0  0  0  0  0  0  0  0  0
    5.2421    0.1074   -2.0305 C   0  0  0  0  0  0  0  0  0  0  0  0
    6.1551   -0.9089   -1.8775 O   0  0  0  0  0  0  0  0  0  0  0  0
    6.8823   -0.9567   -0.7036 C   0  0  0  0  0  0  0  0  0  0  0  0
    8.0030   -1.8145   -0.7431 C   0  0  0  0  0  0  0  0  0  0  0  0
    8.8343   -1.9707    0.3696 C   0  0  0  0  0  0  0  0  0  0  0  0
    8.5059   -1.2584    1.5009 C   0  0  0  0  0  0  0  0  0  0  0  0
    7.3988   -0.4141    1.5612 C   0  0  0  0  0  0  0  0  0  0  0  0
    6.5685   -0.2509    0.4657 C   0  0  0  0  0  0  0  0  0  0  0  0
    7.3202    0.2055    2.9247 C   0  0  0  0  0  0  0  0  0  0  0  0
    8.5393   -0.4058    3.6264 C   0  0  0  0  0  0  0  0  0  0  0  0
    8.8987   -0.1995    4.7735 O   0  0  0  0  0  0  0  0  0  0  0  0
    9.1692   -1.2469    2.7165 N   0  0  0  0  0  0  0  0  0  0  0  0
    3.8921   -0.1997   -1.8248 C   0  0  0  0  0  0  0  0  0  0  0  0
   -0.9576   -0.2252   -0.4094 C   0  0  0  0  0  0  0  0  0  0  0  0
   -2.1755   -0.8440   -0.0556 C   0  0  0  0  0  0  0  0  0  0  0  0
   -2.2680   -1.5890    1.2575 C   0  0  0  0  0  0  0  0  0  0  0  0
   -1.0972   -1.6008    1.9554 F   0  0  0  0  0  0  0  0  0  0  0  0
   -3.1950   -1.0569    2.0993 F   0  0  0  0  0  0  0  0  0  0  0  0
   -2.6077   -2.8970    1.0911 F   0  0  0  0  0  0  0  0  0  0  0  0
   -5.7661    0.5114    0.4327 C   0  0  0  0  0  0  0  0  0  0  0  0
   -6.7215    0.1338    1.5900 C   0  0  0  0  0  0  0  0  0  0  0  0
   -9.6979    0.0151    3.4035 H   0  0  0  0  0  0  0  0  0  0  0  0
  -10.0658    1.7425    3.3155 H   0  0  0  0  0  0  0  0  0  0  0  0
   -8.4176    1.2147    3.6656 H   0  0  0  0  0  0  0  0  0  0  0  0
   -9.9990    0.8577    1.0740 H   0  0  0  0  0  0  0  0  0  0  0  0
   -8.6374    1.9636    1.2652 H   0  0  0  0  0  0  0  0  0  0  0  0
   -9.1501   -0.9142   -0.4606 H   0  0  0  0  0  0  0  0  0  0  0  0
   -8.2886    0.5827   -0.8323 H   0  0  0  0  0  0  0  0  0  0  0  0
   -6.9866   -2.1182   -0.2256 H   0  0  0  0  0  0  0  0  0  0  0  0
   -7.2054   -1.4377   -1.8401 H   0  0  0  0  0  0  0  0  0  0  0  0
   -4.7538   -2.1635   -1.4053 H   0  0  0  0  0  0  0  0  0  0  0  0
   -4.6342   -1.9103    0.3239 H   0  0  0  0  0  0  0  0  0  0  0  0
   -3.9921    0.1021   -2.7999 H   0  0  0  0  0  0  0  0  0  0  0  0
   -1.8580    1.1933   -3.3756 H   0  0  0  0  0  0  0  0  0  0  0  0
    1.4290   -0.5621   -1.4855 H   0  0  0  0  0  0  0  0  0  0  0  0
    2.5775    2.8589   -2.5271 H   0  0  0  0  0  0  0  0  0  0  0  0
    4.9188    3.3669   -2.9260 H   0  0  0  0  0  0  0  0  0  0  0  0
    7.5892    1.9232   -1.7732 H   0  0  0  0  0  0  0  0  0  0  0  0
    7.5856    0.8994   -3.2363 H   0  0  0  0  0  0  0  0  0  0  0  0
    7.1651    2.6038   -3.3567 H   0  0  0  0  0  0  0  0  0  0  0  0
    8.2249   -2.3591   -1.6588 H   0  0  0  0  0  0  0  0  0  0  0  0
    9.6965   -2.6261    0.3335 H   0  0  0  0  0  0  0  0  0  0  0  0
    5.7090    0.4076    0.5303 H   0  0  0  0  0  0  0  0  0  0  0  0
    7.4307    1.2919    2.8764 H   0  0  0  0  0  0  0  0  0  0  0  0
    6.4080   -0.0938    3.4472 H   0  0  0  0  0  0  0  0  0  0  0  0
   10.0024   -1.7699    2.9414 H   0  0  0  0  0  0  0  0  0  0  0  0
    3.6293   -1.2106   -1.5273 H   0  0  0  0  0  0  0  0  0  0  0  0
   -0.1114   -0.2748    0.2749 H   0  0  0  0  0  0  0  0  0  0  0  0
   -4.7628    0.6874    0.8366 H   0  0  0  0  0  0  0  0  0  0  0  0
   -6.0860    1.4824    0.0322 H   0  0  0  0  0  0  0  0  0  0  0  0
   -6.3569   -0.7952    2.0470 H   0  0  0  0  0  0  0  0  0  0  0  0
   -6.6407    0.8991    2.3698 H   0  0  0  0  0  0  0  0  0  0  0  0
  1  2  1  0
  2  3  1  0
  3  4  1  0
  4  5  1  0
  5  6  1  0
  6  7  1  0
  7  8  1  0
  8  9  2  0
  9 10  1  0
 10 11  2  0
 11 12  1  0
 12 13  2  0
 12 14  1  0
 14 15  1  0
 15 16  2  0
 16 17  1  0
 17 18  2  0
 18 19  1  0
 18 20  1  0
 20 21  1  0
 21 22  1  0
 22 23  2  0
 23 24  1  0
 24 25  2  0
 25 26  1  0
 26 27  2  0
 26 28  1  0
 28 29  1  0
 29 30  2  0
 29 31  1  0
 20 32  2  0
 11 33  1  0
 33 34  2  0
 34 35  1  0
 35 36  1  0
 35 37  1  0
 35 38  1  0
  6 39  1  0
 39 40  1  0
 40  3  1  0
 34  8  1  0
 32 15  1  0
 27 22  1  0
 31 25  1  0
  1 41  1  0
  1 42  1  0
  1 43  1  0
  2 44  1  0
  2 45  1  0
  4 46  1  0
  4 47  1  0
  5 48  1  0
  5 49  1  0
  7 50  1  0
  7 51  1  0
  9 52  1  0
 10 53  1  0
 14 54  1  0
 16 55  1  0
 17 56  1  0
 19 57  1  0
 19 58  1  0
 19 59  1  0
 23 60  1  0
 24 61  1  0
 27 62  1  0
 28 63  1  0
 28 64  1  0
 31 65  1  0
 32 66  1  0
 33 67  1  0
 39 68  1  0
 39 69  1  0
 40 70  1  0
 40 71  1  0
M  END
$$$$
