
     RDKit          3D

 52 55  0  0  0  0  0  0  0  0999 V2000
    6.4046    0.9771   -2.2113 C   0  0  0  0  0  0  0  0  0  0  0  0
    5.4598   -0.0037   -1.5384 C   0  0  0  0  0  0  0  0  0  0  0  0
    4.4840    0.6479   -0.6919 N   0  0  0  0  0  0  0  0  0  0  0  0
    3.4083    1.3205   -1.2354 C   0  0  0  0  0  0  0  0  0  0  0  0
    3.2539    1.5119   -2.4389 O   0  0  0  0  0  0  0  0  0  0  0  0
    2.3874    1.7834   -0.2204 C   0  0  0  0  0  0  0  0  0  0  0  0
    1.2037    0.8163   -0.1948 C   0  0  2  0  0  0  0  0  0  0  0  0
    0.1338    1.4385    0.5908 N   0  0  0  0  0  0  0  0  0  0  0  0
   -1.0301    0.8801    0.6405 C   0  0  0  0  0  0  0  0  0  0  0  0
   -2.0591    1.5415    1.5093 C   0  0  0  0  0  0  0  0  0  0  0  0
   -2.0593    2.9378    1.6204 C   0  0  0  0  0  0  0  0  0  0  0  0
   -3.0042    3.5779    2.4262 C   0  0  0  0  0  0  0  0  0  0  0  0
   -3.9414    2.8227    3.1285 C   0  0  0  0  0  0  0  0  0  0  0  0
   -5.1076    3.6094    4.1181 Cl  0  0  0  0  0  0  0  0  0  0  0  0
   -3.9363    1.4323    3.0399 C   0  0  0  0  0  0  0  0  0  0  0  0
   -2.9913    0.7885    2.2358 C   0  0  0  0  0  0  0  0  0  0  0  0
   -1.4144   -0.3700   -0.0964 C   0  0  0  0  0  0  0  0  0  0  0  0
   -2.6548   -0.3587   -0.7652 C   0  0  0  0  0  0  0  0  0  0  0  0
   -3.1421   -1.5107   -1.3795 C   0  0  0  0  0  0  0  0  0  0  0  0
   -4.3291   -1.6261   -2.0464 O   0  0  0  0  0  0  0  0  0  0  0  0
   -5.1530   -0.4663   -2.1077 C   0  0  0  0  0  0  0  0  0  0  0  0
   -2.3800   -2.6773   -1.3356 C   0  0  0  0  0  0  0  0  0  0  0  0
   -1.1343   -2.6996   -0.7022 C   0  0  0  0  0  0  0  0  0  0  0  0
   -0.6358   -1.5439   -0.0861 C   0  0  0  0  0  0  0  0  0  0  0  0
    0.6691   -1.5525    0.4704 N   0  0  0  0  0  0  0  0  0  0  0  0
    1.3799   -2.5770    1.0777 C   0  0  0  0  0  0  0  0  0  0  0  0
    0.8521   -3.9104    1.4573 C   0  0  0  0  0  0  0  0  0  0  0  0
    2.5941   -2.1510    1.3690 N   0  0  0  0  0  0  0  0  0  0  0  0
    2.6951   -0.8438    0.9924 N   0  0  0  0  0  0  0  0  0  0  0  0
    1.5502   -0.4892    0.4466 C   0  0  0  0  0  0  0  0  0  0  0  0
    5.8672    1.6572   -2.8769 H   0  0  0  0  0  0  0  0  0  0  0  0
    6.9361    1.5838   -1.4706 H   0  0  0  0  0  0  0  0  0  0  0  0
    7.1410    0.4326   -2.8076 H   0  0  0  0  0  0  0  0  0  0  0  0
    4.9330   -0.6006   -2.2889 H   0  0  0  0  0  0  0  0  0  0  0  0
    6.0326   -0.6831   -0.8992 H   0  0  0  0  0  0  0  0  0  0  0  0
    4.2895    0.1823    0.1950 H   0  0  0  0  0  0  0  0  0  0  0  0
    2.0615    2.7870   -0.5224 H   0  0  0  0  0  0  0  0  0  0  0  0
    2.8501    1.8968    0.7682 H   0  0  0  0  0  0  0  0  0  0  0  0
    0.8710    0.6522   -1.2294 H   0  0  0  0  0  0  0  0  0  0  0  0
   -1.3234    3.5315    1.0817 H   0  0  0  0  0  0  0  0  0  0  0  0
   -2.9985    4.6615    2.5047 H   0  0  0  0  0  0  0  0  0  0  0  0
   -4.6580    0.8448    3.6011 H   0  0  0  0  0  0  0  0  0  0  0  0
   -2.9869   -0.2975    2.2023 H   0  0  0  0  0  0  0  0  0  0  0  0
   -3.2268    0.5643   -0.7930 H   0  0  0  0  0  0  0  0  0  0  0  0
   -5.4663   -0.1571   -1.1039 H   0  0  0  0  0  0  0  0  0  0  0  0
   -4.6493    0.3494   -2.6359 H   0  0  0  0  0  0  0  0  0  0  0  0
   -6.0517   -0.7251   -2.6767 H   0  0  0  0  0  0  0  0  0  0  0  0
   -2.7488   -3.5762   -1.8271 H   0  0  0  0  0  0  0  0  0  0  0  0
   -0.5567   -3.6173   -0.7702 H   0  0  0  0  0  0  0  0  0  0  0  0
   -0.1928   -3.8599    1.7748 H   0  0  0  0  0  0  0  0  0  0  0  0
    0.9465   -4.6169    0.6258 H   0  0  0  0  0  0  0  0  0  0  0  0
    1.4275   -4.3152    2.2991 H   0  0  0  0  0  0  0  0  0  0  0  0
  1  2  1  0
  2  3  1  0
  3  4  1  0
  4  5  2  0
  4  6  1  0
  6  7  1  0
  7  8  1  0
  8  9  2  0
  9 10  1  0
 10 11  2  0
 11 12  1  0
 12 13  2  0
 13 14  1  0
 13 15  1  0
 15 16  2  0
  9 17  1  0
 17 18  2  0
 18 19  1  0
 19 20  1  0
 20 21  1  0
 19 22  2  0
 22 23  1  0
 23 24  2  0
 24 25  1  0
 25 26  1  0
 26 27  1  0
 26 28  2  0
 28 29  1  0
 29 30  2  0
 30  7  1  0
 16 10  1  0
 24 17  1  0
 30 25  1  0
  1 31  1  0
  1 32  1  0
  1 33  1  0
  2 34  1  0
  2 35  1  0
  3 36  1  0
  6 37  1  0
  6 38  1  0
  7 39  1  6
 11 40  1  0
 12 41  1  0
 15 42  1  0
 16 43  1  0
 18 44  1  0
 21 45  1  0
 21 46  1  0
 21 47  1  0
 22 48  1  0
 23 49  1  0
 27 50  1  0
 27 51  1  0
 27 52  1  0
M  END
$$$$
