
     RDKit          3D

 37 39  0  0  0  0  0  0  0  0999 V2000
   -2.5551   -1.6749   -1.0581 C   0  0  0  0  0  0  0  0  0  0  0  0
   -3.0861   -0.4141   -0.4119 C   0  0  0  0  0  0  0  0  0  0  0  0
   -4.3860   -0.3898    0.1227 C   0  0  0  0  0  0  0  0  0  0  0  0
   -5.3790   -1.8149    0.0459 Cl  0  0  0  0  0  0  0  0  0  0  0  0
   -4.9026    0.7656    0.7350 C   0  0  0  0  0  0  0  0  0  0  0  0
   -6.2901    0.8206    1.3090 C   0  0  0  0  0  0  0  0  0  0  0  0
   -4.1065    1.9083    0.8438 N   0  0  0  0  0  4  0  0  0  0  0  0
   -4.5699    2.9537    1.4160 O   0  0  0  0  0  1  0  0  0  0  0  0
   -2.8003    1.8985    0.3340 C   0  0  0  0  0  0  0  0  0  0  0  0
   -1.8081    3.3271    0.5064 Cl  0  0  0  0  0  0  0  0  0  0  0  0
   -2.2913    0.7444   -0.2923 C   0  0  0  0  0  0  0  0  0  0  0  0
   -0.9312    0.7538   -0.7934 C   0  0  0  0  0  0  0  0  0  0  0  0
   -0.5913    1.2434   -1.9930 N   0  0  0  0  0  0  0  0  0  0  0  0
    0.7888    1.0370   -2.0425 O   0  0  0  0  0  0  0  0  0  0  0  0
    1.1351    0.4250   -0.8701 C   0  0  0  0  0  0  0  0  0  0  0  0
    2.5416    0.0942   -0.6734 C   0  0  0  0  0  0  0  0  0  0  0  0
    3.5180    0.4072   -1.6288 C   0  0  0  0  0  0  0  0  0  0  0  0
    4.8493    0.0724   -1.3993 C   0  0  0  0  0  0  0  0  0  0  0  0
    5.7732    0.3916   -2.3549 O   0  0  0  0  0  0  0  0  0  0  0  0
    5.2537   -0.5736   -0.2320 C   0  0  0  0  0  0  0  0  0  0  0  0
    6.5960   -0.8409   -0.1435 O   0  0  0  0  0  0  0  0  0  0  0  0
    4.2889   -0.8907    0.7270 C   0  0  0  0  0  0  0  0  0  0  0  0
    4.6583   -1.5760    1.9661 N   0  0  0  0  0  4  0  0  0  0  0  0
    3.7555   -1.8819    2.7558 O   0  0  0  0  0  0  0  0  0  0  0  0
    5.8641   -1.8141    2.1454 O   0  0  0  0  0  1  0  0  0  0  0  0
    2.9387   -0.5580    0.5088 C   0  0  0  0  0  0  0  0  0  0  0  0
    0.1068    0.2120   -0.0776 N   0  0  0  0  0  0  0  0  0  0  0  0
   -3.2725   -2.0671   -1.7871 H   0  0  0  0  0  0  0  0  0  0  0  0
   -2.3608   -2.4324   -0.2909 H   0  0  0  0  0  0  0  0  0  0  0  0
   -1.6271   -1.5180   -1.6150 H   0  0  0  0  0  0  0  0  0  0  0  0
   -6.5742    1.8101    1.6767 H   0  0  0  0  0  0  0  0  0  0  0  0
   -6.3737    0.1246    2.1503 H   0  0  0  0  0  0  0  0  0  0  0  0
   -7.0259    0.5502    0.5440 H   0  0  0  0  0  0  0  0  0  0  0  0
    3.2614    0.9129   -2.5576 H   0  0  0  0  0  0  0  0  0  0  0  0
    6.6306    0.0747   -2.0035 H   0  0  0  0  0  0  0  0  0  0  0  0
    6.7891   -1.2792    0.7150 H   0  0  0  0  0  0  0  0  0  0  0  0
    2.1825   -0.8016    1.2569 H   0  0  0  0  0  0  0  0  0  0  0  0
  1  2  1  0
  2  3  2  0
  3  4  1  0
  3  5  1  0
  5  6  1  0
  5  7  2  0
  7  8  1  0
  7  9  1  0
  9 10  1  0
  9 11  2  0
 11 12  1  0
 12 13  2  0
 13 14  1  0
 14 15  1  0
 15 16  1  0
 16 17  2  0
 17 18  1  0
 18 19  1  0
 18 20  2  0
 20 21  1  0
 20 22  1  0
 22 23  1  0
 23 24  2  0
 23 25  1  0
 22 26  2  0
 15 27  2  0
 11  2  1  0
 27 12  1  0
 26 16  1  0
  1 28  1  0
  1 29  1  0
  1 30  1  0
  6 31  1  0
  6 32  1  0
  6 33  1  0
 17 34  1  0
 19 35  1  0
 21 36  1  0
 26 37  1  0
M  CHG  4   7   1   8  -1  23   1  25  -1
M  END
$$$$
