
     RDKit          3D

 43 46  0  0  0  0  0  0  0  0999 V2000
    5.5337    1.2835    1.7027 O   0  0  0  0  0  0  0  0  0  0  0  0
    4.8138    2.4897    1.4518 C   0  0  0  0  0  0  0  0  0  0  0  0
    4.1571    2.4700    0.0751 C   0  0  0  0  0  0  0  0  0  0  0  0
    3.0138    1.5721    0.0337 N   0  0  0  0  0  0  0  0  0  0  0  0
    1.7447    1.8816   -0.3455 C   0  0  0  0  0  0  0  0  0  0  0  0
    1.0133    0.7194   -0.2152 C   0  0  0  0  0  0  0  0  0  0  0  0
   -0.4140    0.6524   -0.4716 C   0  0  0  0  0  0  0  0  0  0  0  0
   -0.9355    1.1118   -1.7005 C   0  0  0  0  0  0  0  0  0  0  0  0
   -2.3055    1.0447   -1.9655 C   0  0  0  0  0  0  0  0  0  0  0  0
   -3.1227    0.5161   -0.9833 C   0  0  0  0  0  0  0  0  0  0  0  0
   -2.6360    0.0600    0.2352 C   0  0  0  0  0  0  0  0  0  0  0  0
   -1.2765    0.1254    0.5052 C   0  0  0  0  0  0  0  0  0  0  0  0
   -3.7167   -0.4639    1.1268 C   0  0  0  0  0  0  0  0  0  0  0  0
   -5.0057   -0.2879    0.3087 C   0  0  0  0  0  0  0  0  0  0  0  0
   -4.5640    0.3294   -0.9971 C   0  0  0  0  0  0  0  0  0  0  0  0
   -5.3135    0.6574   -2.0008 N   0  0  0  0  0  0  0  0  0  0  0  0
   -6.6534    0.3612   -1.7278 O   0  0  0  0  0  0  0  0  0  0  0  0
    1.9492   -0.2600    0.2484 C   0  0  0  0  0  0  0  0  0  0  0  0
    1.7352   -1.6782    0.5386 C   0  0  0  0  0  0  0  0  0  0  0  0
    2.3670   -2.2719    1.6340 C   0  0  0  0  0  0  0  0  0  0  0  0
    2.1352   -3.6135    1.8835 C   0  0  0  0  0  0  0  0  0  0  0  0
    1.3308   -4.3892    1.1265 N   0  0  0  0  0  0  0  0  0  0  0  0
    0.7454   -3.8000    0.0629 C   0  0  0  0  0  0  0  0  0  0  0  0
    0.9152   -2.4666   -0.2707 C   0  0  0  0  0  0  0  0  0  0  0  0
    3.1659    0.2899    0.4143 N   0  0  0  0  0  0  0  0  0  0  0  0
    4.9221    0.5495    1.4701 H   0  0  0  0  0  0  0  0  0  0  0  0
    4.0773    2.6246    2.2510 H   0  0  0  0  0  0  0  0  0  0  0  0
    5.5339    3.3117    1.5080 H   0  0  0  0  0  0  0  0  0  0  0  0
    4.8528    2.1199   -0.6952 H   0  0  0  0  0  0  0  0  0  0  0  0
    3.8007    3.4710   -0.1891 H   0  0  0  0  0  0  0  0  0  0  0  0
    1.4649    2.8800   -0.6528 H   0  0  0  0  0  0  0  0  0  0  0  0
   -0.2710    1.5150   -2.4621 H   0  0  0  0  0  0  0  0  0  0  0  0
   -2.7168    1.3915   -2.9077 H   0  0  0  0  0  0  0  0  0  0  0  0
   -0.8929   -0.2238    1.4605 H   0  0  0  0  0  0  0  0  0  0  0  0
   -3.7670    0.1097    2.0581 H   0  0  0  0  0  0  0  0  0  0  0  0
   -3.5492   -1.5194    1.3647 H   0  0  0  0  0  0  0  0  0  0  0  0
   -5.7107    0.3753    0.8199 H   0  0  0  0  0  0  0  0  0  0  0  0
   -5.4913   -1.2516    0.1247 H   0  0  0  0  0  0  0  0  0  0  0  0
   -7.1009    0.6488   -2.5452 H   0  0  0  0  0  0  0  0  0  0  0  0
    3.0260   -1.7030    2.2814 H   0  0  0  0  0  0  0  0  0  0  0  0
    2.6053   -4.1145    2.7249 H   0  0  0  0  0  0  0  0  0  0  0  0
    0.1164   -4.4505   -0.5382 H   0  0  0  0  0  0  0  0  0  0  0  0
    0.4234   -2.0674   -1.1505 H   0  0  0  0  0  0  0  0  0  0  0  0
  1  2  1  0
  2  3  1  0
  3  4  1  0
  4  5  1  0
  5  6  2  0
  6  7  1  0
  7  8  2  0
  8  9  1  0
  9 10  2  0
 10 11  1  0
 11 12  2  0
 11 13  1  0
 13 14  1  0
 14 15  1  0
 15 16  2  0
 16 17  1  0
  6 18  1  0
 18 19  1  0
 19 20  2  0
 20 21  1  0
 21 22  2  0
 22 23  1  0
 23 24  2  0
 18 25  2  0
 25  4  1  0
 12  7  1  0
 24 19  1  0
 15 10  1  0
  1 26  1  0
  2 27  1  0
  2 28  1  0
  3 29  1  0
  3 30  1  0
  5 31  1  0
  8 32  1  0
  9 33  1  0
 12 34  1  0
 13 35  1  0
 13 36  1  0
 14 37  1  0
 14 38  1  0
 17 39  1  0
 20 40  1  0
 21 41  1  0
 23 42  1  0
 24 43  1  0
M  END
$$$$
