
     RDKit          3D

 44 45  0  0  0  0  0  0  0  0999 V2000
    4.4099   -1.5499    0.8770 C   0  0  0  0  0  0  0  0  0  0  0  0
    4.2873   -0.1661    1.2141 N   0  0  0  0  0  0  0  0  0  0  0  0
    3.3899    0.5159    0.3047 C   0  0  0  0  0  0  0  0  0  0  0  0
    1.9754   -0.0078    0.5398 C   0  0  0  0  0  0  0  0  0  0  0  0
    1.0812    0.7501   -0.4371 C   0  0  0  0  0  0  0  0  0  0  0  0
   -0.2852    0.4227   -0.4158 N   0  0  0  0  0  0  0  0  0  0  0  0
   -1.2634    1.4889   -0.5788 C   0  0  0  0  0  0  0  0  0  0  0  0
   -0.6833    2.5637   -1.2002 C   0  0  0  0  0  0  0  0  0  0  0  0
   -1.4500    3.6754   -1.4248 C   0  0  0  0  0  0  0  0  0  0  0  0
   -2.7705    3.6884   -1.0268 C   0  0  0  0  0  0  0  0  0  0  0  0
   -3.3210    2.5887   -0.4054 C   0  0  0  0  0  0  0  0  0  0  0  0
   -2.5794    1.4227   -0.1511 C   0  0  0  0  0  0  0  0  0  0  0  0
   -3.3933    0.3770    0.4964 C   0  0  0  0  0  0  0  0  0  0  0  0
   -2.6846   -0.6838    1.2424 C   0  0  0  0  0  0  0  0  0  0  0  0
   -1.6762   -1.4555    0.4616 C   0  0  0  0  0  0  0  0  0  0  0  0
   -1.8411   -2.8242    0.4783 C   0  0  0  0  0  0  0  0  0  0  0  0
   -0.9759   -3.6747   -0.2063 C   0  0  0  0  0  0  0  0  0  0  0  0
    0.0735   -3.1101   -0.9180 C   0  0  0  0  0  0  0  0  0  0  0  0
    0.2664   -1.7525   -0.9555 C   0  0  0  0  0  0  0  0  0  0  0  0
   -0.6187   -0.9706   -0.2616 C   0  0  0  0  0  0  0  0  0  0  0  0
    0.6843    0.0000    0.0000 Cl  0  0  0  0  0  0  0  0  0  0  0  0
    5.4142   -1.9155    1.1973 H   0  0  0  0  0  0  0  0  0  0  0  0
    4.3310   -1.7364   -0.2100 H   0  0  0  0  0  0  0  0  0  0  0  0
    3.6751   -2.1403    1.4606 H   0  0  0  0  0  0  0  0  0  0  0  0
    5.2246    0.2934    1.2580 H   0  0  0  0  0  0  0  0  0  0  0  0
    3.6962    0.4003   -0.7535 H   0  0  0  0  0  0  0  0  0  0  0  0
    3.3785    1.5831    0.6130 H   0  0  0  0  0  0  0  0  0  0  0  0
    1.8852   -1.0560    0.6122 H   0  0  0  0  0  0  0  0  0  0  0  0
    1.7634    0.3469    1.6095 H   0  0  0  0  0  0  0  0  0  0  0  0
    1.1792    1.7641    0.0305 H   0  0  0  0  0  0  0  0  0  0  0  0
    1.5583    0.8581   -1.4257 H   0  0  0  0  0  0  0  0  0  0  0  0
    0.3644    2.4893   -1.5084 H   0  0  0  0  0  0  0  0  0  0  0  0
   -0.9823    4.5220   -1.9156 H   0  0  0  0  0  0  0  0  0  0  0  0
   -3.3886    4.5842   -1.2057 H   0  0  0  0  0  0  0  0  0  0  0  0
   -4.3406    2.6243   -0.1082 H   0  0  0  0  0  0  0  0  0  0  0  0
   -4.0908    0.8696    1.2196 H   0  0  0  0  0  0  0  0  0  0  0  0
   -4.0346   -0.1403   -0.2762 H   0  0  0  0  0  0  0  0  0  0  0  0
   -2.1526   -0.2749    2.1397 H   0  0  0  0  0  0  0  0  0  0  0  0
   -3.4363   -1.3853    1.6485 H   0  0  0  0  0  0  0  0  0  0  0  0
   -2.6677   -3.2412    1.0386 H   0  0  0  0  0  0  0  0  0  0  0  0
   -1.1322   -4.7498   -0.1753 H   0  0  0  0  0  0  0  0  0  0  0  0
    0.7549   -3.7584   -1.4558 H   0  0  0  0  0  0  0  0  0  0  0  0
    1.0598   -1.2354   -1.4917 H   0  0  0  0  0  0  0  0  0  0  0  0
   -0.6843    0.0000    0.0000 H   0  0  0  0  0  0  0  0  0  0  0  0
  1  2  1  0
  2  3  1  0
  3  4  1  0
  4  5  1  0
  5  6  1  0
  6  7  1  0
  7  8  2  0
  8  9  1  0
  9 10  2  0
 10 11  1  0
 11 12  2  0
 12 13  1  0
 13 14  1  0
 14 15  1  0
 15 16  2  0
 16 17  1  0
 17 18  2  0
 18 19  1  0
 19 20  2  0
 20  6  1  0
 12  7  1  0
 20 15  1  0
  1 22  1  0
  1 23  1  0
  1 24  1  0
  2 25  1  0
  3 26  1  0
  3 27  1  0
  4 28  1  0
  4 29  1  0
  5 30  1  0
  5 31  1  0
  8 32  1  0
  9 33  1  0
 10 34  1  0
 11 35  1  0
 13 36  1  0
 13 37  1  0
 14 38  1  0
 14 39  1  0
 16 40  1  0
 17 41  1  0
 18 42  1  0
 19 43  1  0
 21 44  1  0
M  END
$$$$
