
     RDKit          3D

 43 44  0  0  0  0  0  0  0  0999 V2000
   -3.3928    2.1711    1.2334 C   0  0  0  0  0  0  0  0  0  0  0  0
   -3.1175    0.7817    1.7911 C   0  0  0  0  0  0  0  0  0  0  0  0
   -1.6961    0.2785    1.4856 C   0  0  0  0  0  0  0  0  0  0  0  0
   -1.3176    0.2032    0.0570 N   0  0  0  0  0  0  0  0  0  0  0  0
   -2.2648   -0.6055   -0.7358 C   0  0  0  0  0  0  0  0  0  0  0  0
   -2.3031   -2.1067   -0.4180 C   0  0  0  0  0  0  0  0  0  0  0  0
   -3.3113   -2.8285   -1.3014 C   0  0  0  0  0  0  0  0  0  0  0  0
    0.1199   -0.1835   -0.1197 C   0  0  0  0  0  0  0  0  0  0  0  0
    0.5397   -0.2936   -1.6015 C   0  0  0  0  0  0  0  0  0  0  0  0
    1.9699   -0.8130   -1.7334 C   0  0  0  0  0  0  0  0  0  0  0  0
    2.9596   -0.0572   -0.8934 C   0  0  0  0  0  0  0  0  0  0  0  0
    4.3272   -0.1532   -1.1961 C   0  0  0  0  0  0  0  0  0  0  0  0
    5.2754    0.5184   -0.4259 C   0  0  0  0  0  0  0  0  0  0  0  0
    4.8681    1.2897    0.6586 C   0  0  0  0  0  0  0  0  0  0  0  0
    3.5119    1.3767    0.9687 C   0  0  0  0  0  0  0  0  0  0  0  0
    3.1037    2.1373    2.0298 O   0  0  0  0  0  0  0  0  0  0  0  0
    2.5437    0.6983    0.2136 C   0  0  0  0  0  0  0  0  0  0  0  0
    1.0789    0.8317    0.5673 C   0  0  0  0  0  0  0  0  0  0  0  0
   -2.6644    2.8957    1.6114 H   0  0  0  0  0  0  0  0  0  0  0  0
   -4.3902    2.5062    1.5354 H   0  0  0  0  0  0  0  0  0  0  0  0
   -3.3531    2.1825    0.1402 H   0  0  0  0  0  0  0  0  0  0  0  0
   -3.8733    0.0763    1.4302 H   0  0  0  0  0  0  0  0  0  0  0  0
   -3.2385    0.8182    2.8811 H   0  0  0  0  0  0  0  0  0  0  0  0
   -1.5562   -0.6963    1.9686 H   0  0  0  0  0  0  0  0  0  0  0  0
   -1.0326    0.9776    2.0046 H   0  0  0  0  0  0  0  0  0  0  0  0
   -2.0640   -0.4594   -1.8033 H   0  0  0  0  0  0  0  0  0  0  0  0
   -3.2757   -0.1952   -0.6310 H   0  0  0  0  0  0  0  0  0  0  0  0
   -2.5789   -2.2713    0.6291 H   0  0  0  0  0  0  0  0  0  0  0  0
   -1.3192   -2.5619   -0.5728 H   0  0  0  0  0  0  0  0  0  0  0  0
   -3.3282   -3.8964   -1.0621 H   0  0  0  0  0  0  0  0  0  0  0  0
   -4.3201   -2.4308   -1.1513 H   0  0  0  0  0  0  0  0  0  0  0  0
   -3.0525   -2.7217   -2.3597 H   0  0  0  0  0  0  0  0  0  0  0  0
    0.2804   -1.1645    0.3493 H   0  0  0  0  0  0  0  0  0  0  0  0
   -0.0940   -0.9908   -2.1577 H   0  0  0  0  0  0  0  0  0  0  0  0
    0.4484    0.6866   -2.0880 H   0  0  0  0  0  0  0  0  0  0  0  0
    2.0031   -1.8687   -1.4360 H   0  0  0  0  0  0  0  0  0  0  0  0
    2.2621   -0.7595   -2.7893 H   0  0  0  0  0  0  0  0  0  0  0  0
    4.6588   -0.7532   -2.0411 H   0  0  0  0  0  0  0  0  0  0  0  0
    6.3304    0.4402   -0.6744 H   0  0  0  0  0  0  0  0  0  0  0  0
    5.6155    1.8114    1.2474 H   0  0  0  0  0  0  0  0  0  0  0  0
    3.8813    2.5644    2.4234 H   0  0  0  0  0  0  0  0  0  0  0  0
    0.9961    0.7110    1.6537 H   0  0  0  0  0  0  0  0  0  0  0  0
    0.7696    1.8543    0.3125 H   0  0  0  0  0  0  0  0  0  0  0  0
  1  2  1  0
  2  3  1  0
  3  4  1  0
  4  5  1  0
  5  6  1  0
  6  7  1  0
  4  8  1  0
  8  9  1  0
  9 10  1  0
 10 11  1  0
 11 12  2  0
 12 13  1  0
 13 14  2  0
 14 15  1  0
 15 16  1  0
 15 17  2  0
 17 18  1  0
 18  8  1  0
 17 11  1  0
  1 19  1  0
  1 20  1  0
  1 21  1  0
  2 22  1  0
  2 23  1  0
  3 24  1  0
  3 25  1  0
  5 26  1  0
  5 27  1  0
  6 28  1  0
  6 29  1  0
  7 30  1  0
  7 31  1  0
  7 32  1  0
  8 33  1  0
  9 34  1  0
  9 35  1  0
 10 36  1  0
 10 37  1  0
 12 38  1  0
 13 39  1  0
 14 40  1  0
 16 41  1  0
 18 42  1  0
 18 43  1  0
M  END
$$$$
