
     RDKit          3D

 56 58  0  0  0  0  0  0  0  0999 V2000
    1.9941   -1.1877    2.1513 C   0  0  0  0  0  0  0  0  0  0  0  0
    2.3769   -0.8426    0.9447 C   0  0  0  0  0  0  0  0  0  0  0  0
    3.7652   -0.3782    0.7701 C   0  0  0  0  0  0  0  0  0  0  0  0
    4.7257   -0.8207    1.6534 C   0  0  0  0  0  0  0  0  0  0  0  0
    6.0296   -0.3814    1.4777 C   0  0  0  0  0  0  0  0  0  0  0  0
    6.3344    0.4617    0.4575 C   0  0  0  0  0  0  0  0  0  0  0  0
    5.3610    0.9213   -0.4539 C   0  0  0  0  0  0  0  0  0  0  0  0
    5.7302    1.7611   -1.4498 O   0  0  0  0  0  0  0  0  0  0  0  0
    4.0681    0.4864   -0.2812 C   0  0  0  0  0  0  0  0  0  0  0  0
    2.9984    0.8861   -1.1601 C   0  0  0  0  0  0  0  0  0  0  0  0
    3.1707    1.6650   -2.1337 O   0  0  0  0  0  0  0  0  0  0  0  0
    1.6283    0.3966   -0.9611 C   0  0  0  0  0  0  0  0  0  0  0  0
    0.5952    1.0733   -1.4145 C   0  0  0  0  0  0  0  0  0  0  0  0
    0.8582    2.2599   -2.0809 O   0  0  0  0  0  0  0  0  0  0  0  0
   -0.8119    0.6749   -1.2756 C   0  0  2  0  0  0  0  0  0  0  0  0
   -1.3518    0.8441   -2.5772 O   0  0  0  0  0  0  0  0  0  0  0  0
   -1.5058    1.6580   -0.4235 C   0  0  0  0  0  0  0  0  0  0  0  0
   -1.1718    2.8626   -0.5457 O   0  0  0  0  0  0  0  0  0  0  0  0
   -2.5360    1.3091    0.5309 C   0  0  0  0  0  0  0  0  0  0  0  0
   -3.1481    2.3600    1.3570 C   0  0  0  0  0  0  0  0  0  0  0  0
   -4.1512    1.9956    2.2814 N   0  0  0  0  0  0  0  0  0  0  0  0
   -2.7442    3.5333    1.1959 O   0  0  0  0  0  0  0  0  0  0  0  0
   -2.8998    0.0527    0.6343 C   0  0  0  0  0  0  0  0  0  0  0  0
   -3.8864   -0.2735    1.5500 O   0  0  0  0  0  0  0  0  0  0  0  0
   -2.3069   -1.0214   -0.1777 C   0  0  1  0  0  0  0  0  0  0  0  0
   -3.3352   -1.5294   -1.0460 N   0  0  0  0  0  0  0  0  0  0  0  0
   -3.8930   -0.6312   -1.9837 C   0  0  0  0  0  0  0  0  0  0  0  0
   -4.3700   -2.2279   -0.3097 C   0  0  0  0  0  0  0  0  0  0  0  0
   -0.9977   -0.7361   -0.8006 C   0  0  2  0  0  0  0  0  0  0  0  0
    0.0839   -1.0929    0.2306 C   0  0  1  0  0  0  0  0  0  0  0  0
   -0.1229   -2.4428    0.5096 O   0  0  0  0  0  0  0  0  0  0  0  0
    1.4672   -0.8813   -0.2495 C   0  0  2  0  0  0  0  0  0  0  0  0
    0.6917    0.0000    0.0000 Cl  0  0  0  0  0  0  0  0  0  0  0  0
    2.6800   -1.1276    2.9790 H   0  0  0  0  0  0  0  0  0  0  0  0
    0.9676   -1.5467    2.3262 H   0  0  0  0  0  0  0  0  0  0  0  0
    4.5130   -1.4985    2.4682 H   0  0  0  0  0  0  0  0  0  0  0  0
    6.8002   -0.7205    2.1662 H   0  0  0  0  0  0  0  0  0  0  0  0
    7.3568    0.8205    0.3014 H   0  0  0  0  0  0  0  0  0  0  0  0
    5.2199    2.1692   -2.1485 H   0  0  0  0  0  0  0  0  0  0  0  0
    1.3004    3.0512   -1.6353 H   0  0  0  0  0  0  0  0  0  0  0  0
   -1.1654    1.7735   -2.8588 H   0  0  0  0  0  0  0  0  0  0  0  0
   -3.8927    1.9105    3.2848 H   0  0  0  0  0  0  0  0  0  0  0  0
   -5.1456    1.8048    2.0142 H   0  0  0  0  0  0  0  0  0  0  0  0
   -3.7348   -0.3680    2.5431 H   0  0  0  0  0  0  0  0  0  0  0  0
   -2.1547   -1.8697    0.5720 H   0  0  0  0  0  0  0  0  0  0  0  0
   -3.9046    0.4267   -1.6737 H   0  0  0  0  0  0  0  0  0  0  0  0
   -3.5093   -0.7786   -3.0343 H   0  0  0  0  0  0  0  0  0  0  0  0
   -4.9890   -0.8941   -2.0940 H   0  0  0  0  0  0  0  0  0  0  0  0
   -4.0779   -2.4541    0.7341 H   0  0  0  0  0  0  0  0  0  0  0  0
   -5.3538   -1.7264   -0.3896 H   0  0  0  0  0  0  0  0  0  0  0  0
   -4.4681   -3.2335   -0.8137 H   0  0  0  0  0  0  0  0  0  0  0  0
   -0.8341   -1.4094   -1.6583 H   0  0  0  0  0  0  0  0  0  0  0  0
   -0.1045   -0.4248    1.1041 H   0  0  0  0  0  0  0  0  0  0  0  0
    0.7028   -2.9783    0.3187 H   0  0  0  0  0  0  0  0  0  0  0  0
    1.8393   -1.6806   -0.9258 H   0  0  0  0  0  0  0  0  0  0  0  0
   -0.6917    0.0000    0.0000 H   0  0  0  0  0  0  0  0  0  0  0  0
  1  2  2  3
  2  3  1  0
  3  4  2  0
  4  5  1  0
  5  6  2  0
  6  7  1  0
  7  8  1  0
  7  9  2  0
  9 10  1  0
 10 11  2  0
 10 12  1  0
 12 13  2  0
 13 14  1  0
 13 15  1  0
 15 16  1  6
 15 17  1  0
 17 18  2  0
 17 19  1  0
 19 20  1  0
 20 21  1  0
 20 22  2  0
 19 23  2  0
 23 24  1  0
 23 25  1  0
 25 26  1  0
 26 27  1  0
 26 28  1  0
 25 29  1  0
 29 30  1  0
 30 31  1  0
 30 32  1  0
 32  2  1  0
  9  3  1  0
 32 12  1  0
 29 15  1  0
  1 34  1  0
  1 35  1  0
  4 36  1  0
  5 37  1  0
  6 38  1  0
  8 39  1  0
 14 40  1  0
 16 41  1  0
 21 42  1  0
 21 43  1  0
 24 44  1  0
 25 45  1  1
 27 46  1  0
 27 47  1  0
 27 48  1  0
 28 49  1  0
 28 50  1  0
 28 51  1  0
 29 52  1  6
 30 53  1  1
 31 54  1  0
 32 55  1  6
 33 56  1  0
M  END
$$$$
