
     RDKit          3D

 57 60  0  0  0  0  0  0  0  0999 V2000
   -3.7956    1.0905    3.2861 C   0  0  0  0  0  0  0  0  0  0  0  0
   -4.0350    0.2912    2.0428 C   0  0  0  0  0  0  0  0  0  0  0  0
   -5.0795   -0.2810    1.7763 O   0  0  0  0  0  0  0  0  0  0  0  0
   -2.9279    0.3157    1.2538 O   0  0  0  0  0  0  0  0  0  0  0  0
   -2.9333   -0.4501    0.0240 C   0  0  2  0  0  0  0  0  0  0  0  0
   -4.0999   -0.0755   -0.9301 C   0  0  0  0  0  0  0  0  0  0  0  0
   -4.5476    1.3653   -0.9685 C   0  0  0  0  0  0  0  0  0  0  0  0
   -4.6348   -0.9009   -1.6748 O   0  0  0  0  0  0  0  0  0  0  0  0
   -2.9005   -1.9724    0.3765 C   0  0  0  0  0  0  0  0  0  0  0  0
   -1.4205   -2.4041    0.3970 C   0  0  0  0  0  0  0  0  0  0  0  0
   -0.6404   -1.1013    0.2723 C   0  0  1  0  0  0  0  0  0  0  0  0
    0.8258   -1.1548   -0.1824 C   0  0  2  0  0  0  0  0  0  0  0  0
    1.6818   -2.0639    0.6544 C   0  0  0  0  0  0  0  0  0  0  0  0
    2.9434   -1.7838    1.0193 C   0  0  0  0  0  0  0  0  0  0  0  0
    3.7774   -2.9903    1.9561 Cl  0  0  0  0  0  0  0  0  0  0  0  0
    3.6389   -0.5547    0.6166 C   0  0  0  0  0  0  0  0  0  0  0  0
    4.8194   -0.1958    1.1592 C   0  0  0  0  0  0  0  0  0  0  0  0
    5.5469    1.0303    0.7592 C   0  0  0  0  0  0  0  0  0  0  0  0
    6.6368    1.2766    1.2708 O   0  0  0  0  0  0  0  0  0  0  0  0
    4.9533    1.9095   -0.3062 C   0  0  0  0  0  0  0  0  0  0  0  0
    3.4371    1.7883   -0.3311 C   0  0  0  0  0  0  0  0  0  0  0  0
    2.9305    0.3224   -0.4410 C   0  0  1  0  0  0  0  0  0  0  0  0
    3.2695   -0.2208   -1.8495 C   0  0  0  0  0  0  0  0  0  0  0  0
    1.3855    0.2970   -0.1606 C   0  0  1  0  0  0  0  0  0  0  0  0
    0.5273    1.2337   -1.0438 C   0  0  0  0  0  0  0  0  0  0  0  0
   -0.9680    1.1902   -0.6690 C   0  0  0  0  0  0  0  0  0  0  0  0
   -1.5327   -0.2446   -0.6677 C   0  0  2  0  0  0  0  0  0  0  0  0
   -1.5561   -0.7712   -2.1319 C   0  0  0  0  0  0  0  0  0  0  0  0
   -2.9363    0.6859    3.8270 H   0  0  0  0  0  0  0  0  0  0  0  0
   -3.6283    2.1384    3.0254 H   0  0  0  0  0  0  0  0  0  0  0  0
   -4.6745    1.0252    3.9338 H   0  0  0  0  0  0  0  0  0  0  0  0
   -4.7845    1.6396   -2.0003 H   0  0  0  0  0  0  0  0  0  0  0  0
   -5.4347    1.4893   -0.3436 H   0  0  0  0  0  0  0  0  0  0  0  0
   -3.7590    2.0325   -0.6164 H   0  0  0  0  0  0  0  0  0  0  0  0
   -3.4376   -2.5876   -0.3532 H   0  0  0  0  0  0  0  0  0  0  0  0
   -3.3447   -2.1789    1.3557 H   0  0  0  0  0  0  0  0  0  0  0  0
   -1.2085   -3.0836   -0.4361 H   0  0  0  0  0  0  0  0  0  0  0  0
   -1.1814   -2.9365    1.3236 H   0  0  0  0  0  0  0  0  0  0  0  0
   -0.6395   -0.6477    1.2769 H   0  0  0  0  0  0  0  0  0  0  0  0
    0.8625   -1.5610   -1.1986 H   0  0  0  0  0  0  0  0  0  0  0  0
    1.2514   -3.0217    0.9391 H   0  0  0  0  0  0  0  0  0  0  0  0
    5.3344   -0.7759    1.9173 H   0  0  0  0  0  0  0  0  0  0  0  0
    5.3975    1.6405   -1.2694 H   0  0  0  0  0  0  0  0  0  0  0  0
    5.2239    2.9486   -0.0872 H   0  0  0  0  0  0  0  0  0  0  0  0
    3.0395    2.2429    0.5873 H   0  0  0  0  0  0  0  0  0  0  0  0
    3.0629    2.3914   -1.1669 H   0  0  0  0  0  0  0  0  0  0  0  0
    4.3512   -0.2506   -2.0222 H   0  0  0  0  0  0  0  0  0  0  0  0
    2.8335    0.4064   -2.6340 H   0  0  0  0  0  0  0  0  0  0  0  0
    2.9091   -1.2425   -2.0039 H   0  0  0  0  0  0  0  0  0  0  0  0
    1.2577    0.6747    0.8685 H   0  0  0  0  0  0  0  0  0  0  0  0
    0.8593    2.2713   -0.9304 H   0  0  0  0  0  0  0  0  0  0  0  0
    0.6531    0.9831   -2.1018 H   0  0  0  0  0  0  0  0  0  0  0  0
   -1.5276    1.8221   -1.3682 H   0  0  0  0  0  0  0  0  0  0  0  0
   -1.0798    1.6495    0.3207 H   0  0  0  0  0  0  0  0  0  0  0  0
   -2.1542   -0.1109   -2.7705 H   0  0  0  0  0  0  0  0  0  0  0  0
   -1.9836   -1.7752   -2.2126 H   0  0  0  0  0  0  0  0  0  0  0  0
   -0.5631   -0.8152   -2.5858 H   0  0  0  0  0  0  0  0  0  0  0  0
  1  2  1  0
  2  3  2  0
  2  4  1  0
  5  4  1  1
  5  6  1  0
  6  7  1  0
  6  8  2  0
  5  9  1  0
  9 10  1  0
 10 11  1  0
 11 12  1  0
 12 13  1  0
 13 14  2  0
 14 15  1  0
 14 16  1  0
 16 17  2  0
 17 18  1  0
 18 19  2  0
 18 20  1  0
 20 21  1  0
 21 22  1  0
 22 23  1  6
 22 24  1  0
 24 25  1  0
 25 26  1  0
 26 27  1  0
 27 28  1  6
 27  5  1  0
 27 11  1  0
 24 12  1  0
 22 16  1  0
  1 29  1  0
  1 30  1  0
  1 31  1  0
  7 32  1  0
  7 33  1  0
  7 34  1  0
  9 35  1  0
  9 36  1  0
 10 37  1  0
 10 38  1  0
 11 39  1  1
 12 40  1  6
 13 41  1  0
 17 42  1  0
 20 43  1  0
 20 44  1  0
 21 45  1  0
 21 46  1  0
 23 47  1  0
 23 48  1  0
 23 49  1  0
 24 50  1  1
 25 51  1  0
 25 52  1  0
 26 53  1  0
 26 54  1  0
 28 55  1  0
 28 56  1  0
 28 57  1  0
M  END
$$$$
