
     RDKit          3D

 37 38  0  0  0  0  0  0  0  0999 V2000
    0.6920    0.0000    0.0000 Cl  0  0  0  0  0  0  0  0  0  0  0  0
    1.2480   -2.0465   -0.8776 O   0  0  0  0  0  0  0  0  0  0  0  0
    1.4075   -0.8920   -0.3583 C   0  0  0  0  0  0  0  0  0  0  0  0
    0.2655   -0.1643    0.0520 N   0  0  0  0  0  0  0  0  0  0  0  0
   -1.0760   -0.7123   -0.1091 C   0  0  1  0  0  0  0  0  0  0  0  0
   -1.7506   -0.7995    1.2303 C   0  0  0  0  0  0  0  0  0  0  0  0
   -3.1251   -0.3355    1.0463 N   0  0  0  0  0  0  0  0  0  0  0  0
   -3.6702   -1.0431   -0.0765 C   0  0  0  0  0  0  0  0  0  0  0  0
   -3.2025   -0.3850   -1.3603 C   0  0  0  0  0  0  0  0  0  0  0  0
   -1.8401    0.2352   -1.0436 C   0  0  0  0  0  0  0  0  0  0  0  0
   -2.1527    1.5027   -0.2661 C   0  0  0  0  0  0  0  0  0  0  0  0
   -3.0807    1.0953    0.8643 C   0  0  0  0  0  0  0  0  0  0  0  0
    2.7319   -0.3230   -0.1859 C   0  0  0  0  0  0  0  0  0  0  0  0
    3.0113    0.8513    0.4355 C   0  0  0  0  0  0  0  0  0  0  0  0
    4.3127    1.3438    0.5654 C   0  0  0  0  0  0  0  0  0  0  0  0
    5.3692    0.6240    0.0491 C   0  0  0  0  0  0  0  0  0  0  0  0
    7.0039    1.2408    0.2113 Cl  0  0  0  0  0  0  0  0  0  0  0  0
    5.1131   -0.5769   -0.5896 C   0  0  0  0  0  0  0  0  0  0  0  0
    3.8213   -1.0366   -0.7024 C   0  0  0  0  0  0  0  0  0  0  0  0
   -0.6920    0.0000    0.0000 H   0  0  0  0  0  0  0  0  0  0  0  0
    0.4033    0.7757    0.4724 H   0  0  0  0  0  0  0  0  0  0  0  0
   -1.0173   -1.7098   -0.5698 H   0  0  0  0  0  0  0  0  0  0  0  0
   -1.2326   -0.1866    1.9955 H   0  0  0  0  0  0  0  0  0  0  0  0
   -1.8228   -1.8372    1.6152 H   0  0  0  0  0  0  0  0  0  0  0  0
   -3.2037   -2.0714   -0.0749 H   0  0  0  0  0  0  0  0  0  0  0  0
   -4.7538   -1.1882   -0.0317 H   0  0  0  0  0  0  0  0  0  0  0  0
   -3.9282    0.4360   -1.5715 H   0  0  0  0  0  0  0  0  0  0  0  0
   -3.1721   -1.0625   -2.2072 H   0  0  0  0  0  0  0  0  0  0  0  0
   -1.2418    0.4058   -1.9334 H   0  0  0  0  0  0  0  0  0  0  0  0
   -1.2693    2.0392    0.0690 H   0  0  0  0  0  0  0  0  0  0  0  0
   -2.6959    2.1715   -0.9921 H   0  0  0  0  0  0  0  0  0  0  0  0
   -4.0759    1.5288    0.6751 H   0  0  0  0  0  0  0  0  0  0  0  0
   -2.6591    1.5325    1.7881 H   0  0  0  0  0  0  0  0  0  0  0  0
    2.2173    1.4451    0.8545 H   0  0  0  0  0  0  0  0  0  0  0  0
    4.5255    2.2764    1.0599 H   0  0  0  0  0  0  0  0  0  0  0  0
    5.9375   -1.1479   -0.9976 H   0  0  0  0  0  0  0  0  0  0  0  0
    3.6022   -1.9858   -1.2055 H   0  0  0  0  0  0  0  0  0  0  0  0
  2  3  2  0
  3  4  1  0
  4  5  1  0
  5  6  1  0
  6  7  1  0
  7  8  1  0
  8  9  1  0
  9 10  1  0
 10 11  1  0
 11 12  1  0
  3 13  1  0
 13 14  2  0
 14 15  1  0
 15 16  2  0
 16 17  1  0
 16 18  1  0
 18 19  2  0
 10  5  1  0
 19 13  1  0
 12  7  1  0
  1 20  1  0
  4 21  1  0
  5 22  1  6
  6 23  1  0
  6 24  1  0
  8 25  1  0
  8 26  1  0
  9 27  1  0
  9 28  1  0
 10 29  1  0
 11 30  1  0
 11 31  1  0
 12 32  1  0
 12 33  1  0
 14 34  1  0
 15 35  1  0
 18 36  1  0
 19 37  1  0
M  END
$$$$
