
     RDKit          3D

 43 45  0  0  0  0  0  0  0  0999 V2000
   -1.4080   -1.8057    0.6703 C   0  0  0  0  0  0  0  0  0  0  0  0
   -0.6587   -0.7980   -0.0936 N   0  0  0  0  0  0  0  0  0  0  0  0
    0.7197   -0.6713    0.0710 C   0  0  0  0  0  0  0  0  0  0  0  0
    1.5310    0.1014   -0.6775 C   0  0  0  0  0  0  0  0  0  0  0  0
    2.8930    0.2524   -0.5480 O   0  0  0  0  0  0  0  0  0  0  0  0
    3.5684   -0.5344    0.4303 C   0  0  0  0  0  0  0  0  0  0  0  0
    5.0570   -0.2707    0.3942 C   0  0  0  0  0  0  0  0  0  0  0  0
    5.8254   -0.4610    1.5534 C   0  0  0  0  0  0  0  0  0  0  0  0
    7.2072   -0.2601    1.5324 C   0  0  0  0  0  0  0  0  0  0  0  0
    7.8388    0.1234    0.3514 C   0  0  0  0  0  0  0  0  0  0  0  0
    7.0906    0.3027   -0.8098 C   0  0  0  0  0  0  0  0  0  0  0  0
    5.7091    0.1014   -0.7906 C   0  0  0  0  0  0  0  0  0  0  0  0
    0.8718    0.8767   -1.7855 C   0  0  0  0  0  0  0  0  0  0  0  0
    1.5064    1.6038   -2.5447 O   0  0  0  0  0  0  0  0  0  0  0  0
   -0.5948    0.7616   -1.9430 C   0  0  0  0  0  0  0  0  0  0  0  0
   -1.2663   -0.0409   -1.1059 C   0  0  0  0  0  0  0  0  0  0  0  0
   -2.7578   -0.0279   -1.2984 C   0  0  0  0  0  0  0  0  0  0  0  0
   -3.2513   -0.3699   -2.3642 O   0  0  0  0  0  0  0  0  0  0  0  0
   -3.4051    0.4259   -0.1659 N   0  0  0  0  0  0  0  0  0  0  0  0
   -4.7925    0.5528    0.0384 C   0  0  0  0  0  0  0  0  0  0  0  0
   -5.2130    1.0770    1.2678 C   0  0  0  0  0  0  0  0  0  0  0  0
   -6.5731    1.2293    1.5502 C   0  0  0  0  0  0  0  0  0  0  0  0
   -7.5254    0.8574    0.6056 C   0  0  0  0  0  0  0  0  0  0  0  0
   -7.1165    0.3345   -0.6188 C   0  0  0  0  0  0  0  0  0  0  0  0
   -5.7552    0.1821   -0.9018 C   0  0  0  0  0  0  0  0  0  0  0  0
   -1.9236   -1.3340    1.5129 H   0  0  0  0  0  0  0  0  0  0  0  0
   -2.1434   -2.3189    0.0411 H   0  0  0  0  0  0  0  0  0  0  0  0
   -0.7436   -2.5784    1.0739 H   0  0  0  0  0  0  0  0  0  0  0  0
    1.1045   -1.2768    0.8843 H   0  0  0  0  0  0  0  0  0  0  0  0
    3.4077   -1.6014    0.2334 H   0  0  0  0  0  0  0  0  0  0  0  0
    3.1842   -0.2746    1.4243 H   0  0  0  0  0  0  0  0  0  0  0  0
    5.3525   -0.7655    2.4842 H   0  0  0  0  0  0  0  0  0  0  0  0
    7.7916   -0.4036    2.4374 H   0  0  0  0  0  0  0  0  0  0  0  0
    8.9138    0.2816    0.3345 H   0  0  0  0  0  0  0  0  0  0  0  0
    7.5804    0.6004   -1.7334 H   0  0  0  0  0  0  0  0  0  0  0  0
    5.1423    0.2450   -1.7094 H   0  0  0  0  0  0  0  0  0  0  0  0
   -1.0580    1.3479   -2.7261 H   0  0  0  0  0  0  0  0  0  0  0  0
   -2.8080    0.7285    0.5940 H   0  0  0  0  0  0  0  0  0  0  0  0
   -4.4910    1.3782    2.0221 H   0  0  0  0  0  0  0  0  0  0  0  0
   -6.8881    1.6400    2.5060 H   0  0  0  0  0  0  0  0  0  0  0  0
   -8.5843    0.9758    0.8204 H   0  0  0  0  0  0  0  0  0  0  0  0
   -7.8558    0.0436   -1.3611 H   0  0  0  0  0  0  0  0  0  0  0  0
   -5.4819   -0.2301   -1.8682 H   0  0  0  0  0  0  0  0  0  0  0  0
  1  2  1  0
  2  3  1  0
  3  4  2  0
  4  5  1  0
  5  6  1  0
  6  7  1  0
  7  8  2  0
  8  9  1  0
  9 10  2  0
 10 11  1  0
 11 12  2  0
  4 13  1  0
 13 14  2  0
 13 15  1  0
 15 16  2  0
 16 17  1  0
 17 18  2  0
 17 19  1  0
 19 20  1  0
 20 21  2  0
 21 22  1  0
 22 23  2  0
 23 24  1  0
 24 25  2  0
 16  2  1  0
 25 20  1  0
 12  7  1  0
  1 26  1  0
  1 27  1  0
  1 28  1  0
  3 29  1  0
  6 30  1  0
  6 31  1  0
  8 32  1  0
  9 33  1  0
 10 34  1  0
 11 35  1  0
 12 36  1  0
 15 37  1  0
 19 38  1  0
 21 39  1  0
 22 40  1  0
 23 41  1  0
 24 42  1  0
 25 43  1  0
M  END
$$$$
