
     RDKit          3D

 31 31  0  0  0  0  0  0  0  0999 V2000
    2.1058    1.5529   -2.5311 O   0  0  0  0  0  0  0  0  0  0  0  0
    0.9478    0.7779   -2.8232 C   0  0  0  0  0  0  0  0  0  0  0  0
    0.7947   -0.3721   -1.8112 C   0  0  0  0  0  0  0  0  0  0  0  0
    0.8761    0.0513   -0.3958 N   0  0  0  0  0  0  0  0  0  0  0  0
    1.0938   -1.0924    0.5014 C   0  0  0  0  0  0  0  0  0  0  0  0
   -0.1332   -2.0019    0.7217 C   0  0  2  0  0  0  0  0  0  0  0  0
   -0.2052   -3.0559   -0.2465 O   0  0  0  0  0  0  0  0  0  0  0  0
   -1.4490   -1.2130    0.6724 C   0  0  1  0  0  0  0  0  0  0  0  0
   -2.4123   -1.7960    1.5672 O   0  0  0  0  0  0  0  0  0  0  0  0
   -1.2162    0.2459    1.0637 C   0  0  2  0  0  0  0  0  0  0  0  0
   -2.4748    0.9298    1.0952 O   0  0  0  0  0  0  0  0  0  0  0  0
   -0.2678    0.9075    0.0316 C   0  0  1  0  0  0  0  0  0  0  0  0
    0.2696    2.2357    0.6154 C   0  0  0  0  0  0  0  0  0  0  0  0
    1.0706    2.9274   -0.3468 O   0  0  0  0  0  0  0  0  0  0  0  0
    1.9357    1.9090   -1.6286 H   0  0  0  0  0  0  0  0  0  0  0  0
    0.0779    1.4413   -2.8293 H   0  0  0  0  0  0  0  0  0  0  0  0
    1.0609    0.3702   -3.8326 H   0  0  0  0  0  0  0  0  0  0  0  0
   -0.1341   -0.9157   -2.0173 H   0  0  0  0  0  0  0  0  0  0  0  0
    1.6254   -1.0628   -2.0056 H   0  0  0  0  0  0  0  0  0  0  0  0
    1.9510   -1.6835    0.1560 H   0  0  0  0  0  0  0  0  0  0  0  0
    1.3986   -0.6847    1.4746 H   0  0  0  0  0  0  0  0  0  0  0  0
   -0.0305   -2.4963    1.6953 H   0  0  0  0  0  0  0  0  0  0  0  0
    0.6602   -3.5018   -0.2626 H   0  0  0  0  0  0  0  0  0  0  0  0
   -1.9085   -1.2622   -0.3228 H   0  0  0  0  0  0  0  0  0  0  0  0
   -2.5328   -2.7142    1.2559 H   0  0  0  0  0  0  0  0  0  0  0  0
   -0.8073    0.3006    2.0805 H   0  0  0  0  0  0  0  0  0  0  0  0
   -3.0908    0.3040    1.5293 H   0  0  0  0  0  0  0  0  0  0  0  0
   -0.8693    1.1832   -0.8440 H   0  0  0  0  0  0  0  0  0  0  0  0
   -0.5594    2.8943    0.8955 H   0  0  0  0  0  0  0  0  0  0  0  0
    0.8858    2.0538    1.5029 H   0  0  0  0  0  0  0  0  0  0  0  0
    1.3374    3.7678    0.0654 H   0  0  0  0  0  0  0  0  0  0  0  0
  1  2  1  0
  2  3  1  0
  3  4  1  0
  4  5  1  0
  5  6  1  0
  6  7  1  0
  6  8  1  0
  8  9  1  0
  8 10  1  0
 10 11  1  0
 10 12  1  0
 12 13  1  0
 13 14  1  0
 12  4  1  0
  1 15  1  0
  2 16  1  0
  2 17  1  0
  3 18  1  0
  3 19  1  0
  5 20  1  0
  5 21  1  0
  6 22  1  1
  7 23  1  0
  8 24  1  6
  9 25  1  0
 10 26  1  1
 11 27  1  0
 12 28  1  6
 13 29  1  0
 13 30  1  0
 14 31  1  0
M  END
$$$$
