
     RDKit          3D

 55 55  0  0  0  0  0  0  0  0999 V2000
    6.7181    0.5997    2.8693 C   0  0  0  0  0  0  0  0  0  0  0  0
    5.6947    0.9887    1.8342 C   0  0  0  0  0  0  0  0  0  0  0  0
    5.9589    2.3126    1.1713 C   0  0  0  0  0  0  0  0  0  0  0  0
    4.6564    0.1763    1.5559 C   0  0  0  0  0  0  0  0  0  0  0  0
    3.5319    0.4191    0.5829 C   0  0  0  0  0  0  0  0  0  0  0  0
    3.7221   -0.3952   -0.7049 C   0  0  0  0  0  0  0  0  0  0  0  0
    2.6479   -0.2837   -1.7808 C   0  0  0  0  0  0  0  0  0  0  0  0
    2.9565   -1.1233   -2.9969 C   0  0  0  0  0  0  0  0  0  0  0  0
    1.5339    0.4669   -1.6563 C   0  0  0  0  0  0  0  0  0  0  0  0
    0.4304    0.6543   -2.6664 C   0  0  0  0  0  0  0  0  0  0  0  0
   -0.7686   -0.2728   -2.4226 C   0  0  0  0  0  0  0  0  0  0  0  0
   -1.5002   -0.0304   -1.1113 C   0  0  0  0  0  0  0  0  0  0  0  0
   -2.3045    1.2407   -1.0531 C   0  0  0  0  0  0  0  0  0  0  0  0
   -1.4277   -0.9423   -0.1190 C   0  0  0  0  0  0  0  0  0  0  0  0
   -2.0595   -0.8940    1.2412 C   0  0  0  0  0  0  0  0  0  0  0  0
   -3.2948   -2.2257    1.3997 S   0  0  0  0  0  0  0  0  0  0  0  0
   -4.7080   -1.4073    0.6647 C   0  0  0  0  0  0  0  0  0  0  0  0
   -4.8656   -1.5152   -0.7266 C   0  0  0  0  0  0  0  0  0  0  0  0
   -5.9726   -0.9569   -1.3713 C   0  0  0  0  0  0  0  0  0  0  0  0
   -6.9514   -0.2985   -0.6325 C   0  0  0  0  0  0  0  0  0  0  0  0
   -6.8203   -0.1941    0.7515 C   0  0  0  0  0  0  0  0  0  0  0  0
   -5.6981   -0.7350    1.3999 C   0  0  0  0  0  0  0  0  0  0  0  0
   -5.6611   -0.5801    2.8653 C   0  0  0  0  0  0  0  0  0  0  0  0
   -6.5721   -0.8396    3.6294 O   0  0  0  0  0  0  0  0  0  0  0  0
   -4.5309    0.0149    3.2844 O   0  0  0  0  0  0  0  0  0  0  0  0
    7.7113    0.5293    2.4133 H   0  0  0  0  0  0  0  0  0  0  0  0
    6.7527    1.3495    3.6667 H   0  0  0  0  0  0  0  0  0  0  0  0
    6.4959   -0.3681    3.3323 H   0  0  0  0  0  0  0  0  0  0  0  0
    5.2920    2.5182    0.3310 H   0  0  0  0  0  0  0  0  0  0  0  0
    6.9811    2.3386    0.7779 H   0  0  0  0  0  0  0  0  0  0  0  0
    5.8488    3.1249    1.8968 H   0  0  0  0  0  0  0  0  0  0  0  0
    4.5803   -0.7705    2.0912 H   0  0  0  0  0  0  0  0  0  0  0  0
    3.4313    1.4840    0.3506 H   0  0  0  0  0  0  0  0  0  0  0  0
    2.5976    0.1247    1.0779 H   0  0  0  0  0  0  0  0  0  0  0  0
    4.6793   -0.1033   -1.1591 H   0  0  0  0  0  0  0  0  0  0  0  0
    3.8143   -1.4561   -0.4337 H   0  0  0  0  0  0  0  0  0  0  0  0
    3.1290   -2.1635   -2.7006 H   0  0  0  0  0  0  0  0  0  0  0  0
    2.1527   -1.1368   -3.7359 H   0  0  0  0  0  0  0  0  0  0  0  0
    3.8590   -0.7496   -3.4926 H   0  0  0  0  0  0  0  0  0  0  0  0
    1.3654    1.0279   -0.7389 H   0  0  0  0  0  0  0  0  0  0  0  0
    0.1137    1.7044   -2.6391 H   0  0  0  0  0  0  0  0  0  0  0  0
    0.8009    0.4985   -3.6852 H   0  0  0  0  0  0  0  0  0  0  0  0
   -0.4308   -1.3160   -2.4858 H   0  0  0  0  0  0  0  0  0  0  0  0
   -1.4850   -0.1495   -3.2453 H   0  0  0  0  0  0  0  0  0  0  0  0
   -2.9405    1.3127   -0.1681 H   0  0  0  0  0  0  0  0  0  0  0  0
   -2.9659    1.3076   -1.9238 H   0  0  0  0  0  0  0  0  0  0  0  0
   -1.6419    2.1119   -1.0547 H   0  0  0  0  0  0  0  0  0  0  0  0
   -0.8132   -1.8282   -0.2832 H   0  0  0  0  0  0  0  0  0  0  0  0
   -2.5007    0.0744    1.4848 H   0  0  0  0  0  0  0  0  0  0  0  0
   -1.2797   -1.0758    1.9887 H   0  0  0  0  0  0  0  0  0  0  0  0
   -4.1239   -2.0438   -1.3238 H   0  0  0  0  0  0  0  0  0  0  0  0
   -6.0735   -1.0485   -2.4504 H   0  0  0  0  0  0  0  0  0  0  0  0
   -7.8196    0.1252   -1.1315 H   0  0  0  0  0  0  0  0  0  0  0  0
   -7.5937    0.3098    1.3284 H   0  0  0  0  0  0  0  0  0  0  0  0
   -4.6522    0.0889    4.2533 H   0  0  0  0  0  0  0  0  0  0  0  0
  1  2  1  0
  2  3  1  0
  2  4  2  3
  4  5  1  0
  5  6  1  0
  6  7  1  0
  7  8  1  0
  7  9  2  0
  9 10  1  0
 10 11  1  0
 11 12  1  0
 12 13  1  0
 12 14  2  0
 14 15  1  0
 15 16  1  0
 16 17  1  0
 17 18  2  0
 18 19  1  0
 19 20  2  0
 20 21  1  0
 21 22  2  0
 22 23  1  0
 23 24  2  0
 23 25  1  0
 22 17  1  0
  1 26  1  0
  1 27  1  0
  1 28  1  0
  3 29  1  0
  3 30  1  0
  3 31  1  0
  4 32  1  0
  5 33  1  0
  5 34  1  0
  6 35  1  0
  6 36  1  0
  8 37  1  0
  8 38  1  0
  8 39  1  0
  9 40  1  0
 10 41  1  0
 10 42  1  0
 11 43  1  0
 11 44  1  0
 13 45  1  0
 13 46  1  0
 13 47  1  0
 14 48  1  0
 15 49  1  0
 15 50  1  0
 18 51  1  0
 19 52  1  0
 20 53  1  0
 21 54  1  0
 25 55  1  0
M  END
$$$$
