
     RDKit          3D

 80 83  0  0  0  0  0  0  0  0999 V2000
    1.1309   -4.3205   -1.5725 C   0  0  0  0  0  0  0  0  0  0  0  0
    2.2861   -3.5587   -0.9047 C   0  0  0  0  0  0  0  0  0  0  0  0
    3.0545   -4.4886    0.0408 C   0  0  0  0  0  0  0  0  0  0  0  0
    1.8287   -2.2913   -0.2988 N   0  0  0  0  0  0  0  0  0  0  0  0
    0.8093   -2.4403    0.7547 C   0  0  0  0  0  0  0  0  0  0  0  0
   -0.5253   -1.8312    0.3062 C   0  0  0  0  0  0  0  0  0  0  0  0
   -0.4791   -0.3119    0.1565 C   0  0  0  0  0  0  0  0  0  0  0  0
   -1.7122    0.2168   -0.3993 N   0  0  0  0  0  0  0  0  0  0  0  0
   -2.8575    0.3244    0.3661 C   0  0  0  0  0  0  0  0  0  0  0  0
   -2.8814    0.0515    1.5577 O   0  0  0  0  0  0  0  0  0  0  0  0
   -3.9079    0.7711   -0.4064 N   0  0  0  0  0  0  0  0  0  0  0  0
   -5.2625    0.8933   -0.0431 C   0  0  0  0  0  0  0  0  0  0  0  0
   -6.1340    1.4389   -0.9888 C   0  0  0  0  0  0  0  0  0  0  0  0
   -7.5013    1.5662   -0.7125 C   0  0  0  0  0  0  0  0  0  0  0  0
   -8.0442    1.1585    0.5201 C   0  0  0  0  0  0  0  0  0  0  0  0
   -9.5526    1.3021    0.7876 C   0  0  0  0  0  0  0  0  0  0  0  0
   -9.9724    0.9036    2.2194 C   0  0  0  0  0  0  0  0  0  0  0  0
  -10.3306    0.3971   -0.1925 C   0  0  0  0  0  0  0  0  0  0  0  0
   -9.9936    2.7689    0.5811 C   0  0  0  0  0  0  0  0  0  0  0  0
   -7.1537    0.6124    1.4575 C   0  0  0  0  0  0  0  0  0  0  0  0
   -5.7837    0.4797    1.1800 C   0  0  0  0  0  0  0  0  0  0  0  0
    2.9152   -1.3799    0.1171 C   0  0  0  0  0  0  0  0  0  0  0  0
    3.7677   -0.8049   -1.0385 C   0  0  1  0  0  0  0  0  0  0  0  0
    3.9212    0.6252   -0.8465 O   0  0  0  0  0  0  0  0  0  0  0  0
    5.2621    1.0069   -1.2369 C   0  0  1  0  0  0  0  0  0  0  0  0
    5.9747    1.5199   -0.0670 N   0  0  0  0  0  0  0  0  0  0  0  0
    5.6402    1.3487    1.2536 C   0  0  0  0  0  0  0  0  0  0  0  0
    6.6116    1.9680    2.0037 C   0  0  0  0  0  0  0  0  0  0  0  0
    6.6545    2.0375    3.8791 Br  0  0  0  0  0  0  0  0  0  0  0  0
    7.5674    2.5476    1.1355 C   0  0  0  0  0  0  0  0  0  0  0  0
    8.7511    3.2941    1.2392 C   0  0  0  0  0  0  0  0  0  0  0  0
    9.3291    3.6710    2.4385 N   0  0  0  0  0  0  0  0  0  0  0  0
    9.3810    3.6785    0.1120 N   0  0  0  0  0  0  0  0  0  0  0  0
    8.8469    3.3300   -1.0737 C   0  0  0  0  0  0  0  0  0  0  0  0
    7.7316    2.6178   -1.3002 N   0  0  0  0  0  0  0  0  0  0  0  0
    7.1339    2.2556   -0.1520 C   0  0  0  0  0  0  0  0  0  0  0  0
    5.9308   -0.2322   -1.8346 C   0  0  2  0  0  0  0  0  0  0  0  0
    5.7545   -0.3141   -3.2601 O   0  0  0  0  0  0  0  0  0  0  0  0
    5.1874   -1.3677   -1.1441 C   0  0  2  0  0  0  0  0  0  0  0  0
    5.2591   -2.5763   -1.8859 O   0  0  0  0  0  0  0  0  0  0  0  0
    0.4213   -4.7268   -0.8464 H   0  0  0  0  0  0  0  0  0  0  0  0
    0.5862   -3.6663   -2.2619 H   0  0  0  0  0  0  0  0  0  0  0  0
    1.5189   -5.1621   -2.1562 H   0  0  0  0  0  0  0  0  0  0  0  0
    2.9510   -3.3072   -1.7345 H   0  0  0  0  0  0  0  0  0  0  0  0
    3.9581   -4.0135    0.4394 H   0  0  0  0  0  0  0  0  0  0  0  0
    3.3778   -5.3899   -0.4947 H   0  0  0  0  0  0  0  0  0  0  0  0
    2.4397   -4.8122    0.8875 H   0  0  0  0  0  0  0  0  0  0  0  0
    0.6302   -3.4903    1.0030 H   0  0  0  0  0  0  0  0  0  0  0  0
    1.1247   -1.9797    1.6979 H   0  0  0  0  0  0  0  0  0  0  0  0
   -1.2933   -2.1030    1.0390 H   0  0  0  0  0  0  0  0  0  0  0  0
   -0.8454   -2.2855   -0.6397 H   0  0  0  0  0  0  0  0  0  0  0  0
    0.3168   -0.0028   -0.5293 H   0  0  0  0  0  0  0  0  0  0  0  0
   -0.3015    0.1586    1.1292 H   0  0  0  0  0  0  0  0  0  0  0  0
   -1.8522    0.0564   -1.3859 H   0  0  0  0  0  0  0  0  0  0  0  0
   -3.6510    1.1420   -1.3075 H   0  0  0  0  0  0  0  0  0  0  0  0
   -5.7690    1.7701   -1.9581 H   0  0  0  0  0  0  0  0  0  0  0  0
   -8.1415    1.9891   -1.4837 H   0  0  0  0  0  0  0  0  0  0  0  0
  -11.0499    1.0444    2.3679 H   0  0  0  0  0  0  0  0  0  0  0  0
   -9.7543   -0.1498    2.4271 H   0  0  0  0  0  0  0  0  0  0  0  0
   -9.4608    1.5152    2.9713 H   0  0  0  0  0  0  0  0  0  0  0  0
  -11.4104    0.4482   -0.0044 H   0  0  0  0  0  0  0  0  0  0  0  0
  -10.0222   -0.6518   -0.0916 H   0  0  0  0  0  0  0  0  0  0  0  0
  -10.1712    0.6883   -1.2371 H   0  0  0  0  0  0  0  0  0  0  0  0
   -9.8447    3.1103   -0.4497 H   0  0  0  0  0  0  0  0  0  0  0  0
  -11.0601    2.8933    0.8053 H   0  0  0  0  0  0  0  0  0  0  0  0
   -9.4316    3.4433    1.2388 H   0  0  0  0  0  0  0  0  0  0  0  0
   -7.4939    0.2677    2.4306 H   0  0  0  0  0  0  0  0  0  0  0  0
   -5.1515    0.0416    1.9463 H   0  0  0  0  0  0  0  0  0  0  0  0
    3.5526   -1.8455    0.8762 H   0  0  0  0  0  0  0  0  0  0  0  0
    2.4541   -0.5201    0.6214 H   0  0  0  0  0  0  0  0  0  0  0  0
    3.2276   -0.9289   -1.9863 H   0  0  0  0  0  0  0  0  0  0  0  0
    5.1749    1.8292   -1.9543 H   0  0  0  0  0  0  0  0  0  0  0  0
    4.7487    0.8152    1.5503 H   0  0  0  0  0  0  0  0  0  0  0  0
    9.9853    4.4324    2.3236 H   0  0  0  0  0  0  0  0  0  0  0  0
    8.7118    3.7063    3.2388 H   0  0  0  0  0  0  0  0  0  0  0  0
    9.3817    3.6722   -1.9557 H   0  0  0  0  0  0  0  0  0  0  0  0
    7.0084   -0.2813   -1.6591 H   0  0  0  0  0  0  0  0  0  0  0  0
    4.8186   -0.5030   -3.4517 H   0  0  0  0  0  0  0  0  0  0  0  0
    5.6172   -1.5343   -0.1504 H   0  0  0  0  0  0  0  0  0  0  0  0
    6.0610   -2.5375   -2.4446 H   0  0  0  0  0  0  0  0  0  0  0  0
  1  2  1  0
  2  3  1  0
  2  4  1  0
  4  5  1  0
  5  6  1  0
  6  7  1  0
  7  8  1  0
  8  9  1  0
  9 10  2  0
  9 11  1  0
 11 12  1  0
 12 13  2  0
 13 14  1  0
 14 15  2  0
 15 16  1  0
 16 17  1  0
 16 18  1  0
 16 19  1  0
 15 20  1  0
 20 21  2  0
  4 22  1  0
 22 23  1  0
 23 24  1  0
 24 25  1  0
 25 26  1  0
 26 27  1  0
 27 28  2  0
 28 29  1  0
 28 30  1  0
 30 31  2  0
 31 32  1  0
 31 33  1  0
 33 34  2  0
 34 35  1  0
 35 36  2  0
 25 37  1  0
 37 38  1  0
 37 39  1  0
 39 40  1  0
 21 12  1  0
 39 23  1  0
 36 26  1  0
 36 30  1  0
  1 41  1  0
  1 42  1  0
  1 43  1  0
  2 44  1  0
  3 45  1  0
  3 46  1  0
  3 47  1  0
  5 48  1  0
  5 49  1  0
  6 50  1  0
  6 51  1  0
  7 52  1  0
  7 53  1  0
  8 54  1  0
 11 55  1  0
 13 56  1  0
 14 57  1  0
 17 58  1  0
 17 59  1  0
 17 60  1  0
 18 61  1  0
 18 62  1  0
 18 63  1  0
 19 64  1  0
 19 65  1  0
 19 66  1  0
 20 67  1  0
 21 68  1  0
 22 69  1  0
 22 70  1  0
 23 71  1  6
 25 72  1  6
 27 73  1  0
 32 74  1  0
 32 75  1  0
 34 76  1  0
 37 77  1  6
 38 78  1  0
 39 79  1  1
 40 80  1  0
M  END
$$$$
