
     RDKit          3D

 34 35  0  0  0  0  0  0  0  0999 V2000
    6.2153    0.4284   -0.9241 N   0  0  0  0  0  0  0  0  0  0  0  0
    5.3508   -0.6619    0.0255 S   0  0  0  0  0  6  0  0  0  0  0  0
    5.5710   -1.9858   -0.5056 O   0  0  0  0  0  0  0  0  0  0  0  0
    5.6529   -0.3124    1.3943 O   0  0  0  0  0  0  0  0  0  0  0  0
    3.6796   -0.1853   -0.3245 C   0  0  0  0  0  0  0  0  0  0  0  0
    3.0373    0.7451    0.4946 C   0  0  0  0  0  0  0  0  0  0  0  0
    1.7197    1.1089    0.2141 C   0  0  0  0  0  0  0  0  0  0  0  0
    1.0384    0.5450   -0.8771 C   0  0  0  0  0  0  0  0  0  0  0  0
   -0.3956    0.9248   -1.1488 C   0  0  0  0  0  0  0  0  0  0  0  0
   -1.2872    0.2019   -0.2748 N   0  0  0  0  0  0  0  0  0  0  0  0
   -1.8498    0.7756    0.8439 C   0  0  0  0  0  0  0  0  0  0  0  0
   -1.6697    1.9483    1.1635 O   0  0  0  0  0  0  0  0  0  0  0  0
   -2.6921   -0.1709    1.6818 C   0  0  0  0  0  0  0  0  0  0  0  0
   -3.9387   -0.5479    0.9406 C   0  0  0  0  0  0  0  0  0  0  0  0
   -5.0748    0.2118    0.7397 C   0  0  0  0  0  0  0  0  0  0  0  0
   -6.0632   -0.4820   -0.0158 C   0  0  0  0  0  0  0  0  0  0  0  0
   -5.6515   -1.7489   -0.3630 C   0  0  0  0  0  0  0  0  0  0  0  0
   -4.0824   -2.0962    0.2194 S   0  0  0  0  0  0  0  0  0  0  0  0
    1.6929   -0.4037   -1.6774 C   0  0  0  0  0  0  0  0  0  0  0  0
    3.0119   -0.7700   -1.4039 C   0  0  0  0  0  0  0  0  0  0  0  0
    5.6242    0.9641   -1.5586 H   0  0  0  0  0  0  0  0  0  0  0  0
    6.7634    1.0345   -0.3111 H   0  0  0  0  0  0  0  0  0  0  0  0
    3.5448    1.1831    1.3515 H   0  0  0  0  0  0  0  0  0  0  0  0
    1.2134    1.8289    0.8574 H   0  0  0  0  0  0  0  0  0  0  0  0
   -0.5272    2.0067   -1.0351 H   0  0  0  0  0  0  0  0  0  0  0  0
   -0.6719    0.6716   -2.1782 H   0  0  0  0  0  0  0  0  0  0  0  0
   -1.4388   -0.7831   -0.4512 H   0  0  0  0  0  0  0  0  0  0  0  0
   -2.0850   -1.0437    1.9482 H   0  0  0  0  0  0  0  0  0  0  0  0
   -2.9546    0.3339    2.6190 H   0  0  0  0  0  0  0  0  0  0  0  0
   -5.1903    1.2227    1.1148 H   0  0  0  0  0  0  0  0  0  0  0  0
   -7.0280   -0.0725   -0.2891 H   0  0  0  0  0  0  0  0  0  0  0  0
   -6.1981   -2.4902   -0.9299 H   0  0  0  0  0  0  0  0  0  0  0  0
    1.1765   -0.8680   -2.5155 H   0  0  0  0  0  0  0  0  0  0  0  0
    3.5069   -1.5127   -2.0270 H   0  0  0  0  0  0  0  0  0  0  0  0
  1  2  1  0
  2  3  2  0
  2  4  2  0
  2  5  1  0
  5  6  2  0
  6  7  1  0
  7  8  2  0
  8  9  1  0
  9 10  1  0
 10 11  1  0
 11 12  2  0
 11 13  1  0
 13 14  1  0
 14 15  2  0
 15 16  1  0
 16 17  2  0
 17 18  1  0
  8 19  1  0
 19 20  2  0
 20  5  1  0
 18 14  1  0
  1 21  1  0
  1 22  1  0
  6 23  1  0
  7 24  1  0
  9 25  1  0
  9 26  1  0
 10 27  1  0
 13 28  1  0
 13 29  1  0
 15 30  1  0
 16 31  1  0
 17 32  1  0
 19 33  1  0
 20 34  1  0
M  END
$$$$
