
     RDKit          3D

 31 33  0  0  0  0  0  0  0  0999 V2000
   -5.7571    0.8064    0.5800 C   0  0  0  0  0  0  0  0  0  0  0  0
   -4.3804    0.8448    0.9369 O   0  0  0  0  0  0  0  0  0  0  0  0
   -3.4786    0.5084   -0.0356 C   0  0  0  0  0  0  0  0  0  0  0  0
   -3.7836    0.1487   -1.3439 C   0  0  0  0  0  0  0  0  0  0  0  0
   -2.7562   -0.1807   -2.2252 C   0  0  0  0  0  0  0  0  0  0  0  0
   -1.4229   -0.1484   -1.8037 C   0  0  0  0  0  0  0  0  0  0  0  0
   -1.0829    0.2155   -0.4927 C   0  0  0  0  0  0  0  0  0  0  0  0
    0.2902    0.2667   -0.0519 N   0  0  0  0  0  0  0  0  0  0  0  0
    0.6566    1.1559    0.9565 C   0  0  0  0  0  0  0  0  0  0  0  0
    1.8373    1.3125    1.4722 N   0  0  0  0  0  0  0  0  0  0  0  0
    2.7849    0.5130    0.9335 C   0  0  0  0  0  0  0  0  0  0  0  0
    4.4076    0.5626    1.4541 S   0  0  0  0  0  0  0  0  0  0  0  0
    4.8755   -0.6544    0.3416 C   0  0  0  0  0  0  0  0  0  0  0  0
    6.2934   -1.1078    0.2904 C   0  0  0  0  0  0  0  0  0  0  0  0
    3.8044   -1.0875   -0.4130 C   0  0  0  0  0  0  0  0  0  0  0  0
    2.5973   -0.4071   -0.0680 C   0  0  0  0  0  0  0  0  0  0  0  0
    1.2636   -0.5801   -0.6193 C   0  0  0  0  0  0  0  0  0  0  0  0
    1.0678   -1.4387   -1.4755 O   0  0  0  0  0  0  0  0  0  0  0  0
   -2.1390    0.5402    0.3784 C   0  0  0  0  0  0  0  0  0  0  0  0
   -6.0620   -0.2048    0.2910 H   0  0  0  0  0  0  0  0  0  0  0  0
   -5.9792    1.5290   -0.2122 H   0  0  0  0  0  0  0  0  0  0  0  0
   -6.3389    1.0904    1.4623 H   0  0  0  0  0  0  0  0  0  0  0  0
   -4.8044    0.1108   -1.7090 H   0  0  0  0  0  0  0  0  0  0  0  0
   -2.9891   -0.4619   -3.2499 H   0  0  0  0  0  0  0  0  0  0  0  0
   -0.6637   -0.3858   -2.5453 H   0  0  0  0  0  0  0  0  0  0  0  0
   -0.1448    1.8107    1.3264 H   0  0  0  0  0  0  0  0  0  0  0  0
    6.6030   -1.5252    1.2542 H   0  0  0  0  0  0  0  0  0  0  0  0
    6.4280   -1.8847   -0.4696 H   0  0  0  0  0  0  0  0  0  0  0  0
    6.9588   -0.2752    0.0393 H   0  0  0  0  0  0  0  0  0  0  0  0
    3.8728   -1.8553   -1.1755 H   0  0  0  0  0  0  0  0  0  0  0  0
   -1.9585    0.7819    1.4230 H   0  0  0  0  0  0  0  0  0  0  0  0
  1  2  1  0
  2  3  1  0
  3  4  2  0
  4  5  1  0
  5  6  2  0
  6  7  1  0
  7  8  1  0
  8  9  1  0
  9 10  2  0
 10 11  1  0
 11 12  1  0
 12 13  1  0
 13 14  1  0
 13 15  2  0
 15 16  1  0
 16 17  1  0
 17 18  2  0
  7 19  2  0
 19  3  1  0
 17  8  1  0
 16 11  2  0
  1 20  1  0
  1 21  1  0
  1 22  1  0
  4 23  1  0
  5 24  1  0
  6 25  1  0
  9 26  1  0
 14 27  1  0
 14 28  1  0
 14 29  1  0
 15 30  1  0
 19 31  1  0
M  END
$$$$
