
     RDKit          3D

 41 43  0  0  0  0  0  0  0  0999 V2000
    6.1842   -1.3725    2.8397 O   0  0  0  0  0  0  0  0  0  0  0  0
    6.3613   -1.1423    1.6496 C   0  0  0  0  0  0  0  0  0  0  0  0
    7.6052   -0.7893    1.2421 O   0  0  0  0  0  0  0  0  0  0  0  0
    5.3338   -1.1942    0.5093 C   0  0  0  0  0  0  0  0  0  0  0  0
    5.2719    0.0006   -0.4706 C   0  0  0  0  0  0  0  0  0  0  0  0
    3.7993   -0.1815   -0.5106 N   0  0  0  0  0  0  0  0  0  0  0  0
    3.1174    1.1174   -0.4646 C   0  0  0  0  0  0  0  0  0  0  0  0
    1.6140    0.9665   -0.3706 C   0  0  0  0  0  0  0  0  0  0  0  0
    0.8932    0.3599   -1.4092 C   0  0  0  0  0  0  0  0  0  0  0  0
   -0.4969    0.2188   -1.3322 C   0  0  0  0  0  0  0  0  0  0  0  0
   -1.1862    0.6841   -0.2130 C   0  0  0  0  0  0  0  0  0  0  0  0
   -2.5363    0.6127   -0.0086 O   0  0  0  0  0  0  0  0  0  0  0  0
   -3.3159    0.0138   -1.0387 C   0  0  0  0  0  0  0  0  0  0  0  0
   -4.7621    0.0659   -0.6079 C   0  0  0  0  0  0  0  0  0  0  0  0
   -5.5161    1.2322   -0.7965 C   0  0  0  0  0  0  0  0  0  0  0  0
   -6.8479    1.2904   -0.3787 C   0  0  0  0  0  0  0  0  0  0  0  0
   -7.4398    0.1862    0.2404 C   0  0  0  0  0  0  0  0  0  0  0  0
   -9.0909    0.3281    0.7300 Cl  0  0  0  0  0  0  0  0  0  0  0  0
   -6.6929   -0.9787    0.4453 C   0  0  0  0  0  0  0  0  0  0  0  0
   -7.3538   -2.3812    1.2091 Cl  0  0  0  0  0  0  0  0  0  0  0  0
   -5.3588   -1.0349    0.0255 C   0  0  0  0  0  0  0  0  0  0  0  0
   -0.4723    1.2867    0.8254 C   0  0  0  0  0  0  0  0  0  0  0  0
    0.9157    1.4282    0.7512 C   0  0  0  0  0  0  0  0  0  0  0  0
    3.8781   -0.7929    0.8425 C   0  0  0  0  0  0  0  0  0  0  0  0
    8.1357   -0.8143    2.0671 H   0  0  0  0  0  0  0  0  0  0  0  0
    5.3845   -2.1609   -0.0141 H   0  0  0  0  0  0  0  0  0  0  0  0
    5.6275    0.9494   -0.0474 H   0  0  0  0  0  0  0  0  0  0  0  0
    5.7721   -0.1615   -1.4303 H   0  0  0  0  0  0  0  0  0  0  0  0
    3.4818    1.7513    0.3558 H   0  0  0  0  0  0  0  0  0  0  0  0
    3.3351    1.6693   -1.3888 H   0  0  0  0  0  0  0  0  0  0  0  0
    1.4208   -0.0160   -2.2842 H   0  0  0  0  0  0  0  0  0  0  0  0
   -1.0017   -0.2617   -2.1628 H   0  0  0  0  0  0  0  0  0  0  0  0
   -3.2040    0.5620   -1.9828 H   0  0  0  0  0  0  0  0  0  0  0  0
   -3.0156   -1.0297   -1.1949 H   0  0  0  0  0  0  0  0  0  0  0  0
   -5.0649    2.1067   -1.2631 H   0  0  0  0  0  0  0  0  0  0  0  0
   -7.4172    2.2043   -0.5342 H   0  0  0  0  0  0  0  0  0  0  0  0
   -4.7780   -1.9393    0.1995 H   0  0  0  0  0  0  0  0  0  0  0  0
   -1.0029    1.6488    1.7031 H   0  0  0  0  0  0  0  0  0  0  0  0
    1.4434    1.8986    1.5775 H   0  0  0  0  0  0  0  0  0  0  0  0
    3.1924   -1.6313    0.9997 H   0  0  0  0  0  0  0  0  0  0  0  0
    3.7865   -0.1019    1.6910 H   0  0  0  0  0  0  0  0  0  0  0  0
  1  2  2  0
  2  3  1  0
  2  4  1  0
  4  5  1  0
  5  6  1  0
  6  7  1  0
  7  8  1  0
  8  9  2  0
  9 10  1  0
 10 11  2  0
 11 12  1  0
 12 13  1  0
 13 14  1  0
 14 15  2  0
 15 16  1  0
 16 17  2  0
 17 18  1  0
 17 19  1  0
 19 20  1  0
 19 21  2  0
 11 22  1  0
 22 23  2  0
  6 24  1  0
 24  4  1  0
 23  8  1  0
 21 14  1  0
  3 25  1  0
  4 26  1  0
  5 27  1  0
  5 28  1  0
  7 29  1  0
  7 30  1  0
  9 31  1  0
 10 32  1  0
 13 33  1  0
 13 34  1  0
 15 35  1  0
 16 36  1  0
 21 37  1  0
 22 38  1  0
 23 39  1  0
 24 40  1  0
 24 41  1  0
M  END
$$$$
