
     RDKit          3D

 59 60  0  0  0  0  0  0  0  0999 V2000
    6.6674    0.5480    0.5310 C   0  0  0  0  0  0  0  0  0  0  0  0
    5.5712   -0.0374   -0.2901 C   0  0  0  0  0  0  0  0  0  0  0  0
    5.7608   -1.2713   -0.8573 C   0  0  0  0  0  0  0  0  0  0  0  0
    4.7804   -1.8398   -1.6155 C   0  0  0  0  0  0  0  0  0  0  0  0
    3.5916   -1.1710   -1.8134 C   0  0  0  0  0  0  0  0  0  0  0  0
    3.3652    0.0689   -1.2601 C   0  0  0  0  0  0  0  0  0  0  0  0
    2.0895    0.7346   -1.5001 C   0  0  0  0  0  0  0  0  0  0  0  0
    1.0664    0.4486   -0.5412 N   0  0  0  0  0  0  0  0  0  0  0  0
    0.6967   -0.9121   -0.4245 C   0  0  0  0  0  0  0  0  0  0  0  0
   -0.0937   -1.0930    0.8685 C   0  0  0  0  0  0  0  0  0  0  0  0
   -0.9223    0.0591    1.1552 N   0  0  0  0  0  0  0  0  0  0  0  0
   -1.9437    0.1283    0.1312 C   0  0  0  0  0  0  0  0  0  0  0  0
   -2.7339   -1.1220    0.1855 C   0  0  0  0  0  0  0  0  0  0  0  0
   -3.0964   -1.6525    1.3988 C   0  0  0  0  0  0  0  0  0  0  0  0
   -3.8417   -2.8209    1.4958 C   0  0  0  0  0  0  0  0  0  0  0  0
   -4.2253   -3.4613    0.3461 C   0  0  0  0  0  0  0  0  0  0  0  0
   -3.8746   -2.9502   -0.8827 C   0  0  0  0  0  0  0  0  0  0  0  0
   -3.1385   -1.7955   -0.9599 C   0  0  0  0  0  0  0  0  0  0  0  0
   -2.8456    1.2746    0.2372 C   0  0  0  0  0  0  0  0  0  0  0  0
   -3.3665    1.7191    1.4326 C   0  0  0  0  0  0  0  0  0  0  0  0
   -4.2039    2.7928    1.4280 C   0  0  0  0  0  0  0  0  0  0  0  0
   -4.5575    3.4607    0.2764 C   0  0  0  0  0  0  0  0  0  0  0  0
   -5.6333    4.8367    0.2879 Cl  0  0  0  0  0  0  0  0  0  0  0  0
   -4.0427    3.0231   -0.9130 C   0  0  0  0  0  0  0  0  0  0  0  0
   -3.1949    1.9415   -0.9382 C   0  0  0  0  0  0  0  0  0  0  0  0
   -0.1858    1.2758    1.3034 C   0  0  0  0  0  0  0  0  0  0  0  0
    1.2068    1.1499    0.6989 C   0  0  0  0  0  0  0  0  0  0  0  0
    4.3769    0.6140   -0.4998 C   0  0  0  0  0  0  0  0  0  0  0  0
    0.6886    0.0000    0.0000 Cl  0  0  0  0  0  0  0  0  0  0  0  0
    0.6885    0.0000    0.0000 Cl  0  0  0  0  0  0  0  0  0  0  0  0
    6.2899    1.3256    1.2017 H   0  0  0  0  0  0  0  0  0  0  0  0
    7.1332   -0.2731    1.1266 H   0  0  0  0  0  0  0  0  0  0  0  0
    7.4914    0.9565   -0.0988 H   0  0  0  0  0  0  0  0  0  0  0  0
    6.7036   -1.7730   -0.6852 H   0  0  0  0  0  0  0  0  0  0  0  0
    4.9349   -2.8150   -2.0617 H   0  0  0  0  0  0  0  0  0  0  0  0
    2.8518   -1.6760   -2.4259 H   0  0  0  0  0  0  0  0  0  0  0  0
    2.2510    1.8386   -1.4958 H   0  0  0  0  0  0  0  0  0  0  0  0
    1.6593    0.5046   -2.5138 H   0  0  0  0  0  0  0  0  0  0  0  0
    0.0331   -1.1970   -1.2571 H   0  0  0  0  0  0  0  0  0  0  0  0
    1.5306   -1.6302   -0.3867 H   0  0  0  0  0  0  0  0  0  0  0  0
    0.6111   -1.2418    1.7272 H   0  0  0  0  0  0  0  0  0  0  0  0
   -0.7225   -1.9833    0.8234 H   0  0  0  0  0  0  0  0  0  0  0  0
   -1.4582    0.1429   -0.8796 H   0  0  0  0  0  0  0  0  0  0  0  0
   -2.7955   -1.1577    2.3087 H   0  0  0  0  0  0  0  0  0  0  0  0
   -4.0956   -3.1874    2.4887 H   0  0  0  0  0  0  0  0  0  0  0  0
   -4.8095   -4.3759    0.4574 H   0  0  0  0  0  0  0  0  0  0  0  0
   -4.2029   -3.4950   -1.7580 H   0  0  0  0  0  0  0  0  0  0  0  0
   -2.8641   -1.3955   -1.9168 H   0  0  0  0  0  0  0  0  0  0  0  0
   -3.0854    1.1928    2.3515 H   0  0  0  0  0  0  0  0  0  0  0  0
   -4.6226    3.1545    2.3635 H   0  0  0  0  0  0  0  0  0  0  0  0
   -4.3073    3.5345   -1.8358 H   0  0  0  0  0  0  0  0  0  0  0  0
   -2.8138    1.6343   -1.9074 H   0  0  0  0  0  0  0  0  0  0  0  0
   -0.6602    2.1493    0.7785 H   0  0  0  0  0  0  0  0  0  0  0  0
   -0.0327    1.4926    2.3847 H   0  0  0  0  0  0  0  0  0  0  0  0
    1.6411    2.1452    0.5151 H   0  0  0  0  0  0  0  0  0  0  0  0
    1.8105    0.5771    1.4450 H   0  0  0  0  0  0  0  0  0  0  0  0
    4.2563    1.6035   -0.0302 H   0  0  0  0  0  0  0  0  0  0  0  0
   -0.6886    0.0000    0.0000 H   0  0  0  0  0  0  0  0  0  0  0  0
   -0.6885    0.0000    0.0000 H   0  0  0  0  0  0  0  0  0  0  0  0
  1  2  1  0
  2  3  2  0
  3  4  1  0
  4  5  2  0
  5  6  1  0
  6  7  1  0
  7  8  1  0
  8  9  1  0
  9 10  1  0
 10 11  1  0
 11 12  1  0
 12 13  1  0
 13 14  2  0
 14 15  1  0
 15 16  2  0
 16 17  1  0
 17 18  2  0
 12 19  1  0
 19 20  2  0
 20 21  1  0
 21 22  2  0
 22 23  1  0
 22 24  1  0
 24 25  2  0
 11 26  1  0
 26 27  1  0
  6 28  2  0
 28  2  1  0
 27  8  1  0
 18 13  1  0
 25 19  1  0
  1 31  1  0
  1 32  1  0
  1 33  1  0
  3 34  1  0
  4 35  1  0
  5 36  1  0
  7 37  1  0
  7 38  1  0
  9 39  1  0
  9 40  1  0
 10 41  1  0
 10 42  1  0
 12 43  1  0
 14 44  1  0
 15 45  1  0
 16 46  1  0
 17 47  1  0
 18 48  1  0
 20 49  1  0
 21 50  1  0
 24 51  1  0
 25 52  1  0
 26 53  1  0
 26 54  1  0
 27 55  1  0
 27 56  1  0
 28 57  1  0
 29 58  1  0
 30 59  1  0
M  END
$$$$
