
     RDKit          3D

 47 48  0  0  0  0  0  0  0  0999 V2000
    6.0846   -0.2216    1.1052 C   0  0  0  0  0  0  0  0  0  0  0  0
    5.7696    0.0058   -0.2896 N   0  0  0  0  0  0  0  0  0  0  0  0
    4.7492   -0.8940   -0.7802 C   0  0  0  0  0  0  0  0  0  0  0  0
    3.4708   -0.1247   -1.1116 C   0  0  0  0  0  0  0  0  0  0  0  0
    3.1676    0.7108    0.1411 C   0  0  0  0  0  0  0  0  0  0  0  0
    1.8172    1.1831    0.0788 C   0  0  0  0  0  0  0  0  0  0  0  0
    1.8689    2.5824    0.0316 O   0  0  0  0  0  0  0  0  0  0  0  0
    0.4992    0.7813    0.0365 C   0  0  0  0  0  0  0  0  0  0  0  0
    0.9535   -0.7875    0.5601 C   0  0  0  0  0  0  0  0  0  0  0  0
    0.0820   -1.7116    0.7267 C   0  0  0  0  0  0  0  0  0  0  0  0
   -1.2895   -1.6154    0.5291 C   0  0  0  0  0  0  0  0  0  0  0  0
   -1.6771   -0.3432    0.1036 C   0  0  0  0  0  0  0  0  0  0  0  0
   -3.0214    0.0337   -0.1347 N   0  0  0  0  0  0  0  0  0  0  0  0
   -4.1560   -0.7713    0.0440 C   0  0  0  0  0  0  0  0  0  0  0  0
   -3.9422   -1.9718    0.4486 O   0  0  0  0  0  0  0  0  0  0  0  0
   -5.5299   -0.3523   -0.1884 C   0  0  0  0  0  0  0  0  0  0  0  0
   -5.9278    0.8574   -0.6745 C   0  0  0  0  0  0  0  0  0  0  0  0
   -5.0571    1.8245   -1.0298 F   0  0  0  0  0  0  0  0  0  0  0  0
   -7.2873    1.1646   -0.8432 C   0  0  0  0  0  0  0  0  0  0  0  0
   -8.2640    0.2470   -0.5209 C   0  0  0  0  0  0  0  0  0  0  0  0
   -9.6041    0.5134   -0.6762 F   0  0  0  0  0  0  0  0  0  0  0  0
   -7.8674   -0.9605   -0.0363 C   0  0  0  0  0  0  0  0  0  0  0  0
   -6.5286   -1.2573    0.1278 C   0  0  0  0  0  0  0  0  0  0  0  0
   -6.1987   -2.4789    0.6128 F   0  0  0  0  0  0  0  0  0  0  0  0
   -0.6796    0.4217   -0.0013 N   0  0  0  0  0  0  0  0  0  0  0  0
    4.1885    1.8474    0.0757 C   0  0  0  0  0  0  0  0  0  0  0  0
    5.4706    1.3877   -0.5683 C   0  0  0  0  0  0  0  0  0  0  0  0
    0.6899    0.0000    0.0000 Cl  0  0  0  0  0  0  0  0  0  0  0  0
    7.2086   -0.2740    1.1770 H   0  0  0  0  0  0  0  0  0  0  0  0
    5.6823   -1.2154    1.3643 H   0  0  0  0  0  0  0  0  0  0  0  0
    5.7975    0.6052    1.7534 H   0  0  0  0  0  0  0  0  0  0  0  0
    4.4620   -1.6935   -0.1023 H   0  0  0  0  0  0  0  0  0  0  0  0
    5.0925   -1.3277   -1.7395 H   0  0  0  0  0  0  0  0  0  0  0  0
    3.6857    0.6341   -1.9075 H   0  0  0  0  0  0  0  0  0  0  0  0
    2.6833   -0.8085   -1.3893 H   0  0  0  0  0  0  0  0  0  0  0  0
    3.4770    0.0977    1.0172 H   0  0  0  0  0  0  0  0  0  0  0  0
    1.9513   -0.8396    0.7321 H   0  0  0  0  0  0  0  0  0  0  0  0
    0.3912   -2.7489    1.0743 H   0  0  0  0  0  0  0  0  0  0  0  0
   -1.9151   -2.4073    0.6835 H   0  0  0  0  0  0  0  0  0  0  0  0
   -3.2207    1.0309   -0.4743 H   0  0  0  0  0  0  0  0  0  0  0  0
   -7.6005    2.1198   -1.2244 H   0  0  0  0  0  0  0  0  0  0  0  0
   -8.6406   -1.6674    0.2128 H   0  0  0  0  0  0  0  0  0  0  0  0
    3.7496    2.6270   -0.5719 H   0  0  0  0  0  0  0  0  0  0  0  0
    4.3230    2.2806    1.0826 H   0  0  0  0  0  0  0  0  0  0  0  0
    6.2920    2.0051   -0.1610 H   0  0  0  0  0  0  0  0  0  0  0  0
    5.4898    1.5115   -1.6668 H   0  0  0  0  0  0  0  0  0  0  0  0
   -0.6899    0.0000    0.0000 H   0  0  0  0  0  0  0  0  0  0  0  0
  1  2  1  0
  2  3  1  0
  3  4  1  0
  4  5  1  0
  5  6  1  0
  6  7  2  0
  6  8  1  0
  8  9  2  0
  9 10  1  0
 10 11  2  0
 11 12  1  0
 12 13  1  0
 13 14  1  0
 14 15  2  0
 14 16  1  0
 16 17  2  0
 17 18  1  0
 17 19  1  0
 19 20  2  0
 20 21  1  0
 20 22  1  0
 22 23  2  0
 23 24  1  0
 12 25  2  0
  5 26  1  0
 26 27  1  0
 27  2  1  0
 25  8  1  0
 23 16  1  0
  1 29  1  0
  1 30  1  0
  1 31  1  0
  3 32  1  0
  3 33  1  0
  4 34  1  0
  4 35  1  0
  5 36  1  0
  9 37  1  0
 10 38  1  0
 11 39  1  0
 13 40  1  0
 19 41  1  0
 22 42  1  0
 26 43  1  0
 26 44  1  0
 27 45  1  0
 27 46  1  0
 28 47  1  0
M  END
$$$$
