
     RDKit          3D

 69 71  0  0  0  0  0  0  0  0999 V2000
   -6.9005    2.4333   -1.3026 C   0  0  0  0  0  0  0  0  0  0  0  0
   -6.4949    1.5810   -0.1044 C   0  0  0  0  0  0  0  0  0  0  0  0
   -7.3227    0.3076    0.0330 C   0  0  0  0  0  0  0  0  0  0  0  0
   -5.0462    1.3560   -0.0676 N   0  0  0  0  0  0  0  0  0  0  0  0
   -4.3927    0.2757   -0.6841 C   0  0  0  0  0  0  0  0  0  0  0  0
   -4.7375   -0.2332   -1.9348 C   0  0  0  0  0  0  0  0  0  0  0  0
   -4.0033   -1.2777   -2.4914 C   0  0  0  0  0  0  0  0  0  0  0  0
   -2.9168   -1.7677   -1.7908 C   0  0  0  0  0  0  0  0  0  0  0  0
   -2.5139   -1.2881   -0.5960 N   0  0  0  0  0  0  0  0  0  0  0  0
   -3.2453   -0.2869   -0.0515 C   0  0  0  0  0  0  0  0  0  0  0  0
   -2.8634    0.2657    1.2123 N   0  0  0  0  0  0  0  0  0  0  0  0
   -1.8047    1.2753    0.9866 C   0  0  0  0  0  0  0  0  0  0  0  0
   -0.3953    0.6559    0.9177 C   0  0  0  0  0  0  0  0  0  0  0  0
   -0.0868   -0.2138    2.0621 N   0  0  0  0  0  0  0  0  0  0  0  0
    1.2040   -0.4440    2.5356 C   0  0  0  0  0  0  0  0  0  0  0  0
    1.4018   -0.7727    3.7050 O   0  0  0  0  0  0  0  0  0  0  0  0
    2.3019   -0.2996    1.5999 C   0  0  0  0  0  0  0  0  0  0  0  0
    3.5923    0.1294    1.8591 C   0  0  0  0  0  0  0  0  0  0  0  0
    4.3371    0.0857    0.6512 C   0  0  0  0  0  0  0  0  0  0  0  0
    5.6597    0.4225    0.3020 C   0  0  0  0  0  0  0  0  0  0  0  0
    6.0765    0.2664   -1.0232 C   0  0  0  0  0  0  0  0  0  0  0  0
    7.4041    0.6012   -1.4245 N   0  0  0  0  0  0  0  0  0  0  0  0
    8.7122   -0.2149   -0.7381 S   0  0  0  0  0  6  0  0  0  0  0  0
    8.3982   -1.9042   -1.2141 C   0  0  0  0  0  0  0  0  0  0  0  0
    9.8745    0.2303   -1.4785 O   0  0  0  0  0  0  0  0  0  0  0  0
    8.6591   -0.1199    0.7040 O   0  0  0  0  0  0  0  0  0  0  0  0
    5.1905   -0.2046   -1.9957 C   0  0  0  0  0  0  0  0  0  0  0  0
    3.8766   -0.5579   -1.6674 C   0  0  0  0  0  0  0  0  0  0  0  0
    3.4815   -0.3992   -0.3358 C   0  0  0  0  0  0  0  0  0  0  0  0
    2.2787   -0.6705    0.2737 N   0  0  0  0  0  0  0  0  0  0  0  0
   -1.2105   -0.5093    2.9532 C   0  0  0  0  0  0  0  0  0  0  0  0
   -2.5107   -0.7977    2.1862 C   0  0  0  0  0  0  0  0  0  0  0  0
    1.0905   -0.2926    0.0945 C   0  0  0  0  0  0  0  0  0  0  0  0
   -0.6338   -0.1848   -0.3218 S   0  0  0  0  0  6  0  0  0  0  0  0
   -0.7927   -0.2534   -1.7554 O   0  0  0  0  0  0  0  0  0  0  0  0
   -1.4023   -1.0033    0.5876 O   0  0  0  0  0  0  0  0  0  0  0  0
   -0.8813    1.3415    0.1402 O   0  0  0  0  0  0  0  0  0  0  0  0
   -7.9668    2.6805   -1.2550 H   0  0  0  0  0  0  0  0  0  0  0  0
   -6.7178    1.9402   -2.2583 H   0  0  0  0  0  0  0  0  0  0  0  0
   -6.3423    3.3752   -1.3104 H   0  0  0  0  0  0  0  0  0  0  0  0
   -6.7185    2.1882    0.7832 H   0  0  0  0  0  0  0  0  0  0  0  0
   -6.9399   -0.3265    0.8393 H   0  0  0  0  0  0  0  0  0  0  0  0
   -8.3619    0.5581    0.2675 H   0  0  0  0  0  0  0  0  0  0  0  0
   -7.3324   -0.2835   -0.8867 H   0  0  0  0  0  0  0  0  0  0  0  0
   -4.6805    1.3912    0.8936 H   0  0  0  0  0  0  0  0  0  0  0  0
   -5.5745    0.1651   -2.4944 H   0  0  0  0  0  0  0  0  0  0  0  0
   -4.2761   -1.6978   -3.4545 H   0  0  0  0  0  0  0  0  0  0  0  0
   -2.3195   -2.5842   -2.1876 H   0  0  0  0  0  0  0  0  0  0  0  0
   -1.9962    1.8791    0.0906 H   0  0  0  0  0  0  0  0  0  0  0  0
   -1.8400    1.9771    1.8292 H   0  0  0  0  0  0  0  0  0  0  0  0
    0.3499    1.4568    0.8613 H   0  0  0  0  0  0  0  0  0  0  0  0
   -0.3064    0.0489    0.0130 H   0  0  0  0  0  0  0  0  0  0  0  0
    3.9525    0.4547    2.8275 H   0  0  0  0  0  0  0  0  0  0  0  0
    6.3321    0.8169    1.0579 H   0  0  0  0  0  0  0  0  0  0  0  0
    7.5504    0.7778   -2.4162 H   0  0  0  0  0  0  0  0  0  0  0  0
    8.3421   -1.9536   -2.3049 H   0  0  0  0  0  0  0  0  0  0  0  0
    9.2340   -2.5116   -0.8587 H   0  0  0  0  0  0  0  0  0  0  0  0
    7.4712   -2.2481   -0.7518 H   0  0  0  0  0  0  0  0  0  0  0  0
    5.5104   -0.3102   -3.0295 H   0  0  0  0  0  0  0  0  0  0  0  0
    3.1922   -0.9277   -2.4244 H   0  0  0  0  0  0  0  0  0  0  0  0
    1.4936   -1.1172   -0.1777 H   0  0  0  0  0  0  0  0  0  0  0  0
   -0.9685   -1.3682    3.5892 H   0  0  0  0  0  0  0  0  0  0  0  0
   -1.3355    0.3556    3.6151 H   0  0  0  0  0  0  0  0  0  0  0  0
   -3.3333   -0.8716    2.9084 H   0  0  0  0  0  0  0  0  0  0  0  0
   -2.4217   -1.7896    1.7265 H   0  0  0  0  0  0  0  0  0  0  0  0
    1.2107   -0.0821    1.1597 H   0  0  0  0  0  0  0  0  0  0  0  0
    1.4285   -1.3072   -0.1274 H   0  0  0  0  0  0  0  0  0  0  0  0
    1.6437    0.4285   -0.5112 H   0  0  0  0  0  0  0  0  0  0  0  0
   -1.6634    1.3534    0.7336 H   0  0  0  0  0  0  0  0  0  0  0  0
  1  2  1  0
  2  3  1  0
  2  4  1  0
  4  5  1  0
  5  6  2  0
  6  7  1  0
  7  8  2  0
  8  9  1  0
  9 10  2  0
 10 11  1  0
 11 12  1  0
 12 13  1  0
 13 14  1  0
 14 15  1  0
 15 16  2  0
 15 17  1  0
 17 18  2  0
 18 19  1  0
 19 20  2  0
 20 21  1  0
 21 22  1  0
 22 23  1  0
 23 24  1  0
 23 25  2  0
 23 26  2  0
 21 27  2  0
 27 28  1  0
 28 29  2  0
 29 30  1  0
 14 31  1  0
 31 32  1  0
 33 34  1  0
 34 35  2  0
 34 36  2  0
 34 37  1  0
 10  5  1  0
 32 11  1  0
 30 17  1  0
 29 19  1  0
  1 38  1  0
  1 39  1  0
  1 40  1  0
  2 41  1  0
  3 42  1  0
  3 43  1  0
  3 44  1  0
  4 45  1  0
  6 46  1  0
  7 47  1  0
  8 48  1  0
 12 49  1  0
 12 50  1  0
 13 51  1  0
 13 52  1  0
 18 53  1  0
 20 54  1  0
 22 55  1  0
 24 56  1  0
 24 57  1  0
 24 58  1  0
 27 59  1  0
 28 60  1  0
 30 61  1  0
 31 62  1  0
 31 63  1  0
 32 64  1  0
 32 65  1  0
 33 66  1  0
 33 67  1  0
 33 68  1  0
 37 69  1  0
M  END
$$$$
