
     RDKit          3D

 47 50  0  0  0  0  0  0  0  0999 V2000
   -0.6343   -0.8397    3.1380 O   0  0  0  0  0  0  0  0  0  0  0  0
   -0.0783   -0.5580    2.0798 C   0  0  0  0  0  0  0  0  0  0  0  0
    1.4513   -0.5601    1.9846 C   0  0  0  0  0  0  0  0  0  0  0  0
    1.8949   -0.2121    0.6740 O   0  0  0  0  0  0  0  0  0  0  0  0
    3.2456   -0.1811    0.4666 C   0  0  0  0  0  0  0  0  0  0  0  0
    4.2298   -0.4554    1.4132 C   0  0  0  0  0  0  0  0  0  0  0  0
    5.5870   -0.3867    1.0659 C   0  0  0  0  0  0  0  0  0  0  0  0
    5.9768   -0.0417   -0.2361 C   0  0  0  0  0  0  0  0  0  0  0  0
    7.3573    0.0275   -0.5867 N   0  0  0  0  0  0  0  0  0  0  0  0
    8.4438   -0.2132    0.2291 C   0  0  0  0  0  0  0  0  0  0  0  0
    9.5608   -0.0233   -0.5495 C   0  0  0  0  0  0  0  0  0  0  0  0
    9.2109    0.3266   -1.8197 N   0  0  0  0  0  0  0  0  0  0  0  0
    7.8958    0.3498   -1.8157 C   0  0  0  0  0  0  0  0  0  0  0  0
    4.9829    0.2331   -1.1842 C   0  0  0  0  0  0  0  0  0  0  0  0
    3.6306    0.1623   -0.8295 C   0  0  0  0  0  0  0  0  0  0  0  0
   -0.6921   -0.2177    0.8886 N   0  0  0  0  0  0  0  0  0  0  0  0
   -2.0675   -0.1155    0.6148 C   0  0  0  0  0  0  0  0  0  0  0  0
   -2.4357    0.2456   -0.6851 C   0  0  0  0  0  0  0  0  0  0  0  0
   -3.7849    0.3687   -1.0383 C   0  0  0  0  0  0  0  0  0  0  0  0
   -4.8019    0.1331   -0.1022 C   0  0  0  0  0  0  0  0  0  0  0  0
   -6.2213    0.2591   -0.4716 C   0  0  0  0  0  0  0  0  0  0  0  0
   -6.7133    1.4315   -1.0695 C   0  0  0  0  0  0  0  0  0  0  0  0
   -8.0608    1.5514   -1.4206 C   0  0  0  0  0  0  0  0  0  0  0  0
   -8.9402    0.4989   -1.1802 C   0  0  0  0  0  0  0  0  0  0  0  0
   -8.4737   -0.6721   -0.5887 C   0  0  0  0  0  0  0  0  0  0  0  0
   -7.1262   -0.7899   -0.2372 C   0  0  0  0  0  0  0  0  0  0  0  0
   -4.4197   -0.2283    1.1982 C   0  0  0  0  0  0  0  0  0  0  0  0
   -3.0694   -0.3508    1.5540 C   0  0  0  0  0  0  0  0  0  0  0  0
    1.8171    0.1726    2.7131 H   0  0  0  0  0  0  0  0  0  0  0  0
    1.7852   -1.5729    2.2386 H   0  0  0  0  0  0  0  0  0  0  0  0
    3.9844   -0.7273    2.4354 H   0  0  0  0  0  0  0  0  0  0  0  0
    6.3100   -0.6108    1.8447 H   0  0  0  0  0  0  0  0  0  0  0  0
    8.3579   -0.4923    1.2673 H   0  0  0  0  0  0  0  0  0  0  0  0
   10.5983   -0.1216   -0.2566 H   0  0  0  0  0  0  0  0  0  0  0  0
    7.2970    0.5947   -2.6808 H   0  0  0  0  0  0  0  0  0  0  0  0
    5.2125    0.5062   -2.2096 H   0  0  0  0  0  0  0  0  0  0  0  0
    2.8720    0.3789   -1.5784 H   0  0  0  0  0  0  0  0  0  0  0  0
   -0.0525   -0.0215    0.1240 H   0  0  0  0  0  0  0  0  0  0  0  0
   -1.6823    0.4341   -1.4454 H   0  0  0  0  0  0  0  0  0  0  0  0
   -4.0380    0.6394   -2.0615 H   0  0  0  0  0  0  0  0  0  0  0  0
   -6.0463    2.2711   -1.2546 H   0  0  0  0  0  0  0  0  0  0  0  0
   -8.4221    2.4687   -1.8781 H   0  0  0  0  0  0  0  0  0  0  0  0
   -9.9882    0.5915   -1.4526 H   0  0  0  0  0  0  0  0  0  0  0  0
   -9.1565   -1.4967   -0.4012 H   0  0  0  0  0  0  0  0  0  0  0  0
   -6.7809   -1.7178    0.2146 H   0  0  0  0  0  0  0  0  0  0  0  0
   -5.1762   -0.4085    1.9600 H   0  0  0  0  0  0  0  0  0  0  0  0
   -2.8397   -0.6300    2.5774 H   0  0  0  0  0  0  0  0  0  0  0  0
  1  2  2  0
  2  3  1  0
  3  4  1  0
  4  5  1  0
  5  6  2  0
  6  7  1  0
  7  8  2  0
  8  9  1  0
  9 10  1  0
 10 11  2  0
 11 12  1  0
 12 13  2  0
  8 14  1  0
 14 15  2  0
  2 16  1  0
 16 17  1  0
 17 18  2  0
 18 19  1  0
 19 20  2  0
 20 21  1  0
 21 22  2  0
 22 23  1  0
 23 24  2  0
 24 25  1  0
 25 26  2  0
 20 27  1  0
 27 28  2  0
 15  5  1  0
 28 17  1  0
 13  9  1  0
 26 21  1  0
  3 29  1  0
  3 30  1  0
  6 31  1  0
  7 32  1  0
 10 33  1  0
 11 34  1  0
 13 35  1  0
 14 36  1  0
 15 37  1  0
 16 38  1  0
 18 39  1  0
 19 40  1  0
 22 41  1  0
 23 42  1  0
 24 43  1  0
 25 44  1  0
 26 45  1  0
 27 46  1  0
 28 47  1  0
M  END
$$$$
