
     RDKit          3D

 61 63  0  0  0  0  0  0  0  0999 V2000
   -3.9086   -0.0876   -1.9909 C   0  0  0  0  0  0  0  0  0  0  0  0
   -4.4721    0.0464   -0.6863 O   0  0  0  0  0  0  0  0  0  0  0  0
   -5.8371    0.1237   -0.5781 C   0  0  0  0  0  0  0  0  0  0  0  0
   -6.7018   -0.0224   -1.6752 C   0  0  0  0  0  0  0  0  0  0  0  0
   -8.0883    0.0408   -1.5095 C   0  0  0  0  0  0  0  0  0  0  0  0
   -8.6269    0.2451   -0.2434 C   0  0  0  0  0  0  0  0  0  0  0  0
  -10.3352    0.3128   -0.0393 Cl  0  0  0  0  0  0  0  0  0  0  0  0
   -7.7884    0.3917    0.8568 C   0  0  0  0  0  0  0  0  0  0  0  0
   -6.3885    0.3385    0.7061 C   0  0  0  0  0  0  0  0  0  0  0  0
   -5.5917    0.5158    1.9663 C   0  0  0  0  0  0  0  0  0  0  0  0
   -6.1644    0.5777    3.0519 O   0  0  0  0  0  0  0  0  0  0  0  0
   -4.2205    0.6051    1.8591 N   0  0  0  0  0  0  0  0  0  0  0  0
   -3.3772    0.5335    3.0373 C   0  0  0  0  0  0  0  0  0  0  0  0
   -1.9454    1.0040    2.7777 C   0  0  0  0  0  0  0  0  0  0  0  0
   -1.1981    0.1514    1.7767 C   0  0  0  0  0  0  0  0  0  0  0  0
   -0.8275    0.6822    0.5323 C   0  0  0  0  0  0  0  0  0  0  0  0
   -0.1504   -0.1059   -0.4008 C   0  0  0  0  0  0  0  0  0  0  0  0
    0.1726   -1.4280   -0.0851 C   0  0  0  0  0  0  0  0  0  0  0  0
    0.9795   -2.4486   -1.2910 S   0  0  0  0  0  6  0  0  0  0  0  0
    0.7369   -3.8291   -0.9201 O   0  0  0  0  0  0  0  0  0  0  0  0
    0.6367   -1.9755   -2.6123 O   0  0  0  0  0  0  0  0  0  0  0  0
    2.5923   -2.2024   -0.9903 N   0  0  0  0  0  0  0  0  0  0  0  0
    3.2735   -1.0190   -1.1981 C   0  0  0  0  0  0  0  0  0  0  0  0
    2.7472    0.0060   -1.5976 O   0  0  0  0  0  0  0  0  0  0  0  0
    4.5954   -1.1247   -0.8731 N   0  0  0  0  0  0  0  0  0  0  0  0
    5.4833    0.0305   -0.8795 C   0  0  0  0  0  0  0  0  0  0  0  0
    5.2856    0.8768    0.3874 C   0  0  0  0  0  0  0  0  0  0  0  0
    6.2580    2.0526    0.4334 C   0  0  0  0  0  0  0  0  0  0  0  0
    7.7060    1.5915    0.2956 C   0  0  0  0  0  0  0  0  0  0  0  0
    7.9104    0.7523   -0.9622 C   0  0  0  0  0  0  0  0  0  0  0  0
    6.9388   -0.4251   -1.0180 C   0  0  0  0  0  0  0  0  0  0  0  0
   -0.1974   -1.9740    1.1465 C   0  0  0  0  0  0  0  0  0  0  0  0
   -0.8753   -1.1818    2.0753 C   0  0  0  0  0  0  0  0  0  0  0  0
   -2.8196   -0.0929   -1.8921 H   0  0  0  0  0  0  0  0  0  0  0  0
   -4.2027   -1.0417   -2.4459 H   0  0  0  0  0  0  0  0  0  0  0  0
   -4.1812    0.7642   -2.6260 H   0  0  0  0  0  0  0  0  0  0  0  0
   -6.3302   -0.1954   -2.6817 H   0  0  0  0  0  0  0  0  0  0  0  0
   -8.7406   -0.0780   -2.3714 H   0  0  0  0  0  0  0  0  0  0  0  0
   -8.2254    0.5461    1.8439 H   0  0  0  0  0  0  0  0  0  0  0  0
   -3.8213    0.3228    0.9663 H   0  0  0  0  0  0  0  0  0  0  0  0
   -3.8252    1.1546    3.8197 H   0  0  0  0  0  0  0  0  0  0  0  0
   -3.3996   -0.5034    3.3915 H   0  0  0  0  0  0  0  0  0  0  0  0
   -1.3809    0.9942    3.7191 H   0  0  0  0  0  0  0  0  0  0  0  0
   -1.9626    2.0484    2.4407 H   0  0  0  0  0  0  0  0  0  0  0  0
   -1.0698    1.7119    0.2765 H   0  0  0  0  0  0  0  0  0  0  0  0
    0.1235    0.3168   -1.3666 H   0  0  0  0  0  0  0  0  0  0  0  0
    3.0557   -3.0313   -0.6437 H   0  0  0  0  0  0  0  0  0  0  0  0
    4.9123   -1.9762   -0.4342 H   0  0  0  0  0  0  0  0  0  0  0  0
    5.2238    0.6459   -1.7518 H   0  0  0  0  0  0  0  0  0  0  0  0
    5.4236    0.2503    1.2799 H   0  0  0  0  0  0  0  0  0  0  0  0
    4.2569    1.2564    0.4336 H   0  0  0  0  0  0  0  0  0  0  0  0
    6.1356    2.5979    1.3764 H   0  0  0  0  0  0  0  0  0  0  0  0
    6.0209    2.7557   -0.3755 H   0  0  0  0  0  0  0  0  0  0  0  0
    8.3689    2.4631    0.2712 H   0  0  0  0  0  0  0  0  0  0  0  0
    7.9850    1.0025    1.1774 H   0  0  0  0  0  0  0  0  0  0  0  0
    7.7704    1.3829   -1.8501 H   0  0  0  0  0  0  0  0  0  0  0  0
    8.9405    0.3808   -0.9924 H   0  0  0  0  0  0  0  0  0  0  0  0
    7.1844   -1.1392   -0.2184 H   0  0  0  0  0  0  0  0  0  0  0  0
    7.0690   -0.9639   -1.9652 H   0  0  0  0  0  0  0  0  0  0  0  0
    0.0264   -3.0111    1.3882 H   0  0  0  0  0  0  0  0  0  0  0  0
   -1.1593   -1.6156    3.0321 H   0  0  0  0  0  0  0  0  0  0  0  0
  1  2  1  0
  2  3  1  0
  3  4  2  0
  4  5  1  0
  5  6  2  0
  6  7  1  0
  6  8  1  0
  8  9  2  0
  9 10  1  0
 10 11  2  0
 10 12  1  0
 12 13  1  0
 13 14  1  0
 14 15  1  0
 15 16  2  0
 16 17  1  0
 17 18  2  0
 18 19  1  0
 19 20  2  0
 19 21  2  0
 19 22  1  0
 22 23  1  0
 23 24  2  0
 23 25  1  0
 25 26  1  0
 26 27  1  0
 27 28  1  0
 28 29  1  0
 29 30  1  0
 30 31  1  0
 18 32  1  0
 32 33  2  0
  9  3  1  0
 33 15  1  0
 31 26  1  0
  1 34  1  0
  1 35  1  0
  1 36  1  0
  4 37  1  0
  5 38  1  0
  8 39  1  0
 12 40  1  0
 13 41  1  0
 13 42  1  0
 14 43  1  0
 14 44  1  0
 16 45  1  0
 17 46  1  0
 22 47  1  0
 25 48  1  0
 26 49  1  0
 27 50  1  0
 27 51  1  0
 28 52  1  0
 28 53  1  0
 29 54  1  0
 29 55  1  0
 30 56  1  0
 30 57  1  0
 31 58  1  0
 31 59  1  0
 32 60  1  0
 33 61  1  0
M  END
$$$$
