
     RDKit          3D

 19 20  0  0  0  0  0  0  0  0999 V2000
   -0.4243    2.2324    1.0336 O   0  0  0  0  0  0  0  0  0  0  0  0
   -0.9198    1.0722    0.4985 C   0  0  0  0  0  0  0  0  0  0  0  0
   -2.3132    0.9848    0.4621 C   0  0  0  0  0  0  0  0  0  0  0  0
   -2.9270   -0.1503   -0.0610 C   0  0  0  0  0  0  0  0  0  0  0  0
   -2.1403   -1.1909   -0.5445 C   0  0  0  0  0  0  0  0  0  0  0  0
   -2.8924   -2.5974   -1.1927 Cl  0  0  0  0  0  0  0  0  0  0  0  0
   -0.7455   -1.1083   -0.5103 C   0  0  0  0  0  0  0  0  0  0  0  0
   -0.1084    0.0291    0.0138 C   0  0  0  0  0  0  0  0  0  0  0  0
    1.3437    0.1181    0.0507 C   0  0  0  0  0  0  0  0  0  0  0  0
    2.2633   -0.8115   -0.3819 C   0  0  0  0  0  0  0  0  0  0  0  0
    3.4695   -0.2322   -0.1175 N   0  0  0  0  0  0  0  0  0  0  0  0
    3.3208    0.9765    0.4419 N   0  0  0  0  0  0  0  0  0  0  0  0
    2.0208    1.2043    0.5510 N   0  0  0  0  0  0  0  0  0  0  0  0
    0.5536    2.1953    1.0136 H   0  0  0  0  0  0  0  0  0  0  0  0
   -2.9157    1.8055    0.8434 H   0  0  0  0  0  0  0  0  0  0  0  0
   -4.0113   -0.2144   -0.0874 H   0  0  0  0  0  0  0  0  0  0  0  0
   -0.1684   -1.9428   -0.8979 H   0  0  0  0  0  0  0  0  0  0  0  0
    2.1877   -1.7884   -0.8335 H   0  0  0  0  0  0  0  0  0  0  0  0
    4.4070   -0.5820   -0.2820 H   0  0  0  0  0  0  0  0  0  0  0  0
  1  2  1  0
  2  3  2  0
  3  4  1  0
  4  5  2  0
  5  6  1  0
  5  7  1  0
  7  8  2  0
  8  9  1  0
  9 10  2  0
 10 11  1  0
 11 12  1  0
 12 13  2  0
  8  2  1  0
 13  9  1  0
  1 14  1  0
  3 15  1  0
  4 16  1  0
  7 17  1  0
 10 18  1  0
 11 19  1  0
M  END
$$$$
