
     RDKit          3D

114111  0  0  0  0  0  0  0  0999 V2000
   11.2432   -1.0441   -1.4821 C   0  0  0  0  0  0  0  0  0  0  0  0
    9.9048   -1.6651   -1.4012 C   0  0  0  0  0  0  0  0  0  0  0  0
    9.6633   -2.7381   -2.0483 N   0  0  0  0  0  0  0  0  0  0  0  0
   10.6645   -3.3142   -2.8293 N   0  0  0  0  0  0  0  0  0  0  0  0
   11.1355   -4.6407   -2.6243 C   0  0  0  0  0  0  0  0  0  0  0  0
   10.3174   -5.5066   -2.1145 N   0  0  0  0  0  0  0  0  0  0  0  0
   12.4699   -4.9862   -2.9734 N   0  0  0  0  0  0  0  0  0  0  0  0
    8.8535   -1.0670   -0.5931 C   0  0  0  0  0  0  0  0  0  0  0  0
    7.5989   -1.6066   -0.4744 C   0  0  0  0  0  0  0  0  0  0  0  0
    6.6058   -1.0165    0.2905 C   0  0  0  0  0  0  0  0  0  0  0  0
    5.3516   -1.6531    0.3276 N   0  0  0  0  0  0  0  0  0  0  0  0
    4.2221   -1.2437    1.1122 C   0  0  0  0  0  0  0  0  0  0  0  0
    4.3120   -0.2568    1.8366 O   0  0  0  0  0  0  0  0  0  0  0  0
    2.9857   -2.0639    0.9888 C   0  0  0  0  0  0  0  0  0  0  0  0
    1.8027   -1.3226    1.6475 C   0  0  0  0  0  0  0  0  0  0  0  0
    1.5746   -0.0393    0.8947 C   0  0  0  0  0  0  0  0  0  0  0  0
    0.4544    0.7301    1.5248 C   0  0  0  0  0  0  0  0  0  0  0  0
    0.2633    2.0226    0.7618 C   0  0  0  0  0  0  0  0  0  0  0  0
   -0.1203    1.7686   -0.6584 C   0  0  0  0  0  0  0  0  0  0  0  0
   -1.4453    1.0383   -0.7050 C   0  0  0  0  0  0  0  0  0  0  0  0
   -2.5309    1.8783   -0.1101 C   0  0  0  0  0  0  0  0  0  0  0  0
   -3.8279    1.1090   -0.1559 C   0  0  0  0  0  0  0  0  0  0  0  0
   -3.8288   -0.0978   -0.4735 O   0  0  0  0  0  0  0  0  0  0  0  0
   -5.0481    1.7467    0.1591 N   0  0  0  0  0  0  0  0  0  0  0  0
   -6.3374    1.1610    0.1760 C   0  0  0  0  0  0  0  0  0  0  0  0
   -6.5732   -0.1771    0.2973 C   0  0  0  0  0  0  0  0  0  0  0  0
   -7.8879   -0.7036    0.2980 C   0  0  0  0  0  0  0  0  0  0  0  0
   -8.0676   -2.1423    0.4199 C   0  0  0  0  0  0  0  0  0  0  0  0
   -6.8281   -3.0344    0.3420 C   0  0  0  0  0  0  0  0  0  0  0  0
   -9.1546   -2.7068    0.5752 N   0  0  0  0  0  0  0  0  0  0  0  0
  -10.4443   -2.3585    0.6898 N   0  0  0  0  0  0  0  0  0  0  0  0
  -11.4370   -2.6421   -0.3161 C   0  0  0  0  0  0  0  0  0  0  0  0
  -10.9925   -3.0318   -1.4606 N   0  0  0  0  0  0  0  0  0  0  0  0
  -12.8266   -2.4907   -0.0214 N   0  0  0  0  0  0  0  0  0  0  0  0
   -8.9650    0.1238    0.1735 C   0  0  0  0  0  0  0  0  0  0  0  0
   -8.7515    1.4892    0.0467 C   0  0  0  0  0  0  0  0  0  0  0  0
   -9.8833    2.3775   -0.1497 C   0  0  0  0  0  0  0  0  0  0  0  0
   -9.4952    3.8635   -0.1240 C   0  0  0  0  0  0  0  0  0  0  0  0
  -11.0664    2.1500   -0.3269 N   0  0  0  0  0  0  0  0  0  0  0  0
  -12.0315    1.2533   -0.4555 N   0  0  0  0  0  0  0  0  0  0  0  0
  -13.3662    1.3798    0.0765 C   0  0  0  0  0  0  0  0  0  0  0  0
  -13.5234    2.0861    1.1248 N   0  0  0  0  0  0  0  0  0  0  0  0
  -14.4423    0.7352   -0.5696 N   0  0  0  0  0  0  0  0  0  0  0  0
   -7.4634    1.9701    0.0515 C   0  0  0  0  0  0  0  0  0  0  0  0
    6.8910    0.1474    0.9510 C   0  0  0  0  0  0  0  0  0  0  0  0
    8.1668    0.7514    0.8672 C   0  0  0  0  0  0  0  0  0  0  0  0
    8.4294    1.9827    1.5679 C   0  0  0  0  0  0  0  0  0  0  0  0
    7.2555    2.5374    2.3888 C   0  0  0  0  0  0  0  0  0  0  0  0
    9.4702    2.6633    1.6172 N   0  0  0  0  0  0  0  0  0  0  0  0
   10.6851    2.4751    1.0424 N   0  0  0  0  0  0  0  0  0  0  0  0
   11.1681    3.1564   -0.1288 C   0  0  0  0  0  0  0  0  0  0  0  0
   10.4006    3.9955   -0.6947 N   0  0  0  0  0  0  0  0  0  0  0  0
   12.4695    2.8767   -0.6168 N   0  0  0  0  0  0  0  0  0  0  0  0
    9.1115    0.1287    0.0983 C   0  0  0  0  0  0  0  0  0  0  0  0
    0.6846    0.0000    0.0000 Cl  0  0  0  0  0  0  0  0  0  0  0  0
    0.6916    0.0000    0.0000 Cl  0  0  0  0  0  0  0  0  0  0  0  0
    0.6835    0.0000    0.0000 Cl  0  0  0  0  0  0  0  0  0  0  0  0
    0.6861    0.0000    0.0000 Cl  0  0  0  0  0  0  0  0  0  0  0  0
   11.9747   -1.8650   -1.7566 H   0  0  0  0  0  0  0  0  0  0  0  0
   11.3172   -0.2136   -2.1805 H   0  0  0  0  0  0  0  0  0  0  0  0
   11.5684   -0.7481   -0.4414 H   0  0  0  0  0  0  0  0  0  0  0  0
   11.1253   -2.7817   -3.6267 H   0  0  0  0  0  0  0  0  0  0  0  0
    9.3481   -5.2379   -1.8636 H   0  0  0  0  0  0  0  0  0  0  0  0
   13.1015   -5.4511   -2.2731 H   0  0  0  0  0  0  0  0  0  0  0  0
   12.8285   -4.7831   -3.9215 H   0  0  0  0  0  0  0  0  0  0  0  0
    7.4131   -2.5368   -1.0197 H   0  0  0  0  0  0  0  0  0  0  0  0
    5.2216   -2.5228   -0.2848 H   0  0  0  0  0  0  0  0  0  0  0  0
    3.0856   -3.0560    1.4599 H   0  0  0  0  0  0  0  0  0  0  0  0
    2.7369   -2.1660   -0.0890 H   0  0  0  0  0  0  0  0  0  0  0  0
    2.0925   -1.1303    2.6960 H   0  0  0  0  0  0  0  0  0  0  0  0
    0.9049   -1.9469    1.5329 H   0  0  0  0  0  0  0  0  0  0  0  0
    2.4705    0.5913    0.9234 H   0  0  0  0  0  0  0  0  0  0  0  0
    1.2891   -0.2623   -0.1605 H   0  0  0  0  0  0  0  0  0  0  0  0
   -0.4805    0.1597    1.5430 H   0  0  0  0  0  0  0  0  0  0  0  0
    0.7282    1.0596    2.5738 H   0  0  0  0  0  0  0  0  0  0  0  0
    1.2695    2.5562    0.7859 H   0  0  0  0  0  0  0  0  0  0  0  0
   -0.4493    2.6381    1.3422 H   0  0  0  0  0  0  0  0  0  0  0  0
   -0.3071    2.7581   -1.1844 H   0  0  0  0  0  0  0  0  0  0  0  0
    0.6134    1.2180   -1.2428 H   0  0  0  0  0  0  0  0  0  0  0  0
   -1.6348    0.8467   -1.8049 H   0  0  0  0  0  0  0  0  0  0  0  0
   -1.3145    0.0394   -0.2633 H   0  0  0  0  0  0  0  0  0  0  0  0
   -2.3387    2.2537    0.9025 H   0  0  0  0  0  0  0  0  0  0  0  0
   -2.6160    2.7837   -0.7702 H   0  0  0  0  0  0  0  0  0  0  0  0
   -4.9487    2.7871    0.4049 H   0  0  0  0  0  0  0  0  0  0  0  0
   -5.7669   -0.8880    0.4049 H   0  0  0  0  0  0  0  0  0  0  0  0
   -6.2803   -2.8891    1.2717 H   0  0  0  0  0  0  0  0  0  0  0  0
   -6.2649   -2.6778   -0.5272 H   0  0  0  0  0  0  0  0  0  0  0  0
   -7.1128   -4.0778    0.1975 H   0  0  0  0  0  0  0  0  0  0  0  0
  -10.8328   -1.8510    1.5512 H   0  0  0  0  0  0  0  0  0  0  0  0
  -11.6842   -3.2443   -2.2089 H   0  0  0  0  0  0  0  0  0  0  0  0
  -13.4822   -3.2677   -0.2549 H   0  0  0  0  0  0  0  0  0  0  0  0
  -13.2374   -1.6398    0.4186 H   0  0  0  0  0  0  0  0  0  0  0  0
   -9.9834   -0.1984    0.1656 H   0  0  0  0  0  0  0  0  0  0  0  0
   -8.7733    4.0773   -0.9363 H   0  0  0  0  0  0  0  0  0  0  0  0
   -8.9842    3.9853    0.8421 H   0  0  0  0  0  0  0  0  0  0  0  0
  -10.3665    4.5075   -0.2116 H   0  0  0  0  0  0  0  0  0  0  0  0
  -11.8941    0.3453   -0.9953 H   0  0  0  0  0  0  0  0  0  0  0  0
  -14.4536    2.2246    1.5660 H   0  0  0  0  0  0  0  0  0  0  0  0
  -14.2858   -0.0682   -1.2530 H   0  0  0  0  0  0  0  0  0  0  0  0
  -15.4453    0.9911   -0.4309 H   0  0  0  0  0  0  0  0  0  0  0  0
   -7.2541    3.0449   -0.0458 H   0  0  0  0  0  0  0  0  0  0  0  0
    6.1833    0.6720    1.5587 H   0  0  0  0  0  0  0  0  0  0  0  0
    7.0166    1.7081    3.0990 H   0  0  0  0  0  0  0  0  0  0  0  0
    6.4118    2.7116    1.7065 H   0  0  0  0  0  0  0  0  0  0  0  0
    7.5870    3.4073    2.9730 H   0  0  0  0  0  0  0  0  0  0  0  0
   11.3691    1.7860    1.4723 H   0  0  0  0  0  0  0  0  0  0  0  0
    9.4553    4.2027   -0.3484 H   0  0  0  0  0  0  0  0  0  0  0  0
   12.5849    2.2187   -1.4202 H   0  0  0  0  0  0  0  0  0  0  0  0
   13.2732    3.3427   -0.1538 H   0  0  0  0  0  0  0  0  0  0  0  0
   10.0891    0.5386   -0.0061 H   0  0  0  0  0  0  0  0  0  0  0  0
   -0.6846    0.0000    0.0000 H   0  0  0  0  0  0  0  0  0  0  0  0
   -0.6916    0.0000    0.0000 H   0  0  0  0  0  0  0  0  0  0  0  0
   -0.6835    0.0000    0.0000 H   0  0  0  0  0  0  0  0  0  0  0  0
   -0.6861    0.0000    0.0000 H   0  0  0  0  0  0  0  0  0  0  0  0
  1  2  1  0
  2  3  2  3
  3  4  1  0
  4  5  1  0
  5  6  2  3
  5  7  1  0
  2  8  1  0
  8  9  2  0
  9 10  1  0
 10 11  1  0
 11 12  1  0
 12 13  2  0
 12 14  1  0
 14 15  1  0
 15 16  1  0
 16 17  1  0
 17 18  1  0
 18 19  1  0
 19 20  1  0
 20 21  1  0
 21 22  1  0
 22 23  2  0
 22 24  1  0
 24 25  1  0
 25 26  2  0
 26 27  1  0
 27 28  1  0
 28 29  1  0
 28 30  2  3
 30 31  1  0
 31 32  1  0
 32 33  2  3
 32 34  1  0
 27 35  2  0
 35 36  1  0
 36 37  1  0
 37 38  1  0
 37 39  2  3
 39 40  1  0
 40 41  1  0
 41 42  2  3
 41 43  1  0
 36 44  2  0
 10 45  2  0
 45 46  1  0
 46 47  1  0
 47 48  1  0
 47 49  2  3
 49 50  1  0
 50 51  1  0
 51 52  2  3
 51 53  1  0
 46 54  2  0
 54  8  1  0
 44 25  1  0
  1 59  1  0
  1 60  1  0
  1 61  1  0
  4 62  1  0
  6 63  1  0
  7 64  1  0
  7 65  1  0
  9 66  1  0
 11 67  1  0
 14 68  1  0
 14 69  1  0
 15 70  1  0
 15 71  1  0
 16 72  1  0
 16 73  1  0
 17 74  1  0
 17 75  1  0
 18 76  1  0
 18 77  1  0
 19 78  1  0
 19 79  1  0
 20 80  1  0
 20 81  1  0
 21 82  1  0
 21 83  1  0
 24 84  1  0
 26 85  1  0
 29 86  1  0
 29 87  1  0
 29 88  1  0
 31 89  1  0
 33 90  1  0
 34 91  1  0
 34 92  1  0
 35 93  1  0
 38 94  1  0
 38 95  1  0
 38 96  1  0
 40 97  1  0
 42 98  1  0
 43 99  1  0
 43100  1  0
 44101  1  0
 45102  1  0
 48103  1  0
 48104  1  0
 48105  1  0
 50106  1  0
 52107  1  0
 53108  1  0
 53109  1  0
 54110  1  0
 55111  1  0
 56112  1  0
 57113  1  0
 58114  1  0
M  END
$$$$
