
     RDKit          3D

 50 52  0  0  0  0  0  0  0  0999 V2000
    6.8256   -1.3431    2.3844 C   0  0  0  0  0  0  0  0  0  0  0  0
    6.1030   -0.1237    2.2648 O   0  0  0  0  0  0  0  0  0  0  0  0
    5.1182   -0.0820    1.3191 C   0  0  0  0  0  0  0  0  0  0  0  0
    4.4566    1.1387    1.2135 C   0  0  0  0  0  0  0  0  0  0  0  0
    3.4251    1.3181    0.2827 C   0  0  0  0  0  0  0  0  0  0  0  0
    3.0257    0.2779   -0.5691 C   0  0  0  0  0  0  0  0  0  0  0  0
    1.9703    0.4682   -1.5055 N   0  0  0  0  0  0  0  0  0  0  0  0
    1.2313    1.7100   -1.5978 C   0  0  0  0  0  0  0  0  0  0  0  0
    0.0270    1.3821   -2.4533 C   0  0  0  0  0  0  0  0  0  0  0  0
   -1.2036    1.0501   -1.6218 C   0  0  0  0  0  0  0  0  0  0  0  0
   -2.2526    1.6638   -1.7939 O   0  0  0  0  0  0  0  0  0  0  0  0
   -1.0555    0.0368   -0.7035 N   0  0  0  0  0  0  0  0  0  0  0  0
   -2.1148   -0.4388    0.1816 C   0  0  0  0  0  0  0  0  0  0  0  0
   -3.2539   -1.1220   -0.5876 C   0  0  0  0  0  0  0  0  0  0  0  0
   -4.4256   -1.4033    0.3454 C   0  0  0  0  0  0  0  0  0  0  0  0
   -5.0369   -0.1097    0.9110 C   0  0  0  0  0  0  0  0  0  0  0  0
   -5.6302   -0.3671    2.2974 C   0  0  0  0  0  0  0  0  0  0  0  0
   -4.0451    1.0668    0.9337 C   0  0  0  0  0  0  0  0  0  0  0  0
   -2.6014    0.6309    1.1769 C   0  0  0  0  0  0  0  0  0  0  0  0
    0.4715    0.2143   -3.3145 C   0  0  0  0  0  0  0  0  0  0  0  0
    1.5846   -0.4228   -2.5183 C   0  0  0  0  0  0  0  0  0  0  0  0
    2.0272   -1.5300   -2.7812 O   0  0  0  0  0  0  0  0  0  0  0  0
    3.6998   -0.9433   -0.4492 C   0  0  0  0  0  0  0  0  0  0  0  0
    4.7348   -1.1243    0.4826 C   0  0  0  0  0  0  0  0  0  0  0  0
    7.3508   -1.5843    1.4541 H   0  0  0  0  0  0  0  0  0  0  0  0
    6.1674   -2.1625    2.6918 H   0  0  0  0  0  0  0  0  0  0  0  0
    7.5787   -1.2100    3.1670 H   0  0  0  0  0  0  0  0  0  0  0  0
    4.7473    1.9641    1.8593 H   0  0  0  0  0  0  0  0  0  0  0  0
    2.9629    2.2995    0.2457 H   0  0  0  0  0  0  0  0  0  0  0  0
    1.8719    2.4488   -2.0934 H   0  0  0  0  0  0  0  0  0  0  0  0
    0.9397    2.0752   -0.6077 H   0  0  0  0  0  0  0  0  0  0  0  0
   -0.2448    2.2430   -3.0762 H   0  0  0  0  0  0  0  0  0  0  0  0
   -0.1398   -0.3755   -0.5630 H   0  0  0  0  0  0  0  0  0  0  0  0
   -1.6200   -1.2155    0.7813 H   0  0  0  0  0  0  0  0  0  0  0  0
   -2.8892   -2.0602   -1.0235 H   0  0  0  0  0  0  0  0  0  0  0  0
   -3.5978   -0.5089   -1.4286 H   0  0  0  0  0  0  0  0  0  0  0  0
   -5.1996   -1.9667   -0.1894 H   0  0  0  0  0  0  0  0  0  0  0  0
   -4.0795   -2.0541    1.1589 H   0  0  0  0  0  0  0  0  0  0  0  0
   -5.8696    0.1861    0.2584 H   0  0  0  0  0  0  0  0  0  0  0  0
   -6.1455    0.5241    2.6713 H   0  0  0  0  0  0  0  0  0  0  0  0
   -6.3598   -1.1832    2.2612 H   0  0  0  0  0  0  0  0  0  0  0  0
   -4.8535   -0.6369    3.0209 H   0  0  0  0  0  0  0  0  0  0  0  0
   -4.3401    1.8071    1.6869 H   0  0  0  0  0  0  0  0  0  0  0  0
   -4.1000    1.5866   -0.0302 H   0  0  0  0  0  0  0  0  0  0  0  0
   -2.5391    0.2155    2.1913 H   0  0  0  0  0  0  0  0  0  0  0  0
   -1.9433    1.5079    1.1709 H   0  0  0  0  0  0  0  0  0  0  0  0
   -0.3260   -0.5112   -3.4993 H   0  0  0  0  0  0  0  0  0  0  0  0
    0.8888    0.5593   -4.2660 H   0  0  0  0  0  0  0  0  0  0  0  0
    3.4444   -1.7990   -1.0667 H   0  0  0  0  0  0  0  0  0  0  0  0
    5.2143   -2.0971    0.5210 H   0  0  0  0  0  0  0  0  0  0  0  0
  1  2  1  0
  2  3  1  0
  3  4  2  0
  4  5  1  0
  5  6  2  0
  6  7  1  0
  7  8  1  0
  8  9  1  0
  9 10  1  0
 10 11  2  0
 10 12  1  0
 12 13  1  0
 13 14  1  0
 14 15  1  0
 15 16  1  0
 16 17  1  0
 16 18  1  0
 18 19  1  0
  9 20  1  0
 20 21  1  0
 21 22  2  0
  6 23  1  0
 23 24  2  0
 24  3  1  0
 21  7  1  0
 19 13  1  0
  1 25  1  0
  1 26  1  0
  1 27  1  0
  4 28  1  0
  5 29  1  0
  8 30  1  0
  8 31  1  0
  9 32  1  0
 12 33  1  0
 13 34  1  0
 14 35  1  0
 14 36  1  0
 15 37  1  0
 15 38  1  0
 16 39  1  0
 17 40  1  0
 17 41  1  0
 17 42  1  0
 18 43  1  0
 18 44  1  0
 19 45  1  0
 19 46  1  0
 20 47  1  0
 20 48  1  0
 23 49  1  0
 24 50  1  0
M  END
$$$$
