
     RDKit          3D

 49 51  0  0  0  0  0  0  0  0999 V2000
    1.7459    2.4769   -2.7148 C   0  0  0  0  0  0  0  0  0  0  0  0
    2.3688    1.4272   -1.9849 O   0  0  0  0  0  0  0  0  0  0  0  0
    1.5674    0.6153   -1.2269 C   0  0  0  0  0  0  0  0  0  0  0  0
    0.1771    0.7334   -1.1424 C   0  0  0  0  0  0  0  0  0  0  0  0
   -0.5759   -0.1457   -0.3434 C   0  0  0  0  0  0  0  0  0  0  0  0
   -2.0450    0.0376   -0.2895 C   0  0  0  0  0  0  0  0  0  0  0  0
   -2.7660   -0.5896   -1.2372 C   0  0  0  0  0  0  0  0  0  0  0  0
   -4.1453   -0.5065   -1.3277 N   0  0  0  0  0  0  0  0  0  0  0  0
   -4.8117   -1.2376   -2.3952 C   0  0  0  0  0  0  0  0  0  0  0  0
   -4.9119    0.2396   -0.4308 C   0  0  0  0  0  0  0  0  0  0  0  0
   -6.1342    0.3431   -0.4819 O   0  0  0  0  0  0  0  0  0  0  0  0
   -4.1673    0.9398    0.6349 C   0  0  0  0  0  0  0  0  0  0  0  0
   -4.8403    1.7034    1.5774 C   0  0  0  0  0  0  0  0  0  0  0  0
   -4.2213    2.3708    2.5816 N   0  0  0  0  0  0  0  0  0  0  0  0
   -2.8773    2.2592    2.6419 C   0  0  0  0  0  0  0  0  0  0  0  0
   -2.1213    1.5202    1.7436 C   0  0  0  0  0  0  0  0  0  0  0  0
   -2.7767    0.8432    0.7101 C   0  0  0  0  0  0  0  0  0  0  0  0
    0.0658   -1.1621    0.3838 C   0  0  0  0  0  0  0  0  0  0  0  0
   -0.7403   -1.9739    1.1384 O   0  0  0  0  0  0  0  0  0  0  0  0
   -0.1061   -2.9483    1.9569 C   0  0  0  0  0  0  0  0  0  0  0  0
    1.4535   -1.2815    0.2927 C   0  0  0  0  0  0  0  0  0  0  0  0
    2.2171   -0.3958   -0.4981 C   0  0  0  0  0  0  0  0  0  0  0  0
    3.7233   -0.5920   -0.5661 C   0  0  0  0  0  0  0  0  0  0  0  0
    4.3640   -0.6640    0.7649 N   0  0  0  0  0  0  0  0  0  0  0  0
    4.3564    0.6484    1.4190 C   0  0  0  0  0  0  0  0  0  0  0  0
    5.7428   -1.1377    0.6269 C   0  0  0  0  0  0  0  0  0  0  0  0
    1.2452    3.1821   -2.0432 H   0  0  0  0  0  0  0  0  0  0  0  0
    1.0525    2.0792   -3.4632 H   0  0  0  0  0  0  0  0  0  0  0  0
    2.5301    3.0244   -3.2465 H   0  0  0  0  0  0  0  0  0  0  0  0
   -0.3550    1.5061   -1.6891 H   0  0  0  0  0  0  0  0  0  0  0  0
   -2.2825   -1.2070   -1.9921 H   0  0  0  0  0  0  0  0  0  0  0  0
   -5.8952   -1.0932   -2.3747 H   0  0  0  0  0  0  0  0  0  0  0  0
   -4.5987   -2.3054   -2.2821 H   0  0  0  0  0  0  0  0  0  0  0  0
   -4.4300   -0.8875   -3.3596 H   0  0  0  0  0  0  0  0  0  0  0  0
   -5.9223    1.8051    1.5551 H   0  0  0  0  0  0  0  0  0  0  0  0
   -2.4047    2.7966    3.4597 H   0  0  0  0  0  0  0  0  0  0  0  0
   -1.0440    1.4769    1.8635 H   0  0  0  0  0  0  0  0  0  0  0  0
   -0.8863   -3.4703    2.5194 H   0  0  0  0  0  0  0  0  0  0  0  0
    0.5684   -2.4796    2.6811 H   0  0  0  0  0  0  0  0  0  0  0  0
    0.4184   -3.6921    1.3483 H   0  0  0  0  0  0  0  0  0  0  0  0
    1.9887   -2.0562    0.8353 H   0  0  0  0  0  0  0  0  0  0  0  0
    4.2105    0.1793   -1.1744 H   0  0  0  0  0  0  0  0  0  0  0  0
    3.8770   -1.5406   -1.0992 H   0  0  0  0  0  0  0  0  0  0  0  0
    4.8832    1.4083    0.8302 H   0  0  0  0  0  0  0  0  0  0  0  0
    3.3342    0.9980    1.5985 H   0  0  0  0  0  0  0  0  0  0  0  0
    4.8346    0.5863    2.4033 H   0  0  0  0  0  0  0  0  0  0  0  0
    6.2203   -1.2237    1.6094 H   0  0  0  0  0  0  0  0  0  0  0  0
    5.7632   -2.1391    0.1826 H   0  0  0  0  0  0  0  0  0  0  0  0
    6.3509   -0.4709    0.0046 H   0  0  0  0  0  0  0  0  0  0  0  0
  1  2  1  0
  2  3  1  0
  3  4  2  0
  4  5  1  0
  5  6  1  0
  6  7  2  0
  7  8  1  0
  8  9  1  0
  8 10  1  0
 10 11  2  0
 10 12  1  0
 12 13  2  0
 13 14  1  0
 14 15  2  0
 15 16  1  0
 16 17  2  0
  5 18  2  0
 18 19  1  0
 19 20  1  0
 18 21  1  0
 21 22  2  0
 22 23  1  0
 23 24  1  0
 24 25  1  0
 24 26  1  0
 22  3  1  0
 17  6  1  0
 17 12  1  0
  1 27  1  0
  1 28  1  0
  1 29  1  0
  4 30  1  0
  7 31  1  0
  9 32  1  0
  9 33  1  0
  9 34  1  0
 13 35  1  0
 15 36  1  0
 16 37  1  0
 20 38  1  0
 20 39  1  0
 20 40  1  0
 21 41  1  0
 23 42  1  0
 23 43  1  0
 25 44  1  0
 25 45  1  0
 25 46  1  0
 26 47  1  0
 26 48  1  0
 26 49  1  0
M  END
$$$$
