
     RDKit          3D

 54 53  0  0  0  0  0  0  0  0999 V2000
   -8.3125   -1.0534   -1.8390 C   0  0  0  0  0  0  0  0  0  0  0  0
   -8.5836   -1.6188   -0.4528 C   0  0  0  0  0  0  0  0  0  0  0  0
   -8.0222   -0.7573    0.6803 C   0  0  0  0  0  0  0  0  0  0  0  0
   -6.4926   -0.6768    0.6806 C   0  0  0  0  0  0  0  0  0  0  0  0
   -5.9808    0.0983    1.9011 C   0  0  0  0  0  0  0  0  0  0  0  0
   -4.4881    0.2638    2.0208 C   0  0  0  0  0  0  0  0  0  0  0  0
   -3.5464   -0.1932    1.1787 C   0  0  0  0  0  0  0  0  0  0  0  0
   -2.0712    0.0181    1.3714 C   0  0  0  0  0  0  0  0  0  0  0  0
   -1.4963    0.8400    0.2540 C   0  0  0  0  0  0  0  0  0  0  0  0
   -0.5593    0.4007   -0.6032 C   0  0  0  0  0  0  0  0  0  0  0  0
    0.0083    1.2227   -1.7257 C   0  0  0  0  0  0  0  0  0  0  0  0
    1.4773    1.5373   -1.6114 C   0  0  0  0  0  0  0  0  0  0  0  0
    2.3010    1.2748   -0.5812 C   0  0  0  0  0  0  0  0  0  0  0  0
    3.7580    1.6376   -0.5549 C   0  0  0  0  0  0  0  0  0  0  0  0
    4.6188    0.4094   -0.4840 C   0  0  0  0  0  0  0  0  0  0  0  0
    5.4514    0.1276    0.5309 C   0  0  0  0  0  0  0  0  0  0  0  0
    6.3103   -1.1036    0.5906 C   0  0  0  0  0  0  0  0  0  0  0  0
    7.8056   -0.7814    0.6306 C   0  0  0  0  0  0  0  0  0  0  0  0
    8.3015   -0.1036   -0.6442 C   0  0  0  0  0  0  0  0  0  0  0  0
    9.7953    0.0433   -0.6310 C   0  0  0  0  0  0  0  0  0  0  0  0
   10.5829   -0.5343   -1.3618 O   0  0  0  0  0  0  0  0  0  0  0  0
   10.2298    0.9195    0.2948 O   0  0  0  0  0  0  0  0  0  0  0  0
   -8.6752   -0.0237   -1.9217 H   0  0  0  0  0  0  0  0  0  0  0  0
   -8.8249   -1.6553   -2.5963 H   0  0  0  0  0  0  0  0  0  0  0  0
   -7.2444   -1.0652   -2.0757 H   0  0  0  0  0  0  0  0  0  0  0  0
   -9.6685   -1.7045   -0.3174 H   0  0  0  0  0  0  0  0  0  0  0  0
   -8.1752   -2.6342   -0.3872 H   0  0  0  0  0  0  0  0  0  0  0  0
   -8.4459    0.2528    0.6185 H   0  0  0  0  0  0  0  0  0  0  0  0
   -8.3599   -1.1837    1.6333 H   0  0  0  0  0  0  0  0  0  0  0  0
   -6.1498   -0.1808   -0.2351 H   0  0  0  0  0  0  0  0  0  0  0  0
   -6.0764   -1.6923    0.6833 H   0  0  0  0  0  0  0  0  0  0  0  0
   -6.3334   -0.3994    2.8132 H   0  0  0  0  0  0  0  0  0  0  0  0
   -6.4265    1.1011    1.8976 H   0  0  0  0  0  0  0  0  0  0  0  0
   -4.1698    0.8255    2.8988 H   0  0  0  0  0  0  0  0  0  0  0  0
   -3.8253   -0.7605    0.2941 H   0  0  0  0  0  0  0  0  0  0  0  0
   -1.8665    0.5288    2.3205 H   0  0  0  0  0  0  0  0  0  0  0  0
   -1.5834   -0.9626    1.4307 H   0  0  0  0  0  0  0  0  0  0  0  0
   -1.8741    1.8570    0.1632 H   0  0  0  0  0  0  0  0  0  0  0  0
   -0.1812   -0.6160   -0.5138 H   0  0  0  0  0  0  0  0  0  0  0  0
   -0.5367    2.1699   -1.8244 H   0  0  0  0  0  0  0  0  0  0  0  0
   -0.1525    0.6716   -2.6608 H   0  0  0  0  0  0  0  0  0  0  0  0
    1.8878    2.0439   -2.4846 H   0  0  0  0  0  0  0  0  0  0  0  0
    1.9222    0.7846    0.3132 H   0  0  0  0  0  0  0  0  0  0  0  0
    3.9381    2.2948    0.3040 H   0  0  0  0  0  0  0  0  0  0  0  0
    4.0381    2.2068   -1.4491 H   0  0  0  0  0  0  0  0  0  0  0  0
    4.5483   -0.2730   -1.3295 H   0  0  0  0  0  0  0  0  0  0  0  0
    5.5199    0.8091    1.3774 H   0  0  0  0  0  0  0  0  0  0  0  0
    6.0438   -1.6598    1.4977 H   0  0  0  0  0  0  0  0  0  0  0  0
    6.1012   -1.7695   -0.2557 H   0  0  0  0  0  0  0  0  0  0  0  0
    8.3604   -1.7159    0.7832 H   0  0  0  0  0  0  0  0  0  0  0  0
    8.0276   -0.1496    1.5001 H   0  0  0  0  0  0  0  0  0  0  0  0
    8.0315   -0.7005   -1.5234 H   0  0  0  0  0  0  0  0  0  0  0  0
    7.8600    0.8895   -0.7811 H   0  0  0  0  0  0  0  0  0  0  0  0
   11.2036    0.9189    0.1826 H   0  0  0  0  0  0  0  0  0  0  0  0
  1  2  1  0
  2  3  1  0
  3  4  1  0
  4  5  1  0
  5  6  1  0
  6  7  2  0
  7  8  1  0
  8  9  1  0
  9 10  2  0
 10 11  1  0
 11 12  1  0
 12 13  2  0
 13 14  1  0
 14 15  1  0
 15 16  2  0
 16 17  1  0
 17 18  1  0
 18 19  1  0
 19 20  1  0
 20 21  2  0
 20 22  1  0
  1 23  1  0
  1 24  1  0
  1 25  1  0
  2 26  1  0
  2 27  1  0
  3 28  1  0
  3 29  1  0
  4 30  1  0
  4 31  1  0
  5 32  1  0
  5 33  1  0
  6 34  1  0
  7 35  1  0
  8 36  1  0
  8 37  1  0
  9 38  1  0
 10 39  1  0
 11 40  1  0
 11 41  1  0
 12 42  1  0
 13 43  1  0
 14 44  1  0
 14 45  1  0
 15 46  1  0
 16 47  1  0
 17 48  1  0
 17 49  1  0
 18 50  1  0
 18 51  1  0
 19 52  1  0
 19 53  1  0
 22 54  1  0
M  END
$$$$
