
     RDKit          3D

 48 51  0  0  0  0  0  0  0  0999 V2000
    4.0579   -3.6263    0.7253 C   0  0  0  0  0  0  0  0  0  0  0  0
    4.0747   -2.3661    2.0308 S   0  0  0  0  0  0  0  0  0  0  0  0
    3.3628   -1.0217    1.1083 C   0  0  0  0  0  0  0  0  0  0  0  0
    4.1786   -0.1293    0.4258 C   0  0  0  0  0  0  0  0  0  0  0  0
    3.6060    0.9178   -0.2949 C   0  0  0  0  0  0  0  0  0  0  0  0
    2.2089    1.1035   -0.3450 C   0  0  0  0  0  0  0  0  0  0  0  0
    1.3628    0.2007    0.3291 C   0  0  0  0  0  0  0  0  0  0  0  0
    1.9778   -0.8502    1.0621 C   0  0  0  0  0  0  0  0  0  0  0  0
   -0.1778    0.2176    0.3773 C   0  0  0  0  0  0  0  0  0  0  0  0
   -0.6899   -1.0843   -0.1205 N   0  0  0  0  0  0  0  0  0  0  0  0
   -0.6213   -1.2816   -1.5784 C   0  0  0  0  0  0  0  0  0  0  0  0
   -2.0076   -1.3748   -2.2566 C   0  0  0  0  0  0  0  0  0  0  0  0
   -2.8395   -2.4722   -1.7271 N   0  0  0  0  0  0  0  0  0  0  0  0
   -4.2524   -2.2296   -2.0068 C   0  0  0  0  0  0  0  0  0  0  0  0
   -2.5927   -2.7007   -0.2885 C   0  0  0  0  0  0  0  0  0  0  0  0
   -1.9806   -1.4910    0.4532 C   0  0  0  0  0  0  0  0  0  0  0  0
   -0.9535    1.4252   -0.2131 C   0  0  0  0  0  0  0  0  0  0  0  0
   -0.5210    2.7549    0.3576 C   0  0  0  0  0  0  0  0  0  0  0  0
   -1.3003    3.4042    1.3264 C   0  0  0  0  0  0  0  0  0  0  0  0
   -0.8957    4.6336    1.8484 C   0  0  0  0  0  0  0  0  0  0  0  0
    0.2876    5.2239    1.4084 C   0  0  0  0  0  0  0  0  0  0  0  0
    1.0714    4.5829    0.4483 C   0  0  0  0  0  0  0  0  0  0  0  0
    0.6745    3.3481   -0.0738 C   0  0  0  0  0  0  0  0  0  0  0  0
    1.6942    2.5347   -1.2874 S   0  0  0  0  0  0  0  0  0  0  0  0
    4.6816   -3.3141   -0.1198 H   0  0  0  0  0  0  0  0  0  0  0  0
    3.0363   -3.8057    0.3689 H   0  0  0  0  0  0  0  0  0  0  0  0
    4.4565   -4.5638    1.1236 H   0  0  0  0  0  0  0  0  0  0  0  0
    5.2603   -0.2370    0.4484 H   0  0  0  0  0  0  0  0  0  0  0  0
    4.2708    1.6061   -0.8158 H   0  0  0  0  0  0  0  0  0  0  0  0
    1.3433   -1.5563    1.5991 H   0  0  0  0  0  0  0  0  0  0  0  0
   -0.3869    0.2512    1.4596 H   0  0  0  0  0  0  0  0  0  0  0  0
   -0.0255   -0.5082   -2.0751 H   0  0  0  0  0  0  0  0  0  0  0  0
   -0.0833   -2.2213   -1.7581 H   0  0  0  0  0  0  0  0  0  0  0  0
   -2.5161   -0.4106   -2.1296 H   0  0  0  0  0  0  0  0  0  0  0  0
   -1.8688   -1.5250   -3.3327 H   0  0  0  0  0  0  0  0  0  0  0  0
   -4.8572   -3.0922   -1.7065 H   0  0  0  0  0  0  0  0  0  0  0  0
   -4.6306   -1.3440   -1.4827 H   0  0  0  0  0  0  0  0  0  0  0  0
   -4.4148   -2.0918   -3.0819 H   0  0  0  0  0  0  0  0  0  0  0  0
   -3.5052   -3.0231    0.2294 H   0  0  0  0  0  0  0  0  0  0  0  0
   -1.8952   -3.5447   -0.2061 H   0  0  0  0  0  0  0  0  0  0  0  0
   -1.8323   -1.7608    1.5052 H   0  0  0  0  0  0  0  0  0  0  0  0
   -2.7116   -0.6746    0.4309 H   0  0  0  0  0  0  0  0  0  0  0  0
   -2.0259    1.3100   -0.0142 H   0  0  0  0  0  0  0  0  0  0  0  0
   -0.8857    1.4619   -1.3070 H   0  0  0  0  0  0  0  0  0  0  0  0
   -2.2276    2.9583    1.6801 H   0  0  0  0  0  0  0  0  0  0  0  0
   -1.5047    5.1331    2.5986 H   0  0  0  0  0  0  0  0  0  0  0  0
    0.6025    6.1822    1.8143 H   0  0  0  0  0  0  0  0  0  0  0  0
    1.9952    5.0506    0.1159 H   0  0  0  0  0  0  0  0  0  0  0  0
  1  2  1  0
  2  3  1  0
  3  4  2  0
  4  5  1  0
  5  6  2  0
  6  7  1  0
  7  8  2  0
  7  9  1  0
  9 10  1  0
 10 11  1  0
 11 12  1  0
 12 13  1  0
 13 14  1  0
 13 15  1  0
 15 16  1  0
  9 17  1  0
 17 18  1  0
 18 19  2  0
 19 20  1  0
 20 21  2  0
 21 22  1  0
 22 23  2  0
 23 24  1  0
  8  3  1  0
 16 10  1  0
 23 18  1  0
 24  6  1  0
  1 25  1  0
  1 26  1  0
  1 27  1  0
  4 28  1  0
  5 29  1  0
  8 30  1  0
  9 31  1  0
 11 32  1  0
 11 33  1  0
 12 34  1  0
 12 35  1  0
 14 36  1  0
 14 37  1  0
 14 38  1  0
 15 39  1  0
 15 40  1  0
 16 41  1  0
 16 42  1  0
 17 43  1  0
 17 44  1  0
 19 45  1  0
 20 46  1  0
 21 47  1  0
 22 48  1  0
M  END
$$$$
