
     RDKit          3D

 47 50  0  0  0  0  0  0  0  0999 V2000
    5.6796    3.9903    1.0843 C   0  0  0  0  0  0  0  0  0  0  0  0
    4.6816    2.9408    0.8144 C   0  0  0  0  0  0  0  0  0  0  0  0
    4.7517    1.6150    0.4742 C   0  0  0  0  0  0  0  0  0  0  0  0
    3.3956    1.1922    0.3525 C   0  0  0  0  0  0  0  0  0  0  0  0
    2.9229   -0.1445   -0.0058 C   0  0  0  0  0  0  0  0  0  0  0  0
    3.8564   -1.0292   -0.2576 N   0  0  0  0  0  0  0  0  0  0  0  0
    3.5231   -2.3622   -0.6241 N   0  0  0  0  0  0  0  0  0  0  0  0
    2.2788   -2.7234   -0.7192 C   0  0  0  0  0  0  0  0  0  0  0  0
    1.2210   -1.8091   -0.4585 C   0  0  0  0  0  0  0  0  0  0  0  0
   -0.1661   -1.8690   -0.4751 C   0  0  0  0  0  0  0  0  0  0  0  0
   -1.0672   -3.0520   -0.8169 C   0  0  0  0  0  0  0  0  0  0  0  0
   -2.5715   -2.7165   -0.7188 C   0  0  0  0  0  0  0  0  0  0  0  0
   -0.8059   -3.5212   -2.2636 C   0  0  0  0  0  0  0  0  0  0  0  0
   -0.8054   -4.2221    0.1550 C   0  0  0  0  0  0  0  0  0  0  0  0
   -0.5199   -0.5472   -0.0857 C   0  0  0  0  0  0  0  0  0  0  0  0
   -1.7685   -0.0526    0.0340 O   0  0  0  0  0  0  0  0  0  0  0  0
   -1.8426    1.1921    0.7348 C   0  0  0  0  0  0  0  0  0  0  0  0
   -3.2907    1.5392    0.8368 C   0  0  0  0  0  0  0  0  0  0  0  0
   -4.2690    0.7866    1.3112 N   0  0  0  0  0  0  0  0  0  0  0  0
   -5.3725    1.5767    1.1817 C   0  0  0  0  0  0  0  0  0  0  0  0
   -5.1468    2.7872    0.6707 N   0  0  0  0  0  0  0  0  0  0  0  0
   -3.8157    2.7489    0.4638 N   0  0  0  0  0  0  0  0  0  0  0  0
   -3.1287    3.9039   -0.0611 C   0  0  0  0  0  0  0  0  0  0  0  0
    0.5224    0.2513    0.1312 N   0  0  0  0  0  0  0  0  0  0  0  0
    1.5847   -0.5409   -0.1030 N   0  0  0  0  0  0  0  0  0  0  0  0
    2.5730    2.2217    0.6106 N   0  0  0  0  0  0  0  0  0  0  0  0
    3.3771    3.3065    0.8954 O   0  0  0  0  0  0  0  0  0  0  0  0
    5.3702    4.6080    1.9341 H   0  0  0  0  0  0  0  0  0  0  0  0
    6.6588    3.5556    1.3144 H   0  0  0  0  0  0  0  0  0  0  0  0
    5.7897    4.6418    0.2100 H   0  0  0  0  0  0  0  0  0  0  0  0
    5.6428    1.0217    0.3261 H   0  0  0  0  0  0  0  0  0  0  0  0
    2.0584   -3.7621   -1.0075 H   0  0  0  0  0  0  0  0  0  0  0  0
   -2.8502   -2.4066    0.2952 H   0  0  0  0  0  0  0  0  0  0  0  0
   -3.1891   -3.5880   -0.9695 H   0  0  0  0  0  0  0  0  0  0  0  0
   -2.8518   -1.9153   -1.4122 H   0  0  0  0  0  0  0  0  0  0  0  0
   -1.4654   -4.3534   -2.5372 H   0  0  0  0  0  0  0  0  0  0  0  0
   -0.9805   -2.7086   -2.9779 H   0  0  0  0  0  0  0  0  0  0  0  0
    0.2228   -3.8650   -2.4069 H   0  0  0  0  0  0  0  0  0  0  0  0
   -0.9758   -3.9156    1.1946 H   0  0  0  0  0  0  0  0  0  0  0  0
    0.2218   -4.5935    0.0893 H   0  0  0  0  0  0  0  0  0  0  0  0
   -1.4686   -5.0692   -0.0564 H   0  0  0  0  0  0  0  0  0  0  0  0
   -1.2963    1.9697    0.1863 H   0  0  0  0  0  0  0  0  0  0  0  0
   -1.4349    1.0909    1.7503 H   0  0  0  0  0  0  0  0  0  0  0  0
   -6.3677    1.2620    1.4715 H   0  0  0  0  0  0  0  0  0  0  0  0
   -2.2981    4.1504    0.6067 H   0  0  0  0  0  0  0  0  0  0  0  0
   -2.7649    3.6638   -1.0638 H   0  0  0  0  0  0  0  0  0  0  0  0
   -3.8184    4.7509   -0.1081 H   0  0  0  0  0  0  0  0  0  0  0  0
  1  2  1  0
  2  3  2  0
  3  4  1  0
  4  5  1  0
  5  6  2  0
  6  7  1  0
  7  8  2  0
  8  9  1  0
  9 10  2  0
 10 11  1  0
 11 12  1  0
 11 13  1  0
 11 14  1  0
 10 15  1  0
 15 16  1  0
 16 17  1  0
 17 18  1  0
 18 19  2  0
 19 20  1  0
 20 21  2  0
 21 22  1  0
 22 23  1  0
 15 24  2  0
 24 25  1  0
  4 26  2  0
 26 27  1  0
 27  2  1  0
 25  5  1  0
 25  9  1  0
 22 18  1  0
  1 28  1  0
  1 29  1  0
  1 30  1  0
  3 31  1  0
  8 32  1  0
 12 33  1  0
 12 34  1  0
 12 35  1  0
 13 36  1  0
 13 37  1  0
 13 38  1  0
 14 39  1  0
 14 40  1  0
 14 41  1  0
 17 42  1  0
 17 43  1  0
 20 44  1  0
 23 45  1  0
 23 46  1  0
 23 47  1  0
M  END
$$$$
