
     RDKit          3D

 51 53  0  0  0  0  0  0  0  0999 V2000
    8.0715    2.5813   -1.0534 C   0  0  0  0  0  0  0  0  0  0  0  0
    7.5205    2.4310    0.2495 O   0  0  0  0  0  0  0  0  0  0  0  0
    6.3456    1.6711    0.1390 N   0  0  0  0  0  0  0  0  0  0  0  0
    5.8217    1.5239    1.3084 C   0  0  0  0  0  0  0  0  0  0  0  0
    4.6935    0.8681    1.7146 N   0  0  0  0  0  0  0  0  0  0  0  0
    3.8857    0.1585    0.9128 C   0  0  0  0  0  0  0  0  0  0  0  0
    4.0700    0.0437   -0.4281 N   0  0  0  0  0  0  0  0  0  0  0  0
    3.0862   -0.7243   -0.8325 C   0  0  0  0  0  0  0  0  0  0  0  0
    2.7984   -1.1651   -2.0934 N   0  0  0  0  0  0  0  0  0  0  0  0
    1.7512   -1.9190   -2.2022 C   0  0  0  0  0  0  0  0  0  0  0  0
    0.8529   -2.3406   -1.0966 C   0  0  0  0  0  0  0  0  0  0  0  0
    1.1694   -1.8907    0.1340 C   0  0  0  0  0  0  0  0  0  0  0  0
    0.3222   -2.2227    1.3418 C   0  0  0  0  0  0  0  0  0  0  0  0
    1.0794   -3.0104    2.4114 C   0  0  0  0  0  0  0  0  0  0  0  0
   -0.1896   -1.0232    1.9500 O   0  0  0  0  0  0  0  0  0  0  0  0
   -1.3389   -0.5840    1.3542 C   0  0  0  0  0  0  0  0  0  0  0  0
   -2.5489   -1.2346    1.5611 C   0  0  0  0  0  0  0  0  0  0  0  0
   -3.7086   -0.7454    0.9537 C   0  0  0  0  0  0  0  0  0  0  0  0
   -3.6858    0.4072    0.1408 C   0  0  0  0  0  0  0  0  0  0  0  0
   -4.9844    0.9192   -0.5085 C   0  0  0  0  0  0  0  0  0  0  0  0
   -5.9797    1.3323    0.5960 C   0  0  0  0  0  0  0  0  0  0  0  0
   -4.7821    2.1437   -1.4290 C   0  0  0  0  0  0  0  0  0  0  0  0
   -5.6166   -0.1951   -1.3719 C   0  0  0  0  0  0  0  0  0  0  0  0
   -2.4504    1.0603   -0.0189 C   0  0  0  0  0  0  0  0  0  0  0  0
   -1.2887    0.5756    0.5911 C   0  0  0  0  0  0  0  0  0  0  0  0
    2.2997   -1.0708    0.2745 N   0  0  0  0  0  0  0  0  0  0  0  0
    2.8289   -0.5051    1.3837 N   0  0  0  0  0  0  0  0  0  0  0  0
    8.2694    1.6023   -1.4993 H   0  0  0  0  0  0  0  0  0  0  0  0
    9.0150    3.1265   -0.9698 H   0  0  0  0  0  0  0  0  0  0  0  0
    7.3876    3.1525   -1.6883 H   0  0  0  0  0  0  0  0  0  0  0  0
    6.3226    1.9855    2.1797 H   0  0  0  0  0  0  0  0  0  0  0  0
    4.4743    0.8628    2.6998 H   0  0  0  0  0  0  0  0  0  0  0  0
    1.4735   -2.3014   -3.1992 H   0  0  0  0  0  0  0  0  0  0  0  0
   -0.0028   -2.9603   -1.3285 H   0  0  0  0  0  0  0  0  0  0  0  0
   -0.5089   -2.8727    1.0307 H   0  0  0  0  0  0  0  0  0  0  0  0
    1.5691   -3.8938    1.9904 H   0  0  0  0  0  0  0  0  0  0  0  0
    0.3807   -3.3436    3.1874 H   0  0  0  0  0  0  0  0  0  0  0  0
    1.8279   -2.3991    2.9243 H   0  0  0  0  0  0  0  0  0  0  0  0
   -2.6030   -2.1096    2.2019 H   0  0  0  0  0  0  0  0  0  0  0  0
   -4.6422   -1.2737    1.1370 H   0  0  0  0  0  0  0  0  0  0  0  0
   -5.5525    2.1077    1.2433 H   0  0  0  0  0  0  0  0  0  0  0  0
   -6.9056    1.7302    0.1649 H   0  0  0  0  0  0  0  0  0  0  0  0
   -6.2598    0.4889    1.2364 H   0  0  0  0  0  0  0  0  0  0  0  0
   -4.3905    3.0057   -0.8762 H   0  0  0  0  0  0  0  0  0  0  0  0
   -5.7303    2.4575   -1.8811 H   0  0  0  0  0  0  0  0  0  0  0  0
   -4.0906    1.9207   -2.2491 H   0  0  0  0  0  0  0  0  0  0  0  0
   -4.9171   -0.5416   -2.1423 H   0  0  0  0  0  0  0  0  0  0  0  0
   -6.5215    0.1620   -1.8786 H   0  0  0  0  0  0  0  0  0  0  0  0
   -5.9098   -1.0666   -0.7762 H   0  0  0  0  0  0  0  0  0  0  0  0
   -2.3594    1.9670   -0.6108 H   0  0  0  0  0  0  0  0  0  0  0  0
   -0.3492    1.1080    0.4677 H   0  0  0  0  0  0  0  0  0  0  0  0
  1  2  1  0
  2  3  1  0
  3  4  2  0
  4  5  1  0
  5  6  1  0
  6  7  1  0
  7  8  2  0
  8  9  1  0
  9 10  2  0
 10 11  1  0
 11 12  2  0
 12 13  1  0
 13 14  1  0
 13 15  1  0
 15 16  1  0
 16 17  2  0
 17 18  1  0
 18 19  2  0
 19 20  1  0
 20 21  1  0
 20 22  1  0
 20 23  1  0
 19 24  1  0
 24 25  2  0
 12 26  1  0
 26 27  1  0
 27  6  2  0
 26  8  1  0
 25 16  1  0
  1 28  1  0
  1 29  1  0
  1 30  1  0
  4 31  1  0
  5 32  1  0
 10 33  1  0
 11 34  1  0
 13 35  1  0
 14 36  1  0
 14 37  1  0
 14 38  1  0
 17 39  1  0
 18 40  1  0
 21 41  1  0
 21 42  1  0
 21 43  1  0
 22 44  1  0
 22 45  1  0
 22 46  1  0
 23 47  1  0
 23 48  1  0
 23 49  1  0
 24 50  1  0
 25 51  1  0
M  END
$$$$
