
     RDKit          3D

 43 46  0  0  0  0  0  0  0  0999 V2000
    0.0066    0.0790   -1.9389 O   0  0  0  0  0  0  0  0  0  0  0  0
   -0.5124   -0.5552   -0.7461 S   0  0  0  0  0  6  0  0  0  0  0  0
   -0.2446   -1.9471   -0.4466 O   0  0  0  0  0  0  0  0  0  0  0  0
   -2.2114   -0.3971   -0.7810 N   0  0  0  0  0  0  0  0  0  0  0  0
   -2.9536   -0.8789    0.4125 C   0  0  0  0  0  0  0  0  0  0  0  0
   -4.3272   -1.2379   -0.1318 C   0  0  0  0  0  0  0  0  0  0  0  0
   -3.9885   -1.8459   -1.4776 C   0  0  0  0  0  0  0  0  0  0  0  0
   -2.8741   -0.9469   -1.9969 C   0  0  0  0  0  0  0  0  0  0  0  0
    0.1198    0.3456    0.5378 N   0  0  0  0  0  0  0  0  0  0  0  0
    1.2022    0.0145    1.3201 C   0  0  0  0  0  0  0  0  0  0  0  0
    2.0927   -1.1775    1.1524 C   0  0  0  0  0  0  0  0  0  0  0  0
    3.0198   -1.0707   -0.0374 C   0  0  0  0  0  0  0  0  0  0  0  0
    3.9439   -0.0177   -0.1276 C   0  0  0  0  0  0  0  0  0  0  0  0
    4.8031    0.0814   -1.2226 C   0  0  0  0  0  0  0  0  0  0  0  0
    4.7528   -0.8724   -2.2366 C   0  0  0  0  0  0  0  0  0  0  0  0
    3.8460   -1.9272   -2.1548 C   0  0  0  0  0  0  0  0  0  0  0  0
    2.9863   -2.0288   -1.0597 C   0  0  0  0  0  0  0  0  0  0  0  0
    1.3735    0.9375    2.2552 N   0  0  0  0  0  0  0  0  0  0  0  0
    0.4679    1.9303    1.9775 C   0  0  0  0  0  0  0  0  0  0  0  0
    0.2730    3.1560    2.6313 C   0  0  0  0  0  0  0  0  0  0  0  0
   -0.6970    4.0371    2.1409 C   0  0  0  0  0  0  0  0  0  0  0  0
   -1.4560    3.7064    1.0184 C   0  0  0  0  0  0  0  0  0  0  0  0
   -1.2810    2.4853    0.3574 C   0  0  0  0  0  0  0  0  0  0  0  0
   -0.3142    1.6085    0.8718 C   0  0  0  0  0  0  0  0  0  0  0  0
   -2.4786   -1.7652    0.8458 H   0  0  0  0  0  0  0  0  0  0  0  0
   -3.0192   -0.0969    1.1732 H   0  0  0  0  0  0  0  0  0  0  0  0
   -4.8703   -1.9261    0.5215 H   0  0  0  0  0  0  0  0  0  0  0  0
   -4.9338   -0.3343   -0.2659 H   0  0  0  0  0  0  0  0  0  0  0  0
   -3.6138   -2.8679   -1.3437 H   0  0  0  0  0  0  0  0  0  0  0  0
   -4.8450   -1.8836   -2.1564 H   0  0  0  0  0  0  0  0  0  0  0  0
   -2.1925   -1.5067   -2.6438 H   0  0  0  0  0  0  0  0  0  0  0  0
   -3.2833   -0.1071   -2.5689 H   0  0  0  0  0  0  0  0  0  0  0  0
    1.5142   -2.1055    1.1345 H   0  0  0  0  0  0  0  0  0  0  0  0
    2.7240   -1.2674    2.0474 H   0  0  0  0  0  0  0  0  0  0  0  0
    3.9954    0.7355    0.6574 H   0  0  0  0  0  0  0  0  0  0  0  0
    5.5095    0.9048   -1.2845 H   0  0  0  0  0  0  0  0  0  0  0  0
    5.4188   -0.7930   -3.0915 H   0  0  0  0  0  0  0  0  0  0  0  0
    3.8043   -2.6703   -2.9467 H   0  0  0  0  0  0  0  0  0  0  0  0
    2.2841   -2.8592   -1.0168 H   0  0  0  0  0  0  0  0  0  0  0  0
    0.8785    3.4135    3.4936 H   0  0  0  0  0  0  0  0  0  0  0  0
   -0.8505    4.9936    2.6353 H   0  0  0  0  0  0  0  0  0  0  0  0
   -2.1962    4.4124    0.6460 H   0  0  0  0  0  0  0  0  0  0  0  0
   -1.8732    2.2448   -0.5206 H   0  0  0  0  0  0  0  0  0  0  0  0
  1  2  2  0
  2  3  2  0
  2  4  1  0
  4  5  1  0
  5  6  1  0
  6  7  1  0
  7  8  1  0
  2  9  1  0
  9 10  1  0
 10 11  1  0
 11 12  1  0
 12 13  2  0
 13 14  1  0
 14 15  2  0
 15 16  1  0
 16 17  2  0
 10 18  2  0
 18 19  1  0
 19 20  2  0
 20 21  1  0
 21 22  2  0
 22 23  1  0
 23 24  2  0
  8  4  1  0
 24  9  1  0
 17 12  1  0
 24 19  1  0
  5 25  1  0
  5 26  1  0
  6 27  1  0
  6 28  1  0
  7 29  1  0
  7 30  1  0
  8 31  1  0
  8 32  1  0
 11 33  1  0
 11 34  1  0
 13 35  1  0
 14 36  1  0
 15 37  1  0
 16 38  1  0
 17 39  1  0
 20 40  1  0
 21 41  1  0
 22 42  1  0
 23 43  1  0
M  END
$$$$
