
     RDKit          3D

 30 32  0  0  0  0  0  0  0  0999 V2000
   -0.0076    1.7061    1.1419 O   0  0  0  0  0  0  0  0  0  0  0  0
    0.3866    0.7351    0.5067 C   0  0  0  0  0  0  0  0  0  0  0  0
   -0.5375   -0.2554   -0.1164 C   0  0  0  0  0  0  0  0  0  0  0  0
   -2.0053   -0.1394   -0.0198 C   0  0  0  0  0  0  0  0  0  0  0  0
   -2.6434    1.0796   -0.2958 C   0  0  0  0  0  0  0  0  0  0  0  0
   -4.0343    1.1971   -0.2118 C   0  0  0  0  0  0  0  0  0  0  0  0
   -4.7928    0.0907    0.1515 C   0  0  0  0  0  0  0  0  0  0  0  0
   -6.1506    0.1594    0.2467 O   0  0  0  0  0  0  0  0  0  0  0  0
   -4.1845   -1.1250    0.4344 C   0  0  0  0  0  0  0  0  0  0  0  0
   -2.7945   -1.2401    0.3525 C   0  0  0  0  0  0  0  0  0  0  0  0
    0.0249   -1.2590   -0.8090 C   0  0  0  0  0  0  0  0  0  0  0  0
    1.3676   -1.4855   -0.9922 O   0  0  0  0  0  0  0  0  0  0  0  0
    2.2475   -0.6041   -0.4156 C   0  0  0  0  0  0  0  0  0  0  0  0
    3.6124   -0.8381   -0.5938 C   0  0  0  0  0  0  0  0  0  0  0  0
    4.0410   -1.9164   -1.3221 O   0  0  0  0  0  0  0  0  0  0  0  0
    4.5522    0.0271   -0.0300 C   0  0  0  0  0  0  0  0  0  0  0  0
    5.8833   -0.2181   -0.2146 O   0  0  0  0  0  0  0  0  0  0  0  0
    4.1362    1.1307    0.7142 C   0  0  0  0  0  0  0  0  0  0  0  0
    2.7708    1.3672    0.8931 C   0  0  0  0  0  0  0  0  0  0  0  0
    1.8302    0.4971    0.3265 C   0  0  0  0  0  0  0  0  0  0  0  0
   -2.0599    1.9559   -0.5732 H   0  0  0  0  0  0  0  0  0  0  0  0
   -4.4982    2.1542   -0.4279 H   0  0  0  0  0  0  0  0  0  0  0  0
   -6.4277    1.0718    0.0616 H   0  0  0  0  0  0  0  0  0  0  0  0
   -4.7889   -1.9796    0.7254 H   0  0  0  0  0  0  0  0  0  0  0  0
   -2.3375   -2.1966    0.5959 H   0  0  0  0  0  0  0  0  0  0  0  0
   -0.5409   -2.0253   -1.3267 H   0  0  0  0  0  0  0  0  0  0  0  0
    3.2511   -2.3930   -1.6302 H   0  0  0  0  0  0  0  0  0  0  0  0
    6.4036    0.4637    0.2379 H   0  0  0  0  0  0  0  0  0  0  0  0
    4.8548    1.8127    1.1592 H   0  0  0  0  0  0  0  0  0  0  0  0
    2.4414    2.2272    1.4736 H   0  0  0  0  0  0  0  0  0  0  0  0
  1  2  2  0
  2  3  1  0
  3  4  1  0
  4  5  2  0
  5  6  1  0
  6  7  2  0
  7  8  1  0
  7  9  1  0
  9 10  2  0
  3 11  2  0
 11 12  1  0
 12 13  1  0
 13 14  2  0
 14 15  1  0
 14 16  1  0
 16 17  1  0
 16 18  2  0
 18 19  1  0
 19 20  2  0
 20  2  1  0
 10  4  1  0
 20 13  1  0
  5 21  1  0
  6 22  1  0
  8 23  1  0
  9 24  1  0
 10 25  1  0
 11 26  1  0
 15 27  1  0
 17 28  1  0
 18 29  1  0
 19 30  1  0
M  END
$$$$
