
     RDKit          3D

 58 61  0  0  0  0  0  0  0  0999 V2000
   -8.9815   -1.5405   -0.5967 C   0  0  0  0  0  0  0  0  0  0  0  0
   -7.9565   -1.1773   -1.5123 O   0  0  0  0  0  0  0  0  0  0  0  0
   -6.7327   -0.8802   -0.9809 C   0  0  0  0  0  0  0  0  0  0  0  0
   -5.7524   -0.5514   -1.9127 C   0  0  0  0  0  0  0  0  0  0  0  0
   -4.4554   -0.2249   -1.5020 C   0  0  0  0  0  0  0  0  0  0  0  0
   -4.0910   -0.2278   -0.1411 C   0  0  0  0  0  0  0  0  0  0  0  0
   -2.6437    0.1459    0.2803 C   0  0  0  0  0  0  0  0  0  0  0  0
   -1.6637   -0.8106   -0.4765 C   0  0  0  0  0  0  0  0  0  0  0  0
   -0.2511   -0.5050   -0.2811 N   0  0  0  0  0  0  0  0  0  0  0  0
    0.6943   -1.5124   -0.2373 C   0  0  0  0  0  0  0  0  0  0  0  0
    0.4240   -2.7065   -0.2541 O   0  0  0  0  0  0  0  0  0  0  0  0
    2.1148   -1.0677   -0.2022 C   0  0  0  0  0  0  0  0  0  0  0  0
    3.0922   -1.8937   -0.7634 C   0  0  0  0  0  0  0  0  0  0  0  0
    4.4389   -1.5082   -0.7526 C   0  0  0  0  0  0  0  0  0  0  0  0
    4.8265   -0.2997   -0.1705 C   0  0  0  0  0  0  0  0  0  0  0  0
    6.1577    0.1652   -0.1115 N   0  0  0  0  0  0  0  0  0  0  0  0
    7.2930   -0.4239   -0.6571 C   0  0  0  0  0  0  0  0  0  0  0  0
    7.2805   -1.4580   -1.3185 O   0  0  0  0  0  0  0  0  0  0  0  0
    8.5261    0.3091   -0.3885 C   0  0  0  0  0  0  0  0  0  0  0  0
    8.8378    1.4159    0.3881 C   0  0  0  0  0  0  0  0  0  0  0  0
   10.2275    1.6522    0.2370 C   0  0  0  0  0  0  0  0  0  0  0  0
   10.6873    0.6811   -0.6171 C   0  0  0  0  0  0  0  0  0  0  0  0
    9.6735   -0.1335   -0.9981 O   0  0  0  0  0  0  0  0  0  0  0  0
    3.8435    0.5145    0.4113 C   0  0  0  0  0  0  0  0  0  0  0  0
    2.4959    0.1361    0.3987 C   0  0  0  0  0  0  0  0  0  0  0  0
   -2.3482    0.0163    1.8075 C   0  0  0  0  0  0  0  0  0  0  0  0
   -2.6666    1.2847    2.6029 C   0  0  0  0  0  0  0  0  0  0  0  0
   -3.6793    2.0585    1.9800 O   0  0  0  0  0  0  0  0  0  0  0  0
   -3.2892    2.5779    0.7090 C   0  0  0  0  0  0  0  0  0  0  0  0
   -2.3931    1.6280   -0.0926 C   0  0  0  0  0  0  0  0  0  0  0  0
   -5.1004   -0.5458    0.7821 C   0  0  0  0  0  0  0  0  0  0  0  0
   -6.4021   -0.8706    0.3701 C   0  0  0  0  0  0  0  0  0  0  0  0
   -9.8835   -1.7647   -1.1753 H   0  0  0  0  0  0  0  0  0  0  0  0
   -9.2171   -0.7123    0.0795 H   0  0  0  0  0  0  0  0  0  0  0  0
   -8.7118   -2.4431   -0.0388 H   0  0  0  0  0  0  0  0  0  0  0  0
   -5.9988   -0.5457   -2.9720 H   0  0  0  0  0  0  0  0  0  0  0  0
   -3.7380    0.0384   -2.2755 H   0  0  0  0  0  0  0  0  0  0  0  0
   -1.8109   -0.7683   -1.5611 H   0  0  0  0  0  0  0  0  0  0  0  0
   -1.8588   -1.8473   -0.1735 H   0  0  0  0  0  0  0  0  0  0  0  0
    0.0713    0.4017   -0.5900 H   0  0  0  0  0  0  0  0  0  0  0  0
    2.8122   -2.8440   -1.2159 H   0  0  0  0  0  0  0  0  0  0  0  0
    5.1567   -2.1873   -1.2034 H   0  0  0  0  0  0  0  0  0  0  0  0
    6.2907    1.0467    0.3608 H   0  0  0  0  0  0  0  0  0  0  0  0
    8.1602    1.9906    1.0024 H   0  0  0  0  0  0  0  0  0  0  0  0
   10.8214    2.4308    0.6959 H   0  0  0  0  0  0  0  0  0  0  0  0
   11.6575    0.4417   -1.0301 H   0  0  0  0  0  0  0  0  0  0  0  0
    4.1111    1.4539    0.8891 H   0  0  0  0  0  0  0  0  0  0  0  0
    1.7642    0.7750    0.8851 H   0  0  0  0  0  0  0  0  0  0  0  0
   -2.8649   -0.8480    2.2400 H   0  0  0  0  0  0  0  0  0  0  0  0
   -1.2878   -0.1967    1.9935 H   0  0  0  0  0  0  0  0  0  0  0  0
   -3.0079    1.0161    3.6082 H   0  0  0  0  0  0  0  0  0  0  0  0
   -1.7694    1.9040    2.7261 H   0  0  0  0  0  0  0  0  0  0  0  0
   -4.2089    2.7889    0.1532 H   0  0  0  0  0  0  0  0  0  0  0  0
   -2.7827    3.5375    0.8612 H   0  0  0  0  0  0  0  0  0  0  0  0
   -1.3526    1.8907    0.1404 H   0  0  0  0  0  0  0  0  0  0  0  0
   -2.5097    1.8230   -1.1653 H   0  0  0  0  0  0  0  0  0  0  0  0
   -4.9172   -0.5275    1.8528 H   0  0  0  0  0  0  0  0  0  0  0  0
   -7.1317   -1.1015    1.1389 H   0  0  0  0  0  0  0  0  0  0  0  0
  1  2  1  0
  2  3  1  0
  3  4  2  0
  4  5  1  0
  5  6  2  0
  6  7  1  0
  7  8  1  0
  8  9  1  0
  9 10  1  0
 10 11  2  0
 10 12  1  0
 12 13  2  0
 13 14  1  0
 14 15  2  0
 15 16  1  0
 16 17  1  0
 17 18  2  0
 17 19  1  0
 19 20  2  0
 20 21  1  0
 21 22  2  0
 22 23  1  0
 15 24  1  0
 24 25  2  0
  7 26  1  0
 26 27  1  0
 27 28  1  0
 28 29  1  0
 29 30  1  0
  6 31  1  0
 31 32  2  0
 32  3  1  0
 30  7  1  0
 25 12  1  0
 23 19  1  0
  1 33  1  0
  1 34  1  0
  1 35  1  0
  4 36  1  0
  5 37  1  0
  8 38  1  0
  8 39  1  0
  9 40  1  0
 13 41  1  0
 14 42  1  0
 16 43  1  0
 20 44  1  0
 21 45  1  0
 22 46  1  0
 24 47  1  0
 25 48  1  0
 26 49  1  0
 26 50  1  0
 27 51  1  0
 27 52  1  0
 29 53  1  0
 29 54  1  0
 30 55  1  0
 30 56  1  0
 31 57  1  0
 32 58  1  0
M  END
$$$$
