
     RDKit          3D

 39 40  0  0  0  0  0  0  0  0999 V2000
    5.4578    1.0407   -1.4263 C   0  0  0  0  0  0  0  0  0  0  0  0
    4.4182    0.1565   -0.8080 C   0  0  0  0  0  0  0  0  0  0  0  0
    3.4307   -0.3766   -1.5311 C   0  0  0  0  0  0  0  0  0  0  0  0
    2.4264   -1.1890   -0.8329 C   0  0  0  0  0  0  0  0  0  0  0  0
    1.4753   -1.6698   -1.4579 O   0  0  0  0  0  0  0  0  0  0  0  0
    2.5986   -1.3355    0.5313 N   0  0  0  0  0  0  0  0  0  0  0  0
    1.5300   -2.0172    1.2552 C   0  0  0  0  0  0  0  0  0  0  0  0
    0.4000   -1.0220    1.5302 C   0  0  0  0  0  0  0  0  0  0  0  0
    0.3647   -0.3702    2.5764 O   0  0  0  0  0  0  0  0  0  0  0  0
   -0.4811   -0.9224    0.4577 N   0  0  0  0  0  0  0  0  0  0  0  0
   -1.6585   -0.1537    0.3783 C   0  0  0  0  0  0  0  0  0  0  0  0
   -2.0806    0.7314    1.3641 C   0  0  0  0  0  0  0  0  0  0  0  0
   -3.2735    1.4506    1.2018 C   0  0  0  0  0  0  0  0  0  0  0  0
   -4.0761    1.2833    0.0660 C   0  0  0  0  0  0  0  0  0  0  0  0
   -5.3466    2.0840   -0.0772 C   0  0  0  0  0  0  0  0  0  0  0  0
   -3.6625    0.3823   -0.9282 C   0  0  0  0  0  0  0  0  0  0  0  0
   -4.5027    0.1236   -2.1402 C   0  0  0  0  0  0  0  0  0  0  0  0
   -2.4506   -0.3130   -0.7702 C   0  0  0  0  0  0  0  0  0  0  0  0
    3.6600   -0.7326    1.1693 C   0  0  0  0  0  0  0  0  0  0  0  0
    3.8293   -0.8677    2.5151 N   0  0  0  0  0  0  0  0  0  0  0  0
    4.5494   -0.0223    0.5446 N   0  0  0  0  0  0  0  0  0  0  0  0
    6.4308    0.5470   -1.4037 H   0  0  0  0  0  0  0  0  0  0  0  0
    5.5320    1.9811   -0.8584 H   0  0  0  0  0  0  0  0  0  0  0  0
    5.2362    1.3003   -2.4650 H   0  0  0  0  0  0  0  0  0  0  0  0
    3.3148   -0.2220   -2.5887 H   0  0  0  0  0  0  0  0  0  0  0  0
    1.8734   -2.4255    2.2051 H   0  0  0  0  0  0  0  0  0  0  0  0
    1.1462   -2.8548    0.6663 H   0  0  0  0  0  0  0  0  0  0  0  0
   -0.2183   -1.4252   -0.3854 H   0  0  0  0  0  0  0  0  0  0  0  0
   -1.4891    0.9137    2.2602 H   0  0  0  0  0  0  0  0  0  0  0  0
   -3.5632    2.1544    1.9756 H   0  0  0  0  0  0  0  0  0  0  0  0
   -5.5356    2.7020    0.7990 H   0  0  0  0  0  0  0  0  0  0  0  0
   -6.2183    1.4230   -0.2120 H   0  0  0  0  0  0  0  0  0  0  0  0
   -5.2755    2.7444   -0.9335 H   0  0  0  0  0  0  0  0  0  0  0  0
   -5.4492   -0.3352   -1.8365 H   0  0  0  0  0  0  0  0  0  0  0  0
   -4.7005    1.0548   -2.6799 H   0  0  0  0  0  0  0  0  0  0  0  0
   -4.0085   -0.5693   -2.8451 H   0  0  0  0  0  0  0  0  0  0  0  0
   -2.1327   -1.0041   -1.5469 H   0  0  0  0  0  0  0  0  0  0  0  0
    4.6998   -0.4373    2.8133 H   0  0  0  0  0  0  0  0  0  0  0  0
    3.7494   -1.8076    2.8850 H   0  0  0  0  0  0  0  0  0  0  0  0
  1  2  1  0
  2  3  2  0
  3  4  1  0
  4  5  2  0
  4  6  1  0
  6  7  1  0
  7  8  1  0
  8  9  2  0
  8 10  1  0
 10 11  1  0
 11 12  2  0
 12 13  1  0
 13 14  2  0
 14 15  1  0
 14 16  1  0
 16 17  1  0
 16 18  2  0
  6 19  1  0
 19 20  1  0
 19 21  2  0
 21  2  1  0
 18 11  1  0
  1 22  1  0
  1 23  1  0
  1 24  1  0
  3 25  1  0
  7 26  1  0
  7 27  1  0
 10 28  1  0
 12 29  1  0
 13 30  1  0
 15 31  1  0
 15 32  1  0
 15 33  1  0
 17 34  1  0
 17 35  1  0
 17 36  1  0
 18 37  1  0
 20 38  1  0
 20 39  1  0
M  END
$$$$
