
     RDKit          3D

 27 27  0  0  0  0  0  0  0  0999 V2000
    2.1647    1.8590   -0.9651 O   0  0  0  0  0  0  0  0  0  0  0  0
    1.8021    1.7279    0.1904 C   0  0  0  0  0  0  0  0  0  0  0  0
    1.7577    2.7905    1.0176 O   0  0  0  0  0  0  0  0  0  0  0  0
    1.3717    0.4625    0.8806 C   0  0  0  0  0  0  0  0  0  0  0  0
    1.3394   -0.7660   -0.0438 C   0  0  0  0  0  0  0  0  0  0  0  0
    0.2956   -0.6747   -1.1752 C   0  0  0  0  0  0  0  0  0  0  0  0
   -1.1172   -0.4513   -0.6911 C   0  0  0  0  0  0  0  0  0  0  0  0
   -1.7504    0.7817   -0.8983 C   0  0  0  0  0  0  0  0  0  0  0  0
   -3.0505    0.9949   -0.4380 C   0  0  0  0  0  0  0  0  0  0  0  0
   -3.7301   -0.0216    0.2303 C   0  0  0  0  0  0  0  0  0  0  0  0
   -3.1117   -1.2532    0.4366 C   0  0  0  0  0  0  0  0  0  0  0  0
   -1.8115   -1.4687   -0.0225 C   0  0  0  0  0  0  0  0  0  0  0  0
    2.6985   -1.0670   -0.6454 C   0  0  0  0  0  0  0  0  0  0  0  0
    2.9168   -1.5806   -1.7304 O   0  0  0  0  0  0  0  0  0  0  0  0
    3.7261   -0.7978    0.1830 O   0  0  0  0  0  0  0  0  0  0  0  0
    2.0641    3.5403    0.4659 H   0  0  0  0  0  0  0  0  0  0  0  0
    0.3839    0.6309    1.3226 H   0  0  0  0  0  0  0  0  0  0  0  0
    2.0704    0.2870    1.7075 H   0  0  0  0  0  0  0  0  0  0  0  0
    1.0958   -1.6363    0.5810 H   0  0  0  0  0  0  0  0  0  0  0  0
    0.5704    0.1041   -1.8973 H   0  0  0  0  0  0  0  0  0  0  0  0
    0.3007   -1.6065   -1.7582 H   0  0  0  0  0  0  0  0  0  0  0  0
   -1.2353    1.5848   -1.4216 H   0  0  0  0  0  0  0  0  0  0  0  0
   -3.5343    1.9540   -0.6038 H   0  0  0  0  0  0  0  0  0  0  0  0
   -4.7434    0.1446    0.5862 H   0  0  0  0  0  0  0  0  0  0  0  0
   -3.6440   -2.0481    0.9526 H   0  0  0  0  0  0  0  0  0  0  0  0
   -1.3460   -2.4381    0.1406 H   0  0  0  0  0  0  0  0  0  0  0  0
    4.5163   -1.0523   -0.3402 H   0  0  0  0  0  0  0  0  0  0  0  0
  1  2  2  0
  2  3  1  0
  2  4  1  0
  4  5  1  0
  5  6  1  0
  6  7  1  0
  7  8  2  0
  8  9  1  0
  9 10  2  0
 10 11  1  0
 11 12  2  0
  5 13  1  0
 13 14  2  0
 13 15  1  0
 12  7  1  0
  3 16  1  0
  4 17  1  0
  4 18  1  0
  5 19  1  0
  6 20  1  0
  6 21  1  0
  8 22  1  0
  9 23  1  0
 10 24  1  0
 11 25  1  0
 12 26  1  0
 15 27  1  0
M  END
$$$$
