
     RDKit          3D

 26 27  0  0  0  0  0  0  0  0999 V2000
   -2.0524    0.0884    1.0631 C   0  0  0  0  0  0  0  0  0  0  0  0
   -0.9594   -0.2613    0.0515 C   0  0  0  0  0  0  0  0  0  0  0  0
   -1.5983   -0.7178   -1.2697 C   0  0  0  0  0  0  0  0  0  0  0  0
    0.0727    0.8646   -0.1152 C   0  0  2  0  0  0  0  0  0  0  0  0
   -0.3363    1.9332   -1.1157 C   0  0  0  0  0  0  0  0  0  0  0  0
   -0.0459    1.9811   -2.2999 O   0  0  0  0  0  0  0  0  0  0  0  0
   -1.1543    2.8598   -0.5773 O   0  0  0  0  0  0  0  0  0  0  0  0
    1.3419    0.2498   -0.5255 N   0  0  0  0  0  0  0  0  0  0  0  0
    2.4742    0.5669    0.1776 C   0  0  0  0  0  0  0  0  0  0  0  0
    2.8572    1.6278    0.6066 O   0  0  0  0  0  0  0  0  0  0  0  0
    2.8803   -0.9072    0.3077 C   0  0  0  0  0  0  0  0  0  0  0  0
    1.5241   -1.2147   -0.3266 C   0  0  1  0  0  0  0  0  0  0  0  0
    0.1068   -1.5913    0.7094 S   0  0  0  0  0  6  0  0  0  0  0  0
   -0.4497   -2.8787    0.3430 O   0  0  0  0  0  0  0  0  0  0  0  0
    0.4121   -1.2898    2.0956 O   0  0  0  0  0  0  0  0  0  0  0  0
   -1.6316    0.4341    2.0134 H   0  0  0  0  0  0  0  0  0  0  0  0
   -2.7060    0.8802    0.6825 H   0  0  0  0  0  0  0  0  0  0  0  0
   -2.6755   -0.7856    1.2838 H   0  0  0  0  0  0  0  0  0  0  0  0
   -0.8444   -0.9928   -2.0149 H   0  0  0  0  0  0  0  0  0  0  0  0
   -2.2380   -1.5942   -1.1165 H   0  0  0  0  0  0  0  0  0  0  0  0
   -2.2283    0.0675   -1.7012 H   0  0  0  0  0  0  0  0  0  0  0  0
    0.2525    1.3675    0.8455 H   0  0  0  0  0  0  0  0  0  0  0  0
   -1.3151    3.4974   -1.3066 H   0  0  0  0  0  0  0  0  0  0  0  0
    3.0250   -1.2461    1.3356 H   0  0  0  0  0  0  0  0  0  0  0  0
    3.7496   -1.1742   -0.2994 H   0  0  0  0  0  0  0  0  0  0  0  0
    1.5386   -1.7646   -1.2718 H   0  0  0  0  0  0  0  0  0  0  0  0
  1  2  1  0
  2  3  1  0
  2  4  1  0
  4  5  1  0
  5  6  2  0
  5  7  1  0
  4  8  1  0
  8  9  1  0
  9 10  2  0
  9 11  1  0
 11 12  1  0
 12 13  1  0
 13 14  2  0
 13 15  2  0
 13  2  1  0
 12  8  1  0
  1 16  1  0
  1 17  1  0
  1 18  1  0
  3 19  1  0
  3 20  1  0
  3 21  1  0
  4 22  1  1
  7 23  1  0
 11 24  1  0
 11 25  1  0
 12 26  1  6
M  END
$$$$
