
     RDKit          3D

 43 46  0  0  0  0  0  0  0  0999 V2000
   -3.1276    4.1002   -1.2837 C   0  0  0  0  0  0  0  0  0  0  0  0
   -1.9741    3.9496   -0.3261 C   0  0  0  0  0  0  0  0  0  0  0  0
   -1.4366    4.9329    0.1799 O   0  0  0  0  0  0  0  0  0  0  0  0
   -1.5731    2.6611   -0.0462 N   0  0  0  0  0  0  0  0  0  0  0  0
   -2.1438    1.4375   -0.5912 C   0  0  0  0  0  0  0  0  0  0  0  0
   -1.5681    0.3346    0.2881 C   0  0  0  0  0  0  0  0  0  0  0  0
   -1.5810   -1.0101   -0.3224 C   0  0  0  0  0  0  0  0  0  0  0  0
   -1.6072   -2.1807    0.2740 N   0  0  0  0  0  0  0  0  0  0  0  0
   -1.5710   -3.0469   -0.7881 C   0  0  0  0  0  0  0  0  0  0  0  0
   -1.5748   -4.5116   -0.6218 C   0  0  0  0  0  0  0  0  0  0  0  0
   -1.5250   -2.4609   -1.9908 N   0  0  0  0  0  0  0  0  0  0  0  0
   -1.5292   -1.1012   -1.6838 O   0  0  0  0  0  0  0  0  0  0  0  0
   -0.1973    0.9087    0.6405 C   0  0  0  0  0  0  0  0  0  0  0  0
   -0.4338    2.4118    0.8277 C   0  0  0  0  0  0  0  0  0  0  0  0
    0.6210    0.2146    1.7628 C   0  0  0  0  0  0  0  0  0  0  0  0
    1.8362    0.4940    0.9771 N   0  0  0  0  0  0  0  0  0  0  0  0
    2.8652   -0.5302    1.1217 C   0  0  0  0  0  0  0  0  0  0  0  0
    3.8823   -0.4682   -0.0403 C   0  0  0  0  0  0  0  0  0  0  0  0
    3.9217   -2.0128    0.0307 C   0  0  0  0  0  0  0  0  0  0  0  0
    2.5003   -1.9524    0.6396 C   0  0  0  0  0  0  0  0  0  0  0  0
    1.0410    0.5872   -0.2581 C   0  0  0  0  0  0  0  0  0  0  0  0
   -4.0460    3.7298   -0.8212 H   0  0  0  0  0  0  0  0  0  0  0  0
   -3.2611    5.1587   -1.5264 H   0  0  0  0  0  0  0  0  0  0  0  0
   -2.9265    3.5619   -2.2135 H   0  0  0  0  0  0  0  0  0  0  0  0
   -1.8177    1.3728   -1.6356 H   0  0  0  0  0  0  0  0  0  0  0  0
   -3.2374    1.4664   -0.5684 H   0  0  0  0  0  0  0  0  0  0  0  0
   -2.1680    0.2896    1.2086 H   0  0  0  0  0  0  0  0  0  0  0  0
   -1.6592   -4.7844    0.4347 H   0  0  0  0  0  0  0  0  0  0  0  0
   -0.6483   -4.9447   -1.0112 H   0  0  0  0  0  0  0  0  0  0  0  0
   -2.4190   -4.9587   -1.1559 H   0  0  0  0  0  0  0  0  0  0  0  0
   -0.7441    2.6523    1.8506 H   0  0  0  0  0  0  0  0  0  0  0  0
    0.4144    3.0445    0.5479 H   0  0  0  0  0  0  0  0  0  0  0  0
    0.5929    0.6998    2.7436 H   0  0  0  0  0  0  0  0  0  0  0  0
    0.3818   -0.8462    1.9039 H   0  0  0  0  0  0  0  0  0  0  0  0
    3.3464   -0.5253    2.1088 H   0  0  0  0  0  0  0  0  0  0  0  0
    3.5142   -0.0990   -1.0044 H   0  0  0  0  0  0  0  0  0  0  0  0
    4.8269    0.0345    0.1860 H   0  0  0  0  0  0  0  0  0  0  0  0
    4.0070   -2.5307   -0.9278 H   0  0  0  0  0  0  0  0  0  0  0  0
    4.6805   -2.4038    0.7184 H   0  0  0  0  0  0  0  0  0  0  0  0
    2.3107   -2.6786    1.4360 H   0  0  0  0  0  0  0  0  0  0  0  0
    1.7159   -2.0659   -0.1128 H   0  0  0  0  0  0  0  0  0  0  0  0
    1.3542    1.3904   -0.9342 H   0  0  0  0  0  0  0  0  0  0  0  0
    0.9574   -0.3207   -0.8588 H   0  0  0  0  0  0  0  0  0  0  0  0
  1  2  1  0
  2  3  2  0
  2  4  1  0
  4  5  1  0
  5  6  1  0
  6  7  1  0
  7  8  2  0
  8  9  1  0
  9 10  1  0
  9 11  2  0
 11 12  1  0
  6 13  1  0
 13 14  1  0
 13 15  1  0
 15 16  1  0
 16 17  1  0
 17 18  1  0
 18 19  1  0
 19 20  1  0
 16 21  1  0
 14  4  1  0
 20 17  1  0
 12  7  1  0
 21 13  1  0
  1 22  1  0
  1 23  1  0
  1 24  1  0
  5 25  1  0
  5 26  1  0
  6 27  1  0
 10 28  1  0
 10 29  1  0
 10 30  1  0
 14 31  1  0
 14 32  1  0
 15 33  1  0
 15 34  1  0
 17 35  1  0
 18 36  1  0
 18 37  1  0
 19 38  1  0
 19 39  1  0
 20 40  1  0
 20 41  1  0
 21 42  1  0
 21 43  1  0
M  END
$$$$
