
     RDKit          3D

 23 24  0  0  0  0  0  0  0  0999 V2000
    3.3096    1.0873   -1.5390 N   0  0  0  0  0  0  0  0  0  0  0  0
    2.5238    0.3895   -0.6849 C   0  0  0  0  0  0  0  0  0  0  0  0
    1.2392    0.5095   -0.7284 N   0  0  0  0  0  0  0  0  0  0  0  0
    0.4885   -0.2204    0.1698 C   0  0  0  0  0  0  0  0  0  0  0  0
   -0.9715   -0.0140    0.0639 C   0  0  0  0  0  0  0  0  0  0  0  0
   -1.6398    0.8400    0.9520 C   0  0  0  0  0  0  0  0  0  0  0  0
   -3.0199    1.0242    0.8472 C   0  0  0  0  0  0  0  0  0  0  0  0
   -3.7388    0.3628   -0.1479 C   0  0  0  0  0  0  0  0  0  0  0  0
   -3.0799   -0.4796   -1.0426 C   0  0  0  0  0  0  0  0  0  0  0  0
   -1.7001   -0.6659   -0.9398 C   0  0  0  0  0  0  0  0  0  0  0  0
    0.9967   -1.0773    1.0783 C   0  0  0  0  0  0  0  0  0  0  0  0
    0.0269   -2.1134    2.2941 Br  0  0  0  0  0  0  0  0  0  0  0  0
    2.4788   -1.2100    1.0896 C   0  0  0  0  0  0  0  0  0  0  0  0
    3.0881   -1.9732    1.8338 O   0  0  0  0  0  0  0  0  0  0  0  0
    3.1526   -0.4189    0.2034 N   0  0  0  0  0  0  0  0  0  0  0  0
    2.7816    1.8064   -2.0261 H   0  0  0  0  0  0  0  0  0  0  0  0
    4.1801    1.4395   -1.1633 H   0  0  0  0  0  0  0  0  0  0  0  0
   -1.0887    1.3662    1.7275 H   0  0  0  0  0  0  0  0  0  0  0  0
   -3.5334    1.6851    1.5405 H   0  0  0  0  0  0  0  0  0  0  0  0
   -4.8130    0.5076   -0.2293 H   0  0  0  0  0  0  0  0  0  0  0  0
   -3.6392   -0.9897   -1.8225 H   0  0  0  0  0  0  0  0  0  0  0  0
   -1.1931   -1.3181   -1.6472 H   0  0  0  0  0  0  0  0  0  0  0  0
    4.1517   -0.5376    0.1710 H   0  0  0  0  0  0  0  0  0  0  0  0
  1  2  1  0
  2  3  2  0
  3  4  1  0
  4  5  1  0
  5  6  2  0
  6  7  1  0
  7  8  2  0
  8  9  1  0
  9 10  2  0
  4 11  2  0
 11 12  1  0
 11 13  1  0
 13 14  2  0
 13 15  1  0
 15  2  1  0
 10  5  1  0
  1 16  1  0
  1 17  1  0
  6 18  1  0
  7 19  1  0
  8 20  1  0
  9 21  1  0
 10 22  1  0
 15 23  1  0
M  END
$$$$
