
     RDKit          3D

 45 46  0  0  0  0  0  0  0  0999 V2000
    7.3267    0.8123   -0.8688 C   0  0  0  0  0  0  0  0  0  0  0  0
    6.5914   -0.2262   -0.2388 O   0  0  0  0  0  0  0  0  0  0  0  0
    5.2282   -0.2047   -0.3718 C   0  0  0  0  0  0  0  0  0  0  0  0
    4.5046    0.7646   -1.0698 C   0  0  0  0  0  0  0  0  0  0  0  0
    3.1084    0.6917   -1.1433 C   0  0  0  0  0  0  0  0  0  0  0  0
    2.4125   -0.3532   -0.5232 C   0  0  0  0  0  0  0  0  0  0  0  0
    0.9063   -0.4128   -0.5879 C   0  0  0  0  0  0  0  0  0  0  0  0
    0.2607    0.3787    0.5531 C   0  0  0  0  0  0  0  0  0  0  0  0
   -1.2474    0.3153    0.4900 C   0  0  0  0  0  0  0  0  0  0  0  0
   -1.9618    1.2548   -0.2709 C   0  0  0  0  0  0  0  0  0  0  0  0
   -3.3547    1.1917   -0.3557 C   0  0  0  0  0  0  0  0  0  0  0  0
   -4.1349    2.0617   -1.0730 O   0  0  0  0  0  0  0  0  0  0  0  0
   -3.5115    3.2371   -1.5708 C   0  0  0  0  0  0  0  0  0  0  0  0
   -4.0283    0.1566    0.3147 C   0  0  0  0  0  0  0  0  0  0  0  0
   -5.4053    0.1074    0.2682 O   0  0  0  0  0  0  0  0  0  0  0  0
   -5.8208   -0.7038   -0.8289 C   0  0  0  0  0  0  0  0  0  0  0  0
   -3.3334   -0.7812    1.0971 C   0  0  0  0  0  0  0  0  0  0  0  0
   -4.0937   -1.7357    1.7225 O   0  0  0  0  0  0  0  0  0  0  0  0
   -3.4528   -2.5375    2.7045 C   0  0  0  0  0  0  0  0  0  0  0  0
   -1.9407   -0.7003    1.1679 C   0  0  0  0  0  0  0  0  0  0  0  0
    3.1340   -1.3242    0.1815 C   0  0  0  0  0  0  0  0  0  0  0  0
    4.5271   -1.2463    0.2507 C   0  0  0  0  0  0  0  0  0  0  0  0
    5.2259   -2.2026    0.9402 O   0  0  0  0  0  0  0  0  0  0  0  0
    8.3885    0.6401   -0.6678 H   0  0  0  0  0  0  0  0  0  0  0  0
    7.0645    1.7906   -0.4528 H   0  0  0  0  0  0  0  0  0  0  0  0
    7.1870    0.7933   -1.9547 H   0  0  0  0  0  0  0  0  0  0  0  0
    4.9955    1.5930   -1.5689 H   0  0  0  0  0  0  0  0  0  0  0  0
    2.5684    1.4611   -1.6916 H   0  0  0  0  0  0  0  0  0  0  0  0
    0.5703   -0.0290   -1.5603 H   0  0  0  0  0  0  0  0  0  0  0  0
    0.5816   -1.4613   -0.5585 H   0  0  0  0  0  0  0  0  0  0  0  0
    0.5807    1.4287    0.5224 H   0  0  0  0  0  0  0  0  0  0  0  0
    0.6010   -0.0025    1.5249 H   0  0  0  0  0  0  0  0  0  0  0  0
   -1.4045    2.0257   -0.7937 H   0  0  0  0  0  0  0  0  0  0  0  0
   -3.0370    3.8092   -0.7664 H   0  0  0  0  0  0  0  0  0  0  0  0
   -4.2897    3.8670   -2.0123 H   0  0  0  0  0  0  0  0  0  0  0  0
   -2.7934    2.9944   -2.3607 H   0  0  0  0  0  0  0  0  0  0  0  0
   -5.4680   -1.7353   -0.7203 H   0  0  0  0  0  0  0  0  0  0  0  0
   -5.4844   -0.2875   -1.7847 H   0  0  0  0  0  0  0  0  0  0  0  0
   -6.9148   -0.7214   -0.8360 H   0  0  0  0  0  0  0  0  0  0  0  0
   -2.7265   -3.2144    2.2430 H   0  0  0  0  0  0  0  0  0  0  0  0
   -2.9837   -1.9222    3.4795 H   0  0  0  0  0  0  0  0  0  0  0  0
   -4.2191   -3.1522    3.1865 H   0  0  0  0  0  0  0  0  0  0  0  0
   -1.3679   -1.4215    1.7421 H   0  0  0  0  0  0  0  0  0  0  0  0
    2.6044   -2.1352    0.6727 H   0  0  0  0  0  0  0  0  0  0  0  0
    4.6062   -2.8637    1.2832 H   0  0  0  0  0  0  0  0  0  0  0  0
  1  2  1  0
  2  3  1  0
  3  4  2  0
  4  5  1  0
  5  6  2  0
  6  7  1  0
  7  8  1  0
  8  9  1  0
  9 10  2  0
 10 11  1  0
 11 12  1  0
 12 13  1  0
 11 14  2  0
 14 15  1  0
 15 16  1  0
 14 17  1  0
 17 18  1  0
 18 19  1  0
 17 20  2  0
  6 21  1  0
 21 22  2  0
 22 23  1  0
 22  3  1  0
 20  9  1  0
  1 24  1  0
  1 25  1  0
  1 26  1  0
  4 27  1  0
  5 28  1  0
  7 29  1  0
  7 30  1  0
  8 31  1  0
  8 32  1  0
 10 33  1  0
 13 34  1  0
 13 35  1  0
 13 36  1  0
 16 37  1  0
 16 38  1  0
 16 39  1  0
 19 40  1  0
 19 41  1  0
 19 42  1  0
 20 43  1  0
 21 44  1  0
 23 45  1  0
M  END
$$$$
