
     RDKit          3D

 42 44  0  0  0  0  0  0  0  0999 V2000
   -0.6989    5.3765    0.3468 C   0  0  0  0  0  0  0  0  0  0  0  0
   -1.5409    4.2124    0.2298 N   0  0  0  0  0  0  0  0  0  0  0  0
   -2.8679    4.2236   -0.0883 C   0  0  0  0  0  0  0  0  0  0  0  0
   -3.3692    3.0106   -0.1032 N   0  0  0  0  0  0  0  0  0  0  0  0
   -2.3246    2.1732    0.2240 C   0  0  0  0  0  0  0  0  0  0  0  0
   -2.2911    0.7732    0.3769 C   0  0  0  0  0  0  0  0  0  0  0  0
   -3.4363    0.0858    0.2384 F   0  0  0  0  0  0  0  0  0  0  0  0
   -1.0953    0.1105    0.7210 C   0  0  0  0  0  0  0  0  0  0  0  0
   -0.9969   -1.2977    0.8290 N   0  0  0  0  0  0  0  0  0  0  0  0
   -1.7088   -2.3708    0.2640 C   0  0  0  0  0  0  0  0  0  0  0  0
   -2.4615   -2.2662   -0.9096 C   0  0  0  0  0  0  0  0  0  0  0  0
   -3.1654   -3.3673   -1.4142 C   0  0  0  0  0  0  0  0  0  0  0  0
   -3.1210   -4.5890   -0.7453 C   0  0  0  0  0  0  0  0  0  0  0  0
   -4.0716   -6.0710   -1.4315 Br  0  0  0  0  0  0  0  0  0  0  0  0
   -2.3789   -4.7239    0.4210 C   0  0  0  0  0  0  0  0  0  0  0  0
   -1.6859   -3.6197    0.9099 C   0  0  0  0  0  0  0  0  0  0  0  0
   -0.9703   -3.7628    2.0371 F   0  0  0  0  0  0  0  0  0  0  0  0
    0.0660    0.9031    0.8972 C   0  0  0  0  0  0  0  0  0  0  0  0
    1.3522    0.2468    1.2596 C   0  0  0  0  0  0  0  0  0  0  0  0
    1.3549   -0.6552    2.0906 O   0  0  0  0  0  0  0  0  0  0  0  0
    2.4519    0.7043    0.5639 N   0  0  0  0  0  0  0  0  0  0  0  0
    3.6281   -0.0579    0.7705 O   0  0  0  0  0  0  0  0  0  0  0  0
    4.1750   -0.4514   -0.4865 C   0  0  0  0  0  0  0  0  0  0  0  0
    5.3062   -1.4441   -0.2498 C   0  0  0  0  0  0  0  0  0  0  0  0
    5.9529   -1.7715   -1.4746 O   0  0  0  0  0  0  0  0  0  0  0  0
    0.0580    2.3089    0.7666 C   0  0  0  0  0  0  0  0  0  0  0  0
   -1.1577    2.9071    0.4254 C   0  0  0  0  0  0  0  0  0  0  0  0
    0.1160    5.2885   -0.3762 H   0  0  0  0  0  0  0  0  0  0  0  0
   -0.3060    5.4192    1.3659 H   0  0  0  0  0  0  0  0  0  0  0  0
   -1.2837    6.2758    0.1377 H   0  0  0  0  0  0  0  0  0  0  0  0
   -3.4203    5.1317   -0.2955 H   0  0  0  0  0  0  0  0  0  0  0  0
   -0.2973   -1.5987    1.5209 H   0  0  0  0  0  0  0  0  0  0  0  0
   -2.5031   -1.3311   -1.4607 H   0  0  0  0  0  0  0  0  0  0  0  0
   -3.7439   -3.2550   -2.3279 H   0  0  0  0  0  0  0  0  0  0  0  0
   -2.3278   -5.6640    0.9591 H   0  0  0  0  0  0  0  0  0  0  0  0
    2.3452    1.1743   -0.3273 H   0  0  0  0  0  0  0  0  0  0  0  0
    3.4036   -0.9144   -1.1144 H   0  0  0  0  0  0  0  0  0  0  0  0
    4.5523    0.4321   -1.0149 H   0  0  0  0  0  0  0  0  0  0  0  0
    4.9125   -2.3653    0.1922 H   0  0  0  0  0  0  0  0  0  0  0  0
    6.0460   -1.0443    0.4524 H   0  0  0  0  0  0  0  0  0  0  0  0
    6.5566   -1.0401   -1.6900 H   0  0  0  0  0  0  0  0  0  0  0  0
    0.9470    2.9039    0.9510 H   0  0  0  0  0  0  0  0  0  0  0  0
  1  2  1  0
  2  3  1  0
  3  4  2  0
  4  5  1  0
  5  6  2  0
  6  7  1  0
  6  8  1  0
  8  9  1  0
  9 10  1  0
 10 11  2  0
 11 12  1  0
 12 13  2  0
 13 14  1  0
 13 15  1  0
 15 16  2  0
 16 17  1  0
  8 18  2  0
 18 19  1  0
 19 20  2  0
 19 21  1  0
 21 22  1  0
 22 23  1  0
 23 24  1  0
 24 25  1  0
 18 26  1  0
 26 27  2  0
 27  2  1  0
 27  5  1  0
 16 10  1  0
  1 28  1  0
  1 29  1  0
  1 30  1  0
  3 31  1  0
  9 32  1  0
 11 33  1  0
 12 34  1  0
 15 35  1  0
 21 36  1  0
 23 37  1  0
 23 38  1  0
 24 39  1  0
 24 40  1  0
 25 41  1  0
 26 42  1  0
M  END
$$$$
