
     RDKit          3D

 41 43  0  0  0  0  0  0  0  0999 V2000
   -0.2826    4.1633    0.8206 C   0  0  0  0  0  0  0  0  0  0  0  0
   -1.0061    2.8620   -0.2023 S   0  0  0  0  0  0  0  0  0  0  0  0
    0.2268    1.6485   -0.1020 C   0  0  0  0  0  0  0  0  0  0  0  0
    1.3974    1.8196    0.4754 N   0  0  0  0  0  0  0  0  0  0  0  0
    2.0388    0.6362    0.2998 C   0  0  0  0  0  0  0  0  0  0  0  0
    1.2784   -0.2671   -0.3808 C   0  0  0  0  0  0  0  0  0  0  0  0
    1.7361   -1.5816   -0.6821 C   0  0  0  0  0  0  0  0  0  0  0  0
    1.0442   -2.4163   -1.2563 O   0  0  0  0  0  0  0  0  0  0  0  0
    3.0418   -1.8218   -0.2430 N   0  0  0  0  0  0  0  0  0  0  0  0
    3.6139   -3.1308   -0.4941 C   0  0  0  0  0  0  0  0  0  0  0  0
    3.8406   -0.9218    0.4894 C   0  0  0  0  0  0  0  0  0  0  0  0
    4.9628   -1.2465    0.8882 O   0  0  0  0  0  0  0  0  0  0  0  0
    3.3055    0.3402    0.7428 N   0  0  0  0  0  0  0  0  0  0  0  0
    4.0686    1.3302    1.4816 C   0  0  0  0  0  0  0  0  0  0  0  0
    0.0929    0.3840   -0.6372 N   0  0  0  0  0  0  0  0  0  0  0  0
   -1.0434   -0.1402   -1.3900 C   0  0  0  0  0  0  0  0  0  0  0  0
   -2.2026   -0.5638   -0.5082 C   0  0  0  0  0  0  0  0  0  0  0  0
   -1.9685   -1.4131    0.5914 C   0  0  0  0  0  0  0  0  0  0  0  0
   -3.0104   -1.8326    1.4186 C   0  0  0  0  0  0  0  0  0  0  0  0
   -4.3110   -1.4244    1.1551 C   0  0  0  0  0  0  0  0  0  0  0  0
   -4.5716   -0.6098    0.0554 C   0  0  0  0  0  0  0  0  0  0  0  0
   -3.5346   -0.1842   -0.7935 C   0  0  0  0  0  0  0  0  0  0  0  0
   -3.8917    0.6703   -1.9805 C   0  0  0  0  0  0  0  0  0  0  0  0
   -0.9738    5.0093    0.8662 H   0  0  0  0  0  0  0  0  0  0  0  0
   -0.1102    3.8035    1.8389 H   0  0  0  0  0  0  0  0  0  0  0  0
    0.6610    4.5123    0.3921 H   0  0  0  0  0  0  0  0  0  0  0  0
    3.0165   -3.7201   -1.1943 H   0  0  0  0  0  0  0  0  0  0  0  0
    4.6234   -3.0180   -0.9027 H   0  0  0  0  0  0  0  0  0  0  0  0
    3.6824   -3.6686    0.4572 H   0  0  0  0  0  0  0  0  0  0  0  0
    4.1802    2.2287    0.8663 H   0  0  0  0  0  0  0  0  0  0  0  0
    5.0639    0.9642    1.7468 H   0  0  0  0  0  0  0  0  0  0  0  0
    3.5311    1.5801    2.4018 H   0  0  0  0  0  0  0  0  0  0  0  0
   -1.3201    0.6426   -2.1027 H   0  0  0  0  0  0  0  0  0  0  0  0
   -0.7157   -0.9902   -1.9939 H   0  0  0  0  0  0  0  0  0  0  0  0
   -0.9649   -1.7670    0.8167 H   0  0  0  0  0  0  0  0  0  0  0  0
   -2.8040   -2.4812    2.2660 H   0  0  0  0  0  0  0  0  0  0  0  0
   -5.1251   -1.7476    1.7983 H   0  0  0  0  0  0  0  0  0  0  0  0
   -5.5998   -0.3121   -0.1414 H   0  0  0  0  0  0  0  0  0  0  0  0
   -3.4921    1.6808   -1.8594 H   0  0  0  0  0  0  0  0  0  0  0  0
   -3.5012    0.2263   -2.9019 H   0  0  0  0  0  0  0  0  0  0  0  0
   -4.9770    0.7567   -2.1022 H   0  0  0  0  0  0  0  0  0  0  0  0
  1  2  1  0
  2  3  1  0
  3  4  2  0
  4  5  1  0
  5  6  2  0
  6  7  1  0
  7  8  2  0
  7  9  1  0
  9 10  1  0
  9 11  1  0
 11 12  2  0
 11 13  1  0
 13 14  1  0
  6 15  1  0
 15 16  1  0
 16 17  1  0
 17 18  2  0
 18 19  1  0
 19 20  2  0
 20 21  1  0
 21 22  2  0
 22 23  1  0
 15  3  1  0
 22 17  1  0
 13  5  1  0
  1 24  1  0
  1 25  1  0
  1 26  1  0
 10 27  1  0
 10 28  1  0
 10 29  1  0
 14 30  1  0
 14 31  1  0
 14 32  1  0
 16 33  1  0
 16 34  1  0
 18 35  1  0
 19 36  1  0
 20 37  1  0
 21 38  1  0
 23 39  1  0
 23 40  1  0
 23 41  1  0
M  END
$$$$
