
     RDKit          3D

 68 70  0  0  0  0  0  0  0  0999 V2000
   -6.0866   -3.3788   -1.3650 C   0  0  0  0  0  0  0  0  0  0  0  0
   -5.4532   -2.2592   -2.1468 C   0  0  0  0  0  0  0  0  0  0  0  0
   -5.7991   -0.8986   -1.5792 C   0  0  0  0  0  0  0  0  0  0  0  0
   -5.3529   -0.7316   -0.1874 C   0  0  0  0  0  0  0  0  0  0  0  0
   -6.0732   -1.0284    0.9009 N   0  0  0  0  0  0  0  0  0  0  0  0
   -5.3519   -0.7500    2.0038 C   0  0  0  0  0  0  0  0  0  0  0  0
   -5.7792   -0.9357    3.4247 C   0  0  0  0  0  0  0  0  0  0  0  0
   -4.1343   -0.2598    1.5413 C   0  0  0  0  0  0  0  0  0  0  0  0
   -3.0378    0.1716    2.2552 C   0  0  0  0  0  0  0  0  0  0  0  0
   -3.0111    0.1729    3.5233 O   0  0  0  0  0  0  0  0  0  0  0  0
   -1.9523    0.6105    1.5524 N   0  0  0  0  0  0  0  0  0  0  0  0
   -1.9780    0.6114    0.2122 C   0  0  0  0  0  0  0  0  0  0  0  0
   -0.8059    1.0858   -0.5043 C   0  0  0  0  0  0  0  0  0  0  0  0
    0.2471    0.2594   -0.8848 C   0  0  0  0  0  0  0  0  0  0  0  0
    1.3458    0.7162   -1.5679 C   0  0  0  0  0  0  0  0  0  0  0  0
    2.5986   -0.3917   -1.9907 S   0  0  0  0  0  6  0  0  0  0  0  0
    3.1687    0.0554   -3.3292 O   0  0  0  0  0  0  0  0  0  0  0  0
    2.0451   -1.7819   -2.2419 O   0  0  0  0  0  0  0  0  0  0  0  0
    3.8749   -0.5141   -0.9097 N   0  0  0  0  0  0  0  0  0  0  0  0
    3.5776   -0.9618    0.4143 C   0  0  0  0  0  0  0  0  0  0  0  0
    4.8865   -1.4654    1.0040 C   0  0  0  0  0  0  0  0  0  0  0  0
    5.9791   -1.3122    0.0520 N   0  0  0  0  0  0  0  0  0  0  0  0
    7.1950   -1.8334    0.5919 C   0  0  0  0  0  0  0  0  0  0  0  0
    7.1617   -3.3214    0.7399 C   0  0  0  0  0  0  0  0  0  0  0  0
    6.1336    0.0544   -0.4021 C   0  0  0  0  0  0  0  0  0  0  0  0
    4.7800    0.5783   -0.8290 C   0  0  0  0  0  0  0  0  0  0  0  0
    1.4167    2.0464   -1.8940 C   0  0  0  0  0  0  0  0  0  0  0  0
    0.3713    2.8728   -1.5172 C   0  0  0  0  0  0  0  0  0  0  0  0
   -0.7410    2.4404   -0.8320 C   0  0  0  0  0  0  0  0  0  0  0  0
   -1.7907    3.2537   -0.4499 O   0  0  0  0  0  0  0  0  0  0  0  0
   -1.9167    4.6208   -0.6729 C   0  0  0  0  0  0  0  0  0  0  0  0
   -0.7663    5.3344    0.0057 C   0  0  0  0  0  0  0  0  0  0  0  0
   -3.0653    0.1832   -0.4495 N   0  0  0  0  0  0  0  0  0  0  0  0
   -4.1500   -0.2550    0.1969 N   0  0  0  0  0  0  0  0  0  0  0  0
    0.6855    0.0000    0.0000 Cl  0  0  0  0  0  0  0  0  0  0  0  0
   -7.0180   -3.0629   -0.8368 H   0  0  0  0  0  0  0  0  0  0  0  0
   -6.4251   -4.1893   -2.0734 H   0  0  0  0  0  0  0  0  0  0  0  0
   -5.3747   -3.8691   -0.6804 H   0  0  0  0  0  0  0  0  0  0  0  0
   -4.3554   -2.4412   -2.1393 H   0  0  0  0  0  0  0  0  0  0  0  0
   -5.8286   -2.3018   -3.1857 H   0  0  0  0  0  0  0  0  0  0  0  0
   -6.9029   -0.8300   -1.6008 H   0  0  0  0  0  0  0  0  0  0  0  0
   -5.3420   -0.1558   -2.2718 H   0  0  0  0  0  0  0  0  0  0  0  0
   -5.3302   -1.8633    3.7976 H   0  0  0  0  0  0  0  0  0  0  0  0
   -5.3960   -0.0765    4.0213 H   0  0  0  0  0  0  0  0  0  0  0  0
   -6.8899   -0.9255    3.4513 H   0  0  0  0  0  0  0  0  0  0  0  0
   -1.1419    0.9287    2.1262 H   0  0  0  0  0  0  0  0  0  0  0  0
    0.1815   -0.8080   -0.6192 H   0  0  0  0  0  0  0  0  0  0  0  0
    2.8028   -1.7529    0.4696 H   0  0  0  0  0  0  0  0  0  0  0  0
    3.2472   -0.1122    1.0811 H   0  0  0  0  0  0  0  0  0  0  0  0
    4.8247   -2.5478    1.2493 H   0  0  0  0  0  0  0  0  0  0  0  0
    5.1838   -0.8746    1.8938 H   0  0  0  0  0  0  0  0  0  0  0  0
    7.3741   -1.3381    1.5850 H   0  0  0  0  0  0  0  0  0  0  0  0
    8.0302   -1.5779   -0.1169 H   0  0  0  0  0  0  0  0  0  0  0  0
    8.2018   -3.7006    0.6094 H   0  0  0  0  0  0  0  0  0  0  0  0
    6.5548   -3.8080   -0.0467 H   0  0  0  0  0  0  0  0  0  0  0  0
    6.8335   -3.6652    1.7414 H   0  0  0  0  0  0  0  0  0  0  0  0
    6.5996    0.6973    0.3739 H   0  0  0  0  0  0  0  0  0  0  0  0
    6.7808    0.0325   -1.3067 H   0  0  0  0  0  0  0  0  0  0  0  0
    4.8237    1.2037   -1.7449 H   0  0  0  0  0  0  0  0  0  0  0  0
    4.4599    1.2914   -0.0145 H   0  0  0  0  0  0  0  0  0  0  0  0
    2.2807    2.4645   -2.4428 H   0  0  0  0  0  0  0  0  0  0  0  0
    0.4126    3.9324   -1.7721 H   0  0  0  0  0  0  0  0  0  0  0  0
   -1.8864    4.8652   -1.7688 H   0  0  0  0  0  0  0  0  0  0  0  0
   -2.8495    5.0224   -0.2356 H   0  0  0  0  0  0  0  0  0  0  0  0
   -1.1347    5.9171    0.9010 H   0  0  0  0  0  0  0  0  0  0  0  0
   -0.1876    5.9709   -0.6778 H   0  0  0  0  0  0  0  0  0  0  0  0
   -0.0651    4.5856    0.4674 H   0  0  0  0  0  0  0  0  0  0  0  0
   -0.6855    0.0000    0.0000 H   0  0  0  0  0  0  0  0  0  0  0  0
  1  2  1  0
  2  3  1  0
  3  4  1  0
  4  5  2  0
  5  6  1  0
  6  7  1  0
  6  8  2  0
  8  9  1  0
  9 10  2  0
  9 11  1  0
 11 12  1  0
 12 13  1  0
 13 14  2  0
 14 15  1  0
 15 16  1  0
 16 17  2  0
 16 18  2  0
 16 19  1  0
 19 20  1  0
 20 21  1  0
 21 22  1  0
 22 23  1  0
 23 24  1  0
 22 25  1  0
 25 26  1  0
 15 27  2  0
 27 28  1  0
 28 29  2  0
 29 30  1  0
 30 31  1  0
 31 32  1  0
 12 33  2  0
 33 34  1  0
 34  4  1  0
 34  8  1  0
 29 13  1  0
 26 19  1  0
  1 36  1  0
  1 37  1  0
  1 38  1  0
  2 39  1  0
  2 40  1  0
  3 41  1  0
  3 42  1  0
  7 43  1  0
  7 44  1  0
  7 45  1  0
 11 46  1  0
 14 47  1  0
 20 48  1  0
 20 49  1  0
 21 50  1  0
 21 51  1  0
 23 52  1  0
 23 53  1  0
 24 54  1  0
 24 55  1  0
 24 56  1  0
 25 57  1  0
 25 58  1  0
 26 59  1  0
 26 60  1  0
 27 61  1  0
 28 62  1  0
 31 63  1  0
 31 64  1  0
 32 65  1  0
 32 66  1  0
 32 67  1  0
 35 68  1  0
M  END
$$$$
