
     RDKit          3D

 42 45  0  0  0  0  0  0  0  0999 V2000
   -1.1404    2.8745   -0.6901 C   0  0  0  0  0  0  0  0  0  0  0  0
   -1.1174    1.6000    0.1293 C   0  0  0  0  0  0  0  0  0  0  0  0
   -2.1691    0.8362    0.0412 N   0  0  0  0  0  0  0  0  0  0  0  0
   -2.1381   -0.3373    0.8094 C   0  0  0  0  0  0  0  0  0  0  0  0
   -3.1491   -1.3663    0.8835 C   0  0  0  0  0  0  0  0  0  0  0  0
   -4.4468   -1.4380    0.1811 C   0  0  0  0  0  0  0  0  0  0  0  0
   -5.0055   -0.3418   -0.4780 C   0  0  0  0  0  0  0  0  0  0  0  0
   -6.2292   -0.4953   -1.1134 C   0  0  0  0  0  0  0  0  0  0  0  0
   -6.9321   -1.6476   -1.1351 N   0  0  0  0  0  0  0  0  0  0  0  0
   -6.3851   -2.6971   -0.4930 C   0  0  0  0  0  0  0  0  0  0  0  0
   -5.1692   -2.6413    0.1676 C   0  0  0  0  0  0  0  0  0  0  0  0
   -2.8086   -2.3765    1.7071 N   0  0  0  0  0  0  0  0  0  0  0  0
   -1.3124   -2.1012    2.3640 S   0  0  0  0  0  0  0  0  0  0  0  0
   -1.0613   -0.6344    1.5904 C   0  0  0  0  0  0  0  0  0  0  0  0
    0.0931    0.1846    1.6967 C   0  0  0  0  0  0  0  0  0  0  0  0
    1.0919   -0.0867    2.3646 O   0  0  0  0  0  0  0  0  0  0  0  0
    0.0011    1.3497    0.9237 N   0  0  0  0  0  0  0  0  0  0  0  0
    1.1710    2.2276    0.9669 C   0  0  0  0  0  0  0  0  0  0  0  0
    2.2195    1.7157   -0.0232 C   0  0  0  0  0  0  0  0  0  0  0  0
    2.2250    2.1158   -1.1854 O   0  0  0  0  0  0  0  0  0  0  0  0
    3.0354    0.7312    0.5172 N   0  0  0  0  0  0  0  0  0  0  0  0
    4.1539    0.1219   -0.0843 C   0  0  0  0  0  0  0  0  0  0  0  0
    4.7763   -0.9102    0.6252 C   0  0  0  0  0  0  0  0  0  0  0  0
    5.9169   -1.5340    0.1151 C   0  0  0  0  0  0  0  0  0  0  0  0
    6.4454   -1.1341   -1.1084 C   0  0  0  0  0  0  0  0  0  0  0  0
    5.8247   -0.1154   -1.8276 C   0  0  0  0  0  0  0  0  0  0  0  0
    4.6844    0.5104   -1.3169 C   0  0  0  0  0  0  0  0  0  0  0  0
   -0.2825    2.9071   -1.3576 H   0  0  0  0  0  0  0  0  0  0  0  0
   -2.0497    2.9208   -1.3009 H   0  0  0  0  0  0  0  0  0  0  0  0
   -1.1337    3.7509   -0.0267 H   0  0  0  0  0  0  0  0  0  0  0  0
   -4.5228    0.6291   -0.5102 H   0  0  0  0  0  0  0  0  0  0  0  0
   -6.6920    0.3374   -1.6372 H   0  0  0  0  0  0  0  0  0  0  0  0
   -6.9650   -3.6167   -0.5181 H   0  0  0  0  0  0  0  0  0  0  0  0
   -4.7949   -3.5319    0.6632 H   0  0  0  0  0  0  0  0  0  0  0  0
    1.5959    2.2471    1.9756 H   0  0  0  0  0  0  0  0  0  0  0  0
    0.9201    3.2596    0.7123 H   0  0  0  0  0  0  0  0  0  0  0  0
    2.7655    0.3619    1.4313 H   0  0  0  0  0  0  0  0  0  0  0  0
    4.3820   -1.2419    1.5805 H   0  0  0  0  0  0  0  0  0  0  0  0
    6.3944   -2.3276    0.6751 H   0  0  0  0  0  0  0  0  0  0  0  0
    7.3354   -1.6127   -1.5065 H   0  0  0  0  0  0  0  0  0  0  0  0
    6.2320    0.2032   -2.7869 H   0  0  0  0  0  0  0  0  0  0  0  0
    4.2411    1.3033   -1.9051 H   0  0  0  0  0  0  0  0  0  0  0  0
  1  2  1  0
  2  3  2  0
  3  4  1  0
  4  5  1  0
  5  6  1  0
  6  7  2  0
  7  8  1  0
  8  9  2  0
  9 10  1  0
 10 11  2  0
  5 12  2  0
 12 13  1  0
 13 14  1  0
 14 15  1  0
 15 16  2  0
 15 17  1  0
 17 18  1  0
 18 19  1  0
 19 20  2  0
 19 21  1  0
 21 22  1  0
 22 23  2  0
 23 24  1  0
 24 25  2  0
 25 26  1  0
 26 27  2  0
 17  2  1  0
 27 22  1  0
 14  4  2  0
 11  6  1  0
  1 28  1  0
  1 29  1  0
  1 30  1  0
  7 31  1  0
  8 32  1  0
 10 33  1  0
 11 34  1  0
 18 35  1  0
 18 36  1  0
 21 37  1  0
 23 38  1  0
 24 39  1  0
 25 40  1  0
 26 41  1  0
 27 42  1  0
M  END
$$$$
