
     RDKit          3D

 71 75  0  0  0  0  0  0  0  0999 V2000
    3.2254    2.7445    2.8691 C   0  0  0  0  0  0  0  0  0  0  0  0
    2.4418    1.5690    2.6654 O   0  0  0  0  0  0  0  0  0  0  0  0
    3.1041    0.3807    2.8395 C   0  0  0  0  0  0  0  0  0  0  0  0
    4.1444    0.2042    3.7578 C   0  0  0  0  0  0  0  0  0  0  0  0
    4.7553   -1.0429    3.9013 C   0  0  0  0  0  0  0  0  0  0  0  0
    4.3229   -2.1238    3.1409 C   0  0  0  0  0  0  0  0  0  0  0  0
    3.2718   -1.9613    2.2397 C   0  0  0  0  0  0  0  0  0  0  0  0
    2.6512   -0.7094    2.0743 C   0  0  0  0  0  0  0  0  0  0  0  0
    1.4903   -0.5484    1.1030 C   0  0  2  0  0  0  0  0  0  0  0  0
    0.1635   -0.9237    1.8018 C   0  0  0  0  0  0  0  0  0  0  0  0
   -1.0054   -0.6620    0.9411 N   0  0  0  0  0  0  0  0  0  0  0  0
   -1.4516   -1.7041    0.1142 C   0  0  0  0  0  0  0  0  0  0  0  0
   -1.0527   -2.8580    0.2809 O   0  0  0  0  0  0  0  0  0  0  0  0
   -2.3557   -1.3707   -0.9055 N   0  0  0  0  0  0  0  0  0  0  0  0
   -2.6712   -2.4078   -1.9442 C   0  0  0  0  0  0  0  0  0  0  0  0
   -3.2672   -1.7776   -3.2341 C   0  0  0  0  0  0  0  0  0  0  0  0
   -1.4126   -3.1838   -2.4135 C   0  0  0  0  0  0  0  0  0  0  0  0
   -3.6872   -3.3963   -1.3447 C   0  0  0  0  0  0  0  0  0  0  0  0
   -4.1491   -3.3925   -0.2132 O   0  0  0  0  0  0  0  0  0  0  0  0
   -4.0831   -4.3521   -2.2180 O   0  0  0  0  0  0  0  0  0  0  0  0
   -3.2838   -0.3460   -0.7021 C   0  0  0  0  0  0  0  0  0  0  0  0
   -4.4177   -0.3415   -1.1675 O   0  0  0  0  0  0  0  0  0  0  0  0
   -2.7940    0.7562    0.1045 C   0  0  0  0  0  0  0  0  0  0  0  0
   -3.3078    2.1004    0.2696 C   0  0  0  0  0  0  0  0  0  0  0  0
   -4.5436    2.6432   -0.3855 C   0  0  0  0  0  0  0  0  0  0  0  0
   -2.4819    2.8469    1.1101 C   0  0  0  0  0  0  0  0  0  0  0  0
   -2.6044    4.2342    1.4924 C   0  0  0  0  0  0  0  0  0  0  0  0
   -3.5217    5.0565    1.0053 N   0  0  0  0  0  0  0  0  0  0  0  0
   -3.2743    6.2598    1.6132 C   0  0  0  0  0  0  0  0  0  0  0  0
   -2.2065    6.1373    2.4610 C   0  0  0  0  0  0  0  0  0  0  0  0
   -1.7630    4.8538    2.3953 O   0  0  0  0  0  0  0  0  0  0  0  0
   -1.1790    1.9076    1.7132 S   0  0  0  0  0  0  0  0  0  0  0  0
   -1.6714    0.5475    0.8529 C   0  0  0  0  0  0  0  0  0  0  0  0
    1.6755   -1.4057   -0.0416 O   0  0  0  0  0  0  0  0  0  0  0  0
    2.4734   -0.8264   -1.0769 C   0  0  0  0  0  0  0  0  0  0  0  0
    2.9964   -1.9568   -1.9528 C   0  0  0  0  0  0  0  0  0  0  0  0
    3.8142   -1.4095   -3.1173 C   0  0  0  0  0  0  0  0  0  0  0  0
    3.4298   -0.0880   -3.5063 O   0  0  0  0  0  0  0  0  0  0  0  0
    2.0305    0.1333   -3.3805 C   0  0  0  0  0  0  0  0  0  0  0  0
    1.6398    0.1555   -1.9074 C   0  0  0  0  0  0  0  0  0  0  0  0
    4.1769    2.6918    2.3273 H   0  0  0  0  0  0  0  0  0  0  0  0
    2.6603    3.5911    2.4700 H   0  0  0  0  0  0  0  0  0  0  0  0
    3.3868    2.9300    3.9373 H   0  0  0  0  0  0  0  0  0  0  0  0
    4.4847    1.0171    4.3900 H   0  0  0  0  0  0  0  0  0  0  0  0
    5.5623   -1.1712    4.6182 H   0  0  0  0  0  0  0  0  0  0  0  0
    4.7895   -3.0986    3.2584 H   0  0  0  0  0  0  0  0  0  0  0  0
    2.9251   -2.8221    1.6660 H   0  0  0  0  0  0  0  0  0  0  0  0
    1.4297    0.4864    0.7499 H   0  0  0  0  0  0  0  0  0  0  0  0
    0.1764   -1.9893    2.0619 H   0  0  0  0  0  0  0  0  0  0  0  0
    0.0416   -0.3856    2.7488 H   0  0  0  0  0  0  0  0  0  0  0  0
   -4.3254   -1.5197   -3.1322 H   0  0  0  0  0  0  0  0  0  0  0  0
   -2.7073   -0.8808   -3.5255 H   0  0  0  0  0  0  0  0  0  0  0  0
   -3.2324   -2.4757   -4.0779 H   0  0  0  0  0  0  0  0  0  0  0  0
   -1.0890   -3.9465   -1.7002 H   0  0  0  0  0  0  0  0  0  0  0  0
   -1.5997   -3.7352   -3.3425 H   0  0  0  0  0  0  0  0  0  0  0  0
   -0.5794   -2.4987   -2.6007 H   0  0  0  0  0  0  0  0  0  0  0  0
   -4.7215   -4.8850   -1.6959 H   0  0  0  0  0  0  0  0  0  0  0  0
   -5.2226    3.0506    0.3701 H   0  0  0  0  0  0  0  0  0  0  0  0
   -5.1058    1.8887   -0.9386 H   0  0  0  0  0  0  0  0  0  0  0  0
   -4.2811    3.4354   -1.0933 H   0  0  0  0  0  0  0  0  0  0  0  0
   -3.8741    7.1361    1.4094 H   0  0  0  0  0  0  0  0  0  0  0  0
   -1.6750    6.7994    3.1287 H   0  0  0  0  0  0  0  0  0  0  0  0
    3.3360   -0.3076   -0.6364 H   0  0  0  0  0  0  0  0  0  0  0  0
    3.5902   -2.6721   -1.3694 H   0  0  0  0  0  0  0  0  0  0  0  0
    2.1471   -2.5392   -2.3380 H   0  0  0  0  0  0  0  0  0  0  0  0
    4.8751   -1.3631   -2.8445 H   0  0  0  0  0  0  0  0  0  0  0  0
    3.7351   -2.0733   -3.9866 H   0  0  0  0  0  0  0  0  0  0  0  0
    1.4841   -0.6443   -3.9311 H   0  0  0  0  0  0  0  0  0  0  0  0
    1.7867    1.0932   -3.8467 H   0  0  0  0  0  0  0  0  0  0  0  0
    0.5634   -0.0185   -1.8007 H   0  0  0  0  0  0  0  0  0  0  0  0
    1.8169    1.1644   -1.5115 H   0  0  0  0  0  0  0  0  0  0  0  0
  1  2  1  0
  2  3  1  0
  3  4  2  0
  4  5  1  0
  5  6  2  0
  6  7  1  0
  7  8  2  0
  8  9  1  0
  9 10  1  0
 10 11  1  0
 11 12  1  0
 12 13  2  0
 12 14  1  0
 14 15  1  0
 15 16  1  0
 15 17  1  0
 15 18  1  0
 18 19  2  0
 18 20  1  0
 14 21  1  0
 21 22  2  0
 21 23  1  0
 23 24  1  0
 24 25  1  0
 24 26  2  0
 26 27  1  0
 27 28  2  0
 28 29  1  0
 29 30  2  0
 30 31  1  0
 26 32  1  0
 32 33  1  0
  9 34  1  0
 34 35  1  0
 35 36  1  0
 36 37  1  0
 37 38  1  0
 38 39  1  0
 39 40  1  0
  8  3  1  0
 33 11  1  0
 40 35  1  0
 33 23  2  0
 31 27  1  0
  1 41  1  0
  1 42  1  0
  1 43  1  0
  4 44  1  0
  5 45  1  0
  6 46  1  0
  7 47  1  0
  9 48  1  6
 10 49  1  0
 10 50  1  0
 16 51  1  0
 16 52  1  0
 16 53  1  0
 17 54  1  0
 17 55  1  0
 17 56  1  0
 20 57  1  0
 25 58  1  0
 25 59  1  0
 25 60  1  0
 29 61  1  0
 30 62  1  0
 35 63  1  0
 36 64  1  0
 36 65  1  0
 37 66  1  0
 37 67  1  0
 39 68  1  0
 39 69  1  0
 40 70  1  0
 40 71  1  0
M  END
$$$$
