
     RDKit          3D

 54 56  0  0  0  0  0  0  0  0999 V2000
   -8.3632    1.6340    1.0653 C   0  0  0  0  0  0  0  0  0  0  0  0
   -7.0529    1.0443    0.6441 C   0  0  0  0  0  0  0  0  0  0  0  0
   -6.3391    1.5736   -0.4233 C   0  0  0  0  0  0  0  0  0  0  0  0
   -5.1466    1.1003   -0.8466 N   0  0  0  0  0  0  0  0  0  0  0  0
   -4.6149    0.0469   -0.1774 C   0  0  0  0  0  0  0  0  0  0  0  0
   -3.3230   -0.3977   -0.7061 C   0  0  0  0  0  0  0  0  0  0  0  0
   -2.1440    0.2128   -0.2452 C   0  0  0  0  0  0  0  0  0  0  0  0
   -0.9062   -0.1703   -0.7586 C   0  0  0  0  0  0  0  0  0  0  0  0
    0.2517    0.4528   -0.2465 N   0  0  0  0  0  0  0  0  0  0  0  0
    0.8083   -0.3887    0.8425 C   0  0  0  0  0  0  0  0  0  0  0  0
    2.3111   -0.1339    1.0578 C   0  0  0  0  0  0  0  0  0  0  0  0
    3.1025   -0.3596   -0.1608 N   0  0  0  0  0  0  0  0  0  0  0  0
    4.4710   -0.5602   -0.1904 C   0  0  0  0  0  0  0  0  0  0  0  0
    5.0876   -0.7459   -1.2438 O   0  0  0  0  0  0  0  0  0  0  0  0
    5.1977   -0.6032    1.1411 C   0  0  0  0  0  0  0  0  0  0  0  0
    6.7001   -0.4433    0.9555 C   0  0  0  0  0  0  0  0  0  0  0  0
    7.1618    1.2268    0.4856 S   0  0  0  0  0  6  0  0  0  0  0  0
    7.7418    1.0905   -1.1886 C   0  0  0  0  0  0  0  0  0  0  0  0
    5.9795    2.0686    0.4818 O   0  0  0  0  0  0  0  0  0  0  0  0
    8.3037    1.5935    1.3014 O   0  0  0  0  0  0  0  0  0  0  0  0
    2.3711   -0.2303   -1.4301 C   0  0  0  0  0  0  0  0  0  0  0  0
    1.2171    0.7779   -1.3277 C   0  0  0  0  0  0  0  0  0  0  0  0
   -0.7934   -1.1320   -1.6997 N   0  0  0  0  0  0  0  0  0  0  0  0
   -1.9361   -1.7133   -2.1397 C   0  0  0  0  0  0  0  0  0  0  0  0
   -3.2060   -1.3915   -1.6813 C   0  0  0  0  0  0  0  0  0  0  0  0
   -4.5625   -2.2413   -2.3231 Cl  0  0  0  0  0  0  0  0  0  0  0  0
   -5.2371   -0.5383    0.9344 C   0  0  0  0  0  0  0  0  0  0  0  0
   -4.6264   -1.6892    1.6823 C   0  0  0  0  0  0  0  0  0  0  0  0
   -6.4749   -0.0195    1.3390 C   0  0  0  0  0  0  0  0  0  0  0  0
   -8.9344    1.9732    0.1947 H   0  0  0  0  0  0  0  0  0  0  0  0
   -8.9779    0.8918    1.5871 H   0  0  0  0  0  0  0  0  0  0  0  0
   -8.1926    2.4831    1.7349 H   0  0  0  0  0  0  0  0  0  0  0  0
   -6.7155    2.4210   -0.9898 H   0  0  0  0  0  0  0  0  0  0  0  0
   -2.1938    1.0074    0.4980 H   0  0  0  0  0  0  0  0  0  0  0  0
    0.6796   -1.4592    0.6266 H   0  0  0  0  0  0  0  0  0  0  0  0
    0.2660   -0.1719    1.7709 H   0  0  0  0  0  0  0  0  0  0  0  0
    2.4797    0.9080    1.3592 H   0  0  0  0  0  0  0  0  0  0  0  0
    2.6828   -0.7827    1.8587 H   0  0  0  0  0  0  0  0  0  0  0  0
    4.8176    0.1712    1.8149 H   0  0  0  0  0  0  0  0  0  0  0  0
    4.9940   -1.5840    1.5902 H   0  0  0  0  0  0  0  0  0  0  0  0
    7.1126   -1.1340    0.2129 H   0  0  0  0  0  0  0  0  0  0  0  0
    7.2055   -0.6399    1.9059 H   0  0  0  0  0  0  0  0  0  0  0  0
    6.9240    0.7811   -1.8417 H   0  0  0  0  0  0  0  0  0  0  0  0
    8.5646    0.3722   -1.2244 H   0  0  0  0  0  0  0  0  0  0  0  0
    8.1018    2.0755   -1.4985 H   0  0  0  0  0  0  0  0  0  0  0  0
    3.0532    0.0800   -2.2309 H   0  0  0  0  0  0  0  0  0  0  0  0
    1.9959   -1.2285   -1.6779 H   0  0  0  0  0  0  0  0  0  0  0  0
    0.7258    0.9001   -2.3003 H   0  0  0  0  0  0  0  0  0  0  0  0
    1.6371    1.7630   -1.0830 H   0  0  0  0  0  0  0  0  0  0  0  0
   -1.7877   -2.4788   -2.8993 H   0  0  0  0  0  0  0  0  0  0  0  0
   -5.2265   -1.9524    2.5621 H   0  0  0  0  0  0  0  0  0  0  0  0
   -3.6223   -1.4351    2.0348 H   0  0  0  0  0  0  0  0  0  0  0  0
   -4.5749   -2.5777    1.0423 H   0  0  0  0  0  0  0  0  0  0  0  0
   -6.9934   -0.4476    2.1969 H   0  0  0  0  0  0  0  0  0  0  0  0
  1  2  1  0
  2  3  2  0
  3  4  1  0
  4  5  2  0
  5  6  1  0
  6  7  2  0
  7  8  1  0
  8  9  1  0
  9 10  1  0
 10 11  1  0
 11 12  1  0
 12 13  1  0
 13 14  2  0
 13 15  1  0
 15 16  1  0
 16 17  1  0
 17 18  1  0
 17 19  2  0
 17 20  2  0
 12 21  1  0
 21 22  1  0
  8 23  2  0
 23 24  1  0
 24 25  2  0
 25 26  1  0
  5 27  1  0
 27 28  1  0
 27 29  2  0
 29  2  1  0
 25  6  1  0
 22  9  1  0
  1 30  1  0
  1 31  1  0
  1 32  1  0
  3 33  1  0
  7 34  1  0
 10 35  1  0
 10 36  1  0
 11 37  1  0
 11 38  1  0
 15 39  1  0
 15 40  1  0
 16 41  1  0
 16 42  1  0
 18 43  1  0
 18 44  1  0
 18 45  1  0
 21 46  1  0
 21 47  1  0
 22 48  1  0
 22 49  1  0
 24 50  1  0
 28 51  1  0
 28 52  1  0
 28 53  1  0
 29 54  1  0
M  END
$$$$
