
     RDKit          3D

 50 52  0  0  0  0  0  0  0  0999 V2000
   -3.4427    1.4509    1.7452 C   0  0  0  0  0  0  0  0  0  0  0  0
   -2.9813    1.2477    0.3480 C   0  0  0  0  0  0  0  0  0  0  0  0
   -3.3629    0.0073   -0.3227 N   0  0  0  0  0  0  0  0  0  0  0  0
   -2.4287   -0.5817   -1.2385 C   0  0  0  0  0  0  0  0  0  0  0  0
   -1.1670   -0.7421   -1.3420 C   0  0  0  0  0  0  0  0  0  0  0  0
    0.0556   -0.4769   -0.6668 C   0  0  0  0  0  0  0  0  0  0  0  0
    0.1527    0.0704    0.6817 C   0  0  0  0  0  0  0  0  0  0  0  0
    1.2000   -0.8442   -1.2417 C   0  0  0  0  0  0  0  0  0  0  0  0
    2.5556   -0.7153   -0.8242 C   0  0  0  0  0  0  0  0  0  0  0  0
    3.6253   -2.1944   -0.6547 S   0  0  0  0  0  0  0  0  0  0  0  0
    5.0847   -1.2882   -0.2446 C   0  0  0  0  0  0  0  0  0  0  0  0
    6.3953   -1.6932    0.0451 C   0  0  0  0  0  0  0  0  0  0  0  0
    7.3482   -0.7426    0.3302 C   0  0  0  0  0  0  0  0  0  0  0  0
    6.9502    0.5672    0.3140 C   0  0  0  0  0  0  0  0  0  0  0  0
    5.6833    0.9267    0.0326 C   0  0  0  0  0  0  0  0  0  0  0  0
    4.6574    0.0001   -0.2696 C   0  0  0  0  0  0  0  0  0  0  0  0
    3.3978    0.2522   -0.5607 N   0  0  0  0  0  4  0  0  0  0  0  0
    2.9133    1.6758   -0.7013 C   0  0  0  0  0  0  0  0  0  0  0  0
    2.6195    2.2957    0.6164 C   0  0  0  0  0  0  0  0  0  0  0  0
   -3.5790   -1.4683   -2.3921 S   0  0  0  0  0  0  0  0  0  0  0  0
   -4.8592   -1.6286   -1.1159 C   0  0  0  0  0  0  0  0  0  0  0  0
   -5.9574   -2.4629   -1.1112 C   0  0  0  0  0  0  0  0  0  0  0  0
   -6.9339   -2.2190   -0.1697 C   0  0  0  0  0  0  0  0  0  0  0  0
   -6.7575   -1.1791    0.6877 C   0  0  0  0  0  0  0  0  0  0  0  0
   -5.6539   -0.3564    0.6733 C   0  0  0  0  0  0  0  0  0  0  0  0
   -4.6243   -0.5836   -0.2804 C   0  0  0  0  0  0  0  0  0  0  0  0
    0.0000    0.0000    0.0000 I   0  0  0  0  0 15  0  0  0  0  0  0
   -2.6026    1.9779    2.3464 H   0  0  0  0  0  0  0  0  0  0  0  0
   -4.2746    2.1714    1.8778 H   0  0  0  0  0  0  0  0  0  0  0  0
   -3.6127    0.5391    2.3267 H   0  0  0  0  0  0  0  0  0  0  0  0
   -1.9721    1.5664    0.2062 H   0  0  0  0  0  0  0  0  0  0  0  0
   -3.6514    2.0301   -0.2583 H   0  0  0  0  0  0  0  0  0  0  0  0
   -0.9295   -1.2913   -2.3528 H   0  0  0  0  0  0  0  0  0  0  0  0
    0.1607    1.1661    0.6499 H   0  0  0  0  0  0  0  0  0  0  0  0
   -0.7130   -0.2050    1.3396 H   0  0  0  0  0  0  0  0  0  0  0  0
    1.0465   -0.3270    1.2444 H   0  0  0  0  0  0  0  0  0  0  0  0
    1.0861   -1.3479   -2.2393 H   0  0  0  0  0  0  0  0  0  0  0  0
    6.6094   -2.7552    0.0329 H   0  0  0  0  0  0  0  0  0  0  0  0
    8.3556   -0.9989    0.5547 H   0  0  0  0  0  0  0  0  0  0  0  0
    7.6726    1.3751    0.5335 H   0  0  0  0  0  0  0  0  0  0  0  0
    5.4578    2.0066    0.0485 H   0  0  0  0  0  0  0  0  0  0  0  0
    2.0738    1.7372   -1.3754 H   0  0  0  0  0  0  0  0  0  0  0  0
    3.7460    2.2466   -1.1669 H   0  0  0  0  0  0  0  0  0  0  0  0
    1.7303    2.9692    0.6067 H   0  0  0  0  0  0  0  0  0  0  0  0
    3.4570    2.9662    0.9733 H   0  0  0  0  0  0  0  0  0  0  0  0
    2.5214    1.5476    1.4567 H   0  0  0  0  0  0  0  0  0  0  0  0
   -6.0468   -3.2608   -1.8036 H   0  0  0  0  0  0  0  0  0  0  0  0
   -7.8228   -2.8709   -0.1412 H   0  0  0  0  0  0  0  0  0  0  0  0
   -7.5405   -0.9988    1.4198 H   0  0  0  0  0  0  0  0  0  0  0  0
   -5.6424    0.4386    1.3825 H   0  0  0  0  0  0  0  0  0  0  0  0
  1  2  1  0
  2  3  1  0
  3  4  1  0
  4  5  2  3
  5  6  1  0
  6  7  1  0
  6  8  2  3
  8  9  1  0
  9 10  1  0
 10 11  1  0
 11 12  2  0
 12 13  1  0
 13 14  2  0
 14 15  1  0
 15 16  2  0
 16 17  1  0
 17 18  1  0
 18 19  1  0
  4 20  1  0
 20 21  1  0
 21 22  2  0
 22 23  1  0
 23 24  2  0
 24 25  1  0
 25 26  2  0
 26  3  1  0
 17  9  2  0
 26 21  1  0
 16 11  1  0
  1 28  1  0
  1 29  1  0
  1 30  1  0
  2 31  1  0
  2 32  1  0
  5 33  1  0
  7 34  1  0
  7 35  1  0
  7 36  1  0
  8 37  1  0
 12 38  1  0
 13 39  1  0
 14 40  1  0
 15 41  1  0
 18 42  1  0
 18 43  1  0
 19 44  1  0
 19 45  1  0
 19 46  1  0
 22 47  1  0
 23 48  1  0
 24 49  1  0
 25 50  1  0
M  CHG  2  17   1  27  -1
M  END
$$$$
