
     RDKit          3D

 70 74  0  0  0  0  0  0  0  0999 V2000
    9.6786    3.0108   -0.6418 C   0  0  0  0  0  0  0  0  0  0  0  0
    8.7294    2.9376    0.4149 O   0  0  0  0  0  0  0  0  0  0  0  0
    7.7461    1.9948    0.2984 C   0  0  0  0  0  0  0  0  0  0  0  0
    7.5808    1.1055   -0.7613 C   0  0  0  0  0  0  0  0  0  0  0  0
    6.5272    0.1831   -0.7448 C   0  0  0  0  0  0  0  0  0  0  0  0
    5.6228    0.1418    0.3256 C   0  0  0  0  0  0  0  0  0  0  0  0
    4.5208   -0.8708    0.2787 C   0  0  0  0  0  0  0  0  0  0  0  0
    4.6027   -1.7777   -0.5492 O   0  0  0  0  0  0  0  0  0  0  0  0
    3.3327   -0.7544    1.2417 C   0  0  0  0  0  0  0  0  0  0  0  0
    2.5031   -2.0484    1.2796 C   0  0  0  0  0  0  0  0  0  0  0  0
    1.5823   -2.2049    0.0650 C   0  0  0  0  0  0  0  0  0  0  0  0
    0.7314   -1.0344   -0.1986 N   0  0  0  0  0  0  0  0  0  0  0  0
   -0.3579   -0.8640    0.7885 C   0  0  0  0  0  0  0  0  0  0  0  0
   -1.3482   -2.0383    0.7435 C   0  0  0  0  0  0  0  0  0  0  0  0
   -1.2710   -2.9272    1.5994 O   0  0  0  0  0  0  0  0  0  0  0  0
   -2.3087   -2.0723   -0.2662 N   0  0  0  0  0  0  0  0  0  0  0  0
   -2.3131   -1.1568   -1.4142 C   0  0  0  0  0  0  0  0  0  0  0  0
   -3.4320   -0.1337   -1.2804 C   0  0  0  0  0  0  0  0  0  0  0  0
   -3.2553    0.9604   -0.6078 N   0  0  0  0  0  0  0  0  0  0  0  0
   -4.3248    1.8179   -0.5101 C   0  0  0  0  0  0  0  0  0  0  0  0
   -5.5323    1.5932   -1.0509 C   0  0  0  0  0  0  0  0  0  0  0  0
   -5.7216    0.3414   -1.7998 C   0  0  0  0  0  0  0  0  0  0  0  0
   -6.7929    0.0287   -2.3047 O   0  0  0  0  0  0  0  0  0  0  0  0
   -4.6194   -0.4571   -1.8803 N   0  0  0  0  0  0  0  0  0  0  0  0
   -6.6883    2.5314   -0.9337 C   0  0  0  0  0  0  0  0  0  0  0  0
   -6.2943    3.8154   -0.4195 O   0  0  0  0  0  0  0  0  0  0  0  0
   -5.4370    3.6935    0.7166 C   0  0  0  0  0  0  0  0  0  0  0  0
   -4.1059    3.0684    0.3033 C   0  0  0  0  0  0  0  0  0  0  0  0
   -3.2266   -3.2054   -0.2985 C   0  0  0  0  0  0  0  0  0  0  0  0
   -4.1361   -3.2559    0.8949 C   0  0  0  0  0  0  0  0  0  0  0  0
   -5.6340   -3.1729    0.7156 C   0  0  0  0  0  0  0  0  0  0  0  0
   -4.9037   -2.0613    1.4103 C   0  0  0  0  0  0  0  0  0  0  0  0
    1.5509    0.1761   -0.3191 C   0  0  0  0  0  0  0  0  0  0  0  0
    2.4438    0.4461    0.8945 C   0  0  0  0  0  0  0  0  0  0  0  0
    5.7936    1.0333    1.3879 C   0  0  0  0  0  0  0  0  0  0  0  0
    6.8489    1.9524    1.3681 C   0  0  0  0  0  0  0  0  0  0  0  0
   10.4067    3.7876   -0.3832 H   0  0  0  0  0  0  0  0  0  0  0  0
    9.1978    3.3014   -1.5823 H   0  0  0  0  0  0  0  0  0  0  0  0
   10.2240    2.0667   -0.7524 H   0  0  0  0  0  0  0  0  0  0  0  0
    8.2512    1.0962   -1.6142 H   0  0  0  0  0  0  0  0  0  0  0  0
    6.4171   -0.5070   -1.5809 H   0  0  0  0  0  0  0  0  0  0  0  0
    3.7489   -0.6288    2.2482 H   0  0  0  0  0  0  0  0  0  0  0  0
    3.1616   -2.9228    1.3475 H   0  0  0  0  0  0  0  0  0  0  0  0
    1.8973   -2.0529    2.1941 H   0  0  0  0  0  0  0  0  0  0  0  0
    2.1841   -2.3920   -0.8319 H   0  0  0  0  0  0  0  0  0  0  0  0
    0.9793   -3.1127    0.1778 H   0  0  0  0  0  0  0  0  0  0  0  0
    0.0186   -0.7843    1.8146 H   0  0  0  0  0  0  0  0  0  0  0  0
   -0.9159    0.0596    0.6025 H   0  0  0  0  0  0  0  0  0  0  0  0
   -2.4438   -1.7483   -2.3278 H   0  0  0  0  0  0  0  0  0  0  0  0
   -1.3728   -0.6156   -1.5181 H   0  0  0  0  0  0  0  0  0  0  0  0
   -4.7412   -1.3259   -2.3785 H   0  0  0  0  0  0  0  0  0  0  0  0
   -7.1405    2.7114   -1.9145 H   0  0  0  0  0  0  0  0  0  0  0  0
   -7.4583    2.1141   -0.2744 H   0  0  0  0  0  0  0  0  0  0  0  0
   -5.9373    3.1036    1.4947 H   0  0  0  0  0  0  0  0  0  0  0  0
   -5.2665    4.6971    1.1205 H   0  0  0  0  0  0  0  0  0  0  0  0
   -3.5351    3.7797   -0.3071 H   0  0  0  0  0  0  0  0  0  0  0  0
   -3.5177    2.8486    1.2022 H   0  0  0  0  0  0  0  0  0  0  0  0
   -3.8127   -3.1765   -1.2233 H   0  0  0  0  0  0  0  0  0  0  0  0
   -2.6268   -4.1232   -0.3350 H   0  0  0  0  0  0  0  0  0  0  0  0
   -3.7532   -3.9406    1.6468 H   0  0  0  0  0  0  0  0  0  0  0  0
   -6.2534   -3.8277    1.3204 H   0  0  0  0  0  0  0  0  0  0  0  0
   -6.0421   -2.9676   -0.2675 H   0  0  0  0  0  0  0  0  0  0  0  0
   -4.8058   -1.1096    0.9088 H   0  0  0  0  0  0  0  0  0  0  0  0
   -5.0165   -1.9710    2.4860 H   0  0  0  0  0  0  0  0  0  0  0  0
    0.9104    1.0465   -0.5041 H   0  0  0  0  0  0  0  0  0  0  0  0
    2.1782    0.0857   -1.2148 H   0  0  0  0  0  0  0  0  0  0  0  0
    3.0431    1.3405    0.6928 H   0  0  0  0  0  0  0  0  0  0  0  0
    1.8196    0.6908    1.7628 H   0  0  0  0  0  0  0  0  0  0  0  0
    5.1332    1.0387    2.2484 H   0  0  0  0  0  0  0  0  0  0  0  0
    6.9766    2.6423    2.2000 H   0  0  0  0  0  0  0  0  0  0  0  0
  1  2  1  0
  2  3  1  0
  3  4  2  0
  4  5  1  0
  5  6  2  0
  6  7  1  0
  7  8  2  0
  7  9  1  0
  9 10  1  0
 10 11  1  0
 11 12  1  0
 12 13  1  0
 13 14  1  0
 14 15  2  0
 14 16  1  0
 16 17  1  0
 17 18  1  0
 18 19  2  0
 19 20  1  0
 20 21  2  0
 21 22  1  0
 22 23  2  0
 22 24  1  0
 21 25  1  0
 25 26  1  0
 26 27  1  0
 27 28  1  0
 16 29  1  0
 29 30  1  0
 30 31  1  0
 31 32  1  0
 12 33  1  0
 33 34  1  0
  6 35  1  0
 35 36  2  0
 36  3  1  0
 34  9  1  0
 24 18  1  0
 32 30  1  0
 28 20  1  0
  1 37  1  0
  1 38  1  0
  1 39  1  0
  4 40  1  0
  5 41  1  0
  9 42  1  0
 10 43  1  0
 10 44  1  0
 11 45  1  0
 11 46  1  0
 13 47  1  0
 13 48  1  0
 17 49  1  0
 17 50  1  0
 24 51  1  0
 25 52  1  0
 25 53  1  0
 27 54  1  0
 27 55  1  0
 28 56  1  0
 28 57  1  0
 29 58  1  0
 29 59  1  0
 30 60  1  0
 31 61  1  0
 31 62  1  0
 32 63  1  0
 32 64  1  0
 33 65  1  0
 33 66  1  0
 34 67  1  0
 34 68  1  0
 35 69  1  0
 36 70  1  0
M  END
$$$$
