
     RDKit          3D

 70 73  0  0  0  0  0  0  0  0999 V2000
   -0.8896    2.6646   -1.8441 C   0  0  0  0  0  0  0  0  0  0  0  0
   -0.2699    1.5831   -1.1606 O   0  0  0  0  0  0  0  0  0  0  0  0
   -1.0912    0.7531   -0.4260 C   0  0  0  0  0  0  0  0  0  0  0  0
   -2.4951    0.7769   -0.4704 C   0  0  0  0  0  0  0  0  0  0  0  0
   -3.2803   -0.0967    0.2997 C   0  0  0  0  0  0  0  0  0  0  0  0
   -4.6684   -0.0798    0.2435 N   0  0  0  0  0  0  0  0  0  0  0  0
   -5.4636   -0.5887    1.3638 C   0  0  0  0  0  0  0  0  0  0  0  0
   -6.8672    0.0124    1.3380 C   0  0  0  0  0  0  0  0  0  0  0  0
   -7.5996   -0.3870    0.0451 C   0  0  0  0  0  0  0  0  0  0  0  0
   -8.8605    0.3417   -0.2260 N   0  0  0  0  0  0  0  0  0  0  0  0
   -9.8803    0.0845    0.7914 C   0  0  0  0  0  0  0  0  0  0  0  0
   -8.7033    1.7803   -0.4296 C   0  0  0  0  0  0  0  0  0  0  0  0
   -6.6540   -0.3944   -1.1748 C   0  0  0  0  0  0  0  0  0  0  0  0
   -5.3750    0.4062   -0.9457 C   0  0  0  0  0  0  0  0  0  0  0  0
   -2.5874   -0.9872    1.1306 C   0  0  0  0  0  0  0  0  0  0  0  0
   -1.1865   -1.0291    1.1785 C   0  0  0  0  0  0  0  0  0  0  0  0
   -0.4154   -0.1730    0.3960 C   0  0  0  0  0  0  0  0  0  0  0  0
    0.9874   -0.1730    0.3924 N   0  0  0  0  0  0  0  0  0  0  0  0
    1.9681   -0.9452    0.9969 C   0  0  0  0  0  0  0  0  0  0  0  0
    1.6712   -1.8779    1.9114 N   0  0  0  0  0  0  0  0  0  0  0  0
    2.6994   -2.5810    2.4240 C   0  0  0  0  0  0  0  0  0  0  0  0
    4.0106   -2.3954    2.0572 C   0  0  0  0  0  0  0  0  0  0  0  0
    5.2478   -3.3623    2.7571 Cl  0  0  0  0  0  0  0  0  0  0  0  0
    4.2458   -1.4089    1.1087 C   0  0  0  0  0  0  0  0  0  0  0  0
    5.5726   -1.1919    0.6527 N   0  0  0  0  0  0  0  0  0  0  0  0
    6.0537   -0.3940   -0.4108 C   0  0  0  0  0  0  0  0  0  0  0  0
    5.2610   -0.1071   -1.5334 C   0  0  0  0  0  0  0  0  0  0  0  0
    5.7564    0.6304   -2.6113 C   0  0  0  0  0  0  0  0  0  0  0  0
    7.0698    1.0780   -2.6002 C   0  0  0  0  0  0  0  0  0  0  0  0
    7.8882    0.7793   -1.5138 C   0  0  0  0  0  0  0  0  0  0  0  0
    7.3981    0.0436   -0.4181 C   0  0  0  0  0  0  0  0  0  0  0  0
    8.4892   -0.3262    0.9303 P   0  0  0  0  0  5  0  0  0  0  0  0
    9.4104    1.1439    1.4019 C   0  0  0  0  0  0  0  0  0  0  0  0
    9.7708   -1.4405    0.3390 C   0  0  0  0  0  0  0  0  0  0  0  0
    7.8183   -0.9171    2.1495 O   0  0  0  0  0  0  0  0  0  0  0  0
    3.2234   -0.6935    0.5878 N   0  0  0  0  0  0  0  0  0  0  0  0
   -1.5257    2.3018   -2.6581 H   0  0  0  0  0  0  0  0  0  0  0  0
   -1.4507    3.3037   -1.1540 H   0  0  0  0  0  0  0  0  0  0  0  0
   -0.0975    3.2746   -2.2897 H   0  0  0  0  0  0  0  0  0  0  0  0
   -2.9978    1.4997   -1.1007 H   0  0  0  0  0  0  0  0  0  0  0  0
   -5.5216   -1.6826    1.3144 H   0  0  0  0  0  0  0  0  0  0  0  0
   -5.0015   -0.3165    2.3205 H   0  0  0  0  0  0  0  0  0  0  0  0
   -6.7829    1.1013    1.4277 H   0  0  0  0  0  0  0  0  0  0  0  0
   -7.4282   -0.3366    2.2127 H   0  0  0  0  0  0  0  0  0  0  0  0
   -7.8928   -1.4409    0.1658 H   0  0  0  0  0  0  0  0  0  0  0  0
  -10.0363   -0.9918    0.9257 H   0  0  0  0  0  0  0  0  0  0  0  0
  -10.8452    0.5002    0.4780 H   0  0  0  0  0  0  0  0  0  0  0  0
   -9.6216    0.5215    1.7618 H   0  0  0  0  0  0  0  0  0  0  0  0
   -8.3868    2.3039    0.4781 H   0  0  0  0  0  0  0  0  0  0  0  0
   -9.6548    2.2195   -0.7529 H   0  0  0  0  0  0  0  0  0  0  0  0
   -7.9858    2.0003   -1.2262 H   0  0  0  0  0  0  0  0  0  0  0  0
   -7.1600   -0.0415   -2.0817 H   0  0  0  0  0  0  0  0  0  0  0  0
   -6.3769   -1.4370   -1.3878 H   0  0  0  0  0  0  0  0  0  0  0  0
   -4.7611    0.2948   -1.8475 H   0  0  0  0  0  0  0  0  0  0  0  0
   -5.5990    1.4726   -0.8286 H   0  0  0  0  0  0  0  0  0  0  0  0
   -3.1255   -1.7022    1.7469 H   0  0  0  0  0  0  0  0  0  0  0  0
   -0.7218   -1.7558    1.8371 H   0  0  0  0  0  0  0  0  0  0  0  0
    1.3971    0.4720   -0.2726 H   0  0  0  0  0  0  0  0  0  0  0  0
    2.4192   -3.3274    3.1606 H   0  0  0  0  0  0  0  0  0  0  0  0
    6.2184   -1.2288    1.4544 H   0  0  0  0  0  0  0  0  0  0  0  0
    4.2387   -0.4708   -1.5947 H   0  0  0  0  0  0  0  0  0  0  0  0
    5.1118    0.8409   -3.4606 H   0  0  0  0  0  0  0  0  0  0  0  0
    7.4582    1.6473   -3.4406 H   0  0  0  0  0  0  0  0  0  0  0  0
    8.9196    1.1217   -1.5311 H   0  0  0  0  0  0  0  0  0  0  0  0
   10.0263    1.5098    0.5749 H   0  0  0  0  0  0  0  0  0  0  0  0
   10.0745    0.9148    2.2403 H   0  0  0  0  0  0  0  0  0  0  0  0
    8.7275    1.9423    1.7099 H   0  0  0  0  0  0  0  0  0  0  0  0
    9.3230   -2.3739   -0.0160 H   0  0  0  0  0  0  0  0  0  0  0  0
   10.4718   -1.6761    1.1457 H   0  0  0  0  0  0  0  0  0  0  0  0
   10.3327   -0.9889   -0.4830 H   0  0  0  0  0  0  0  0  0  0  0  0
  1  2  1  0
  2  3  1  0
  3  4  2  0
  4  5  1  0
  5  6  1  0
  6  7  1  0
  7  8  1  0
  8  9  1  0
  9 10  1  0
 10 11  1  0
 10 12  1  0
  9 13  1  0
 13 14  1  0
  5 15  2  0
 15 16  1  0
 16 17  2  0
 17 18  1  0
 18 19  1  0
 19 20  2  0
 20 21  1  0
 21 22  2  0
 22 23  1  0
 22 24  1  0
 24 25  1  0
 25 26  1  0
 26 27  2  0
 27 28  1  0
 28 29  2  0
 29 30  1  0
 30 31  2  0
 31 32  1  0
 32 33  1  0
 32 34  1  0
 32 35  2  0
 24 36  2  0
 17  3  1  0
 36 19  1  0
 14  6  1  0
 31 26  1  0
  1 37  1  0
  1 38  1  0
  1 39  1  0
  4 40  1  0
  7 41  1  0
  7 42  1  0
  8 43  1  0
  8 44  1  0
  9 45  1  0
 11 46  1  0
 11 47  1  0
 11 48  1  0
 12 49  1  0
 12 50  1  0
 12 51  1  0
 13 52  1  0
 13 53  1  0
 14 54  1  0
 14 55  1  0
 15 56  1  0
 16 57  1  0
 18 58  1  0
 21 59  1  0
 25 60  1  0
 27 61  1  0
 28 62  1  0
 29 63  1  0
 30 64  1  0
 33 65  1  0
 33 66  1  0
 33 67  1  0
 34 68  1  0
 34 69  1  0
 34 70  1  0
M  END
$$$$
