
     RDKit          3D

 55 57  0  0  0  0  0  0  0  0999 V2000
    9.7378    0.4545    1.4905 C   0  0  0  0  0  0  0  0  0  0  0  0
    8.5710   -0.1923    1.9822 O   0  0  0  0  0  0  0  0  0  0  0  0
    7.4253   -0.0373    1.2514 C   0  0  0  0  0  0  0  0  0  0  0  0
    7.2967    0.6924    0.0698 C   0  0  0  0  0  0  0  0  0  0  0  0
    6.0588    0.7706   -0.5784 C   0  0  0  0  0  0  0  0  0  0  0  0
    4.9362    0.1170   -0.0553 C   0  0  0  0  0  0  0  0  0  0  0  0
    3.5992    0.2247   -0.7427 C   0  0  0  0  0  0  0  0  0  0  0  0
    2.8013    1.4304   -0.2413 C   0  0  0  0  0  0  0  0  0  0  0  0
    1.5206    1.5322   -0.9118 N   0  0  0  0  0  0  0  0  0  0  0  0
    1.3206    2.1748   -2.0945 C   0  0  0  0  0  0  0  0  0  0  0  0
    2.1387    2.8015   -2.7459 O   0  0  0  0  0  0  0  0  0  0  0  0
    0.0090    2.0001   -2.4672 N   0  0  0  0  0  0  0  0  0  0  0  0
   -0.7502    1.2601   -1.4882 C   0  0  1  0  0  0  0  0  0  0  0  0
   -1.3945    0.0192   -2.1013 C   0  0  0  0  0  0  0  0  0  0  0  0
   -2.3675   -0.6969   -1.1623 C   0  0  0  0  0  0  0  0  0  0  0  0
   -3.6097    0.1196   -0.8630 C   0  0  0  0  0  0  0  0  0  0  0  0
   -3.8599    1.1889   -1.4083 O   0  0  0  0  0  0  0  0  0  0  0  0
   -4.4338   -0.4733    0.0627 N   0  0  0  0  0  0  0  0  0  0  0  0
   -5.5908    0.2204    0.5688 C   0  0  0  0  0  0  0  0  0  0  0  0
   -6.4307   -0.7767    1.2848 C   0  0  0  0  0  0  0  0  0  0  0  0
   -6.4740   -1.0807    2.6350 C   0  0  0  0  0  0  0  0  0  0  0  0
   -7.4326   -2.1026    2.8198 C   0  0  0  0  0  0  0  0  0  0  0  0
   -7.9552   -2.4004    1.5820 C   0  0  0  0  0  0  0  0  0  0  0  0
   -7.3469   -1.5925    0.6561 N   0  0  0  0  0  0  0  0  0  0  0  0
   -7.6330   -1.6133   -0.7627 C   0  0  0  0  0  0  0  0  0  0  0  0
    0.3704    0.9207   -0.4981 C   0  0  0  0  0  0  0  0  0  0  0  0
    0.2424    0.2194    0.4968 O   0  0  0  0  0  0  0  0  0  0  0  0
    5.0683   -0.6096    1.1327 C   0  0  0  0  0  0  0  0  0  0  0  0
    6.3055   -0.6858    1.7766 C   0  0  0  0  0  0  0  0  0  0  0  0
    9.6053    1.5413    1.4630 H   0  0  0  0  0  0  0  0  0  0  0  0
   10.0206    0.0648    0.5069 H   0  0  0  0  0  0  0  0  0  0  0  0
   10.5571    0.2368    2.1825 H   0  0  0  0  0  0  0  0  0  0  0  0
    8.1369    1.2146   -0.3748 H   0  0  0  0  0  0  0  0  0  0  0  0
    5.9784    1.3487   -1.4974 H   0  0  0  0  0  0  0  0  0  0  0  0
    3.0291   -0.7001   -0.5848 H   0  0  0  0  0  0  0  0  0  0  0  0
    3.7496    0.2926   -1.8281 H   0  0  0  0  0  0  0  0  0  0  0  0
    2.6235    1.3458    0.8373 H   0  0  0  0  0  0  0  0  0  0  0  0
    3.3612    2.3562   -0.4198 H   0  0  0  0  0  0  0  0  0  0  0  0
   -0.3771    2.4990   -3.2587 H   0  0  0  0  0  0  0  0  0  0  0  0
   -1.4563    1.9504   -1.0199 H   0  0  0  0  0  0  0  0  0  0  0  0
   -0.6142   -0.6935   -2.3992 H   0  0  0  0  0  0  0  0  0  0  0  0
   -1.9222    0.3004   -3.0221 H   0  0  0  0  0  0  0  0  0  0  0  0
   -1.8790   -0.9652   -0.2207 H   0  0  0  0  0  0  0  0  0  0  0  0
   -2.6972   -1.6273   -1.6408 H   0  0  0  0  0  0  0  0  0  0  0  0
   -4.0653   -1.2259    0.6310 H   0  0  0  0  0  0  0  0  0  0  0  0
   -5.2422    1.0035    1.2511 H   0  0  0  0  0  0  0  0  0  0  0  0
   -6.1280    0.7071   -0.2516 H   0  0  0  0  0  0  0  0  0  0  0  0
   -5.8755   -0.6118    3.4064 H   0  0  0  0  0  0  0  0  0  0  0  0
   -7.7138   -2.5706    3.7544 H   0  0  0  0  0  0  0  0  0  0  0  0
   -8.7106   -3.1191    1.2919 H   0  0  0  0  0  0  0  0  0  0  0  0
   -8.0536   -0.6443   -1.0436 H   0  0  0  0  0  0  0  0  0  0  0  0
   -8.3553   -2.4053   -0.9780 H   0  0  0  0  0  0  0  0  0  0  0  0
   -6.7040   -1.8079   -1.3039 H   0  0  0  0  0  0  0  0  0  0  0  0
    4.2120   -1.1210    1.5677 H   0  0  0  0  0  0  0  0  0  0  0  0
    6.3974   -1.2549    2.6987 H   0  0  0  0  0  0  0  0  0  0  0  0
  1  2  1  0
  2  3  1  0
  3  4  2  0
  4  5  1  0
  5  6  2  0
  6  7  1  0
  7  8  1  0
  8  9  1  0
  9 10  1  0
 10 11  2  0
 10 12  1  0
 12 13  1  0
 13 14  1  0
 14 15  1  0
 15 16  1  0
 16 17  2  0
 16 18  1  0
 18 19  1  0
 19 20  1  0
 20 21  2  0
 21 22  1  0
 22 23  2  0
 23 24  1  0
 24 25  1  0
 13 26  1  0
 26 27  2  0
  6 28  1  0
 28 29  2  0
 29  3  1  0
 26  9  1  0
 24 20  1  0
  1 30  1  0
  1 31  1  0
  1 32  1  0
  4 33  1  0
  5 34  1  0
  7 35  1  0
  7 36  1  0
  8 37  1  0
  8 38  1  0
 12 39  1  0
 13 40  1  1
 14 41  1  0
 14 42  1  0
 15 43  1  0
 15 44  1  0
 18 45  1  0
 19 46  1  0
 19 47  1  0
 21 48  1  0
 22 49  1  0
 23 50  1  0
 25 51  1  0
 25 52  1  0
 25 53  1  0
 28 54  1  0
 29 55  1  0
M  END
$$$$
