
     RDKit          3D

 43 45  0  0  0  0  0  0  0  0999 V2000
    7.2870    1.7777    3.0313 N   0  0  0  0  0  0  0  0  0  0  0  0
    6.6366    1.4454    2.1276 C   0  0  0  0  0  0  0  0  0  0  0  0
    5.7915    1.0221    1.0524 C   0  0  0  0  0  0  0  0  0  0  0  0
    4.5307    0.5070    1.2984 C   0  0  0  0  0  0  0  0  0  0  0  0
    3.6978    0.0971    0.3058 N   0  0  0  0  0  0  0  0  0  0  0  0
    4.1595    0.1963   -0.9632 C   0  0  0  0  0  0  0  0  0  0  0  0
    3.3754   -0.1829   -2.0642 N   0  0  0  0  0  0  0  0  0  0  0  0
    2.0717   -0.6831   -2.0796 C   0  0  0  0  0  0  0  0  0  0  0  0
    1.0767   -0.2508   -1.2070 C   0  0  0  0  0  0  0  0  0  0  0  0
   -0.2198   -0.7835   -1.2688 C   0  0  0  0  0  0  0  0  0  0  0  0
   -1.2580   -0.3196   -0.4494 N   0  0  0  0  0  0  0  0  0  0  0  0
   -0.9550    0.4007    0.7950 C   0  0  0  0  0  0  0  0  0  0  0  0
   -2.2507    0.6715    1.5865 C   0  0  1  0  0  0  0  0  0  0  0  0
   -3.1826    1.6598    0.8515 C   0  0  0  0  0  0  0  0  0  0  0  0
   -4.4057    1.9754    1.6151 N   0  0  0  0  0  0  0  0  0  0  0  0
   -4.7977    0.8463    2.4767 C   0  0  0  0  0  0  0  0  0  0  0  0
   -4.3166   -0.5076    1.9379 C   0  0  0  0  0  0  0  0  0  0  0  0
   -2.8863   -0.5963    1.8658 O   0  0  0  0  0  0  0  0  0  0  0  0
   -0.4862   -1.7017   -2.2928 C   0  0  0  0  0  0  0  0  0  0  0  0
   -1.8388   -2.2852   -2.5568 C   0  0  0  0  0  0  0  0  0  0  0  0
   -2.5874   -1.5244   -3.4027 F   0  0  0  0  0  0  0  0  0  0  0  0
   -1.7789   -3.5204   -3.1364 F   0  0  0  0  0  0  0  0  0  0  0  0
   -2.5955   -2.4562   -1.4338 F   0  0  0  0  0  0  0  0  0  0  0  0
    0.5562   -2.0560   -3.1416 C   0  0  0  0  0  0  0  0  0  0  0  0
    1.8161   -1.5769   -3.0523 N   0  0  0  0  0  0  0  0  0  0  0  0
    5.4321    0.7358   -1.1889 C   0  0  0  0  0  0  0  0  0  0  0  0
    6.2738    1.1520   -0.2056 N   0  0  0  0  0  0  0  0  0  0  0  0
    4.1389    0.4034    2.3054 H   0  0  0  0  0  0  0  0  0  0  0  0
    3.8940   -0.7073   -2.7611 H   0  0  0  0  0  0  0  0  0  0  0  0
    1.3262    0.5137   -0.4817 H   0  0  0  0  0  0  0  0  0  0  0  0
   -1.9632   -1.0422   -0.2578 H   0  0  0  0  0  0  0  0  0  0  0  0
   -0.4572    1.3531    0.5819 H   0  0  0  0  0  0  0  0  0  0  0  0
   -0.2929   -0.2194    1.4118 H   0  0  0  0  0  0  0  0  0  0  0  0
   -1.9656    1.1050    2.5540 H   0  0  0  0  0  0  0  0  0  0  0  0
   -3.4999    1.2331   -0.1076 H   0  0  0  0  0  0  0  0  0  0  0  0
   -2.6544    2.5932    0.6275 H   0  0  0  0  0  0  0  0  0  0  0  0
   -4.2537    2.7979    2.1978 H   0  0  0  0  0  0  0  0  0  0  0  0
   -5.8870    0.8450    2.5835 H   0  0  0  0  0  0  0  0  0  0  0  0
   -4.3656    1.0048    3.4724 H   0  0  0  0  0  0  0  0  0  0  0  0
   -4.6609   -1.3161    2.5906 H   0  0  0  0  0  0  0  0  0  0  0  0
   -4.7242   -0.7005    0.9385 H   0  0  0  0  0  0  0  0  0  0  0  0
    0.4034   -2.7599   -3.9582 H   0  0  0  0  0  0  0  0  0  0  0  0
    5.8161    0.8537   -2.1981 H   0  0  0  0  0  0  0  0  0  0  0  0
  1  2  3  0
  2  3  1  0
  3  4  2  0
  4  5  1  0
  5  6  2  0
  6  7  1  0
  7  8  1  0
  8  9  2  0
  9 10  1  0
 10 11  1  0
 11 12  1  0
 12 13  1  0
 13 14  1  0
 14 15  1  0
 15 16  1  0
 16 17  1  0
 17 18  1  0
 10 19  2  0
 19 20  1  0
 20 21  1  0
 20 22  1  0
 20 23  1  0
 19 24  1  0
 24 25  2  0
  6 26  1  0
 26 27  2  0
 27  3  1  0
 25  8  1  0
 18 13  1  0
  4 28  1  0
  7 29  1  0
  9 30  1  0
 11 31  1  0
 12 32  1  0
 12 33  1  0
 13 34  1  1
 14 35  1  0
 14 36  1  0
 15 37  1  0
 16 38  1  0
 16 39  1  0
 17 40  1  0
 17 41  1  0
 24 42  1  0
 26 43  1  0
M  END
$$$$
