
     RDKit          3D

 44 46  0  0  0  0  0  0  0  0999 V2000
   -1.6931   -1.5023   -4.9766 N   0  0  0  0  0  0  0  0  0  0  0  0
   -2.2404   -1.2546   -3.7513 C   0  0  0  0  0  0  0  0  0  0  0  0
   -3.4432   -1.3962   -3.5812 O   0  0  0  0  0  0  0  0  0  0  0  0
   -1.3036   -0.8485   -2.8423 N   0  0  0  0  0  0  0  0  0  0  0  0
   -1.5337   -0.5447   -1.5027 C   0  0  0  0  0  0  0  0  0  0  0  0
   -2.7643   -0.6696   -0.7892 C   0  0  0  0  0  0  0  0  0  0  0  0
   -2.6725   -0.2880    0.5364 C   0  0  0  0  0  0  0  0  0  0  0  0
   -3.7323   -0.2570    1.5549 C   0  0  0  0  0  0  0  0  0  0  0  0
   -5.0218    0.1844    1.2097 C   0  0  0  0  0  0  0  0  0  0  0  0
   -6.0509    0.2169    2.1567 C   0  0  0  0  0  0  0  0  0  0  0  0
   -5.8037   -0.1963    3.4625 C   0  0  0  0  0  0  0  0  0  0  0  0
   -4.5332   -0.6393    3.8073 C   0  0  0  0  0  0  0  0  0  0  0  0
   -4.2956   -1.0429    5.0625 F   0  0  0  0  0  0  0  0  0  0  0  0
   -3.5021   -0.6755    2.8725 C   0  0  0  0  0  0  0  0  0  0  0  0
   -1.0832    0.2271    0.9069 S   0  0  0  0  0  0  0  0  0  0  0  0
   -0.5204   -0.0672   -0.6840 C   0  0  0  0  0  0  0  0  0  0  0  0
    0.8687    0.1747   -1.0625 C   0  0  0  0  0  0  0  0  0  0  0  0
    1.2906   -0.0674   -2.1933 O   0  0  0  0  0  0  0  0  0  0  0  0
    1.6912    0.6818   -0.0766 N   0  0  0  0  0  0  0  0  0  0  0  0
    3.1284    0.8396   -0.2611 C   0  0  1  0  0  0  0  0  0  0  0  0
    3.6810    1.8813    0.7245 C   0  0  0  0  0  0  0  0  0  0  0  0
    5.1342    1.6141    1.1192 C   0  0  0  0  0  0  0  0  0  0  0  0
    5.8983    0.8970    0.0131 C   0  0  0  0  0  0  0  0  0  0  0  0
    5.3276   -0.4043   -0.3285 N   0  0  0  0  0  0  0  0  0  0  0  0
    3.8788   -0.5012   -0.1151 C   0  0  0  0  0  0  0  0  0  0  0  0
   -0.7729   -1.9182   -4.9959 H   0  0  0  0  0  0  0  0  0  0  0  0
   -2.3538   -1.9126   -5.6252 H   0  0  0  0  0  0  0  0  0  0  0  0
   -0.3660   -0.6603   -3.1886 H   0  0  0  0  0  0  0  0  0  0  0  0
   -3.6886   -1.0307   -1.2251 H   0  0  0  0  0  0  0  0  0  0  0  0
   -5.2357    0.5171    0.1949 H   0  0  0  0  0  0  0  0  0  0  0  0
   -7.0409    0.5642    1.8715 H   0  0  0  0  0  0  0  0  0  0  0  0
   -6.5899   -0.1792    4.2104 H   0  0  0  0  0  0  0  0  0  0  0  0
   -2.5324   -1.0455    3.1900 H   0  0  0  0  0  0  0  0  0  0  0  0
    1.3063    0.7381    0.8585 H   0  0  0  0  0  0  0  0  0  0  0  0
    3.2874    1.2073   -1.2839 H   0  0  0  0  0  0  0  0  0  0  0  0
    3.5993    2.8744    0.2642 H   0  0  0  0  0  0  0  0  0  0  0  0
    3.0771    1.9281    1.6396 H   0  0  0  0  0  0  0  0  0  0  0  0
    5.6271    2.5606    1.3687 H   0  0  0  0  0  0  0  0  0  0  0  0
    5.1567    1.0029    2.0309 H   0  0  0  0  0  0  0  0  0  0  0  0
    6.9441    0.7613    0.3109 H   0  0  0  0  0  0  0  0  0  0  0  0
    5.9123    1.5227   -0.8874 H   0  0  0  0  0  0  0  0  0  0  0  0
    5.7942   -1.1467    0.1919 H   0  0  0  0  0  0  0  0  0  0  0  0
    3.6934   -0.9052    0.8892 H   0  0  0  0  0  0  0  0  0  0  0  0
    3.4775   -1.2402   -0.8178 H   0  0  0  0  0  0  0  0  0  0  0  0
  1  2  1  0
  2  3  2  0
  2  4  1  0
  4  5  1  0
  5  6  1  0
  6  7  2  0
  7  8  1  0
  8  9  2  0
  9 10  1  0
 10 11  2  0
 11 12  1  0
 12 13  1  0
 12 14  2  0
  7 15  1  0
 15 16  1  0
 16 17  1  0
 17 18  2  0
 17 19  1  0
 19 20  1  0
 20 21  1  0
 21 22  1  0
 22 23  1  0
 23 24  1  0
 24 25  1  0
 16  5  2  0
 25 20  1  0
 14  8  1  0
  1 26  1  0
  1 27  1  0
  4 28  1  0
  6 29  1  0
  9 30  1  0
 10 31  1  0
 11 32  1  0
 14 33  1  0
 19 34  1  0
 20 35  1  6
 21 36  1  0
 21 37  1  0
 22 38  1  0
 22 39  1  0
 23 40  1  0
 23 41  1  0
 24 42  1  0
 25 43  1  0
 25 44  1  0
M  END
$$$$
