
     RDKit          3D

 48 51  0  0  0  0  0  0  0  0999 V2000
   -6.6785    0.2021    2.3596 C   0  0  0  0  0  0  0  0  0  0  0  0
   -5.6634   -0.1700    1.3903 N   0  0  0  0  0  0  0  0  0  0  0  0
   -5.9002   -1.2757    0.5648 C   0  0  0  0  0  0  0  0  0  0  0  0
   -5.0155   -1.7179   -0.3473 C   0  0  0  0  0  0  0  0  0  0  0  0
   -3.8121   -0.9892   -0.4274 C   0  0  0  0  0  0  0  0  0  0  0  0
   -3.5137    0.1068    0.3484 C   0  0  0  0  0  0  0  0  0  0  0  0
   -2.2495    0.5753   -0.0674 C   0  0  0  0  0  0  0  0  0  0  0  0
   -1.7828   -0.2670   -1.0765 C   0  0  0  0  0  0  0  0  0  0  0  0
   -0.5619   -0.1566   -1.8591 C   0  0  0  0  0  0  0  0  0  0  0  0
   -0.5636   -0.3651   -3.0731 O   0  0  0  0  0  0  0  0  0  0  0  0
    0.6132    0.1887   -1.1975 N   0  0  0  0  0  0  0  0  0  0  0  0
    0.8277    0.0691    0.2496 C   0  0  0  0  0  0  0  0  0  0  0  0
    2.2522   -0.3923    0.6191 C   0  0  0  0  0  0  0  0  0  0  0  0
    3.2888    0.4441   -0.0104 N   0  0  0  0  0  0  0  0  0  0  0  0
    4.4928    0.6979    0.6394 C   0  0  0  0  0  0  0  0  0  0  0  0
    5.0149   -0.2215    1.5695 C   0  0  0  0  0  0  0  0  0  0  0  0
    6.2235    0.0020    2.2418 C   0  0  0  0  0  0  0  0  0  0  0  0
    6.9550    1.1582    2.0020 C   0  0  0  0  0  0  0  0  0  0  0  0
    6.4782    2.0856    1.0856 C   0  0  0  0  0  0  0  0  0  0  0  0
    5.2754    1.8503    0.4151 C   0  0  0  0  0  0  0  0  0  0  0  0
    4.8677    2.8020   -0.4405 F   0  0  0  0  0  0  0  0  0  0  0  0
    2.9056    1.1906   -1.2218 C   0  0  0  0  0  0  0  0  0  0  0  0
    1.8079    0.4487   -2.0023 C   0  0  0  0  0  0  0  0  0  0  0  0
   -2.7665   -1.2333   -1.2799 N   0  0  0  0  0  0  0  0  0  0  0  0
   -2.6821   -2.3345   -2.2168 C   0  0  0  0  0  0  0  0  0  0  0  0
   -4.4615    0.5766    1.3510 C   0  0  0  0  0  0  0  0  0  0  0  0
   -4.2108    1.5275    2.0862 O   0  0  0  0  0  0  0  0  0  0  0  0
   -6.5002    1.2010    2.7684 H   0  0  0  0  0  0  0  0  0  0  0  0
   -7.6604    0.1954    1.8815 H   0  0  0  0  0  0  0  0  0  0  0  0
   -6.6637   -0.5237    3.1789 H   0  0  0  0  0  0  0  0  0  0  0  0
   -6.8563   -1.7748    0.6931 H   0  0  0  0  0  0  0  0  0  0  0  0
   -5.2309   -2.5728   -0.9786 H   0  0  0  0  0  0  0  0  0  0  0  0
   -1.7447    1.4553    0.3091 H   0  0  0  0  0  0  0  0  0  0  0  0
    0.1094   -0.6276    0.6910 H   0  0  0  0  0  0  0  0  0  0  0  0
    0.6497    1.0634    0.6761 H   0  0  0  0  0  0  0  0  0  0  0  0
    2.3962   -1.4293    0.2937 H   0  0  0  0  0  0  0  0  0  0  0  0
    2.3262   -0.3637    1.7122 H   0  0  0  0  0  0  0  0  0  0  0  0
    4.4952   -1.1540    1.7678 H   0  0  0  0  0  0  0  0  0  0  0  0
    6.5902   -0.7397    2.9479 H   0  0  0  0  0  0  0  0  0  0  0  0
    7.8918    1.3347    2.5223 H   0  0  0  0  0  0  0  0  0  0  0  0
    7.0312    2.9961    0.8823 H   0  0  0  0  0  0  0  0  0  0  0  0
    3.7648    1.3071   -1.8924 H   0  0  0  0  0  0  0  0  0  0  0  0
    2.5430    2.1855   -0.9358 H   0  0  0  0  0  0  0  0  0  0  0  0
    1.5280    1.0183   -2.8949 H   0  0  0  0  0  0  0  0  0  0  0  0
    2.1835   -0.5261   -2.3368 H   0  0  0  0  0  0  0  0  0  0  0  0
   -1.6494   -2.5038   -2.5191 H   0  0  0  0  0  0  0  0  0  0  0  0
   -3.0357   -3.2405   -1.7218 H   0  0  0  0  0  0  0  0  0  0  0  0
   -3.3090   -2.1032   -3.0796 H   0  0  0  0  0  0  0  0  0  0  0  0
  1  2  1  0
  2  3  1  0
  3  4  2  0
  4  5  1  0
  5  6  2  0
  6  7  1  0
  7  8  2  0
  8  9  1  0
  9 10  2  0
  9 11  1  0
 11 12  1  0
 12 13  1  0
 13 14  1  0
 14 15  1  0
 15 16  2  0
 16 17  1  0
 17 18  2  0
 18 19  1  0
 19 20  2  0
 20 21  1  0
 14 22  1  0
 22 23  1  0
  8 24  1  0
 24 25  1  0
  6 26  1  0
 26 27  2  0
 26  2  1  0
 24  5  1  0
 23 11  1  0
 20 15  1  0
  1 28  1  0
  1 29  1  0
  1 30  1  0
  3 31  1  0
  4 32  1  0
  7 33  1  0
 12 34  1  0
 12 35  1  0
 13 36  1  0
 13 37  1  0
 16 38  1  0
 17 39  1  0
 18 40  1  0
 19 41  1  0
 22 42  1  0
 22 43  1  0
 23 44  1  0
 23 45  1  0
 25 46  1  0
 25 47  1  0
 25 48  1  0
M  END
$$$$
