
     RDKit          3D

 44 46  0  0  0  0  0  0  0  0999 V2000
    2.0448    1.5279    0.3972 O   0  0  0  0  0  0  0  0  0  0  0  0
    1.6144    0.7098   -0.4081 C   0  0  0  0  0  0  0  0  0  0  0  0
    0.1664    0.6301   -0.8283 C   0  0  0  0  0  0  0  0  0  0  0  0
   -0.6490    1.7501   -0.2066 C   0  0  2  0  0  0  0  0  0  0  0  0
   -0.9898    1.5192    1.1754 N   0  0  0  0  0  0  0  0  0  0  0  0
   -2.3489    1.5443    1.3869 C   0  0  0  0  0  0  0  0  0  0  0  0
   -2.8713    1.4667    2.4856 O   0  0  0  0  0  0  0  0  0  0  0  0
   -2.9667    1.6820    0.1828 N   0  0  0  0  0  0  0  0  0  0  0  0
   -4.3975    1.6901   -0.0034 C   0  0  0  0  0  0  0  0  0  0  0  0
   -4.9238    0.3014   -0.2824 C   0  0  0  0  0  0  0  0  0  0  0  0
   -5.0410   -0.1646   -1.6007 C   0  0  0  0  0  0  0  0  0  0  0  0
   -5.5041   -1.4563   -1.8581 C   0  0  0  0  0  0  0  0  0  0  0  0
   -5.8468   -2.2983   -0.8006 C   0  0  0  0  0  0  0  0  0  0  0  0
   -5.7204   -1.8469    0.5116 C   0  0  0  0  0  0  0  0  0  0  0  0
   -6.1323   -2.8914    1.8156 Cl  0  0  0  0  0  0  0  0  0  0  0  0
   -5.2590   -0.5575    0.7757 C   0  0  0  0  0  0  0  0  0  0  0  0
   -2.0471    1.8067   -0.8194 C   0  0  0  0  0  0  0  0  0  0  0  0
   -2.2824    1.9491   -2.0121 O   0  0  0  0  0  0  0  0  0  0  0  0
    2.4084   -0.2447   -1.0036 N   0  0  0  0  0  0  0  0  0  0  0  0
    3.8417   -0.3102   -0.7584 C   0  0  0  0  0  0  0  0  0  0  0  0
    4.1861   -0.8528    0.6250 C   0  0  0  0  0  0  0  0  0  0  0  0
    5.6200   -0.9332    0.8192 N   0  0  0  0  0  0  0  0  0  0  0  0
    6.3927   -0.1087    1.5847 C   0  0  0  0  0  0  0  0  0  0  0  0
    7.6805   -0.5751    1.4634 C   0  0  0  0  0  0  0  0  0  0  0  0
    7.5789   -1.6828    0.6023 C   0  0  0  0  0  0  0  0  0  0  0  0
    6.3235   -1.9032    0.2032 N   0  0  0  0  0  0  0  0  0  0  0  0
   -0.2292   -0.3520   -0.5419 H   0  0  0  0  0  0  0  0  0  0  0  0
    0.1325    0.7011   -1.9223 H   0  0  0  0  0  0  0  0  0  0  0  0
   -0.1809    2.7363   -0.2905 H   0  0  0  0  0  0  0  0  0  0  0  0
   -0.3384    1.5768    1.9501 H   0  0  0  0  0  0  0  0  0  0  0  0
   -4.8812    2.0952    0.8934 H   0  0  0  0  0  0  0  0  0  0  0  0
   -4.6479    2.3563   -0.8375 H   0  0  0  0  0  0  0  0  0  0  0  0
   -4.7653    0.4776   -2.4367 H   0  0  0  0  0  0  0  0  0  0  0  0
   -5.5948   -1.8065   -2.8835 H   0  0  0  0  0  0  0  0  0  0  0  0
   -6.2065   -3.3031   -1.0049 H   0  0  0  0  0  0  0  0  0  0  0  0
   -5.1538   -0.2215    1.8062 H   0  0  0  0  0  0  0  0  0  0  0  0
    2.0048   -0.8946   -1.6684 H   0  0  0  0  0  0  0  0  0  0  0  0
    4.2557    0.6974   -0.8857 H   0  0  0  0  0  0  0  0  0  0  0  0
    4.2682   -0.9434   -1.5443 H   0  0  0  0  0  0  0  0  0  0  0  0
    3.7751   -0.2204    1.4192 H   0  0  0  0  0  0  0  0  0  0  0  0
    3.7783   -1.8606    0.7661 H   0  0  0  0  0  0  0  0  0  0  0  0
    5.9725    0.7196    2.1384 H   0  0  0  0  0  0  0  0  0  0  0  0
    8.5678   -0.1735    1.9311 H   0  0  0  0  0  0  0  0  0  0  0  0
    8.3659   -2.3368    0.2492 H   0  0  0  0  0  0  0  0  0  0  0  0
  1  2  2  0
  2  3  1  0
  3  4  1  0
  4  5  1  0
  5  6  1  0
  6  7  2  0
  6  8  1  0
  8  9  1  0
  9 10  1  0
 10 11  2  0
 11 12  1  0
 12 13  2  0
 13 14  1  0
 14 15  1  0
 14 16  2  0
  8 17  1  0
 17 18  2  0
  2 19  1  0
 19 20  1  0
 20 21  1  0
 21 22  1  0
 22 23  1  0
 23 24  2  0
 24 25  1  0
 25 26  2  0
 17  4  1  0
 26 22  1  0
 16 10  1  0
  3 27  1  0
  3 28  1  0
  4 29  1  1
  5 30  1  0
  9 31  1  0
  9 32  1  0
 11 33  1  0
 12 34  1  0
 13 35  1  0
 16 36  1  0
 19 37  1  0
 20 38  1  0
 20 39  1  0
 21 40  1  0
 21 41  1  0
 23 42  1  0
 24 43  1  0
 25 44  1  0
M  END
$$$$
