
     RDKit          3D

 32 33  0  0  0  0  0  0  0  0999 V2000
    3.5533   -0.9437   -0.8346 C   0  0  0  0  0  0  0  0  0  0  0  0
    2.2568   -0.8484   -0.0428 C   0  0  2  0  0  0  0  0  0  0  0  0
    1.3122   -0.2943   -0.8770 O   0  0  0  0  0  0  0  0  0  0  0  0
    0.3841    0.3914   -0.1719 C   0  0  1  0  0  0  0  0  0  0  0  0
    1.0981    1.5119    0.5971 C   0  0  0  0  0  0  0  0  0  0  0  0
    2.5268    0.5035    1.1755 S   0  0  0  0  0  0  0  0  0  0  0  0
   -0.5697    1.0505   -1.1435 C   0  0  0  0  0  0  0  0  0  0  0  0
   -1.9430    0.6541   -0.9054 N   0  0  0  0  0  0  0  0  0  0  0  0
   -2.3172    1.1470    0.4016 C   0  0  0  0  0  0  0  0  0  0  0  0
   -1.5123    0.3601    1.4235 C   0  0  0  0  0  0  0  0  0  0  0  0
   -0.4247   -0.4406    0.7810 C   0  0  0  0  0  0  0  0  0  0  0  0
   -1.1274   -1.5109   -0.0639 C   0  0  0  0  0  0  0  0  0  0  0  0
   -2.1014   -0.7661   -0.9562 C   0  0  0  0  0  0  0  0  0  0  0  0
    0.6865    0.0000    0.0000 Cl  0  0  0  0  0  0  0  0  0  0  0  0
    3.3499   -1.2538   -1.8856 H   0  0  0  0  0  0  0  0  0  0  0  0
    4.3013   -1.5660   -0.3356 H   0  0  0  0  0  0  0  0  0  0  0  0
    3.9914    0.0926   -0.9292 H   0  0  0  0  0  0  0  0  0  0  0  0
    1.9726   -1.7788    0.4391 H   0  0  0  0  0  0  0  0  0  0  0  0
    1.4719    2.2928   -0.0666 H   0  0  0  0  0  0  0  0  0  0  0  0
    0.5018    1.8534    1.4375 H   0  0  0  0  0  0  0  0  0  0  0  0
   -0.3450    0.7675   -2.2027 H   0  0  0  0  0  0  0  0  0  0  0  0
   -0.5039    2.1538   -1.1041 H   0  0  0  0  0  0  0  0  0  0  0  0
   -3.3943    1.0194    0.5271 H   0  0  0  0  0  0  0  0  0  0  0  0
   -2.0937    2.2345    0.4574 H   0  0  0  0  0  0  0  0  0  0  0  0
   -1.1742    1.0132    2.2440 H   0  0  0  0  0  0  0  0  0  0  0  0
   -2.2165   -0.3814    1.9051 H   0  0  0  0  0  0  0  0  0  0  0  0
    0.1807   -0.9034    1.5743 H   0  0  0  0  0  0  0  0  0  0  0  0
   -1.6790   -2.1451    0.6849 H   0  0  0  0  0  0  0  0  0  0  0  0
   -0.3639   -2.0627   -0.6135 H   0  0  0  0  0  0  0  0  0  0  0  0
   -3.1668   -0.9938   -0.6850 H   0  0  0  0  0  0  0  0  0  0  0  0
   -1.9680   -1.1570   -1.9874 H   0  0  0  0  0  0  0  0  0  0  0  0
   -0.6865    0.0000    0.0000 H   0  0  0  0  0  0  0  0  0  0  0  0
  1  2  1  0
  2  3  1  0
  4  3  1  6
  4  5  1  0
  5  6  1  0
  4  7  1  0
  7  8  1  0
  8  9  1  0
  9 10  1  0
 10 11  1  0
 11 12  1  0
 12 13  1  0
  6  2  1  0
 13  8  1  0
 11  4  1  0
  1 15  1  0
  1 16  1  0
  1 17  1  0
  2 18  1  1
  5 19  1  0
  5 20  1  0
  7 21  1  0
  7 22  1  0
  9 23  1  0
  9 24  1  0
 10 25  1  0
 10 26  1  0
 11 27  1  0
 12 28  1  0
 12 29  1  0
 13 30  1  0
 13 31  1  0
 14 32  1  0
M  END
$$$$
