
     RDKit          3D

 36 38  0  0  0  0  0  0  0  0999 V2000
    3.3609    1.3279   -0.6187 C   0  0  0  0  0  0  0  0  0  0  0  0
    4.0978    0.0553   -0.4370 N   0  0  0  0  0  0  0  0  0  0  0  0
    5.4076    0.0903   -1.1289 C   0  0  0  0  0  0  0  0  0  0  0  0
    3.2010   -1.3595   -0.8012 S   0  0  0  0  0  6  0  0  0  0  0  0
    2.5951   -1.1779   -2.1031 O   0  0  0  0  0  0  0  0  0  0  0  0
    4.0461   -2.5050   -0.5327 O   0  0  0  0  0  0  0  0  0  0  0  0
    1.9209   -1.3471    0.4316 C   0  0  0  0  0  0  0  0  0  0  0  0
    2.1824   -1.8999    1.6838 C   0  0  0  0  0  0  0  0  0  0  0  0
    1.1675   -1.9314    2.6313 C   0  0  0  0  0  0  0  0  0  0  0  0
   -0.0967   -1.4113    2.3240 C   0  0  0  0  0  0  0  0  0  0  0  0
   -0.3815   -0.8436    1.0661 C   0  0  0  0  0  0  0  0  0  0  0  0
   -1.6706   -0.2991    0.7658 N   0  0  0  0  0  0  0  0  0  0  0  0
   -3.0373   -0.5836    1.7934 S   0  0  0  0  0  0  0  0  0  0  0  0
   -4.0995    0.3260    0.7231 C   0  0  0  0  0  0  0  0  0  0  0  0
   -5.4598    0.5528    0.8670 C   0  0  0  0  0  0  0  0  0  0  0  0
   -6.1204    1.3119   -0.1048 C   0  0  0  0  0  0  0  0  0  0  0  0
   -5.4193    1.8335   -1.2024 C   0  0  0  0  0  0  0  0  0  0  0  0
   -4.0499    1.6007   -1.3392 C   0  0  0  0  0  0  0  0  0  0  0  0
   -3.4105    0.8432   -0.3649 C   0  0  0  0  0  0  0  0  0  0  0  0
   -1.9756    0.5007   -0.3462 C   0  0  0  0  0  0  0  0  0  0  0  0
   -1.2370    0.9351   -1.2190 O   0  0  0  0  0  0  0  0  0  0  0  0
    0.6519   -0.8385    0.1171 C   0  0  0  0  0  0  0  0  0  0  0  0
    2.4981    1.3773    0.0491 H   0  0  0  0  0  0  0  0  0  0  0  0
    4.0077    2.1721   -0.3567 H   0  0  0  0  0  0  0  0  0  0  0  0
    3.0367    1.4551   -1.6557 H   0  0  0  0  0  0  0  0  0  0  0  0
    5.2771    0.1401   -2.2142 H   0  0  0  0  0  0  0  0  0  0  0  0
    6.0042   -0.7890   -0.8692 H   0  0  0  0  0  0  0  0  0  0  0  0
    5.9771    0.9677   -0.8054 H   0  0  0  0  0  0  0  0  0  0  0  0
    3.1628   -2.3083    1.9192 H   0  0  0  0  0  0  0  0  0  0  0  0
    1.3532   -2.3599    3.6135 H   0  0  0  0  0  0  0  0  0  0  0  0
   -0.8452   -1.4504    3.1112 H   0  0  0  0  0  0  0  0  0  0  0  0
   -6.0074    0.1517    1.7147 H   0  0  0  0  0  0  0  0  0  0  0  0
   -7.1881    1.5001   -0.0098 H   0  0  0  0  0  0  0  0  0  0  0  0
   -5.9460    2.4221   -1.9508 H   0  0  0  0  0  0  0  0  0  0  0  0
   -3.4957    1.9989   -2.1845 H   0  0  0  0  0  0  0  0  0  0  0  0
    0.4926   -0.4579   -0.8879 H   0  0  0  0  0  0  0  0  0  0  0  0
  1  2  1  0
  2  3  1  0
  2  4  1  0
  4  5  2  0
  4  6  2  0
  4  7  1  0
  7  8  2  0
  8  9  1  0
  9 10  2  0
 10 11  1  0
 11 12  1  0
 12 13  1  0
 13 14  1  0
 14 15  2  0
 15 16  1  0
 16 17  2  0
 17 18  1  0
 18 19  2  0
 19 20  1  0
 20 21  2  0
 11 22  2  0
 22  7  1  0
 20 12  1  0
 19 14  1  0
  1 23  1  0
  1 24  1  0
  1 25  1  0
  3 26  1  0
  3 27  1  0
  3 28  1  0
  8 29  1  0
  9 30  1  0
 10 31  1  0
 15 32  1  0
 16 33  1  0
 17 34  1  0
 18 35  1  0
 22 36  1  0
M  END
$$$$
