
     RDKit          3D

 70 72  0  0  0  0  0  0  0  0999 V2000
   -6.0464    1.8107   -1.7098 C   0  0  0  0  0  0  0  0  0  0  0  0
   -6.0679    1.9812   -0.1718 C   0  0  0  0  0  0  0  0  0  0  0  0
   -7.5549    2.1057    0.2351 C   0  0  0  0  0  0  0  0  0  0  0  0
   -5.3398    3.2964    0.1713 C   0  0  0  0  0  0  0  0  0  0  0  0
   -5.3819    0.8260    0.5831 C   0  0  0  0  0  0  0  0  0  0  0  0
   -5.5848    0.6501    1.9648 C   0  0  0  0  0  0  0  0  0  0  0  0
   -4.9703   -0.3947    2.6595 C   0  0  0  0  0  0  0  0  0  0  0  0
   -5.2711   -0.5881    4.5196 Br  0  0  0  0  0  0  0  0  0  0  0  0
   -4.1300   -1.2876    2.0027 C   0  0  0  0  0  0  0  0  0  0  0  0
   -3.8732   -1.1251    0.6365 C   0  0  0  0  0  0  0  0  0  0  0  0
   -2.9212   -2.0516   -0.1108 C   0  0  2  0  0  0  0  0  0  0  0  0
   -3.5362   -3.4294   -0.3795 C   0  0  0  0  0  0  0  0  0  0  0  0
   -4.6431   -3.3417   -1.3901 C   0  0  0  0  0  0  0  0  0  0  0  0
   -4.7164   -2.5788   -2.3401 O   0  0  0  0  0  0  0  0  0  0  0  0
   -5.5936   -4.2759   -1.1936 O   0  0  0  0  0  0  0  0  0  0  0  0
   -1.6131   -2.0524    0.5523 N   0  0  0  0  0  0  0  0  0  0  0  0
   -1.1388   -3.0096    1.4177 C   0  0  0  0  0  0  0  0  0  0  0  0
   -1.7245   -4.0589    1.6641 O   0  0  0  0  0  0  0  0  0  0  0  0
    0.1449   -2.6316    2.1687 C   0  0  0  0  0  0  0  0  0  0  0  0
    1.1212   -1.8701    1.3981 N   0  0  0  0  0  0  0  0  0  0  0  0
    1.0239   -0.5040    1.2615 C   0  0  0  0  0  0  0  0  0  0  0  0
    0.0443    0.1192    1.6545 O   0  0  0  0  0  0  0  0  0  0  0  0
    2.1283    0.1812    0.5427 C   0  0  0  0  0  0  0  0  0  0  0  0
    1.8542    1.3864   -0.1032 C   0  0  0  0  0  0  0  0  0  0  0  0
    2.8824    2.0610   -0.7401 C   0  0  0  0  0  0  0  0  0  0  0  0
    2.5847    3.2469   -1.3495 O   0  0  0  0  0  0  0  0  0  0  0  0
    4.1843    1.5569   -0.7425 C   0  0  0  0  0  0  0  0  0  0  0  0
    4.4854    0.3459   -0.1103 C   0  0  0  0  0  0  0  0  0  0  0  0
    5.7872   -0.1875   -0.0004 N   0  0  0  0  0  0  0  0  0  0  0  0
    6.9626    0.2348   -0.5618 C   0  0  0  0  0  0  0  0  0  0  0  0
    7.1088    1.2540   -1.3337 N   0  0  0  0  0  0  0  0  0  0  0  0
    8.4532    1.5418   -1.8572 C   0  0  0  0  0  0  0  0  0  0  0  0
    9.5380    1.1709   -0.8499 C   0  0  0  0  0  0  0  0  0  0  0  0
    9.4178    1.9829    0.3261 O   0  0  0  0  0  0  0  0  0  0  0  0
    9.3688   -0.3021   -0.4924 C   0  0  0  0  0  0  0  0  0  0  0  0
    7.9801   -0.5868   -0.1484 N   0  0  0  0  0  0  0  0  0  0  0  0
    3.4389   -0.3236    0.5526 C   0  0  0  0  0  0  0  0  0  0  0  0
   -4.5067   -0.0719   -0.0554 C   0  0  0  0  0  0  0  0  0  0  0  0
   -6.6127    2.6099   -2.2055 H   0  0  0  0  0  0  0  0  0  0  0  0
   -6.4920    0.8537   -2.0115 H   0  0  0  0  0  0  0  0  0  0  0  0
   -5.0280    1.8549   -2.1110 H   0  0  0  0  0  0  0  0  0  0  0  0
   -8.0734    2.8533   -0.3772 H   0  0  0  0  0  0  0  0  0  0  0  0
   -8.0792    1.1490    0.1156 H   0  0  0  0  0  0  0  0  0  0  0  0
   -7.6734    2.4217    1.2772 H   0  0  0  0  0  0  0  0  0  0  0  0
   -5.3710    3.5098    1.2460 H   0  0  0  0  0  0  0  0  0  0  0  0
   -4.2836    3.2546   -0.1229 H   0  0  0  0  0  0  0  0  0  0  0  0
   -5.7958    4.1470   -0.3487 H   0  0  0  0  0  0  0  0  0  0  0  0
   -6.2197    1.3375    2.5169 H   0  0  0  0  0  0  0  0  0  0  0  0
   -3.6646   -2.0997    2.5558 H   0  0  0  0  0  0  0  0  0  0  0  0
   -2.6933   -1.5846   -1.0779 H   0  0  0  0  0  0  0  0  0  0  0  0
   -2.7883   -4.1212   -0.7837 H   0  0  0  0  0  0  0  0  0  0  0  0
   -3.9424   -3.8636    0.5427 H   0  0  0  0  0  0  0  0  0  0  0  0
   -6.2431   -4.1244   -1.9129 H   0  0  0  0  0  0  0  0  0  0  0  0
   -1.2100   -1.1258    0.6891 H   0  0  0  0  0  0  0  0  0  0  0  0
    0.6465   -3.5582    2.4723 H   0  0  0  0  0  0  0  0  0  0  0  0
   -0.1357   -2.0643    3.0639 H   0  0  0  0  0  0  0  0  0  0  0  0
    1.7542   -2.3880    0.8036 H   0  0  0  0  0  0  0  0  0  0  0  0
    0.8515    1.8062   -0.1012 H   0  0  0  0  0  0  0  0  0  0  0  0
    3.4120    3.6363   -1.6854 H   0  0  0  0  0  0  0  0  0  0  0  0
    4.9587    2.1240   -1.2432 H   0  0  0  0  0  0  0  0  0  0  0  0
    5.8011   -1.1568    0.2782 H   0  0  0  0  0  0  0  0  0  0  0  0
    8.5947    1.0107   -2.8055 H   0  0  0  0  0  0  0  0  0  0  0  0
    8.5042    2.6170   -2.0644 H   0  0  0  0  0  0  0  0  0  0  0  0
   10.5344    1.3478   -1.2673 H   0  0  0  0  0  0  0  0  0  0  0  0
    8.4568    2.1060    0.4596 H   0  0  0  0  0  0  0  0  0  0  0  0
   10.0048   -0.5626    0.3616 H   0  0  0  0  0  0  0  0  0  0  0  0
    9.6530   -0.9368   -1.3375 H   0  0  0  0  0  0  0  0  0  0  0  0
    7.8785   -0.9378    0.7984 H   0  0  0  0  0  0  0  0  0  0  0  0
    3.6578   -1.2297    1.1128 H   0  0  0  0  0  0  0  0  0  0  0  0
   -4.2969    0.0339   -1.1182 H   0  0  0  0  0  0  0  0  0  0  0  0
  1  2  1  0
  2  3  1  0
  2  4  1  0
  2  5  1  0
  5  6  2  0
  6  7  1  0
  7  8  1  0
  7  9  2  0
  9 10  1  0
 10 11  1  0
 11 12  1  0
 12 13  1  0
 13 14  2  0
 13 15  1  0
 11 16  1  0
 16 17  1  0
 17 18  2  0
 17 19  1  0
 19 20  1  0
 20 21  1  0
 21 22  2  0
 21 23  1  0
 23 24  2  0
 24 25  1  0
 25 26  1  0
 25 27  2  0
 27 28  1  0
 28 29  1  0
 29 30  1  0
 30 31  2  0
 31 32  1  0
 32 33  1  0
 33 34  1  0
 33 35  1  0
 35 36  1  0
 28 37  2  0
 10 38  2  0
 38  5  1  0
 37 23  1  0
 36 30  1  0
  1 39  1  0
  1 40  1  0
  1 41  1  0
  3 42  1  0
  3 43  1  0
  3 44  1  0
  4 45  1  0
  4 46  1  0
  4 47  1  0
  6 48  1  0
  9 49  1  0
 11 50  1  6
 12 51  1  0
 12 52  1  0
 15 53  1  0
 16 54  1  0
 19 55  1  0
 19 56  1  0
 20 57  1  0
 24 58  1  0
 26 59  1  0
 27 60  1  0
 29 61  1  0
 32 62  1  0
 32 63  1  0
 33 64  1  0
 34 65  1  0
 35 66  1  0
 35 67  1  0
 36 68  1  0
 37 69  1  0
 38 70  1  0
M  END
$$$$
