
     RDKit          3D

 31 33  0  0  0  0  0  0  0  0999 V2000
    5.0966   -2.2640    1.2626 F   0  0  0  0  0  0  0  0  0  0  0  0
    4.1772   -1.3056    1.0881 C   0  0  0  0  0  0  0  0  0  0  0  0
    3.6635   -0.6410    2.1953 C   0  0  0  0  0  0  0  0  0  0  0  0
    2.7040    0.3566    2.0158 C   0  0  0  0  0  0  0  0  0  0  0  0
    2.2628    0.6945    0.7248 C   0  0  0  0  0  0  0  0  0  0  0  0
    1.2038    1.7586    0.5307 C   0  0  0  0  0  0  0  0  0  0  0  0
   -0.1320    1.1855    0.6616 N   0  0  0  0  0  0  0  0  0  0  0  0
   -0.7776    0.7747   -0.5223 C   0  0  0  0  0  0  0  0  0  0  0  0
   -0.1879    1.0107   -1.7061 N   0  0  0  0  0  0  0  0  0  0  0  0
   -0.8439    0.6117   -2.8011 C   0  0  0  0  0  0  0  0  0  0  0  0
   -2.0335    0.0037   -2.8356 N   0  0  0  0  0  0  0  0  0  0  0  0
   -2.6291   -0.2043   -1.6605 C   0  0  0  0  0  0  0  0  0  0  0  0
   -3.8787   -0.8159   -1.6514 C   0  0  0  0  0  0  0  0  0  0  0  0
   -4.5730   -1.0547   -0.4634 C   0  0  0  0  0  0  0  0  0  0  0  0
   -4.0058   -0.6684    0.7381 C   0  0  0  0  0  0  0  0  0  0  0  0
   -4.6646   -0.8835    1.8833 F   0  0  0  0  0  0  0  0  0  0  0  0
   -2.7600   -0.0585    0.7664 C   0  0  0  0  0  0  0  0  0  0  0  0
   -2.0496    0.1733   -0.4377 C   0  0  0  0  0  0  0  0  0  0  0  0
    2.7903    0.0045   -0.3781 C   0  0  0  0  0  0  0  0  0  0  0  0
    3.7489   -0.9933   -0.1960 C   0  0  0  0  0  0  0  0  0  0  0  0
    4.0123   -0.9048    3.1886 H   0  0  0  0  0  0  0  0  0  0  0  0
    2.3030    0.8715    2.8864 H   0  0  0  0  0  0  0  0  0  0  0  0
    1.3226    2.5077    1.3240 H   0  0  0  0  0  0  0  0  0  0  0  0
    1.3627    2.3147   -0.4013 H   0  0  0  0  0  0  0  0  0  0  0  0
   -0.1281    0.4117    1.3203 H   0  0  0  0  0  0  0  0  0  0  0  0
   -0.3626    0.7987   -3.7549 H   0  0  0  0  0  0  0  0  0  0  0  0
   -4.3267   -1.1112   -2.5981 H   0  0  0  0  0  0  0  0  0  0  0  0
   -5.5482   -1.5308   -0.4759 H   0  0  0  0  0  0  0  0  0  0  0  0
   -2.3552    0.2460    1.7265 H   0  0  0  0  0  0  0  0  0  0  0  0
    2.4493    0.2409   -1.3843 H   0  0  0  0  0  0  0  0  0  0  0  0
    4.1595   -1.5290   -1.0457 H   0  0  0  0  0  0  0  0  0  0  0  0
  1  2  1  0
  2  3  2  0
  3  4  1  0
  4  5  2  0
  5  6  1  0
  6  7  1  0
  7  8  1  0
  8  9  2  0
  9 10  1  0
 10 11  2  0
 11 12  1  0
 12 13  2  0
 13 14  1  0
 14 15  2  0
 15 16  1  0
 15 17  1  0
 17 18  2  0
  5 19  1  0
 19 20  2  0
 20  2  1  0
 18  8  1  0
 18 12  1  0
  3 21  1  0
  4 22  1  0
  6 23  1  0
  6 24  1  0
  7 25  1  0
 10 26  1  0
 13 27  1  0
 14 28  1  0
 17 29  1  0
 19 30  1  0
 20 31  1  0
M  END
$$$$
