
     RDKit          3D

 44 46  0  0  0  0  0  0  0  0999 V2000
   -3.3121   -0.8512   -1.8234 O   0  0  0  0  0  0  0  0  0  0  0  0
   -2.8217   -0.9825   -0.4855 C   0  0  0  0  0  0  0  0  0  0  0  0
   -4.0178   -1.0188    0.4813 C   0  0  0  0  0  0  0  0  0  0  0  0
   -4.3871    0.3481    1.0591 C   0  0  0  0  0  0  0  0  0  0  0  0
   -4.0839    1.4709    0.0835 C   0  0  0  0  0  0  0  0  0  0  0  0
   -2.5965    1.5335   -0.2766 C   0  0  0  0  0  0  0  0  0  0  0  0
   -1.8404    0.1824   -0.1478 C   0  0  0  0  0  0  0  0  0  0  0  0
   -0.5845    0.2219   -0.9522 N   0  0  0  0  0  0  0  0  0  0  0  0
    0.3619    1.2790   -0.5557 C   0  0  0  0  0  0  0  0  0  0  0  0
    1.0340    1.0170    0.7943 C   0  0  0  0  0  0  0  0  0  0  0  0
    1.7505   -0.3485    0.8437 C   0  0  0  0  0  0  0  0  0  0  0  0
    3.1717   -0.2653    0.2885 C   0  0  0  0  0  0  0  0  0  0  0  0
    3.6045   -0.9325   -0.8650 C   0  0  0  0  0  0  0  0  0  0  0  0
    4.9248   -0.8158   -1.3134 C   0  0  0  0  0  0  0  0  0  0  0  0
    5.8398   -0.0368   -0.6119 C   0  0  0  0  0  0  0  0  0  0  0  0
    5.4374    0.6230    0.5436 C   0  0  0  0  0  0  0  0  0  0  0  0
    4.1191    0.5062    0.9898 C   0  0  0  0  0  0  0  0  0  0  0  0
    0.8372   -1.4505    0.2668 C   0  0  0  0  0  0  0  0  0  0  0  0
    0.1441   -1.0480   -1.0402 C   0  0  0  0  0  0  0  0  0  0  0  0
   -3.7831   -1.6709   -2.0455 H   0  0  0  0  0  0  0  0  0  0  0  0
   -2.3224   -1.9539   -0.4177 H   0  0  0  0  0  0  0  0  0  0  0  0
   -3.7870   -1.6852    1.3216 H   0  0  0  0  0  0  0  0  0  0  0  0
   -4.8937   -1.4417   -0.0258 H   0  0  0  0  0  0  0  0  0  0  0  0
   -5.4484    0.3568    1.3322 H   0  0  0  0  0  0  0  0  0  0  0  0
   -3.8267    0.5157    1.9876 H   0  0  0  0  0  0  0  0  0  0  0  0
   -4.6752    1.3266   -0.8294 H   0  0  0  0  0  0  0  0  0  0  0  0
   -4.3993    2.4330    0.5036 H   0  0  0  0  0  0  0  0  0  0  0  0
   -2.5114    1.9324   -1.2960 H   0  0  0  0  0  0  0  0  0  0  0  0
   -2.1197    2.2685    0.3844 H   0  0  0  0  0  0  0  0  0  0  0  0
   -1.5729    0.0503    0.9085 H   0  0  0  0  0  0  0  0  0  0  0  0
   -0.1196    2.2620   -0.5439 H   0  0  0  0  0  0  0  0  0  0  0  0
    1.1350    1.3659   -1.3311 H   0  0  0  0  0  0  0  0  0  0  0  0
    0.2767    1.0455    1.5876 H   0  0  0  0  0  0  0  0  0  0  0  0
    1.7197    1.8430    1.0158 H   0  0  0  0  0  0  0  0  0  0  0  0
    1.8882   -0.6069    1.9046 H   0  0  0  0  0  0  0  0  0  0  0  0
    2.9370   -1.5627   -1.4428 H   0  0  0  0  0  0  0  0  0  0  0  0
    5.2371   -1.3387   -2.2139 H   0  0  0  0  0  0  0  0  0  0  0  0
    6.8641    0.0513   -0.9631 H   0  0  0  0  0  0  0  0  0  0  0  0
    6.1478    1.2278    1.1008 H   0  0  0  0  0  0  0  0  0  0  0  0
    3.8328    1.0255    1.9026 H   0  0  0  0  0  0  0  0  0  0  0  0
    0.0623   -1.6782    1.0110 H   0  0  0  0  0  0  0  0  0  0  0  0
    1.3912   -2.3858    0.1243 H   0  0  0  0  0  0  0  0  0  0  0  0
   -0.4989   -1.8617   -1.3882 H   0  0  0  0  0  0  0  0  0  0  0  0
    0.8856   -0.9505   -1.8412 H   0  0  0  0  0  0  0  0  0  0  0  0
  1  2  1  0
  2  3  1  0
  3  4  1  0
  4  5  1  0
  5  6  1  0
  6  7  1  0
  7  8  1  0
  8  9  1  0
  9 10  1  0
 10 11  1  0
 11 12  1  0
 12 13  2  0
 13 14  1  0
 14 15  2  0
 15 16  1  0
 16 17  2  0
 11 18  1  0
 18 19  1  0
  7  2  1  0
 19  8  1  0
 17 12  1  0
  1 20  1  0
  2 21  1  0
  3 22  1  0
  3 23  1  0
  4 24  1  0
  4 25  1  0
  5 26  1  0
  5 27  1  0
  6 28  1  0
  6 29  1  0
  7 30  1  0
  9 31  1  0
  9 32  1  0
 10 33  1  0
 10 34  1  0
 11 35  1  0
 13 36  1  0
 14 37  1  0
 15 38  1  0
 16 39  1  0
 17 40  1  0
 18 41  1  0
 18 42  1  0
 19 43  1  0
 19 44  1  0
M  END
$$$$
