
     RDKit          3D

127132  0  0  0  0  0  0  0  0999 V2000
   10.1863    1.6866   -1.9273 C   0  0  0  0  0  0  0  0  0  0  0  0
    9.2019    2.5677   -1.2038 C   0  0  0  0  0  0  0  0  0  0  0  0
    9.5207    4.0379   -1.2579 C   0  0  0  0  0  0  0  0  0  0  0  0
    8.1149    2.1254   -0.5445 C   0  0  0  0  0  0  0  0  0  0  0  0
    7.5970    0.7120   -0.4683 C   0  0  0  0  0  0  0  0  0  0  0  0
    7.8218    0.0742    0.9072 C   0  0  0  0  0  0  0  0  0  0  0  0
    7.3309   -1.3946    1.0452 C   0  0  2  0  0  0  0  0  0  0  0  0
    7.3555   -1.7825    2.5317 C   0  0  0  0  0  0  0  0  0  0  0  0
    8.3524   -2.2029    0.4180 O   0  0  0  0  0  0  0  0  0  0  0  0
    5.9759   -1.7526    0.3548 C   0  0  1  0  0  0  0  0  0  0  0  0
    5.8051   -3.2827    0.1074 C   0  0  0  0  0  0  0  0  0  0  0  0
    4.3122   -3.6168    0.2904 C   0  0  0  0  0  0  0  0  0  0  0  0
    3.5790   -2.2604    0.2591 C   0  0  2  0  0  0  0  0  0  0  0  0
    3.4574   -1.8681   -1.2527 C   0  0  0  0  0  0  0  0  0  0  0  0
    4.6253   -1.3761    1.0119 C   0  0  2  0  0  0  0  0  0  0  0  0
    4.1842    0.0829    1.0523 C   0  0  2  0  0  0  0  0  0  0  0  0
    5.0852    0.8426    1.8455 O   0  0  0  0  0  0  0  0  0  0  0  0
    2.7936    0.2254    1.6958 C   0  0  0  0  0  0  0  0  0  0  0  0
    1.7119   -0.6693    1.0469 C   0  0  2  0  0  0  0  0  0  0  0  0
    0.2257   -0.3831    1.5421 C   0  0  1  0  0  0  0  0  0  0  0  0
    0.0644   -0.6197    3.0630 C   0  0  0  0  0  0  0  0  0  0  0  0
   -0.1103    1.1143    1.2651 C   0  0  0  0  0  0  0  0  0  0  0  0
   -1.5886    1.4691    1.3860 C   0  0  0  0  0  0  0  0  0  0  0  0
   -2.4814    0.5813    0.5178 C   0  0  2  0  0  0  0  0  0  0  0  0
   -3.8632    0.9125    0.6979 O   0  0  0  0  0  0  0  0  0  0  0  0
   -4.2263    2.2042    0.1843 C   0  0  2  0  0  0  0  0  0  0  0  0
   -4.3104    3.1010    1.2893 O   0  0  0  0  0  0  0  0  0  0  0  0
   -4.8386    4.4023    0.9946 C   0  0  2  0  0  0  0  0  0  0  0  0
   -5.9918    4.6544    1.9723 C   0  0  0  0  0  0  0  0  0  0  0  0
   -5.4899    4.6683    3.3075 O   0  0  0  0  0  0  0  0  0  0  0  0
   -5.2693    4.6159   -0.4664 C   0  0  1  0  0  0  0  0  0  0  0  0
   -4.1025    4.7680   -1.2922 O   0  0  0  0  0  0  0  0  0  0  0  0
   -6.0865    3.4402   -1.0208 C   0  0  2  0  0  0  0  0  0  0  0  0
   -7.4658    3.5906   -0.6563 O   0  0  0  0  0  0  0  0  0  0  0  0
   -5.5791    2.0664   -0.5373 C   0  0  1  0  0  0  0  0  0  0  0  0
   -5.3966    1.1910   -1.6739 O   0  0  0  0  0  0  0  0  0  0  0  0
   -6.6137    0.5584   -2.0908 C   0  0  2  0  0  0  0  0  0  0  0  0
   -6.9701   -0.4541   -1.1570 O   0  0  0  0  0  0  0  0  0  0  0  0
   -7.8993   -1.4476   -1.6349 C   0  0  2  0  0  0  0  0  0  0  0  0
   -7.1496   -2.7901   -1.6736 C   0  0  0  0  0  0  0  0  0  0  0  0
   -6.5950   -3.0812   -0.3926 O   0  0  0  0  0  0  0  0  0  0  0  0
   -8.5758   -1.1206   -2.9804 C   0  0  1  0  0  0  0  0  0  0  0  0
   -9.5047   -0.0478   -2.7580 O   0  0  0  0  0  0  0  0  0  0  0  0
   -7.5701   -0.6863   -4.0617 C   0  0  2  0  0  0  0  0  0  0  0  0
   -7.2781   -1.8002   -4.9178 O   0  0  0  0  0  0  0  0  0  0  0  0
   -6.3044   -0.0636   -3.4627 C   0  0  1  0  0  0  0  0  0  0  0  0
   -5.7605    0.9069   -4.3695 O   0  0  0  0  0  0  0  0  0  0  0  0
   -2.2712   -0.9436    0.7984 C   0  0  0  0  0  0  0  0  0  0  0  0
   -3.0681   -1.7206   -0.2874 C   0  0  0  0  0  0  0  0  0  0  0  0
   -2.8831   -1.3546    2.1515 C   0  0  0  0  0  0  0  0  0  0  0  0
   -0.7360   -1.2639    0.6621 C   0  0  2  0  0  0  0  0  0  0  0  0
   -0.3664   -2.7612    0.7429 C   0  0  0  0  0  0  0  0  0  0  0  0
    1.0708   -3.0068    0.2571 C   0  0  0  0  0  0  0  0  0  0  0  0
    2.1565   -2.1902    1.0061 C   0  0  1  0  0  0  0  0  0  0  0  0
    2.2645   -2.8003    2.4326 C   0  0  0  0  0  0  0  0  0  0  0  0
   10.0485    0.6241   -1.7223 H   0  0  0  0  0  0  0  0  0  0  0  0
   11.2080    1.9380   -1.6227 H   0  0  0  0  0  0  0  0  0  0  0  0
   10.1000    1.8399   -3.0099 H   0  0  0  0  0  0  0  0  0  0  0  0
   10.4663    4.2436   -0.7439 H   0  0  0  0  0  0  0  0  0  0  0  0
    9.6143    4.3645   -2.2996 H   0  0  0  0  0  0  0  0  0  0  0  0
    8.7389    4.6516   -0.7931 H   0  0  0  0  0  0  0  0  0  0  0  0
    7.4871    2.8540   -0.0294 H   0  0  0  0  0  0  0  0  0  0  0  0
    8.0237    0.0881   -1.2560 H   0  0  0  0  0  0  0  0  0  0  0  0
    6.5237    0.7743   -0.6843 H   0  0  0  0  0  0  0  0  0  0  0  0
    7.3756    0.7068    1.6783 H   0  0  0  0  0  0  0  0  0  0  0  0
    8.9026    0.0984    1.1094 H   0  0  0  0  0  0  0  0  0  0  0  0
    8.3679   -1.6799    2.9418 H   0  0  0  0  0  0  0  0  0  0  0  0
    6.6865   -1.1580    3.1296 H   0  0  0  0  0  0  0  0  0  0  0  0
    7.0772   -2.8284    2.6810 H   0  0  0  0  0  0  0  0  0  0  0  0
    8.3609   -1.9910   -0.5316 H   0  0  0  0  0  0  0  0  0  0  0  0
    6.0196   -1.3135   -0.6451 H   0  0  0  0  0  0  0  0  0  0  0  0
    6.3984   -3.8980    0.7930 H   0  0  0  0  0  0  0  0  0  0  0  0
    6.1278   -3.5313   -0.9105 H   0  0  0  0  0  0  0  0  0  0  0  0
    3.9580   -4.3128   -0.4820 H   0  0  0  0  0  0  0  0  0  0  0  0
    4.2101   -4.1331    1.2517 H   0  0  0  0  0  0  0  0  0  0  0  0
    3.0478   -0.8666   -1.4059 H   0  0  0  0  0  0  0  0  0  0  0  0
    4.4163   -1.8824   -1.7770 H   0  0  0  0  0  0  0  0  0  0  0  0
    2.8362   -2.5774   -1.8072 H   0  0  0  0  0  0  0  0  0  0  0  0
    4.7015   -1.7167    2.0537 H   0  0  0  0  0  0  0  0  0  0  0  0
    4.1823    0.5157    0.0478 H   0  0  0  0  0  0  0  0  0  0  0  0
    4.7707    1.7636    1.8595 H   0  0  0  0  0  0  0  0  0  0  0  0
    2.8802    0.0244    2.7687 H   0  0  0  0  0  0  0  0  0  0  0  0
    2.5140    1.2822    1.6256 H   0  0  0  0  0  0  0  0  0  0  0  0
    1.6839   -0.3441   -0.0007 H   0  0  0  0  0  0  0  0  0  0  0  0
    0.9995   -0.4895    3.6088 H   0  0  0  0  0  0  0  0  0  0  0  0
   -0.3180   -1.6128    3.3040 H   0  0  0  0  0  0  0  0  0  0  0  0
   -0.6296    0.0854    3.5247 H   0  0  0  0  0  0  0  0  0  0  0  0
    0.2149    1.3789    0.2489 H   0  0  0  0  0  0  0  0  0  0  0  0
    0.4483    1.7655    1.9497 H   0  0  0  0  0  0  0  0  0  0  0  0
   -1.9215    1.4407    2.4277 H   0  0  0  0  0  0  0  0  0  0  0  0
   -1.7069    2.5175    1.0919 H   0  0  0  0  0  0  0  0  0  0  0  0
   -2.2220    0.7614   -0.5358 H   0  0  0  0  0  0  0  0  0  0  0  0
   -3.4581    2.5418   -0.5226 H   0  0  0  0  0  0  0  0  0  0  0  0
   -4.0283    5.1001    1.2363 H   0  0  0  0  0  0  0  0  0  0  0  0
   -6.4639    5.6243    1.7852 H   0  0  0  0  0  0  0  0  0  0  0  0
   -6.7520    3.8704    1.9179 H   0  0  0  0  0  0  0  0  0  0  0  0
   -5.1370    3.7672    3.4725 H   0  0  0  0  0  0  0  0  0  0  0  0
   -5.8379    5.5499   -0.5582 H   0  0  0  0  0  0  0  0  0  0  0  0
   -3.6147    5.5519   -0.9830 H   0  0  0  0  0  0  0  0  0  0  0  0
   -6.0526    3.4722   -2.1158 H   0  0  0  0  0  0  0  0  0  0  0  0
   -7.8516    4.2947   -1.2075 H   0  0  0  0  0  0  0  0  0  0  0  0
   -6.2998    1.6124    0.1591 H   0  0  0  0  0  0  0  0  0  0  0  0
   -7.4065    1.3127   -2.1763 H   0  0  0  0  0  0  0  0  0  0  0  0
   -8.6678   -1.5053   -0.8530 H   0  0  0  0  0  0  0  0  0  0  0  0
   -7.8204   -3.6094   -1.9511 H   0  0  0  0  0  0  0  0  0  0  0  0
   -6.3126   -2.7635   -2.3777 H   0  0  0  0  0  0  0  0  0  0  0  0
   -6.3133   -2.2177   -0.0192 H   0  0  0  0  0  0  0  0  0  0  0  0
   -9.1586   -1.9836   -3.3175 H   0  0  0  0  0  0  0  0  0  0  0  0
  -10.0641    0.0183   -3.5555 H   0  0  0  0  0  0  0  0  0  0  0  0
   -8.0508    0.0537   -4.7160 H   0  0  0  0  0  0  0  0  0  0  0  0
   -6.3535   -2.0923   -4.7892 H   0  0  0  0  0  0  0  0  0  0  0  0
   -5.5219   -0.8241   -3.3487 H   0  0  0  0  0  0  0  0  0  0  0  0
   -5.0486    1.3567   -3.8668 H   0  0  0  0  0  0  0  0  0  0  0  0
   -3.1011   -2.7961   -0.0771 H   0  0  0  0  0  0  0  0  0  0  0  0
   -2.6255   -1.5842   -1.2814 H   0  0  0  0  0  0  0  0  0  0  0  0
   -4.1099   -1.3823   -0.3472 H   0  0  0  0  0  0  0  0  0  0  0  0
   -2.6407   -0.6546    2.9496 H   0  0  0  0  0  0  0  0  0  0  0  0
   -2.5473   -2.3449    2.4604 H   0  0  0  0  0  0  0  0  0  0  0  0
   -3.9765   -1.3948    2.0987 H   0  0  0  0  0  0  0  0  0  0  0  0
   -0.5035   -0.9836   -0.3794 H   0  0  0  0  0  0  0  0  0  0  0  0
   -0.5166   -3.1691    1.7467 H   0  0  0  0  0  0  0  0  0  0  0  0
   -1.0166   -3.3497    0.0809 H   0  0  0  0  0  0  0  0  0  0  0  0
    1.2951   -4.0800    0.3172 H   0  0  0  0  0  0  0  0  0  0  0  0
    1.0693   -2.7564   -0.8088 H   0  0  0  0  0  0  0  0  0  0  0  0
    2.5908   -3.8428    2.4058 H   0  0  0  0  0  0  0  0  0  0  0  0
    2.9485   -2.2543    3.0841 H   0  0  0  0  0  0  0  0  0  0  0  0
    1.3086   -2.8427    2.9494 H   0  0  0  0  0  0  0  0  0  0  0  0
  1  2  1  0
  2  3  1  0
  2  4  2  3
  4  5  1  0
  5  6  1  0
  6  7  1  0
  7  8  1  0
  7  9  1  6
  7 10  1  0
 10 11  1  0
 11 12  1  0
 12 13  1  0
 13 14  1  6
 13 15  1  0
 15 16  1  0
 16 17  1  0
 16 18  1  0
 18 19  1  0
 19 20  1  0
 20 21  1  1
 20 22  1  0
 22 23  1  0
 23 24  1  0
 24 25  1  0
 25 26  1  0
 26 27  1  0
 27 28  1  0
 28 29  1  0
 29 30  1  0
 28 31  1  0
 31 32  1  0
 31 33  1  0
 33 34  1  0
 33 35  1  0
 35 36  1  0
 36 37  1  0
 37 38  1  0
 38 39  1  0
 39 40  1  0
 40 41  1  0
 39 42  1  0
 42 43  1  0
 42 44  1  0
 44 45  1  0
 44 46  1  0
 46 47  1  0
 24 48  1  0
 48 49  1  0
 48 50  1  0
 48 51  1  0
 51 52  1  0
 52 53  1  0
 53 54  1  0
 54 55  1  1
 15 10  1  0
 54 19  1  0
 54 13  1  0
 51 20  1  0
 35 26  1  0
 46 37  1  0
  1 56  1  0
  1 57  1  0
  1 58  1  0
  3 59  1  0
  3 60  1  0
  3 61  1  0
  4 62  1  0
  5 63  1  0
  5 64  1  0
  6 65  1  0
  6 66  1  0
  8 67  1  0
  8 68  1  0
  8 69  1  0
  9 70  1  0
 10 71  1  6
 11 72  1  0
 11 73  1  0
 12 74  1  0
 12 75  1  0
 14 76  1  0
 14 77  1  0
 14 78  1  0
 15 79  1  1
 16 80  1  6
 17 81  1  0
 18 82  1  0
 18 83  1  0
 19 84  1  6
 21 85  1  0
 21 86  1  0
 21 87  1  0
 22 88  1  0
 22 89  1  0
 23 90  1  0
 23 91  1  0
 24 92  1  6
 26 93  1  6
 28 94  1  1
 29 95  1  0
 29 96  1  0
 30 97  1  0
 31 98  1  1
 32 99  1  0
 33100  1  6
 34101  1  0
 35102  1  1
 37103  1  6
 39104  1  1
 40105  1  0
 40106  1  0
 41107  1  0
 42108  1  6
 43109  1  0
 44110  1  6
 45111  1  0
 46112  1  1
 47113  1  0
 49114  1  0
 49115  1  0
 49116  1  0
 50117  1  0
 50118  1  0
 50119  1  0
 51120  1  6
 52121  1  0
 52122  1  0
 53123  1  0
 53124  1  0
 55125  1  0
 55126  1  0
 55127  1  0
M  END
$$$$
