
     RDKit          3D

 59 64  0  0  0  0  0  0  0  0999 V2000
    8.2010    1.2125   -0.8674 C   0  0  0  0  0  0  0  0  0  0  0  0
    7.4772    0.6066    0.2514 N   0  0  0  0  0  0  0  0  0  0  0  0
    6.2967    1.4136    0.6103 C   0  0  0  0  0  0  0  0  0  0  0  0
    5.1438    1.4235   -0.4319 C   0  0  0  0  0  0  0  0  0  0  0  0
    5.1074    0.2356   -1.2961 N   0  0  0  0  0  0  0  0  0  0  0  0
    3.8631    0.0569   -2.0442 C   0  0  0  0  0  0  0  0  0  0  0  0
    2.6264   -0.2994   -1.2458 C   0  0  0  0  0  0  0  0  0  0  0  0
    1.7436    0.6967   -0.8103 C   0  0  0  0  0  0  0  0  0  0  0  0
    0.5996    0.3668   -0.0760 C   0  0  0  0  0  0  0  0  0  0  0  0
    0.3014   -0.9672    0.2428 C   0  0  0  0  0  0  0  0  0  0  0  0
   -0.9006   -1.3109    1.0168 C   0  0  0  0  0  0  0  0  0  0  0  0
   -0.8322   -2.1089    2.1647 C   0  0  0  0  0  0  0  0  0  0  0  0
   -1.8675   -2.4895    2.9568 N   0  0  0  0  0  0  0  0  0  0  0  0
   -3.0478   -2.0078    2.5298 C   0  0  0  0  0  0  0  0  0  0  0  0
   -4.2425   -2.2354    3.1530 N   0  0  0  0  0  0  0  0  0  0  0  0
   -5.2520   -1.6069    2.4700 C   0  0  0  0  0  0  0  0  0  0  0  0
   -4.6951   -0.9617    1.3791 C   0  0  0  0  0  0  0  0  0  0  0  0
   -5.4835   -0.2072    0.4179 C   0  0  0  0  0  0  0  0  0  0  0  0
   -5.3277   -0.4441   -0.9524 C   0  0  0  0  0  0  0  0  0  0  0  0
   -6.0665    0.2668   -1.9059 C   0  0  0  0  0  0  0  0  0  0  0  0
   -6.9698    1.2268   -1.4385 C   0  0  0  0  0  0  0  0  0  0  0  0
   -7.8166    2.0630   -2.1312 N   0  0  0  0  0  0  0  0  0  0  0  0
   -8.5253    2.8470   -1.2597 C   0  0  0  0  0  0  0  0  0  0  0  0
   -8.1351    2.5148    0.0175 C   0  0  0  0  0  0  0  0  0  0  0  0
   -7.1532    1.4905   -0.0814 C   0  0  0  0  0  0  0  0  0  0  0  0
   -6.3995    0.7620    0.8605 C   0  0  0  0  0  0  0  0  0  0  0  0
   -3.2877   -1.2112    1.4165 C   0  0  0  0  0  0  0  0  0  0  0  0
   -2.1715   -0.8486    0.6386 C   0  0  0  0  0  0  0  0  0  0  0  0
    1.1854   -1.9613   -0.2047 C   0  0  0  0  0  0  0  0  0  0  0  0
    2.3294   -1.6336   -0.9403 C   0  0  0  0  0  0  0  0  0  0  0  0
    5.5968   -0.9506   -0.5950 C   0  0  0  0  0  0  0  0  0  0  0  0
    7.0524   -0.7732   -0.0780 C   0  0  0  0  0  0  0  0  0  0  0  0
    8.5067    2.2345   -0.6164 H   0  0  0  0  0  0  0  0  0  0  0  0
    9.1238    0.6555   -1.0657 H   0  0  0  0  0  0  0  0  0  0  0  0
    7.6208    1.2471   -1.7952 H   0  0  0  0  0  0  0  0  0  0  0  0
    6.5941    2.4445    0.8398 H   0  0  0  0  0  0  0  0  0  0  0  0
    5.9021    1.0100    1.5530 H   0  0  0  0  0  0  0  0  0  0  0  0
    4.2115    1.5501    0.1281 H   0  0  0  0  0  0  0  0  0  0  0  0
    5.2597    2.3041   -1.0750 H   0  0  0  0  0  0  0  0  0  0  0  0
    4.0165   -0.7166   -2.8090 H   0  0  0  0  0  0  0  0  0  0  0  0
    3.6616    0.9670   -2.6254 H   0  0  0  0  0  0  0  0  0  0  0  0
    1.9416    1.7419   -1.0379 H   0  0  0  0  0  0  0  0  0  0  0  0
   -0.0567    1.1690    0.2573 H   0  0  0  0  0  0  0  0  0  0  0  0
    0.1312   -2.4816    2.5101 H   0  0  0  0  0  0  0  0  0  0  0  0
   -4.3376   -2.7909    3.9901 H   0  0  0  0  0  0  0  0  0  0  0  0
   -6.2761   -1.6839    2.8111 H   0  0  0  0  0  0  0  0  0  0  0  0
   -4.6299   -1.2045   -1.2978 H   0  0  0  0  0  0  0  0  0  0  0  0
   -5.9399    0.0711   -2.9655 H   0  0  0  0  0  0  0  0  0  0  0  0
   -7.8979    2.0896   -3.1381 H   0  0  0  0  0  0  0  0  0  0  0  0
   -9.2431    3.5704   -1.6220 H   0  0  0  0  0  0  0  0  0  0  0  0
   -8.5139    2.9589    0.9286 H   0  0  0  0  0  0  0  0  0  0  0  0
   -6.5252    0.9640    1.9201 H   0  0  0  0  0  0  0  0  0  0  0  0
   -2.3013   -0.2254   -0.2409 H   0  0  0  0  0  0  0  0  0  0  0  0
    0.9826   -3.0104    0.0034 H   0  0  0  0  0  0  0  0  0  0  0  0
    2.9870   -2.4317   -1.2778 H   0  0  0  0  0  0  0  0  0  0  0  0
    5.5795   -1.8239   -1.2581 H   0  0  0  0  0  0  0  0  0  0  0  0
    4.9499   -1.1778    0.2621 H   0  0  0  0  0  0  0  0  0  0  0  0
    7.7482   -1.2213   -0.7996 H   0  0  0  0  0  0  0  0  0  0  0  0
    7.1546   -1.3752    0.8339 H   0  0  0  0  0  0  0  0  0  0  0  0
  1  2  1  0
  2  3  1  0
  3  4  1  0
  4  5  1  0
  5  6  1  0
  6  7  1  0
  7  8  2  0
  8  9  1  0
  9 10  2  0
 10 11  1  0
 11 12  2  0
 12 13  1  0
 13 14  2  0
 14 15  1  0
 15 16  1  0
 16 17  2  0
 17 18  1  0
 18 19  2  0
 19 20  1  0
 20 21  2  0
 21 22  1  0
 22 23  1  0
 23 24  2  0
 24 25  1  0
 25 26  2  0
 17 27  1  0
 27 28  2  0
 10 29  1  0
 29 30  2  0
  5 31  1  0
 31 32  1  0
 32  2  1  0
 30  7  1  0
 28 11  1  0
 27 14  1  0
 26 18  1  0
 25 21  1  0
  1 33  1  0
  1 34  1  0
  1 35  1  0
  3 36  1  0
  3 37  1  0
  4 38  1  0
  4 39  1  0
  6 40  1  0
  6 41  1  0
  8 42  1  0
  9 43  1  0
 12 44  1  0
 15 45  1  0
 16 46  1  0
 19 47  1  0
 20 48  1  0
 22 49  1  0
 23 50  1  0
 24 51  1  0
 26 52  1  0
 28 53  1  0
 29 54  1  0
 30 55  1  0
 31 56  1  0
 31 57  1  0
 32 58  1  0
 32 59  1  0
M  END
$$$$
