
     RDKit          3D

 59 63  0  0  0  0  0  0  0  0999 V2000
   -6.6712    0.0040    2.8161 C   0  0  0  0  0  0  0  0  0  0  0  0
   -6.4289    0.9844    1.7591 N   0  0  0  0  0  0  0  0  0  0  0  0
   -6.3072    0.3559    0.4376 C   0  0  0  0  0  0  0  0  0  0  0  0
   -4.9878   -0.3826    0.2150 C   0  0  0  0  0  0  0  0  0  0  0  0
   -3.7957    0.5430    0.4798 C   0  0  0  0  0  0  0  0  0  0  0  0
   -2.5448   -0.2077    0.4026 N   0  0  0  0  0  0  0  0  0  0  0  0
   -1.9299   -0.2836   -0.8353 C   0  0  0  0  0  0  0  0  0  0  0  0
   -0.6003   -0.4136   -0.8091 N   0  0  0  0  0  0  0  0  0  0  0  0
    0.0796   -0.5145   -1.9704 C   0  0  0  0  0  0  0  0  0  0  0  0
    1.4776   -0.7152   -1.9510 N   0  0  0  0  0  0  0  0  0  0  0  0
    2.4045   -0.8926   -0.9099 C   0  0  0  0  0  0  0  0  0  0  0  0
    3.7747   -0.8208   -1.2180 C   0  0  0  0  0  0  0  0  0  0  0  0
    4.7543   -0.9880   -0.2334 C   0  0  0  0  0  0  0  0  0  0  0  0
    4.3729   -1.2194    1.0864 C   0  0  0  0  0  0  0  0  0  0  0  0
    5.2789   -1.4263    2.1002 O   0  0  0  0  0  0  0  0  0  0  0  0
    6.3296   -0.5427    2.2000 C   0  0  0  0  0  0  0  0  0  0  0  0
    7.5938   -1.0871    2.4270 C   0  0  0  0  0  0  0  0  0  0  0  0
    8.6978   -0.2464    2.5710 C   0  0  0  0  0  0  0  0  0  0  0  0
    8.5334    1.1376    2.5033 C   0  0  0  0  0  0  0  0  0  0  0  0
    7.2648    1.6826    2.2995 C   0  0  0  0  0  0  0  0  0  0  0  0
    6.1588    0.8438    2.1549 C   0  0  0  0  0  0  0  0  0  0  0  0
    3.0235   -1.3274    1.4080 C   0  0  0  0  0  0  0  0  0  0  0  0
    2.0496   -1.1591    0.4165 C   0  0  0  0  0  0  0  0  0  0  0  0
   -0.6007   -0.4621   -3.1785 C   0  0  0  0  0  0  0  0  0  0  0  0
    0.0675   -0.5239   -4.4945 C   0  0  0  0  0  0  0  0  0  0  0  0
    1.2874   -0.5920   -4.6010 O   0  0  0  0  0  0  0  0  0  0  0  0
   -0.7514   -0.4786   -5.6008 N   0  0  0  0  0  0  0  0  0  0  0  0
   -2.1150   -0.3531   -5.5416 C   0  0  0  0  0  0  0  0  0  0  0  0
   -2.7668   -0.2668   -4.3723 C   0  0  0  0  0  0  0  0  0  0  0  0
   -4.6258   -0.0825   -4.3170 Br  0  0  0  0  0  0  0  0  0  0  0  0
   -1.9751   -0.3209   -3.1245 C   0  0  0  0  0  0  0  0  0  0  0  0
   -2.6446   -0.2286   -1.9588 N   0  0  0  0  0  0  0  0  0  0  0  0
   -3.9240    1.1566    1.8800 C   0  0  0  0  0  0  0  0  0  0  0  0
   -5.2778    1.8450    2.0518 C   0  0  0  0  0  0  0  0  0  0  0  0
   -6.8387    0.5100    3.7737 H   0  0  0  0  0  0  0  0  0  0  0  0
   -5.8479   -0.7052    2.9465 H   0  0  0  0  0  0  0  0  0  0  0  0
   -7.5820   -0.5677    2.6050 H   0  0  0  0  0  0  0  0  0  0  0  0
   -7.1476   -0.3278    0.2644 H   0  0  0  0  0  0  0  0  0  0  0  0
   -6.4086    1.1389   -0.3255 H   0  0  0  0  0  0  0  0  0  0  0  0
   -4.9333   -1.2669    0.8625 H   0  0  0  0  0  0  0  0  0  0  0  0
   -4.9637   -0.7608   -0.8131 H   0  0  0  0  0  0  0  0  0  0  0  0
   -3.7990    1.3704   -0.2441 H   0  0  0  0  0  0  0  0  0  0  0  0
   -1.8182    0.0570    1.0595 H   0  0  0  0  0  0  0  0  0  0  0  0
    1.9069   -0.5545   -2.8651 H   0  0  0  0  0  0  0  0  0  0  0  0
    4.0959   -0.6325   -2.2399 H   0  0  0  0  0  0  0  0  0  0  0  0
    5.8038   -0.9398   -0.5079 H   0  0  0  0  0  0  0  0  0  0  0  0
    7.7182   -2.1650    2.4868 H   0  0  0  0  0  0  0  0  0  0  0  0
    9.6844   -0.6698    2.7392 H   0  0  0  0  0  0  0  0  0  0  0  0
    9.3935    1.7925    2.6175 H   0  0  0  0  0  0  0  0  0  0  0  0
    7.1367    2.7609    2.2582 H   0  0  0  0  0  0  0  0  0  0  0  0
    5.1723    1.2757    2.0149 H   0  0  0  0  0  0  0  0  0  0  0  0
    2.7222   -1.5391    2.4302 H   0  0  0  0  0  0  0  0  0  0  0  0
    1.0086   -1.2594    0.7066 H   0  0  0  0  0  0  0  0  0  0  0  0
   -0.2848   -0.5271   -6.5016 H   0  0  0  0  0  0  0  0  0  0  0  0
   -2.6297   -0.3222   -6.4978 H   0  0  0  0  0  0  0  0  0  0  0  0
   -3.1222    1.8889    2.0382 H   0  0  0  0  0  0  0  0  0  0  0  0
   -3.7894    0.3860    2.6500 H   0  0  0  0  0  0  0  0  0  0  0  0
   -5.3588    2.2553    3.0662 H   0  0  0  0  0  0  0  0  0  0  0  0
   -5.3206    2.7147    1.3829 H   0  0  0  0  0  0  0  0  0  0  0  0
  1  2  1  0
  2  3  1  0
  3  4  1  0
  4  5  1  0
  5  6  1  0
  6  7  1  0
  7  8  2  0
  8  9  1  0
  9 10  1  0
 10 11  1  0
 11 12  2  0
 12 13  1  0
 13 14  2  0
 14 15  1  0
 15 16  1  0
 16 17  2  0
 17 18  1  0
 18 19  2  0
 19 20  1  0
 20 21  2  0
 14 22  1  0
 22 23  2  0
  9 24  2  0
 24 25  1  0
 25 26  2  0
 25 27  1  0
 27 28  1  0
 28 29  2  0
 29 30  1  0
 29 31  1  0
 31 32  2  0
  5 33  1  0
 33 34  1  0
 34  2  1  0
 32  7  1  0
 23 11  1  0
 31 24  1  0
 21 16  1  0
  1 35  1  0
  1 36  1  0
  1 37  1  0
  3 38  1  0
  3 39  1  0
  4 40  1  0
  4 41  1  0
  5 42  1  0
  6 43  1  0
 10 44  1  0
 12 45  1  0
 13 46  1  0
 17 47  1  0
 18 48  1  0
 19 49  1  0
 20 50  1  0
 21 51  1  0
 22 52  1  0
 23 53  1  0
 27 54  1  0
 28 55  1  0
 33 56  1  0
 33 57  1  0
 34 58  1  0
 34 59  1  0
M  END
$$$$
