
     RDKit          3D

 67 71  0  0  0  0  0  0  0  0999 V2000
    7.1400    2.9741    1.3528 C   0  0  0  0  0  0  0  0  0  0  0  0
    6.0815    1.9784    1.7149 C   0  0  0  0  0  0  0  0  0  0  0  0
    6.0406    1.3574    2.7676 O   0  0  0  0  0  0  0  0  0  0  0  0
    5.1864    1.8529    0.7014 O   0  0  0  0  0  0  0  0  0  0  0  0
    4.1513    0.9030    0.9567 C   0  0  0  0  0  0  0  0  0  0  0  0
    3.0557    0.9988   -0.0987 C   0  0  0  0  0  0  0  0  0  0  0  0
    3.0472    1.9111   -0.9325 O   0  0  0  0  0  0  0  0  0  0  0  0
    1.9356   -0.0631   -0.0875 C   0  0  1  0  0  0  0  0  0  0  0  0
    2.0069   -0.8097   -1.3119 O   0  0  0  0  0  0  0  0  0  0  0  0
    2.6242   -2.0621   -1.0056 C   0  0  0  0  0  0  0  0  0  0  0  0
    4.0402   -2.0760   -1.5733 C   0  0  0  0  0  0  0  0  0  0  0  0
    1.8045   -3.1932   -1.6169 C   0  0  0  0  0  0  0  0  0  0  0  0
    2.6913   -2.2377    0.4125 O   0  0  0  0  0  0  0  0  0  0  0  0
    1.9994   -1.1413    0.9991 C   0  0  2  0  0  0  0  0  0  0  0  0
    0.5409   -1.5081    1.3610 C   0  0  0  0  0  0  0  0  0  0  0  0
   -0.3065   -0.7261    0.3565 C   0  0  1  0  0  0  0  0  0  0  0  0
   -1.7856   -0.4534    0.6664 C   0  0  2  0  0  0  0  0  0  0  0  0
   -2.5246   -1.7670    0.9727 C   0  0  0  0  0  0  0  0  0  0  0  0
   -4.0203   -1.5586    1.1698 C   0  0  2  0  0  0  0  0  0  0  0  0
   -4.5871   -2.7851    1.3555 F   0  0  0  0  0  0  0  0  0  0  0  0
   -4.6227   -0.8447   -0.0125 C   0  0  0  0  0  0  0  0  0  0  0  0
   -5.6145   -1.4075   -0.7267 C   0  0  0  0  0  0  0  0  0  0  0  0
   -6.1807   -0.7591   -1.9254 C   0  0  0  0  0  0  0  0  0  0  0  0
   -7.0966   -1.2693   -2.5566 O   0  0  0  0  0  0  0  0  0  0  0  0
   -5.5983    0.5335   -2.3314 C   0  0  0  0  0  0  0  0  0  0  0  0
   -4.6114    1.0998   -1.6244 C   0  0  0  0  0  0  0  0  0  0  0  0
   -3.9839    0.5130   -0.3601 C   0  0  1  0  0  0  0  0  0  0  0  0
   -4.3261    1.5014    0.7791 C   0  0  0  0  0  0  0  0  0  0  0  0
   -2.4297    0.2771   -0.5622 C   0  0  2  0  0  0  0  0  0  0  0  0
   -2.3138   -0.6106   -1.6213 F   0  0  0  0  0  0  0  0  0  0  0  0
   -1.6039    1.5287   -0.9990 C   0  0  1  0  0  0  0  0  0  0  0  0
   -1.7960    2.6323   -0.1189 O   0  0  0  0  0  0  0  0  0  0  0  0
   -0.0899    1.2451   -1.1382 C   0  0  0  0  0  0  0  0  0  0  0  0
    0.5165    0.5582    0.1032 C   0  0  2  0  0  0  0  0  0  0  0  0
    0.5349    1.5254    1.3184 C   0  0  0  0  0  0  0  0  0  0  0  0
    6.6760    3.9126    1.0370 H   0  0  0  0  0  0  0  0  0  0  0  0
    7.7700    2.5702    0.5565 H   0  0  0  0  0  0  0  0  0  0  0  0
    7.7604    3.1781    2.2302 H   0  0  0  0  0  0  0  0  0  0  0  0
    3.6901    1.1090    1.9285 H   0  0  0  0  0  0  0  0  0  0  0  0
    4.5879   -0.0998    0.9318 H   0  0  0  0  0  0  0  0  0  0  0  0
    4.6423   -1.2656   -1.1515 H   0  0  0  0  0  0  0  0  0  0  0  0
    4.5543   -3.0134   -1.3359 H   0  0  0  0  0  0  0  0  0  0  0  0
    4.0325   -1.9355   -2.6593 H   0  0  0  0  0  0  0  0  0  0  0  0
    2.2612   -4.1679   -1.4139 H   0  0  0  0  0  0  0  0  0  0  0  0
    1.6954   -3.0659   -2.6989 H   0  0  0  0  0  0  0  0  0  0  0  0
    0.7958   -3.2235   -1.1931 H   0  0  0  0  0  0  0  0  0  0  0  0
    2.5215   -0.8560    1.9156 H   0  0  0  0  0  0  0  0  0  0  0  0
    0.3150   -1.1773    2.3816 H   0  0  0  0  0  0  0  0  0  0  0  0
    0.3550   -2.5854    1.3036 H   0  0  0  0  0  0  0  0  0  0  0  0
   -0.3061   -1.3258   -0.5655 H   0  0  0  0  0  0  0  0  0  0  0  0
   -1.8620    0.1797    1.5558 H   0  0  0  0  0  0  0  0  0  0  0  0
   -2.3628   -2.4947    0.1663 H   0  0  0  0  0  0  0  0  0  0  0  0
   -2.1159   -2.2330    1.8773 H   0  0  0  0  0  0  0  0  0  0  0  0
   -4.2080   -0.9902    2.0864 H   0  0  0  0  0  0  0  0  0  0  0  0
   -6.0403   -2.3736   -0.4762 H   0  0  0  0  0  0  0  0  0  0  0  0
   -6.0196    0.9930   -3.2174 H   0  0  0  0  0  0  0  0  0  0  0  0
   -4.2418    2.0662   -1.9613 H   0  0  0  0  0  0  0  0  0  0  0  0
   -3.7689    1.2961    1.6979 H   0  0  0  0  0  0  0  0  0  0  0  0
   -4.1280    2.5426    0.5025 H   0  0  0  0  0  0  0  0  0  0  0  0
   -5.3930    1.4538    1.0351 H   0  0  0  0  0  0  0  0  0  0  0  0
   -1.9515    1.8492   -1.9879 H   0  0  0  0  0  0  0  0  0  0  0  0
   -1.3005    3.3883   -0.4856 H   0  0  0  0  0  0  0  0  0  0  0  0
    0.0520    0.6108   -2.0221 H   0  0  0  0  0  0  0  0  0  0  0  0
    0.4414    2.1834   -1.3363 H   0  0  0  0  0  0  0  0  0  0  0  0
    1.0759    1.1106    2.1750 H   0  0  0  0  0  0  0  0  0  0  0  0
   -0.4615    1.7781    1.6849 H   0  0  0  0  0  0  0  0  0  0  0  0
    1.0274    2.4681    1.0548 H   0  0  0  0  0  0  0  0  0  0  0  0
  1  2  1  0
  2  3  2  0
  2  4  1  0
  4  5  1  0
  5  6  1  0
  6  7  2  0
  8  6  1  1
  8  9  1  0
  9 10  1  0
 10 11  1  0
 10 12  1  0
 10 13  1  0
 13 14  1  0
 14 15  1  0
 15 16  1  0
 16 17  1  0
 17 18  1  0
 18 19  1  0
 19 20  1  0
 19 21  1  0
 21 22  2  0
 22 23  1  0
 23 24  2  0
 23 25  1  0
 25 26  2  0
 26 27  1  0
 27 28  1  1
 27 29  1  0
 29 30  1  6
 29 31  1  0
 31 32  1  0
 31 33  1  0
 33 34  1  0
 34 35  1  1
 14  8  1  0
 34 16  1  0
 34  8  1  0
 29 17  1  0
 27 21  1  0
  1 36  1  0
  1 37  1  0
  1 38  1  0
  5 39  1  0
  5 40  1  0
 11 41  1  0
 11 42  1  0
 11 43  1  0
 12 44  1  0
 12 45  1  0
 12 46  1  0
 14 47  1  1
 15 48  1  0
 15 49  1  0
 16 50  1  6
 17 51  1  1
 18 52  1  0
 18 53  1  0
 19 54  1  1
 22 55  1  0
 25 56  1  0
 26 57  1  0
 28 58  1  0
 28 59  1  0
 28 60  1  0
 31 61  1  6
 32 62  1  0
 33 63  1  0
 33 64  1  0
 35 65  1  0
 35 66  1  0
 35 67  1  0
M  END
$$$$
