
     RDKit          3D

 45 47  0  0  0  0  0  0  0  0999 V2000
   -4.2770    0.6036   -2.7498 C   0  0  0  0  0  0  0  0  0  0  0  0
   -3.4735    1.2169   -1.6082 C   0  0  0  0  0  0  0  0  0  0  0  0
   -4.0438    0.8954   -0.2651 C   0  0  0  0  0  0  0  0  0  0  0  0
   -5.2626    1.3590    0.0452 N   0  0  0  0  0  0  0  0  0  0  0  0
   -5.5663    0.8375    1.2842 O   0  0  0  0  0  0  0  0  0  0  0  0
   -4.5261    0.0881    1.7285 C   0  0  0  0  0  0  0  0  0  0  0  0
   -4.6950   -0.5504    3.0490 C   0  0  0  0  0  0  0  0  0  0  0  0
   -3.5044    0.1151    0.8003 C   0  0  0  0  0  0  0  0  0  0  0  0
   -2.2308   -0.5626    0.9598 C   0  0  0  0  0  0  0  0  0  0  0  0
   -2.1490   -1.6175    1.5769 O   0  0  0  0  0  0  0  0  0  0  0  0
   -1.1642    0.1335    0.4429 N   0  0  0  0  0  0  0  0  0  0  0  0
    0.1554   -0.2276    0.3993 C   0  0  0  0  0  0  0  0  0  0  0  0
    0.8374   -1.3777    0.5245 C   0  0  0  0  0  0  0  0  0  0  0  0
    0.3046   -2.7638    0.6940 C   0  0  0  0  0  0  0  0  0  0  0  0
    2.2318   -1.1923    0.4251 N   0  0  0  0  0  0  0  0  0  0  0  0
    3.0535   -1.6643    1.5568 C   0  0  0  0  0  0  0  0  0  0  0  0
    2.4244    0.1879    0.1235 N   0  0  0  0  0  0  0  0  0  0  0  0
    3.5888    0.6461   -0.5456 C   0  0  0  0  0  0  0  0  0  0  0  0
    3.8077    2.0160   -0.7473 C   0  0  0  0  0  0  0  0  0  0  0  0
    4.9565    2.4742   -1.4014 C   0  0  0  0  0  0  0  0  0  0  0  0
    5.9032    1.5679   -1.8690 C   0  0  0  0  0  0  0  0  0  0  0  0
    5.7003    0.2033   -1.6861 C   0  0  0  0  0  0  0  0  0  0  0  0
    4.5520   -0.2524   -1.0305 C   0  0  0  0  0  0  0  0  0  0  0  0
    1.1827    0.8248    0.1148 C   0  0  0  0  0  0  0  0  0  0  0  0
    0.8640    1.9809   -0.1254 O   0  0  0  0  0  0  0  0  0  0  0  0
   -5.3022    0.9883   -2.7710 H   0  0  0  0  0  0  0  0  0  0  0  0
   -3.8097    0.8390   -3.7118 H   0  0  0  0  0  0  0  0  0  0  0  0
   -4.3282   -0.4873   -2.6534 H   0  0  0  0  0  0  0  0  0  0  0  0
   -2.4445    0.8539   -1.6916 H   0  0  0  0  0  0  0  0  0  0  0  0
   -3.4326    2.3069   -1.7331 H   0  0  0  0  0  0  0  0  0  0  0  0
   -4.7886   -1.6350    2.9386 H   0  0  0  0  0  0  0  0  0  0  0  0
   -5.5920   -0.1826    3.5579 H   0  0  0  0  0  0  0  0  0  0  0  0
   -3.8344   -0.3388    3.6915 H   0  0  0  0  0  0  0  0  0  0  0  0
   -1.3165    1.1148    0.2213 H   0  0  0  0  0  0  0  0  0  0  0  0
   -0.6412   -2.9020    0.1634 H   0  0  0  0  0  0  0  0  0  0  0  0
    0.1732   -3.0023    1.7536 H   0  0  0  0  0  0  0  0  0  0  0  0
    0.9981   -3.4972    0.2664 H   0  0  0  0  0  0  0  0  0  0  0  0
    2.7115   -1.2167    2.4968 H   0  0  0  0  0  0  0  0  0  0  0  0
    2.9844   -2.7536    1.6457 H   0  0  0  0  0  0  0  0  0  0  0  0
    4.1112   -1.4170    1.4280 H   0  0  0  0  0  0  0  0  0  0  0  0
    3.1004    2.7571   -0.3843 H   0  0  0  0  0  0  0  0  0  0  0  0
    5.1077    3.5416   -1.5421 H   0  0  0  0  0  0  0  0  0  0  0  0
    6.7942    1.9243   -2.3793 H   0  0  0  0  0  0  0  0  0  0  0  0
    6.4299   -0.5103   -2.0602 H   0  0  0  0  0  0  0  0  0  0  0  0
    4.4094   -1.3251   -0.9331 H   0  0  0  0  0  0  0  0  0  0  0  0
  1  2  1  0
  2  3  1  0
  3  4  2  0
  4  5  1  0
  5  6  1  0
  6  7  1  0
  6  8  2  0
  8  9  1  0
  9 10  2  0
  9 11  1  0
 11 12  1  0
 12 13  2  0
 13 14  1  0
 13 15  1  0
 15 16  1  0
 15 17  1  0
 17 18  1  0
 18 19  2  0
 19 20  1  0
 20 21  2  0
 21 22  1  0
 22 23  2  0
 17 24  1  0
 24 25  2  0
  8  3  1  0
 24 12  1  0
 23 18  1  0
  1 26  1  0
  1 27  1  0
  1 28  1  0
  2 29  1  0
  2 30  1  0
  7 31  1  0
  7 32  1  0
  7 33  1  0
 11 34  1  0
 14 35  1  0
 14 36  1  0
 14 37  1  0
 16 38  1  0
 16 39  1  0
 16 40  1  0
 19 41  1  0
 20 42  1  0
 21 43  1  0
 22 44  1  0
 23 45  1  0
M  END
$$$$
