
     RDKit          3D

 23 23  0  0  0  0  0  0  0  0999 V2000
   -1.3023   -1.8653    0.5756 C   0  0  0  0  0  0  0  0  0  0  0  0
   -1.0657   -0.5781   -0.2243 C   0  0  0  0  0  0  0  0  0  0  0  0
   -2.0831    0.5062    0.2062 C   0  0  0  0  0  0  0  0  0  0  0  0
   -2.0059    1.7232   -0.6009 N   0  0  0  0  0  0  0  0  0  0  0  0
    0.3917   -0.1567   -0.1041 C   0  0  0  0  0  0  0  0  0  0  0  0
    0.9215    0.3437    1.0950 C   0  0  0  0  0  0  0  0  0  0  0  0
    2.2679    0.7041    1.1848 C   0  0  0  0  0  0  0  0  0  0  0  0
    3.1040    0.5657    0.0796 C   0  0  0  0  0  0  0  0  0  0  0  0
    2.5946    0.0665   -1.1165 C   0  0  0  0  0  0  0  0  0  0  0  0
    1.2485   -0.2939   -1.2077 C   0  0  0  0  0  0  0  0  0  0  0  0
   -0.6151   -2.6577    0.2581 H   0  0  0  0  0  0  0  0  0  0  0  0
   -1.1568   -1.7082    1.6502 H   0  0  0  0  0  0  0  0  0  0  0  0
   -2.3240   -2.2310    0.4264 H   0  0  0  0  0  0  0  0  0  0  0  0
   -1.2719   -0.8146   -1.2778 H   0  0  0  0  0  0  0  0  0  0  0  0
   -1.9465    0.7754    1.2593 H   0  0  0  0  0  0  0  0  0  0  0  0
   -3.0977    0.1010    0.1121 H   0  0  0  0  0  0  0  0  0  0  0  0
   -2.7775    2.3436   -0.3635 H   0  0  0  0  0  0  0  0  0  0  0  0
   -2.1008    1.4946   -1.5884 H   0  0  0  0  0  0  0  0  0  0  0  0
    0.2901    0.4606    1.9719 H   0  0  0  0  0  0  0  0  0  0  0  0
    2.6623    1.0954    2.1187 H   0  0  0  0  0  0  0  0  0  0  0  0
    4.1505    0.8486    0.1499 H   0  0  0  0  0  0  0  0  0  0  0  0
    3.2443   -0.0414   -1.9807 H   0  0  0  0  0  0  0  0  0  0  0  0
    0.8717   -0.6818   -2.1511 H   0  0  0  0  0  0  0  0  0  0  0  0
  1  2  1  0
  2  3  1  0
  3  4  1  0
  2  5  1  0
  5  6  2  0
  6  7  1  0
  7  8  2  0
  8  9  1  0
  9 10  2  0
 10  5  1  0
  1 11  1  0
  1 12  1  0
  1 13  1  0
  2 14  1  0
  3 15  1  0
  3 16  1  0
  4 17  1  0
  4 18  1  0
  6 19  1  0
  7 20  1  0
  8 21  1  0
  9 22  1  0
 10 23  1  0
M  END
$$$$
