
     RDKit          3D

 38 39  0  0  0  0  0  0  0  0999 V2000
    3.2758   -2.1696    2.1141 O   0  0  0  0  0  0  0  0  0  0  0  0
    2.5983   -1.5030    1.3524 C   0  0  0  0  0  0  0  0  0  0  0  0
    1.2881   -1.7732    1.1895 O   0  0  0  0  0  0  0  0  0  0  0  0
    3.1065   -0.4029    0.4872 C   0  0  0  0  0  0  0  0  0  0  0  0
    4.5004   -0.3904    0.2882 C   0  0  0  0  0  0  0  0  0  0  0  0
    5.0819    0.6017   -0.5042 C   0  0  0  0  0  0  0  0  0  0  0  0
    6.5345    0.6121   -0.7171 N   0  0  0  0  0  4  0  0  0  0  0  0
    7.1953   -0.3138   -0.2274 O   0  0  0  0  0  0  0  0  0  0  0  0
    7.0121    1.5444   -1.3790 O   0  0  0  0  0  1  0  0  0  0  0  0
    4.2888    1.5894   -1.0896 C   0  0  0  0  0  0  0  0  0  0  0  0
    2.9050    1.5777   -0.8818 C   0  0  0  0  0  0  0  0  0  0  0  0
    2.2767    0.5772   -0.1167 C   0  0  0  0  0  0  0  0  0  0  0  0
    0.8995    0.6391    0.1616 N   0  0  0  0  0  0  0  0  0  0  0  0
   -0.0106    1.2543   -0.8015 C   0  0  0  0  0  0  0  0  0  0  0  0
   -1.4672    1.0438   -0.3829 C   0  0  0  0  0  0  0  0  0  0  0  0
   -1.9435   -0.3943   -0.6077 C   0  0  0  0  0  0  0  0  0  0  0  0
   -3.4060   -0.5535   -0.2725 C   0  0  0  0  0  0  0  0  0  0  0  0
   -4.3776   -0.5052   -1.2808 C   0  0  0  0  0  0  0  0  0  0  0  0
   -5.7308   -0.6386   -0.9653 C   0  0  0  0  0  0  0  0  0  0  0  0
   -6.1250   -0.8171    0.3595 C   0  0  0  0  0  0  0  0  0  0  0  0
   -5.1670   -0.8608    1.3705 C   0  0  0  0  0  0  0  0  0  0  0  0
   -3.8135   -0.7280    1.0571 C   0  0  0  0  0  0  0  0  0  0  0  0
    1.1407   -2.5282    1.8005 H   0  0  0  0  0  0  0  0  0  0  0  0
    5.1166   -1.1565    0.7583 H   0  0  0  0  0  0  0  0  0  0  0  0
    4.7245    2.3820   -1.6953 H   0  0  0  0  0  0  0  0  0  0  0  0
    2.3265    2.3862   -1.3216 H   0  0  0  0  0  0  0  0  0  0  0  0
    0.5773   -0.2776    0.4927 H   0  0  0  0  0  0  0  0  0  0  0  0
    0.1700    2.3348   -0.8344 H   0  0  0  0  0  0  0  0  0  0  0  0
    0.1531    0.8475   -1.8066 H   0  0  0  0  0  0  0  0  0  0  0  0
   -1.5996    1.3279    0.6689 H   0  0  0  0  0  0  0  0  0  0  0  0
   -2.0958    1.7231   -0.9733 H   0  0  0  0  0  0  0  0  0  0  0  0
   -1.3658   -1.0994    0.0012 H   0  0  0  0  0  0  0  0  0  0  0  0
   -1.7730   -0.6877   -1.6512 H   0  0  0  0  0  0  0  0  0  0  0  0
   -4.0875   -0.3634   -2.3192 H   0  0  0  0  0  0  0  0  0  0  0  0
   -6.4781   -0.6022   -1.7535 H   0  0  0  0  0  0  0  0  0  0  0  0
   -7.1788   -0.9201    0.6041 H   0  0  0  0  0  0  0  0  0  0  0  0
   -5.4741   -0.9965    2.4041 H   0  0  0  0  0  0  0  0  0  0  0  0
   -3.0775   -0.7592    1.8573 H   0  0  0  0  0  0  0  0  0  0  0  0
  1  2  2  0
  2  3  1  0
  2  4  1  0
  4  5  2  0
  5  6  1  0
  6  7  1  0
  7  8  2  0
  7  9  1  0
  6 10  2  0
 10 11  1  0
 11 12  2  0
 12 13  1  0
 13 14  1  0
 14 15  1  0
 15 16  1  0
 16 17  1  0
 17 18  2  0
 18 19  1  0
 19 20  2  0
 20 21  1  0
 21 22  2  0
 12  4  1  0
 22 17  1  0
  3 23  1  0
  5 24  1  0
 10 25  1  0
 11 26  1  0
 13 27  1  0
 14 28  1  0
 14 29  1  0
 15 30  1  0
 15 31  1  0
 16 32  1  0
 16 33  1  0
 18 34  1  0
 19 35  1  0
 20 36  1  0
 21 37  1  0
 22 38  1  0
M  CHG  2   7   1   9  -1
M  END
$$$$
