
     RDKit          3D

 57 59  0  0  0  0  0  0  0  0999 V2000
    8.7958    1.1984   -0.0911 C   0  0  0  0  0  0  0  0  0  0  0  0
    7.9378    0.5798   -1.0402 O   0  0  0  0  0  0  0  0  0  0  0  0
    6.5926    0.6760   -0.8112 C   0  0  0  0  0  0  0  0  0  0  0  0
    5.7902    0.0815   -1.7871 C   0  0  0  0  0  0  0  0  0  0  0  0
    4.3981    0.1089   -1.6787 C   0  0  0  0  0  0  0  0  0  0  0  0
    3.7824    0.7319   -0.5845 C   0  0  0  0  0  0  0  0  0  0  0  0
    2.2750    0.7700   -0.4718 C   0  0  0  0  0  0  0  0  0  0  0  0
    1.7615   -0.5837   -0.3852 N   0  0  0  0  0  0  0  0  0  0  0  0
    0.3890   -0.6691   -0.1277 C   0  0  0  0  0  0  0  0  0  0  0  0
   -0.4671    0.2845   -0.5818 N   0  0  0  0  0  0  0  0  0  0  0  0
   -1.7986    0.1985   -0.3621 C   0  0  0  0  0  0  0  0  0  0  0  0
   -2.6235    1.2278   -0.8471 N   0  0  0  0  0  0  0  0  0  0  0  0
   -3.9727    0.7696   -1.2205 C   0  0  0  0  0  0  0  0  0  0  0  0
   -4.9279    0.9064   -0.0261 C   0  0  0  0  0  0  0  0  0  0  0  0
   -4.6806    2.1417    0.6512 O   0  0  0  0  0  0  0  0  0  0  0  0
   -1.9286    2.1939   -1.7204 C   0  0  0  0  0  0  0  0  0  0  0  0
   -2.7444    3.4610   -2.0296 C   0  0  0  0  0  0  0  0  0  0  0  0
   -3.1770    4.1260   -0.8479 O   0  0  0  0  0  0  0  0  0  0  0  0
   -2.3886   -0.7976    0.3252 N   0  0  0  0  0  0  0  0  0  0  0  0
   -1.5280   -1.7194    0.7759 C   0  0  0  0  0  0  0  0  0  0  0  0
   -0.1586   -1.7354    0.5986 C   0  0  0  0  0  0  0  0  0  0  0  0
    0.4085   -2.8341    1.2108 N   0  0  0  0  0  0  0  0  0  0  0  0
   -0.6068   -3.4788    1.7447 C   0  0  0  0  0  0  0  0  0  0  0  0
   -1.8005   -2.8422    1.5110 N   0  0  0  0  0  0  0  0  0  0  0  0
   -3.0993   -3.2965    1.9853 C   0  0  0  0  0  0  0  0  0  0  0  0
   -4.0642   -3.5927    0.8367 C   0  0  0  0  0  0  0  0  0  0  0  0
   -3.7088   -2.3277    2.9994 C   0  0  0  0  0  0  0  0  0  0  0  0
    4.5917    1.3245    0.3937 C   0  0  0  0  0  0  0  0  0  0  0  0
    5.9873    1.2975    0.2813 C   0  0  0  0  0  0  0  0  0  0  0  0
    8.6876    0.7401    0.8982 H   0  0  0  0  0  0  0  0  0  0  0  0
    9.8275    1.0399   -0.4203 H   0  0  0  0  0  0  0  0  0  0  0  0
    8.6225    2.2793   -0.0478 H   0  0  0  0  0  0  0  0  0  0  0  0
    6.2528   -0.4084   -2.6401 H   0  0  0  0  0  0  0  0  0  0  0  0
    3.7905   -0.3649   -2.4477 H   0  0  0  0  0  0  0  0  0  0  0  0
    1.9857    1.3481    0.4154 H   0  0  0  0  0  0  0  0  0  0  0  0
    1.8768    1.2897   -1.3528 H   0  0  0  0  0  0  0  0  0  0  0  0
    2.2730   -1.1968    0.2468 H   0  0  0  0  0  0  0  0  0  0  0  0
   -4.3714    1.3946   -2.0257 H   0  0  0  0  0  0  0  0  0  0  0  0
   -3.9831   -0.2523   -1.6223 H   0  0  0  0  0  0  0  0  0  0  0  0
   -4.8003    0.0950    0.6957 H   0  0  0  0  0  0  0  0  0  0  0  0
   -5.9687    0.8948   -0.3631 H   0  0  0  0  0  0  0  0  0  0  0  0
   -3.7440    2.0632    0.9344 H   0  0  0  0  0  0  0  0  0  0  0  0
   -1.6416    1.7140   -2.6647 H   0  0  0  0  0  0  0  0  0  0  0  0
   -1.0170    2.5446   -1.2194 H   0  0  0  0  0  0  0  0  0  0  0  0
   -2.1158    4.1626   -2.5890 H   0  0  0  0  0  0  0  0  0  0  0  0
   -3.6179    3.2532   -2.6535 H   0  0  0  0  0  0  0  0  0  0  0  0
   -3.8114    3.5282   -0.4011 H   0  0  0  0  0  0  0  0  0  0  0  0
   -0.5355   -4.4012    2.3078 H   0  0  0  0  0  0  0  0  0  0  0  0
   -2.9156   -4.2446    2.5089 H   0  0  0  0  0  0  0  0  0  0  0  0
   -3.6134   -4.2854    0.1167 H   0  0  0  0  0  0  0  0  0  0  0  0
   -4.3463   -2.6843    0.2936 H   0  0  0  0  0  0  0  0  0  0  0  0
   -4.9835   -4.0522    1.2152 H   0  0  0  0  0  0  0  0  0  0  0  0
   -4.6305   -2.7421    3.4213 H   0  0  0  0  0  0  0  0  0  0  0  0
   -3.0144   -2.1389    3.8266 H   0  0  0  0  0  0  0  0  0  0  0  0
   -3.9540   -1.3613    2.5463 H   0  0  0  0  0  0  0  0  0  0  0  0
    4.1428    1.8139    1.2554 H   0  0  0  0  0  0  0  0  0  0  0  0
    6.5701    1.7703    1.0648 H   0  0  0  0  0  0  0  0  0  0  0  0
  1  2  1  0
  2  3  1  0
  3  4  2  0
  4  5  1  0
  5  6  2  0
  6  7  1  0
  7  8  1  0
  8  9  1  0
  9 10  2  0
 10 11  1  0
 11 12  1  0
 12 13  1  0
 13 14  1  0
 14 15  1  0
 12 16  1  0
 16 17  1  0
 17 18  1  0
 11 19  2  0
 19 20  1  0
 20 21  2  0
 21 22  1  0
 22 23  2  0
 23 24  1  0
 24 25  1  0
 25 26  1  0
 25 27  1  0
  6 28  1  0
 28 29  2  0
 29  3  1  0
 21  9  1  0
 24 20  1  0
  1 30  1  0
  1 31  1  0
  1 32  1  0
  4 33  1  0
  5 34  1  0
  7 35  1  0
  7 36  1  0
  8 37  1  0
 13 38  1  0
 13 39  1  0
 14 40  1  0
 14 41  1  0
 15 42  1  0
 16 43  1  0
 16 44  1  0
 17 45  1  0
 17 46  1  0
 18 47  1  0
 23 48  1  0
 25 49  1  0
 26 50  1  0
 26 51  1  0
 26 52  1  0
 27 53  1  0
 27 54  1  0
 27 55  1  0
 28 56  1  0
 29 57  1  0
M  END
$$$$
