
     RDKit          3D

 42 46  0  0  0  0  0  0  0  0999 V2000
    2.2315   -0.8194   -1.2976 C   0  0  0  0  0  0  0  0  0  0  0  0
    2.4007    0.2339   -0.2671 C   0  0  0  0  0  0  0  0  0  0  0  0
    1.4472    0.9497    0.4376 C   0  0  0  0  0  0  0  0  0  0  0  0
    0.0119    0.8987    0.2692 C   0  0  0  0  0  0  0  0  0  0  0  0
   -0.6726    2.0679   -0.1319 C   0  0  0  0  0  0  0  0  0  0  0  0
   -2.0603    2.0654   -0.2965 C   0  0  0  0  0  0  0  0  0  0  0  0
   -2.7284    0.8830   -0.0413 C   0  0  0  0  0  0  0  0  0  0  0  0
   -2.0746   -0.2761    0.3698 C   0  0  0  0  0  0  0  0  0  0  0  0
   -0.6988   -0.2842    0.5340 C   0  0  0  0  0  0  0  0  0  0  0  0
   -3.0660   -1.3696    0.5787 C   0  0  0  0  0  0  0  0  0  0  0  0
   -4.3301   -0.7359    0.2409 N   0  0  0  0  0  0  0  0  0  0  0  0
   -5.5553   -1.4717    0.3157 C   0  0  0  0  0  0  0  0  0  0  0  0
   -6.6809   -1.2666   -0.6603 C   0  0  0  0  0  0  0  0  0  0  0  0
   -6.8448   -0.8479    0.7735 C   0  0  0  0  0  0  0  0  0  0  0  0
   -4.1665    0.5983   -0.1276 C   0  0  0  0  0  0  0  0  0  0  0  0
   -4.9936    1.4236   -0.4666 O   0  0  0  0  0  0  0  0  0  0  0  0
    2.0445    1.7407    1.3665 N   0  0  0  0  0  0  0  0  0  0  0  0
    3.3469    1.5306    1.2975 N   0  0  0  0  0  0  0  0  0  0  0  0
    3.6095    0.7043    0.2469 N   0  0  0  0  0  0  0  0  0  0  0  0
    4.9596    0.4593   -0.0969 C   0  0  0  0  0  0  0  0  0  0  0  0
    5.9680    0.6965    0.8513 C   0  0  0  0  0  0  0  0  0  0  0  0
    7.2994    0.4502    0.5253 C   0  0  0  0  0  0  0  0  0  0  0  0
    7.5854   -0.0138   -0.7449 C   0  0  0  0  0  0  0  0  0  0  0  0
    6.6462   -0.2238   -1.6894 N   0  0  0  0  0  0  0  0  0  0  0  0
    5.3589    0.0304   -1.3513 C   0  0  0  0  0  0  0  0  0  0  0  0
    4.4820   -0.0651   -2.3581 F   0  0  0  0  0  0  0  0  0  0  0  0
    3.0235   -1.5720   -1.2451 H   0  0  0  0  0  0  0  0  0  0  0  0
    1.2916   -1.3622   -1.1609 H   0  0  0  0  0  0  0  0  0  0  0  0
    2.2045   -0.3796   -2.2989 H   0  0  0  0  0  0  0  0  0  0  0  0
   -0.1173    2.9869   -0.3149 H   0  0  0  0  0  0  0  0  0  0  0  0
   -2.5987    2.9552   -0.6063 H   0  0  0  0  0  0  0  0  0  0  0  0
   -0.1865   -1.1800    0.8726 H   0  0  0  0  0  0  0  0  0  0  0  0
   -3.0936   -1.6964    1.6224 H   0  0  0  0  0  0  0  0  0  0  0  0
   -2.8906   -2.2097   -0.0996 H   0  0  0  0  0  0  0  0  0  0  0  0
   -5.4007   -2.5018    0.6344 H   0  0  0  0  0  0  0  0  0  0  0  0
   -6.5930   -0.4840   -1.4053 H   0  0  0  0  0  0  0  0  0  0  0  0
   -7.2251   -2.1394   -1.0004 H   0  0  0  0  0  0  0  0  0  0  0  0
   -7.4997   -1.4373    1.4037 H   0  0  0  0  0  0  0  0  0  0  0  0
   -6.8664    0.2147    0.9875 H   0  0  0  0  0  0  0  0  0  0  0  0
    5.7331    1.0564    1.8520 H   0  0  0  0  0  0  0  0  0  0  0  0
    8.0920    0.6161    1.2476 H   0  0  0  0  0  0  0  0  0  0  0  0
    8.6070   -0.2253   -1.0493 H   0  0  0  0  0  0  0  0  0  0  0  0
  1  2  1  0
  2  3  2  0
  3  4  1  0
  4  5  2  0
  5  6  1  0
  6  7  2  0
  7  8  1  0
  8  9  2  0
  8 10  1  0
 10 11  1  0
 11 12  1  0
 12 13  1  0
 13 14  1  0
 11 15  1  0
 15 16  2  0
  3 17  1  0
 17 18  2  0
 18 19  1  0
 19 20  1  0
 20 21  2  0
 21 22  1  0
 22 23  2  0
 23 24  1  0
 24 25  2  0
 25 26  1  0
 19  2  1  0
 25 20  1  0
  9  4  1  0
 14 12  1  0
 15  7  1  0
  1 27  1  0
  1 28  1  0
  1 29  1  0
  5 30  1  0
  6 31  1  0
  9 32  1  0
 10 33  1  0
 10 34  1  0
 12 35  1  0
 13 36  1  0
 13 37  1  0
 14 38  1  0
 14 39  1  0
 21 40  1  0
 22 41  1  0
 23 42  1  0
M  END
$$$$
