
     RDKit          3D

 35 37  0  0  0  0  0  0  0  0999 V2000
    0.9475    1.9344   -0.8240 C   0  0  0  0  0  0  0  0  0  0  0  0
    1.7487    0.7172   -0.3891 C   0  0  0  0  0  0  0  0  0  0  0  0
    1.1234   -0.3697    0.1405 C   0  0  0  0  0  0  0  0  0  0  0  0
    1.7842   -1.6497    0.6507 C   0  0  0  0  0  0  0  0  0  0  0  0
    2.9629   -1.9125    0.7922 O   0  0  0  0  0  0  0  0  0  0  0  0
    0.7526   -2.4886    1.0180 N   0  0  0  0  0  0  0  0  0  0  0  0
   -0.4810   -1.8888    0.8429 C   0  0  0  0  0  0  0  0  0  0  0  0
   -1.7002   -2.4649    1.1395 C   0  0  0  0  0  0  0  0  0  0  0  0
   -2.8489   -1.7107    0.8980 C   0  0  0  0  0  0  0  0  0  0  0  0
   -2.7578   -0.4115    0.3732 C   0  0  0  0  0  0  0  0  0  0  0  0
   -3.8845    0.3898    0.0981 N   0  0  0  0  0  0  0  0  0  0  0  0
   -5.1910    0.1333    0.4174 C   0  0  0  0  0  0  0  0  0  0  0  0
   -6.0271    1.0954   -0.0728 N   0  0  0  0  0  0  0  0  0  0  0  0
   -5.6499   -0.7978    1.0608 O   0  0  0  0  0  0  0  0  0  0  0  0
   -1.4942    0.1392    0.0792 C   0  0  0  0  0  0  0  0  0  0  0  0
   -0.3421   -0.5996    0.3212 C   0  0  0  0  0  0  0  0  0  0  0  0
    3.1696    0.7576   -0.6173 C   0  0  0  0  0  0  0  0  0  0  0  0
    3.9077    1.2304   -1.6914 C   0  0  0  0  0  0  0  0  0  0  0  0
    5.2811    1.1345   -1.3653 C   0  0  0  0  0  0  0  0  0  0  0  0
    5.3577    0.6079   -0.0987 C   0  0  0  0  0  0  0  0  0  0  0  0
    4.0787    0.3904    0.3481 N   0  0  0  0  0  0  0  0  0  0  0  0
    0.3113    1.6984   -1.6827 H   0  0  0  0  0  0  0  0  0  0  0  0
    0.3542    2.3298    0.0063 H   0  0  0  0  0  0  0  0  0  0  0  0
    1.6036    2.7567   -1.1326 H   0  0  0  0  0  0  0  0  0  0  0  0
    0.9149   -3.4058    1.4046 H   0  0  0  0  0  0  0  0  0  0  0  0
   -1.7754   -3.4680    1.5442 H   0  0  0  0  0  0  0  0  0  0  0  0
   -3.8101   -2.1642    1.1236 H   0  0  0  0  0  0  0  0  0  0  0  0
   -3.7141    1.3218   -0.2499 H   0  0  0  0  0  0  0  0  0  0  0  0
   -7.0004    0.8609    0.0884 H   0  0  0  0  0  0  0  0  0  0  0  0
   -5.8455    1.4057   -1.0165 H   0  0  0  0  0  0  0  0  0  0  0  0
   -1.4451    1.1367   -0.3346 H   0  0  0  0  0  0  0  0  0  0  0  0
    3.4966    1.6125   -2.6167 H   0  0  0  0  0  0  0  0  0  0  0  0
    6.1205    1.4119   -1.9889 H   0  0  0  0  0  0  0  0  0  0  0  0
    6.2056    0.3495    0.5206 H   0  0  0  0  0  0  0  0  0  0  0  0
    3.8465   -0.0822    1.2131 H   0  0  0  0  0  0  0  0  0  0  0  0
  1  2  1  0
  2  3  2  0
  3  4  1  0
  4  5  2  0
  4  6  1  0
  6  7  1  0
  7  8  2  0
  8  9  1  0
  9 10  2  0
 10 11  1  0
 11 12  1  0
 12 13  1  0
 12 14  2  0
 10 15  1  0
 15 16  2  0
  2 17  1  0
 17 18  2  0
 18 19  1  0
 19 20  2  0
 20 21  1  0
 16  3  1  0
 21 17  1  0
 16  7  1  0
  1 22  1  0
  1 23  1  0
  1 24  1  0
  6 25  1  0
  8 26  1  0
  9 27  1  0
 11 28  1  0
 13 29  1  0
 13 30  1  0
 15 31  1  0
 18 32  1  0
 19 33  1  0
 20 34  1  0
 21 35  1  0
M  END
$$$$
