
     RDKit          3D

 54 56  0  0  0  0  0  0  0  0999 V2000
   -5.5751   -5.2175   -0.4550 C   0  0  0  0  0  0  0  0  0  0  0  0
   -5.3971   -3.8065   -0.5086 O   0  0  0  0  0  0  0  0  0  0  0  0
   -4.1374   -3.3342   -0.2665 C   0  0  0  0  0  0  0  0  0  0  0  0
   -3.0245   -4.0979    0.0711 C   0  0  0  0  0  0  0  0  0  0  0  0
   -1.7800   -3.4863    0.2758 C   0  0  0  0  0  0  0  0  0  0  0  0
   -1.6278   -2.1011    0.1623 C   0  0  0  0  0  0  0  0  0  0  0  0
   -0.3747   -1.4585    0.3236 N   0  0  0  0  0  0  0  0  0  0  0  0
    0.8360   -2.0125    0.6846 C   0  0  0  0  0  0  0  0  0  0  0  0
    1.0213   -3.1680    1.0517 O   0  0  0  0  0  0  0  0  0  0  0  0
    2.0082   -1.0831    0.6492 C   0  0  0  0  0  0  0  0  0  0  0  0
    3.1009   -1.3678    1.4843 C   0  0  0  0  0  0  0  0  0  0  0  0
    4.2291   -0.5439    1.4823 C   0  0  0  0  0  0  0  0  0  0  0  0
    4.2713    0.5637    0.6325 C   0  0  0  0  0  0  0  0  0  0  0  0
    5.4730    1.4487    0.6281 C   0  0  0  0  0  0  0  0  0  0  0  0
    5.8830    1.9445    1.7571 N   0  0  0  0  0  0  0  0  0  0  0  0
    6.1231    1.7473   -0.5635 N   0  0  0  0  0  0  0  0  0  0  0  0
    6.2626    0.7286   -1.6031 C   0  0  0  0  0  0  0  0  0  0  0  0
    7.2399    2.6930   -0.5150 C   0  0  0  0  0  0  0  0  0  0  0  0
    3.1926    0.8563   -0.2059 C   0  0  0  0  0  0  0  0  0  0  0  0
    2.0646    0.0299   -0.2045 C   0  0  0  0  0  0  0  0  0  0  0  0
   -2.7679   -1.3242   -0.1455 C   0  0  0  0  0  0  0  0  0  0  0  0
   -2.6682    0.1673   -0.2363 C   0  0  0  0  0  0  0  0  0  0  0  0
   -1.6087    0.6467   -0.6284 O   0  0  0  0  0  0  0  0  0  0  0  0
   -3.7802    0.8577    0.2060 N   0  0  0  0  0  0  0  0  0  0  0  0
   -3.9216    2.2524    0.1969 C   0  0  0  0  0  0  0  0  0  0  0  0
   -5.0869    2.7797    0.7512 C   0  0  0  0  0  0  0  0  0  0  0  0
   -5.2758    4.1636    0.7580 C   0  0  0  0  0  0  0  0  0  0  0  0
   -4.2977    4.9813    0.2116 C   0  0  0  0  0  0  0  0  0  0  0  0
   -4.4861    6.6854    0.1970 Cl  0  0  0  0  0  0  0  0  0  0  0  0
   -3.1712    4.3800   -0.3195 C   0  0  0  0  0  0  0  0  0  0  0  0
   -2.9710    3.0397   -0.3369 N   0  0  0  0  0  0  0  0  0  0  0  0
   -4.0043   -1.9502   -0.3796 C   0  0  0  0  0  0  0  0  0  0  0  0
   -5.3770   -5.6009    0.5512 H   0  0  0  0  0  0  0  0  0  0  0  0
   -6.6216   -5.4309   -0.6928 H   0  0  0  0  0  0  0  0  0  0  0  0
   -4.9537   -5.7232   -1.2013 H   0  0  0  0  0  0  0  0  0  0  0  0
   -3.0767   -5.1777    0.1726 H   0  0  0  0  0  0  0  0  0  0  0  0
   -0.9388   -4.1318    0.5120 H   0  0  0  0  0  0  0  0  0  0  0  0
   -0.3978   -0.4555    0.1300 H   0  0  0  0  0  0  0  0  0  0  0  0
    3.0748   -2.2373    2.1391 H   0  0  0  0  0  0  0  0  0  0  0  0
    5.0736   -0.7770    2.1261 H   0  0  0  0  0  0  0  0  0  0  0  0
    5.2689    1.6562    2.5249 H   0  0  0  0  0  0  0  0  0  0  0  0
    6.9216   -0.0759   -1.2594 H   0  0  0  0  0  0  0  0  0  0  0  0
    6.6919    1.1549   -2.5163 H   0  0  0  0  0  0  0  0  0  0  0  0
    5.2997    0.2944   -1.8859 H   0  0  0  0  0  0  0  0  0  0  0  0
    6.9716    3.5910    0.0529 H   0  0  0  0  0  0  0  0  0  0  0  0
    8.1191    2.2283   -0.0558 H   0  0  0  0  0  0  0  0  0  0  0  0
    7.5108    3.0286   -1.5225 H   0  0  0  0  0  0  0  0  0  0  0  0
    3.2309    1.7246   -0.8600 H   0  0  0  0  0  0  0  0  0  0  0  0
    1.2551    0.2655   -0.8914 H   0  0  0  0  0  0  0  0  0  0  0  0
   -4.5281    0.3357    0.6367 H   0  0  0  0  0  0  0  0  0  0  0  0
   -5.8505    2.1377    1.1772 H   0  0  0  0  0  0  0  0  0  0  0  0
   -6.1789    4.5886    1.1861 H   0  0  0  0  0  0  0  0  0  0  0  0
   -2.3692    4.9655   -0.7599 H   0  0  0  0  0  0  0  0  0  0  0  0
   -4.8754   -1.3748   -0.6826 H   0  0  0  0  0  0  0  0  0  0  0  0
  1  2  1  0
  2  3  1  0
  3  4  2  0
  4  5  1  0
  5  6  2  0
  6  7  1  0
  7  8  1  0
  8  9  2  0
  8 10  1  0
 10 11  2  0
 11 12  1  0
 12 13  2  0
 13 14  1  0
 14 15  2  3
 14 16  1  0
 16 17  1  0
 16 18  1  0
 13 19  1  0
 19 20  2  0
  6 21  1  0
 21 22  1  0
 22 23  2  0
 22 24  1  0
 24 25  1  0
 25 26  2  0
 26 27  1  0
 27 28  2  0
 28 29  1  0
 28 30  1  0
 30 31  2  0
 21 32  2  0
 32  3  1  0
 20 10  1  0
 31 25  1  0
  1 33  1  0
  1 34  1  0
  1 35  1  0
  4 36  1  0
  5 37  1  0
  7 38  1  0
 11 39  1  0
 12 40  1  0
 15 41  1  0
 17 42  1  0
 17 43  1  0
 17 44  1  0
 18 45  1  0
 18 46  1  0
 18 47  1  0
 19 48  1  0
 20 49  1  0
 24 50  1  0
 26 51  1  0
 27 52  1  0
 30 53  1  0
 32 54  1  0
M  END
$$$$
