
     RDKit          3D

 57 59  0  0  0  0  0  0  0  0999 V2000
    7.4967   -0.7889   -0.5341 C   0  0  0  0  0  0  0  0  0  0  0  0
    6.7996   -1.2941   -1.6682 O   0  0  0  0  0  0  0  0  0  0  0  0
    5.4694   -0.9263   -1.6968 C   0  0  0  0  0  0  0  0  0  0  0  0
    4.7436   -1.3510   -2.7997 C   0  0  0  0  0  0  0  0  0  0  0  0
    3.3957   -1.0150   -2.8727 C   0  0  0  0  0  0  0  0  0  0  0  0
    2.8245   -0.2786   -1.8338 C   0  0  0  0  0  0  0  0  0  0  0  0
    1.4048    0.0958   -1.9265 C   0  0  0  0  0  0  0  0  0  0  0  0
    1.0587    0.7505   -2.9079 O   0  0  0  0  0  0  0  0  0  0  0  0
    0.5179   -0.3157   -0.9341 N   0  0  0  0  0  0  0  0  0  0  0  0
    0.7681   -1.4012    0.0099 C   0  0  0  0  0  0  0  0  0  0  0  0
    0.4056   -0.9970    1.4386 C   0  0  0  0  0  0  0  0  0  0  0  0
   -0.6772    0.0861    1.5171 C   0  0  0  0  0  0  0  0  0  0  0  0
   -1.6279    0.0372    0.3086 C   0  0  0  0  0  0  0  0  0  0  0  0
   -2.7898    0.9569    0.4175 N   0  0  0  0  0  0  0  0  0  0  0  0
   -2.7208    2.3431    0.5800 C   0  0  0  0  0  0  0  0  0  0  0  0
   -1.3891    3.0511    0.5660 C   0  0  0  0  0  0  0  0  0  0  0  0
   -3.7294    3.0294    0.7738 O   0  0  0  0  0  0  0  0  0  0  0  0
   -4.1438    0.3464    0.4951 C   0  0  0  0  0  0  0  0  0  0  0  0
   -4.3565   -0.4020    1.8135 C   0  0  0  0  0  0  0  0  0  0  0  0
   -5.7867   -0.9288    1.9057 C   0  0  0  0  0  0  0  0  0  0  0  0
   -6.3760   -1.2226    0.6384 O   0  0  0  0  0  0  0  0  0  0  0  0
   -5.4371   -1.6700   -0.3298 C   0  0  0  0  0  0  0  0  0  0  0  0
   -4.4966   -0.5343   -0.7167 C   0  0  0  0  0  0  0  0  0  0  0  0
   -0.8727    0.1260   -1.0393 C   0  0  0  0  0  0  0  0  0  0  0  0
    3.6370    0.1326   -0.7811 C   0  0  0  0  0  0  0  0  0  0  0  0
    3.0738    0.9028    0.2177 O   0  0  0  0  0  0  0  0  0  0  0  0
    4.0140    1.3623    1.1826 C   0  0  0  0  0  0  0  0  0  0  0  0
    4.9484   -0.1969   -0.6860 N   0  0  0  0  0  0  0  0  0  0  0  0
    7.4958    0.3066   -0.5227 H   0  0  0  0  0  0  0  0  0  0  0  0
    8.5372   -1.1199   -0.6079 H   0  0  0  0  0  0  0  0  0  0  0  0
    7.0842   -1.1926    0.3971 H   0  0  0  0  0  0  0  0  0  0  0  0
    5.2213   -1.9245   -3.5865 H   0  0  0  0  0  0  0  0  0  0  0  0
    2.7979   -1.3155   -3.7292 H   0  0  0  0  0  0  0  0  0  0  0  0
    1.7970   -1.7660   -0.0305 H   0  0  0  0  0  0  0  0  0  0  0  0
    0.1385   -2.2420   -0.3086 H   0  0  0  0  0  0  0  0  0  0  0  0
    1.3000   -0.6304    1.9572 H   0  0  0  0  0  0  0  0  0  0  0  0
    0.0834   -1.8902    1.9873 H   0  0  0  0  0  0  0  0  0  0  0  0
   -1.2372   -0.0216    2.4537 H   0  0  0  0  0  0  0  0  0  0  0  0
   -0.1694    1.0517    1.5799 H   0  0  0  0  0  0  0  0  0  0  0  0
   -2.0421   -0.9795    0.3361 H   0  0  0  0  0  0  0  0  0  0  0  0
   -0.6188    2.5476   -0.0097 H   0  0  0  0  0  0  0  0  0  0  0  0
   -1.0483    3.1870    1.5960 H   0  0  0  0  0  0  0  0  0  0  0  0
   -1.5258    4.0384    0.1122 H   0  0  0  0  0  0  0  0  0  0  0  0
   -4.8871    1.1538    0.4902 H   0  0  0  0  0  0  0  0  0  0  0  0
   -4.1339    0.2338    2.6783 H   0  0  0  0  0  0  0  0  0  0  0  0
   -3.6651   -1.2512    1.8788 H   0  0  0  0  0  0  0  0  0  0  0  0
   -5.8203   -1.8306    2.5269 H   0  0  0  0  0  0  0  0  0  0  0  0
   -6.4286   -0.1835    2.3873 H   0  0  0  0  0  0  0  0  0  0  0  0
   -4.8839   -2.5307    0.0652 H   0  0  0  0  0  0  0  0  0  0  0  0
   -5.9875   -2.0150   -1.2109 H   0  0  0  0  0  0  0  0  0  0  0  0
   -4.9865    0.1047   -1.4632 H   0  0  0  0  0  0  0  0  0  0  0  0
   -3.6240   -0.9563   -1.2221 H   0  0  0  0  0  0  0  0  0  0  0  0
   -1.3615   -0.5246   -1.7756 H   0  0  0  0  0  0  0  0  0  0  0  0
   -0.9083    1.1293   -1.4729 H   0  0  0  0  0  0  0  0  0  0  0  0
    4.4544    0.5255    1.7356 H   0  0  0  0  0  0  0  0  0  0  0  0
    3.4744    1.9873    1.9008 H   0  0  0  0  0  0  0  0  0  0  0  0
    4.7901    1.9815    0.7193 H   0  0  0  0  0  0  0  0  0  0  0  0
  1  2  1  0
  2  3  1  0
  3  4  2  0
  4  5  1  0
  5  6  2  0
  6  7  1  0
  7  8  2  0
  7  9  1  0
  9 10  1  0
 10 11  1  0
 11 12  1  0
 12 13  1  0
 13 14  1  0
 14 15  1  0
 15 16  1  0
 15 17  2  0
 14 18  1  0
 18 19  1  0
 19 20  1  0
 20 21  1  0
 21 22  1  0
 22 23  1  0
 13 24  1  0
  6 25  1  0
 25 26  1  0
 26 27  1  0
 25 28  2  0
 28  3  1  0
 24  9  1  0
 23 18  1  0
  1 29  1  0
  1 30  1  0
  1 31  1  0
  4 32  1  0
  5 33  1  0
 10 34  1  0
 10 35  1  0
 11 36  1  0
 11 37  1  0
 12 38  1  0
 12 39  1  0
 13 40  1  0
 16 41  1  0
 16 42  1  0
 16 43  1  0
 18 44  1  0
 19 45  1  0
 19 46  1  0
 20 47  1  0
 20 48  1  0
 22 49  1  0
 22 50  1  0
 23 51  1  0
 23 52  1  0
 24 53  1  0
 24 54  1  0
 27 55  1  0
 27 56  1  0
 27 57  1  0
M  END
$$$$
