
     RDKit          3D

 40 41  0  0  0  0  0  0  0  0999 V2000
    5.0515   -1.9799   -0.8867 C   0  0  0  0  0  0  0  0  0  0  0  0
    3.6199   -2.0272   -0.3900 C   0  0  0  0  0  0  0  0  0  0  0  0
    3.1389   -0.6823   -0.2850 O   0  0  0  0  0  0  0  0  0  0  0  0
    1.8518   -0.5797    0.1206 C   0  0  0  0  0  0  0  0  0  0  0  0
    1.1201   -1.5111    0.4263 O   0  0  0  0  0  0  0  0  0  0  0  0
    1.3865    0.8332    0.1375 C   0  0  0  0  0  0  0  0  0  0  0  0
    2.2792    1.8350    0.2823 C   0  0  0  0  0  0  0  0  0  0  0  0
    1.8993    3.2814    0.4007 C   0  0  0  0  0  0  0  0  0  0  0  0
    0.4157    3.4794    0.7003 C   0  0  0  0  0  0  0  0  0  0  0  0
   -0.4386    2.5726   -0.1766 C   0  0  0  0  0  0  0  0  0  0  0  0
   -0.1106    1.0832    0.0567 C   0  0  1  0  0  0  0  0  0  0  0  0
   -0.8732    0.0993   -1.2944 S   0  0  0  0  0  6  0  0  0  0  0  0
   -2.0714    0.7797   -1.7453 O   0  0  0  0  0  0  0  0  0  0  0  0
    0.1549   -0.2480   -2.2551 O   0  0  0  0  0  0  0  0  0  0  0  0
   -1.3320   -1.3402   -0.5245 N   0  0  0  0  0  0  0  0  0  0  0  0
   -2.5968   -1.3958    0.1514 C   0  0  0  0  0  0  0  0  0  0  0  0
   -3.7712   -1.3386   -0.6090 C   0  0  0  0  0  0  0  0  0  0  0  0
   -5.0200   -1.3890    0.0125 C   0  0  0  0  0  0  0  0  0  0  0  0
   -5.0923   -1.5052    1.3946 C   0  0  0  0  0  0  0  0  0  0  0  0
   -6.2903   -1.5542    1.9904 F   0  0  0  0  0  0  0  0  0  0  0  0
   -3.9418   -1.5760    2.1693 C   0  0  0  0  0  0  0  0  0  0  0  0
   -2.6929   -1.5245    1.5474 C   0  0  0  0  0  0  0  0  0  0  0  0
   -1.2925   -1.6329    2.5501 Cl  0  0  0  0  0  0  0  0  0  0  0  0
    5.1050   -1.4823   -1.8608 H   0  0  0  0  0  0  0  0  0  0  0  0
    5.4652   -2.9877   -0.9817 H   0  0  0  0  0  0  0  0  0  0  0  0
    5.6792   -1.4028   -0.1996 H   0  0  0  0  0  0  0  0  0  0  0  0
    3.0003   -2.5885   -1.0986 H   0  0  0  0  0  0  0  0  0  0  0  0
    3.5845   -2.5089    0.5936 H   0  0  0  0  0  0  0  0  0  0  0  0
    3.3469    1.6287    0.3385 H   0  0  0  0  0  0  0  0  0  0  0  0
    2.1634    3.7880   -0.5352 H   0  0  0  0  0  0  0  0  0  0  0  0
    2.4890    3.7487    1.1975 H   0  0  0  0  0  0  0  0  0  0  0  0
    0.2170    3.2589    1.7569 H   0  0  0  0  0  0  0  0  0  0  0  0
    0.1432    4.5281    0.5371 H   0  0  0  0  0  0  0  0  0  0  0  0
   -1.4995    2.7534    0.0345 H   0  0  0  0  0  0  0  0  0  0  0  0
   -0.2793    2.8406   -1.2297 H   0  0  0  0  0  0  0  0  0  0  0  0
   -0.5899    0.7740    0.9899 H   0  0  0  0  0  0  0  0  0  0  0  0
   -0.5352   -1.7593   -0.0164 H   0  0  0  0  0  0  0  0  0  0  0  0
   -3.7200   -1.2563   -1.6931 H   0  0  0  0  0  0  0  0  0  0  0  0
   -5.9318   -1.3391   -0.5751 H   0  0  0  0  0  0  0  0  0  0  0  0
   -4.0324   -1.6748    3.2463 H   0  0  0  0  0  0  0  0  0  0  0  0
  1  2  1  0
  2  3  1  0
  3  4  1  0
  4  5  2  0
  4  6  1  0
  6  7  2  0
  7  8  1  0
  8  9  1  0
  9 10  1  0
 10 11  1  0
 11 12  1  0
 12 13  2  0
 12 14  2  0
 12 15  1  0
 15 16  1  0
 16 17  2  0
 17 18  1  0
 18 19  2  0
 19 20  1  0
 19 21  1  0
 21 22  2  0
 22 23  1  0
 11  6  1  0
 22 16  1  0
  1 24  1  0
  1 25  1  0
  1 26  1  0
  2 27  1  0
  2 28  1  0
  7 29  1  0
  8 30  1  0
  8 31  1  0
  9 32  1  0
  9 33  1  0
 10 34  1  0
 10 35  1  0
 11 36  1  1
 15 37  1  0
 17 38  1  0
 18 39  1  0
 21 40  1  0
M  END
$$$$
