
     RDKit          3D

 68 71  0  0  0  0  0  0  0  0999 V2000
   -0.8057    0.8739    2.9364 C   0  0  0  0  0  0  0  0  0  0  0  0
   -1.7038    1.1153    1.8623 O   0  0  0  0  0  0  0  0  0  0  0  0
   -1.2763    0.8163    0.5932 C   0  0  0  0  0  0  0  0  0  0  0  0
    0.0202    0.3854    0.2833 C   0  0  0  0  0  0  0  0  0  0  0  0
    0.3708    0.0961   -1.0366 C   0  0  0  0  0  0  0  0  0  0  0  0
    1.6349   -0.2966   -1.3806 O   0  0  0  0  0  0  0  0  0  0  0  0
    2.0231   -1.5416   -0.7846 C   0  0  0  0  0  0  0  0  0  0  0  0
    3.1765   -1.3447    0.1803 C   0  0  0  0  0  0  0  0  0  0  0  0
    2.9973   -1.7543    1.5136 C   0  0  0  0  0  0  0  0  0  0  0  0
    4.0090   -1.5925    2.4537 C   0  0  0  0  0  0  0  0  0  0  0  0
    5.2158   -1.0127    2.0748 C   0  0  0  0  0  0  0  0  0  0  0  0
    5.4388   -0.5915    0.7522 C   0  0  0  0  0  0  0  0  0  0  0  0
    6.7284    0.0412    0.4325 C   0  0  0  0  0  0  0  0  0  0  0  0
    7.8840   -0.7348    0.2536 C   0  0  0  0  0  0  0  0  0  0  0  0
    9.1094   -0.1336   -0.0425 C   0  0  0  0  0  0  0  0  0  0  0  0
    9.1955    1.2527   -0.1605 C   0  0  0  0  0  0  0  0  0  0  0  0
    8.0585    2.0371    0.0207 C   0  0  0  0  0  0  0  0  0  0  0  0
    6.8330    1.4351    0.3156 C   0  0  0  0  0  0  0  0  0  0  0  0
    4.4181   -0.7817   -0.2151 C   0  0  0  0  0  0  0  0  0  0  0  0
    4.6363   -0.3377   -1.6445 C   0  0  0  0  0  0  0  0  0  0  0  0
   -0.5429    0.2803   -2.0652 C   0  0  0  0  0  0  0  0  0  0  0  0
   -1.8395    0.6928   -1.7618 C   0  0  0  0  0  0  0  0  0  0  0  0
   -2.7329    0.8949   -2.7852 O   0  0  0  0  0  0  0  0  0  0  0  0
   -3.1848   -0.3534   -3.3098 C   0  0  0  0  0  0  0  0  0  0  0  0
   -2.2260    0.9766   -0.4376 C   0  0  0  0  0  0  0  0  0  0  0  0
   -3.6466    1.4262   -0.1461 C   0  0  0  0  0  0  0  0  0  0  0  0
   -4.6095    0.3122   -0.2012 N   0  0  0  0  0  0  0  0  0  0  0  0
   -4.5373   -0.5512    0.9838 C   0  0  0  0  0  0  0  0  0  0  0  0
   -5.7655   -1.4520    1.1651 C   0  0  0  0  0  0  0  0  0  0  0  0
   -6.4200   -1.7694   -0.1687 C   0  0  0  0  0  0  0  0  0  0  0  0
   -6.8511   -0.4874   -0.8878 C   0  0  0  0  0  0  0  0  0  0  0  0
   -5.9760    0.7390   -0.5594 C   0  0  1  0  0  0  0  0  0  0  0  0
   -6.6444    1.6449    0.4870 C   0  0  0  0  0  0  0  0  0  0  0  0
   -6.2953    1.8707    1.6343 O   0  0  0  0  0  0  0  0  0  0  0  0
   -7.7517    2.2503    0.0015 O   0  0  0  0  0  0  0  0  0  0  0  0
   -0.5196   -0.1818    2.9822 H   0  0  0  0  0  0  0  0  0  0  0  0
    0.0736    1.5222    2.8689 H   0  0  0  0  0  0  0  0  0  0  0  0
   -1.3261    1.1181    3.8685 H   0  0  0  0  0  0  0  0  0  0  0  0
    0.7825    0.2941    1.0481 H   0  0  0  0  0  0  0  0  0  0  0  0
    1.1787   -2.0526   -0.2994 H   0  0  0  0  0  0  0  0  0  0  0  0
    2.3467   -2.2138   -1.5885 H   0  0  0  0  0  0  0  0  0  0  0  0
    2.0567   -2.2011    1.8303 H   0  0  0  0  0  0  0  0  0  0  0  0
    3.8577   -1.9098    3.4821 H   0  0  0  0  0  0  0  0  0  0  0  0
    5.9944   -0.8757    2.8238 H   0  0  0  0  0  0  0  0  0  0  0  0
    7.8302   -1.8180    0.3426 H   0  0  0  0  0  0  0  0  0  0  0  0
    9.9959   -0.7472   -0.1820 H   0  0  0  0  0  0  0  0  0  0  0  0
   10.1497    1.7210   -0.3907 H   0  0  0  0  0  0  0  0  0  0  0  0
    8.1229    3.1182   -0.0670 H   0  0  0  0  0  0  0  0  0  0  0  0
    5.9537    2.0590    0.4569 H   0  0  0  0  0  0  0  0  0  0  0  0
    5.6877   -0.4136   -1.9398 H   0  0  0  0  0  0  0  0  0  0  0  0
    4.3071    0.6992   -1.7681 H   0  0  0  0  0  0  0  0  0  0  0  0
    4.0937   -0.9713   -2.3535 H   0  0  0  0  0  0  0  0  0  0  0  0
   -0.2468    0.1087   -3.0949 H   0  0  0  0  0  0  0  0  0  0  0  0
   -4.1004   -0.1652   -3.8784 H   0  0  0  0  0  0  0  0  0  0  0  0
   -2.4399   -0.7713   -3.9942 H   0  0  0  0  0  0  0  0  0  0  0  0
   -3.4205   -1.0757   -2.5197 H   0  0  0  0  0  0  0  0  0  0  0  0
   -3.8972    2.1829   -0.9023 H   0  0  0  0  0  0  0  0  0  0  0  0
   -3.7109    1.9663    0.8064 H   0  0  0  0  0  0  0  0  0  0  0  0
   -3.6561   -1.1961    0.8819 H   0  0  0  0  0  0  0  0  0  0  0  0
   -4.4000    0.0249    1.9074 H   0  0  0  0  0  0  0  0  0  0  0  0
   -6.4968   -0.9588    1.8171 H   0  0  0  0  0  0  0  0  0  0  0  0
   -5.4708   -2.3793    1.6687 H   0  0  0  0  0  0  0  0  0  0  0  0
   -5.7089   -2.3177   -0.8004 H   0  0  0  0  0  0  0  0  0  0  0  0
   -7.2844   -2.4284   -0.0283 H   0  0  0  0  0  0  0  0  0  0  0  0
   -7.9010   -0.2853   -0.6430 H   0  0  0  0  0  0  0  0  0  0  0  0
   -6.8185   -0.6817   -1.9669 H   0  0  0  0  0  0  0  0  0  0  0  0
   -5.9120    1.3429   -1.4753 H   0  0  0  0  0  0  0  0  0  0  0  0
   -8.0610    2.8010    0.7508 H   0  0  0  0  0  0  0  0  0  0  0  0
  1  2  1  0
  2  3  1  0
  3  4  2  0
  4  5  1  0
  5  6  1  0
  6  7  1  0
  7  8  1  0
  8  9  2  0
  9 10  1  0
 10 11  2  0
 11 12  1  0
 12 13  1  0
 13 14  2  0
 14 15  1  0
 15 16  2  0
 16 17  1  0
 17 18  2  0
 12 19  2  0
 19 20  1  0
  5 21  2  0
 21 22  1  0
 22 23  1  0
 23 24  1  0
 22 25  2  0
 25 26  1  0
 26 27  1  0
 27 28  1  0
 28 29  1  0
 29 30  1  0
 30 31  1  0
 31 32  1  0
 32 33  1  0
 33 34  2  0
 33 35  1  0
 25  3  1  0
 32 27  1  0
 19  8  1  0
 18 13  1  0
  1 36  1  0
  1 37  1  0
  1 38  1  0
  4 39  1  0
  7 40  1  0
  7 41  1  0
  9 42  1  0
 10 43  1  0
 11 44  1  0
 14 45  1  0
 15 46  1  0
 16 47  1  0
 17 48  1  0
 18 49  1  0
 20 50  1  0
 20 51  1  0
 20 52  1  0
 21 53  1  0
 24 54  1  0
 24 55  1  0
 24 56  1  0
 26 57  1  0
 26 58  1  0
 28 59  1  0
 28 60  1  0
 29 61  1  0
 29 62  1  0
 30 63  1  0
 30 64  1  0
 31 65  1  0
 31 66  1  0
 32 67  1  6
 35 68  1  0
M  END
$$$$
