
     RDKit          3D

 64 67  0  0  0  0  0  0  0  0999 V2000
   -5.0677   -5.4636    0.8122 C   0  0  0  0  0  0  0  0  0  0  0  0
   -4.1473   -4.3134    0.9092 C   0  0  0  0  0  0  0  0  0  0  0  0
   -3.9910   -3.5985    2.0277 N   0  0  0  0  0  0  0  0  0  0  0  0
   -3.1032   -2.6674    1.6392 N   0  0  0  0  0  0  0  0  0  0  0  0
   -2.7199   -2.8628    0.3379 C   0  0  0  0  0  0  0  0  0  0  0  0
   -1.7641   -2.0098   -0.4255 C   0  0  2  0  0  0  0  0  0  0  0  0
   -0.5246   -2.7989   -0.8831 C   0  0  0  0  0  0  0  0  0  0  0  0
    0.6363   -1.9179   -0.6638 N   0  0  0  0  0  0  0  0  0  0  0  0
    1.6538   -2.0543   -1.7073 C   0  0  0  0  0  0  0  0  0  0  0  0
    2.9261   -1.2973   -1.3951 C   0  0  0  0  0  0  0  0  0  0  0  0
    3.3315   -0.2125   -2.1857 C   0  0  0  0  0  0  0  0  0  0  0  0
    4.5121    0.4835   -1.8963 C   0  0  0  0  0  0  0  0  0  0  0  0
    5.3061    0.1041   -0.8153 C   0  0  0  0  0  0  0  0  0  0  0  0
    6.4771    0.6873   -0.4227 O   0  0  0  0  0  0  0  0  0  0  0  0
    6.9141    1.8895   -1.0597 C   0  0  0  0  0  0  0  0  0  0  0  0
    6.1969    3.0962   -0.4612 C   0  0  0  0  0  0  0  0  0  0  0  0
    8.4187    2.0001   -0.8066 C   0  0  0  0  0  0  0  0  0  0  0  0
    4.9039   -0.9764   -0.0245 C   0  0  0  0  0  0  0  0  0  0  0  0
    3.7241   -1.6686   -0.3052 C   0  0  0  0  0  0  0  0  0  0  0  0
    0.1158   -0.5588   -0.5104 C   0  0  0  0  0  0  0  0  0  0  0  0
   -1.1728   -0.7858    0.2851 C   0  0  1  0  0  0  0  0  0  0  0  0
   -2.0583    0.3758    0.2675 N   0  0  0  0  0  0  0  0  0  0  0  0
   -2.9353    0.6232    1.3022 C   0  0  0  0  0  0  0  0  0  0  0  0
   -2.9398   -0.0547    2.3269 O   0  0  0  0  0  0  0  0  0  0  0  0
   -3.8896    1.7825    1.0478 C   0  0  0  0  0  0  0  0  0  0  0  0
   -4.9841    1.8442    2.1182 C   0  0  0  0  0  0  0  0  0  0  0  0
   -5.8507    3.0796    1.9241 C   0  0  0  0  0  0  0  0  0  0  0  0
   -5.0468    4.2572    1.9476 O   0  0  0  0  0  0  0  0  0  0  0  0
   -4.0958    4.2843    0.8848 C   0  0  0  0  0  0  0  0  0  0  0  0
   -3.1299    3.1113    0.9911 C   0  0  0  0  0  0  0  0  0  0  0  0
   -3.3847   -3.8958   -0.1491 N   0  0  0  0  0  0  0  0  0  0  0  0
   -4.5146   -6.4029    0.9162 H   0  0  0  0  0  0  0  0  0  0  0  0
   -5.8342   -5.4266    1.5937 H   0  0  0  0  0  0  0  0  0  0  0  0
   -5.5738   -5.4668   -0.1583 H   0  0  0  0  0  0  0  0  0  0  0  0
   -2.8498   -1.9157    2.2807 H   0  0  0  0  0  0  0  0  0  0  0  0
   -2.2950   -1.6619   -1.3251 H   0  0  0  0  0  0  0  0  0  0  0  0
   -0.3804   -3.7228   -0.3110 H   0  0  0  0  0  0  0  0  0  0  0  0
   -0.6448   -3.0781   -1.9370 H   0  0  0  0  0  0  0  0  0  0  0  0
    1.9263   -3.1126   -1.8186 H   0  0  0  0  0  0  0  0  0  0  0  0
    1.2563   -1.7372   -2.6803 H   0  0  0  0  0  0  0  0  0  0  0  0
    2.7286    0.1032   -3.0334 H   0  0  0  0  0  0  0  0  0  0  0  0
    4.7783    1.3139   -2.5404 H   0  0  0  0  0  0  0  0  0  0  0  0
    6.7727    1.8436   -2.1447 H   0  0  0  0  0  0  0  0  0  0  0  0
    5.1162    3.0302   -0.6156 H   0  0  0  0  0  0  0  0  0  0  0  0
    6.3556    3.1541    0.6231 H   0  0  0  0  0  0  0  0  0  0  0  0
    6.5557    4.0260   -0.9146 H   0  0  0  0  0  0  0  0  0  0  0  0
    8.6378    2.0084    0.2674 H   0  0  0  0  0  0  0  0  0  0  0  0
    8.9394    1.1318   -1.2267 H   0  0  0  0  0  0  0  0  0  0  0  0
    8.8319    2.9080   -1.2519 H   0  0  0  0  0  0  0  0  0  0  0  0
    5.5120   -1.2774    0.8269 H   0  0  0  0  0  0  0  0  0  0  0  0
    3.4220   -2.4962    0.3346 H   0  0  0  0  0  0  0  0  0  0  0  0
    0.8045    0.0942    0.0373 H   0  0  0  0  0  0  0  0  0  0  0  0
   -0.1062   -0.0941   -1.4808 H   0  0  0  0  0  0  0  0  0  0  0  0
   -0.9130   -1.0235    1.3260 H   0  0  0  0  0  0  0  0  0  0  0  0
   -2.2253    0.8357   -0.6220 H   0  0  0  0  0  0  0  0  0  0  0  0
   -4.3715    1.6041    0.0776 H   0  0  0  0  0  0  0  0  0  0  0  0
   -4.5229    1.8885    3.1141 H   0  0  0  0  0  0  0  0  0  0  0  0
   -5.6016    0.9388    2.0875 H   0  0  0  0  0  0  0  0  0  0  0  0
   -6.5766    3.1575    2.7387 H   0  0  0  0  0  0  0  0  0  0  0  0
   -6.4116    3.0357    0.9829 H   0  0  0  0  0  0  0  0  0  0  0  0
   -4.6218    4.2837   -0.0775 H   0  0  0  0  0  0  0  0  0  0  0  0
   -3.5447    5.2264    0.9584 H   0  0  0  0  0  0  0  0  0  0  0  0
   -2.5290    3.2190    1.9042 H   0  0  0  0  0  0  0  0  0  0  0  0
   -2.4313    3.1306    0.1467 H   0  0  0  0  0  0  0  0  0  0  0  0
  1  2  1  0
  2  3  2  0
  3  4  1  0
  4  5  1  0
  5  6  1  0
  6  7  1  0
  7  8  1  0
  8  9  1  0
  9 10  1  0
 10 11  2  0
 11 12  1  0
 12 13  2  0
 13 14  1  0
 14 15  1  0
 15 16  1  0
 15 17  1  0
 13 18  1  0
 18 19  2  0
  8 20  1  0
 20 21  1  0
 21 22  1  0
 22 23  1  0
 23 24  2  0
 23 25  1  0
 25 26  1  0
 26 27  1  0
 27 28  1  0
 28 29  1  0
 29 30  1  0
  5 31  2  0
 31  2  1  0
 21  6  1  0
 30 25  1  0
 19 10  1  0
  1 32  1  0
  1 33  1  0
  1 34  1  0
  4 35  1  0
  6 36  1  6
  7 37  1  0
  7 38  1  0
  9 39  1  0
  9 40  1  0
 11 41  1  0
 12 42  1  0
 15 43  1  0
 16 44  1  0
 16 45  1  0
 16 46  1  0
 17 47  1  0
 17 48  1  0
 17 49  1  0
 18 50  1  0
 19 51  1  0
 20 52  1  0
 20 53  1  0
 21 54  1  1
 22 55  1  0
 25 56  1  0
 26 57  1  0
 26 58  1  0
 27 59  1  0
 27 60  1  0
 29 61  1  0
 29 62  1  0
 30 63  1  0
 30 64  1  0
M  END
$$$$
