
     RDKit          3D

 23 24  0  0  0  0  0  0  0  0999 V2000
   -2.8888    1.3163    0.7485 C   0  0  0  0  0  0  0  0  0  0  0  0
   -2.2558    0.0310    0.4425 N   0  0  0  0  0  0  0  0  0  0  0  0
   -3.0538   -0.8532   -0.4012 C   0  0  0  0  0  0  0  0  0  0  0  0
   -0.9081    0.0824    0.2661 C   0  0  0  0  0  0  0  0  0  0  0  0
   -0.1159    1.1245    0.3690 N   0  0  0  0  0  0  0  0  0  0  0  0
    1.1637    0.6728    0.1320 C   0  0  0  0  0  0  0  0  0  0  0  0
    2.3879    1.3687    0.1083 C   0  0  0  0  0  0  0  0  0  0  0  0
    2.3389    3.2426    0.4428 Br  0  0  0  0  0  0  0  0  0  0  0  0
    3.5755    0.6510   -0.1594 C   0  0  0  0  0  0  0  0  0  0  0  0
    5.2481    1.5929   -0.1955 Br  0  0  0  0  0  0  0  0  0  0  0  0
    3.5322   -0.7433   -0.3975 C   0  0  0  0  0  0  0  0  0  0  0  0
    5.1414   -1.7245   -0.7611 Br  0  0  0  0  0  0  0  0  0  0  0  0
    2.3043   -1.4378   -0.3722 C   0  0  0  0  0  0  0  0  0  0  0  0
    2.1158   -3.3032   -0.6750 Br  0  0  0  0  0  0  0  0  0  0  0  0
    1.1523   -0.6932   -0.1073 C   0  0  0  0  0  0  0  0  0  0  0  0
   -0.1730   -1.0416   -0.0046 N   0  0  0  0  0  0  0  0  0  0  0  0
   -3.9286    1.1676    1.0600 H   0  0  0  0  0  0  0  0  0  0  0  0
   -2.8842    1.9739   -0.1282 H   0  0  0  0  0  0  0  0  0  0  0  0
   -2.3802    1.8232    1.5770 H   0  0  0  0  0  0  0  0  0  0  0  0
   -2.9892   -0.5522   -1.4528 H   0  0  0  0  0  0  0  0  0  0  0  0
   -2.7309   -1.8957   -0.3102 H   0  0  0  0  0  0  0  0  0  0  0  0
   -4.1081   -0.8267   -0.1038 H   0  0  0  0  0  0  0  0  0  0  0  0
   -0.5436   -1.9755   -0.0773 H   0  0  0  0  0  0  0  0  0  0  0  0
  1  2  1  0
  2  3  1  0
  2  4  1  0
  4  5  2  0
  5  6  1  0
  6  7  2  0
  7  8  1  0
  7  9  1  0
  9 10  1  0
  9 11  2  0
 11 12  1  0
 11 13  1  0
 13 14  1  0
 13 15  2  0
 15 16  1  0
 16  4  1  0
 15  6  1  0
  1 17  1  0
  1 18  1  0
  1 19  1  0
  3 20  1  0
  3 21  1  0
  3 22  1  0
 16 23  1  0
M  END
$$$$
