
     RDKit          3D

 42 45  0  0  0  0  0  0  0  0999 V2000
    5.1516   -1.8609    0.7966 O   0  0  0  0  0  0  0  0  0  0  0  0
    5.0327   -0.7618    0.2663 C   0  0  0  0  0  0  0  0  0  0  0  0
    3.8381   -0.1302   -0.0272 N   0  0  0  0  0  0  0  0  0  0  0  0
    2.5971   -0.6991    0.1939 C   0  0  0  0  0  0  0  0  0  0  0  0
    2.2177   -1.9660    0.6785 C   0  0  0  0  0  0  0  0  0  0  0  0
    0.8923   -2.1212    0.7366 N   0  0  0  0  0  0  0  0  0  0  0  0
    0.3923   -0.9355    0.2840 N   0  0  0  0  0  0  0  0  0  0  0  0
   -1.0167   -0.6674    0.1814 C   0  0  0  0  0  0  0  0  0  0  0  0
   -1.8877   -1.6269    0.5482 N   0  0  0  0  0  0  0  0  0  0  0  0
   -3.2028   -1.3263    0.4332 C   0  0  0  0  0  0  0  0  0  0  0  0
   -3.7269   -0.1272   -0.0261 C   0  0  0  0  0  0  0  0  0  0  0  0
   -5.0660    0.1394   -0.1291 N   0  0  0  0  0  0  0  0  0  0  0  0
   -6.1191   -0.8374    0.1432 C   0  0  0  0  0  0  0  0  0  0  0  0
   -7.3836   -0.1691   -0.3909 C   0  0  0  0  0  0  0  0  0  0  0  0
   -7.1064    1.3094   -0.1800 C   0  0  0  0  0  0  0  0  0  0  0  0
   -5.6222    1.4344   -0.5148 C   0  0  0  0  0  0  0  0  0  0  0  0
   -2.7243    0.7685   -0.3692 C   0  0  0  0  0  0  0  0  0  0  0  0
   -1.3895    0.5455   -0.2830 N   0  0  0  0  0  0  0  0  0  0  0  0
    1.4095   -0.0574   -0.0526 C   0  0  0  0  0  0  0  0  0  0  0  0
    6.2607   -0.0022   -0.0661 C   0  0  0  0  0  0  0  0  0  0  0  0
    7.4002   -0.1465    0.7282 C   0  0  0  0  0  0  0  0  0  0  0  0
    8.5525    0.5689    0.4106 C   0  0  0  0  0  0  0  0  0  0  0  0
    8.5252    1.4004   -0.6981 C   0  0  0  0  0  0  0  0  0  0  0  0
    7.4450    1.5512   -1.4972 N   0  0  0  0  0  0  0  0  0  0  0  0
    6.3414    0.8350   -1.1710 C   0  0  0  0  0  0  0  0  0  0  0  0
    3.8345    0.8256   -0.3586 H   0  0  0  0  0  0  0  0  0  0  0  0
    2.8494   -2.7876    0.9927 H   0  0  0  0  0  0  0  0  0  0  0  0
   -3.8522   -2.1370    0.7505 H   0  0  0  0  0  0  0  0  0  0  0  0
   -5.9510   -1.7924   -0.3659 H   0  0  0  0  0  0  0  0  0  0  0  0
   -6.2006   -1.0105    1.2223 H   0  0  0  0  0  0  0  0  0  0  0  0
   -7.4960   -0.3785   -1.4616 H   0  0  0  0  0  0  0  0  0  0  0  0
   -8.2866   -0.5115    0.1219 H   0  0  0  0  0  0  0  0  0  0  0  0
   -7.7320    1.9541   -0.8035 H   0  0  0  0  0  0  0  0  0  0  0  0
   -7.2786    1.5750    0.8701 H   0  0  0  0  0  0  0  0  0  0  0  0
   -5.4812    1.5979   -1.5893 H   0  0  0  0  0  0  0  0  0  0  0  0
   -5.1772    2.2672    0.0400 H   0  0  0  0  0  0  0  0  0  0  0  0
   -2.9681    1.7544   -0.7546 H   0  0  0  0  0  0  0  0  0  0  0  0
    1.1732    0.9268   -0.4301 H   0  0  0  0  0  0  0  0  0  0  0  0
    7.3903   -0.8116    1.5890 H   0  0  0  0  0  0  0  0  0  0  0  0
    9.4501    0.4771    1.0125 H   0  0  0  0  0  0  0  0  0  0  0  0
    9.3989    1.9797   -0.9848 H   0  0  0  0  0  0  0  0  0  0  0  0
    5.5163    0.9540   -1.8667 H   0  0  0  0  0  0  0  0  0  0  0  0
  1  2  2  0
  2  3  1  0
  3  4  1  0
  4  5  1  0
  5  6  2  0
  6  7  1  0
  7  8  1  0
  8  9  2  0
  9 10  1  0
 10 11  2  0
 11 12  1  0
 12 13  1  0
 13 14  1  0
 14 15  1  0
 15 16  1  0
 11 17  1  0
 17 18  2  0
  7 19  1  0
  2 20  1  0
 20 21  2  0
 21 22  1  0
 22 23  2  0
 23 24  1  0
 24 25  2  0
 19  4  2  0
 25 20  1  0
 18  8  1  0
 16 12  1  0
  3 26  1  0
  5 27  1  0
 10 28  1  0
 13 29  1  0
 13 30  1  0
 14 31  1  0
 14 32  1  0
 15 33  1  0
 15 34  1  0
 16 35  1  0
 16 36  1  0
 17 37  1  0
 19 38  1  0
 21 39  1  0
 22 40  1  0
 23 41  1  0
 25 42  1  0
M  END
$$$$
