
     RDKit          3D

 34 36  0  0  0  0  0  0  0  0999 V2000
   -4.5705   -1.1047   -0.7647 C   0  0  0  0  0  0  0  0  0  0  0  0
   -3.1651   -1.0479   -0.3910 N   0  0  0  0  0  0  0  0  0  0  0  0
   -2.4091   -2.2046   -0.5266 C   0  0  0  0  0  0  0  0  0  0  0  0
   -2.8391   -3.2738   -0.9535 O   0  0  0  0  0  0  0  0  0  0  0  0
   -0.9827   -2.1290   -0.1567 C   0  0  0  0  0  0  0  0  0  0  0  0
   -0.4372   -1.0007    0.3110 C   0  0  0  0  0  0  0  0  0  0  0  0
    1.0308   -1.0752    0.5522 C   0  0  0  0  0  0  0  0  0  0  0  0
    1.4828   -1.8667    1.3688 O   0  0  0  0  0  0  0  0  0  0  0  0
    1.7357   -0.2086   -0.2603 N   0  0  0  0  0  0  0  0  0  0  0  0
    3.1327   -0.0127   -0.2899 C   0  0  0  0  0  0  0  0  0  0  0  0
    3.6318    0.9071   -1.2133 C   0  0  0  0  0  0  0  0  0  0  0  0
    4.9997    1.1241   -1.2612 C   0  0  0  0  0  0  0  0  0  0  0  0
    5.8854    0.4972   -0.4626 N   0  0  0  0  0  0  0  0  0  0  0  0
    5.3790   -0.3884    0.4211 C   0  0  0  0  0  0  0  0  0  0  0  0
    4.0280   -0.6736    0.5448 C   0  0  0  0  0  0  0  0  0  0  0  0
   -1.2594    0.1979    0.5130 C   0  0  0  0  0  0  0  0  0  0  0  0
   -0.7309    1.3661    1.0893 C   0  0  0  0  0  0  0  0  0  0  0  0
   -1.5244    2.4998    1.2585 C   0  0  0  0  0  0  0  0  0  0  0  0
   -2.8558    2.4759    0.8632 C   0  0  0  0  0  0  0  0  0  0  0  0
   -3.4001    1.3141    0.3114 C   0  0  0  0  0  0  0  0  0  0  0  0
   -2.6163    0.1616    0.1385 C   0  0  0  0  0  0  0  0  0  0  0  0
   -4.8496   -2.0844   -1.1630 H   0  0  0  0  0  0  0  0  0  0  0  0
   -5.1893   -0.9136    0.1177 H   0  0  0  0  0  0  0  0  0  0  0  0
   -4.7715   -0.3603   -1.5416 H   0  0  0  0  0  0  0  0  0  0  0  0
   -0.4103   -3.0377   -0.3113 H   0  0  0  0  0  0  0  0  0  0  0  0
    1.1937    0.3366   -0.9205 H   0  0  0  0  0  0  0  0  0  0  0  0
    2.9841    1.4517   -1.8903 H   0  0  0  0  0  0  0  0  0  0  0  0
    5.4310    1.8300   -1.9653 H   0  0  0  0  0  0  0  0  0  0  0  0
    6.1113   -0.8833    1.0532 H   0  0  0  0  0  0  0  0  0  0  0  0
    3.7176   -1.3994    1.2859 H   0  0  0  0  0  0  0  0  0  0  0  0
    0.3012    1.4107    1.4320 H   0  0  0  0  0  0  0  0  0  0  0  0
   -1.1046    3.3973    1.7071 H   0  0  0  0  0  0  0  0  0  0  0  0
   -3.4791    3.3571    0.9969 H   0  0  0  0  0  0  0  0  0  0  0  0
   -4.4497    1.3372    0.0340 H   0  0  0  0  0  0  0  0  0  0  0  0
  1  2  1  0
  2  3  1  0
  3  4  2  0
  3  5  1  0
  5  6  2  0
  6  7  1  0
  7  8  2  0
  7  9  1  0
  9 10  1  0
 10 11  2  0
 11 12  1  0
 12 13  2  0
 13 14  1  0
 14 15  2  0
  6 16  1  0
 16 17  2  0
 17 18  1  0
 18 19  2  0
 19 20  1  0
 20 21  2  0
 21  2  1  0
 15 10  1  0
 21 16  1  0
  1 22  1  0
  1 23  1  0
  1 24  1  0
  5 25  1  0
  9 26  1  0
 11 27  1  0
 12 28  1  0
 14 29  1  0
 15 30  1  0
 17 31  1  0
 18 32  1  0
 19 33  1  0
 20 34  1  0
M  END
$$$$
