
     RDKit          3D

 48 50  0  0  0  0  0  0  0  0999 V2000
   -5.6369   -1.2743    1.3808 C   0  0  0  0  0  0  0  0  0  0  0  0
   -4.3385   -2.0645    1.5167 C   0  0  0  0  0  0  0  0  0  0  0  0
   -3.1110   -1.4211    1.0367 N   0  0  0  0  0  0  0  0  0  0  0  0
   -3.1262   -1.1404   -0.4069 C   0  0  0  0  0  0  0  0  0  0  0  0
   -1.7721   -0.5934   -0.9018 C   0  0  0  0  0  0  0  0  0  0  0  0
   -1.2853    0.5394   -0.1083 N   0  0  0  0  0  0  0  0  0  0  0  0
   -0.3361    1.4592   -0.5602 C   0  0  0  0  0  0  0  0  0  0  0  0
    0.1365    2.3102    0.1974 O   0  0  0  0  0  0  0  0  0  0  0  0
    0.0489    1.3943   -2.0425 C   0  0  0  0  0  0  0  0  0  0  0  0
    1.3661    2.0627   -2.3316 C   0  0  0  0  0  0  0  0  0  0  0  0
    1.5734    3.1323   -3.1900 C   0  0  0  0  0  0  0  0  0  0  0  0
    2.9016    3.5670   -3.0363 C   0  0  0  0  0  0  0  0  0  0  0  0
    3.4840    2.7493   -2.0982 C   0  0  0  0  0  0  0  0  0  0  0  0
    2.5785    1.7783   -1.6995 N   0  0  0  0  0  0  0  0  0  0  0  0
    2.9022    0.7101   -0.8094 C   0  0  0  0  0  0  0  0  0  0  0  0
    3.8379    0.9202    0.2129 C   0  0  0  0  0  0  0  0  0  0  0  0
    4.1635   -0.1130    1.0971 C   0  0  0  0  0  0  0  0  0  0  0  0
    3.5652   -1.3706    0.9722 C   0  0  0  0  0  0  0  0  0  0  0  0
    3.9380   -2.4860    1.9026 C   0  0  0  0  0  0  0  0  0  0  0  0
    2.6612   -1.5891   -0.0721 C   0  0  0  0  0  0  0  0  0  0  0  0
    2.3310   -0.5573   -0.9573 C   0  0  0  0  0  0  0  0  0  0  0  0
   -1.4126    0.3800    1.3442 C   0  0  0  0  0  0  0  0  0  0  0  0
   -2.7762   -0.1893    1.7740 C   0  0  0  0  0  0  0  0  0  0  0  0
   -6.4703   -1.8663    1.7741 H   0  0  0  0  0  0  0  0  0  0  0  0
   -5.8655   -1.0434    0.3363 H   0  0  0  0  0  0  0  0  0  0  0  0
   -5.6056   -0.3390    1.9472 H   0  0  0  0  0  0  0  0  0  0  0  0
   -4.2025   -2.3314    2.5724 H   0  0  0  0  0  0  0  0  0  0  0  0
   -4.4576   -3.0215    0.9932 H   0  0  0  0  0  0  0  0  0  0  0  0
   -3.3507   -2.0561   -0.9665 H   0  0  0  0  0  0  0  0  0  0  0  0
   -3.9046   -0.4062   -0.6500 H   0  0  0  0  0  0  0  0  0  0  0  0
   -1.0052   -1.3759   -0.8546 H   0  0  0  0  0  0  0  0  0  0  0  0
   -1.8853   -0.2940   -1.9478 H   0  0  0  0  0  0  0  0  0  0  0  0
    0.0844    0.3707   -2.4161 H   0  0  0  0  0  0  0  0  0  0  0  0
   -0.7495    1.9066   -2.5942 H   0  0  0  0  0  0  0  0  0  0  0  0
    0.8193    3.5853   -3.8215 H   0  0  0  0  0  0  0  0  0  0  0  0
    3.3822    4.3956   -3.5395 H   0  0  0  0  0  0  0  0  0  0  0  0
    4.4977    2.7498   -1.7229 H   0  0  0  0  0  0  0  0  0  0  0  0
    4.2933    1.8945    0.3712 H   0  0  0  0  0  0  0  0  0  0  0  0
    4.8812    0.0775    1.8921 H   0  0  0  0  0  0  0  0  0  0  0  0
    3.1009   -3.1792    2.0362 H   0  0  0  0  0  0  0  0  0  0  0  0
    4.7940   -3.0376    1.5018 H   0  0  0  0  0  0  0  0  0  0  0  0
    4.1988   -2.0979    2.8929 H   0  0  0  0  0  0  0  0  0  0  0  0
    2.2145   -2.5712   -0.2115 H   0  0  0  0  0  0  0  0  0  0  0  0
    1.6753   -0.7947   -1.7859 H   0  0  0  0  0  0  0  0  0  0  0  0
   -1.2506    1.3391    1.8481 H   0  0  0  0  0  0  0  0  0  0  0  0
   -0.6070   -0.2945    1.6617 H   0  0  0  0  0  0  0  0  0  0  0  0
   -2.7392   -0.3943    2.8504 H   0  0  0  0  0  0  0  0  0  0  0  0
   -3.5410    0.5800    1.6096 H   0  0  0  0  0  0  0  0  0  0  0  0
  1  2  1  0
  2  3  1  0
  3  4  1  0
  4  5  1  0
  5  6  1  0
  6  7  1  0
  7  8  2  0
  7  9  1  0
  9 10  1  0
 10 11  2  0
 11 12  1  0
 12 13  2  0
 13 14  1  0
 14 15  1  0
 15 16  2  0
 16 17  1  0
 17 18  2  0
 18 19  1  0
 18 20  1  0
 20 21  2  0
  6 22  1  0
 22 23  1  0
 23  3  1  0
 14 10  1  0
 21 15  1  0
  1 24  1  0
  1 25  1  0
  1 26  1  0
  2 27  1  0
  2 28  1  0
  4 29  1  0
  4 30  1  0
  5 31  1  0
  5 32  1  0
  9 33  1  0
  9 34  1  0
 11 35  1  0
 12 36  1  0
 13 37  1  0
 16 38  1  0
 17 39  1  0
 19 40  1  0
 19 41  1  0
 19 42  1  0
 20 43  1  0
 21 44  1  0
 22 45  1  0
 22 46  1  0
 23 47  1  0
 23 48  1  0
M  END
$$$$
