
     RDKit          3D

 46 49  0  0  0  0  0  0  0  0999 V2000
   -1.3675   -1.8544   -1.9108 O   0  0  0  0  0  0  0  0  0  0  0  0
   -2.0612   -1.2276   -1.1174 C   0  0  0  0  0  0  0  0  0  0  0  0
   -1.6962    0.1342   -0.6293 C   0  0  0  0  0  0  0  0  0  0  0  0
   -0.5677    0.7511   -1.1444 O   0  0  0  0  0  0  0  0  0  0  0  0
    0.6394    0.1152   -0.7013 C   0  0  0  0  0  0  0  0  0  0  0  0
    1.8070    1.0867   -0.9499 C   0  0  0  0  0  0  0  0  0  0  0  0
    3.1433    0.6592   -0.5126 N   0  0  0  0  0  0  0  0  0  0  0  0
    3.3215    0.7281    0.9424 C   0  0  0  0  0  0  0  0  0  0  0  0
    4.4549   -0.1647    1.4670 C   0  0  0  0  0  0  0  0  0  0  0  0
    5.5904   -0.2729    0.4594 C   0  0  0  0  0  0  0  0  0  0  0  0
    5.0859   -0.7882   -0.8912 C   0  0  0  0  0  0  0  0  0  0  0  0
    3.5747   -0.6125   -1.0826 C   0  0  0  0  0  0  0  0  0  0  0  0
   -2.5381    0.7422    0.2301 C   0  0  0  0  0  0  0  0  0  0  0  0
   -2.2771    2.0490    0.7547 C   0  0  0  0  0  0  0  0  0  0  0  0
   -3.1549    2.9342    1.3806 C   0  0  0  0  0  0  0  0  0  0  0  0
   -2.4356    4.0986    1.7384 C   0  0  0  0  0  0  0  0  0  0  0  0
   -1.1478    3.8797    1.3270 C   0  0  0  0  0  0  0  0  0  0  0  0
   -1.0383    2.6619    0.7477 O   0  0  0  0  0  0  0  0  0  0  0  0
   -3.7124    0.1879    0.7155 O   0  0  0  0  0  0  0  0  0  0  0  0
   -4.0699   -1.0647    0.2969 C   0  0  0  0  0  0  0  0  0  0  0  0
   -5.2567   -1.5921    0.8070 C   0  0  0  0  0  0  0  0  0  0  0  0
   -5.6771   -2.8654    0.4174 C   0  0  0  0  0  0  0  0  0  0  0  0
   -4.9121   -3.6105   -0.4813 C   0  0  0  0  0  0  0  0  0  0  0  0
   -3.7251   -3.0827   -0.9910 C   0  0  0  0  0  0  0  0  0  0  0  0
   -3.3079   -1.8067   -0.5968 C   0  0  0  0  0  0  0  0  0  0  0  0
    0.7956   -0.8069   -1.2697 H   0  0  0  0  0  0  0  0  0  0  0  0
    0.5673   -0.1275    0.3654 H   0  0  0  0  0  0  0  0  0  0  0  0
    1.5708    2.0579   -0.4947 H   0  0  0  0  0  0  0  0  0  0  0  0
    1.8473    1.3034   -2.0260 H   0  0  0  0  0  0  0  0  0  0  0  0
    2.4089    0.4540    1.4840 H   0  0  0  0  0  0  0  0  0  0  0  0
    3.5405    1.7703    1.2048 H   0  0  0  0  0  0  0  0  0  0  0  0
    4.8293    0.2327    2.4171 H   0  0  0  0  0  0  0  0  0  0  0  0
    4.0637   -1.1690    1.6745 H   0  0  0  0  0  0  0  0  0  0  0  0
    6.3814   -0.9289    0.8395 H   0  0  0  0  0  0  0  0  0  0  0  0
    6.0440    0.7169    0.3220 H   0  0  0  0  0  0  0  0  0  0  0  0
    5.3301   -1.8525   -0.9930 H   0  0  0  0  0  0  0  0  0  0  0  0
    5.6288   -0.2684   -1.6905 H   0  0  0  0  0  0  0  0  0  0  0  0
    3.3623   -0.6520   -2.1580 H   0  0  0  0  0  0  0  0  0  0  0  0
    3.0402   -1.4523   -0.6204 H   0  0  0  0  0  0  0  0  0  0  0  0
   -4.2072    2.7497    1.5507 H   0  0  0  0  0  0  0  0  0  0  0  0
   -2.8101    4.9837    2.2326 H   0  0  0  0  0  0  0  0  0  0  0  0
   -0.2367    4.4601    1.3701 H   0  0  0  0  0  0  0  0  0  0  0  0
   -5.8554   -1.0144    1.5066 H   0  0  0  0  0  0  0  0  0  0  0  0
   -6.6024   -3.2772    0.8140 H   0  0  0  0  0  0  0  0  0  0  0  0
   -5.2403   -4.6018   -0.7857 H   0  0  0  0  0  0  0  0  0  0  0  0
   -3.1297   -3.6636   -1.6926 H   0  0  0  0  0  0  0  0  0  0  0  0
  1  2  2  0
  2  3  1  0
  3  4  1  0
  4  5  1  0
  5  6  1  0
  6  7  1  0
  7  8  1  0
  8  9  1  0
  9 10  1  0
 10 11  1  0
 11 12  1  0
  3 13  2  0
 13 14  1  0
 14 15  2  0
 15 16  1  0
 16 17  2  0
 17 18  1  0
 13 19  1  0
 19 20  1  0
 20 21  2  0
 21 22  1  0
 22 23  2  0
 23 24  1  0
 24 25  2  0
 25  2  1  0
 12  7  1  0
 18 14  1  0
 25 20  1  0
  5 26  1  0
  5 27  1  0
  6 28  1  0
  6 29  1  0
  8 30  1  0
  8 31  1  0
  9 32  1  0
  9 33  1  0
 10 34  1  0
 10 35  1  0
 11 36  1  0
 11 37  1  0
 12 38  1  0
 12 39  1  0
 15 40  1  0
 16 41  1  0
 17 42  1  0
 21 43  1  0
 22 44  1  0
 23 45  1  0
 24 46  1  0
M  END
$$$$
