
     RDKit          3D

 67 70  0  0  0  0  0  0  0  0999 V2000
   -5.4757    2.8124   -2.1662 C   0  0  0  0  0  0  0  0  0  0  0  0
   -4.5216    2.0369   -2.9413 N   0  0  0  0  0  0  0  0  0  0  0  0
   -4.6541    2.1498   -4.3819 C   0  0  0  0  0  0  0  0  0  0  0  0
   -3.9684    0.8657   -2.4497 C   0  0  0  0  0  0  0  0  0  0  0  0
   -3.8565   -0.1428   -3.1482 O   0  0  0  0  0  0  0  0  0  0  0  0
   -3.5113    0.8875   -1.1498 N   0  0  0  0  0  0  0  0  0  0  0  0
   -3.0302    2.0661   -0.4374 C   0  0  0  0  0  0  0  0  0  0  0  0
   -1.9085    1.5501    0.4603 C   0  0  0  0  0  0  0  0  0  0  0  0
   -2.3697    0.1172    0.7871 C   0  0  0  0  0  0  0  0  0  0  0  0
   -1.4272   -0.7769    1.5005 N   0  0  0  0  0  0  0  0  0  0  0  0
   -0.0048   -0.5825    1.1751 C   0  0  0  0  0  0  0  0  0  0  0  0
    0.4853   -1.0845   -0.1986 C   0  0  0  0  0  0  0  0  0  0  0  0
    1.9431   -1.0144   -0.3231 N   0  0  0  0  0  0  0  0  0  0  0  0
    2.7008   -2.1584    0.1598 C   0  0  0  0  0  0  0  0  0  0  0  0
    2.5053    0.2418   -0.6179 C   0  0  0  0  0  0  0  0  0  0  0  0
    1.7825    1.1724   -0.9873 O   0  0  0  0  0  0  0  0  0  0  0  0
    3.9641    0.4735   -0.4805 C   0  0  0  0  0  0  0  0  0  0  0  0
    4.6562    1.5981   -1.0232 C   0  0  0  0  0  0  0  0  0  0  0  0
    5.9630    1.4493   -0.6380 C   0  0  0  0  0  0  0  0  0  0  0  0
    7.1281    2.4087   -0.9735 C   0  0  0  0  0  0  0  0  0  0  0  0
    8.0585    2.8399    0.1284 C   0  0  0  0  0  0  0  0  0  0  0  0
    8.5487    1.9130   -0.9473 C   0  0  0  0  0  0  0  0  0  0  0  0
    6.0076    0.3071    0.0979 N   0  0  0  0  0  0  0  0  0  0  0  0
    4.8167   -0.3016    0.2212 N   0  0  0  0  0  0  0  0  0  0  0  0
   -1.8955   -2.1881    1.5894 C   0  0  0  0  0  0  0  0  0  0  0  0
   -3.2556   -2.2369    2.3360 C   0  0  0  0  0  0  0  0  0  0  0  0
   -3.4868   -3.5866    2.9983 C   0  0  0  0  0  0  0  0  0  0  0  0
   -2.5089   -3.8755    3.9978 O   0  0  0  0  0  0  0  0  0  0  0  0
   -1.2138   -3.3276    3.7423 C   0  0  0  0  0  0  0  0  0  0  0  0
   -0.9334   -3.2049    2.2546 C   0  0  0  0  0  0  0  0  0  0  0  0
   -2.9322   -0.3210   -0.5804 C   0  0  0  0  0  0  0  0  0  0  0  0
   -5.5862    2.4391   -1.1472 H   0  0  0  0  0  0  0  0  0  0  0  0
   -5.1529    3.8566   -2.1569 H   0  0  0  0  0  0  0  0  0  0  0  0
   -6.4597    2.7434   -2.6414 H   0  0  0  0  0  0  0  0  0  0  0  0
   -3.7967    1.6884   -4.8813 H   0  0  0  0  0  0  0  0  0  0  0  0
   -5.5686    1.6402   -4.7004 H   0  0  0  0  0  0  0  0  0  0  0  0
   -4.6992    3.2070   -4.6589 H   0  0  0  0  0  0  0  0  0  0  0  0
   -2.6869    2.8438   -1.1256 H   0  0  0  0  0  0  0  0  0  0  0  0
   -3.8483    2.4530    0.1774 H   0  0  0  0  0  0  0  0  0  0  0  0
   -1.7712    2.1712    1.3506 H   0  0  0  0  0  0  0  0  0  0  0  0
   -0.9782    1.5586   -0.1178 H   0  0  0  0  0  0  0  0  0  0  0  0
   -3.2306    0.2465    1.4592 H   0  0  0  0  0  0  0  0  0  0  0  0
    0.6018   -1.0385    1.9660 H   0  0  0  0  0  0  0  0  0  0  0  0
    0.2604    0.4756    1.2891 H   0  0  0  0  0  0  0  0  0  0  0  0
    0.0443   -0.4764   -0.9943 H   0  0  0  0  0  0  0  0  0  0  0  0
    0.1732   -2.1176   -0.3839 H   0  0  0  0  0  0  0  0  0  0  0  0
    3.5971   -2.3054   -0.4468 H   0  0  0  0  0  0  0  0  0  0  0  0
    2.9627   -2.0004    1.2097 H   0  0  0  0  0  0  0  0  0  0  0  0
    2.1002   -3.0692    0.0744 H   0  0  0  0  0  0  0  0  0  0  0  0
    4.2266    2.3975   -1.6113 H   0  0  0  0  0  0  0  0  0  0  0  0
    6.8927    3.1540   -1.7297 H   0  0  0  0  0  0  0  0  0  0  0  0
    7.9162    2.4404    1.1255 H   0  0  0  0  0  0  0  0  0  0  0  0
    8.4104    3.8659    0.1160 H   0  0  0  0  0  0  0  0  0  0  0  0
    8.7530    0.8829   -0.6827 H   0  0  0  0  0  0  0  0  0  0  0  0
    9.2326    2.3134   -1.6885 H   0  0  0  0  0  0  0  0  0  0  0  0
    6.8131   -0.1076    0.5531 H   0  0  0  0  0  0  0  0  0  0  0  0
   -2.0479   -2.5592    0.5675 H   0  0  0  0  0  0  0  0  0  0  0  0
   -4.0794   -2.0196    1.6480 H   0  0  0  0  0  0  0  0  0  0  0  0
   -3.2748   -1.4713    3.1236 H   0  0  0  0  0  0  0  0  0  0  0  0
   -4.4675   -3.6058    3.4847 H   0  0  0  0  0  0  0  0  0  0  0  0
   -3.4797   -4.3946    2.2576 H   0  0  0  0  0  0  0  0  0  0  0  0
   -0.4824   -3.9929    4.2119 H   0  0  0  0  0  0  0  0  0  0  0  0
   -1.1385   -2.3559    4.2435 H   0  0  0  0  0  0  0  0  0  0  0  0
    0.1220   -2.9942    2.0770 H   0  0  0  0  0  0  0  0  0  0  0  0
   -1.1064   -4.1845    1.7869 H   0  0  0  0  0  0  0  0  0  0  0  0
   -2.1501   -0.6821   -1.2550 H   0  0  0  0  0  0  0  0  0  0  0  0
   -3.7067   -1.0899   -0.5039 H   0  0  0  0  0  0  0  0  0  0  0  0
  1  2  1  0
  2  3  1  0
  2  4  1  0
  4  5  2  0
  4  6  1  0
  6  7  1  0
  7  8  1  0
  8  9  1  0
  9 10  1  0
 10 11  1  0
 11 12  1  0
 12 13  1  0
 13 14  1  0
 13 15  1  0
 15 16  2  0
 15 17  1  0
 17 18  1  0
 18 19  2  0
 19 20  1  0
 20 21  1  0
 21 22  1  0
 19 23  1  0
 23 24  1  0
 10 25  1  0
 25 26  1  0
 26 27  1  0
 27 28  1  0
 28 29  1  0
 29 30  1  0
  9 31  1  0
 31  6  1  0
 24 17  2  0
 30 25  1  0
 22 20  1  0
  1 32  1  0
  1 33  1  0
  1 34  1  0
  3 35  1  0
  3 36  1  0
  3 37  1  0
  7 38  1  0
  7 39  1  0
  8 40  1  0
  8 41  1  0
  9 42  1  0
 11 43  1  0
 11 44  1  0
 12 45  1  0
 12 46  1  0
 14 47  1  0
 14 48  1  0
 14 49  1  0
 18 50  1  0
 20 51  1  0
 21 52  1  0
 21 53  1  0
 22 54  1  0
 22 55  1  0
 23 56  1  0
 25 57  1  0
 26 58  1  0
 26 59  1  0
 27 60  1  0
 27 61  1  0
 29 62  1  0
 29 63  1  0
 30 64  1  0
 30 65  1  0
 31 66  1  0
 31 67  1  0
M  END
$$$$
