
     RDKit          3D

 71 75  0  0  0  0  0  0  0  0999 V2000
   -1.9136    4.0964    1.8411 C   0  0  0  0  0  0  0  0  0  0  0  0
   -1.5532    3.5282    0.4811 C   0  0  0  0  0  0  0  0  0  0  0  0
   -0.9384    2.2500    0.6224 O   0  0  0  0  0  0  0  0  0  0  0  0
   -1.7166    1.1191    0.5258 C   0  0  0  0  0  0  0  0  0  0  0  0
   -3.1195    1.1044    0.5342 C   0  0  0  0  0  0  0  0  0  0  0  0
   -3.8526   -0.0909    0.4122 C   0  0  0  0  0  0  0  0  0  0  0  0
   -5.2501   -0.0653    0.3885 N   0  0  0  0  0  0  0  0  0  0  0  0
   -5.8712    0.9727   -0.4513 C   0  0  0  0  0  0  0  0  0  0  0  0
   -7.1539    0.4745   -1.1042 C   0  0  0  0  0  0  0  0  0  0  0  0
   -8.1253   -0.0687   -0.0656 C   0  0  0  0  0  0  0  0  0  0  0  0
   -9.1440   -0.8010   -0.7496 O   0  0  0  0  0  0  0  0  0  0  0  0
   -7.4508   -0.9557    0.9811 C   0  0  0  0  0  0  0  0  0  0  0  0
   -6.0105   -1.2997    0.6069 C   0  0  0  0  0  0  0  0  0  0  0  0
   -3.1152   -1.2783    0.3356 C   0  0  0  0  0  0  0  0  0  0  0  0
   -1.7126   -1.2791    0.3389 C   0  0  0  0  0  0  0  0  0  0  0  0
   -0.9925   -0.0883    0.4205 C   0  0  0  0  0  0  0  0  0  0  0  0
    0.4095   -0.0278    0.4069 N   0  0  0  0  0  0  0  0  0  0  0  0
    1.4170   -0.9377    0.1252 C   0  0  0  0  0  0  0  0  0  0  0  0
    1.1797   -2.2304   -0.0420 N   0  0  0  0  0  0  0  0  0  0  0  0
    2.2445   -2.9911   -0.3520 C   0  0  0  0  0  0  0  0  0  0  0  0
    3.5638   -2.5576   -0.5111 C   0  0  0  0  0  0  0  0  0  0  0  0
    3.7242   -1.1755   -0.3010 C   0  0  0  0  0  0  0  0  0  0  0  0
    2.6440   -0.4170    0.0128 N   0  0  0  0  0  0  0  0  0  0  0  0
    4.9203   -0.4709   -0.3602 N   0  0  0  0  0  0  0  0  0  0  0  0
    5.0101    0.9794   -0.1080 C   0  0  0  0  0  0  0  0  0  0  0  0
    4.1849    1.8695   -1.0348 C   0  0  0  0  0  0  0  0  0  0  0  0
    4.2017    3.2095   -0.3129 C   0  0  0  0  0  0  0  0  0  0  0  0
    4.1980    2.8727    1.1801 C   0  0  0  0  0  0  0  0  0  0  0  0
    4.6479    1.4148    1.3105 C   0  0  0  0  0  0  0  0  0  0  0  0
    6.1799   -1.1785   -0.4973 C   0  0  0  0  0  0  0  0  0  0  0  0
    6.1858   -1.9068   -1.8136 C   0  0  0  0  0  0  0  0  0  0  0  0
    5.7566   -3.3099   -1.5487 C   0  0  0  0  0  0  0  0  0  0  0  0
    6.4720   -4.2287   -1.9613 O   0  0  0  0  0  0  0  0  0  0  0  0
    4.5647   -3.5455   -0.8741 N   0  0  0  0  0  0  0  0  0  0  0  0
    4.2557   -4.9589   -0.6418 C   0  0  0  0  0  0  0  0  0  0  0  0
   -2.6594    3.4787    2.3478 H   0  0  0  0  0  0  0  0  0  0  0  0
   -2.3104    5.1099    1.7439 H   0  0  0  0  0  0  0  0  0  0  0  0
   -1.0324    4.1239    2.4901 H   0  0  0  0  0  0  0  0  0  0  0  0
   -0.8020    4.1799    0.0216 H   0  0  0  0  0  0  0  0  0  0  0  0
   -2.4023    3.5220   -0.2107 H   0  0  0  0  0  0  0  0  0  0  0  0
   -3.6752    2.0274    0.6680 H   0  0  0  0  0  0  0  0  0  0  0  0
   -5.1972    1.2954   -1.2541 H   0  0  0  0  0  0  0  0  0  0  0  0
   -6.0906    1.8500    0.1676 H   0  0  0  0  0  0  0  0  0  0  0  0
   -7.6298    1.2857   -1.6709 H   0  0  0  0  0  0  0  0  0  0  0  0
   -6.9227   -0.3028   -1.8472 H   0  0  0  0  0  0  0  0  0  0  0  0
   -8.6228    0.7686    0.4354 H   0  0  0  0  0  0  0  0  0  0  0  0
   -9.8171   -1.0498   -0.0917 H   0  0  0  0  0  0  0  0  0  0  0  0
   -8.0176   -1.8784    1.1499 H   0  0  0  0  0  0  0  0  0  0  0  0
   -7.4324   -0.4116    1.9344 H   0  0  0  0  0  0  0  0  0  0  0  0
   -5.5828   -1.8743    1.4374 H   0  0  0  0  0  0  0  0  0  0  0  0
   -5.9872   -1.9337   -0.2894 H   0  0  0  0  0  0  0  0  0  0  0  0
   -3.6108   -2.2412    0.2397 H   0  0  0  0  0  0  0  0  0  0  0  0
   -1.2029   -2.2360    0.2680 H   0  0  0  0  0  0  0  0  0  0  0  0
    0.7783    0.9145    0.4328 H   0  0  0  0  0  0  0  0  0  0  0  0
    1.9559   -4.0258   -0.5103 H   0  0  0  0  0  0  0  0  0  0  0  0
    6.0515    1.2973   -0.2629 H   0  0  0  0  0  0  0  0  0  0  0  0
    3.1515    1.5442   -1.1690 H   0  0  0  0  0  0  0  0  0  0  0  0
    4.6312    1.9395   -2.0331 H   0  0  0  0  0  0  0  0  0  0  0  0
    3.3553    3.8416   -0.5956 H   0  0  0  0  0  0  0  0  0  0  0  0
    5.1213    3.7513   -0.5698 H   0  0  0  0  0  0  0  0  0  0  0  0
    4.8701    3.5480    1.7257 H   0  0  0  0  0  0  0  0  0  0  0  0
    3.1927    2.9957    1.6056 H   0  0  0  0  0  0  0  0  0  0  0  0
    3.8494    0.8215    1.7657 H   0  0  0  0  0  0  0  0  0  0  0  0
    5.5131    1.3252    1.9776 H   0  0  0  0  0  0  0  0  0  0  0  0
    6.3466   -1.8316    0.3687 H   0  0  0  0  0  0  0  0  0  0  0  0
    7.0242   -0.4778   -0.5002 H   0  0  0  0  0  0  0  0  0  0  0  0
    5.5534   -1.4553   -2.5843 H   0  0  0  0  0  0  0  0  0  0  0  0
    7.2100   -1.9424   -2.2025 H   0  0  0  0  0  0  0  0  0  0  0  0
    3.7422   -5.0889    0.3184 H   0  0  0  0  0  0  0  0  0  0  0  0
    3.6403   -5.3334   -1.4682 H   0  0  0  0  0  0  0  0  0  0  0  0
    5.1682   -5.5648   -0.5909 H   0  0  0  0  0  0  0  0  0  0  0  0
  1  2  1  0
  2  3  1  0
  3  4  1  0
  4  5  2  0
  5  6  1  0
  6  7  1  0
  7  8  1  0
  8  9  1  0
  9 10  1  0
 10 11  1  0
 10 12  1  0
 12 13  1  0
  6 14  2  0
 14 15  1  0
 15 16  2  0
 16 17  1  0
 17 18  1  0
 18 19  2  0
 19 20  1  0
 20 21  2  0
 21 22  1  0
 22 23  2  0
 22 24  1  0
 24 25  1  0
 25 26  1  0
 26 27  1  0
 27 28  1  0
 28 29  1  0
 24 30  1  0
 30 31  1  0
 31 32  1  0
 32 33  2  0
 32 34  1  0
 34 35  1  0
 16  4  1  0
 23 18  1  0
 29 25  1  0
 13  7  1  0
 34 21  1  0
  1 36  1  0
  1 37  1  0
  1 38  1  0
  2 39  1  0
  2 40  1  0
  5 41  1  0
  8 42  1  0
  8 43  1  0
  9 44  1  0
  9 45  1  0
 10 46  1  0
 11 47  1  0
 12 48  1  0
 12 49  1  0
 13 50  1  0
 13 51  1  0
 14 52  1  0
 15 53  1  0
 17 54  1  0
 20 55  1  0
 25 56  1  0
 26 57  1  0
 26 58  1  0
 27 59  1  0
 27 60  1  0
 28 61  1  0
 28 62  1  0
 29 63  1  0
 29 64  1  0
 30 65  1  0
 30 66  1  0
 31 67  1  0
 31 68  1  0
 35 69  1  0
 35 70  1  0
 35 71  1  0
M  END
$$$$
