
     RDKit          3D

 62 62  0  0  0  0  0  0  0  0999 V2000
    6.6148    1.7576   -0.2463 C   0  0  0  0  0  0  0  0  0  0  0  0
    6.3745    0.9382    0.9687 C   0  0  0  0  0  0  0  0  0  0  0  0
    5.3461   -0.1348    0.8721 C   0  0  0  0  0  0  0  0  0  0  0  0
    3.9885    0.3963    0.5785 C   0  0  2  0  0  0  0  0  0  0  0  0
    2.9671   -0.7744    0.5317 C   0  0  0  0  0  0  0  0  0  0  0  0
    2.2249   -0.5667   -0.7432 C   0  0  1  0  0  0  0  0  0  0  0  0
    0.9025   -1.1622   -0.8316 C   0  0  0  0  0  0  0  0  0  0  0  0
    0.8043   -2.3946   -0.5928 O   0  0  0  0  0  0  0  0  0  0  0  0
   -0.2842   -0.4637   -1.1661 N   0  0  0  0  0  0  0  0  0  0  0  0
   -1.6022   -1.0646   -1.2499 C   0  0  2  0  0  0  0  0  0  0  0  0
   -2.1434   -1.0428   -2.6553 C   0  0  2  0  0  0  0  0  0  0  0  0
   -3.5106   -1.6934   -2.6521 C   0  0  0  0  0  0  0  0  0  0  0  0
   -1.0871   -2.0576   -3.6635 Cl  0  0  0  0  0  0  0  0  0  0  0  0
   -2.5539   -0.3769   -0.2645 C   0  0  1  0  0  0  0  0  0  0  0  0
   -3.8128   -0.8835   -0.2913 O   0  0  0  0  0  0  0  0  0  0  0  0
   -4.4945   -0.8231    0.8918 C   0  0  2  0  0  0  0  0  0  0  0  0
   -6.2867   -0.8822    0.6819 S   0  0  0  0  0  0  0  0  0  0  0  0
   -6.9119    0.5838   -0.1767 C   0  0  0  0  0  0  0  0  0  0  0  0
   -4.1085    0.4166    1.6523 C   0  0  2  0  0  0  0  0  0  0  0  0
   -4.0868    1.5680    0.9097 O   0  0  0  0  0  0  0  0  0  0  0  0
   -2.6949    0.1670    2.1856 C   0  0  1  0  0  0  0  0  0  0  0  0
   -2.8727   -0.7579    3.2349 O   0  0  0  0  0  0  0  0  0  0  0  0
   -1.8821   -0.4101    1.0753 C   0  0  1  0  0  0  0  0  0  0  0  0
   -1.5035   -1.7414    1.3465 O   0  0  0  0  0  0  0  0  0  0  0  0
    2.3164    0.8517   -0.9272 N   0  0  0  0  0  0  0  0  0  0  0  0
    1.8078    1.6363    0.1793 C   0  0  0  0  0  0  0  0  0  0  0  0
    3.8019    0.9742   -0.8030 C   0  0  0  0  0  0  0  0  0  0  0  0
    0.6894    0.0000    0.0000 Cl  0  0  0  0  0  0  0  0  0  0  0  0
    6.3149    1.2167   -1.1411 H   0  0  0  0  0  0  0  0  0  0  0  0
    6.1629    2.7696   -0.1695 H   0  0  0  0  0  0  0  0  0  0  0  0
    7.7288    1.9513   -0.3898 H   0  0  0  0  0  0  0  0  0  0  0  0
    7.3614    0.5248    1.3102 H   0  0  0  0  0  0  0  0  0  0  0  0
    6.0701    1.6444    1.8075 H   0  0  0  0  0  0  0  0  0  0  0  0
    5.3277   -0.6427    1.8844 H   0  0  0  0  0  0  0  0  0  0  0  0
    5.6885   -0.8857    0.1171 H   0  0  0  0  0  0  0  0  0  0  0  0
    3.6912    1.1102    1.3530 H   0  0  0  0  0  0  0  0  0  0  0  0
    2.3718   -0.8135    1.4409 H   0  0  0  0  0  0  0  0  0  0  0  0
    3.5618   -1.7158    0.4805 H   0  0  0  0  0  0  0  0  0  0  0  0
    2.8307   -1.0096   -1.5893 H   0  0  0  0  0  0  0  0  0  0  0  0
   -0.2588    0.5762   -1.3837 H   0  0  0  0  0  0  0  0  0  0  0  0
   -1.4925   -2.1281   -0.9633 H   0  0  0  0  0  0  0  0  0  0  0  0
   -2.2328   -0.0152   -3.0607 H   0  0  0  0  0  0  0  0  0  0  0  0
   -4.3422   -0.9951   -2.5648 H   0  0  0  0  0  0  0  0  0  0  0  0
   -3.6292   -2.1913   -3.6590 H   0  0  0  0  0  0  0  0  0  0  0  0
   -3.5552   -2.5250   -1.9123 H   0  0  0  0  0  0  0  0  0  0  0  0
   -2.5595    0.6997   -0.6083 H   0  0  0  0  0  0  0  0  0  0  0  0
   -4.2170   -1.7169    1.5085 H   0  0  0  0  0  0  0  0  0  0  0  0
   -7.9081    0.3056   -0.6090 H   0  0  0  0  0  0  0  0  0  0  0  0
   -7.0960    1.4383    0.5023 H   0  0  0  0  0  0  0  0  0  0  0  0
   -6.2659    0.8797   -1.0296 H   0  0  0  0  0  0  0  0  0  0  0  0
   -4.8136    0.5641    2.5172 H   0  0  0  0  0  0  0  0  0  0  0  0
   -3.3666    2.1720    1.2203 H   0  0  0  0  0  0  0  0  0  0  0  0
   -2.2610    1.0728    2.6372 H   0  0  0  0  0  0  0  0  0  0  0  0
   -2.1453   -0.7700    3.8779 H   0  0  0  0  0  0  0  0  0  0  0  0
   -0.9414    0.1725    0.9952 H   0  0  0  0  0  0  0  0  0  0  0  0
   -0.7175   -1.7612    1.9427 H   0  0  0  0  0  0  0  0  0  0  0  0
    0.8640    2.1778   -0.0541 H   0  0  0  0  0  0  0  0  0  0  0  0
    1.6775    1.0742    1.1076 H   0  0  0  0  0  0  0  0  0  0  0  0
    2.5289    2.4764    0.4198 H   0  0  0  0  0  0  0  0  0  0  0  0
    4.0920    2.0112   -0.9225 H   0  0  0  0  0  0  0  0  0  0  0  0
    4.2173    0.2730   -1.5726 H   0  0  0  0  0  0  0  0  0  0  0  0
   -0.6894    0.0000    0.0000 H   0  0  0  0  0  0  0  0  0  0  0  0
  1  2  1  0
  2  3  1  0
  3  4  1  0
  4  5  1  0
  5  6  1  0
  6  7  1  0
  7  8  2  0
  7  9  1  0
  9 10  1  0
 10 11  1  0
 11 12  1  0
 11 13  1  0
 10 14  1  0
 14 15  1  0
 15 16  1  0
 16 17  1  0
 17 18  1  0
 16 19  1  0
 19 20  1  0
 19 21  1  0
 21 22  1  0
 21 23  1  0
 23 24  1  0
  6 25  1  0
 25 26  1  0
 25 27  1  0
 27  4  1  0
 23 14  1  0
  1 29  1  0
  1 30  1  0
  1 31  1  0
  2 32  1  0
  2 33  1  0
  3 34  1  0
  3 35  1  0
  4 36  1  1
  5 37  1  0
  5 38  1  0
  6 39  1  6
  9 40  1  0
 10 41  1  1
 11 42  1  6
 12 43  1  0
 12 44  1  0
 12 45  1  0
 14 46  1  6
 16 47  1  1
 18 48  1  0
 18 49  1  0
 18 50  1  0
 19 51  1  1
 20 52  1  0
 21 53  1  1
 22 54  1  0
 23 55  1  6
 24 56  1  0
 26 57  1  0
 26 58  1  0
 26 59  1  0
 27 60  1  0
 27 61  1  0
 28 62  1  0
M  END
$$$$
