
     RDKit          3D

 26 26  0  0  0  0  0  0  0  0999 V2000
    0.6886    0.0000    0.0000 Cl  0  0  0  0  0  0  0  0  0  0  0  0
    5.6361   -1.3386   -0.5938 Cl  0  0  0  0  0  0  0  0  0  0  0  0
    3.9395   -0.9813   -0.4197 C   0  0  0  0  0  0  0  0  0  0  0  0
    3.5424   -0.0203    0.4837 C   0  0  0  0  0  0  0  0  0  0  0  0
    2.2003    0.2990    0.6574 C   0  0  0  0  0  0  0  0  0  0  0  0
    1.3034   -0.3958   -0.1195 C   0  0  0  0  0  0  0  0  0  0  0  0
   -0.0585   -0.1104    0.0189 O   0  0  0  0  0  0  0  0  0  0  0  0
   -0.5205    0.8658    0.9305 C   0  0  0  0  0  0  0  0  0  0  0  0
   -2.0320    0.9009    0.8072 C   0  0  1  0  0  0  0  0  0  0  0  0
   -2.5128    0.8091   -0.6291 C   0  0  0  0  0  0  0  0  0  0  0  0
   -3.3812   -0.3388   -0.1771 C   0  0  0  0  0  0  0  0  0  0  0  0
   -2.6851   -0.3382    1.1056 N   0  0  0  0  0  0  0  0  0  0  0  0
    1.7179   -1.3535   -1.0178 C   0  0  0  0  0  0  0  0  0  0  0  0
    3.0266   -1.6473   -1.1699 N   0  0  0  0  0  0  0  0  0  0  0  0
   -0.6886    0.0000    0.0000 H   0  0  0  0  0  0  0  0  0  0  0  0
    4.2516    0.5216    1.0906 H   0  0  0  0  0  0  0  0  0  0  0  0
    1.9257    1.0540    1.3711 H   0  0  0  0  0  0  0  0  0  0  0  0
   -0.0859    1.8458    0.6590 H   0  0  0  0  0  0  0  0  0  0  0  0
   -0.2762    0.6135    1.9796 H   0  0  0  0  0  0  0  0  0  0  0  0
   -2.4646    1.7325    1.3801 H   0  0  0  0  0  0  0  0  0  0  0  0
   -1.6826    0.4801   -1.2780 H   0  0  0  0  0  0  0  0  0  0  0  0
   -3.0502    1.7195   -0.9583 H   0  0  0  0  0  0  0  0  0  0  0  0
   -4.4449   -0.0423   -0.1292 H   0  0  0  0  0  0  0  0  0  0  0  0
   -3.2511   -1.2737   -0.7612 H   0  0  0  0  0  0  0  0  0  0  0  0
   -2.0404   -1.1515    1.2101 H   0  0  0  0  0  0  0  0  0  0  0  0
    0.9424   -1.8501   -1.5871 H   0  0  0  0  0  0  0  0  0  0  0  0
  2  3  1  0
  3  4  2  0
  4  5  1  0
  5  6  2  0
  6  7  1  0
  7  8  1  0
  8  9  1  0
  9 10  1  0
 10 11  1  0
 11 12  1  0
  6 13  1  0
 13 14  2  0
 14  3  1  0
 12  9  1  0
  1 15  1  0
  4 16  1  0
  5 17  1  0
  8 18  1  0
  8 19  1  0
  9 20  1  1
 10 21  1  0
 10 22  1  0
 11 23  1  0
 11 24  1  0
 12 25  1  0
 13 26  1  0
M  END
$$$$
