
     RDKit          3D

 55 58  0  0  0  0  0  0  0  0999 V2000
    4.4085    2.8643   -1.5627 C   0  0  0  0  0  0  0  0  0  0  0  0
    4.4377    2.4897   -0.1294 C   0  0  0  0  0  0  0  0  0  0  0  0
    5.5028    2.8047    0.6174 N   0  0  0  0  0  0  0  0  0  0  0  0
    5.2434    2.3023    1.8756 O   0  0  0  0  0  0  0  0  0  0  0  0
    4.0277    1.6977    1.8825 C   0  0  0  0  0  0  0  0  0  0  0  0
    3.6033    1.1024    3.1635 C   0  0  0  0  0  0  0  0  0  0  0  0
    3.4560    1.7927    0.6306 C   0  0  0  0  0  0  0  0  0  0  0  0
    2.1225    1.2929    0.1913 C   0  0  0  0  0  0  0  0  0  0  0  0
    2.2000    0.0697   -0.7177 C   0  0  0  0  0  0  0  0  0  0  0  0
    3.2059   -0.2182   -1.3659 O   0  0  0  0  0  0  0  0  0  0  0  0
    1.0542   -0.6954   -0.8098 N   0  0  0  0  0  0  0  0  0  0  0  0
    0.9966   -1.8762   -1.6678 C   0  0  0  0  0  0  0  0  0  0  0  0
   -0.3103   -2.5833   -1.2599 C   0  0  1  0  0  0  0  0  0  0  0  0
    0.0019   -3.5464   -0.1107 C   0  0  0  0  0  0  0  0  0  0  0  0
   -1.2202   -4.0636    0.6221 C   0  0  0  0  0  0  0  0  0  0  0  0
   -1.8304   -2.9832    1.4938 C   0  0  0  0  0  0  0  0  0  0  0  0
   -2.8743   -2.1701    0.7733 C   0  0  0  0  0  0  0  0  0  0  0  0
   -4.0002   -2.0841    1.2706 O   0  0  0  0  0  0  0  0  0  0  0  0
   -2.5409   -1.5375   -0.4125 N   0  0  0  0  0  0  0  0  0  0  0  0
   -3.6068   -0.7503   -1.0532 C   0  0  0  0  0  0  0  0  0  0  0  0
   -3.4594    0.7350   -0.8074 C   0  0  0  0  0  0  0  0  0  0  0  0
   -3.0714    1.5978   -1.8434 C   0  0  0  0  0  0  0  0  0  0  0  0
   -2.9105    2.9638   -1.6046 C   0  0  0  0  0  0  0  0  0  0  0  0
   -3.1386    3.4817   -0.3312 C   0  0  0  0  0  0  0  0  0  0  0  0
   -3.5317    2.6361    0.7041 C   0  0  0  0  0  0  0  0  0  0  0  0
   -3.6928    1.2704    0.4678 C   0  0  0  0  0  0  0  0  0  0  0  0
   -1.1957   -1.3576   -0.9653 C   0  0  1  0  0  0  0  0  0  0  0  0
   -0.2517   -0.4021   -0.2235 C   0  0  0  0  0  0  0  0  0  0  0  0
    3.3833    3.0341   -1.9058 H   0  0  0  0  0  0  0  0  0  0  0  0
    4.9746    3.7841   -1.7428 H   0  0  0  0  0  0  0  0  0  0  0  0
    4.8473    2.0677   -2.1716 H   0  0  0  0  0  0  0  0  0  0  0  0
    4.3688    1.2248    3.9363 H   0  0  0  0  0  0  0  0  0  0  0  0
    3.4128    0.0315    3.0417 H   0  0  0  0  0  0  0  0  0  0  0  0
    2.6837    1.5774    3.5190 H   0  0  0  0  0  0  0  0  0  0  0  0
    1.5275    1.0491    1.0782 H   0  0  0  0  0  0  0  0  0  0  0  0
    1.5935    2.0832   -0.3539 H   0  0  0  0  0  0  0  0  0  0  0  0
    1.8954   -2.4902   -1.5501 H   0  0  0  0  0  0  0  0  0  0  0  0
    0.9479   -1.5265   -2.7060 H   0  0  0  0  0  0  0  0  0  0  0  0
   -0.7197   -3.1618   -2.0966 H   0  0  0  0  0  0  0  0  0  0  0  0
    0.5449   -4.4050   -0.5279 H   0  0  0  0  0  0  0  0  0  0  0  0
    0.6898   -3.0894    0.6127 H   0  0  0  0  0  0  0  0  0  0  0  0
   -0.8991   -4.8892    1.2692 H   0  0  0  0  0  0  0  0  0  0  0  0
   -1.9506   -4.4764   -0.0837 H   0  0  0  0  0  0  0  0  0  0  0  0
   -1.0857   -2.3213    1.9443 H   0  0  0  0  0  0  0  0  0  0  0  0
   -2.3426   -3.4769    2.3305 H   0  0  0  0  0  0  0  0  0  0  0  0
   -4.5998   -1.0676   -0.7137 H   0  0  0  0  0  0  0  0  0  0  0  0
   -3.5820   -0.9709   -2.1278 H   0  0  0  0  0  0  0  0  0  0  0  0
   -2.8918    1.2129   -2.8449 H   0  0  0  0  0  0  0  0  0  0  0  0
   -2.6131    3.6262   -2.4138 H   0  0  0  0  0  0  0  0  0  0  0  0
   -3.0194    4.5465   -0.1472 H   0  0  0  0  0  0  0  0  0  0  0  0
   -3.7207    3.0403    1.6955 H   0  0  0  0  0  0  0  0  0  0  0  0
   -4.0089    0.6219    1.2838 H   0  0  0  0  0  0  0  0  0  0  0  0
   -1.3564   -0.9108   -1.9595 H   0  0  0  0  0  0  0  0  0  0  0  0
   -0.1983   -0.5967    0.8505 H   0  0  0  0  0  0  0  0  0  0  0  0
   -0.5070    0.6497   -0.3770 H   0  0  0  0  0  0  0  0  0  0  0  0
  1  2  1  0
  2  3  2  0
  3  4  1  0
  4  5  1  0
  5  6  1  0
  5  7  2  0
  7  8  1  0
  8  9  1  0
  9 10  2  0
  9 11  1  0
 11 12  1  0
 12 13  1  0
 13 14  1  0
 14 15  1  0
 15 16  1  0
 16 17  1  0
 17 18  2  0
 17 19  1  0
 19 20  1  0
 20 21  1  0
 21 22  2  0
 22 23  1  0
 23 24  2  0
 24 25  1  0
 25 26  2  0
 19 27  1  0
 27 28  1  0
  7  2  1  0
 28 11  1  0
 27 13  1  0
 26 21  1  0
  1 29  1  0
  1 30  1  0
  1 31  1  0
  6 32  1  0
  6 33  1  0
  6 34  1  0
  8 35  1  0
  8 36  1  0
 12 37  1  0
 12 38  1  0
 13 39  1  6
 14 40  1  0
 14 41  1  0
 15 42  1  0
 15 43  1  0
 16 44  1  0
 16 45  1  0
 20 46  1  0
 20 47  1  0
 22 48  1  0
 23 49  1  0
 24 50  1  0
 25 51  1  0
 26 52  1  0
 27 53  1  6
 28 54  1  0
 28 55  1  0
M  END
$$$$
