
     RDKit          3D

 49 52  0  0  0  0  0  0  0  0999 V2000
    3.1004   -4.4941   -0.9467 C   0  0  0  0  0  0  0  0  0  0  0  0
    3.3465   -3.0461   -1.0799 C   0  0  0  0  0  0  0  0  0  0  0  0
    4.2107   -2.6648   -2.0540 O   0  0  0  0  0  0  0  0  0  0  0  0
    4.3641   -1.2943   -2.0250 N   0  0  0  0  0  0  0  0  0  0  0  0
    3.5858   -0.8495   -1.0263 C   0  0  0  0  0  0  0  0  0  0  0  0
    3.5880    0.5577   -0.6438 C   0  0  0  0  0  0  0  0  0  0  0  0
    4.0075    0.8965    0.6546 C   0  0  0  0  0  0  0  0  0  0  0  0
    4.0319    2.2294    1.0701 C   0  0  0  0  0  0  0  0  0  0  0  0
    3.6386    3.2387    0.1953 C   0  0  0  0  0  0  0  0  0  0  0  0
    3.2175    2.9164   -1.0951 C   0  0  0  0  0  0  0  0  0  0  0  0
    3.1903    1.5822   -1.5177 C   0  0  0  0  0  0  0  0  0  0  0  0
    2.5886    1.2699   -3.1100 Cl  0  0  0  0  0  0  0  0  0  0  0  0
    2.8873   -1.9308   -0.4147 C   0  0  0  0  0  0  0  0  0  0  0  0
    1.9731   -1.9466    0.7032 C   0  0  0  0  0  0  0  0  0  0  0  0
    2.2207   -2.6315    1.6932 O   0  0  0  0  0  0  0  0  0  0  0  0
    0.8171   -1.1788    0.6140 N   0  0  0  0  0  0  0  0  0  0  0  0
    0.2761   -0.6057   -0.6261 C   0  0  0  0  0  0  0  0  0  0  0  0
   -1.2634   -0.6574   -0.6914 C   0  0  0  0  0  0  0  0  0  0  0  0
   -1.8779   -0.0127    0.4831 N   0  0  0  0  0  0  0  0  0  0  0  0
   -3.1445    0.5454    0.4205 C   0  0  0  0  0  0  0  0  0  0  0  0
   -3.5731    1.5138    1.3464 C   0  0  0  0  0  0  0  0  0  0  0  0
   -4.8516    2.0858    1.2922 C   0  0  0  0  0  0  0  0  0  0  0  0
   -5.7394    1.6890    0.2920 C   0  0  0  0  0  0  0  0  0  0  0  0
   -7.0804    2.2802    0.2256 N   0  0  0  0  0  4  0  0  0  0  0  0
   -7.3814    3.1250    1.0813 O   0  0  0  0  0  0  0  0  0  0  0  0
   -7.8341    1.9006   -0.6822 O   0  0  0  0  0  1  0  0  0  0  0  0
   -5.3531    0.7303   -0.6449 C   0  0  0  0  0  0  0  0  0  0  0  0
   -4.0691    0.1728   -0.5722 C   0  0  0  0  0  0  0  0  0  0  0  0
   -1.0855    0.0179    1.7262 C   0  0  0  0  0  0  0  0  0  0  0  0
   -0.0682   -1.1348    1.7784 C   0  0  0  0  0  0  0  0  0  0  0  0
    3.7099   -4.9097   -0.1386 H   0  0  0  0  0  0  0  0  0  0  0  0
    2.0477   -4.6902   -0.7204 H   0  0  0  0  0  0  0  0  0  0  0  0
    3.3492   -5.0246   -1.8711 H   0  0  0  0  0  0  0  0  0  0  0  0
    4.3343    0.1236    1.3491 H   0  0  0  0  0  0  0  0  0  0  0  0
    4.3665    2.4789    2.0747 H   0  0  0  0  0  0  0  0  0  0  0  0
    3.6613    4.2776    0.5162 H   0  0  0  0  0  0  0  0  0  0  0  0
    2.9073    3.7118   -1.7690 H   0  0  0  0  0  0  0  0  0  0  0  0
    0.6917   -1.1151   -1.5000 H   0  0  0  0  0  0  0  0  0  0  0  0
    0.5952    0.4414   -0.6488 H   0  0  0  0  0  0  0  0  0  0  0  0
   -1.5675   -0.1568   -1.6184 H   0  0  0  0  0  0  0  0  0  0  0  0
   -1.5950   -1.7017   -0.7385 H   0  0  0  0  0  0  0  0  0  0  0  0
   -2.9026    1.8662    2.1265 H   0  0  0  0  0  0  0  0  0  0  0  0
   -5.1269    2.8351    2.0312 H   0  0  0  0  0  0  0  0  0  0  0  0
   -6.0287    0.3999   -1.4309 H   0  0  0  0  0  0  0  0  0  0  0  0
   -3.8144   -0.5882   -1.3059 H   0  0  0  0  0  0  0  0  0  0  0  0
   -0.5571    0.9772    1.7867 H   0  0  0  0  0  0  0  0  0  0  0  0
   -1.7326   -0.0749    2.6065 H   0  0  0  0  0  0  0  0  0  0  0  0
    0.5356   -1.0587    2.6898 H   0  0  0  0  0  0  0  0  0  0  0  0
   -0.5964   -2.0961    1.8126 H   0  0  0  0  0  0  0  0  0  0  0  0
  1  2  1  0
  2  3  1  0
  3  4  1  0
  4  5  2  0
  5  6  1  0
  6  7  2  0
  7  8  1  0
  8  9  2  0
  9 10  1  0
 10 11  2  0
 11 12  1  0
  5 13  1  0
 13 14  1  0
 14 15  2  0
 14 16  1  0
 16 17  1  0
 17 18  1  0
 18 19  1  0
 19 20  1  0
 20 21  2  0
 21 22  1  0
 22 23  2  0
 23 24  1  0
 24 25  2  0
 24 26  1  0
 23 27  1  0
 27 28  2  0
 19 29  1  0
 29 30  1  0
 13  2  2  0
 30 16  1  0
 11  6  1  0
 28 20  1  0
  1 31  1  0
  1 32  1  0
  1 33  1  0
  7 34  1  0
  8 35  1  0
  9 36  1  0
 10 37  1  0
 17 38  1  0
 17 39  1  0
 18 40  1  0
 18 41  1  0
 21 42  1  0
 22 43  1  0
 27 44  1  0
 28 45  1  0
 29 46  1  0
 29 47  1  0
 30 48  1  0
 30 49  1  0
M  CHG  2  24   1  26  -1
M  END
$$$$
