
     RDKit          3D

 44 46  0  0  0  0  0  0  0  0999 V2000
    0.7677    0.0000    0.0000 Br  0  0  0  0  0  0  0  0  0  0  0  0
    4.6025   -2.6754   -0.1024 C   0  0  0  0  0  0  0  0  0  0  0  0
    3.6961   -1.6277    0.0035 O   0  0  0  0  0  0  0  0  0  0  0  0
    2.3509   -1.6812   -0.1889 C   0  0  0  0  0  0  0  0  0  0  0  0
    1.6510   -2.8225   -0.5312 C   0  0  0  0  0  0  0  0  0  0  0  0
    0.2842   -2.7895   -0.7079 C   0  0  0  0  0  0  0  0  0  0  0  0
   -0.4613   -1.6219   -0.5545 C   0  0  0  0  0  0  0  0  0  0  0  0
    0.2326   -0.4867   -0.2143 C   0  0  0  0  0  0  0  0  0  0  0  0
    1.5977   -0.5197   -0.0377 C   0  0  0  0  0  0  0  0  0  0  0  0
    2.0507    0.7773    0.3059 O   0  0  0  0  0  0  0  0  0  0  0  0
    0.9006    1.4775    0.8215 C   0  0  1  0  0  0  0  0  0  0  0  0
    1.1616    2.9274    0.6997 C   0  0  0  0  0  0  0  0  0  0  0  0
    0.0581    3.6780   -0.0188 C   0  0  1  0  0  0  0  0  0  0  0  0
    0.5589    4.9514   -0.2984 O   0  0  0  0  0  0  0  0  0  0  0  0
   -0.2181    2.9587   -1.2776 C   0  0  0  0  0  0  0  0  0  0  0  0
   -0.3509    1.6517   -1.2565 C   0  0  0  0  0  0  0  0  0  0  0  0
   -0.2241    0.9164    0.0206 C   0  0  1  0  0  0  0  0  0  0  0  0
   -1.5445    0.9769    0.7617 C   0  0  0  0  0  0  0  0  0  0  0  0
   -2.2354   -0.3448    0.8624 C   0  0  0  0  0  0  0  0  0  0  0  0
   -2.6661   -0.7559   -0.4626 N   0  0  0  0  0  0  0  0  0  0  0  0
   -4.0689   -1.1309   -0.4713 C   0  0  0  0  0  0  0  0  0  0  0  0
   -1.8904   -1.9246   -0.8167 C   0  0  0  0  0  0  0  0  0  0  0  0
   -0.7677    0.0000    0.0000 H   0  0  0  0  0  0  0  0  0  0  0  0
    4.1953   -3.6075    0.3703 H   0  0  0  0  0  0  0  0  0  0  0  0
    5.5027   -2.4097    0.5038 H   0  0  0  0  0  0  0  0  0  0  0  0
    4.9514   -2.8744   -1.1306 H   0  0  0  0  0  0  0  0  0  0  0  0
    2.1964   -3.7375   -0.6567 H   0  0  0  0  0  0  0  0  0  0  0  0
   -0.2230   -3.7117   -0.9766 H   0  0  0  0  0  0  0  0  0  0  0  0
    0.8363    1.1239    1.8811 H   0  0  0  0  0  0  0  0  0  0  0  0
    2.1050    3.1460    0.1475 H   0  0  0  0  0  0  0  0  0  0  0  0
    1.2983    3.3514    1.7271 H   0  0  0  0  0  0  0  0  0  0  0  0
   -0.8374    3.8128    0.6137 H   0  0  0  0  0  0  0  0  0  0  0  0
    1.1625    5.2408    0.4347 H   0  0  0  0  0  0  0  0  0  0  0  0
   -0.3062    3.5252   -2.1971 H   0  0  0  0  0  0  0  0  0  0  0  0
   -0.5529    1.0963   -2.1615 H   0  0  0  0  0  0  0  0  0  0  0  0
   -2.2111    1.6904    0.2418 H   0  0  0  0  0  0  0  0  0  0  0  0
   -1.3255    1.4220    1.7658 H   0  0  0  0  0  0  0  0  0  0  0  0
   -1.5966   -1.1136    1.3461 H   0  0  0  0  0  0  0  0  0  0  0  0
   -3.1271   -0.2049    1.5051 H   0  0  0  0  0  0  0  0  0  0  0  0
   -4.5227   -1.0097   -1.4763 H   0  0  0  0  0  0  0  0  0  0  0  0
   -4.1945   -2.2178   -0.2081 H   0  0  0  0  0  0  0  0  0  0  0  0
   -4.5722   -0.4972    0.2844 H   0  0  0  0  0  0  0  0  0  0  0  0
   -2.0259   -2.1746   -1.8899 H   0  0  0  0  0  0  0  0  0  0  0  0
   -2.2377   -2.7844   -0.1929 H   0  0  0  0  0  0  0  0  0  0  0  0
  2  3  1  0
  3  4  1  0
  4  5  2  0
  5  6  1  0
  6  7  2  0
  7  8  1  0
  8  9  2  0
  9 10  1  0
 10 11  1  0
 11 12  1  0
 12 13  1  0
 13 14  1  0
 13 15  1  0
 15 16  2  0
 16 17  1  0
 17 18  1  1
 18 19  1  0
 19 20  1  0
 20 21  1  0
 20 22  1  0
  9  4  1  0
 17 11  1  0
 22  7  1  0
 17  8  1  0
  1 23  1  0
  2 24  1  0
  2 25  1  0
  2 26  1  0
  5 27  1  0
  6 28  1  0
 11 29  1  1
 12 30  1  0
 12 31  1  0
 13 32  1  1
 14 33  1  0
 15 34  1  0
 16 35  1  0
 18 36  1  0
 18 37  1  0
 19 38  1  0
 19 39  1  0
 21 40  1  0
 21 41  1  0
 21 42  1  0
 22 43  1  0
 22 44  1  0
M  END
$$$$
