
     RDKit          3D

 31 31  0  0  0  0  0  0  0  0999 V2000
   -0.0239    0.3971    0.0000 O   0  0  0  0  0  0  0  0  0  0  0  0
    6.2272    0.4376    0.0744 O   0  0  0  0  0  0  0  0  0  0  0  0
    5.4357   -0.2388   -0.5557 C   0  0  0  0  0  0  0  0  0  0  0  0
    5.8487   -1.0874   -1.5134 O   0  0  0  0  0  0  0  0  0  0  0  0
    3.9629   -0.2402   -0.3814 C   0  0  0  0  0  0  0  0  0  0  0  0
    3.4081    0.6028    0.5891 C   0  0  0  0  0  0  0  0  0  0  0  0
    2.0236    0.6317    0.7856 C   0  0  0  0  0  0  0  0  0  0  0  0
    1.1762   -0.1699    0.0133 C   0  0  0  0  0  0  0  0  0  0  0  0
   -0.2086   -0.1387    0.2561 N   0  0  0  0  0  0  0  0  0  0  0  0
   -0.8256    0.2421   -0.7634 N   0  0  0  0  0  0  0  0  0  0  0  0
   -2.2101    0.2920   -0.5175 C   0  0  0  0  0  0  0  0  0  0  0  0
   -2.9426   -0.8526   -0.1677 C   0  0  0  0  0  0  0  0  0  0  0  0
   -4.3227   -0.7816    0.0420 C   0  0  0  0  0  0  0  0  0  0  0  0
   -4.9720    0.4391   -0.1095 C   0  0  0  0  0  0  0  0  0  0  0  0
   -6.3159    0.5578    0.0838 O   0  0  0  0  0  0  0  0  0  0  0  0
   -4.2670    1.5819   -0.4685 C   0  0  0  0  0  0  0  0  0  0  0  0
   -2.8880    1.5057   -0.6765 C   0  0  0  0  0  0  0  0  0  0  0  0
    1.7394   -1.0211   -0.9477 C   0  0  0  0  0  0  0  0  0  0  0  0
    3.1234   -1.0552   -1.1499 C   0  0  0  0  0  0  0  0  0  0  0  0
    0.7740   -0.1526    0.0000 H   0  0  0  0  0  0  0  0  0  0  0  0
   -0.7501   -0.2445    0.0000 H   0  0  0  0  0  0  0  0  0  0  0  0
    6.8231   -0.9802   -1.5173 H   0  0  0  0  0  0  0  0  0  0  0  0
    4.0493    1.2389    1.1966 H   0  0  0  0  0  0  0  0  0  0  0  0
    1.5994    1.2861    1.5434 H   0  0  0  0  0  0  0  0  0  0  0  0
   -2.4291   -1.8042   -0.0577 H   0  0  0  0  0  0  0  0  0  0  0  0
   -4.8651   -1.6803    0.3172 H   0  0  0  0  0  0  0  0  0  0  0  0
   -6.6729   -0.3098    0.3351 H   0  0  0  0  0  0  0  0  0  0  0  0
   -4.7870    2.5280   -0.5880 H   0  0  0  0  0  0  0  0  0  0  0  0
   -2.3356    2.3972   -0.9611 H   0  0  0  0  0  0  0  0  0  0  0  0
    1.0926   -1.6603   -1.5438 H   0  0  0  0  0  0  0  0  0  0  0  0
    3.5327   -1.7205   -1.9063 H   0  0  0  0  0  0  0  0  0  0  0  0
  2  3  2  0
  3  4  1  0
  3  5  1  0
  5  6  2  0
  6  7  1  0
  7  8  2  0
  8  9  1  0
  9 10  2  0
 10 11  1  0
 11 12  2  0
 12 13  1  0
 13 14  2  0
 14 15  1  0
 14 16  1  0
 16 17  2  0
  8 18  1  0
 18 19  2  0
 19  5  1  0
 17 11  1  0
  1 20  1  0
  1 21  1  0
  4 22  1  0
  6 23  1  0
  7 24  1  0
 12 25  1  0
 13 26  1  0
 15 27  1  0
 16 28  1  0
 17 29  1  0
 18 30  1  0
 19 31  1  0
M  END
$$$$
