
     RDKit          3D

 32 36  0  0  0  0  0  0  0  0999 V2000
    4.7627   -0.0025    0.1240 C   0  0  0  0  0  0  0  0  0  0  0  0
    4.3385    1.3146    0.1959 C   0  0  0  0  0  0  0  0  0  0  0  0
    2.9714    1.6077    0.1787 C   0  0  0  0  0  0  0  0  0  0  0  0
    1.9791    0.5972    0.0892 C   0  0  0  0  0  0  0  0  0  0  0  0
    2.4420   -0.7396    0.0171 C   0  0  0  0  0  0  0  0  0  0  0  0
    3.8193   -1.0220    0.0352 C   0  0  0  0  0  0  0  0  0  0  0  0
    1.5263   -1.7930   -0.0731 C   0  0  0  0  0  0  0  0  0  0  0  0
    0.1479   -1.5642   -0.0946 C   0  0  0  0  0  0  0  0  0  0  0  0
   -0.7476   -2.6387   -0.1857 C   0  0  0  0  0  0  0  0  0  0  0  0
   -2.1249   -2.4230   -0.2080 C   0  0  0  0  0  0  0  0  0  0  0  0
   -2.6408   -1.1258   -0.1398 C   0  0  0  0  0  0  0  0  0  0  0  0
   -4.0248   -0.8978   -0.1615 C   0  0  0  0  0  0  0  0  0  0  0  0
   -4.5315    0.3980   -0.0931 C   0  0  0  0  0  0  0  0  0  0  0  0
   -3.6600    1.4808   -0.0022 C   0  0  0  0  0  0  0  0  0  0  0  0
   -2.2715    1.2802    0.0214 C   0  0  0  0  0  0  0  0  0  0  0  0
   -1.3890    2.3560    0.1121 C   0  0  0  0  0  0  0  0  0  0  0  0
   -0.0071    2.1434    0.1348 C   0  0  0  0  0  0  0  0  0  0  0  0
    0.5620    0.8501    0.0682 C   0  0  0  0  0  0  0  0  0  0  0  0
   -0.3418   -0.2420   -0.0242 C   0  0  0  0  0  0  0  0  0  0  0  0
   -1.7493   -0.0293   -0.0475 C   0  0  0  0  0  0  0  0  0  0  0  0
    5.8231   -0.2387    0.1368 H   0  0  0  0  0  0  0  0  0  0  0  0
    5.0653    2.1196    0.2656 H   0  0  0  0  0  0  0  0  0  0  0  0
    2.6950    2.6564    0.2375 H   0  0  0  0  0  0  0  0  0  0  0  0
    4.1709   -2.0505   -0.0204 H   0  0  0  0  0  0  0  0  0  0  0  0
    1.8951   -2.8162   -0.1279 H   0  0  0  0  0  0  0  0  0  0  0  0
   -0.3791   -3.6610   -0.2404 H   0  0  0  0  0  0  0  0  0  0  0  0
   -2.7905   -3.2802   -0.2793 H   0  0  0  0  0  0  0  0  0  0  0  0
   -4.7201   -1.7313   -0.2321 H   0  0  0  0  0  0  0  0  0  0  0  0
   -5.6054    0.5639   -0.1106 H   0  0  0  0  0  0  0  0  0  0  0  0
   -4.0729    2.4857    0.0503 H   0  0  0  0  0  0  0  0  0  0  0  0
   -1.7636    3.3757    0.1666 H   0  0  0  0  0  0  0  0  0  0  0  0
    0.6211    3.0265    0.2068 H   0  0  0  0  0  0  0  0  0  0  0  0
  1  2  2  0
  2  3  1  0
  3  4  2  0
  4  5  1  0
  5  6  2  0
  5  7  1  0
  7  8  2  0
  8  9  1  0
  9 10  2  0
 10 11  1  0
 11 12  2  0
 12 13  1  0
 13 14  2  0
 14 15  1  0
 15 16  2  0
 16 17  1  0
 17 18  2  0
 18 19  1  0
 19 20  2  0
  6  1  1  0
 19  8  1  0
 18  4  1  0
 20 11  1  0
 20 15  1  0
  1 21  1  0
  2 22  1  0
  3 23  1  0
  6 24  1  0
  7 25  1  0
  9 26  1  0
 10 27  1  0
 12 28  1  0
 13 29  1  0
 14 30  1  0
 16 31  1  0
 17 32  1  0
M  END
$$$$
