
     RDKit          3D

 46 47  0  0  0  0  0  0  0  0999 V2000
   -3.5404   -0.0742    3.4163 C   0  0  0  0  0  0  0  0  0  0  0  0
   -4.2187    0.9403    2.4990 C   0  0  0  0  0  0  0  0  0  0  0  0
   -5.7090    1.0215    2.8241 C   0  0  0  0  0  0  0  0  0  0  0  0
   -4.1224    0.5135    1.1375 O   0  0  0  0  0  0  0  0  0  0  0  0
   -2.9657    0.7320    0.4444 C   0  0  0  0  0  0  0  0  0  0  0  0
   -2.8951    0.0617   -0.7831 C   0  0  0  0  0  0  0  0  0  0  0  0
   -1.7666    0.1793   -1.5999 C   0  0  0  0  0  0  0  0  0  0  0  0
   -0.6983    0.9852   -1.1978 C   0  0  0  0  0  0  0  0  0  0  0  0
    0.4831    1.0924   -2.0290 C   0  0  0  0  0  0  0  0  0  0  0  0
    0.7755    2.2349   -2.7470 C   0  0  0  0  0  0  0  0  0  0  0  0
    1.9159    2.0002   -3.4652 N   0  0  0  0  0  0  0  0  0  0  0  0
    2.3584    0.7281   -3.2163 C   0  0  0  0  0  0  0  0  0  0  0  0
    1.5035    0.1260   -2.3068 C   0  0  0  0  0  0  0  0  0  0  0  0
    1.6071   -1.2779   -1.7752 C   0  0  0  0  0  0  0  0  0  0  0  0
    2.4935   -1.4221   -0.6068 N   0  0  0  0  0  0  0  0  0  0  0  0
    1.9815   -0.7246    0.5686 C   0  0  0  0  0  0  0  0  0  0  0  0
    3.8998   -1.0939   -0.9066 C   0  0  0  0  0  0  0  0  0  0  0  0
    4.8929   -1.6639    0.1336 C   0  0  0  0  0  0  0  0  0  0  0  0
    4.6610   -3.0910    0.3722 N   0  0  0  0  0  0  0  0  0  0  0  0
   -0.7728    1.6727    0.0186 C   0  0  0  0  0  0  0  0  0  0  0  0
   -1.9008    1.5422    0.8408 C   0  0  0  0  0  0  0  0  0  0  0  0
   -3.6856    0.1832    4.4711 H   0  0  0  0  0  0  0  0  0  0  0  0
   -2.4647   -0.1212    3.2236 H   0  0  0  0  0  0  0  0  0  0  0  0
   -3.9351   -1.0827    3.2421 H   0  0  0  0  0  0  0  0  0  0  0  0
   -3.8068    1.9427    2.6422 H   0  0  0  0  0  0  0  0  0  0  0  0
   -6.2072    0.0578    2.6531 H   0  0  0  0  0  0  0  0  0  0  0  0
   -5.8729    1.3242    3.8628 H   0  0  0  0  0  0  0  0  0  0  0  0
   -6.1988    1.7506    2.1676 H   0  0  0  0  0  0  0  0  0  0  0  0
   -3.7253   -0.5692   -1.1020 H   0  0  0  0  0  0  0  0  0  0  0  0
   -1.7292   -0.3583   -2.5472 H   0  0  0  0  0  0  0  0  0  0  0  0
    0.2565    3.1821   -2.8268 H   0  0  0  0  0  0  0  0  0  0  0  0
    2.3538    2.6584   -4.0966 H   0  0  0  0  0  0  0  0  0  0  0  0
    3.2451    0.3471   -3.7086 H   0  0  0  0  0  0  0  0  0  0  0  0
    1.9564   -1.9426   -2.5777 H   0  0  0  0  0  0  0  0  0  0  0  0
    0.6105   -1.6568   -1.5147 H   0  0  0  0  0  0  0  0  0  0  0  0
    0.9427   -1.0085    0.7588 H   0  0  0  0  0  0  0  0  0  0  0  0
    2.0403    0.3643    0.4732 H   0  0  0  0  0  0  0  0  0  0  0  0
    2.5362   -1.0114    1.4682 H   0  0  0  0  0  0  0  0  0  0  0  0
    4.1704   -1.5339   -1.8763 H   0  0  0  0  0  0  0  0  0  0  0  0
    4.0538   -0.0115   -0.9882 H   0  0  0  0  0  0  0  0  0  0  0  0
    4.7888   -1.1202    1.0821 H   0  0  0  0  0  0  0  0  0  0  0  0
    5.9212   -1.5209   -0.2161 H   0  0  0  0  0  0  0  0  0  0  0  0
    3.6437   -3.2285    0.3608 H   0  0  0  0  0  0  0  0  0  0  0  0
    4.9772   -3.3328    1.3077 H   0  0  0  0  0  0  0  0  0  0  0  0
    0.0542    2.3034    0.3401 H   0  0  0  0  0  0  0  0  0  0  0  0
   -1.9075    2.0861    1.7793 H   0  0  0  0  0  0  0  0  0  0  0  0
  1  2  1  0
  2  3  1  0
  2  4  1  0
  4  5  1  0
  5  6  2  0
  6  7  1  0
  7  8  2  0
  8  9  1  0
  9 10  2  0
 10 11  1  0
 11 12  1  0
 12 13  2  0
 13 14  1  0
 14 15  1  0
 15 16  1  0
 15 17  1  0
 17 18  1  0
 18 19  1  0
  8 20  1  0
 20 21  2  0
 21  5  1  0
 13  9  1  0
  1 22  1  0
  1 23  1  0
  1 24  1  0
  2 25  1  0
  3 26  1  0
  3 27  1  0
  3 28  1  0
  6 29  1  0
  7 30  1  0
 10 31  1  0
 11 32  1  0
 12 33  1  0
 14 34  1  0
 14 35  1  0
 16 36  1  0
 16 37  1  0
 16 38  1  0
 17 39  1  0
 17 40  1  0
 18 41  1  0
 18 42  1  0
 19 43  1  0
 19 44  1  0
 20 45  1  0
 21 46  1  0
M  END
$$$$
