
     RDKit          3D

 32 33  0  0  0  0  0  0  0  0999 V2000
   -4.6247    0.7533    0.1101 C   0  0  0  0  0  0  0  0  0  0  0  0
   -3.1038    0.7768    0.0017 C   0  0  0  0  0  0  0  0  0  0  0  0
   -2.6401    1.9267   -0.8931 C   0  0  0  0  0  0  0  0  0  0  0  0
   -2.5071    0.9743    1.3416 N   0  0  0  0  0  0  0  0  0  0  0  0
   -1.9890   -0.3973    2.1823 S   0  0  0  0  0  6  0  0  0  0  0  0
   -3.0039   -1.4171    2.0384 O   0  0  0  0  0  0  0  0  0  0  0  0
   -1.5379    0.0688    3.4759 O   0  0  0  0  0  0  0  0  0  0  0  0
   -0.5209   -0.9678    1.3585 C   0  0  0  0  0  0  0  0  0  0  0  0
    0.5400   -0.2759    0.8062 C   0  0  0  0  0  0  0  0  0  0  0  0
    1.5522   -1.1283    0.2308 C   0  0  0  0  0  0  0  0  0  0  0  0
    2.7690   -0.6329   -0.4149 C   0  0  0  0  0  0  0  0  0  0  0  0
    3.8515   -1.6068   -0.6685 C   0  0  0  0  0  0  0  0  0  0  0  0
    4.9486   -1.1365   -1.2727 C   0  0  0  0  0  0  0  0  0  0  0  0
    5.0501    0.2891   -1.6471 C   0  0  0  0  0  0  0  0  0  0  0  0
    6.0513    0.7207   -2.2056 O   0  0  0  0  0  0  0  0  0  0  0  0
    3.9709    1.0687   -1.3193 N   0  0  0  0  0  0  0  0  0  0  0  0
    2.8257    0.6315   -0.7104 N   0  0  0  0  0  0  0  0  0  0  0  0
    1.1723   -2.4561    0.3701 C   0  0  0  0  0  0  0  0  0  0  0  0
   -0.3123   -2.6534    1.2007 S   0  0  0  0  0  0  0  0  0  0  0  0
   -5.0085    1.6643    0.5874 H   0  0  0  0  0  0  0  0  0  0  0  0
   -4.9705   -0.0989    0.7015 H   0  0  0  0  0  0  0  0  0  0  0  0
   -5.0775    0.6755   -0.8826 H   0  0  0  0  0  0  0  0  0  0  0  0
   -2.7516   -0.1634   -0.4457 H   0  0  0  0  0  0  0  0  0  0  0  0
   -3.0492    1.8182   -1.9064 H   0  0  0  0  0  0  0  0  0  0  0  0
   -1.5450    1.9457   -0.9746 H   0  0  0  0  0  0  0  0  0  0  0  0
   -2.9563    2.9004   -0.4963 H   0  0  0  0  0  0  0  0  0  0  0  0
   -3.0176    1.6002    1.9637 H   0  0  0  0  0  0  0  0  0  0  0  0
    0.5958    0.8102    0.8229 H   0  0  0  0  0  0  0  0  0  0  0  0
    3.7772   -2.6389   -0.3571 H   0  0  0  0  0  0  0  0  0  0  0  0
    5.8062   -1.7602   -1.4953 H   0  0  0  0  0  0  0  0  0  0  0  0
    4.0262    2.0597   -1.5322 H   0  0  0  0  0  0  0  0  0  0  0  0
    1.6791   -3.3505    0.0298 H   0  0  0  0  0  0  0  0  0  0  0  0
  1  2  1  0
  2  3  1  0
  2  4  1  0
  4  5  1  0
  5  6  2  0
  5  7  2  0
  5  8  1  0
  8  9  2  0
  9 10  1  0
 10 11  1  0
 11 12  1  0
 12 13  2  0
 13 14  1  0
 14 15  2  0
 14 16  1  0
 16 17  1  0
 10 18  2  0
 18 19  1  0
 19  8  1  0
 17 11  2  0
  1 20  1  0
  1 21  1  0
  1 22  1  0
  2 23  1  0
  3 24  1  0
  3 25  1  0
  3 26  1  0
  4 27  1  0
  9 28  1  0
 12 29  1  0
 13 30  1  0
 16 31  1  0
 18 32  1  0
M  END
$$$$
