
     RDKit          3D

 56 59  0  0  0  0  0  0  0  0999 V2000
   -8.0104    3.5096   -0.0600 C   0  0  0  0  0  0  0  0  0  0  0  0
   -8.2834    2.0998   -0.2091 N   0  0  0  0  0  0  0  0  0  0  0  0
   -9.5067    1.5578   -0.4952 C   0  0  0  0  0  0  0  0  0  0  0  0
   -9.2940    0.2037   -0.5488 C   0  0  0  0  0  0  0  0  0  0  0  0
   -7.9796   -0.0870   -0.2986 N   0  0  0  0  0  0  0  0  0  0  0  0
   -7.3725    1.0703   -0.0813 C   0  0  0  0  0  0  0  0  0  0  0  0
   -5.9514    1.2209    0.2069 C   0  0  0  0  0  0  0  0  0  0  0  0
   -5.3876    2.3178    0.2131 O   0  0  0  0  0  0  0  0  0  0  0  0
   -5.1006    0.0264    0.4978 C   0  0  0  0  0  0  0  0  0  0  0  0
   -5.5990   -1.1294    1.1051 C   0  0  0  0  0  0  0  0  0  0  0  0
   -4.7458   -2.2008    1.3712 C   0  0  0  0  0  0  0  0  0  0  0  0
   -3.3887   -2.1220    1.0461 C   0  0  0  0  0  0  0  0  0  0  0  0
   -2.8678   -0.9702    0.4568 C   0  0  0  0  0  0  0  0  0  0  0  0
   -1.5114   -0.8066    0.1051 N   0  0  0  0  0  0  0  0  0  0  0  0
   -0.4780   -1.7125    0.2806 C   0  0  0  0  0  0  0  0  0  0  0  0
   -0.5588   -2.8256    0.7856 O   0  0  0  0  0  0  0  0  0  0  0  0
    0.8364   -1.1671   -0.2590 C   0  0  0  0  0  0  0  0  0  0  0  0
    2.0023   -2.1277   -0.0166 C   0  0  0  0  0  0  0  0  0  0  0  0
    3.2889   -1.6636   -0.6840 C   0  0  2  0  0  0  0  0  0  0  0  0
    4.3292   -2.6561   -0.5850 N   0  0  0  0  0  0  0  0  0  0  0  0
    5.4687   -2.1606    0.0069 C   0  0  0  0  0  0  0  0  0  0  0  0
    6.5029   -2.7962    0.1240 O   0  0  0  0  0  0  0  0  0  0  0  0
    5.2255   -0.8836    0.4060 N   0  0  0  0  0  0  0  0  0  0  0  0
    6.1977   -0.0320    1.0495 C   0  0  0  0  0  0  0  0  0  0  0  0
    6.9953    0.7648    0.0430 C   0  0  0  0  0  0  0  0  0  0  0  0
    8.1391    0.2147   -0.5540 C   0  0  0  0  0  0  0  0  0  0  0  0
    8.8619    0.9412   -1.5011 C   0  0  0  0  0  0  0  0  0  0  0  0
    8.4485    2.2223   -1.8623 C   0  0  0  0  0  0  0  0  0  0  0  0
    7.3071    2.7753   -1.2838 C   0  0  0  0  0  0  0  0  0  0  0  0
    6.5804    2.0490   -0.3394 C   0  0  0  0  0  0  0  0  0  0  0  0
    3.9667   -0.4977    0.0438 C   0  0  0  0  0  0  0  0  0  0  0  0
    3.4514    0.5946    0.2439 O   0  0  0  0  0  0  0  0  0  0  0  0
   -3.7307    0.1012    0.1894 C   0  0  0  0  0  0  0  0  0  0  0  0
   -7.3183    3.8159   -0.8480 H   0  0  0  0  0  0  0  0  0  0  0  0
   -8.9431    4.0720   -0.1557 H   0  0  0  0  0  0  0  0  0  0  0  0
   -7.5835    3.6826    0.9313 H   0  0  0  0  0  0  0  0  0  0  0  0
  -10.3955    2.1568   -0.6369 H   0  0  0  0  0  0  0  0  0  0  0  0
  -10.0156   -0.5767   -0.7547 H   0  0  0  0  0  0  0  0  0  0  0  0
   -6.6456   -1.2160    1.3853 H   0  0  0  0  0  0  0  0  0  0  0  0
   -5.1371   -3.1033    1.8355 H   0  0  0  0  0  0  0  0  0  0  0  0
   -2.7653   -2.9818    1.2720 H   0  0  0  0  0  0  0  0  0  0  0  0
   -1.2669    0.0853   -0.3086 H   0  0  0  0  0  0  0  0  0  0  0  0
    1.0283   -0.2050    0.2278 H   0  0  0  0  0  0  0  0  0  0  0  0
    0.7134   -0.9937   -1.3349 H   0  0  0  0  0  0  0  0  0  0  0  0
    1.7402   -3.1216   -0.4028 H   0  0  0  0  0  0  0  0  0  0  0  0
    2.1538   -2.2504    1.0643 H   0  0  0  0  0  0  0  0  0  0  0  0
    3.1570   -1.4151   -1.7415 H   0  0  0  0  0  0  0  0  0  0  0  0
    4.3388   -3.5594   -1.0415 H   0  0  0  0  0  0  0  0  0  0  0  0
    5.6788    0.6494    1.7344 H   0  0  0  0  0  0  0  0  0  0  0  0
    6.8762   -0.6467    1.6537 H   0  0  0  0  0  0  0  0  0  0  0  0
    8.4691   -0.7887   -0.2885 H   0  0  0  0  0  0  0  0  0  0  0  0
    9.7473    0.5058   -1.9577 H   0  0  0  0  0  0  0  0  0  0  0  0
    9.0128    2.7881   -2.5989 H   0  0  0  0  0  0  0  0  0  0  0  0
    6.9811    3.7725   -1.5696 H   0  0  0  0  0  0  0  0  0  0  0  0
    5.6832    2.4884    0.0939 H   0  0  0  0  0  0  0  0  0  0  0  0
   -3.3450    1.0110   -0.2652 H   0  0  0  0  0  0  0  0  0  0  0  0
  1  2  1  0
  2  3  1  0
  3  4  2  0
  4  5  1  0
  5  6  2  0
  6  7  1  0
  7  8  2  0
  7  9  1  0
  9 10  2  0
 10 11  1  0
 11 12  2  0
 12 13  1  0
 13 14  1  0
 14 15  1  0
 15 16  2  0
 15 17  1  0
 17 18  1  0
 18 19  1  0
 19 20  1  0
 20 21  1  0
 21 22  2  0
 21 23  1  0
 23 24  1  0
 24 25  1  0
 25 26  2  0
 26 27  1  0
 27 28  2  0
 28 29  1  0
 29 30  2  0
 23 31  1  0
 31 32  2  0
 13 33  2  0
  6  2  1  0
 33  9  1  0
 31 19  1  0
 30 25  1  0
  1 34  1  0
  1 35  1  0
  1 36  1  0
  3 37  1  0
  4 38  1  0
 10 39  1  0
 11 40  1  0
 12 41  1  0
 14 42  1  0
 17 43  1  0
 17 44  1  0
 18 45  1  0
 18 46  1  0
 19 47  1  6
 20 48  1  0
 24 49  1  0
 24 50  1  0
 26 51  1  0
 27 52  1  0
 28 53  1  0
 29 54  1  0
 30 55  1  0
 33 56  1  0
M  END
$$$$
