
     RDKit          3D

 55 57  0  0  0  0  0  0  0  0999 V2000
    1.1116   -0.3200    2.0256 O   0  0  0  0  0  0  0  0  0  0  0  0
    1.6342   -1.2927    1.4796 C   0  0  0  0  0  0  0  0  0  0  0  0
    3.1386   -1.4524    1.3782 C   0  0  0  0  0  0  0  0  0  0  0  0
    3.6715   -1.0558    0.0035 C   0  0  0  0  0  0  0  0  0  0  0  0
    3.6066    0.4283   -0.2637 C   0  0  0  0  0  0  0  0  0  0  0  0
    2.6983    0.9463   -1.1996 C   0  0  0  0  0  0  0  0  0  0  0  0
    2.6201    2.3225   -1.4305 C   0  0  0  0  0  0  0  0  0  0  0  0
    3.4574    3.1820   -0.7268 C   0  0  0  0  0  0  0  0  0  0  0  0
    3.4033    4.5331   -0.9129 O   0  0  0  0  0  0  0  0  0  0  0  0
    4.3740    2.6874    0.1947 C   0  0  0  0  0  0  0  0  0  0  0  0
    4.4493    1.3127    0.4273 C   0  0  0  0  0  0  0  0  0  0  0  0
    0.7619   -2.3118    0.8489 C   0  0  0  0  0  0  0  0  0  0  0  0
    0.8391   -3.6640    1.2000 C   0  0  0  0  0  0  0  0  0  0  0  0
    1.7148   -4.0788    2.1638 O   0  0  0  0  0  0  0  0  0  0  0  0
    0.0023   -4.5993    0.5886 C   0  0  0  0  0  0  0  0  0  0  0  0
   -0.9166   -4.1772   -0.3692 C   0  0  0  0  0  0  0  0  0  0  0  0
   -1.7046   -5.1265   -0.9508 O   0  0  0  0  0  0  0  0  0  0  0  0
   -1.0242   -2.8360   -0.7183 C   0  0  0  0  0  0  0  0  0  0  0  0
   -0.1966   -1.9021   -0.0899 C   0  0  0  0  0  0  0  0  0  0  0  0
   -0.2665   -0.5906   -0.4794 O   0  0  0  0  0  0  0  0  0  0  0  0
   -1.4047    0.0799    0.1028 C   0  0  2  0  0  0  0  0  0  0  0  0
   -2.5184   -0.0100   -0.7874 O   0  0  0  0  0  0  0  0  0  0  0  0
   -3.7269    0.5247   -0.2097 C   0  0  2  0  0  0  0  0  0  0  0  0
   -4.7401    0.6749   -1.3543 C   0  0  0  0  0  0  0  0  0  0  0  0
   -4.3073    1.6708   -2.2835 O   0  0  0  0  0  0  0  0  0  0  0  0
   -3.4845    1.8663    0.5240 C   0  0  1  0  0  0  0  0  0  0  0  0
   -3.4624    1.5858    1.9361 O   0  0  0  0  0  0  0  0  0  0  0  0
   -2.1636    2.5214    0.0806 C   0  0  2  0  0  0  0  0  0  0  0  0
   -2.1767    2.9583   -1.2817 O   0  0  0  0  0  0  0  0  0  0  0  0
   -0.9947    1.5574    0.3407 C   0  0  1  0  0  0  0  0  0  0  0  0
   -0.5849    1.7282    1.7143 O   0  0  0  0  0  0  0  0  0  0  0  0
    3.4195   -2.4860    1.5873 H   0  0  0  0  0  0  0  0  0  0  0  0
    3.5949   -0.8548    2.1751 H   0  0  0  0  0  0  0  0  0  0  0  0
    3.1364   -1.6014   -0.7835 H   0  0  0  0  0  0  0  0  0  0  0  0
    4.7207   -1.3665   -0.0781 H   0  0  0  0  0  0  0  0  0  0  0  0
    2.0333    0.2832   -1.7498 H   0  0  0  0  0  0  0  0  0  0  0  0
    1.8998    2.6999   -2.1517 H   0  0  0  0  0  0  0  0  0  0  0  0
    2.6461    4.7300   -1.4940 H   0  0  0  0  0  0  0  0  0  0  0  0
    5.0222    3.3701    0.7380 H   0  0  0  0  0  0  0  0  0  0  0  0
    5.1666    0.9385    1.1568 H   0  0  0  0  0  0  0  0  0  0  0  0
    1.5370   -5.0096    2.3821 H   0  0  0  0  0  0  0  0  0  0  0  0
    0.0515   -5.6545    0.8405 H   0  0  0  0  0  0  0  0  0  0  0  0
   -2.2747   -4.7003   -1.6133 H   0  0  0  0  0  0  0  0  0  0  0  0
   -1.7300   -2.5022   -1.4730 H   0  0  0  0  0  0  0  0  0  0  0  0
   -1.6669   -0.3930    1.0611 H   0  0  0  0  0  0  0  0  0  0  0  0
   -4.1146   -0.2310    0.4870 H   0  0  0  0  0  0  0  0  0  0  0  0
   -4.8360   -0.2692   -1.8999 H   0  0  0  0  0  0  0  0  0  0  0  0
   -5.7219    0.9688   -0.9700 H   0  0  0  0  0  0  0  0  0  0  0  0
   -4.9488    1.6656   -3.0178 H   0  0  0  0  0  0  0  0  0  0  0  0
   -4.3248    2.5493    0.3616 H   0  0  0  0  0  0  0  0  0  0  0  0
   -2.6272    1.9414    2.3143 H   0  0  0  0  0  0  0  0  0  0  0  0
   -2.0083    3.4237    0.6854 H   0  0  0  0  0  0  0  0  0  0  0  0
   -2.8104    2.4000   -1.7840 H   0  0  0  0  0  0  0  0  0  0  0  0
   -0.1408    1.8327   -0.2859 H   0  0  0  0  0  0  0  0  0  0  0  0
    0.1665    1.1025    1.8657 H   0  0  0  0  0  0  0  0  0  0  0  0
  1  2  2  0
  2  3  1  0
  3  4  1  0
  4  5  1  0
  5  6  2  0
  6  7  1  0
  7  8  2  0
  8  9  1  0
  8 10  1  0
 10 11  2  0
  2 12  1  0
 12 13  2  0
 13 14  1  0
 13 15  1  0
 15 16  2  0
 16 17  1  0
 16 18  1  0
 18 19  2  0
 19 20  1  0
 20 21  1  0
 21 22  1  0
 22 23  1  0
 23 24  1  0
 24 25  1  0
 23 26  1  0
 26 27  1  0
 26 28  1  0
 28 29  1  0
 28 30  1  0
 30 31  1  0
 11  5  1  0
 19 12  1  0
 30 21  1  0
  3 32  1  0
  3 33  1  0
  4 34  1  0
  4 35  1  0
  6 36  1  0
  7 37  1  0
  9 38  1  0
 10 39  1  0
 11 40  1  0
 14 41  1  0
 15 42  1  0
 17 43  1  0
 18 44  1  0
 21 45  1  1
 23 46  1  1
 24 47  1  0
 24 48  1  0
 25 49  1  0
 26 50  1  1
 27 51  1  0
 28 52  1  1
 29 53  1  0
 30 54  1  6
 31 55  1  0
M  END
$$$$
