
     RDKit          3D

 42 45  0  0  0  0  0  0  0  0999 V2000
    6.5864    0.2286    0.3233 C   0  0  0  0  0  0  0  0  0  0  0  0
    5.8731   -0.9269    0.6316 C   0  0  0  0  0  0  0  0  0  0  0  0
    4.4864   -0.9598    0.4604 C   0  0  0  0  0  0  0  0  0  0  0  0
    3.7889    0.1600   -0.0226 C   0  0  0  0  0  0  0  0  0  0  0  0
    2.3285    0.1244   -0.2031 C   0  0  0  0  0  0  0  0  0  0  0  0
    1.7423    0.4594   -1.4321 C   0  0  0  0  0  0  0  0  0  0  0  0
    0.3544    0.4264   -1.6043 C   0  0  0  0  0  0  0  0  0  0  0  0
   -0.4952    0.0532   -0.5495 C   0  0  0  0  0  0  0  0  0  0  0  0
   -2.0068    0.0532   -0.7714 C   0  0  0  0  0  0  0  0  0  0  0  0
   -2.7937   -0.9456    0.0788 C   0  0  0  0  0  0  0  0  0  0  0  0
   -3.5081   -0.5798    1.2328 C   0  0  0  0  0  0  0  0  0  0  0  0
   -4.1918   -1.5390    1.9842 C   0  0  0  0  0  0  0  0  0  0  0  0
   -4.1676   -2.8775    1.6013 C   0  0  0  0  0  0  0  0  0  0  0  0
   -3.4578   -3.2618    0.4674 C   0  0  0  0  0  0  0  0  0  0  0  0
   -2.7747   -2.3056   -0.2864 C   0  0  0  0  0  0  0  0  0  0  0  0
   -2.5737    1.4114   -0.7281 N   0  0  0  0  0  0  0  0  0  0  0  0
   -3.6343    1.8523   -1.4819 C   0  0  0  0  0  0  0  0  0  0  0  0
   -3.8178    3.1633   -1.1124 C   0  0  0  0  0  0  0  0  0  0  0  0
   -2.9015    3.5331   -0.1646 N   0  0  0  0  0  0  0  0  0  0  0  0
   -2.1636    2.4650    0.0431 C   0  0  0  0  0  0  0  0  0  0  0  0
    0.0883   -0.2733    0.6840 C   0  0  0  0  0  0  0  0  0  0  0  0
    1.4777   -0.2414    0.8502 C   0  0  0  0  0  0  0  0  0  0  0  0
    4.5282    1.3153   -0.3276 C   0  0  0  0  0  0  0  0  0  0  0  0
    5.9147    1.3502   -0.1559 C   0  0  0  0  0  0  0  0  0  0  0  0
    7.6646    0.2553    0.4571 H   0  0  0  0  0  0  0  0  0  0  0  0
    6.3944   -1.8050    1.0037 H   0  0  0  0  0  0  0  0  0  0  0  0
    3.9501   -1.8764    0.6976 H   0  0  0  0  0  0  0  0  0  0  0  0
    2.3697    0.7445   -2.2749 H   0  0  0  0  0  0  0  0  0  0  0  0
   -0.0569    0.7028   -2.5740 H   0  0  0  0  0  0  0  0  0  0  0  0
   -2.1665   -0.2598   -1.8155 H   0  0  0  0  0  0  0  0  0  0  0  0
   -3.5484    0.4548    1.5681 H   0  0  0  0  0  0  0  0  0  0  0  0
   -4.7445   -1.2381    2.8711 H   0  0  0  0  0  0  0  0  0  0  0  0
   -4.7004   -3.6209    2.1887 H   0  0  0  0  0  0  0  0  0  0  0  0
   -3.4334   -4.3073    0.1706 H   0  0  0  0  0  0  0  0  0  0  0  0
   -2.2179   -2.6317   -1.1635 H   0  0  0  0  0  0  0  0  0  0  0  0
   -4.1564    1.2162   -2.1827 H   0  0  0  0  0  0  0  0  0  0  0  0
   -4.5621    3.8595   -1.4769 H   0  0  0  0  0  0  0  0  0  0  0  0
   -1.3343    2.4069    0.7368 H   0  0  0  0  0  0  0  0  0  0  0  0
   -0.5247   -0.5553    1.5380 H   0  0  0  0  0  0  0  0  0  0  0  0
    1.8945   -0.4931    1.8241 H   0  0  0  0  0  0  0  0  0  0  0  0
    4.0220    2.2072   -0.6917 H   0  0  0  0  0  0  0  0  0  0  0  0
    6.4674    2.2553   -0.3939 H   0  0  0  0  0  0  0  0  0  0  0  0
  1  2  2  0
  2  3  1  0
  3  4  2  0
  4  5  1  0
  5  6  2  0
  6  7  1  0
  7  8  2  0
  8  9  1  0
  9 10  1  0
 10 11  2  0
 11 12  1  0
 12 13  2  0
 13 14  1  0
 14 15  2  0
  9 16  1  0
 16 17  1  0
 17 18  2  0
 18 19  1  0
 19 20  2  0
  8 21  1  0
 21 22  2  0
  4 23  1  0
 23 24  2  0
 24  1  1  0
 22  5  1  0
 15 10  1  0
 20 16  1  0
  1 25  1  0
  2 26  1  0
  3 27  1  0
  6 28  1  0
  7 29  1  0
  9 30  1  0
 11 31  1  0
 12 32  1  0
 13 33  1  0
 14 34  1  0
 15 35  1  0
 17 36  1  0
 18 37  1  0
 20 38  1  0
 21 39  1  0
 22 40  1  0
 23 41  1  0
 24 42  1  0
M  END
$$$$
