
     RDKit          3D

 41 43  0  0  0  0  0  0  0  0999 V2000
    5.7719    2.2200   -0.4549 C   0  0  0  0  0  0  0  0  0  0  0  0
    4.3238    2.4393   -0.8576 C   0  0  0  0  0  0  0  0  0  0  0  0
    3.4255    1.4718   -0.1915 C   0  0  0  0  0  0  0  0  0  0  0  0
    2.7471    1.5914    0.9269 N   0  0  0  0  0  0  0  0  0  0  0  0
    2.0729    0.4015    1.0939 N   0  0  0  0  0  0  0  0  0  0  0  0
    2.3869   -0.3724    0.0731 C   0  0  0  0  0  0  0  0  0  0  0  0
    1.8909   -1.6993   -0.1365 C   0  0  0  0  0  0  0  0  0  0  0  0
    2.1393   -2.5234   -1.2223 C   0  0  0  0  0  0  0  0  0  0  0  0
    1.4420   -3.7362   -1.0264 C   0  0  0  0  0  0  0  0  0  0  0  0
    0.7832   -3.6335    0.1758 C   0  0  0  0  0  0  0  0  0  0  0  0
    1.0563   -2.3953    0.7159 N   0  0  0  0  0  0  0  0  0  0  0  0
    0.5112   -1.9490    1.9956 C   0  0  0  0  0  0  0  0  0  0  0  0
   -0.7227   -1.0570    1.9275 C   0  0  0  0  0  0  0  0  0  0  0  0
   -1.1539   -0.5720    2.9750 O   0  0  0  0  0  0  0  0  0  0  0  0
   -1.3103   -0.9085    0.6825 N   0  0  0  0  0  0  0  0  0  0  0  0
   -2.4496   -0.1445    0.3496 C   0  0  0  0  0  0  0  0  0  0  0  0
   -3.1695    0.6318    1.2565 C   0  0  0  0  0  0  0  0  0  0  0  0
   -4.2906    1.3589    0.8379 C   0  0  0  0  0  0  0  0  0  0  0  0
   -4.7155    1.3146   -0.4932 C   0  0  0  0  0  0  0  0  0  0  0  0
   -5.8962    2.1216   -0.9439 C   0  0  0  0  0  0  0  0  0  0  0  0
   -3.9851    0.5514   -1.4072 C   0  0  0  0  0  0  0  0  0  0  0  0
   -2.8656   -0.1743   -0.9877 C   0  0  0  0  0  0  0  0  0  0  0  0
    3.2497    0.2576   -0.7943 O   0  0  0  0  0  0  0  0  0  0  0  0
    5.9033    2.3298    0.6271 H   0  0  0  0  0  0  0  0  0  0  0  0
    6.4193    2.9493   -0.9517 H   0  0  0  0  0  0  0  0  0  0  0  0
    6.1130    1.2169   -0.7331 H   0  0  0  0  0  0  0  0  0  0  0  0
    4.0220    3.4582   -0.5904 H   0  0  0  0  0  0  0  0  0  0  0  0
    4.2257    2.3511   -1.9454 H   0  0  0  0  0  0  0  0  0  0  0  0
    2.7640   -2.2717   -2.0712 H   0  0  0  0  0  0  0  0  0  0  0  0
    1.4272   -4.5944   -1.6868 H   0  0  0  0  0  0  0  0  0  0  0  0
    0.1468   -4.3424    0.6922 H   0  0  0  0  0  0  0  0  0  0  0  0
    1.3096   -1.4449    2.5470 H   0  0  0  0  0  0  0  0  0  0  0  0
    0.2392   -2.8480    2.5616 H   0  0  0  0  0  0  0  0  0  0  0  0
   -0.8890   -1.3978   -0.0972 H   0  0  0  0  0  0  0  0  0  0  0  0
   -2.8844    0.7045    2.3011 H   0  0  0  0  0  0  0  0  0  0  0  0
   -4.8270    1.9623    1.5672 H   0  0  0  0  0  0  0  0  0  0  0  0
   -6.6205    2.2429   -0.1312 H   0  0  0  0  0  0  0  0  0  0  0  0
   -6.4159    1.6242   -1.7700 H   0  0  0  0  0  0  0  0  0  0  0  0
   -5.5683    3.1116   -1.2756 H   0  0  0  0  0  0  0  0  0  0  0  0
   -4.2819    0.5149   -2.4529 H   0  0  0  0  0  0  0  0  0  0  0  0
   -2.3248   -0.7609   -1.7259 H   0  0  0  0  0  0  0  0  0  0  0  0
  1  2  1  0
  2  3  1  0
  3  4  2  0
  4  5  1  0
  5  6  2  0
  6  7  1  0
  7  8  2  0
  8  9  1  0
  9 10  2  0
 10 11  1  0
 11 12  1  0
 12 13  1  0
 13 14  2  0
 13 15  1  0
 15 16  1  0
 16 17  2  0
 17 18  1  0
 18 19  2  0
 19 20  1  0
 19 21  1  0
 21 22  2  0
  6 23  1  0
 23  3  1  0
 11  7  1  0
 22 16  1  0
  1 24  1  0
  1 25  1  0
  1 26  1  0
  2 27  1  0
  2 28  1  0
  8 29  1  0
  9 30  1  0
 10 31  1  0
 12 32  1  0
 12 33  1  0
 15 34  1  0
 17 35  1  0
 18 36  1  0
 20 37  1  0
 20 38  1  0
 20 39  1  0
 21 40  1  0
 22 41  1  0
M  END
$$$$
