
     RDKit          3D

 46 48  0  0  0  0  0  0  0  0999 V2000
   -3.0036    3.0659   -1.8398 C   0  0  0  0  0  0  0  0  0  0  0  0
   -3.7033    1.8826   -1.4795 O   0  0  0  0  0  0  0  0  0  0  0  0
   -3.0004    0.9111   -0.8154 C   0  0  0  0  0  0  0  0  0  0  0  0
   -1.7164    1.0739   -0.2913 C   0  0  0  0  0  0  0  0  0  0  0  0
   -1.0739    0.0195    0.3805 C   0  0  0  0  0  0  0  0  0  0  0  0
    0.2752    0.2043    0.9310 C   0  0  0  0  0  0  0  0  0  0  0  0
    1.3939    0.0396    0.0963 C   0  0  0  0  0  0  0  0  0  0  0  0
    2.6933    0.2109    0.5860 C   0  0  0  0  0  0  0  0  0  0  0  0
    3.8772    0.0458   -0.2698 C   0  0  0  0  0  0  0  0  0  0  0  0
    4.0345   -1.0928   -1.0803 C   0  0  0  0  0  0  0  0  0  0  0  0
    5.1607   -1.2520   -1.8944 C   0  0  0  0  0  0  0  0  0  0  0  0
    6.1528   -0.2745   -1.9145 C   0  0  0  0  0  0  0  0  0  0  0  0
    6.0071    0.8548   -1.1185 C   0  0  0  0  0  0  0  0  0  0  0  0
    6.9500    1.8402   -1.1054 O   0  0  0  0  0  0  0  0  0  0  0  0
    4.8884    1.0201   -0.3052 C   0  0  0  0  0  0  0  0  0  0  0  0
    2.7944    0.5478    1.9328 C   0  0  0  0  0  0  0  0  0  0  0  0
    1.7445    0.7175    2.7721 N   0  0  0  0  0  0  0  0  0  0  0  0
    0.5076    0.5483    2.2741 C   0  0  0  0  0  0  0  0  0  0  0  0
   -0.5536    0.7499    3.1702 N   0  0  0  0  0  0  0  0  0  0  0  0
   -1.7329   -1.2151    0.5144 C   0  0  0  0  0  0  0  0  0  0  0  0
   -3.0175   -1.3998   -0.0009 C   0  0  0  0  0  0  0  0  0  0  0  0
   -3.7361   -2.5637    0.0873 O   0  0  0  0  0  0  0  0  0  0  0  0
   -3.0584   -3.7183    0.5636 C   0  0  0  0  0  0  0  0  0  0  0  0
   -3.6498   -0.3232   -0.6454 C   0  0  0  0  0  0  0  0  0  0  0  0
   -4.8999   -0.5079   -1.1953 O   0  0  0  0  0  0  0  0  0  0  0  0
   -5.9037   -0.1641   -0.2419 C   0  0  0  0  0  0  0  0  0  0  0  0
   -2.7318    3.6454   -0.9517 H   0  0  0  0  0  0  0  0  0  0  0  0
   -3.6767    3.6813   -2.4446 H   0  0  0  0  0  0  0  0  0  0  0  0
   -2.1228    2.8382   -2.4494 H   0  0  0  0  0  0  0  0  0  0  0  0
   -1.1881    2.0183   -0.3879 H   0  0  0  0  0  0  0  0  0  0  0  0
    1.2418   -0.2131   -0.9520 H   0  0  0  0  0  0  0  0  0  0  0  0
    3.2811   -1.8785   -1.0743 H   0  0  0  0  0  0  0  0  0  0  0  0
    5.2619   -2.1429   -2.5093 H   0  0  0  0  0  0  0  0  0  0  0  0
    7.0221   -0.4101   -2.5499 H   0  0  0  0  0  0  0  0  0  0  0  0
    7.6702    1.5905   -1.7074 H   0  0  0  0  0  0  0  0  0  0  0  0
    4.8082    1.9256    0.2925 H   0  0  0  0  0  0  0  0  0  0  0  0
    3.7639    0.6905    2.4050 H   0  0  0  0  0  0  0  0  0  0  0  0
   -1.1456    1.4969    2.8195 H   0  0  0  0  0  0  0  0  0  0  0  0
   -1.1223   -0.0896    3.2129 H   0  0  0  0  0  0  0  0  0  0  0  0
   -1.2153   -2.0197    1.0290 H   0  0  0  0  0  0  0  0  0  0  0  0
   -2.7924   -3.6081    1.6198 H   0  0  0  0  0  0  0  0  0  0  0  0
   -2.1765   -3.9422   -0.0459 H   0  0  0  0  0  0  0  0  0  0  0  0
   -3.7444   -4.5668    0.4807 H   0  0  0  0  0  0  0  0  0  0  0  0
   -5.8331    0.8890    0.0517 H   0  0  0  0  0  0  0  0  0  0  0  0
   -5.8513   -0.8075    0.6431 H   0  0  0  0  0  0  0  0  0  0  0  0
   -6.8791   -0.3180   -0.7131 H   0  0  0  0  0  0  0  0  0  0  0  0
  1  2  1  0
  2  3  1  0
  3  4  2  0
  4  5  1  0
  5  6  1  0
  6  7  2  0
  7  8  1  0
  8  9  1  0
  9 10  2  0
 10 11  1  0
 11 12  2  0
 12 13  1  0
 13 14  1  0
 13 15  2  0
  8 16  2  0
 16 17  1  0
 17 18  2  0
 18 19  1  0
  5 20  2  0
 20 21  1  0
 21 22  1  0
 22 23  1  0
 21 24  2  0
 24 25  1  0
 25 26  1  0
 24  3  1  0
 18  6  1  0
 15  9  1  0
  1 27  1  0
  1 28  1  0
  1 29  1  0
  4 30  1  0
  7 31  1  0
 10 32  1  0
 11 33  1  0
 12 34  1  0
 14 35  1  0
 15 36  1  0
 16 37  1  0
 19 38  1  0
 19 39  1  0
 20 40  1  0
 23 41  1  0
 23 42  1  0
 23 43  1  0
 26 44  1  0
 26 45  1  0
 26 46  1  0
M  END
$$$$
