
     RDKit          3D

 30 31  0  0  0  0  0  0  0  0999 V2000
   -3.2443    2.5164    0.5540 C   0  0  0  0  0  0  0  0  0  0  0  0
   -3.6617    1.4561   -0.3023 O   0  0  0  0  0  0  0  0  0  0  0  0
   -2.8269    0.3611   -0.2607 C   0  0  0  0  0  0  0  0  0  0  0  0
   -3.2288   -0.7496   -0.9904 C   0  0  0  0  0  0  0  0  0  0  0  0
   -2.4149   -1.8817   -0.9906 C   0  0  0  0  0  0  0  0  0  0  0  0
   -1.2312   -1.8556   -0.2487 C   0  0  0  0  0  0  0  0  0  0  0  0
   -0.3430   -2.9836   -0.3293 N   0  0  0  0  0  4  0  0  0  0  0  0
    0.7851   -2.7635   -0.7866 O   0  0  0  0  0  0  0  0  0  0  0  0
   -0.8024   -4.0872   -0.0154 O   0  0  0  0  0  1  0  0  0  0  0  0
   -0.9085   -0.7133    0.4543 C   0  0  0  0  0  0  0  0  0  0  0  0
    0.4764   -0.6000    1.5714 S   0  0  0  0  0  6  0  0  0  0  0  0
    0.8037   -1.9497    1.9940 O   0  0  0  0  0  0  0  0  0  0  0  0
    0.1657    0.3969    2.5822 O   0  0  0  0  0  0  0  0  0  0  0  0
    1.8459    0.0458    0.6397 C   0  0  0  0  0  0  0  0  0  0  0  0
    1.7723    1.3562    0.1532 C   0  0  0  0  0  0  0  0  0  0  0  0
    2.8434    1.8798   -0.5733 C   0  0  0  0  0  0  0  0  0  0  0  0
    3.9766    1.0973   -0.8012 C   0  0  0  0  0  0  0  0  0  0  0  0
    5.2927    1.7457   -1.6993 Cl  0  0  0  0  0  0  0  0  0  0  0  0
    4.0521   -0.2046   -0.3040 C   0  0  0  0  0  0  0  0  0  0  0  0
    2.9855   -0.7345    0.4254 C   0  0  0  0  0  0  0  0  0  0  0  0
   -1.6850    0.4097    0.4556 N   0  0  0  0  0  0  0  0  0  0  0  0
   -3.2128    2.1928    1.6003 H   0  0  0  0  0  0  0  0  0  0  0  0
   -3.9839    3.3189    0.4751 H   0  0  0  0  0  0  0  0  0  0  0  0
   -2.2769    2.9219    0.2381 H   0  0  0  0  0  0  0  0  0  0  0  0
   -4.1580   -0.7286   -1.5519 H   0  0  0  0  0  0  0  0  0  0  0  0
   -2.7024   -2.7586   -1.5670 H   0  0  0  0  0  0  0  0  0  0  0  0
    0.8974    1.9752    0.3449 H   0  0  0  0  0  0  0  0  0  0  0  0
    2.7935    2.8976   -0.9526 H   0  0  0  0  0  0  0  0  0  0  0  0
    4.9379   -0.8105   -0.4796 H   0  0  0  0  0  0  0  0  0  0  0  0
    3.0529   -1.7502    0.8114 H   0  0  0  0  0  0  0  0  0  0  0  0
  1  2  1  0
  2  3  1  0
  3  4  2  0
  4  5  1  0
  5  6  2  0
  6  7  1  0
  7  8  2  0
  7  9  1  0
  6 10  1  0
 10 11  1  0
 11 12  2  0
 11 13  2  0
 11 14  1  0
 14 15  2  0
 15 16  1  0
 16 17  2  0
 17 18  1  0
 17 19  1  0
 19 20  2  0
 10 21  2  0
 21  3  1  0
 20 14  1  0
  1 22  1  0
  1 23  1  0
  1 24  1  0
  4 25  1  0
  5 26  1  0
 15 27  1  0
 16 28  1  0
 19 29  1  0
 20 30  1  0
M  CHG  2   7   1   9  -1
M  END
$$$$
