
     RDKit          3D

 79 81  0  0  0  0  0  0  0  0999 V2000
    0.8798    1.2893   -4.3933 C   0  0  0  0  0  0  0  0  0  0  0  0
    0.1539    2.0904   -3.3467 C   0  0  0  0  0  0  0  0  0  0  0  0
   -0.7299    1.2684   -2.4664 C   0  0  1  0  0  0  0  0  0  0  0  0
   -1.7850    0.5670   -3.2946 C   0  0  0  0  0  0  0  0  0  0  0  0
   -2.7721    0.0158   -2.4112 N   0  0  0  0  0  0  0  0  0  0  0  0
   -3.9500    0.7922   -2.2829 C   0  0  0  0  0  0  0  0  0  0  0  0
   -5.0682   -0.0582   -1.6823 C   0  0  0  0  0  0  0  0  0  0  0  0
   -4.5932   -0.3971   -0.3161 C   0  0  0  0  0  0  0  0  0  0  0  0
   -5.4826   -0.3733    0.7237 C   0  0  0  0  0  0  0  0  0  0  0  0
   -5.0365   -0.6832    1.9864 C   0  0  0  0  0  0  0  0  0  0  0  0
   -5.9162   -0.6652    3.0483 O   0  0  0  0  0  0  0  0  0  0  0  0
   -7.2603   -0.3367    2.8672 C   0  0  0  0  0  0  0  0  0  0  0  0
   -3.7108   -1.0055    2.1543 C   0  0  0  0  0  0  0  0  0  0  0  0
   -3.2972   -1.3141    3.4538 O   0  0  0  0  0  0  0  0  0  0  0  0
   -1.9265   -1.6488    3.6530 C   0  0  0  0  0  0  0  0  0  0  0  0
   -2.8298   -1.0248    1.0980 C   0  0  0  0  0  0  0  0  0  0  0  0
   -3.2665   -0.7139   -0.1843 C   0  0  0  0  0  0  0  0  0  0  0  0
   -2.3142   -0.7399   -1.3377 C   0  0  2  0  0  0  0  0  0  0  0  0
   -0.9527   -0.4488   -0.7843 C   0  0  0  0  0  0  0  0  0  0  0  0
    0.0144    0.1626   -1.7468 C   0  0  2  0  0  0  0  0  0  0  0  0
    1.2589    0.6313   -1.0943 C   0  0  0  0  0  0  0  0  0  0  0  0
    1.9411   -0.5340   -0.4035 C   0  0  1  0  0  0  0  0  0  0  0  0
    2.2774   -1.5823   -1.3177 N   0  0  0  0  0  0  0  0  0  0  0  0
    3.3523   -2.4272   -0.8623 C   0  0  0  0  0  0  0  0  0  0  0  0
    4.6279   -1.5985   -0.7654 C   0  0  0  0  0  0  0  0  0  0  0  0
    4.3643   -0.5463    0.2494 C   0  0  0  0  0  0  0  0  0  0  0  0
    5.4160   -0.0682    1.0324 C   0  0  0  0  0  0  0  0  0  0  0  0
    5.2305    0.8920    1.9722 C   0  0  0  0  0  0  0  0  0  0  0  0
    6.2804    1.3601    2.7447 O   0  0  0  0  0  0  0  0  0  0  0  0
    7.5724    0.8273    2.5512 C   0  0  0  0  0  0  0  0  0  0  0  0
    3.9474    1.4033    2.1464 C   0  0  0  0  0  0  0  0  0  0  0  0
    3.7871    2.3807    3.1103 O   0  0  0  0  0  0  0  0  0  0  0  0
    2.5025    2.9303    3.3218 C   0  0  0  0  0  0  0  0  0  0  0  0
    2.9090    0.9329    1.3751 C   0  0  0  0  0  0  0  0  0  0  0  0
    3.1010   -0.0608    0.4026 C   0  0  0  0  0  0  0  0  0  0  0  0
    0.6870    0.0000    0.0000 Cl  0  0  0  0  0  0  0  0  0  0  0  0
    0.6895    0.0000    0.0000 Cl  0  0  0  0  0  0  0  0  0  0  0  0
    0.1772    1.0395   -5.2232 H   0  0  0  0  0  0  0  0  0  0  0  0
    1.3498    0.3793   -4.0031 H   0  0  0  0  0  0  0  0  0  0  0  0
    1.6247    1.9957   -4.8635 H   0  0  0  0  0  0  0  0  0  0  0  0
    0.8541    2.7011   -2.7360 H   0  0  0  0  0  0  0  0  0  0  0  0
   -0.4902    2.8189   -3.8812 H   0  0  0  0  0  0  0  0  0  0  0  0
   -1.1677    1.9215   -1.7029 H   0  0  0  0  0  0  0  0  0  0  0  0
   -2.2906    1.3594   -3.8941 H   0  0  0  0  0  0  0  0  0  0  0  0
   -1.3043   -0.1892   -3.9146 H   0  0  0  0  0  0  0  0  0  0  0  0
   -3.8193    1.7292   -1.7141 H   0  0  0  0  0  0  0  0  0  0  0  0
   -4.3067    1.0790   -3.2947 H   0  0  0  0  0  0  0  0  0  0  0  0
   -5.9783    0.5431   -1.6944 H   0  0  0  0  0  0  0  0  0  0  0  0
   -5.1163   -0.9903   -2.2644 H   0  0  0  0  0  0  0  0  0  0  0  0
   -6.5391   -0.1089    0.5442 H   0  0  0  0  0  0  0  0  0  0  0  0
   -7.7143   -0.2078    3.8927 H   0  0  0  0  0  0  0  0  0  0  0  0
   -7.8378   -1.1617    2.3727 H   0  0  0  0  0  0  0  0  0  0  0  0
   -7.4365    0.6141    2.3405 H   0  0  0  0  0  0  0  0  0  0  0  0
   -1.6624   -2.4815    2.9804 H   0  0  0  0  0  0  0  0  0  0  0  0
   -1.7131   -1.9342    4.6817 H   0  0  0  0  0  0  0  0  0  0  0  0
   -1.3461   -0.7612    3.3338 H   0  0  0  0  0  0  0  0  0  0  0  0
   -1.8019   -1.2825    1.2721 H   0  0  0  0  0  0  0  0  0  0  0  0
   -2.3110   -1.8296   -1.6545 H   0  0  0  0  0  0  0  0  0  0  0  0
   -0.4991   -1.4222   -0.4313 H   0  0  0  0  0  0  0  0  0  0  0  0
   -0.9944    0.1959    0.1276 H   0  0  0  0  0  0  0  0  0  0  0  0
    0.2974   -0.5825   -2.5367 H   0  0  0  0  0  0  0  0  0  0  0  0
    1.0327    1.3734   -0.2962 H   0  0  0  0  0  0  0  0  0  0  0  0
    2.0005    1.0715   -1.7725 H   0  0  0  0  0  0  0  0  0  0  0  0
    1.2479   -0.9899    0.3669 H   0  0  0  0  0  0  0  0  0  0  0  0
    1.4749   -2.2128   -1.5376 H   0  0  0  0  0  0  0  0  0  0  0  0
    3.4893   -3.2395   -1.5878 H   0  0  0  0  0  0  0  0  0  0  0  0
    3.0820   -2.7971    0.1555 H   0  0  0  0  0  0  0  0  0  0  0  0
    4.8708   -1.2047   -1.7558 H   0  0  0  0  0  0  0  0  0  0  0  0
    5.4466   -2.2758   -0.4368 H   0  0  0  0  0  0  0  0  0  0  0  0
    6.3906   -0.5154    0.8392 H   0  0  0  0  0  0  0  0  0  0  0  0
    7.5419   -0.2783    2.5066 H   0  0  0  0  0  0  0  0  0  0  0  0
    8.2484    1.0994    3.4015 H   0  0  0  0  0  0  0  0  0  0  0  0
    8.0325    1.1802    1.6066 H   0  0  0  0  0  0  0  0  0  0  0  0
    1.8092    2.2531    3.8358 H   0  0  0  0  0  0  0  0  0  0  0  0
    2.1007    3.2137    2.3094 H   0  0  0  0  0  0  0  0  0  0  0  0
    2.5928    3.8812    3.8990 H   0  0  0  0  0  0  0  0  0  0  0  0
    1.9406    1.3393    1.5282 H   0  0  0  0  0  0  0  0  0  0  0  0
   -0.6870    0.0000    0.0000 H   0  0  0  0  0  0  0  0  0  0  0  0
   -0.6895    0.0000    0.0000 H   0  0  0  0  0  0  0  0  0  0  0  0
  1  2  1  0
  2  3  1  0
  3  4  1  0
  4  5  1  0
  5  6  1  0
  6  7  1  0
  7  8  1  0
  8  9  2  0
  9 10  1  0
 10 11  1  0
 11 12  1  0
 10 13  2  0
 13 14  1  0
 14 15  1  0
 13 16  1  0
 16 17  2  0
 17 18  1  0
 18 19  1  0
 19 20  1  0
 20 21  1  0
 21 22  1  0
 22 23  1  0
 23 24  1  0
 24 25  1  0
 25 26  1  0
 26 27  2  0
 27 28  1  0
 28 29  1  0
 29 30  1  0
 28 31  2  0
 31 32  1  0
 32 33  1  0
 31 34  1  0
 34 35  2  0
 20  3  1  0
 35 22  1  0
 18  5  1  0
 35 26  1  0
 17  8  1  0
  1 38  1  0
  1 39  1  0
  1 40  1  0
  2 41  1  0
  2 42  1  0
  3 43  1  1
  4 44  1  0
  4 45  1  0
  6 46  1  0
  6 47  1  0
  7 48  1  0
  7 49  1  0
  9 50  1  0
 12 51  1  0
 12 52  1  0
 12 53  1  0
 15 54  1  0
 15 55  1  0
 15 56  1  0
 16 57  1  0
 18 58  1  6
 19 59  1  0
 19 60  1  0
 20 61  1  6
 21 62  1  0
 21 63  1  0
 22 64  1  1
 23 65  1  0
 24 66  1  0
 24 67  1  0
 25 68  1  0
 25 69  1  0
 27 70  1  0
 30 71  1  0
 30 72  1  0
 30 73  1  0
 33 74  1  0
 33 75  1  0
 33 76  1  0
 34 77  1  0
 36 78  1  0
 37 79  1  0
M  END
$$$$
