
     RDKit          3D

 81 85  0  0  0  0  0  0  0  0999 V2000
   -1.1998    1.5366   -3.3287 C   0  0  0  0  0  0  0  0  0  0  0  0
   -0.4425    1.2579   -2.0661 C   0  0  0  0  0  0  0  0  0  0  0  0
    0.5546    2.1102   -1.6238 C   0  0  0  0  0  0  0  0  0  0  0  0
    1.2822    1.8584   -0.4321 C   0  0  0  0  0  0  0  0  0  0  0  0
    2.1413    3.0166    0.0066 C   0  0  0  0  0  0  0  0  0  0  0  0
    1.0936    0.6379    0.2745 C   0  0  0  0  0  0  0  0  0  0  0  0
   -0.1493   -0.0199   -0.0028 C   0  0  0  0  0  0  0  0  0  0  0  0
   -0.8376    0.2398   -1.2067 C   0  0  0  0  0  0  0  0  0  0  0  0
   -0.8737   -0.8264    1.0921 C   0  0  1  0  0  0  0  0  0  0  0  0
   -2.3573   -0.8609    0.8789 N   0  0  0  0  0  0  0  0  0  0  0  0
   -3.1235   -0.0598    1.8369 C   0  0  0  0  0  0  0  0  0  0  0  0
   -4.4586    0.3730    1.2592 C   0  0  0  0  0  0  0  0  0  0  0  0
   -4.5192    1.4186    0.3251 C   0  0  0  0  0  0  0  0  0  0  0  0
   -5.7404    1.7835   -0.2648 C   0  0  0  0  0  0  0  0  0  0  0  0
   -5.8001    2.9286   -1.2479 C   0  0  0  0  0  0  0  0  0  0  0  0
   -6.8435    2.8230   -2.1192 F   0  0  0  0  0  0  0  0  0  0  0  0
   -5.9544    4.1332   -0.6276 F   0  0  0  0  0  0  0  0  0  0  0  0
   -4.6795    3.0389   -2.0170 F   0  0  0  0  0  0  0  0  0  0  0  0
   -6.9105    1.0859    0.0907 C   0  0  0  0  0  0  0  0  0  0  0  0
   -6.8695    0.0283    1.0147 C   0  0  0  0  0  0  0  0  0  0  0  0
   -8.1139   -0.7433    1.3866 C   0  0  0  0  0  0  0  0  0  0  0  0
   -7.9028   -2.0916    1.4418 F   0  0  0  0  0  0  0  0  0  0  0  0
   -8.5963   -0.3897    2.6122 F   0  0  0  0  0  0  0  0  0  0  0  0
   -9.1425   -0.5653    0.5125 F   0  0  0  0  0  0  0  0  0  0  0  0
   -5.6388   -0.3089    1.6005 C   0  0  0  0  0  0  0  0  0  0  0  0
   -2.9481   -2.0122    0.4618 C   0  0  0  0  0  0  0  0  0  0  0  0
   -3.2713   -2.1780   -0.8615 N   0  0  0  0  0  0  0  0  0  0  0  0
   -3.8487   -3.3641   -0.9767 N   0  0  0  0  0  0  0  0  0  0  0  0
   -3.8591   -3.8488    0.2744 N   0  0  0  0  0  0  0  0  0  0  0  0
   -4.3191   -5.1827    0.5547 C   0  0  0  0  0  0  0  0  0  0  0  0
   -3.3262   -3.0559    1.2205 N   0  0  0  0  0  0  0  0  0  0  0  0
   -0.2725   -2.2018    1.3902 C   0  0  0  0  0  0  0  0  0  0  0  0
    1.0883   -2.0870    2.0522 C   0  0  0  0  0  0  0  0  0  0  0  0
    2.0976   -1.4149    1.1457 C   0  0  0  0  0  0  0  0  0  0  0  0
    2.0102    0.0690    1.1871 N   0  0  0  0  0  0  0  0  0  0  0  0
    3.2987    0.7009    1.5682 C   0  0  0  0  0  0  0  0  0  0  0  0
    4.4150    0.6724    0.4782 C   0  0  1  0  0  0  0  0  0  0  0  0
    5.4717    1.7704    0.7645 C   0  0  0  0  0  0  0  0  0  0  0  0
    6.8217    1.2244    1.2338 C   0  0  0  0  0  0  0  0  0  0  0  0
    7.4542    0.2751    0.2010 C   0  0  2  0  0  0  0  0  0  0  0  0
    8.2360    1.0528   -0.8415 C   0  0  0  0  0  0  0  0  0  0  0  0
    8.3505    2.2657   -0.9194 O   0  0  0  0  0  0  0  0  0  0  0  0
    8.8502    0.2587   -1.7352 O   0  0  0  0  0  0  0  0  0  0  0  0
    6.4035   -0.6188   -0.4725 C   0  0  0  0  0  0  0  0  0  0  0  0
    5.0908   -0.7040    0.3064 C   0  0  0  0  0  0  0  0  0  0  0  0
   -1.7035    0.6350   -3.6939 H   0  0  0  0  0  0  0  0  0  0  0  0
   -0.5179    1.8664   -4.1232 H   0  0  0  0  0  0  0  0  0  0  0  0
   -1.9493    2.3143   -3.1563 H   0  0  0  0  0  0  0  0  0  0  0  0
    0.7690    3.0120   -2.2025 H   0  0  0  0  0  0  0  0  0  0  0  0
    1.8131    3.9522   -0.4708 H   0  0  0  0  0  0  0  0  0  0  0  0
    2.0256    3.1987    1.0771 H   0  0  0  0  0  0  0  0  0  0  0  0
    3.1867    2.8875   -0.2660 H   0  0  0  0  0  0  0  0  0  0  0  0
   -1.7317   -0.3198   -1.4605 H   0  0  0  0  0  0  0  0  0  0  0  0
   -0.7182   -0.2320    2.0038 H   0  0  0  0  0  0  0  0  0  0  0  0
   -2.5777    0.8566    2.0998 H   0  0  0  0  0  0  0  0  0  0  0  0
   -3.2702   -0.6087    2.7764 H   0  0  0  0  0  0  0  0  0  0  0  0
   -3.6002    1.9401    0.0474 H   0  0  0  0  0  0  0  0  0  0  0  0
   -7.8611    1.3652   -0.3737 H   0  0  0  0  0  0  0  0  0  0  0  0
   -5.5916   -1.1397    2.3052 H   0  0  0  0  0  0  0  0  0  0  0  0
   -4.3677   -5.3304    1.6390 H   0  0  0  0  0  0  0  0  0  0  0  0
   -5.3175   -5.3117    0.1318 H   0  0  0  0  0  0  0  0  0  0  0  0
   -3.6133   -5.8893    0.0987 H   0  0  0  0  0  0  0  0  0  0  0  0
   -0.1977   -2.8081    0.4776 H   0  0  0  0  0  0  0  0  0  0  0  0
   -0.9089   -2.7437    2.0992 H   0  0  0  0  0  0  0  0  0  0  0  0
    1.0097   -1.5523    3.0095 H   0  0  0  0  0  0  0  0  0  0  0  0
    1.4381   -3.1016    2.2858 H   0  0  0  0  0  0  0  0  0  0  0  0
    2.0591   -1.7949    0.1140 H   0  0  0  0  0  0  0  0  0  0  0  0
    3.0646   -1.7376    1.5486 H   0  0  0  0  0  0  0  0  0  0  0  0
    3.6825    0.1904    2.4620 H   0  0  0  0  0  0  0  0  0  0  0  0
    3.1058    1.7147    1.9259 H   0  0  0  0  0  0  0  0  0  0  0  0
    3.9623    0.9050   -0.4935 H   0  0  0  0  0  0  0  0  0  0  0  0
    5.1027    2.4854    1.5083 H   0  0  0  0  0  0  0  0  0  0  0  0
    5.6212    2.3536   -0.1507 H   0  0  0  0  0  0  0  0  0  0  0  0
    6.6767    0.6997    2.1972 H   0  0  0  0  0  0  0  0  0  0  0  0
    7.5039    2.0538    1.4583 H   0  0  0  0  0  0  0  0  0  0  0  0
    8.1893   -0.3373    0.7357 H   0  0  0  0  0  0  0  0  0  0  0  0
    9.3366    0.8774   -2.3197 H   0  0  0  0  0  0  0  0  0  0  0  0
    6.1842   -0.2668   -1.4910 H   0  0  0  0  0  0  0  0  0  0  0  0
    6.8173   -1.6289   -0.5839 H   0  0  0  0  0  0  0  0  0  0  0  0
    4.4256   -1.3749   -0.2456 H   0  0  0  0  0  0  0  0  0  0  0  0
    5.2914   -1.1561    1.2867 H   0  0  0  0  0  0  0  0  0  0  0  0
  1  2  1  0
  2  3  2  0
  3  4  1  0
  4  5  1  0
  4  6  2  0
  6  7  1  0
  7  8  2  0
  7  9  1  0
  9 10  1  0
 10 11  1  0
 11 12  1  0
 12 13  2  0
 13 14  1  0
 14 15  1  0
 15 16  1  0
 15 17  1  0
 15 18  1  0
 14 19  2  0
 19 20  1  0
 20 21  1  0
 21 22  1  0
 21 23  1  0
 21 24  1  0
 20 25  2  0
 10 26  1  0
 26 27  1  0
 27 28  2  0
 28 29  1  0
 29 30  1  0
 29 31  1  0
  9 32  1  0
 32 33  1  0
 33 34  1  0
 34 35  1  0
 35 36  1  0
 36 37  1  0
 37 38  1  0
 38 39  1  0
 39 40  1  0
 40 41  1  0
 41 42  2  0
 41 43  1  0
 40 44  1  0
 44 45  1  0
  8  2  1  0
 25 12  1  0
 31 26  2  0
 45 37  1  0
 35  6  1  0
  1 46  1  0
  1 47  1  0
  1 48  1  0
  3 49  1  0
  5 50  1  0
  5 51  1  0
  5 52  1  0
  8 53  1  0
  9 54  1  1
 11 55  1  0
 11 56  1  0
 13 57  1  0
 19 58  1  0
 25 59  1  0
 30 60  1  0
 30 61  1  0
 30 62  1  0
 32 63  1  0
 32 64  1  0
 33 65  1  0
 33 66  1  0
 34 67  1  0
 34 68  1  0
 36 69  1  0
 36 70  1  0
 37 71  1  6
 38 72  1  0
 38 73  1  0
 39 74  1  0
 39 75  1  0
 40 76  1  1
 43 77  1  0
 44 78  1  0
 44 79  1  0
 45 80  1  0
 45 81  1  0
M  END
$$$$
