
     RDKit          3D

 37 39  0  0  0  0  0  0  0  0999 V2000
   -4.4392   -1.1383    1.4145 C   0  0  0  0  0  0  0  0  0  0  0  0
   -3.5523   -1.5848    0.2489 C   0  0  0  0  0  0  0  0  0  0  0  0
   -4.3773   -1.8294   -1.0176 C   0  0  0  0  0  0  0  0  0  0  0  0
   -2.3735   -0.6558    0.0150 C   0  0  0  0  0  0  0  0  0  0  0  0
   -1.1066   -1.0904    0.1707 C   0  0  0  0  0  0  0  0  0  0  0  0
   -0.0176   -0.1001   -0.0829 C   0  0  0  0  0  0  0  0  0  0  0  0
    1.4239   -0.5970    0.0950 C   0  0  0  0  0  0  0  0  0  0  0  0
    1.6216   -1.7543    0.4288 O   0  0  0  0  0  0  0  0  0  0  0  0
    2.3430    0.3971   -0.1640 N   0  0  0  0  0  0  0  0  0  0  0  0
    3.7436    0.3202   -0.1064 C   0  0  0  0  0  0  0  0  0  0  0  0
    4.4615    1.4837   -0.4186 C   0  0  0  0  0  0  0  0  0  0  0  0
    5.8580    1.4865   -0.3837 C   0  0  0  0  0  0  0  0  0  0  0  0
    6.5352    0.3253   -0.0366 C   0  0  0  0  0  0  0  0  0  0  0  0
    7.8739    0.3261   -0.0027 F   0  0  0  0  0  0  0  0  0  0  0  0
    5.8412   -0.8361    0.2756 C   0  0  0  0  0  0  0  0  0  0  0  0
    4.4432   -0.8395    0.2409 C   0  0  0  0  0  0  0  0  0  0  0  0
   -0.1906    1.1440   -0.4408 N   0  0  0  0  0  0  0  0  0  0  0  0
   -1.4897    1.5439   -0.5875 C   0  0  0  0  0  0  0  0  0  0  0  0
   -2.0211    2.7606   -0.9468 C   0  0  0  0  0  0  0  0  0  0  0  0
   -3.4073    2.5719   -0.9285 C   0  0  0  0  0  0  0  0  0  0  0  0
   -3.7557    1.3335   -0.5855 N   0  0  0  0  0  0  0  0  0  0  0  0
   -2.5816    0.6827   -0.3707 N   0  0  0  0  0  0  0  0  0  0  0  0
   -3.8424   -0.9554    2.3148 H   0  0  0  0  0  0  0  0  0  0  0  0
   -5.1717   -1.9170    1.6547 H   0  0  0  0  0  0  0  0  0  0  0  0
   -4.9980   -0.2257    1.1862 H   0  0  0  0  0  0  0  0  0  0  0  0
   -3.1502   -2.5668    0.5382 H   0  0  0  0  0  0  0  0  0  0  0  0
   -5.1080   -2.6279   -0.8470 H   0  0  0  0  0  0  0  0  0  0  0  0
   -4.9339   -0.9406   -1.3296 H   0  0  0  0  0  0  0  0  0  0  0  0
   -3.7364   -2.1388   -1.8505 H   0  0  0  0  0  0  0  0  0  0  0  0
   -0.8420   -2.0986    0.4639 H   0  0  0  0  0  0  0  0  0  0  0  0
    1.9243    1.2874   -0.4275 H   0  0  0  0  0  0  0  0  0  0  0  0
    3.9447    2.4002   -0.6921 H   0  0  0  0  0  0  0  0  0  0  0  0
    6.4184    2.3840   -0.6244 H   0  0  0  0  0  0  0  0  0  0  0  0
    6.3879   -1.7343    0.5447 H   0  0  0  0  0  0  0  0  0  0  0  0
    3.9307   -1.7635    0.4903 H   0  0  0  0  0  0  0  0  0  0  0  0
   -1.4700    3.6572   -1.1875 H   0  0  0  0  0  0  0  0  0  0  0  0
   -4.1861    3.2901   -1.1524 H   0  0  0  0  0  0  0  0  0  0  0  0
  1  2  1  0
  2  3  1  0
  2  4  1  0
  4  5  2  0
  5  6  1  0
  6  7  1  0
  7  8  2  0
  7  9  1  0
  9 10  1  0
 10 11  2  0
 11 12  1  0
 12 13  2  0
 13 14  1  0
 13 15  1  0
 15 16  2  0
  6 17  2  0
 17 18  1  0
 18 19  2  0
 19 20  1  0
 20 21  2  0
 21 22  1  0
 22  4  1  0
 16 10  1  0
 22 18  1  0
  1 23  1  0
  1 24  1  0
  1 25  1  0
  2 26  1  0
  3 27  1  0
  3 28  1  0
  3 29  1  0
  5 30  1  0
  9 31  1  0
 11 32  1  0
 12 33  1  0
 15 34  1  0
 16 35  1  0
 19 36  1  0
 20 37  1  0
M  END
$$$$
