
     RDKit          3D

 58 61  0  0  0  0  0  0  0  0999 V2000
    7.8939    1.6489    0.8942 C   0  0  0  0  0  0  0  0  0  0  0  0
    7.1597    1.2455   -0.2550 O   0  0  0  0  0  0  0  0  0  0  0  0
    5.9611    0.6227   -0.0367 C   0  0  0  0  0  0  0  0  0  0  0  0
    5.3710    0.3965    1.2075 C   0  0  0  0  0  0  0  0  0  0  0  0
    4.1360   -0.2516    1.2867 C   0  0  0  0  0  0  0  0  0  0  0  0
    3.4887   -0.6667    0.1178 C   0  0  0  0  0  0  0  0  0  0  0  0
    2.1826   -1.3426    0.2536 C   0  0  0  0  0  0  0  0  0  0  0  0
    2.1556   -2.5675    0.3042 O   0  0  0  0  0  0  0  0  0  0  0  0
    1.0638   -0.5398    0.3089 N   0  0  0  0  0  0  0  0  0  0  0  0
    1.0116    0.9122    0.2036 C   0  0  0  0  0  0  0  0  0  0  0  0
   -0.4342    1.2811    0.5172 C   0  0  0  0  0  0  0  0  0  0  0  0
   -1.2086    0.0413    0.0515 C   0  0  0  0  0  0  0  0  0  0  0  0
   -2.5985   -0.0596    0.5290 N   0  0  0  0  0  0  0  0  0  0  0  0
   -2.8289   -0.1598    1.9065 C   0  0  0  0  0  0  0  0  0  0  0  0
   -1.9426   -0.1264    2.7519 O   0  0  0  0  0  0  0  0  0  0  0  0
   -4.2366   -0.3121    2.3728 C   0  0  0  0  0  0  0  0  0  0  0  0
   -4.5361   -1.1648    3.5883 C   0  0  0  0  0  0  0  0  0  0  0  0
   -4.9501   -1.6394    2.2302 C   0  0  0  0  0  0  0  0  0  0  0  0
   -3.6920    0.0410   -0.4703 C   0  0  0  0  0  0  0  0  0  0  0  0
   -3.8131    1.4480   -1.0720 C   0  0  0  0  0  0  0  0  0  0  0  0
   -3.0200    1.6609   -2.3573 C   0  0  0  0  0  0  0  0  0  0  0  0
   -2.8165    0.4873   -3.1381 O   0  0  0  0  0  0  0  0  0  0  0  0
   -3.7978   -0.5197   -2.9330 C   0  0  0  0  0  0  0  0  0  0  0  0
   -3.6525   -1.0757   -1.5264 C   0  0  0  0  0  0  0  0  0  0  0  0
   -0.2677   -1.1124    0.4355 C   0  0  0  0  0  0  0  0  0  0  0  0
    4.0694   -0.4622   -1.1424 C   0  0  0  0  0  0  0  0  0  0  0  0
    3.4044   -0.9363   -2.4018 C   0  0  0  0  0  0  0  0  0  0  0  0
    5.3093    0.1921   -1.2002 C   0  0  0  0  0  0  0  0  0  0  0  0
    8.1517    0.7888    1.5211 H   0  0  0  0  0  0  0  0  0  0  0  0
    7.3466    2.4058    1.4655 H   0  0  0  0  0  0  0  0  0  0  0  0
    8.8287    2.1027    0.5511 H   0  0  0  0  0  0  0  0  0  0  0  0
    5.8443    0.7070    2.1328 H   0  0  0  0  0  0  0  0  0  0  0  0
    3.6788   -0.4361    2.2561 H   0  0  0  0  0  0  0  0  0  0  0  0
    1.2756    1.1868   -0.8233 H   0  0  0  0  0  0  0  0  0  0  0  0
    1.7181    1.3841    0.8917 H   0  0  0  0  0  0  0  0  0  0  0  0
   -0.7490    2.1957    0.0064 H   0  0  0  0  0  0  0  0  0  0  0  0
   -0.5402    1.4565    1.5921 H   0  0  0  0  0  0  0  0  0  0  0  0
   -1.2256    0.0708   -1.0436 H   0  0  0  0  0  0  0  0  0  0  0  0
   -4.8230    0.5978    2.2961 H   0  0  0  0  0  0  0  0  0  0  0  0
   -3.7092   -1.6700    4.0768 H   0  0  0  0  0  0  0  0  0  0  0  0
   -5.3051   -0.8202    4.2696 H   0  0  0  0  0  0  0  0  0  0  0  0
   -6.0058   -1.6246    1.9875 H   0  0  0  0  0  0  0  0  0  0  0  0
   -4.4056   -2.4745    1.8031 H   0  0  0  0  0  0  0  0  0  0  0  0
   -4.6354   -0.1031    0.0620 H   0  0  0  0  0  0  0  0  0  0  0  0
   -3.5730    2.2282   -0.3402 H   0  0  0  0  0  0  0  0  0  0  0  0
   -4.8721    1.6014   -1.3249 H   0  0  0  0  0  0  0  0  0  0  0  0
   -3.5223    2.4060   -2.9845 H   0  0  0  0  0  0  0  0  0  0  0  0
   -2.0303    2.0688   -2.1290 H   0  0  0  0  0  0  0  0  0  0  0  0
   -3.6252   -1.3145   -3.6657 H   0  0  0  0  0  0  0  0  0  0  0  0
   -4.7999   -0.1152   -3.1177 H   0  0  0  0  0  0  0  0  0  0  0  0
   -4.4515   -1.8017   -1.3339 H   0  0  0  0  0  0  0  0  0  0  0  0
   -2.7145   -1.6389   -1.4615 H   0  0  0  0  0  0  0  0  0  0  0  0
   -0.3818   -1.4603    1.4656 H   0  0  0  0  0  0  0  0  0  0  0  0
   -0.3825   -1.9759   -0.2283 H   0  0  0  0  0  0  0  0  0  0  0  0
    3.2927   -2.0252   -2.3865 H   0  0  0  0  0  0  0  0  0  0  0  0
    2.4206   -0.4705   -2.5154 H   0  0  0  0  0  0  0  0  0  0  0  0
    3.9943   -0.6770   -3.2874 H   0  0  0  0  0  0  0  0  0  0  0  0
    5.7887    0.3671   -2.1617 H   0  0  0  0  0  0  0  0  0  0  0  0
  1  2  1  0
  2  3  1  0
  3  4  2  0
  4  5  1  0
  5  6  2  0
  6  7  1  0
  7  8  2  0
  7  9  1  0
  9 10  1  0
 10 11  1  0
 11 12  1  0
 12 13  1  0
 13 14  1  0
 14 15  2  0
 14 16  1  0
 16 17  1  0
 17 18  1  0
 13 19  1  0
 19 20  1  0
 20 21  1  0
 21 22  1  0
 22 23  1  0
 23 24  1  0
 12 25  1  0
  6 26  1  0
 26 27  1  0
 26 28  2  0
 28  3  1  0
 25  9  1  0
 18 16  1  0
 24 19  1  0
  1 29  1  0
  1 30  1  0
  1 31  1  0
  4 32  1  0
  5 33  1  0
 10 34  1  0
 10 35  1  0
 11 36  1  0
 11 37  1  0
 12 38  1  0
 16 39  1  0
 17 40  1  0
 17 41  1  0
 18 42  1  0
 18 43  1  0
 19 44  1  0
 20 45  1  0
 20 46  1  0
 21 47  1  0
 21 48  1  0
 23 49  1  0
 23 50  1  0
 24 51  1  0
 24 52  1  0
 25 53  1  0
 25 54  1  0
 27 55  1  0
 27 56  1  0
 27 57  1  0
 28 58  1  0
M  END
$$$$
