
     RDKit          3D

 46 47  0  0  0  0  0  0  0  0999 V2000
   -8.9733    2.2208    1.2858 C   0  0  0  0  0  0  0  0  0  0  0  0
   -8.2338    1.0105    1.3801 O   0  0  0  0  0  0  0  0  0  0  0  0
   -6.9713    1.0142    0.8589 C   0  0  0  0  0  0  0  0  0  0  0  0
   -6.3356   -0.2287    0.8539 C   0  0  0  0  0  0  0  0  0  0  0  0
   -5.0355   -0.3719    0.3561 C   0  0  0  0  0  0  0  0  0  0  0  0
   -4.3557    0.7299   -0.1583 C   0  0  0  0  0  0  0  0  0  0  0  0
   -3.0513    0.6784   -0.6830 N   0  0  0  0  0  0  0  0  0  0  0  0
   -2.2234   -0.4277   -0.8358 C   0  0  0  0  0  0  0  0  0  0  0  0
   -2.5399   -1.5798   -0.5557 O   0  0  0  0  0  0  0  0  0  0  0  0
   -0.9207   -0.0633   -1.3809 C   0  0  0  0  0  0  0  0  0  0  0  0
   -0.5854    1.1789   -1.6770 N   0  0  0  0  0  0  0  0  0  0  0  0
    0.7041    1.2614   -2.1628 N   0  0  0  0  0  0  0  0  0  0  0  0
    1.2893    0.0789   -2.2243 C   0  0  0  0  0  0  0  0  0  0  0  0
    2.6811   -0.1563   -2.7132 C   0  0  0  0  0  0  0  0  0  0  0  0
    3.6232    0.1415   -1.6537 N   0  0  0  0  0  0  0  0  0  0  0  0
    4.1292   -0.8489   -0.8585 C   0  0  0  0  0  0  0  0  0  0  0  0
    3.8125   -2.0249   -0.9660 O   0  0  0  0  0  0  0  0  0  0  0  0
    5.0228   -0.3420    0.0516 N   0  0  0  0  0  0  0  0  0  0  0  0
    5.6666   -1.1538    1.0988 C   0  0  0  0  0  0  0  0  0  0  0  0
    6.4593   -2.3257    0.4975 C   0  0  0  0  0  0  0  0  0  0  0  0
    4.6207   -1.6762    2.0960 C   0  0  0  0  0  0  0  0  0  0  0  0
    6.6586   -0.2471    1.8513 C   0  0  0  0  0  0  0  0  0  0  0  0
    0.2964   -1.2233   -1.6918 S   0  0  0  0  0  0  0  0  0  0  0  0
   -4.9952    1.9765   -0.1553 C   0  0  0  0  0  0  0  0  0  0  0  0
   -6.2918    2.1210    0.3564 C   0  0  0  0  0  0  0  0  0  0  0  0
   -8.5266    3.0043    1.9064 H   0  0  0  0  0  0  0  0  0  0  0  0
   -9.9801    2.0236    1.6694 H   0  0  0  0  0  0  0  0  0  0  0  0
   -9.0743    2.5472    0.2464 H   0  0  0  0  0  0  0  0  0  0  0  0
   -6.8558   -1.1014    1.2466 H   0  0  0  0  0  0  0  0  0  0  0  0
   -4.5907   -1.3606    0.3932 H   0  0  0  0  0  0  0  0  0  0  0  0
   -2.6414    1.5599   -0.9828 H   0  0  0  0  0  0  0  0  0  0  0  0
    2.8989    0.5281   -3.5398 H   0  0  0  0  0  0  0  0  0  0  0  0
    2.8227   -1.1786   -3.0797 H   0  0  0  0  0  0  0  0  0  0  0  0
    4.1308    1.0127   -1.7027 H   0  0  0  0  0  0  0  0  0  0  0  0
    4.8073    0.6076    0.3200 H   0  0  0  0  0  0  0  0  0  0  0  0
    7.1519   -1.9748   -0.2754 H   0  0  0  0  0  0  0  0  0  0  0  0
    7.0459   -2.8408    1.2662 H   0  0  0  0  0  0  0  0  0  0  0  0
    5.8045   -3.0746    0.0416 H   0  0  0  0  0  0  0  0  0  0  0  0
    5.0960   -2.2094    2.9270 H   0  0  0  0  0  0  0  0  0  0  0  0
    3.9182   -2.3686    1.6213 H   0  0  0  0  0  0  0  0  0  0  0  0
    4.0327   -0.8506    2.5147 H   0  0  0  0  0  0  0  0  0  0  0  0
    7.4443    0.1162    1.1773 H   0  0  0  0  0  0  0  0  0  0  0  0
    6.1560    0.6340    2.2668 H   0  0  0  0  0  0  0  0  0  0  0  0
    7.1445   -0.7829    2.6752 H   0  0  0  0  0  0  0  0  0  0  0  0
   -4.4961    2.8563   -0.5511 H   0  0  0  0  0  0  0  0  0  0  0  0
   -6.7393    3.1100    0.3471 H   0  0  0  0  0  0  0  0  0  0  0  0
  1  2  1  0
  2  3  1  0
  3  4  2  0
  4  5  1  0
  5  6  2  0
  6  7  1  0
  7  8  1  0
  8  9  2  0
  8 10  1  0
 10 11  2  0
 11 12  1  0
 12 13  2  0
 13 14  1  0
 14 15  1  0
 15 16  1  0
 16 17  2  0
 16 18  1  0
 18 19  1  0
 19 20  1  0
 19 21  1  0
 19 22  1  0
 13 23  1  0
  6 24  1  0
 24 25  2  0
 25  3  1  0
 23 10  1  0
  1 26  1  0
  1 27  1  0
  1 28  1  0
  4 29  1  0
  5 30  1  0
  7 31  1  0
 14 32  1  0
 14 33  1  0
 15 34  1  0
 18 35  1  0
 20 36  1  0
 20 37  1  0
 20 38  1  0
 21 39  1  0
 21 40  1  0
 21 41  1  0
 22 42  1  0
 22 43  1  0
 22 44  1  0
 24 45  1  0
 25 46  1  0
M  END
$$$$
