
     RDKit          3D

 61 64  0  0  0  0  0  0  0  0999 V2000
    7.6554   -1.8280   -2.3318 C   0  0  0  0  0  0  0  0  0  0  0  0
    8.1335   -1.7112   -0.9979 O   0  0  0  0  0  0  0  0  0  0  0  0
    7.1965   -1.0929   -0.1145 C   0  0  0  0  0  0  0  0  0  0  0  0
    7.2237    0.4287   -0.2561 C   0  0  0  0  0  0  0  0  0  0  0  0
    6.3387    1.1145    0.7759 C   0  0  0  0  0  0  0  0  0  0  0  0
    4.9308    0.8598    0.5359 N   0  0  0  0  0  0  0  0  0  0  0  0
    4.0138    1.1455    1.5194 C   0  0  0  0  0  0  0  0  0  0  0  0
    4.3404    1.5610    2.6272 O   0  0  0  0  0  0  0  0  0  0  0  0
    2.7019    0.9190    1.1537 N   0  0  0  0  0  0  0  0  0  0  0  0
    1.6439    1.2682    2.0990 C   0  0  0  0  0  0  0  0  0  0  0  0
    0.2873    1.5279    1.4124 C   0  0  0  0  0  0  0  0  0  0  0  0
   -0.1462    0.5094    0.4269 N   0  0  0  0  0  0  0  0  0  0  0  0
   -1.4271   -0.1265    0.7867 C   0  0  0  0  0  0  0  0  0  0  0  0
   -2.6241    0.7860    0.6402 C   0  0  0  0  0  0  0  0  0  0  0  0
   -2.5976    2.1013    0.8073 N   0  0  0  0  0  0  0  0  0  0  0  0
   -3.8048    2.5550    0.3705 C   0  0  0  0  0  0  0  0  0  0  0  0
   -4.3013    3.8608    0.2820 C   0  0  0  0  0  0  0  0  0  0  0  0
   -5.5985    4.0237   -0.2025 C   0  0  0  0  0  0  0  0  0  0  0  0
   -6.3262    2.8977   -0.5656 C   0  0  0  0  0  0  0  0  0  0  0  0
   -5.8920    1.6180   -0.4962 N   0  0  0  0  0  0  0  0  0  0  0  0
   -4.6237    1.5077   -0.0313 C   0  0  0  0  0  0  0  0  0  0  0  0
   -3.8915    0.3524    0.2238 N   0  0  0  0  0  0  0  0  0  0  0  0
   -4.3667   -0.9890    0.0928 C   0  0  0  0  0  0  0  0  0  0  0  0
   -3.9243   -1.9931    0.9642 C   0  0  0  0  0  0  0  0  0  0  0  0
   -4.4020   -3.2992    0.8344 C   0  0  0  0  0  0  0  0  0  0  0  0
   -5.3268   -3.6134   -0.1595 C   0  0  0  0  0  0  0  0  0  0  0  0
   -5.7845   -2.6240   -1.0345 C   0  0  0  0  0  0  0  0  0  0  0  0
   -6.8160   -2.9472   -2.0755 C   0  0  0  0  0  0  0  0  0  0  0  0
   -5.3140   -1.3098   -0.8910 C   0  0  0  0  0  0  0  0  0  0  0  0
    0.8965   -0.4953    0.1697 C   0  0  0  0  0  0  0  0  0  0  0  0
    2.2868    0.1383   -0.0139 C   0  0  0  0  0  0  0  0  0  0  0  0
    7.5140   -0.8430   -2.7840 H   0  0  0  0  0  0  0  0  0  0  0  0
    6.7195   -2.3955   -2.3587 H   0  0  0  0  0  0  0  0  0  0  0  0
    8.4048   -2.3691   -2.9162 H   0  0  0  0  0  0  0  0  0  0  0  0
    6.1935   -1.5034   -0.2783 H   0  0  0  0  0  0  0  0  0  0  0  0
    7.4987   -1.3680    0.9024 H   0  0  0  0  0  0  0  0  0  0  0  0
    6.9160    0.7215   -1.2668 H   0  0  0  0  0  0  0  0  0  0  0  0
    8.2574    0.7774   -0.1403 H   0  0  0  0  0  0  0  0  0  0  0  0
    6.6008    0.7893    1.7897 H   0  0  0  0  0  0  0  0  0  0  0  0
    6.4824    2.2004    0.7301 H   0  0  0  0  0  0  0  0  0  0  0  0
    4.5944    1.1043   -0.3832 H   0  0  0  0  0  0  0  0  0  0  0  0
    1.9394    2.1505    2.6772 H   0  0  0  0  0  0  0  0  0  0  0  0
    1.5530    0.4322    2.8037 H   0  0  0  0  0  0  0  0  0  0  0  0
    0.3628    2.4765    0.8652 H   0  0  0  0  0  0  0  0  0  0  0  0
   -0.4563    1.6857    2.2030 H   0  0  0  0  0  0  0  0  0  0  0  0
   -1.5685   -0.9781    0.1109 H   0  0  0  0  0  0  0  0  0  0  0  0
   -1.3811   -0.5142    1.8115 H   0  0  0  0  0  0  0  0  0  0  0  0
   -3.6926    4.7048    0.5832 H   0  0  0  0  0  0  0  0  0  0  0  0
   -6.0343    5.0130   -0.2910 H   0  0  0  0  0  0  0  0  0  0  0  0
   -7.3426    3.0062   -0.9396 H   0  0  0  0  0  0  0  0  0  0  0  0
   -3.2567   -1.7832    1.7937 H   0  0  0  0  0  0  0  0  0  0  0  0
   -4.0681   -4.0711    1.5238 H   0  0  0  0  0  0  0  0  0  0  0  0
   -5.6979   -4.6329   -0.2402 H   0  0  0  0  0  0  0  0  0  0  0  0
   -6.7353   -3.9912   -2.3959 H   0  0  0  0  0  0  0  0  0  0  0  0
   -6.6812   -2.3234   -2.9656 H   0  0  0  0  0  0  0  0  0  0  0  0
   -7.8192   -2.7783   -1.6723 H   0  0  0  0  0  0  0  0  0  0  0  0
   -5.6814   -0.5522   -1.5808 H   0  0  0  0  0  0  0  0  0  0  0  0
    0.6470   -1.0545   -0.7400 H   0  0  0  0  0  0  0  0  0  0  0  0
    0.9420   -1.2176    0.9963 H   0  0  0  0  0  0  0  0  0  0  0  0
    3.0228   -0.6490   -0.2089 H   0  0  0  0  0  0  0  0  0  0  0  0
    2.2849    0.8178   -0.8743 H   0  0  0  0  0  0  0  0  0  0  0  0
  1  2  1  0
  2  3  1  0
  3  4  1  0
  4  5  1  0
  5  6  1  0
  6  7  1  0
  7  8  2  0
  7  9  1  0
  9 10  1  0
 10 11  1  0
 11 12  1  0
 12 13  1  0
 13 14  1  0
 14 15  2  0
 15 16  1  0
 16 17  2  0
 17 18  1  0
 18 19  2  0
 19 20  1  0
 20 21  2  0
 21 22  1  0
 22 23  1  0
 23 24  2  0
 24 25  1  0
 25 26  2  0
 26 27  1  0
 27 28  1  0
 27 29  2  0
 12 30  1  0
 30 31  1  0
 31  9  1  0
 22 14  1  0
 29 23  1  0
 21 16  1  0
  1 32  1  0
  1 33  1  0
  1 34  1  0
  3 35  1  0
  3 36  1  0
  4 37  1  0
  4 38  1  0
  5 39  1  0
  5 40  1  0
  6 41  1  0
 10 42  1  0
 10 43  1  0
 11 44  1  0
 11 45  1  0
 13 46  1  0
 13 47  1  0
 17 48  1  0
 18 49  1  0
 19 50  1  0
 24 51  1  0
 25 52  1  0
 26 53  1  0
 28 54  1  0
 28 55  1  0
 28 56  1  0
 29 57  1  0
 30 58  1  0
 30 59  1  0
 31 60  1  0
 31 61  1  0
M  END
$$$$
