
     RDKit          3D

 52 54  0  0  0  0  0  0  0  0999 V2000
    4.0261   -2.2632   -2.6458 C   0  0  0  0  0  0  0  0  0  0  0  0
    3.2267   -1.4460   -1.8008 O   0  0  0  0  0  0  0  0  0  0  0  0
    3.8672   -0.5271   -1.0193 C   0  0  0  0  0  0  0  0  0  0  0  0
    5.2321   -0.5807   -0.7170 C   0  0  0  0  0  0  0  0  0  0  0  0
    5.8219    0.3829    0.1101 C   0  0  0  0  0  0  0  0  0  0  0  0
    5.0617    1.4250    0.6473 C   0  0  0  0  0  0  0  0  0  0  0  0
    5.6906    2.4405    1.5545 C   0  0  0  0  0  0  0  0  0  0  0  0
    3.6925    1.4729    0.3689 C   0  0  0  0  0  0  0  0  0  0  0  0
    3.1022    0.5023   -0.4573 C   0  0  0  0  0  0  0  0  0  0  0  0
    1.3612    0.6259   -0.7937 S   0  0  0  0  0  6  0  0  0  0  0  0
    0.8216    1.6938    0.0279 O   0  0  0  0  0  0  0  0  0  0  0  0
    1.1848    0.6693   -2.2298 O   0  0  0  0  0  0  0  0  0  0  0  0
    0.7164   -0.8286   -0.1895 N   0  0  0  0  0  0  0  0  0  0  0  0
    0.8465   -1.1104    1.2576 C   0  0  0  0  0  0  0  0  0  0  0  0
   -0.2909   -0.4872    2.0613 C   0  0  0  0  0  0  0  0  0  0  0  0
   -1.6637   -0.8400    1.4919 C   0  0  0  0  0  0  0  0  0  0  0  0
   -1.7454   -0.5261   -0.0082 C   0  0  0  0  0  0  0  0  0  0  0  0
   -3.0866   -0.9804   -0.5760 C   0  0  0  0  0  0  0  0  0  0  0  0
   -3.1786   -2.0632   -1.1592 O   0  0  0  0  0  0  0  0  0  0  0  0
   -4.1929   -0.1603   -0.3976 N   0  0  0  0  0  0  0  0  0  0  0  0
   -5.5081   -0.6765   -0.7939 C   0  0  0  0  0  0  0  0  0  0  0  0
   -6.4330    0.4414   -1.2816 C   0  0  0  0  0  0  0  0  0  0  0  0
   -6.5259    1.4965   -0.3130 O   0  0  0  0  0  0  0  0  0  0  0  0
   -5.2327    2.0710   -0.0813 C   0  0  0  0  0  0  0  0  0  0  0  0
   -4.2535    1.0267    0.4657 C   0  0  0  0  0  0  0  0  0  0  0  0
   -0.6041   -1.2414   -0.7385 C   0  0  0  0  0  0  0  0  0  0  0  0
    4.5759   -3.0068   -2.0603 H   0  0  0  0  0  0  0  0  0  0  0  0
    3.3549   -2.8022   -3.3213 H   0  0  0  0  0  0  0  0  0  0  0  0
    4.7054   -1.6622   -3.2598 H   0  0  0  0  0  0  0  0  0  0  0  0
    5.8687   -1.3719   -1.1011 H   0  0  0  0  0  0  0  0  0  0  0  0
    6.8855    0.3111    0.3304 H   0  0  0  0  0  0  0  0  0  0  0  0
    5.6264    2.1041    2.5939 H   0  0  0  0  0  0  0  0  0  0  0  0
    6.7436    2.5958    1.2971 H   0  0  0  0  0  0  0  0  0  0  0  0
    5.1882    3.4093    1.4636 H   0  0  0  0  0  0  0  0  0  0  0  0
    3.0863    2.2722    0.7921 H   0  0  0  0  0  0  0  0  0  0  0  0
    0.8425   -2.1995    1.3908 H   0  0  0  0  0  0  0  0  0  0  0  0
    1.8117   -0.7653    1.6401 H   0  0  0  0  0  0  0  0  0  0  0  0
   -0.2292   -0.8262    3.1018 H   0  0  0  0  0  0  0  0  0  0  0  0
   -0.1837    0.6026    2.0854 H   0  0  0  0  0  0  0  0  0  0  0  0
   -1.8610   -1.9075    1.6577 H   0  0  0  0  0  0  0  0  0  0  0  0
   -2.4335   -0.3004    2.0526 H   0  0  0  0  0  0  0  0  0  0  0  0
   -1.6301    0.5477   -0.1834 H   0  0  0  0  0  0  0  0  0  0  0  0
   -5.4156   -1.4434   -1.5691 H   0  0  0  0  0  0  0  0  0  0  0  0
   -5.9343   -1.1487    0.0995 H   0  0  0  0  0  0  0  0  0  0  0  0
   -6.0780    0.8596   -2.2311 H   0  0  0  0  0  0  0  0  0  0  0  0
   -7.4410    0.0481   -1.4455 H   0  0  0  0  0  0  0  0  0  0  0  0
   -5.3527    2.8843    0.6413 H   0  0  0  0  0  0  0  0  0  0  0  0
   -4.8615    2.5060   -1.0170 H   0  0  0  0  0  0  0  0  0  0  0  0
   -3.2728    1.4845    0.5989 H   0  0  0  0  0  0  0  0  0  0  0  0
   -4.6004    0.6751    1.4446 H   0  0  0  0  0  0  0  0  0  0  0  0
   -0.6840   -2.3314   -0.6299 H   0  0  0  0  0  0  0  0  0  0  0  0
   -0.6475   -1.0521   -1.8170 H   0  0  0  0  0  0  0  0  0  0  0  0
  1  2  1  0
  2  3  1  0
  3  4  2  0
  4  5  1  0
  5  6  2  0
  6  7  1  0
  6  8  1  0
  8  9  2  0
  9 10  1  0
 10 11  2  0
 10 12  2  0
 10 13  1  0
 13 14  1  0
 14 15  1  0
 15 16  1  0
 16 17  1  0
 17 18  1  0
 18 19  2  0
 18 20  1  0
 20 21  1  0
 21 22  1  0
 22 23  1  0
 23 24  1  0
 24 25  1  0
 17 26  1  0
  9  3  1  0
 26 13  1  0
 25 20  1  0
  1 27  1  0
  1 28  1  0
  1 29  1  0
  4 30  1  0
  5 31  1  0
  7 32  1  0
  7 33  1  0
  7 34  1  0
  8 35  1  0
 14 36  1  0
 14 37  1  0
 15 38  1  0
 15 39  1  0
 16 40  1  0
 16 41  1  0
 17 42  1  0
 21 43  1  0
 21 44  1  0
 22 45  1  0
 22 46  1  0
 24 47  1  0
 24 48  1  0
 25 49  1  0
 25 50  1  0
 26 51  1  0
 26 52  1  0
M  END
$$$$
