
     RDKit          3D

 52 54  0  0  0  0  0  0  0  0999 V2000
   -5.4894    2.9235   -1.0401 C   0  0  0  0  0  0  0  0  0  0  0  0
   -5.0482    2.7020    0.4000 C   0  0  0  0  0  0  0  0  0  0  0  0
   -3.9481    1.6487    0.5223 C   0  0  0  0  0  0  0  0  0  0  0  0
   -4.4937    0.3311    0.1869 N   0  0  0  0  0  0  0  0  0  0  0  0
   -3.4720   -0.8564   -0.3739 S   0  0  0  0  0  6  0  0  0  0  0  0
   -2.6483   -0.3301   -1.4335 O   0  0  0  0  0  0  0  0  0  0  0  0
   -4.2944   -2.0285   -0.5602 O   0  0  0  0  0  0  0  0  0  0  0  0
   -2.5633   -1.1769    0.9975 N   0  0  0  0  0  0  0  0  0  0  0  0
   -1.2281   -0.6722    0.9568 C   0  0  0  0  0  0  0  0  0  0  0  0
   -1.1314    0.5953    1.3904 N   0  0  0  0  0  0  0  0  0  0  0  0
    0.0920    1.1285    1.3379 C   0  0  0  0  0  0  0  0  0  0  0  0
    1.1971    0.5151    0.9060 N   0  0  0  0  0  0  0  0  0  0  0  0
    1.0416   -0.7513    0.4783 C   0  0  0  0  0  0  0  0  0  0  0  0
    2.1507   -1.4333    0.0133 O   0  0  0  0  0  0  0  0  0  0  0  0
    3.3787   -0.6988    0.0244 C   0  0  0  0  0  0  0  0  0  0  0  0
    3.5080    0.2122   -1.1979 C   0  0  0  0  0  0  0  0  0  0  0  0
    4.8463    0.6783   -1.3684 O   0  0  0  0  0  0  0  0  0  0  0  0
    5.1722    1.7883   -0.6254 C   0  0  0  0  0  0  0  0  0  0  0  0
    6.4150    2.2504   -0.8303 N   0  0  0  0  0  0  0  0  0  0  0  0
    6.7765    3.3309   -0.1063 C   0  0  0  0  0  0  0  0  0  0  0  0
    5.9483    3.9458    0.8024 C   0  0  0  0  0  0  0  0  0  0  0  0
    6.4856    5.4459    1.7932 Br  0  0  0  0  0  0  0  0  0  0  0  0
    4.6994    3.3866    0.9377 C   0  0  0  0  0  0  0  0  0  0  0  0
    4.2853    2.3078    0.2391 N   0  0  0  0  0  0  0  0  0  0  0  0
   -0.1683   -1.4295    0.4718 C   0  0  0  0  0  0  0  0  0  0  0  0
   -0.3051   -2.8163    0.0173 C   0  0  0  0  0  0  0  0  0  0  0  0
   -0.6390   -3.1081   -1.3147 C   0  0  0  0  0  0  0  0  0  0  0  0
   -0.7927   -4.4304   -1.7398 C   0  0  0  0  0  0  0  0  0  0  0  0
   -0.6060   -5.4730   -0.8363 C   0  0  0  0  0  0  0  0  0  0  0  0
   -0.8107   -7.2620   -1.4098 Br  0  0  0  0  0  0  0  0  0  0  0  0
   -0.2670   -5.2060    0.4880 C   0  0  0  0  0  0  0  0  0  0  0  0
   -0.1172   -3.8828    0.9121 C   0  0  0  0  0  0  0  0  0  0  0  0
   -4.6442    3.2251   -1.6671 H   0  0  0  0  0  0  0  0  0  0  0  0
   -6.2438    3.7151   -1.0854 H   0  0  0  0  0  0  0  0  0  0  0  0
   -5.9286    2.0167   -1.4675 H   0  0  0  0  0  0  0  0  0  0  0  0
   -5.9173    2.4159    1.0040 H   0  0  0  0  0  0  0  0  0  0  0  0
   -4.6743    3.6513    0.8011 H   0  0  0  0  0  0  0  0  0  0  0  0
   -3.1145    1.9167   -0.1337 H   0  0  0  0  0  0  0  0  0  0  0  0
   -3.5954    1.6307    1.5581 H   0  0  0  0  0  0  0  0  0  0  0  0
   -5.1874   -0.0412    0.8313 H   0  0  0  0  0  0  0  0  0  0  0  0
   -2.5846   -2.1902    1.1132 H   0  0  0  0  0  0  0  0  0  0  0  0
    0.1995    2.1533    1.6764 H   0  0  0  0  0  0  0  0  0  0  0  0
    4.1829   -1.4438   -0.0149 H   0  0  0  0  0  0  0  0  0  0  0  0
    3.5363   -0.1720    0.9734 H   0  0  0  0  0  0  0  0  0  0  0  0
    2.7770    1.0301   -1.2045 H   0  0  0  0  0  0  0  0  0  0  0  0
    3.2692   -0.3773   -2.0919 H   0  0  0  0  0  0  0  0  0  0  0  0
    7.7849    3.6880   -0.2926 H   0  0  0  0  0  0  0  0  0  0  0  0
    3.9665    3.7917    1.6289 H   0  0  0  0  0  0  0  0  0  0  0  0
   -0.7856   -2.3042   -2.0364 H   0  0  0  0  0  0  0  0  0  0  0  0
   -1.0571   -4.6320   -2.7750 H   0  0  0  0  0  0  0  0  0  0  0  0
   -0.1141   -6.0174    1.1951 H   0  0  0  0  0  0  0  0  0  0  0  0
    0.1568   -3.6911    1.9483 H   0  0  0  0  0  0  0  0  0  0  0  0
  1  2  1  0
  2  3  1  0
  3  4  1  0
  4  5  1  0
  5  6  2  0
  5  7  2  0
  5  8  1  0
  8  9  1  0
  9 10  2  0
 10 11  1  0
 11 12  2  0
 12 13  1  0
 13 14  1  0
 14 15  1  0
 15 16  1  0
 16 17  1  0
 17 18  1  0
 18 19  2  0
 19 20  1  0
 20 21  2  0
 21 22  1  0
 21 23  1  0
 23 24  2  0
 13 25  2  0
 25 26  1  0
 26 27  2  0
 27 28  1  0
 28 29  2  0
 29 30  1  0
 29 31  1  0
 31 32  2  0
 25  9  1  0
 32 26  1  0
 24 18  1  0
  1 33  1  0
  1 34  1  0
  1 35  1  0
  2 36  1  0
  2 37  1  0
  3 38  1  0
  3 39  1  0
  4 40  1  0
  8 41  1  0
 11 42  1  0
 15 43  1  0
 15 44  1  0
 16 45  1  0
 16 46  1  0
 20 47  1  0
 23 48  1  0
 27 49  1  0
 28 50  1  0
 31 51  1  0
 32 52  1  0
M  END
$$$$
