
     RDKit          3D

 50 52  0  0  0  0  0  0  0  0999 V2000
   -3.6243    1.1226    2.1255 C   0  0  0  0  0  0  0  0  0  0  0  0
   -2.1928    1.1266    1.6588 C   0  0  0  0  0  0  0  0  0  0  0  0
   -1.3452    1.6579    2.3814 O   0  0  0  0  0  0  0  0  0  0  0  0
   -1.8549    0.5120    0.4526 N   0  0  0  0  0  0  0  0  0  0  0  0
   -2.8029   -0.0154   -0.5599 C   0  0  0  0  0  0  0  0  0  0  0  0
   -3.5776    1.0903   -1.2909 C   0  0  0  0  0  0  0  0  0  0  0  0
   -4.9035    0.5670   -1.8305 C   0  0  0  0  0  0  0  0  0  0  0  0
   -4.7376   -0.7662   -2.3012 O   0  0  0  0  0  0  0  0  0  0  0  0
   -4.5134   -1.7121   -1.2525 C   0  0  0  0  0  0  0  0  0  0  0  0
   -3.7204   -1.1404   -0.0757 C   0  0  0  0  0  0  0  0  0  0  0  0
   -0.4232    0.5434    0.0567 C   0  0  0  0  0  0  0  0  0  0  0  0
    0.0814    1.9704   -0.2483 C   0  0  0  0  0  0  0  0  0  0  0  0
    1.4998    2.2161    0.2649 C   0  0  0  0  0  0  0  0  0  0  0  0
    2.4142    1.0235   -0.0011 C   0  0  0  0  0  0  0  0  0  0  0  0
    1.8914   -0.2316    0.5473 N   0  0  0  0  0  0  0  0  0  0  0  0
    2.6844   -1.3296    0.8735 C   0  0  0  0  0  0  0  0  0  0  0  0
    2.2972   -2.2784    1.5503 O   0  0  0  0  0  0  0  0  0  0  0  0
    4.0791   -1.3756    0.3842 C   0  0  0  0  0  0  0  0  0  0  0  0
    5.1137   -1.5400    1.3163 C   0  0  0  0  0  0  0  0  0  0  0  0
    6.4376   -1.6145    0.8784 C   0  0  0  0  0  0  0  0  0  0  0  0
    6.7121   -1.5397   -0.4842 C   0  0  0  0  0  0  0  0  0  0  0  0
    7.9831   -1.6094   -0.9023 F   0  0  0  0  0  0  0  0  0  0  0  0
    5.6791   -1.4005   -1.4069 C   0  0  0  0  0  0  0  0  0  0  0  0
    5.9511   -1.3404   -2.7177 F   0  0  0  0  0  0  0  0  0  0  0  0
    4.3566   -1.3251   -0.9849 C   0  0  0  0  0  0  0  0  0  0  0  0
    0.5053   -0.2192    1.0284 C   0  0  0  0  0  0  0  0  0  0  0  0
   -3.7462    1.8943    2.8934 H   0  0  0  0  0  0  0  0  0  0  0  0
   -4.3283    1.3592    1.3298 H   0  0  0  0  0  0  0  0  0  0  0  0
   -3.8571    0.1562    2.5791 H   0  0  0  0  0  0  0  0  0  0  0  0
   -2.1865   -0.5000   -1.3296 H   0  0  0  0  0  0  0  0  0  0  0  0
   -2.9572    1.4365   -2.1282 H   0  0  0  0  0  0  0  0  0  0  0  0
   -3.7528    1.9770   -0.6741 H   0  0  0  0  0  0  0  0  0  0  0  0
   -5.2392    1.1893   -2.6662 H   0  0  0  0  0  0  0  0  0  0  0  0
   -5.6894    0.5938   -1.0663 H   0  0  0  0  0  0  0  0  0  0  0  0
   -5.4807   -2.0972   -0.9113 H   0  0  0  0  0  0  0  0  0  0  0  0
   -3.9701   -2.5532   -1.6961 H   0  0  0  0  0  0  0  0  0  0  0  0
   -4.4445   -0.7760    0.6562 H   0  0  0  0  0  0  0  0  0  0  0  0
   -3.1553   -1.9357    0.4236 H   0  0  0  0  0  0  0  0  0  0  0  0
   -0.3340   -0.0042   -0.8912 H   0  0  0  0  0  0  0  0  0  0  0  0
   -0.5829    2.7423    0.1561 H   0  0  0  0  0  0  0  0  0  0  0  0
    0.0628    2.1165   -1.3365 H   0  0  0  0  0  0  0  0  0  0  0  0
    1.9122    3.1164   -0.2041 H   0  0  0  0  0  0  0  0  0  0  0  0
    1.4625    2.4116    1.3441 H   0  0  0  0  0  0  0  0  0  0  0  0
    3.4062    1.2197    0.4193 H   0  0  0  0  0  0  0  0  0  0  0  0
    2.5253    0.8842   -1.0821 H   0  0  0  0  0  0  0  0  0  0  0  0
    4.8838   -1.6141    2.3778 H   0  0  0  0  0  0  0  0  0  0  0  0
    7.2512   -1.7370    1.5868 H   0  0  0  0  0  0  0  0  0  0  0  0
    3.5622   -1.2447   -1.7193 H   0  0  0  0  0  0  0  0  0  0  0  0
    0.1423   -1.2473    1.1447 H   0  0  0  0  0  0  0  0  0  0  0  0
    0.5253    0.2205    2.0305 H   0  0  0  0  0  0  0  0  0  0  0  0
  1  2  1  0
  2  3  2  0
  2  4  1  0
  4  5  1  0
  5  6  1  0
  6  7  1  0
  7  8  1  0
  8  9  1  0
  9 10  1  0
  4 11  1  0
 11 12  1  0
 12 13  1  0
 13 14  1  0
 14 15  1  0
 15 16  1  0
 16 17  2  0
 16 18  1  0
 18 19  2  0
 19 20  1  0
 20 21  2  0
 21 22  1  0
 21 23  1  0
 23 24  1  0
 23 25  2  0
 15 26  1  0
 10  5  1  0
 26 11  1  0
 25 18  1  0
  1 27  1  0
  1 28  1  0
  1 29  1  0
  5 30  1  0
  6 31  1  0
  6 32  1  0
  7 33  1  0
  7 34  1  0
  9 35  1  0
  9 36  1  0
 10 37  1  0
 10 38  1  0
 11 39  1  0
 12 40  1  0
 12 41  1  0
 13 42  1  0
 13 43  1  0
 14 44  1  0
 14 45  1  0
 19 46  1  0
 20 47  1  0
 25 48  1  0
 26 49  1  0
 26 50  1  0
M  END
$$$$
