
     RDKit          3D

 47 49  0  0  0  0  0  0  0  0999 V2000
    7.7556    0.7345    0.7065 C   0  0  0  0  0  0  0  0  0  0  0  0
    6.8425    1.6090    0.0580 O   0  0  0  0  0  0  0  0  0  0  0  0
    5.7529    0.9306   -0.5744 C   0  0  0  0  0  0  0  0  0  0  0  0
    4.6777    0.5383    0.4370 C   0  0  0  0  0  0  0  0  0  0  0  0
    3.4809   -0.1777   -0.2025 C   0  0  0  0  0  0  0  0  0  0  0  0
    2.8355    0.5736   -1.2895 N   0  0  0  0  0  0  0  0  0  0  0  0
    1.9625   -0.2892   -2.1067 C   0  0  0  0  0  0  0  0  0  0  0  0
    0.7118   -0.7975   -1.3682 C   0  0  0  0  0  0  0  0  0  0  0  0
    0.0345    0.2873   -0.5688 C   0  0  0  0  0  0  0  0  0  0  0  0
   -1.2369    0.0041   -0.1250 N   0  0  0  0  0  0  0  0  0  0  0  0
   -1.8365    0.9348    0.5369 C   0  0  0  0  0  0  0  0  0  0  0  0
   -3.4429    0.7699    1.1679 S   0  0  0  0  0  0  0  0  0  0  0  0
   -3.9687   -0.7313    0.2951 C   0  0  0  0  0  0  0  0  0  0  0  0
   -5.4317   -1.0261    0.5320 C   0  0  0  0  0  0  0  0  0  0  0  0
   -5.8211   -2.0409    1.4201 C   0  0  0  0  0  0  0  0  0  0  0  0
   -7.1738   -2.3196    1.6318 C   0  0  0  0  0  0  0  0  0  0  0  0
   -8.1453   -1.5755    0.9642 C   0  0  0  0  0  0  0  0  0  0  0  0
   -9.8126   -1.9144    1.2228 Cl  0  0  0  0  0  0  0  0  0  0  0  0
   -7.7758   -0.5597    0.0871 C   0  0  0  0  0  0  0  0  0  0  0  0
   -6.4232   -0.2882   -0.1326 C   0  0  0  0  0  0  0  0  0  0  0  0
   -1.2955    2.1476    0.8196 N   0  0  0  0  0  0  0  0  0  0  0  0
   -0.0464    2.4938    0.4033 C   0  0  0  0  0  0  0  0  0  0  0  0
    0.4361    3.5971    0.6210 O   0  0  0  0  0  0  0  0  0  0  0  0
    0.6754    1.4482   -0.3472 C   0  0  0  0  0  0  0  0  0  0  0  0
    2.0696    1.7476   -0.8136 C   0  0  0  0  0  0  0  0  0  0  0  0
    8.1385   -0.0174    0.0082 H   0  0  0  0  0  0  0  0  0  0  0  0
    8.5972    1.3308    1.0668 H   0  0  0  0  0  0  0  0  0  0  0  0
    7.2883    0.2488    1.5671 H   0  0  0  0  0  0  0  0  0  0  0  0
    5.3378    1.6362   -1.3028 H   0  0  0  0  0  0  0  0  0  0  0  0
    6.1186    0.0619   -1.1332 H   0  0  0  0  0  0  0  0  0  0  0  0
    4.3608    1.4249    0.9999 H   0  0  0  0  0  0  0  0  0  0  0  0
    5.1097   -0.1335    1.1880 H   0  0  0  0  0  0  0  0  0  0  0  0
    2.7635   -0.4407    0.5841 H   0  0  0  0  0  0  0  0  0  0  0  0
    3.8605   -1.1266   -0.6037 H   0  0  0  0  0  0  0  0  0  0  0  0
    2.5317   -1.1433   -2.4973 H   0  0  0  0  0  0  0  0  0  0  0  0
    1.6499    0.2774   -2.9953 H   0  0  0  0  0  0  0  0  0  0  0  0
    0.0118   -1.2089   -2.1067 H   0  0  0  0  0  0  0  0  0  0  0  0
    0.9840   -1.6193   -0.6891 H   0  0  0  0  0  0  0  0  0  0  0  0
   -3.8021   -0.6243   -0.7848 H   0  0  0  0  0  0  0  0  0  0  0  0
   -3.3597   -1.5752    0.6363 H   0  0  0  0  0  0  0  0  0  0  0  0
   -5.0733   -2.6254    1.9529 H   0  0  0  0  0  0  0  0  0  0  0  0
   -7.4641   -3.1166    2.3138 H   0  0  0  0  0  0  0  0  0  0  0  0
   -8.5333    0.0239   -0.4307 H   0  0  0  0  0  0  0  0  0  0  0  0
   -6.1460    0.5065   -0.8200 H   0  0  0  0  0  0  0  0  0  0  0  0
   -1.8275    2.8217    1.3465 H   0  0  0  0  0  0  0  0  0  0  0  0
    2.6263    2.2698   -0.0285 H   0  0  0  0  0  0  0  0  0  0  0  0
    2.0027    2.4599   -1.6466 H   0  0  0  0  0  0  0  0  0  0  0  0
  1  2  1  0
  2  3  1  0
  3  4  1  0
  4  5  1  0
  5  6  1  0
  6  7  1  0
  7  8  1  0
  8  9  1  0
  9 10  1  0
 10 11  2  0
 11 12  1  0
 12 13  1  0
 13 14  1  0
 14 15  2  0
 15 16  1  0
 16 17  2  0
 17 18  1  0
 17 19  1  0
 19 20  2  0
 11 21  1  0
 21 22  1  0
 22 23  2  0
 22 24  1  0
 24 25  1  0
 25  6  1  0
 24  9  2  0
 20 14  1  0
  1 26  1  0
  1 27  1  0
  1 28  1  0
  3 29  1  0
  3 30  1  0
  4 31  1  0
  4 32  1  0
  5 33  1  0
  5 34  1  0
  7 35  1  0
  7 36  1  0
  8 37  1  0
  8 38  1  0
 13 39  1  0
 13 40  1  0
 15 41  1  0
 16 42  1  0
 19 43  1  0
 20 44  1  0
 21 45  1  0
 25 46  1  0
 25 47  1  0
M  END
$$$$
