
     RDKit          3D

 23 25  0  0  0  0  0  0  0  0999 V2000
    4.9592    1.4573   -1.3088 Cl  0  0  0  0  0  0  0  0  0  0  0  0
    3.6146    0.6701   -0.5784 C   0  0  0  0  0  0  0  0  0  0  0  0
    3.8283   -0.3213    0.3722 C   0  0  0  0  0  0  0  0  0  0  0  0
    2.7336   -0.9483    0.9683 C   0  0  0  0  0  0  0  0  0  0  0  0
    1.4232   -0.5917    0.6124 C   0  0  0  0  0  0  0  0  0  0  0  0
    1.2082    0.3970   -0.3646 C   0  0  0  0  0  0  0  0  0  0  0  0
    2.3184    1.0342   -0.9418 C   0  0  0  0  0  0  0  0  0  0  0  0
   -0.0818    0.8234   -0.7277 N   0  0  0  0  0  0  0  0  0  0  0  0
   -1.3014    0.2745   -0.2922 C   0  0  0  0  0  0  0  0  0  0  0  0
   -2.5002    0.7989   -0.8029 C   0  0  0  0  0  0  0  0  0  0  0  0
   -3.7379    0.3164   -0.3732 C   0  0  0  0  0  0  0  0  0  0  0  0
   -3.7945   -0.6892    0.5853 C   0  0  0  0  0  0  0  0  0  0  0  0
   -2.6134   -1.2064    1.1173 C   0  0  0  0  0  0  0  0  0  0  0  0
   -1.3650   -0.7270    0.6912 C   0  0  0  0  0  0  0  0  0  0  0  0
    0.0895   -1.4419    1.4389 S   0  0  0  0  0  0  0  0  0  0  0  0
    4.8368   -0.6068    0.6588 H   0  0  0  0  0  0  0  0  0  0  0  0
    2.9094   -1.7173    1.7178 H   0  0  0  0  0  0  0  0  0  0  0  0
    2.1732    1.8203   -1.6776 H   0  0  0  0  0  0  0  0  0  0  0  0
   -0.1378    1.3876   -1.5658 H   0  0  0  0  0  0  0  0  0  0  0  0
   -2.4788    1.5943   -1.5434 H   0  0  0  0  0  0  0  0  0  0  0  0
   -4.6554    0.7302   -0.7837 H   0  0  0  0  0  0  0  0  0  0  0  0
   -4.7552   -1.0676    0.9251 H   0  0  0  0  0  0  0  0  0  0  0  0
   -2.6728   -1.9868    1.8728 H   0  0  0  0  0  0  0  0  0  0  0  0
  1  2  1  0
  2  3  2  0
  3  4  1  0
  4  5  2  0
  5  6  1  0
  6  7  2  0
  6  8  1  0
  8  9  1  0
  9 10  2  0
 10 11  1  0
 11 12  2  0
 12 13  1  0
 13 14  2  0
 14 15  1  0
  7  2  1  0
 14  9  1  0
 15  5  1  0
  3 16  1  0
  4 17  1  0
  7 18  1  0
  8 19  1  0
 10 20  1  0
 11 21  1  0
 12 22  1  0
 13 23  1  0
M  END
$$$$
