
     RDKit          3D

 40 40  0  0  0  0  0  0  0  0999 V2000
    0.7628    0.0000    0.0000 Br  0  0  0  0  0  0  0  0  0  0  0  0
    6.2790    1.6236   -0.0540 C   0  0  0  0  0  0  0  0  0  0  0  0
    5.8939    0.2727    0.0108 O   0  0  0  0  0  0  0  0  0  0  0  0
    4.5657   -0.1212   -0.0689 C   0  0  0  0  0  0  0  0  0  0  0  0
    3.5171    0.7580   -0.2164 C   0  0  0  0  0  0  0  0  0  0  0  0
    2.2178    0.2996   -0.2891 C   0  0  0  0  0  0  0  0  0  0  0  0
    1.8913   -1.0432   -0.2201 C   0  0  0  0  0  0  0  0  0  0  0  0
    0.4897   -1.4855   -0.3023 C   0  0  0  0  0  0  0  0  0  0  0  0
    0.1218   -2.8106   -0.2379 C   0  0  0  0  0  0  0  0  0  0  0  0
   -1.2440   -3.0930   -0.3285 C   0  0  0  0  0  0  0  0  0  0  0  0
   -2.1307   -2.0537   -0.4742 C   0  0  0  0  0  0  0  0  0  0  0  0
   -3.3943   -2.2895   -0.5598 N   0  0  0  0  0  0  0  0  0  0  0  0
   -1.7478   -0.7676   -0.5346 N   0  0  0  0  0  0  0  0  0  0  0  0
   -2.7032    0.2992   -0.6878 C   0  0  0  0  0  0  0  0  0  0  0  0
   -3.2052    0.8330    0.6348 C   0  0  0  0  0  0  0  0  0  0  0  0
   -4.1809    1.9248    0.3583 C   0  0  0  0  0  0  0  0  0  0  0  0
   -4.6905    2.4678    1.6350 C   0  0  0  0  0  0  0  0  0  0  0  0
   -4.2714    1.9805    2.7107 O   0  0  0  0  0  0  0  0  0  0  0  0
   -5.6162    3.4979    1.6801 O   0  0  0  0  0  0  0  0  0  0  0  0
   -0.4534   -0.5258   -0.4469 N   0  0  0  0  0  0  0  0  0  0  0  0
    2.9397   -1.9243   -0.0725 C   0  0  0  0  0  0  0  0  0  0  0  0
    4.2586   -1.4593    0.0013 C   0  0  0  0  0  0  0  0  0  0  0  0
   -0.7628    0.0000    0.0000 H   0  0  0  0  0  0  0  0  0  0  0  0
    6.1981    2.1138    0.9521 H   0  0  0  0  0  0  0  0  0  0  0  0
    7.3719    1.6845   -0.3251 H   0  0  0  0  0  0  0  0  0  0  0  0
    5.6885    2.1254   -0.8271 H   0  0  0  0  0  0  0  0  0  0  0  0
    3.7481    1.8112   -0.2725 H   0  0  0  0  0  0  0  0  0  0  0  0
    1.3750    0.9889   -0.4064 H   0  0  0  0  0  0  0  0  0  0  0  0
    0.8453   -3.5814   -0.1245 H   0  0  0  0  0  0  0  0  0  0  0  0
   -1.5462   -4.1200   -0.2800 H   0  0  0  0  0  0  0  0  0  0  0  0
   -3.8224   -3.2296   -0.5277 H   0  0  0  0  0  0  0  0  0  0  0  0
   -2.1637    1.1608   -1.1789 H   0  0  0  0  0  0  0  0  0  0  0  0
   -3.5398    0.0565   -1.3614 H   0  0  0  0  0  0  0  0  0  0  0  0
   -3.6994    0.0586    1.2418 H   0  0  0  0  0  0  0  0  0  0  0  0
   -2.3606    1.2687    1.2058 H   0  0  0  0  0  0  0  0  0  0  0  0
   -3.7449    2.7618   -0.2245 H   0  0  0  0  0  0  0  0  0  0  0  0
   -5.0700    1.5865   -0.2217 H   0  0  0  0  0  0  0  0  0  0  0  0
   -5.6486    4.0876    2.4798 H   0  0  0  0  0  0  0  0  0  0  0  0
    2.7515   -2.9932   -0.0118 H   0  0  0  0  0  0  0  0  0  0  0  0
    5.0801   -2.1635    0.1179 H   0  0  0  0  0  0  0  0  0  0  0  0
  2  3  1  0
  3  4  1  0
  4  5  2  0
  5  6  1  0
  6  7  2  0
  7  8  1  0
  8  9  1  0
  9 10  2  0
 10 11  1  0
 11 12  2  3
 11 13  1  0
 13 14  1  0
 14 15  1  0
 15 16  1  0
 16 17  1  0
 17 18  2  0
 17 19  1  0
 13 20  1  0
  7 21  1  0
 21 22  2  0
 22  4  1  0
 20  8  2  0
  1 23  1  0
  2 24  1  0
  2 25  1  0
  2 26  1  0
  5 27  1  0
  6 28  1  0
  9 29  1  0
 10 30  1  0
 12 31  1  0
 14 32  1  0
 14 33  1  0
 15 34  1  0
 15 35  1  0
 16 36  1  0
 16 37  1  0
 19 38  1  0
 21 39  1  0
 22 40  1  0
M  END
$$$$
