
     RDKit          3D

 56 59  0  0  0  0  0  0  0  0999 V2000
    9.1847   -1.4756    0.7269 C   0  0  0  0  0  0  0  0  0  0  0  0
    7.7853   -1.2295    1.2340 C   0  0  0  0  0  0  0  0  0  0  0  0
    7.5144   -1.3747    2.4202 O   0  0  0  0  0  0  0  0  0  0  0  0
    6.9308   -0.8168    0.2270 N   0  0  0  0  0  0  0  0  0  0  0  0
    5.5623   -0.4965    0.3414 C   0  0  0  0  0  0  0  0  0  0  0  0
    4.8419   -0.5624    1.5266 C   0  0  0  0  0  0  0  0  0  0  0  0
    3.4832   -0.2244    1.5420 C   0  0  0  0  0  0  0  0  0  0  0  0
    2.8088    0.1814    0.4007 C   0  0  0  0  0  0  0  0  0  0  0  0
    1.5057    0.4861    0.5063 N   0  0  0  0  0  0  0  0  0  0  0  0
    0.8068    0.8704   -0.5802 C   0  0  0  0  0  0  0  0  0  0  0  0
   -0.5431    1.1918   -0.4376 N   0  0  0  0  0  0  0  0  0  0  0  0
   -1.0399    1.2427    0.9415 C   0  0  0  0  0  0  0  0  0  0  0  0
   -2.4440    1.8421    0.9344 C   0  0  0  0  0  0  0  0  0  0  0  0
   -3.4292    0.9616    0.1467 C   0  0  0  0  0  0  0  0  0  0  0  0
   -4.2031    0.0447    1.0947 C   0  0  0  0  0  0  0  0  0  0  0  0
   -3.7138   -0.3315    2.1608 O   0  0  0  0  0  0  0  0  0  0  0  0
   -5.4453   -0.3884    0.6836 N   0  0  0  0  0  0  0  0  0  0  0  0
   -6.2371   -1.2729    1.5240 C   0  0  0  0  0  0  0  0  0  0  0  0
   -7.6481   -1.1782    0.9612 C   0  0  0  0  0  0  0  0  0  0  0  0
   -7.4084   -0.8830   -0.5130 C   0  0  0  0  0  0  0  0  0  0  0  0
   -6.2037    0.0463   -0.4790 C   0  0  0  0  0  0  0  0  0  0  0  0
   -2.7142    0.0970   -0.9037 C   0  0  0  0  0  0  0  0  0  0  0  0
   -1.4761    0.7754   -1.4851 C   0  0  0  0  0  0  0  0  0  0  0  0
    1.4430    0.9861   -1.8135 C   0  0  0  0  0  0  0  0  0  0  0  0
    2.8031    0.6765   -1.9503 C   0  0  0  0  0  0  0  0  0  0  0  0
    3.4484    0.8160   -3.3009 C   0  0  0  0  0  0  0  0  0  0  0  0
    3.5204    0.2543   -0.8109 C   0  0  0  0  0  0  0  0  0  0  0  0
    4.8963   -0.0883   -0.8208 C   0  0  0  0  0  0  0  0  0  0  0  0
    9.7186   -0.5241    0.6600 H   0  0  0  0  0  0  0  0  0  0  0  0
    9.7110   -2.1391    1.4193 H   0  0  0  0  0  0  0  0  0  0  0  0
    9.1643   -1.9575   -0.2549 H   0  0  0  0  0  0  0  0  0  0  0  0
    7.3324   -0.7256   -0.6974 H   0  0  0  0  0  0  0  0  0  0  0  0
    5.2960   -0.8717    2.4626 H   0  0  0  0  0  0  0  0  0  0  0  0
    2.9351   -0.2822    2.4803 H   0  0  0  0  0  0  0  0  0  0  0  0
   -1.0467    0.2443    1.3965 H   0  0  0  0  0  0  0  0  0  0  0  0
   -0.3999    1.8914    1.5530 H   0  0  0  0  0  0  0  0  0  0  0  0
   -2.7861    2.0129    1.9617 H   0  0  0  0  0  0  0  0  0  0  0  0
   -2.4012    2.8311    0.4580 H   0  0  0  0  0  0  0  0  0  0  0  0
   -4.1374    1.6390   -0.3439 H   0  0  0  0  0  0  0  0  0  0  0  0
   -5.8310   -2.2848    1.4169 H   0  0  0  0  0  0  0  0  0  0  0  0
   -6.1839   -0.9773    2.5762 H   0  0  0  0  0  0  0  0  0  0  0  0
   -8.2307   -2.0883    1.1278 H   0  0  0  0  0  0  0  0  0  0  0  0
   -8.1810   -0.3389    1.4244 H   0  0  0  0  0  0  0  0  0  0  0  0
   -8.2741   -0.4336   -1.0069 H   0  0  0  0  0  0  0  0  0  0  0  0
   -7.1533   -1.8106   -1.0397 H   0  0  0  0  0  0  0  0  0  0  0  0
   -6.5075    1.0857   -0.3131 H   0  0  0  0  0  0  0  0  0  0  0  0
   -5.6095   -0.0114   -1.3926 H   0  0  0  0  0  0  0  0  0  0  0  0
   -3.4019   -0.1523   -1.7190 H   0  0  0  0  0  0  0  0  0  0  0  0
   -2.4151   -0.8634   -0.4614 H   0  0  0  0  0  0  0  0  0  0  0  0
   -1.0201    0.0725   -2.1932 H   0  0  0  0  0  0  0  0  0  0  0  0
   -1.7763    1.6615   -2.0573 H   0  0  0  0  0  0  0  0  0  0  0  0
    0.8856    1.3450   -2.6725 H   0  0  0  0  0  0  0  0  0  0  0  0
    3.8486   -0.1472   -3.6331 H   0  0  0  0  0  0  0  0  0  0  0  0
    2.7315    1.1504   -4.0586 H   0  0  0  0  0  0  0  0  0  0  0  0
    4.2543    1.5560   -3.2630 H   0  0  0  0  0  0  0  0  0  0  0  0
    5.4493   -0.0319   -1.7544 H   0  0  0  0  0  0  0  0  0  0  0  0
  1  2  1  0
  2  3  2  0
  2  4  1  0
  4  5  1  0
  5  6  2  0
  6  7  1  0
  7  8  2  0
  8  9  1  0
  9 10  2  0
 10 11  1  0
 11 12  1  0
 12 13  1  0
 13 14  1  0
 14 15  1  0
 15 16  2  0
 15 17  1  0
 17 18  1  0
 18 19  1  0
 19 20  1  0
 20 21  1  0
 14 22  1  0
 22 23  1  0
 10 24  1  0
 24 25  2  0
 25 26  1  0
 25 27  1  0
 27 28  2  0
 28  5  1  0
 27  8  1  0
 23 11  1  0
 21 17  1  0
  1 29  1  0
  1 30  1  0
  1 31  1  0
  4 32  1  0
  6 33  1  0
  7 34  1  0
 12 35  1  0
 12 36  1  0
 13 37  1  0
 13 38  1  0
 14 39  1  0
 18 40  1  0
 18 41  1  0
 19 42  1  0
 19 43  1  0
 20 44  1  0
 20 45  1  0
 21 46  1  0
 21 47  1  0
 22 48  1  0
 22 49  1  0
 23 50  1  0
 23 51  1  0
 24 52  1  0
 26 53  1  0
 26 54  1  0
 26 55  1  0
 28 56  1  0
M  END
$$$$
