
     RDKit          3D

 65 69  0  0  0  0  0  0  0  0999 V2000
   -0.0954    2.3153    2.2878 C   0  0  0  0  0  0  0  0  0  0  0  0
   -0.2974    1.0458    1.5272 C   0  0  0  0  0  0  0  0  0  0  0  0
    0.6515    0.0456    1.3857 C   0  0  0  0  0  0  0  0  0  0  0  0
    2.0484   -0.0205    1.9508 C   0  0  0  0  0  0  0  0  0  0  0  0
    2.9193    1.0412    1.4151 N   0  0  0  0  0  0  0  0  0  0  0  0
    3.2450    0.8564   -0.0220 C   0  0  0  0  0  0  0  0  0  0  0  0
    4.2232   -0.3007   -0.3198 C   0  0  0  0  0  0  0  0  0  0  0  0
    5.4402   -0.1657    0.4907 N   0  0  0  0  0  0  0  0  0  0  0  0
    6.6954    0.1607    0.0008 C   0  0  0  0  0  0  0  0  0  0  0  0
    7.6129    0.5460    0.7363 O   0  0  0  0  0  0  0  0  0  0  0  0
    6.9786    0.0112   -1.5081 C   0  0  2  0  0  0  0  0  0  0  0  0
    7.0256   -1.4537   -1.9139 C   0  0  0  0  0  0  0  0  0  0  0  0
    8.2443    0.5932   -1.8325 O   0  0  0  0  0  0  0  0  0  0  0  0
    5.1809   -0.0163    1.9255 C   0  0  0  0  0  0  0  0  0  0  0  0
    4.1813    1.1309    2.1892 C   0  0  0  0  0  0  0  0  0  0  0  0
    0.0627   -1.2582    0.4486 S   0  0  0  0  0  0  0  0  0  0  0  0
   -1.4681   -0.5171    0.2043 C   0  0  0  0  0  0  0  0  0  0  0  0
   -2.5929   -0.9703   -0.5080 C   0  0  0  0  0  0  0  0  0  0  0  0
   -2.6581   -2.2257   -1.1446 N   0  0  0  0  0  0  0  0  0  0  0  0
   -3.6990   -2.3274   -2.1954 C   0  0  0  0  0  0  0  0  0  0  0  0
   -4.9869   -2.9540   -1.6368 C   0  0  0  0  0  0  0  0  0  0  0  0
   -4.8006   -4.2817   -1.1151 O   0  0  0  0  0  0  0  0  0  0  0  0
   -3.4414   -4.5532   -0.7378 C   0  0  0  0  0  0  0  0  0  0  0  0
   -2.7280   -3.3258   -0.1458 C   0  0  0  0  0  0  0  0  0  0  0  0
   -3.6550   -0.1305   -0.5725 N   0  0  0  0  0  0  0  0  0  0  0  0
   -3.6199    1.0590    0.0523 C   0  0  0  0  0  0  0  0  0  0  0  0
   -4.8120    1.8971   -0.0449 C   0  0  0  0  0  0  0  0  0  0  0  0
   -5.9362    1.5438   -0.7653 C   0  0  0  0  0  0  0  0  0  0  0  0
   -7.0587    2.2939   -0.8666 N   0  0  0  0  0  0  0  0  0  0  0  0
   -7.0643    3.4482   -0.1985 C   0  0  0  0  0  0  0  0  0  0  0  0
   -8.1925    4.2331   -0.2836 N   0  0  0  0  0  0  0  0  0  0  0  0
   -6.0377    3.9138    0.5138 N   0  0  0  0  0  0  0  0  0  0  0  0
   -4.9393    3.1247    0.5766 C   0  0  0  0  0  0  0  0  0  0  0  0
   -2.5957    1.5315    0.7656 N   0  0  0  0  0  0  0  0  0  0  0  0
   -1.5100    0.7245    0.8246 C   0  0  0  0  0  0  0  0  0  0  0  0
   -1.0448    2.7061    2.6672 H   0  0  0  0  0  0  0  0  0  0  0  0
    0.5596    2.1644    3.1513 H   0  0  0  0  0  0  0  0  0  0  0  0
    0.3526    3.0742    1.6404 H   0  0  0  0  0  0  0  0  0  0  0  0
    2.4829   -1.0166    1.8096 H   0  0  0  0  0  0  0  0  0  0  0  0
    1.9483    0.1102    3.0372 H   0  0  0  0  0  0  0  0  0  0  0  0
    3.7073    1.7891   -0.3702 H   0  0  0  0  0  0  0  0  0  0  0  0
    2.3383    0.7418   -0.6246 H   0  0  0  0  0  0  0  0  0  0  0  0
    3.7729   -1.2687   -0.0698 H   0  0  0  0  0  0  0  0  0  0  0  0
    4.4427   -0.3120   -1.3884 H   0  0  0  0  0  0  0  0  0  0  0  0
    6.2315    0.5642   -2.0822 H   0  0  0  0  0  0  0  0  0  0  0  0
    6.0705   -1.9606   -1.7568 H   0  0  0  0  0  0  0  0  0  0  0  0
    7.3025   -1.5501   -2.9694 H   0  0  0  0  0  0  0  0  0  0  0  0
    7.7894   -1.9887   -1.3348 H   0  0  0  0  0  0  0  0  0  0  0  0
    8.7108    0.7106   -0.9782 H   0  0  0  0  0  0  0  0  0  0  0  0
    6.1056    0.1706    2.4824 H   0  0  0  0  0  0  0  0  0  0  0  0
    4.7766   -0.9704    2.2856 H   0  0  0  0  0  0  0  0  0  0  0  0
    4.6648    2.0804    1.9245 H   0  0  0  0  0  0  0  0  0  0  0  0
    3.9668    1.1973    3.2628 H   0  0  0  0  0  0  0  0  0  0  0  0
   -3.9047   -1.3662   -2.6823 H   0  0  0  0  0  0  0  0  0  0  0  0
   -3.2987   -2.9809   -2.9804 H   0  0  0  0  0  0  0  0  0  0  0  0
   -5.4065   -2.3406   -0.8319 H   0  0  0  0  0  0  0  0  0  0  0  0
   -5.7453   -3.0200   -2.4240 H   0  0  0  0  0  0  0  0  0  0  0  0
   -3.4615   -5.3642   -0.0028 H   0  0  0  0  0  0  0  0  0  0  0  0
   -2.9105   -4.9273   -1.6221 H   0  0  0  0  0  0  0  0  0  0  0  0
   -1.7166   -3.6194    0.1573 H   0  0  0  0  0  0  0  0  0  0  0  0
   -3.2858   -3.0041    0.7453 H   0  0  0  0  0  0  0  0  0  0  0  0
   -5.9835    0.6044   -1.3126 H   0  0  0  0  0  0  0  0  0  0  0  0
   -7.9579    5.1981   -0.0973 H   0  0  0  0  0  0  0  0  0  0  0  0
   -8.6953    4.0248   -1.1341 H   0  0  0  0  0  0  0  0  0  0  0  0
   -4.1322    3.5385    1.1774 H   0  0  0  0  0  0  0  0  0  0  0  0
  1  2  1  0
  2  3  2  0
  3  4  1  0
  4  5  1  0
  5  6  1  0
  6  7  1  0
  7  8  1  0
  8  9  1  0
  9 10  2  0
  9 11  1  0
 11 12  1  0
 11 13  1  0
  8 14  1  0
 14 15  1  0
  3 16  1  0
 16 17  1  0
 17 18  2  0
 18 19  1  0
 19 20  1  0
 20 21  1  0
 21 22  1  0
 22 23  1  0
 23 24  1  0
 18 25  1  0
 25 26  2  0
 26 27  1  0
 27 28  2  0
 28 29  1  0
 29 30  2  0
 30 31  1  0
 30 32  1  0
 32 33  2  0
 26 34  1  0
 34 35  2  0
 35  2  1  0
 15  5  1  0
 35 17  1  0
 24 19  1  0
 33 27  1  0
  1 36  1  0
  1 37  1  0
  1 38  1  0
  4 39  1  0
  4 40  1  0
  6 41  1  0
  6 42  1  0
  7 43  1  0
  7 44  1  0
 11 45  1  6
 12 46  1  0
 12 47  1  0
 12 48  1  0
 13 49  1  0
 14 50  1  0
 14 51  1  0
 15 52  1  0
 15 53  1  0
 20 54  1  0
 20 55  1  0
 21 56  1  0
 21 57  1  0
 23 58  1  0
 23 59  1  0
 24 60  1  0
 24 61  1  0
 28 62  1  0
 31 63  1  0
 31 64  1  0
 33 65  1  0
M  END
$$$$
