
     RDKit          3D

 48 51  0  0  0  0  0  0  0  0999 V2000
   -6.0169    0.1483   -1.3216 C   0  0  0  0  0  0  0  0  0  0  0  0
   -4.6930   -0.0053   -1.1886 C   0  0  0  0  0  0  0  0  0  0  0  0
   -3.9259    0.3375    0.0670 C   0  0  1  0  0  0  0  0  0  0  0  0
   -3.1044   -0.8664    0.5975 C   0  0  0  0  0  0  0  0  0  0  0  0
   -1.6658   -0.5304    0.7561 N   0  0  0  0  0  0  0  0  0  0  0  0
   -1.5446    0.5930    1.7085 C   0  0  0  0  0  0  0  0  0  0  0  0
   -2.3153    1.8323    1.2292 C   0  0  0  0  0  0  0  0  0  0  0  0
   -2.9625    1.5325   -0.1357 C   0  0  1  0  0  0  0  0  0  0  0  0
   -1.8104    1.1488   -1.0837 C   0  0  0  0  0  0  0  0  0  0  0  0
   -1.1235   -0.1533   -0.5842 C   0  0  1  0  0  0  0  0  0  0  0  0
    0.4426   -0.0399   -0.6667 C   0  0  2  0  0  0  0  0  0  0  0  0
    0.8337    0.1766   -2.0298 O   0  0  0  0  0  0  0  0  0  0  0  0
    1.2768   -1.2174   -0.1765 C   0  0  0  0  0  0  0  0  0  0  0  0
    0.7107   -2.4924   -0.0532 C   0  0  0  0  0  0  0  0  0  0  0  0
    1.4857   -3.5332    0.4185 C   0  0  0  0  0  0  0  0  0  0  0  0
    2.7792   -3.4090    0.7649 N   0  0  0  0  0  0  0  0  0  0  0  0
    3.3511   -2.2055    0.6244 C   0  0  0  0  0  0  0  0  0  0  0  0
    4.6889   -2.0928    0.9683 C   0  0  0  0  0  0  0  0  0  0  0  0
    5.3821   -0.8881    0.8460 C   0  0  0  0  0  0  0  0  0  0  0  0
    4.7376    0.2410    0.3596 C   0  0  0  0  0  0  0  0  0  0  0  0
    5.5226    1.3561    0.2713 O   0  0  0  0  0  0  0  0  0  0  0  0
    4.9356    2.5167   -0.3025 C   0  0  0  0  0  0  0  0  0  0  0  0
    3.3882    0.1500    0.0141 C   0  0  0  0  0  0  0  0  0  0  0  0
    2.6604   -1.0647    0.1466 C   0  0  0  0  0  0  0  0  0  0  0  0
   -6.6326    0.5428   -0.5190 H   0  0  0  0  0  0  0  0  0  0  0  0
   -6.5168   -0.1206   -2.2475 H   0  0  0  0  0  0  0  0  0  0  0  0
   -4.1318   -0.4102   -2.0288 H   0  0  0  0  0  0  0  0  0  0  0  0
   -4.6458    0.6183    0.8493 H   0  0  0  0  0  0  0  0  0  0  0  0
   -3.5060   -1.1825    1.5694 H   0  0  0  0  0  0  0  0  0  0  0  0
   -3.2029   -1.7469   -0.0506 H   0  0  0  0  0  0  0  0  0  0  0  0
   -1.9196    0.2818    2.6918 H   0  0  0  0  0  0  0  0  0  0  0  0
   -0.4902    0.8433    1.8724 H   0  0  0  0  0  0  0  0  0  0  0  0
   -1.6332    2.6868    1.1449 H   0  0  0  0  0  0  0  0  0  0  0  0
   -3.0848    2.1041    1.9615 H   0  0  0  0  0  0  0  0  0  0  0  0
   -3.4929    2.4160   -0.5081 H   0  0  0  0  0  0  0  0  0  0  0  0
   -1.1003    1.9839   -1.1243 H   0  0  0  0  0  0  0  0  0  0  0  0
   -2.1832    1.0038   -2.1042 H   0  0  0  0  0  0  0  0  0  0  0  0
   -1.4039   -0.9424   -1.2976 H   0  0  0  0  0  0  0  0  0  0  0  0
    0.7333    0.8475   -0.0923 H   0  0  0  0  0  0  0  0  0  0  0  0
    0.4891    1.0394   -2.3086 H   0  0  0  0  0  0  0  0  0  0  0  0
   -0.3245   -2.6920   -0.3040 H   0  0  0  0  0  0  0  0  0  0  0  0
    1.0688   -4.5292    0.5363 H   0  0  0  0  0  0  0  0  0  0  0  0
    5.2112   -2.9714    1.3395 H   0  0  0  0  0  0  0  0  0  0  0  0
    6.4318   -0.8403    1.1232 H   0  0  0  0  0  0  0  0  0  0  0  0
    5.7007    3.2985   -0.3321 H   0  0  0  0  0  0  0  0  0  0  0  0
    4.1080    2.8844    0.3130 H   0  0  0  0  0  0  0  0  0  0  0  0
    4.6112    2.3292   -1.3315 H   0  0  0  0  0  0  0  0  0  0  0  0
    2.8814    1.0214   -0.3820 H   0  0  0  0  0  0  0  0  0  0  0  0
  1  2  2  3
  2  3  1  0
  3  4  1  0
  4  5  1  0
  5  6  1  0
  6  7  1  0
  7  8  1  0
  8  9  1  0
  9 10  1  0
 10 11  1  0
 11 12  1  0
 11 13  1  0
 13 14  2  0
 14 15  1  0
 15 16  2  0
 16 17  1  0
 17 18  2  0
 18 19  1  0
 19 20  2  0
 20 21  1  0
 21 22  1  0
 20 23  1  0
 23 24  2  0
  8  3  1  0
 24 13  1  0
 10  5  1  0
 24 17  1  0
  1 25  1  0
  1 26  1  0
  2 27  1  0
  3 28  1  1
  4 29  1  0
  4 30  1  0
  6 31  1  0
  6 32  1  0
  7 33  1  0
  7 34  1  0
  8 35  1  6
  9 36  1  0
  9 37  1  0
 10 38  1  6
 11 39  1  1
 12 40  1  0
 14 41  1  0
 15 42  1  0
 18 43  1  0
 19 44  1  0
 22 45  1  0
 22 46  1  0
 22 47  1  0
 23 48  1  0
M  END
$$$$
