
     RDKit          3D

 43 45  0  0  0  0  0  0  0  0999 V2000
    3.1878   -3.4915    0.5923 C   0  0  0  0  0  0  0  0  0  0  0  0
    2.4320   -2.6546    1.6161 C   0  0  0  0  0  0  0  0  0  0  0  0
    1.4067   -1.7536    0.9795 C   0  0  0  0  0  0  0  0  0  0  0  0
    0.0903   -2.0353    1.0011 C   0  0  0  0  0  0  0  0  0  0  0  0
   -0.8115   -1.0438    0.3405 C   0  0  0  0  0  0  0  0  0  0  0  0
   -2.3097   -1.3701    0.3532 C   0  0  0  0  0  0  0  0  0  0  0  0
   -2.7423   -2.2841    1.0368 O   0  0  0  0  0  0  0  0  0  0  0  0
   -3.0546   -0.5359   -0.4494 N   0  0  0  0  0  0  0  0  0  0  0  0
   -4.5067   -0.5328   -0.4419 C   0  0  0  0  0  0  0  0  0  0  0  0
   -5.0367   -0.0024   -1.7710 C   0  0  0  0  0  0  0  0  0  0  0  0
   -5.0649    0.2340    0.7701 C   0  0  0  0  0  0  0  0  0  0  0  0
   -4.7114    1.7157    0.8033 C   0  0  0  0  0  0  0  0  0  0  0  0
   -0.4312    0.0633   -0.2404 N   0  0  0  0  0  0  0  0  0  0  0  0
    0.9139    0.3099   -0.2240 C   0  0  0  0  0  0  0  0  0  0  0  0
    1.6478    1.3595   -0.7239 C   0  0  0  0  0  0  0  0  0  0  0  0
    2.9844    1.0647   -0.4017 C   0  0  0  0  0  0  0  0  0  0  0  0
    4.2314    1.9459   -0.7466 C   0  0  0  0  0  0  0  0  0  0  0  0
    4.2222    3.1528   -1.4215 C   0  0  0  0  0  0  0  0  0  0  0  0
    5.5687    3.5863   -1.5047 C   0  0  0  0  0  0  0  0  0  0  0  0
    6.3179    2.6209   -0.8773 C   0  0  0  0  0  0  0  0  0  0  0  0
    5.5200    1.6260   -0.4160 O   0  0  0  0  0  0  0  0  0  0  0  0
    3.1019   -0.0903    0.2578 N   0  0  0  0  0  0  0  0  0  0  0  0
    1.8374   -0.5641    0.3686 N   0  0  0  0  0  0  0  0  0  0  0  0
    3.8997   -4.1513    1.0987 H   0  0  0  0  0  0  0  0  0  0  0  0
    3.7513   -2.8649   -0.1063 H   0  0  0  0  0  0  0  0  0  0  0  0
    2.5025   -4.1178    0.0112 H   0  0  0  0  0  0  0  0  0  0  0  0
    1.9433   -3.3345    2.3257 H   0  0  0  0  0  0  0  0  0  0  0  0
    3.1394   -2.0632    2.2100 H   0  0  0  0  0  0  0  0  0  0  0  0
   -0.3369   -2.9195    1.4566 H   0  0  0  0  0  0  0  0  0  0  0  0
   -2.5477    0.2606   -0.8299 H   0  0  0  0  0  0  0  0  0  0  0  0
   -4.8315   -1.5765   -0.3428 H   0  0  0  0  0  0  0  0  0  0  0  0
   -6.1311    0.0196   -1.7765 H   0  0  0  0  0  0  0  0  0  0  0  0
   -4.6683    1.0066   -1.9839 H   0  0  0  0  0  0  0  0  0  0  0  0
   -4.7079   -0.6441   -2.5963 H   0  0  0  0  0  0  0  0  0  0  0  0
   -6.1571    0.1340    0.7862 H   0  0  0  0  0  0  0  0  0  0  0  0
   -4.6960   -0.2282    1.6941 H   0  0  0  0  0  0  0  0  0  0  0  0
   -5.1104    2.1731    1.7146 H   0  0  0  0  0  0  0  0  0  0  0  0
   -3.6281    1.8696    0.7997 H   0  0  0  0  0  0  0  0  0  0  0  0
   -5.1414    2.2501   -0.0487 H   0  0  0  0  0  0  0  0  0  0  0  0
    1.2547    2.2171   -1.2475 H   0  0  0  0  0  0  0  0  0  0  0  0
    3.3518    3.6624   -1.8086 H   0  0  0  0  0  0  0  0  0  0  0  0
    5.9463    4.4889   -1.9641 H   0  0  0  0  0  0  0  0  0  0  0  0
    7.3744    2.4976   -0.6838 H   0  0  0  0  0  0  0  0  0  0  0  0
  1  2  1  0
  2  3  1  0
  3  4  2  0
  4  5  1  0
  5  6  1  0
  6  7  2  0
  6  8  1  0
  8  9  1  0
  9 10  1  0
  9 11  1  0
 11 12  1  0
  5 13  2  0
 13 14  1  0
 14 15  2  0
 15 16  1  0
 16 17  1  0
 17 18  2  0
 18 19  1  0
 19 20  2  0
 20 21  1  0
 16 22  2  0
 22 23  1  0
 23  3  1  0
 23 14  1  0
 21 17  1  0
  1 24  1  0
  1 25  1  0
  1 26  1  0
  2 27  1  0
  2 28  1  0
  4 29  1  0
  8 30  1  0
  9 31  1  0
 10 32  1  0
 10 33  1  0
 10 34  1  0
 11 35  1  0
 11 36  1  0
 12 37  1  0
 12 38  1  0
 12 39  1  0
 15 40  1  0
 18 41  1  0
 19 42  1  0
 20 43  1  0
M  END
$$$$
