
     RDKit          3D

 55 58  0  0  0  0  0  0  0  0999 V2000
   -3.1267   -0.4701   -1.6717 O   0  0  0  0  0  0  0  0  0  0  0  0
   -3.8288   -0.0840   -0.7373 C   0  0  0  0  0  0  0  0  0  0  0  0
   -3.2946    0.9111    0.2745 C   0  0  0  0  0  0  0  0  0  0  0  0
   -2.6123    0.2248    1.4533 C   0  0  0  0  0  0  0  0  0  0  0  0
   -1.3162   -0.5469    1.1485 C   0  0  0  0  0  0  0  0  0  0  0  0
   -0.1297    0.3121    1.0253 N   0  0  0  0  0  0  0  0  0  0  0  0
   -0.0274    0.9790   -0.2815 C   0  0  0  0  0  0  0  0  0  0  0  0
    1.3789    1.0054   -0.8906 C   0  0  0  0  0  0  0  0  0  0  0  0
    2.4565    1.3324    0.1425 C   0  0  0  0  0  0  0  0  0  0  0  0
    2.2626    0.5842    1.4725 C   0  0  0  0  0  0  0  0  0  0  0  0
    1.0945   -0.3979    1.3993 C   0  0  0  0  0  0  0  0  0  0  0  0
    2.4327    2.8504    0.4251 C   0  0  0  0  0  0  0  0  0  0  0  0
    1.4881    3.5570    0.7359 O   0  0  0  0  0  0  0  0  0  0  0  0
    3.7200    3.3186    0.2895 N   0  0  0  0  0  0  0  0  0  0  0  0
    4.6675    2.2994    0.0099 C   0  0  0  0  0  0  0  0  0  0  0  0
    3.8435    1.1817   -0.4181 N   0  0  0  0  0  0  0  0  0  0  0  0
    4.4361   -0.0621   -0.5769 C   0  0  0  0  0  0  0  0  0  0  0  0
    4.0867   -0.8642   -1.6717 C   0  0  0  0  0  0  0  0  0  0  0  0
    4.6605   -2.1234   -1.8763 C   0  0  0  0  0  0  0  0  0  0  0  0
    5.6101   -2.6075   -0.9844 C   0  0  0  0  0  0  0  0  0  0  0  0
    5.9865   -1.8282    0.1037 C   0  0  0  0  0  0  0  0  0  0  0  0
    5.4082   -0.5684    0.2991 C   0  0  0  0  0  0  0  0  0  0  0  0
   -5.2203   -0.6189   -0.6047 C   0  0  0  0  0  0  0  0  0  0  0  0
   -5.7350   -1.3864   -1.6641 C   0  0  0  0  0  0  0  0  0  0  0  0
   -7.0262   -1.9145   -1.5964 C   0  0  0  0  0  0  0  0  0  0  0  0
   -7.8017   -1.6787   -0.4690 C   0  0  0  0  0  0  0  0  0  0  0  0
   -9.0396   -2.1845   -0.4005 F   0  0  0  0  0  0  0  0  0  0  0  0
   -7.3095   -0.9261    0.5915 C   0  0  0  0  0  0  0  0  0  0  0  0
   -6.0171   -0.3948    0.5270 C   0  0  0  0  0  0  0  0  0  0  0  0
   -4.1125    1.5462    0.6305 H   0  0  0  0  0  0  0  0  0  0  0  0
   -2.6261    1.6011   -0.2465 H   0  0  0  0  0  0  0  0  0  0  0  0
   -3.3178   -0.4849    1.9039 H   0  0  0  0  0  0  0  0  0  0  0  0
   -2.4076    0.9750    2.2278 H   0  0  0  0  0  0  0  0  0  0  0  0
   -1.1740   -1.2116    2.0118 H   0  0  0  0  0  0  0  0  0  0  0  0
   -1.4276   -1.2131    0.2852 H   0  0  0  0  0  0  0  0  0  0  0  0
   -0.6766    0.5035   -1.0258 H   0  0  0  0  0  0  0  0  0  0  0  0
   -0.3890    2.0061   -0.1652 H   0  0  0  0  0  0  0  0  0  0  0  0
    1.4020    1.7196   -1.7235 H   0  0  0  0  0  0  0  0  0  0  0  0
    1.5548    0.0191   -1.3308 H   0  0  0  0  0  0  0  0  0  0  0  0
    3.1564    0.0346    1.7821 H   0  0  0  0  0  0  0  0  0  0  0  0
    2.0682    1.2924    2.2901 H   0  0  0  0  0  0  0  0  0  0  0  0
    1.3132   -1.2194    0.7051 H   0  0  0  0  0  0  0  0  0  0  0  0
    0.9814   -0.8444    2.3953 H   0  0  0  0  0  0  0  0  0  0  0  0
    3.9453    4.2812    0.4874 H   0  0  0  0  0  0  0  0  0  0  0  0
    5.2262    2.1144    0.9316 H   0  0  0  0  0  0  0  0  0  0  0  0
    5.3396    2.6410   -0.7829 H   0  0  0  0  0  0  0  0  0  0  0  0
    3.3782   -0.4951   -2.4088 H   0  0  0  0  0  0  0  0  0  0  0  0
    4.3684   -2.7164   -2.7388 H   0  0  0  0  0  0  0  0  0  0  0  0
    6.0579   -3.5850   -1.1399 H   0  0  0  0  0  0  0  0  0  0  0  0
    6.7282   -2.1982    0.8065 H   0  0  0  0  0  0  0  0  0  0  0  0
    5.7161   -0.0047    1.1748 H   0  0  0  0  0  0  0  0  0  0  0  0
   -5.1304   -1.5750   -2.5503 H   0  0  0  0  0  0  0  0  0  0  0  0
   -7.4268   -2.5058   -2.4142 H   0  0  0  0  0  0  0  0  0  0  0  0
   -7.9348   -0.7595    1.4637 H   0  0  0  0  0  0  0  0  0  0  0  0
   -5.6601    0.1797    1.3765 H   0  0  0  0  0  0  0  0  0  0  0  0
  1  2  2  0
  2  3  1  0
  3  4  1  0
  4  5  1  0
  5  6  1  0
  6  7  1  0
  7  8  1  0
  8  9  1  0
  9 10  1  0
 10 11  1  0
  9 12  1  0
 12 13  2  0
 12 14  1  0
 14 15  1  0
 15 16  1  0
 16 17  1  0
 17 18  2  0
 18 19  1  0
 19 20  2  0
 20 21  1  0
 21 22  2  0
  2 23  1  0
 23 24  2  0
 24 25  1  0
 25 26  2  0
 26 27  1  0
 26 28  1  0
 28 29  2  0
 11  6  1  0
 22 17  1  0
 29 23  1  0
 16  9  1  0
  3 30  1  0
  3 31  1  0
  4 32  1  0
  4 33  1  0
  5 34  1  0
  5 35  1  0
  7 36  1  0
  7 37  1  0
  8 38  1  0
  8 39  1  0
 10 40  1  0
 10 41  1  0
 11 42  1  0
 11 43  1  0
 14 44  1  0
 15 45  1  0
 15 46  1  0
 18 47  1  0
 19 48  1  0
 20 49  1  0
 21 50  1  0
 22 51  1  0
 24 52  1  0
 25 53  1  0
 28 54  1  0
 29 55  1  0
M  END
$$$$
