
     RDKit          3D

 40 42  0  0  0  0  0  0  0  0999 V2000
   -5.6461   -1.1220   -2.2456 C   0  0  0  0  0  0  0  0  0  0  0  0
   -4.3191   -1.4173   -1.0962 S   0  0  0  0  0  6  0  0  0  0  0  0
   -3.2227   -1.9781   -1.8598 O   0  0  0  0  0  0  0  0  0  0  0  0
   -4.8588   -2.1079    0.0566 O   0  0  0  0  0  0  0  0  0  0  0  0
   -3.9337    0.1776   -0.6352 N   0  0  0  0  0  0  0  0  0  0  0  0
   -4.9562    0.8874    0.2122 C   0  0  0  0  0  0  0  0  0  0  0  0
   -4.2841    1.2070    1.5571 C   0  0  0  0  0  0  0  0  0  0  0  0
   -2.8407    0.9921    1.2529 C   0  0  0  0  0  0  0  0  0  0  0  0
   -1.7491    1.2894    2.0494 C   0  0  0  0  0  0  0  0  0  0  0  0
   -0.4714    0.9524    1.5858 C   0  0  0  0  0  0  0  0  0  0  0  0
   -0.2937    0.3263    0.3407 C   0  0  0  0  0  0  0  0  0  0  0  0
    0.9646   -0.0509   -0.1760 N   0  0  0  0  0  0  0  0  0  0  0  0
    2.2173    0.2547    0.3330 C   0  0  0  0  0  0  0  0  0  0  0  0
    2.4300    0.9972    1.2822 O   0  0  0  0  0  0  0  0  0  0  0  0
    3.2014   -0.3972   -0.3920 N   0  0  0  0  0  0  0  0  0  0  0  0
    4.6011   -0.2899   -0.2406 C   0  0  0  0  0  0  0  0  0  0  0  0
    5.2383    0.6277    0.5970 C   0  0  0  0  0  0  0  0  0  0  0  0
    6.6359    0.6570    0.6695 C   0  0  0  0  0  0  0  0  0  0  0  0
    7.3907   -0.2261   -0.0963 C   0  0  0  0  0  0  0  0  0  0  0  0
    8.7270   -0.1888   -0.0202 F   0  0  0  0  0  0  0  0  0  0  0  0
    6.7801   -1.1415   -0.9390 C   0  0  0  0  0  0  0  0  0  0  0  0
    5.3922   -1.1629   -1.0038 C   0  0  0  0  0  0  0  0  0  0  0  0
    4.7954   -2.0459   -1.8213 F   0  0  0  0  0  0  0  0  0  0  0  0
   -1.4158    0.0271   -0.4456 C   0  0  0  0  0  0  0  0  0  0  0  0
   -2.6749    0.3532    0.0308 C   0  0  0  0  0  0  0  0  0  0  0  0
   -5.9546   -2.0869   -2.6545 H   0  0  0  0  0  0  0  0  0  0  0  0
   -6.4865   -0.6602   -1.7260 H   0  0  0  0  0  0  0  0  0  0  0  0
   -5.2805   -0.4812   -3.0502 H   0  0  0  0  0  0  0  0  0  0  0  0
   -5.8764    0.3149    0.3604 H   0  0  0  0  0  0  0  0  0  0  0  0
   -5.2301    1.8135   -0.3085 H   0  0  0  0  0  0  0  0  0  0  0  0
   -4.6128    0.5048    2.3304 H   0  0  0  0  0  0  0  0  0  0  0  0
   -4.4980    2.2314    1.8753 H   0  0  0  0  0  0  0  0  0  0  0  0
   -1.8702    1.7644    3.0181 H   0  0  0  0  0  0  0  0  0  0  0  0
    0.3738    1.1808    2.2289 H   0  0  0  0  0  0  0  0  0  0  0  0
    0.9486   -0.5076   -1.0758 H   0  0  0  0  0  0  0  0  0  0  0  0
    2.8986   -1.1306   -1.0195 H   0  0  0  0  0  0  0  0  0  0  0  0
    4.6798    1.3357    1.2019 H   0  0  0  0  0  0  0  0  0  0  0  0
    7.1367    1.3675    1.3207 H   0  0  0  0  0  0  0  0  0  0  0  0
    7.3726   -1.8251   -1.5344 H   0  0  0  0  0  0  0  0  0  0  0  0
   -1.3088   -0.4420   -1.4172 H   0  0  0  0  0  0  0  0  0  0  0  0
  1  2  1  0
  2  3  2  0
  2  4  2  0
  2  5  1  0
  5  6  1  0
  6  7  1  0
  7  8  1  0
  8  9  2  0
  9 10  1  0
 10 11  2  0
 11 12  1  0
 12 13  1  0
 13 14  2  0
 13 15  1  0
 15 16  1  0
 16 17  2  0
 17 18  1  0
 18 19  2  0
 19 20  1  0
 19 21  1  0
 21 22  2  0
 22 23  1  0
 11 24  1  0
 24 25  2  0
 25  5  1  0
 25  8  1  0
 22 16  1  0
  1 26  1  0
  1 27  1  0
  1 28  1  0
  6 29  1  0
  6 30  1  0
  7 31  1  0
  7 32  1  0
  9 33  1  0
 10 34  1  0
 12 35  1  0
 15 36  1  0
 17 37  1  0
 18 38  1  0
 21 39  1  0
 24 40  1  0
M  END
$$$$
