
     RDKit          3D

 55 56  0  0  0  0  0  0  0  0999 V2000
    8.2740   -1.2957   -0.2171 C   0  0  0  0  0  0  0  0  0  0  0  0
    7.6058    0.0652   -0.0271 C   0  0  0  0  0  0  0  0  0  0  0  0
    8.1473    0.7614    1.2175 C   0  0  0  0  0  0  0  0  0  0  0  0
    6.1589   -0.0737    0.0769 N   0  0  0  0  0  0  0  0  0  0  0  0
    5.3834   -0.2538   -1.0420 C   0  0  0  0  0  0  0  0  0  0  0  0
    5.8522   -0.2601   -2.1763 O   0  0  0  0  0  0  0  0  0  0  0  0
    4.0310   -0.4248   -0.7830 N   0  0  0  0  0  0  0  0  0  0  0  0
    3.3971   -0.1345    0.5039 C   0  0  0  0  0  0  0  0  0  0  0  0
    1.9349    0.2639    0.3516 C   0  0  0  0  0  0  0  0  0  0  0  0
    1.1350   -0.8310   -0.3695 C   0  0  0  0  0  0  0  0  0  0  0  0
   -0.2042   -0.3178   -0.8451 C   0  0  0  0  0  0  0  0  0  0  0  0
   -1.3475   -0.6884   -0.3046 N   0  0  0  0  0  0  0  0  0  0  0  0
   -2.4079   -0.0639   -0.9417 C   0  0  0  0  0  0  0  0  0  0  0  0
   -3.7958   -0.3574   -0.4773 C   0  0  0  0  0  0  0  0  0  0  0  0
   -4.1312    0.3909    0.8128 C   0  0  0  0  0  0  0  0  0  0  0  0
   -5.4715    0.1007    1.2912 N   0  0  0  0  0  0  0  0  0  0  0  0
   -6.5863    0.6690    0.7129 C   0  0  0  0  0  0  0  0  0  0  0  0
   -6.5165    1.4536   -0.2278 O   0  0  0  0  0  0  0  0  0  0  0  0
   -7.9030    0.2271    1.3464 C   0  0  0  0  0  0  0  0  0  0  0  0
   -9.0670    1.0729    0.8342 C   0  0  0  0  0  0  0  0  0  0  0  0
   -8.1610   -1.2526    1.0692 C   0  0  0  0  0  0  0  0  0  0  0  0
   -2.0456    0.7912   -1.9635 C   0  0  0  0  0  0  0  0  0  0  0  0
   -0.3444    0.8120   -2.1384 S   0  0  0  0  0  0  0  0  0  0  0  0
    1.9385   -1.5364   -1.4758 C   0  0  0  0  0  0  0  0  0  0  0  0
    3.1542   -0.7272   -1.9124 C   0  0  0  0  0  0  0  0  0  0  0  0
    9.3607   -1.1886   -0.2978 H   0  0  0  0  0  0  0  0  0  0  0  0
    8.0576   -1.9633    0.6244 H   0  0  0  0  0  0  0  0  0  0  0  0
    7.9169   -1.7888   -1.1272 H   0  0  0  0  0  0  0  0  0  0  0  0
    7.8263    0.6892   -0.9017 H   0  0  0  0  0  0  0  0  0  0  0  0
    7.6808    1.7444    1.3448 H   0  0  0  0  0  0  0  0  0  0  0  0
    9.2301    0.9070    1.1452 H   0  0  0  0  0  0  0  0  0  0  0  0
    7.9398    0.1788    2.1220 H   0  0  0  0  0  0  0  0  0  0  0  0
    5.8202   -0.5467    0.8996 H   0  0  0  0  0  0  0  0  0  0  0  0
    3.9405    0.6695    1.0118 H   0  0  0  0  0  0  0  0  0  0  0  0
    3.4845   -1.0381    1.1185 H   0  0  0  0  0  0  0  0  0  0  0  0
    1.8880    1.2131   -0.1973 H   0  0  0  0  0  0  0  0  0  0  0  0
    1.4948    0.4586    1.3374 H   0  0  0  0  0  0  0  0  0  0  0  0
    0.9078   -1.6051    0.3791 H   0  0  0  0  0  0  0  0  0  0  0  0
   -4.5128   -0.0983   -1.2658 H   0  0  0  0  0  0  0  0  0  0  0  0
   -3.8993   -1.4376   -0.3145 H   0  0  0  0  0  0  0  0  0  0  0  0
   -4.0446    1.4735    0.6608 H   0  0  0  0  0  0  0  0  0  0  0  0
   -3.4384    0.1123    1.6148 H   0  0  0  0  0  0  0  0  0  0  0  0
   -5.5798   -0.5554    2.0536 H   0  0  0  0  0  0  0  0  0  0  0  0
   -7.8194    0.3816    2.4295 H   0  0  0  0  0  0  0  0  0  0  0  0
   -8.8900    2.1366    1.0277 H   0  0  0  0  0  0  0  0  0  0  0  0
  -10.0014    0.7914    1.3308 H   0  0  0  0  0  0  0  0  0  0  0  0
   -9.2058    0.9511   -0.2459 H   0  0  0  0  0  0  0  0  0  0  0  0
   -9.1161   -1.5700    1.5009 H   0  0  0  0  0  0  0  0  0  0  0  0
   -7.3769   -1.8840    1.4997 H   0  0  0  0  0  0  0  0  0  0  0  0
   -8.1884   -1.4533   -0.0076 H   0  0  0  0  0  0  0  0  0  0  0  0
   -2.6856    1.3889   -2.5976 H   0  0  0  0  0  0  0  0  0  0  0  0
    1.3174   -1.7853   -2.3441 H   0  0  0  0  0  0  0  0  0  0  0  0
    2.2986   -2.4954   -1.0780 H   0  0  0  0  0  0  0  0  0  0  0  0
    3.7091   -1.2860   -2.6745 H   0  0  0  0  0  0  0  0  0  0  0  0
    2.8547    0.2258   -2.3633 H   0  0  0  0  0  0  0  0  0  0  0  0
  1  2  1  0
  2  3  1  0
  2  4  1  0
  4  5  1  0
  5  6  2  0
  5  7  1  0
  7  8  1  0
  8  9  1  0
  9 10  1  0
 10 11  1  0
 11 12  2  0
 12 13  1  0
 13 14  1  0
 14 15  1  0
 15 16  1  0
 16 17  1  0
 17 18  2  0
 17 19  1  0
 19 20  1  0
 19 21  1  0
 13 22  2  0
 22 23  1  0
 10 24  1  0
 24 25  1  0
 25  7  1  0
 23 11  1  0
  1 26  1  0
  1 27  1  0
  1 28  1  0
  2 29  1  0
  3 30  1  0
  3 31  1  0
  3 32  1  0
  4 33  1  0
  8 34  1  0
  8 35  1  0
  9 36  1  0
  9 37  1  0
 10 38  1  0
 14 39  1  0
 14 40  1  0
 15 41  1  0
 15 42  1  0
 16 43  1  0
 19 44  1  0
 20 45  1  0
 20 46  1  0
 20 47  1  0
 21 48  1  0
 21 49  1  0
 21 50  1  0
 22 51  1  0
 24 52  1  0
 24 53  1  0
 25 54  1  0
 25 55  1  0
M  END
$$$$
