
     RDKit          3D

 60 64  0  0  0  0  0  0  0  0999 V2000
   -4.2786    0.7339   -2.0950 C   0  0  0  0  0  0  0  0  0  0  0  0
   -4.0176    0.2254   -0.7329 N   0  0  0  0  0  0  0  0  0  0  0  0
   -5.2023   -0.4306   -0.0955 C   0  0  0  0  0  0  0  0  0  0  0  0
   -6.3371    0.5382    0.2773 C   0  0  2  0  0  0  0  0  0  0  0  0
   -7.3060   -0.1216    1.2716 C   0  0  0  0  0  0  0  0  0  0  0  0
   -8.3564    0.7644    1.6911 O   0  0  0  0  0  0  0  0  0  0  0  0
   -8.6257    1.8005    0.7377 C   0  0  0  0  0  0  0  0  0  0  0  0
   -8.3922    1.3232   -0.6925 C   0  0  0  0  0  0  0  0  0  0  0  0
   -7.0354    0.9196   -0.9290 O   0  0  0  0  0  0  0  0  0  0  0  0
   -3.1233    1.2476    0.2675 S   0  0  0  0  0  6  0  0  0  0  0  0
   -3.6360    2.5907    0.1292 O   0  0  0  0  0  0  0  0  0  0  0  0
   -2.9984    0.6319    1.5674 O   0  0  0  0  0  0  0  0  0  0  0  0
   -1.6172    1.2314   -0.4927 N   0  0  0  0  0  0  0  0  0  0  0  0
   -0.7962    0.0765   -0.2854 C   0  0  0  0  0  0  0  0  0  0  0  0
   -1.1029   -1.1391   -0.8951 C   0  0  0  0  0  0  0  0  0  0  0  0
   -0.2990   -2.2609   -0.6733 C   0  0  0  0  0  0  0  0  0  0  0  0
    0.8219   -2.1728    0.1579 C   0  0  0  0  0  0  0  0  0  0  0  0
    1.6478   -3.4736    0.4276 C   0  0  0  0  0  0  0  0  0  0  0  0
    2.9800   -3.5620    0.5405 C   0  0  0  0  0  0  0  0  0  0  0  0
    4.0178   -2.3989    0.4292 C   0  0  0  0  0  0  0  0  0  0  0  0
    5.1812   -2.7228   -0.1807 N   0  0  0  0  0  0  0  0  0  0  0  0
    6.1394   -1.7629   -0.2436 C   0  0  0  0  0  0  0  0  0  0  0  0
    6.0090   -0.4789    0.2777 C   0  0  0  0  0  0  0  0  0  0  0  0
    7.0634    0.5121    0.1705 C   0  0  0  0  0  0  0  0  0  0  0  0
    7.0066    1.9258    0.1908 C   0  0  0  0  0  0  0  0  0  0  0  0
    8.2079    2.4947    0.0635 N   0  0  0  0  0  0  0  0  0  0  0  0
    9.0450    1.4477   -0.0248 N   0  0  0  0  0  0  0  0  0  0  0  0
   10.4617    1.6780   -0.1735 C   0  0  0  0  0  0  0  0  0  0  0  0
    8.4092    0.2399    0.0261 C   0  0  0  0  0  0  0  0  0  0  0  0
    4.7963   -0.1754    0.8982 C   0  0  0  0  0  0  0  0  0  0  0  0
    3.7911   -1.1460    0.9813 C   0  0  0  0  0  0  0  0  0  0  0  0
    2.4248   -0.8129    1.5677 C   0  0  0  0  0  0  0  0  0  0  0  0
    2.3705   -0.3473    2.6920 O   0  0  0  0  0  0  0  0  0  0  0  0
    1.1306   -0.9496    0.7627 C   0  0  0  0  0  0  0  0  0  0  0  0
    0.3215    0.1732    0.5431 C   0  0  0  0  0  0  0  0  0  0  0  0
   -3.3354    0.9027   -2.6227 H   0  0  0  0  0  0  0  0  0  0  0  0
   -4.8467    1.6677   -2.0776 H   0  0  0  0  0  0  0  0  0  0  0  0
   -4.8393   -0.0059   -2.6756 H   0  0  0  0  0  0  0  0  0  0  0  0
   -4.8495   -0.9751    0.7881 H   0  0  0  0  0  0  0  0  0  0  0  0
   -5.5766   -1.1938   -0.7902 H   0  0  0  0  0  0  0  0  0  0  0  0
   -5.9408    1.4559    0.7224 H   0  0  0  0  0  0  0  0  0  0  0  0
   -7.7863   -0.9965    0.8191 H   0  0  0  0  0  0  0  0  0  0  0  0
   -6.7820   -0.4541    2.1728 H   0  0  0  0  0  0  0  0  0  0  0  0
   -7.9768    2.6506    0.9751 H   0  0  0  0  0  0  0  0  0  0  0  0
   -9.6629    2.1202    0.8748 H   0  0  0  0  0  0  0  0  0  0  0  0
   -8.6365    2.1109   -1.4118 H   0  0  0  0  0  0  0  0  0  0  0  0
   -9.0282    0.4578   -0.9115 H   0  0  0  0  0  0  0  0  0  0  0  0
   -1.1536    2.1043   -0.2396 H   0  0  0  0  0  0  0  0  0  0  0  0
   -1.9659   -1.2281   -1.5491 H   0  0  0  0  0  0  0  0  0  0  0  0
   -0.5613   -3.2022   -1.1511 H   0  0  0  0  0  0  0  0  0  0  0  0
    1.0804   -4.3956    0.5510 H   0  0  0  0  0  0  0  0  0  0  0  0
    3.4040   -4.5453    0.7349 H   0  0  0  0  0  0  0  0  0  0  0  0
    7.0432   -2.0786   -0.7575 H   0  0  0  0  0  0  0  0  0  0  0  0
    6.1394    2.5671    0.2865 H   0  0  0  0  0  0  0  0  0  0  0  0
   10.7594    2.4865    0.4994 H   0  0  0  0  0  0  0  0  0  0  0  0
   10.6536    1.9549   -1.2126 H   0  0  0  0  0  0  0  0  0  0  0  0
   11.0047    0.7650    0.0829 H   0  0  0  0  0  0  0  0  0  0  0  0
    8.9650   -0.6854   -0.0324 H   0  0  0  0  0  0  0  0  0  0  0  0
    4.6169    0.8053    1.3327 H   0  0  0  0  0  0  0  0  0  0  0  0
    0.5742    1.1121    1.0291 H   0  0  0  0  0  0  0  0  0  0  0  0
  1  2  1  0
  2  3  1  0
  3  4  1  0
  4  5  1  0
  5  6  1  0
  6  7  1  0
  7  8  1  0
  8  9  1  0
  2 10  1  0
 10 11  2  0
 10 12  2  0
 10 13  1  0
 13 14  1  0
 14 15  2  0
 15 16  1  0
 16 17  2  0
 17 18  1  0
 18 19  2  0
 19 20  1  0
 20 21  2  0
 21 22  1  0
 22 23  2  0
 23 24  1  0
 24 25  1  0
 25 26  2  0
 26 27  1  0
 27 28  1  0
 27 29  1  0
 23 30  1  0
 30 31  2  0
 31 32  1  0
 32 33  2  0
 32 34  1  0
 34 35  2  0
  9  4  1  0
 35 14  1  0
 34 17  1  0
 31 20  1  0
 29 24  2  0
  1 36  1  0
  1 37  1  0
  1 38  1  0
  3 39  1  0
  3 40  1  0
  4 41  1  1
  5 42  1  0
  5 43  1  0
  7 44  1  0
  7 45  1  0
  8 46  1  0
  8 47  1  0
 13 48  1  0
 15 49  1  0
 16 50  1  0
 18 51  1  0
 19 52  1  0
 22 53  1  0
 25 54  1  0
 28 55  1  0
 28 56  1  0
 28 57  1  0
 29 58  1  0
 30 59  1  0
 35 60  1  0
M  END
$$$$
