
     RDKit          3D

 51 54  0  0  0  0  0  0  0  0999 V2000
   -1.6374   -2.6291    0.1709 O   0  0  0  0  0  0  0  0  0  0  0  0
   -1.1322   -1.7184    0.8210 C   0  0  0  0  0  0  0  0  0  0  0  0
   -1.6411   -1.2361    2.0070 N   0  0  0  0  0  0  0  0  0  0  0  0
   -2.9687   -1.5638    2.4776 C   0  0  0  0  0  0  0  0  0  0  0  0
   -3.9974   -0.4467    2.1918 C   0  0  0  0  0  0  0  0  0  0  0  0
   -4.0516    0.0247    0.7978 N   0  0  0  0  0  0  0  0  0  0  0  0
   -4.5264   -0.9947   -0.1506 C   0  0  0  0  0  0  0  0  0  0  0  0
   -5.8969   -0.6925   -0.7563 C   0  0  0  0  0  0  0  0  0  0  0  0
   -5.9188    0.6658   -1.4522 C   0  0  0  0  0  0  0  0  0  0  0  0
   -5.0288    1.6907   -0.7522 C   0  0  0  0  0  0  0  0  0  0  0  0
   -4.7613    1.3059    0.7007 C   0  0  0  0  0  0  0  0  0  0  0  0
    0.1021   -1.0304    0.4043 C   0  0  0  0  0  0  0  0  0  0  0  0
    0.8790   -1.3053   -0.7725 C   0  0  0  0  0  0  0  0  0  0  0  0
    1.9019   -0.4034   -0.7167 C   0  0  0  0  0  0  0  0  0  0  0  0
    1.7190    0.2991    0.4209 N   0  0  0  0  0  0  0  0  0  0  0  0
    0.6376   -0.0086    1.1271 N   0  0  0  0  0  0  0  0  0  0  0  0
    2.6820    1.3578    0.6509 C   0  0  0  0  0  0  0  0  0  0  0  0
    3.7735    1.0211   -0.3970 C   0  0  1  0  0  0  0  0  0  0  0  0
    4.8353    0.3398    0.2900 O   0  0  0  0  0  0  0  0  0  0  0  0
    6.0695    0.3072   -0.2890 C   0  0  0  0  0  0  0  0  0  0  0  0
    6.4062    0.7515   -1.5640 C   0  0  0  0  0  0  0  0  0  0  0  0
    7.7257    0.6395   -2.0059 C   0  0  0  0  0  0  0  0  0  0  0  0
    8.6663    0.0821   -1.1552 C   0  0  0  0  0  0  0  0  0  0  0  0
    8.3780   -0.3639    0.0835 N   0  0  0  0  0  0  0  0  0  0  0  0
    7.0887   -0.2436    0.4824 C   0  0  0  0  0  0  0  0  0  0  0  0
    3.0944    0.0721   -1.4408 C   0  0  0  0  0  0  0  0  0  0  0  0
   -1.1685   -0.4059    2.3540 H   0  0  0  0  0  0  0  0  0  0  0  0
   -2.8917   -1.7064    3.5609 H   0  0  0  0  0  0  0  0  0  0  0  0
   -3.2918   -2.5150    2.0434 H   0  0  0  0  0  0  0  0  0  0  0  0
   -3.7157    0.4020    2.8300 H   0  0  0  0  0  0  0  0  0  0  0  0
   -4.9896   -0.7752    2.5266 H   0  0  0  0  0  0  0  0  0  0  0  0
   -3.7934   -1.0532   -0.9649 H   0  0  0  0  0  0  0  0  0  0  0  0
   -4.5592   -1.9945    0.2955 H   0  0  0  0  0  0  0  0  0  0  0  0
   -6.1756   -1.4758   -1.4705 H   0  0  0  0  0  0  0  0  0  0  0  0
   -6.6558   -0.7111    0.0366 H   0  0  0  0  0  0  0  0  0  0  0  0
   -6.9527    1.0291   -1.4908 H   0  0  0  0  0  0  0  0  0  0  0  0
   -5.5909    0.5606   -2.4935 H   0  0  0  0  0  0  0  0  0  0  0  0
   -5.4955    2.6811   -0.8025 H   0  0  0  0  0  0  0  0  0  0  0  0
   -4.0744    1.7716   -1.2887 H   0  0  0  0  0  0  0  0  0  0  0  0
   -4.1525    2.0904    1.1657 H   0  0  0  0  0  0  0  0  0  0  0  0
   -5.7145    1.2707    1.2450 H   0  0  0  0  0  0  0  0  0  0  0  0
    0.6741   -2.0525   -1.5265 H   0  0  0  0  0  0  0  0  0  0  0  0
    3.0256    1.3078    1.6869 H   0  0  0  0  0  0  0  0  0  0  0  0
    2.1748    2.3016    0.4310 H   0  0  0  0  0  0  0  0  0  0  0  0
    4.1431    1.9526   -0.8412 H   0  0  0  0  0  0  0  0  0  0  0  0
    5.6769    1.1787   -2.2421 H   0  0  0  0  0  0  0  0  0  0  0  0
    8.0131    0.9779   -2.9956 H   0  0  0  0  0  0  0  0  0  0  0  0
    9.7041   -0.0250   -1.4577 H   0  0  0  0  0  0  0  0  0  0  0  0
    6.8843   -0.6161    1.4828 H   0  0  0  0  0  0  0  0  0  0  0  0
    2.7865    0.6423   -2.3235 H   0  0  0  0  0  0  0  0  0  0  0  0
    3.7405   -0.7565   -1.7429 H   0  0  0  0  0  0  0  0  0  0  0  0
  1  2  2  0
  2  3  1  0
  3  4  1  0
  4  5  1  0
  5  6  1  0
  6  7  1  0
  7  8  1  0
  8  9  1  0
  9 10  1  0
 10 11  1  0
  2 12  1  0
 12 13  1  0
 13 14  2  0
 14 15  1  0
 15 16  1  0
 15 17  1  0
 17 18  1  0
 18 19  1  0
 19 20  1  0
 20 21  2  0
 21 22  1  0
 22 23  2  0
 23 24  1  0
 24 25  2  0
 18 26  1  0
 11  6  1  0
 16 12  2  0
 25 20  1  0
 26 14  1  0
  3 27  1  0
  4 28  1  0
  4 29  1  0
  5 30  1  0
  5 31  1  0
  7 32  1  0
  7 33  1  0
  8 34  1  0
  8 35  1  0
  9 36  1  0
  9 37  1  0
 10 38  1  0
 10 39  1  0
 11 40  1  0
 11 41  1  0
 13 42  1  0
 17 43  1  0
 17 44  1  0
 18 45  1  6
 21 46  1  0
 22 47  1  0
 23 48  1  0
 25 49  1  0
 26 50  1  0
 26 51  1  0
M  END
$$$$
