
     RDKit          3D

 51 52  0  0  0  0  0  0  0  0999 V2000
    5.8048    1.5841    0.1183 C   0  0  0  0  0  0  0  0  0  0  0  0
    4.4258    1.2332    0.0470 N   0  0  0  0  0  0  0  0  0  0  0  0
    4.2263   -0.1237    0.5827 C   0  0  0  0  0  0  0  0  0  0  0  0
    2.7441   -0.4126    0.6976 C   0  0  0  0  0  0  0  0  0  0  0  0
    2.0653    0.1534   -0.3887 N   0  0  0  0  0  0  0  0  0  0  0  0
    0.7201   -0.3408   -0.6308 C   0  0  0  0  0  0  0  0  0  0  0  0
   -0.2353    0.0300    0.3745 C   0  0  0  0  0  0  0  0  0  0  0  0
    0.2237    0.7391    1.3445 O   0  0  0  0  0  0  0  0  0  0  0  0
   -1.5868   -0.2684    0.4169 N   0  0  0  0  0  0  0  0  0  0  0  0
   -2.2002   -1.2054   -0.4470 C   0  0  0  0  0  0  0  0  0  0  0  0
   -1.3766   -2.3207   -0.5366 C   0  0  0  0  0  0  0  0  0  0  0  0
   -1.7767   -3.3227   -1.3717 C   0  0  0  0  0  0  0  0  0  0  0  0
   -2.9631   -3.2005   -2.0828 C   0  0  0  0  0  0  0  0  0  0  0  0
   -3.7873   -2.0898   -1.9908 C   0  0  0  0  0  0  0  0  0  0  0  0
   -3.3681   -1.0875   -1.1437 C   0  0  0  0  0  0  0  0  0  0  0  0
   -4.3751   -0.0043   -1.0990 C   0  0  0  0  0  0  0  0  0  0  0  0
   -5.0670    0.1585   -2.1062 O   0  0  0  0  0  0  0  0  0  0  0  0
   -4.5589    0.8378    0.0628 N   0  0  0  0  0  0  0  0  0  0  0  0
   -3.6738    1.0174    1.1740 C   0  0  0  0  0  0  0  0  0  0  0  0
   -4.2491    1.7848    2.1629 C   0  0  0  0  0  0  0  0  0  0  0  0
   -3.5273    2.0713    3.3108 C   0  0  0  0  0  0  0  0  0  0  0  0
   -2.2517    1.5869    3.4448 C   0  0  0  0  0  0  0  0  0  0  0  0
   -1.7239    0.8429    2.4610 N   0  0  0  0  0  0  0  0  0  0  0  0
   -2.3799    0.5438    1.3444 C   0  0  0  0  0  0  0  0  0  0  0  0
    2.8346    0.3051   -1.5702 C   0  0  0  0  0  0  0  0  0  0  0  0
    3.9428    1.3025   -1.3233 C   0  0  0  0  0  0  0  0  0  0  0  0
    0.6839    0.0000    0.0000 Cl  0  0  0  0  0  0  0  0  0  0  0  0
    0.6897    0.0000    0.0000 Cl  0  0  0  0  0  0  0  0  0  0  0  0
    6.2688    1.3360   -0.8759 H   0  0  0  0  0  0  0  0  0  0  0  0
    6.3125    0.9639    0.8626 H   0  0  0  0  0  0  0  0  0  0  0  0
    5.9832    2.6750    0.2627 H   0  0  0  0  0  0  0  0  0  0  0  0
    4.6353   -0.0823    1.6145 H   0  0  0  0  0  0  0  0  0  0  0  0
    4.7562   -0.8765   -0.0454 H   0  0  0  0  0  0  0  0  0  0  0  0
    2.3569   -0.1182    1.6912 H   0  0  0  0  0  0  0  0  0  0  0  0
    2.6533   -1.5352    0.6777 H   0  0  0  0  0  0  0  0  0  0  0  0
    0.4270    0.2448   -1.5854 H   0  0  0  0  0  0  0  0  0  0  0  0
    0.8300   -1.3522   -0.9899 H   0  0  0  0  0  0  0  0  0  0  0  0
   -0.5104   -2.3357    0.0947 H   0  0  0  0  0  0  0  0  0  0  0  0
   -1.1329   -4.2087   -1.4556 H   0  0  0  0  0  0  0  0  0  0  0  0
   -3.2229   -4.0177   -2.7216 H   0  0  0  0  0  0  0  0  0  0  0  0
   -4.7095   -1.9954   -2.5459 H   0  0  0  0  0  0  0  0  0  0  0  0
   -5.4568    1.3614    0.0517 H   0  0  0  0  0  0  0  0  0  0  0  0
   -5.2607    2.1656    2.0494 H   0  0  0  0  0  0  0  0  0  0  0  0
   -3.9549    2.6619    4.0858 H   0  0  0  0  0  0  0  0  0  0  0  0
   -1.6640    1.8099    4.3584 H   0  0  0  0  0  0  0  0  0  0  0  0
    3.2768   -0.6264   -1.9863 H   0  0  0  0  0  0  0  0  0  0  0  0
    2.1319    0.6682   -2.3651 H   0  0  0  0  0  0  0  0  0  0  0  0
    4.8302    1.1195   -1.9687 H   0  0  0  0  0  0  0  0  0  0  0  0
    3.5631    2.3277   -1.4994 H   0  0  0  0  0  0  0  0  0  0  0  0
   -0.6839    0.0000    0.0000 H   0  0  0  0  0  0  0  0  0  0  0  0
   -0.6897    0.0000    0.0000 H   0  0  0  0  0  0  0  0  0  0  0  0
  1  2  1  0
  2  3  1  0
  3  4  1  0
  4  5  1  0
  5  6  1  0
  6  7  1  0
  7  8  2  0
  7  9  1  0
  9 10  1  0
 10 11  2  0
 11 12  1  0
 12 13  2  0
 13 14  1  0
 14 15  2  0
 15 16  1  0
 16 17  2  0
 16 18  1  0
 18 19  1  0
 19 20  2  0
 20 21  1  0
 21 22  2  0
 22 23  1  0
 23 24  2  0
  5 25  1  0
 25 26  1  0
 26  2  1  0
 24  9  1  0
 15 10  1  0
 24 19  1  0
  1 29  1  0
  1 30  1  0
  1 31  1  0
  3 32  1  0
  3 33  1  0
  4 34  1  0
  4 35  1  0
  6 36  1  0
  6 37  1  0
 11 38  1  0
 12 39  1  0
 13 40  1  0
 14 41  1  0
 18 42  1  0
 20 43  1  0
 21 44  1  0
 22 45  1  0
 25 46  1  0
 25 47  1  0
 26 48  1  0
 26 49  1  0
 27 50  1  0
 28 51  1  0
M  END
$$$$
