
     RDKit          3D

 55 54  0  0  0  0  0  0  0  0999 V2000
   -3.6397   -4.2680    1.6946 C   0  0  0  0  0  0  0  0  0  0  0  0
   -3.3556   -3.1671    0.6839 C   0  0  0  0  0  0  0  0  0  0  0  0
   -3.5172   -1.7813    1.3097 C   0  0  0  0  0  0  0  0  0  0  0  0
   -3.3594   -0.6327    0.3071 C   0  0  0  0  0  0  0  0  0  0  0  0
   -1.9460   -0.5291   -0.2746 C   0  0  0  0  0  0  0  0  0  0  0  0
   -1.7601    0.6393   -1.2450 C   0  0  0  0  0  0  0  0  0  0  0  0
   -1.9823    2.3094   -0.5419 S   0  0  0  0  0  0  0  0  0  0  0  0
   -0.6621    2.3675    0.7344 C   0  0  0  0  0  0  0  0  0  0  0  0
    0.7929    2.4539    0.2411 C   0  0  0  0  0  0  0  0  0  0  0  0
    1.2999    1.1974   -0.3065 N   0  0  0  0  0  0  0  0  0  0  0  0
    1.6200    0.1291    0.4934 C   0  0  0  0  0  0  0  0  0  0  0  0
    1.4410    0.1314    1.7059 O   0  0  0  0  0  0  0  0  0  0  0  0
    2.1994   -1.0385   -0.2771 C   0  0  0  0  0  0  0  0  0  0  0  0
    2.3438   -2.2825    0.6003 C   0  0  0  0  0  0  0  0  0  0  0  0
    2.8491   -3.5001   -0.1783 C   0  0  0  0  0  0  0  0  0  0  0  0
    4.2030   -3.2390   -0.7249 N   0  0  0  0  0  0  0  0  0  0  0  0
    2.8419   -4.7472    0.7204 C   0  0  0  0  0  0  0  0  0  0  0  0
    1.9411   -5.1042    1.4621 O   0  0  0  0  0  0  0  0  0  0  0  0
    3.9590   -5.5020    0.6067 O   0  0  0  0  0  0  0  0  0  0  0  0
    1.0220    3.5554   -0.8129 C   0  0  0  0  0  0  0  0  0  0  0  0
    1.4933    3.3031   -1.9236 O   0  0  0  0  0  0  0  0  0  0  0  0
    0.7153    4.8351   -0.4207 N   0  0  0  0  0  0  0  0  0  0  0  0
    0.8178    5.9465   -1.3527 C   0  0  0  0  0  0  0  0  0  0  0  0
    0.4370    7.2379   -0.6571 C   0  0  0  0  0  0  0  0  0  0  0  0
    0.0137    7.3416    0.4852 O   0  0  0  0  0  0  0  0  0  0  0  0
    0.5949    8.3243   -1.4367 O   0  0  0  0  0  0  0  0  0  0  0  0
   -3.5151   -5.2508    1.2293 H   0  0  0  0  0  0  0  0  0  0  0  0
   -4.6646   -4.1991    2.0728 H   0  0  0  0  0  0  0  0  0  0  0  0
   -2.9539   -4.2053    2.5455 H   0  0  0  0  0  0  0  0  0  0  0  0
   -2.3370   -3.2981    0.3039 H   0  0  0  0  0  0  0  0  0  0  0  0
   -4.0389   -3.2746   -0.1663 H   0  0  0  0  0  0  0  0  0  0  0  0
   -2.7949   -1.6574    2.1259 H   0  0  0  0  0  0  0  0  0  0  0  0
   -4.5155   -1.7063    1.7588 H   0  0  0  0  0  0  0  0  0  0  0  0
   -4.0858   -0.7522   -0.5058 H   0  0  0  0  0  0  0  0  0  0  0  0
   -3.6165    0.2964    0.8279 H   0  0  0  0  0  0  0  0  0  0  0  0
   -1.2144   -0.4811    0.5372 H   0  0  0  0  0  0  0  0  0  0  0  0
   -1.7203   -1.4464   -0.8310 H   0  0  0  0  0  0  0  0  0  0  0  0
   -0.7791    0.5825   -1.7238 H   0  0  0  0  0  0  0  0  0  0  0  0
   -2.4925    0.5442   -2.0549 H   0  0  0  0  0  0  0  0  0  0  0  0
   -0.8009    1.5301    1.4239 H   0  0  0  0  0  0  0  0  0  0  0  0
   -0.8804    3.2676    1.3205 H   0  0  0  0  0  0  0  0  0  0  0  0
    1.4335    2.6988    1.0987 H   0  0  0  0  0  0  0  0  0  0  0  0
    1.6326    1.2301   -1.2678 H   0  0  0  0  0  0  0  0  0  0  0  0
    1.5375   -1.2573   -1.1236 H   0  0  0  0  0  0  0  0  0  0  0  0
    3.1728   -0.7256   -0.6708 H   0  0  0  0  0  0  0  0  0  0  0  0
    3.0143   -2.0689    1.4439 H   0  0  0  0  0  0  0  0  0  0  0  0
    1.3692   -2.5171    1.0493 H   0  0  0  0  0  0  0  0  0  0  0  0
    2.1835   -3.7172   -1.0214 H   0  0  0  0  0  0  0  0  0  0  0  0
    4.5484   -4.1257   -1.1049 H   0  0  0  0  0  0  0  0  0  0  0  0
    4.8324   -3.0543    0.0587 H   0  0  0  0  0  0  0  0  0  0  0  0
    3.7945   -6.2499    1.2196 H   0  0  0  0  0  0  0  0  0  0  0  0
    0.2355    5.0137    0.4562 H   0  0  0  0  0  0  0  0  0  0  0  0
    1.8499    6.0055   -1.7099 H   0  0  0  0  0  0  0  0  0  0  0  0
    0.1345    5.7633   -2.1870 H   0  0  0  0  0  0  0  0  0  0  0  0
    0.3084    9.0751   -0.8748 H   0  0  0  0  0  0  0  0  0  0  0  0
  1  2  1  0
  2  3  1  0
  3  4  1  0
  4  5  1  0
  5  6  1  0
  6  7  1  0
  7  8  1  0
  8  9  1  0
  9 10  1  0
 10 11  1  0
 11 12  2  0
 11 13  1  0
 13 14  1  0
 14 15  1  0
 15 16  1  0
 15 17  1  0
 17 18  2  0
 17 19  1  0
  9 20  1  0
 20 21  2  0
 20 22  1  0
 22 23  1  0
 23 24  1  0
 24 25  2  0
 24 26  1  0
  1 27  1  0
  1 28  1  0
  1 29  1  0
  2 30  1  0
  2 31  1  0
  3 32  1  0
  3 33  1  0
  4 34  1  0
  4 35  1  0
  5 36  1  0
  5 37  1  0
  6 38  1  0
  6 39  1  0
  8 40  1  0
  8 41  1  0
  9 42  1  0
 10 43  1  0
 13 44  1  0
 13 45  1  0
 14 46  1  0
 14 47  1  0
 15 48  1  0
 16 49  1  0
 16 50  1  0
 19 51  1  0
 22 52  1  0
 23 53  1  0
 23 54  1  0
 26 55  1  0
M  END
$$$$
