
     RDKit          3D

 47 49  0  0  0  0  0  0  0  0999 V2000
   -5.1568   -2.8633    1.3089 C   0  0  0  0  0  0  0  0  0  0  0  0
   -3.8950   -2.9240    0.6033 N   0  0  0  0  0  0  0  0  0  0  0  0
   -3.3618   -1.6830    0.2818 C   0  0  0  0  0  0  0  0  0  0  0  0
   -2.0262   -1.6047    0.3130 N   0  0  0  0  0  0  0  0  0  0  0  0
   -1.4598   -0.4282    0.0128 C   0  0  0  0  0  0  0  0  0  0  0  0
   -0.0579   -0.2932   -0.0113 N   0  0  0  0  0  0  0  0  0  0  0  0
    0.6669   -1.4963    0.3859 C   0  0  0  0  0  0  0  0  0  0  0  0
    2.1485   -1.2465    0.2133 C   0  0  0  0  0  0  0  0  0  0  0  0
    2.8693   -0.6596    1.2678 C   0  0  0  0  0  0  0  0  0  0  0  0
    4.2354   -0.3777    1.1427 C   0  0  0  0  0  0  0  0  0  0  0  0
    4.9206   -0.7065   -0.0270 C   0  0  0  0  0  0  0  0  0  0  0  0
    6.2841   -0.3605   -0.2772 N   0  0  0  0  0  0  0  0  0  0  0  0
    7.4315   -0.1303    0.9240 S   0  0  0  0  0  6  0  0  0  0  0  0
    7.3245    1.6277    1.1791 C   0  0  0  0  0  0  0  0  0  0  0  0
    8.7054   -0.3894    0.2868 O   0  0  0  0  0  0  0  0  0  0  0  0
    7.0472   -0.8137    2.1383 O   0  0  0  0  0  0  0  0  0  0  0  0
    4.2028   -1.2559   -1.0933 C   0  0  0  0  0  0  0  0  0  0  0  0
    2.8335   -1.5282   -0.9750 C   0  0  0  0  0  0  0  0  0  0  0  0
    2.0406   -2.1988   -2.3595 Cl  0  0  0  0  0  0  0  0  0  0  0  0
   -2.2168    0.6719   -0.3331 C   0  0  0  0  0  0  0  0  0  0  0  0
   -3.5887    0.5150   -0.3504 C   0  0  0  0  0  0  0  0  0  0  0  0
   -4.5014    1.6138   -0.7278 C   0  0  0  0  0  0  0  0  0  0  0  0
   -4.2249    2.4840   -1.7879 C   0  0  0  0  0  0  0  0  0  0  0  0
   -5.1239    3.5052   -2.0900 C   0  0  0  0  0  0  0  0  0  0  0  0
   -6.2797    3.6372   -1.3375 C   0  0  0  0  0  0  0  0  0  0  0  0
   -6.4884    2.7393   -0.3097 C   0  0  0  0  0  0  0  0  0  0  0  0
   -5.6294    1.7471    0.0162 N   0  0  0  0  0  0  0  0  0  0  0  0
   -4.1637   -0.6634   -0.0336 N   0  0  0  0  0  0  0  0  0  0  0  0
   -5.0840   -2.2557    2.2187 H   0  0  0  0  0  0  0  0  0  0  0  0
   -5.4490   -3.8740    1.6086 H   0  0  0  0  0  0  0  0  0  0  0  0
   -5.9574   -2.4685    0.6736 H   0  0  0  0  0  0  0  0  0  0  0  0
   -3.1550   -3.4471    1.0591 H   0  0  0  0  0  0  0  0  0  0  0  0
    0.2113    0.5047    0.5547 H   0  0  0  0  0  0  0  0  0  0  0  0
    0.4642   -1.7278    1.4404 H   0  0  0  0  0  0  0  0  0  0  0  0
    0.3608   -2.3763   -0.1930 H   0  0  0  0  0  0  0  0  0  0  0  0
    2.3691   -0.4100    2.2011 H   0  0  0  0  0  0  0  0  0  0  0  0
    4.7344    0.0904    1.9873 H   0  0  0  0  0  0  0  0  0  0  0  0
    6.7149   -0.7631   -1.1096 H   0  0  0  0  0  0  0  0  0  0  0  0
    7.4967    2.1350    0.2275 H   0  0  0  0  0  0  0  0  0  0  0  0
    6.3443    1.8766    1.5819 H   0  0  0  0  0  0  0  0  0  0  0  0
    8.0987    1.9099    1.8964 H   0  0  0  0  0  0  0  0  0  0  0  0
    4.7064   -1.4795   -2.0308 H   0  0  0  0  0  0  0  0  0  0  0  0
   -1.7468    1.6146   -0.5828 H   0  0  0  0  0  0  0  0  0  0  0  0
   -3.3336    2.3640   -2.3876 H   0  0  0  0  0  0  0  0  0  0  0  0
   -4.9265    4.1860   -2.9136 H   0  0  0  0  0  0  0  0  0  0  0  0
   -7.0030    4.4136   -1.5505 H   0  0  0  0  0  0  0  0  0  0  0  0
   -7.3816    2.7889    0.3047 H   0  0  0  0  0  0  0  0  0  0  0  0
  1  2  1  0
  2  3  1  0
  3  4  2  0
  4  5  1  0
  5  6  1  0
  6  7  1  0
  7  8  1  0
  8  9  2  0
  9 10  1  0
 10 11  2  0
 11 12  1  0
 12 13  1  0
 13 14  1  0
 13 15  2  0
 13 16  2  0
 11 17  1  0
 17 18  2  0
 18 19  1  0
  5 20  2  0
 20 21  1  0
 21 22  1  0
 22 23  2  0
 23 24  1  0
 24 25  2  0
 25 26  1  0
 26 27  2  0
 21 28  2  0
 28  3  1  0
 18  8  1  0
 27 22  1  0
  1 29  1  0
  1 30  1  0
  1 31  1  0
  2 32  1  0
  6 33  1  0
  7 34  1  0
  7 35  1  0
  9 36  1  0
 10 37  1  0
 12 38  1  0
 14 39  1  0
 14 40  1  0
 14 41  1  0
 17 42  1  0
 20 43  1  0
 23 44  1  0
 24 45  1  0
 25 46  1  0
 26 47  1  0
M  END
$$$$
