
     RDKit          3D

 54 56  0  0  0  0  0  0  0  0999 V2000
    1.8726    1.8136   -2.5916 C   0  0  0  0  0  0  0  0  0  0  0  0
    2.2132    0.4768   -2.2359 O   0  0  0  0  0  0  0  0  0  0  0  0
    1.4818   -0.0883   -1.2244 C   0  0  0  0  0  0  0  0  0  0  0  0
    0.1234    0.2006   -1.0005 C   0  0  0  0  0  0  0  0  0  0  0  0
   -0.6138   -0.4191    0.0252 C   0  0  0  0  0  0  0  0  0  0  0  0
    0.0910   -1.3312    0.8408 C   0  0  0  0  0  0  0  0  0  0  0  0
    1.4392   -1.6461    0.6068 C   0  0  0  0  0  0  0  0  0  0  0  0
    2.1462   -1.0348   -0.4342 C   0  0  0  0  0  0  0  0  0  0  0  0
    3.6096   -1.3672   -0.6429 C   0  0  0  0  0  0  0  0  0  0  0  0
    4.5516   -0.3984    0.0325 C   0  0  0  0  0  0  0  0  0  0  0  0
    4.7162   -0.4103    1.4279 C   0  0  0  0  0  0  0  0  0  0  0  0
    5.5725    0.5006    2.0519 C   0  0  0  0  0  0  0  0  0  0  0  0
    6.2749    1.4362    1.2906 C   0  0  0  0  0  0  0  0  0  0  0  0
    6.1219    1.4552   -0.0956 C   0  0  0  0  0  0  0  0  0  0  0  0
    6.9935    2.6159   -1.0253 Cl  0  0  0  0  0  0  0  0  0  0  0  0
    5.2691    0.5424   -0.7177 C   0  0  0  0  0  0  0  0  0  0  0  0
    5.1388    0.5602   -2.0544 F   0  0  0  0  0  0  0  0  0  0  0  0
   -0.5887   -1.9876    1.9875 C   0  0  0  0  0  0  0  0  0  0  0  0
   -0.0374   -2.9030    2.5896 O   0  0  0  0  0  0  0  0  0  0  0  0
   -1.9355   -1.4999    2.3386 C   0  0  0  0  0  0  0  0  0  0  0  0
   -2.6795   -1.8826    3.5428 C   0  0  0  0  0  0  0  0  0  0  0  0
   -3.8948   -1.9252    3.6473 O   0  0  0  0  0  0  0  0  0  0  0  0
   -1.8896   -2.1346    4.5978 O   0  0  0  0  0  0  0  0  0  0  0  0
   -2.5222   -0.6588    1.4759 C   0  0  0  0  0  0  0  0  0  0  0  0
   -1.9875   -0.1712    0.2843 N   0  0  0  0  0  0  0  0  0  0  0  0
   -2.7999    0.6698   -0.6536 C   0  0  2  0  0  0  0  0  0  0  0  0
   -2.9450    2.1030   -0.0763 C   0  0  0  0  0  0  0  0  0  0  0  0
   -3.8530    2.1926    1.0197 O   0  0  0  0  0  0  0  0  0  0  0  0
   -4.1546   -0.0176   -1.0191 C   0  0  0  0  0  0  0  0  0  0  0  0
   -4.9745    0.8321   -1.9999 C   0  0  0  0  0  0  0  0  0  0  0  0
   -3.9240   -1.4000   -1.6491 C   0  0  0  0  0  0  0  0  0  0  0  0
    2.7113    2.2326   -3.1555 H   0  0  0  0  0  0  0  0  0  0  0  0
    0.9923    1.8254   -3.2439 H   0  0  0  0  0  0  0  0  0  0  0  0
    1.7156    2.4441   -1.7082 H   0  0  0  0  0  0  0  0  0  0  0  0
   -0.3428    0.9274   -1.6506 H   0  0  0  0  0  0  0  0  0  0  0  0
    1.9381   -2.3690    1.2510 H   0  0  0  0  0  0  0  0  0  0  0  0
    3.8167   -2.3770   -0.2625 H   0  0  0  0  0  0  0  0  0  0  0  0
    3.8242   -1.4373   -1.7169 H   0  0  0  0  0  0  0  0  0  0  0  0
    4.1740   -1.1299    2.0401 H   0  0  0  0  0  0  0  0  0  0  0  0
    5.6889    0.4814    3.1338 H   0  0  0  0  0  0  0  0  0  0  0  0
    6.9377    2.1436    1.7820 H   0  0  0  0  0  0  0  0  0  0  0  0
   -2.5046   -2.3872    5.3156 H   0  0  0  0  0  0  0  0  0  0  0  0
   -3.5202   -0.2839    1.6934 H   0  0  0  0  0  0  0  0  0  0  0  0
   -2.2827    0.7734   -1.6115 H   0  0  0  0  0  0  0  0  0  0  0  0
   -3.2850    2.7989   -0.8505 H   0  0  0  0  0  0  0  0  0  0  0  0
   -1.9733    2.4683    0.2740 H   0  0  0  0  0  0  0  0  0  0  0  0
   -4.7543    2.0552    0.6839 H   0  0  0  0  0  0  0  0  0  0  0  0
   -4.7669   -0.1589   -0.1210 H   0  0  0  0  0  0  0  0  0  0  0  0
   -5.2714    1.7869   -1.5557 H   0  0  0  0  0  0  0  0  0  0  0  0
   -5.8953    0.3122   -2.2878 H   0  0  0  0  0  0  0  0  0  0  0  0
   -4.4069    1.0420   -2.9133 H   0  0  0  0  0  0  0  0  0  0  0  0
   -3.3020   -1.3264   -2.5479 H   0  0  0  0  0  0  0  0  0  0  0  0
   -3.4328   -2.0852   -0.9519 H   0  0  0  0  0  0  0  0  0  0  0  0
   -4.8764   -1.8597   -1.9352 H   0  0  0  0  0  0  0  0  0  0  0  0
  1  2  1  0
  2  3  1  0
  3  4  2  0
  4  5  1  0
  5  6  2  0
  6  7  1  0
  7  8  2  0
  8  9  1  0
  9 10  1  0
 10 11  2  0
 11 12  1  0
 12 13  2  0
 13 14  1  0
 14 15  1  0
 14 16  2  0
 16 17  1  0
  6 18  1  0
 18 19  2  0
 18 20  1  0
 20 21  1  0
 21 22  2  0
 21 23  1  0
 20 24  2  0
 24 25  1  0
 25 26  1  0
 26 27  1  0
 27 28  1  0
 26 29  1  0
 29 30  1  0
 29 31  1  0
  8  3  1  0
 16 10  1  0
 25  5  1  0
  1 32  1  0
  1 33  1  0
  1 34  1  0
  4 35  1  0
  7 36  1  0
  9 37  1  0
  9 38  1  0
 11 39  1  0
 12 40  1  0
 13 41  1  0
 23 42  1  0
 24 43  1  0
 26 44  1  6
 27 45  1  0
 27 46  1  0
 28 47  1  0
 29 48  1  0
 30 49  1  0
 30 50  1  0
 30 51  1  0
 31 52  1  0
 31 53  1  0
 31 54  1  0
M  END
$$$$
