
     RDKit          3D

 43 46  0  0  0  0  0  0  0  0999 V2000
   -0.5996   -1.6838    1.1858 O   0  0  0  0  0  0  0  0  0  0  0  0
   -0.9222   -0.4558    0.5330 C   0  0  0  0  0  0  0  0  0  0  0  0
    0.3650    0.1103   -0.0857 C   0  0  0  0  0  0  0  0  0  0  0  0
    1.4403    0.3783    0.9826 C   0  0  0  0  0  0  0  0  0  0  0  0
    2.6673   -0.5366    0.8705 C   0  0  0  0  0  0  0  0  0  0  0  0
    2.7504   -1.9106    1.0190 C   0  0  0  0  0  0  0  0  0  0  0  0
    4.0040   -2.5137    0.8707 C   0  0  0  0  0  0  0  0  0  0  0  0
    5.1510   -1.7475    0.5875 C   0  0  0  0  0  0  0  0  0  0  0  0
    5.0723   -0.3592    0.4537 C   0  0  0  0  0  0  0  0  0  0  0  0
    3.8320    0.2231    0.6009 C   0  0  0  0  0  0  0  0  0  0  0  0
    3.4352    1.5928    0.5553 C   0  0  0  0  0  0  0  0  0  0  0  0
    3.8475    2.8844    0.3976 C   0  0  0  0  0  0  0  0  0  0  0  0
    2.7622    3.7387    0.5433 N   0  0  0  0  0  0  0  0  0  0  0  0
    1.7168    2.9684    0.7917 C   0  0  0  0  0  0  0  0  0  0  0  0
    2.0875    1.6758    0.7810 N   0  0  0  0  0  0  0  0  0  0  0  0
   -2.0565   -0.6930   -0.4986 C   0  0  0  0  0  0  0  0  0  0  0  0
   -2.3997    0.5919   -1.2811 C   0  0  0  0  0  0  0  0  0  0  0  0
   -3.8150    0.5597   -1.8441 C   0  0  0  0  0  0  0  0  0  0  0  0
   -4.8605    0.4716   -0.7325 C   0  0  0  0  0  0  0  0  0  0  0  0
   -4.3612   -0.2667    0.5097 C   0  0  0  0  0  0  0  0  0  0  0  0
   -3.3119   -1.3157    0.1602 C   0  0  0  0  0  0  0  0  0  0  0  0
   -0.5623   -2.3843    0.5102 H   0  0  0  0  0  0  0  0  0  0  0  0
   -1.2810    0.2330    1.3073 H   0  0  0  0  0  0  0  0  0  0  0  0
    0.1256    1.0388   -0.6154 H   0  0  0  0  0  0  0  0  0  0  0  0
    0.7420   -0.5944   -0.8382 H   0  0  0  0  0  0  0  0  0  0  0  0
    1.0589    0.3838    2.0100 H   0  0  0  0  0  0  0  0  0  0  0  0
    1.8782   -2.5097    1.2562 H   0  0  0  0  0  0  0  0  0  0  0  0
    4.0982   -3.5919    0.9830 H   0  0  0  0  0  0  0  0  0  0  0  0
    6.1132   -2.2438    0.4815 H   0  0  0  0  0  0  0  0  0  0  0  0
    5.9566    0.2339    0.2496 H   0  0  0  0  0  0  0  0  0  0  0  0
    4.8406    3.2651    0.2023 H   0  0  0  0  0  0  0  0  0  0  0  0
    0.7073    3.3116    0.9726 H   0  0  0  0  0  0  0  0  0  0  0  0
   -1.6918   -1.4421   -1.2161 H   0  0  0  0  0  0  0  0  0  0  0  0
   -1.6865    0.7208   -2.1038 H   0  0  0  0  0  0  0  0  0  0  0  0
   -2.2986    1.4724   -0.6334 H   0  0  0  0  0  0  0  0  0  0  0  0
   -4.0021    1.4507   -2.4542 H   0  0  0  0  0  0  0  0  0  0  0  0
   -3.9179   -0.3038   -2.5134 H   0  0  0  0  0  0  0  0  0  0  0  0
   -5.1781    1.4794   -0.4386 H   0  0  0  0  0  0  0  0  0  0  0  0
   -5.7537   -0.0265   -1.1285 H   0  0  0  0  0  0  0  0  0  0  0  0
   -5.2095   -0.7349    1.0218 H   0  0  0  0  0  0  0  0  0  0  0  0
   -3.9307    0.4542    1.2159 H   0  0  0  0  0  0  0  0  0  0  0  0
   -3.0551   -1.8907    1.0561 H   0  0  0  0  0  0  0  0  0  0  0  0
   -3.7583   -2.0342   -0.5403 H   0  0  0  0  0  0  0  0  0  0  0  0
  1  2  1  0
  2  3  1  0
  3  4  1  0
  4  5  1  0
  5  6  2  0
  6  7  1  0
  7  8  2  0
  8  9  1  0
  9 10  2  0
 10 11  1  0
 11 12  2  0
 12 13  1  0
 13 14  2  0
 14 15  1  0
  2 16  1  0
 16 17  1  0
 17 18  1  0
 18 19  1  0
 19 20  1  0
 20 21  1  0
 15  4  1  0
 21 16  1  0
 10  5  1  0
 15 11  1  0
  1 22  1  0
  2 23  1  0
  3 24  1  0
  3 25  1  0
  4 26  1  0
  6 27  1  0
  7 28  1  0
  8 29  1  0
  9 30  1  0
 12 31  1  0
 14 32  1  0
 16 33  1  0
 17 34  1  0
 17 35  1  0
 18 36  1  0
 18 37  1  0
 19 38  1  0
 19 39  1  0
 20 40  1  0
 20 41  1  0
 21 42  1  0
 21 43  1  0
M  END
$$$$
