
     RDKit          3D

 69 72  0  0  0  0  0  0  0  0999 V2000
   10.6284    1.7590    1.2307 C   0  0  0  0  0  0  0  0  0  0  0  0
    9.8603    1.0777    2.2151 O   0  0  0  0  0  0  0  0  0  0  0  0
    8.5352    0.8888    1.9386 C   0  0  0  0  0  0  0  0  0  0  0  0
    7.8785    1.2574    0.7665 C   0  0  0  0  0  0  0  0  0  0  0  0
    6.5071    1.0078    0.6111 C   0  0  0  0  0  0  0  0  0  0  0  0
    5.7773    0.3859    1.6243 C   0  0  0  0  0  0  0  0  0  0  0  0
    4.3978    0.1001    1.5497 N   0  0  0  0  0  0  0  0  0  0  0  0
    3.5255    0.4108    0.5181 C   0  0  0  0  0  0  0  0  0  0  0  0
    3.8141    0.9944   -0.5212 O   0  0  0  0  0  0  0  0  0  0  0  0
    2.0958   -0.0516    0.8078 C   0  0  0  0  0  0  0  0  0  0  0  0
    1.1112    0.5369   -0.2114 C   0  0  0  0  0  0  0  0  0  0  0  0
   -0.3028    0.0339    0.0407 C   0  0  0  0  0  0  0  0  0  0  0  0
   -0.3128   -1.4523   -0.0213 N   0  0  0  0  0  0  0  0  0  0  0  0
   -1.8942   -2.1282   -0.0279 S   0  0  0  0  0  6  0  0  0  0  0  0
   -1.7719   -3.5659   -0.1177 O   0  0  0  0  0  0  0  0  0  0  0  0
   -2.6294   -1.4674    1.0287 O   0  0  0  0  0  0  0  0  0  0  0  0
   -2.6614   -1.6641   -1.5094 C   0  0  0  0  0  0  0  0  0  0  0  0
   -2.0753   -1.6100   -2.7660 C   0  0  0  0  0  0  0  0  0  0  0  0
   -0.7035   -1.9534   -3.2220 C   0  0  0  0  0  0  0  0  0  0  0  0
   -3.0363   -1.1650   -3.6417 N   0  0  0  0  0  0  0  0  0  0  0  0
   -4.2223   -0.9561   -2.9791 C   0  0  0  0  0  0  0  0  0  0  0  0
   -5.4423   -0.4971   -3.6932 C   0  0  0  0  0  0  0  0  0  0  0  0
   -4.0215   -1.2676   -1.6401 C   0  0  0  0  0  0  0  0  0  0  0  0
   -5.0383   -1.2417   -0.5963 C   0  0  0  0  0  0  0  0  0  0  0  0
   -5.5302   -2.2932   -0.1935 O   0  0  0  0  0  0  0  0  0  0  0  0
   -5.4327    0.0195   -0.1188 N   0  0  0  0  0  0  0  0  0  0  0  0
   -6.3149    0.0015    1.0455 C   0  0  0  0  0  0  0  0  0  0  0  0
   -7.0934    1.3011    1.2142 C   0  0  0  0  0  0  0  0  0  0  0  0
   -6.1654    2.5094    1.1864 C   0  0  0  0  0  0  0  0  0  0  0  0
   -5.3378    2.5014   -0.0925 C   0  0  0  0  0  0  0  0  0  0  0  0
   -4.5683    1.1937   -0.2476 C   0  0  0  0  0  0  0  0  0  0  0  0
    0.5655   -2.0544    1.0138 C   0  0  0  0  0  0  0  0  0  0  0  0
    2.0018   -1.5825    0.8020 C   0  0  0  0  0  0  0  0  0  0  0  0
    6.4420    0.0140    2.7976 C   0  0  0  0  0  0  0  0  0  0  0  0
    7.8088    0.2653    2.9516 C   0  0  0  0  0  0  0  0  0  0  0  0
   10.2504    2.7745    1.0687 H   0  0  0  0  0  0  0  0  0  0  0  0
   11.6531    1.8392    1.6048 H   0  0  0  0  0  0  0  0  0  0  0  0
   10.6596    1.1953    0.2924 H   0  0  0  0  0  0  0  0  0  0  0  0
    8.3967    1.7439   -0.0532 H   0  0  0  0  0  0  0  0  0  0  0  0
    6.0443    1.3116   -0.3222 H   0  0  0  0  0  0  0  0  0  0  0  0
    4.0036   -0.3544    2.3637 H   0  0  0  0  0  0  0  0  0  0  0  0
    1.8248    0.3239    1.8042 H   0  0  0  0  0  0  0  0  0  0  0  0
    1.4166    0.2670   -1.2312 H   0  0  0  0  0  0  0  0  0  0  0  0
    1.1253    1.6323   -0.1564 H   0  0  0  0  0  0  0  0  0  0  0  0
   -0.6548    0.3763    1.0211 H   0  0  0  0  0  0  0  0  0  0  0  0
   -0.9631    0.4531   -0.7258 H   0  0  0  0  0  0  0  0  0  0  0  0
   -0.3247   -2.8346   -2.6935 H   0  0  0  0  0  0  0  0  0  0  0  0
   -0.6880   -2.1792   -4.2942 H   0  0  0  0  0  0  0  0  0  0  0  0
   -0.0202   -1.1176   -3.0401 H   0  0  0  0  0  0  0  0  0  0  0  0
   -2.9015   -1.0417   -4.6384 H   0  0  0  0  0  0  0  0  0  0  0  0
   -5.4764    0.5969   -3.7143 H   0  0  0  0  0  0  0  0  0  0  0  0
   -6.3480   -0.8602   -3.1985 H   0  0  0  0  0  0  0  0  0  0  0  0
   -5.4573   -0.8624   -4.7252 H   0  0  0  0  0  0  0  0  0  0  0  0
   -7.0244   -0.8308    0.9701 H   0  0  0  0  0  0  0  0  0  0  0  0
   -5.6899   -0.1863    1.9275 H   0  0  0  0  0  0  0  0  0  0  0  0
   -7.6514    1.2793    2.1562 H   0  0  0  0  0  0  0  0  0  0  0  0
   -7.8283    1.3925    0.4050 H   0  0  0  0  0  0  0  0  0  0  0  0
   -5.5023    2.4870    2.0589 H   0  0  0  0  0  0  0  0  0  0  0  0
   -6.7505    3.4326    1.2483 H   0  0  0  0  0  0  0  0  0  0  0  0
   -6.0041    2.6336   -0.9546 H   0  0  0  0  0  0  0  0  0  0  0  0
   -4.6388    3.3454   -0.0913 H   0  0  0  0  0  0  0  0  0  0  0  0
   -3.7950    1.1141    0.5250 H   0  0  0  0  0  0  0  0  0  0  0  0
   -4.0561    1.2041   -1.2123 H   0  0  0  0  0  0  0  0  0  0  0  0
    0.2156   -1.7742    2.0142 H   0  0  0  0  0  0  0  0  0  0  0  0
    0.5501   -3.1468    0.9345 H   0  0  0  0  0  0  0  0  0  0  0  0
    2.6387   -2.0122    1.5834 H   0  0  0  0  0  0  0  0  0  0  0  0
    2.3784   -1.9696   -0.1536 H   0  0  0  0  0  0  0  0  0  0  0  0
    5.9136   -0.4722    3.6130 H   0  0  0  0  0  0  0  0  0  0  0  0
    8.3095   -0.0268    3.8712 H   0  0  0  0  0  0  0  0  0  0  0  0
  1  2  1  0
  2  3  1  0
  3  4  2  0
  4  5  1  0
  5  6  2  0
  6  7  1  0
  7  8  1  0
  8  9  2  0
  8 10  1  0
 10 11  1  0
 11 12  1  0
 12 13  1  0
 13 14  1  0
 14 15  2  0
 14 16  2  0
 14 17  1  0
 17 18  2  0
 18 19  1  0
 18 20  1  0
 20 21  1  0
 21 22  1  0
 21 23  2  0
 23 24  1  0
 24 25  2  0
 24 26  1  0
 26 27  1  0
 27 28  1  0
 28 29  1  0
 29 30  1  0
 30 31  1  0
 13 32  1  0
 32 33  1  0
  6 34  1  0
 34 35  2  0
 35  3  1  0
 33 10  1  0
 23 17  1  0
 31 26  1  0
  1 36  1  0
  1 37  1  0
  1 38  1  0
  4 39  1  0
  5 40  1  0
  7 41  1  0
 10 42  1  0
 11 43  1  0
 11 44  1  0
 12 45  1  0
 12 46  1  0
 19 47  1  0
 19 48  1  0
 19 49  1  0
 20 50  1  0
 22 51  1  0
 22 52  1  0
 22 53  1  0
 27 54  1  0
 27 55  1  0
 28 56  1  0
 28 57  1  0
 29 58  1  0
 29 59  1  0
 30 60  1  0
 30 61  1  0
 31 62  1  0
 31 63  1  0
 32 64  1  0
 32 65  1  0
 33 66  1  0
 33 67  1  0
 34 68  1  0
 35 69  1  0
M  END
$$$$
