
     RDKit          3D

 57 59  0  0  0  0  0  0  0  0999 V2000
    1.4205    4.6991    1.7317 C   0  0  0  0  0  0  0  0  0  0  0  0
    1.3981    3.7920    0.5099 C   0  0  0  0  0  0  0  0  0  0  0  0
    0.6729    2.4726    0.8097 C   0  0  0  0  0  0  0  0  0  0  0  0
    0.6137    1.6187   -0.3854 N   0  0  0  0  0  0  0  0  0  0  0  0
    1.8898    0.9139   -0.6421 C   0  0  0  0  0  0  0  0  0  0  0  0
    1.9867   -0.5721   -0.1956 C   0  0  2  0  0  0  0  0  0  0  0  0
    1.7992   -1.5907   -1.3391 C   0  0  0  0  0  0  0  0  0  0  0  0
    3.1701   -1.5926   -2.5530 S   0  0  0  0  0  0  0  0  0  0  0  0
    4.4265   -2.4721   -1.5919 C   0  0  0  0  0  0  0  0  0  0  0  0
    1.0367   -0.8847    0.9759 C   0  0  0  0  0  0  0  0  0  0  0  0
   -0.4122   -0.3913    0.7850 C   0  0  2  0  0  0  0  0  0  0  0  0
   -1.4838   -1.4557    0.6053 C   0  0  0  0  0  0  0  0  0  0  0  0
   -1.4750   -2.7687    1.0925 C   0  0  0  0  0  0  0  0  0  0  0  0
   -2.5745   -3.6204    0.8952 C   0  0  0  0  0  0  0  0  0  0  0  0
   -3.7359   -3.1976    0.2284 C   0  0  0  0  0  0  0  0  0  0  0  0
   -3.7499   -1.8779   -0.2212 C   0  0  0  0  0  0  0  0  0  0  0  0
   -4.6994   -1.1260   -0.8800 N   0  0  0  0  0  0  0  0  0  0  0  0
   -4.2334    0.1549   -1.0993 C   0  0  0  0  0  0  0  0  0  0  0  0
   -2.9621    0.2285   -0.5803 C   0  0  0  0  0  0  0  0  0  0  0  0
   -2.6666   -1.0425   -0.0330 C   0  0  0  0  0  0  0  0  0  0  0  0
   -1.9337    1.3147   -0.5146 C   0  0  0  0  0  0  0  0  0  0  0  0
   -0.5073    0.6596   -0.3929 C   0  0  1  0  0  0  0  0  0  0  0  0
   -1.1169   -0.0021    0.1712 C   0  0  0  0  0  0  0  0  0  0  0  0
    0.5712   -0.4311   -0.1850 S   0  0  0  0  0  6  0  0  0  0  0  0
    0.6353   -1.1618   -1.4280 O   0  0  0  0  0  0  0  0  0  0  0  0
    1.2190   -0.8873    1.0234 O   0  0  0  0  0  0  0  0  0  0  0  0
    1.1310    1.0601   -0.4469 O   0  0  0  0  0  0  0  0  0  0  0  0
    0.4047    4.9443    2.0578 H   0  0  0  0  0  0  0  0  0  0  0  0
    1.9371    5.6355    1.4988 H   0  0  0  0  0  0  0  0  0  0  0  0
    1.9438    4.2202    2.5654 H   0  0  0  0  0  0  0  0  0  0  0  0
    0.8932    4.3142   -0.3120 H   0  0  0  0  0  0  0  0  0  0  0  0
    2.4303    3.6119    0.1913 H   0  0  0  0  0  0  0  0  0  0  0  0
   -0.3346    2.7352    1.1481 H   0  0  0  0  0  0  0  0  0  0  0  0
    1.1550    1.9584    1.6495 H   0  0  0  0  0  0  0  0  0  0  0  0
    2.7264    1.4555   -0.1837 H   0  0  0  0  0  0  0  0  0  0  0  0
    2.0771    0.9887   -1.7194 H   0  0  0  0  0  0  0  0  0  0  0  0
    2.9987   -0.7166    0.2060 H   0  0  0  0  0  0  0  0  0  0  0  0
    0.8834   -1.3997   -1.9021 H   0  0  0  0  0  0  0  0  0  0  0  0
    1.7109   -2.6077   -0.9410 H   0  0  0  0  0  0  0  0  0  0  0  0
    4.0454   -3.4405   -1.2577 H   0  0  0  0  0  0  0  0  0  0  0  0
    5.3007   -2.6460   -2.2252 H   0  0  0  0  0  0  0  0  0  0  0  0
    4.7427   -1.8807   -0.7298 H   0  0  0  0  0  0  0  0  0  0  0  0
    1.0985   -1.9468    1.2291 H   0  0  0  0  0  0  0  0  0  0  0  0
    1.4413   -0.3690    1.8586 H   0  0  0  0  0  0  0  0  0  0  0  0
   -0.6899    0.1224    1.7181 H   0  0  0  0  0  0  0  0  0  0  0  0
   -0.6235   -3.1533    1.6460 H   0  0  0  0  0  0  0  0  0  0  0  0
   -2.5304   -4.6377    1.2803 H   0  0  0  0  0  0  0  0  0  0  0  0
   -4.5793   -3.8637    0.0876 H   0  0  0  0  0  0  0  0  0  0  0  0
   -5.6082   -1.4674   -1.1591 H   0  0  0  0  0  0  0  0  0  0  0  0
   -4.8482    0.8851   -1.6079 H   0  0  0  0  0  0  0  0  0  0  0  0
   -1.9818    1.9356   -1.4166 H   0  0  0  0  0  0  0  0  0  0  0  0
   -2.1553    1.9506    0.3487 H   0  0  0  0  0  0  0  0  0  0  0  0
   -0.4184    0.1099   -1.3403 H   0  0  0  0  0  0  0  0  0  0  0  0
   -1.6585   -0.9226    0.3982 H   0  0  0  0  0  0  0  0  0  0  0  0
   -1.1369    0.6663    1.0339 H   0  0  0  0  0  0  0  0  0  0  0  0
   -1.5503    0.4806   -0.7066 H   0  0  0  0  0  0  0  0  0  0  0  0
    1.9060    1.1978    0.1397 H   0  0  0  0  0  0  0  0  0  0  0  0
  1  2  1  0
  2  3  1  0
  3  4  1  0
  4  5  1  0
  5  6  1  0
  6  7  1  0
  7  8  1  0
  8  9  1  0
  6 10  1  0
 10 11  1  0
 11 12  1  0
 12 13  2  0
 13 14  1  0
 14 15  2  0
 15 16  1  0
 16 17  1  0
 17 18  1  0
 18 19  2  0
 19 20  1  0
 19 21  1  0
 21 22  1  0
 23 24  1  0
 24 25  2  0
 24 26  2  0
 24 27  1  0
 22  4  1  0
 22 11  1  0
 20 12  1  0
 20 16  2  0
  1 28  1  0
  1 29  1  0
  1 30  1  0
  2 31  1  0
  2 32  1  0
  3 33  1  0
  3 34  1  0
  5 35  1  0
  5 36  1  0
  6 37  1  1
  7 38  1  0
  7 39  1  0
  9 40  1  0
  9 41  1  0
  9 42  1  0
 10 43  1  0
 10 44  1  0
 11 45  1  1
 13 46  1  0
 14 47  1  0
 15 48  1  0
 17 49  1  0
 18 50  1  0
 21 51  1  0
 21 52  1  0
 22 53  1  6
 23 54  1  0
 23 55  1  0
 23 56  1  0
 27 57  1  0
M  END
$$$$
