
     RDKit          3D

 49 54  0  0  0  0  0  0  0  0999 V2000
   -3.0929   -4.5324    0.4859 O   0  0  0  0  0  0  0  0  0  0  0  0
   -2.5009   -3.4871    0.2480 C   0  0  0  0  0  0  0  0  0  0  0  0
   -2.9347   -2.2169    0.8477 C   0  0  0  0  0  0  0  0  0  0  0  0
   -2.2948   -1.0715    0.5641 C   0  0  0  0  0  0  0  0  0  0  0  0
   -2.6305    0.1720    1.1057 N   0  0  0  0  0  0  0  0  0  0  0  0
   -3.5840    0.3674    2.2169 C   0  0  0  0  0  0  0  0  0  0  0  0
   -3.2197    1.6138    3.0391 C   0  0  0  0  0  0  0  0  0  0  0  0
   -3.2237    2.8285    2.2788 O   0  0  0  0  0  0  0  0  0  0  0  0
   -2.8513    2.6343    0.9071 C   0  0  0  0  0  0  0  0  0  0  0  0
   -1.9495    1.4139    0.6700 C   0  0  0  0  0  0  0  0  0  0  0  0
   -1.2236   -1.0378   -0.3235 O   0  0  0  0  0  0  0  0  0  0  0  0
   -0.7367   -2.1977   -0.8736 C   0  0  0  0  0  0  0  0  0  0  0  0
    0.3921   -2.1015   -1.7098 C   0  0  0  0  0  0  0  0  0  0  0  0
    1.0344   -0.8105   -1.9988 C   0  0  0  0  0  0  0  0  0  0  0  0
    0.8814   -0.2074   -3.2608 C   0  0  0  0  0  0  0  0  0  0  0  0
    1.4602    1.0180   -3.5503 C   0  0  0  0  0  0  0  0  0  0  0  0
    2.2109    1.6794   -2.5796 C   0  0  0  0  0  0  0  0  0  0  0  0
    2.4017    1.1152   -1.2909 C   0  0  0  0  0  0  0  0  0  0  0  0
    1.8133   -0.1261   -1.0238 C   0  0  0  0  0  0  0  0  0  0  0  0
    2.1860   -0.6375    0.5817 S   0  0  0  0  0  0  0  0  0  0  0  0
    3.0889    0.7704    0.9393 C   0  0  0  0  0  0  0  0  0  0  0  0
    3.7307    1.0734    2.1573 C   0  0  0  0  0  0  0  0  0  0  0  0
    4.4316    2.2746    2.2756 C   0  0  0  0  0  0  0  0  0  0  0  0
    4.4964    3.1571    1.2085 C   0  0  0  0  0  0  0  0  0  0  0  0
    3.8582    2.8502    0.0029 C   0  0  0  0  0  0  0  0  0  0  0  0
    3.1350    1.6373   -0.1502 C   0  0  0  0  0  0  0  0  0  0  0  0
    0.8955   -3.2804   -2.2899 C   0  0  0  0  0  0  0  0  0  0  0  0
    0.2963   -4.5186   -2.0430 C   0  0  0  0  0  0  0  0  0  0  0  0
   -0.8191   -4.5973   -1.2127 C   0  0  0  0  0  0  0  0  0  0  0  0
   -1.3287   -3.4334   -0.6316 C   0  0  0  0  0  0  0  0  0  0  0  0
   -3.7842   -2.2800    1.5115 H   0  0  0  0  0  0  0  0  0  0  0  0
   -3.5815   -0.4942    2.8930 H   0  0  0  0  0  0  0  0  0  0  0  0
   -4.5898    0.4770    1.7954 H   0  0  0  0  0  0  0  0  0  0  0  0
   -2.2233    1.5005    3.4826 H   0  0  0  0  0  0  0  0  0  0  0  0
   -3.9296    1.7406    3.8627 H   0  0  0  0  0  0  0  0  0  0  0  0
   -3.7759    2.5401    0.3254 H   0  0  0  0  0  0  0  0  0  0  0  0
   -2.3468    3.5462    0.5720 H   0  0  0  0  0  0  0  0  0  0  0  0
   -1.7055    1.3721   -0.3977 H   0  0  0  0  0  0  0  0  0  0  0  0
   -1.0155    1.5176    1.2346 H   0  0  0  0  0  0  0  0  0  0  0  0
    0.2877   -0.7049   -4.0264 H   0  0  0  0  0  0  0  0  0  0  0  0
    1.3257    1.4667   -4.5313 H   0  0  0  0  0  0  0  0  0  0  0  0
    2.6562    2.6421   -2.8194 H   0  0  0  0  0  0  0  0  0  0  0  0
    3.6819    0.3819    2.9941 H   0  0  0  0  0  0  0  0  0  0  0  0
    4.9296    2.5165    3.2116 H   0  0  0  0  0  0  0  0  0  0  0  0
    5.0448    4.0907    1.3068 H   0  0  0  0  0  0  0  0  0  0  0  0
    3.9196    3.5536   -0.8236 H   0  0  0  0  0  0  0  0  0  0  0  0
    1.7699   -3.2366   -2.9376 H   0  0  0  0  0  0  0  0  0  0  0  0
    0.7016   -5.4198   -2.4970 H   0  0  0  0  0  0  0  0  0  0  0  0
   -1.2877   -5.5596   -1.0174 H   0  0  0  0  0  0  0  0  0  0  0  0
  1  2  2  0
  2  3  1  0
  3  4  2  0
  4  5  1  0
  5  6  1  0
  6  7  1  0
  7  8  1  0
  8  9  1  0
  9 10  1  0
  4 11  1  0
 11 12  1  0
 12 13  2  0
 13 14  1  0
 14 15  2  0
 15 16  1  0
 16 17  2  0
 17 18  1  0
 18 19  2  0
 19 20  1  0
 20 21  1  0
 21 22  2  0
 22 23  1  0
 23 24  2  0
 24 25  1  0
 25 26  2  0
 13 27  1  0
 27 28  2  0
 28 29  1  0
 29 30  2  0
 30  2  1  0
 10  5  1  0
 30 12  1  0
 19 14  1  0
 26 21  1  0
 26 18  1  0
  3 31  1  0
  6 32  1  0
  6 33  1  0
  7 34  1  0
  7 35  1  0
  9 36  1  0
  9 37  1  0
 10 38  1  0
 10 39  1  0
 15 40  1  0
 16 41  1  0
 17 42  1  0
 22 43  1  0
 23 44  1  0
 24 45  1  0
 25 46  1  0
 27 47  1  0
 28 48  1  0
 29 49  1  0
M  END
$$$$
