
     RDKit          3D

 48 51  0  0  0  0  0  0  0  0999 V2000
    4.4612   -2.1623    0.1763 O   0  0  0  0  0  0  0  0  0  0  0  0
    3.8353   -1.7292   -0.7879 C   0  0  0  0  0  0  0  0  0  0  0  0
    4.4117   -0.7078   -1.7571 C   0  0  0  0  0  0  0  0  0  0  0  0
    4.7470    0.5891   -1.0785 C   0  0  0  0  0  0  0  0  0  0  0  0
    6.0773    1.1074   -0.9314 C   0  0  0  0  0  0  0  0  0  0  0  0
    6.1068    2.3202   -0.2795 C   0  0  0  0  0  0  0  0  0  0  0  0
    4.5430    2.8491    0.1598 S   0  0  0  0  0  0  0  0  0  0  0  0
    3.8236    1.4528   -0.5161 C   0  0  0  0  0  0  0  0  0  0  0  0
    2.5502   -2.1353   -1.0942 N   0  0  0  0  0  0  0  0  0  0  0  0
    1.7825   -2.9322   -0.1515 C   0  0  0  0  0  0  0  0  0  0  0  0
    1.0322   -2.0574    0.8608 C   0  0  0  0  0  0  0  0  0  0  0  0
   -0.2121   -1.5240    0.3507 N   0  0  0  0  0  0  0  0  0  0  0  0
   -1.4868   -1.7819    0.8866 C   0  0  0  0  0  0  0  0  0  0  0  0
   -1.7527   -2.5187    1.8226 O   0  0  0  0  0  0  0  0  0  0  0  0
   -2.4017   -1.0186    0.1361 N   0  0  0  0  0  0  0  0  0  0  0  0
   -3.8176   -0.9480    0.3870 C   0  0  0  0  0  0  0  0  0  0  0  0
   -4.2111    0.2771    1.1815 C   0  0  0  0  0  0  0  0  0  0  0  0
   -5.0118    1.2775    0.6072 C   0  0  0  0  0  0  0  0  0  0  0  0
   -5.3669    2.4081    1.3455 C   0  0  0  0  0  0  0  0  0  0  0  0
   -4.9261    2.5391    2.6566 C   0  0  0  0  0  0  0  0  0  0  0  0
   -5.2675    3.6261    3.3607 F   0  0  0  0  0  0  0  0  0  0  0  0
   -4.1389    1.5590    3.2471 C   0  0  0  0  0  0  0  0  0  0  0  0
   -3.7827    0.4276    2.5122 C   0  0  0  0  0  0  0  0  0  0  0  0
   -1.6887   -0.2901   -0.8209 C   0  0  0  0  0  0  0  0  0  0  0  0
   -2.1063    0.6060   -1.7777 C   0  0  0  0  0  0  0  0  0  0  0  0
   -1.1157    1.1625   -2.5879 C   0  0  0  0  0  0  0  0  0  0  0  0
    0.2188    0.7844   -2.3980 C   0  0  0  0  0  0  0  0  0  0  0  0
    0.6440   -0.1057   -1.4649 N   0  0  0  0  0  0  0  0  0  0  0  0
   -0.3365   -0.6029   -0.6946 C   0  0  0  0  0  0  0  0  0  0  0  0
    5.3054   -1.1546   -2.2088 H   0  0  0  0  0  0  0  0  0  0  0  0
    3.7103   -0.5146   -2.5775 H   0  0  0  0  0  0  0  0  0  0  0  0
    6.9726    0.6077   -1.2827 H   0  0  0  0  0  0  0  0  0  0  0  0
    6.9732    2.9203   -0.0365 H   0  0  0  0  0  0  0  0  0  0  0  0
    2.7502    1.3303   -0.4585 H   0  0  0  0  0  0  0  0  0  0  0  0
    1.9957   -1.4895   -1.6551 H   0  0  0  0  0  0  0  0  0  0  0  0
    2.4668   -3.6029    0.3795 H   0  0  0  0  0  0  0  0  0  0  0  0
    1.0857   -3.5449   -0.7334 H   0  0  0  0  0  0  0  0  0  0  0  0
    1.6484   -1.2186    1.2051 H   0  0  0  0  0  0  0  0  0  0  0  0
    0.7969   -2.6699    1.7384 H   0  0  0  0  0  0  0  0  0  0  0  0
   -4.3447   -0.9817   -0.5737 H   0  0  0  0  0  0  0  0  0  0  0  0
   -4.1291   -1.8389    0.9457 H   0  0  0  0  0  0  0  0  0  0  0  0
   -5.3664    1.1844   -0.4171 H   0  0  0  0  0  0  0  0  0  0  0  0
   -5.9847    3.1861    0.9086 H   0  0  0  0  0  0  0  0  0  0  0  0
   -3.8073    1.6799    4.2733 H   0  0  0  0  0  0  0  0  0  0  0  0
   -3.1680   -0.3392    2.9822 H   0  0  0  0  0  0  0  0  0  0  0  0
   -3.1460    0.8787   -1.9035 H   0  0  0  0  0  0  0  0  0  0  0  0
   -1.3722    1.8837   -3.3583 H   0  0  0  0  0  0  0  0  0  0  0  0
    1.0030    1.2117   -3.0198 H   0  0  0  0  0  0  0  0  0  0  0  0
  1  2  2  0
  2  3  1  0
  3  4  1  0
  4  5  1  0
  5  6  2  0
  6  7  1  0
  7  8  1  0
  2  9  1  0
  9 10  1  0
 10 11  1  0
 11 12  1  0
 12 13  1  0
 13 14  2  0
 13 15  1  0
 15 16  1  0
 16 17  1  0
 17 18  2  0
 18 19  1  0
 19 20  2  0
 20 21  1  0
 20 22  1  0
 22 23  2  0
 15 24  1  0
 24 25  2  0
 25 26  1  0
 26 27  2  0
 27 28  1  0
 28 29  2  0
  8  4  2  0
 29 12  1  0
 23 17  1  0
 29 24  1  0
  3 30  1  0
  3 31  1  0
  5 32  1  0
  6 33  1  0
  8 34  1  0
  9 35  1  0
 10 36  1  0
 10 37  1  0
 11 38  1  0
 11 39  1  0
 16 40  1  0
 16 41  1  0
 18 42  1  0
 19 43  1  0
 22 44  1  0
 23 45  1  0
 25 46  1  0
 26 47  1  0
 27 48  1  0
M  END
$$$$
