
     RDKit          3D

 43 44  0  0  0  0  0  0  0  0999 V2000
   -3.8957   -0.1998    2.2956 C   0  0  0  0  0  0  0  0  0  0  0  0
   -3.4871   -0.4808    0.8474 C   0  0  1  0  0  0  0  0  0  0  0  0
   -3.7142    0.7722   -0.0123 C   0  0  0  0  0  0  0  0  0  0  0  0
   -2.9708    0.7296   -1.3475 C   0  0  2  0  0  0  0  0  0  0  0  0
   -3.5287   -0.3226   -2.3002 C   0  0  0  0  0  0  0  0  0  0  0  0
   -1.4818    0.4940   -1.1234 C   0  0  0  0  0  0  0  0  0  0  0  0
   -0.6827    0.6643   -2.0452 O   0  0  0  0  0  0  0  0  0  0  0  0
   -1.0379    0.0605    0.2763 C   0  0  2  0  0  0  0  0  0  0  0  0
    0.4142   -0.4710    0.2599 C   0  0  2  0  0  0  0  0  0  0  0  0
    0.6889   -1.2065    1.4563 O   0  0  0  0  0  0  0  0  0  0  0  0
    1.4611    0.6556    0.1509 C   0  0  0  0  0  0  0  0  0  0  0  0
    2.9250    0.1645    0.1540 C   0  0  0  0  0  0  0  0  0  0  0  0
    3.2498   -0.7263   -1.0474 C   0  0  0  0  0  0  0  0  0  0  0  0
    4.7068   -1.1278   -1.0652 C   0  0  0  0  0  0  0  0  0  0  0  0
    5.1026   -2.1412   -1.6354 O   0  0  0  0  0  0  0  0  0  0  0  0
    5.5905   -0.2712   -0.4618 N   0  0  0  0  0  0  0  0  0  0  0  0
    5.3166    0.9270    0.1434 C   0  0  0  0  0  0  0  0  0  0  0  0
    6.2130    1.6241    0.6104 O   0  0  0  0  0  0  0  0  0  0  0  0
    3.8733    1.3663    0.1390 C   0  0  0  0  0  0  0  0  0  0  0  0
   -2.0374   -1.0019    0.7689 C   0  0  0  0  0  0  0  0  0  0  0  0
   -4.9310    0.1539    2.3458 H   0  0  0  0  0  0  0  0  0  0  0  0
   -3.8246   -1.1087    2.9025 H   0  0  0  0  0  0  0  0  0  0  0  0
   -3.2527    0.5619    2.7498 H   0  0  0  0  0  0  0  0  0  0  0  0
   -4.1460   -1.2792    0.4808 H   0  0  0  0  0  0  0  0  0  0  0  0
   -4.7892    0.9120   -0.1820 H   0  0  0  0  0  0  0  0  0  0  0  0
   -3.3790    1.6601    0.5415 H   0  0  0  0  0  0  0  0  0  0  0  0
   -3.0705    1.7169   -1.8160 H   0  0  0  0  0  0  0  0  0  0  0  0
   -3.0287   -0.2656   -3.2735 H   0  0  0  0  0  0  0  0  0  0  0  0
   -3.3804   -1.3391   -1.9225 H   0  0  0  0  0  0  0  0  0  0  0  0
   -4.6003   -0.1707   -2.4645 H   0  0  0  0  0  0  0  0  0  0  0  0
   -1.0902    0.9324    0.9401 H   0  0  0  0  0  0  0  0  0  0  0  0
    0.5282   -1.1722   -0.5735 H   0  0  0  0  0  0  0  0  0  0  0  0
    0.6069   -0.6012    2.2136 H   0  0  0  0  0  0  0  0  0  0  0  0
    1.2889    1.2586   -0.7467 H   0  0  0  0  0  0  0  0  0  0  0  0
    1.3337    1.3294    1.0091 H   0  0  0  0  0  0  0  0  0  0  0  0
    3.1134   -0.4057    1.0740 H   0  0  0  0  0  0  0  0  0  0  0  0
    2.6620   -1.6490   -1.0054 H   0  0  0  0  0  0  0  0  0  0  0  0
    3.0262   -0.2167   -1.9917 H   0  0  0  0  0  0  0  0  0  0  0  0
    6.5627   -0.5447   -0.4908 H   0  0  0  0  0  0  0  0  0  0  0  0
    3.7045    1.9826    1.0296 H   0  0  0  0  0  0  0  0  0  0  0  0
    3.7120    1.9920   -0.7465 H   0  0  0  0  0  0  0  0  0  0  0  0
   -1.7371   -1.4031    1.7435 H   0  0  0  0  0  0  0  0  0  0  0  0
   -2.0143   -1.8529    0.0744 H   0  0  0  0  0  0  0  0  0  0  0  0
  1  2  1  0
  2  3  1  0
  3  4  1  0
  4  5  1  0
  4  6  1  0
  6  7  2  0
  6  8  1  0
  8  9  1  0
  9 10  1  0
  9 11  1  0
 11 12  1  0
 12 13  1  0
 13 14  1  0
 14 15  2  0
 14 16  1  0
 16 17  1  0
 17 18  2  0
 17 19  1  0
  8 20  1  0
 20  2  1  0
 19 12  1  0
  1 21  1  0
  1 22  1  0
  1 23  1  0
  2 24  1  6
  3 25  1  0
  3 26  1  0
  4 27  1  6
  5 28  1  0
  5 29  1  0
  5 30  1  0
  8 31  1  1
  9 32  1  6
 10 33  1  0
 11 34  1  0
 11 35  1  0
 12 36  1  0
 13 37  1  0
 13 38  1  0
 16 39  1  0
 19 40  1  0
 19 41  1  0
 20 42  1  0
 20 43  1  0
M  END
$$$$
