
     RDKit          3D

 57 60  0  0  0  0  0  0  0  0999 V2000
   -8.2710    0.9677    1.2612 C   0  0  0  0  0  0  0  0  0  0  0  0
   -6.8826    1.2174    1.0889 O   0  0  0  0  0  0  0  0  0  0  0  0
   -6.1630    0.3163    0.3489 C   0  0  0  0  0  0  0  0  0  0  0  0
   -6.7044   -0.8066   -0.2895 C   0  0  0  0  0  0  0  0  0  0  0  0
   -5.8841   -1.6877   -1.0046 C   0  0  0  0  0  0  0  0  0  0  0  0
   -4.5123   -1.4605   -1.0834 C   0  0  0  0  0  0  0  0  0  0  0  0
   -3.9667   -0.3439   -0.4459 C   0  0  0  0  0  0  0  0  0  0  0  0
   -2.5152   -0.1171   -0.5485 C   0  0  0  0  0  0  0  0  0  0  0  0
   -2.0967    0.6035   -1.4484 O   0  0  0  0  0  0  0  0  0  0  0  0
   -1.6949   -0.7849    0.3443 N   0  0  0  0  0  0  0  0  0  0  0  0
   -2.1529   -1.3983    1.5964 C   0  0  0  0  0  0  0  0  0  0  0  0
   -0.9248   -1.4172    2.4940 C   0  0  0  0  0  0  0  0  0  0  0  0
   -0.8621   -0.2954    3.2468 F   0  0  0  0  0  0  0  0  0  0  0  0
   -0.9175   -2.4752    3.3269 F   0  0  0  0  0  0  0  0  0  0  0  0
    0.2367   -1.4610    1.5263 C   0  0  0  0  0  0  0  0  0  0  0  0
   -0.2406   -0.5613    0.3762 C   0  0  1  0  0  0  0  0  0  0  0  0
    0.4752   -0.8762   -0.9453 C   0  0  0  0  0  0  0  0  0  0  0  0
    1.8942   -0.6022   -0.8821 N   0  0  0  0  0  0  0  0  0  0  0  0
    2.5375    0.5568   -1.1792 C   0  0  0  0  0  0  0  0  0  0  0  0
    3.8719    0.2818   -0.9408 C   0  0  0  0  0  0  0  0  0  0  0  0
    4.9805    1.2243   -1.0976 C   0  0  0  0  0  0  0  0  0  0  0  0
    4.7583    2.4060   -1.3699 O   0  0  0  0  0  0  0  0  0  0  0  0
    6.2805    0.7712   -0.9305 N   0  0  0  0  0  0  0  0  0  0  0  0
    7.4000    1.6909   -1.0125 C   0  0  0  0  0  0  0  0  0  0  0  0
    8.5816    0.8989   -0.4746 C   0  0  0  0  0  0  0  0  0  0  0  0
    8.2481   -0.5261   -0.8937 C   0  0  0  0  0  0  0  0  0  0  0  0
    6.7364   -0.5944   -0.7113 C   0  0  0  0  0  0  0  0  0  0  0  0
    3.9678   -1.0207   -0.5055 N   0  0  0  0  0  0  0  0  0  0  0  0
    2.7541   -1.5538   -0.4859 N   0  0  0  0  0  0  0  0  0  0  0  0
   -4.7832    0.5576    0.2452 C   0  0  0  0  0  0  0  0  0  0  0  0
   -4.2044    1.6175    0.9007 O   0  0  0  0  0  0  0  0  0  0  0  0
   -4.3497    2.8130    0.1315 C   0  0  0  0  0  0  0  0  0  0  0  0
   -8.4413    0.0149    1.7733 H   0  0  0  0  0  0  0  0  0  0  0  0
   -8.7991    1.0029    0.3029 H   0  0  0  0  0  0  0  0  0  0  0  0
   -8.6775    1.7625    1.8940 H   0  0  0  0  0  0  0  0  0  0  0  0
   -7.7666   -1.0277   -0.2495 H   0  0  0  0  0  0  0  0  0  0  0  0
   -6.3209   -2.5522   -1.4999 H   0  0  0  0  0  0  0  0  0  0  0  0
   -3.8761   -2.1418   -1.6423 H   0  0  0  0  0  0  0  0  0  0  0  0
   -2.5026   -2.4096    1.3663 H   0  0  0  0  0  0  0  0  0  0  0  0
   -2.9650   -0.8199    2.0435 H   0  0  0  0  0  0  0  0  0  0  0  0
    1.1624   -1.0917    1.9775 H   0  0  0  0  0  0  0  0  0  0  0  0
    0.3994   -2.4922    1.1903 H   0  0  0  0  0  0  0  0  0  0  0  0
   -0.0890    0.4934    0.6433 H   0  0  0  0  0  0  0  0  0  0  0  0
    0.3466   -1.9289   -1.2251 H   0  0  0  0  0  0  0  0  0  0  0  0
    0.0858   -0.2812   -1.7764 H   0  0  0  0  0  0  0  0  0  0  0  0
    2.0322    1.4501   -1.5184 H   0  0  0  0  0  0  0  0  0  0  0  0
    7.2055    2.6030   -0.4403 H   0  0  0  0  0  0  0  0  0  0  0  0
    7.5424    1.9549   -2.0665 H   0  0  0  0  0  0  0  0  0  0  0  0
    8.6129    0.9653    0.6196 H   0  0  0  0  0  0  0  0  0  0  0  0
    9.5394    1.2491   -0.8686 H   0  0  0  0  0  0  0  0  0  0  0  0
    8.5046   -0.6699   -1.9504 H   0  0  0  0  0  0  0  0  0  0  0  0
    8.7777   -1.2817   -0.3073 H   0  0  0  0  0  0  0  0  0  0  0  0
    6.2760   -1.2845   -1.4234 H   0  0  0  0  0  0  0  0  0  0  0  0
    6.4759   -0.8817    0.3127 H   0  0  0  0  0  0  0  0  0  0  0  0
   -3.9899    2.6808   -0.8949 H   0  0  0  0  0  0  0  0  0  0  0  0
   -3.7408    3.5891    0.6048 H   0  0  0  0  0  0  0  0  0  0  0  0
   -5.3888    3.1568    0.1263 H   0  0  0  0  0  0  0  0  0  0  0  0
  1  2  1  0
  2  3  1  0
  3  4  2  0
  4  5  1  0
  5  6  2  0
  6  7  1  0
  7  8  1  0
  8  9  2  0
  8 10  1  0
 10 11  1  0
 11 12  1  0
 12 13  1  0
 12 14  1  0
 12 15  1  0
 15 16  1  0
 16 17  1  0
 17 18  1  0
 18 19  1  0
 19 20  2  0
 20 21  1  0
 21 22  2  0
 21 23  1  0
 23 24  1  0
 24 25  1  0
 25 26  1  0
 26 27  1  0
 20 28  1  0
 28 29  2  0
  7 30  2  0
 30 31  1  0
 31 32  1  0
 30  3  1  0
 16 10  1  0
 29 18  1  0
 27 23  1  0
  1 33  1  0
  1 34  1  0
  1 35  1  0
  4 36  1  0
  5 37  1  0
  6 38  1  0
 11 39  1  0
 11 40  1  0
 15 41  1  0
 15 42  1  0
 16 43  1  1
 17 44  1  0
 17 45  1  0
 19 46  1  0
 24 47  1  0
 24 48  1  0
 25 49  1  0
 25 50  1  0
 26 51  1  0
 26 52  1  0
 27 53  1  0
 27 54  1  0
 32 55  1  0
 32 56  1  0
 32 57  1  0
M  END
$$$$
