
     RDKit          3D

 29 31  0  0  0  0  0  0  0  0999 V2000
   -2.6117   -1.4454   -2.5387 O   0  0  0  0  0  0  0  0  0  0  0  0
   -2.0931   -0.9008   -1.5731 C   0  0  0  0  0  0  0  0  0  0  0  0
   -0.6276   -0.8592   -1.4249 C   0  0  0  0  0  0  0  0  0  0  0  0
   -0.0757   -0.2573   -0.3587 C   0  0  0  0  0  0  0  0  0  0  0  0
    1.3974   -0.1708   -0.1325 C   0  0  0  0  0  0  0  0  0  0  0  0
    2.3410   -0.7165   -1.0236 C   0  0  0  0  0  0  0  0  0  0  0  0
    3.7193   -0.6192   -0.7839 C   0  0  0  0  0  0  0  0  0  0  0  0
    4.1786    0.0326    0.3632 C   0  0  0  0  0  0  0  0  0  0  0  0
    5.6203    0.1371    0.6186 N   0  0  0  0  0  4  0  0  0  0  0  0
    5.9821    0.7238    1.6485 O   0  0  0  0  0  0  0  0  0  0  0  0
    6.3903   -0.3676   -0.2109 O   0  0  0  0  0  1  0  0  0  0  0  0
    3.2693    0.5848    1.2673 C   0  0  0  0  0  0  0  0  0  0  0  0
    1.8952    0.4801    1.0150 C   0  0  0  0  0  0  0  0  0  0  0  0
   -0.8337    0.3461    0.6417 O   0  0  0  0  0  0  0  0  0  0  0  0
   -2.2011    0.3321    0.5461 C   0  0  0  0  0  0  0  0  0  0  0  0
   -2.9189    0.9486    1.5711 C   0  0  0  0  0  0  0  0  0  0  0  0
   -4.3151    0.9667    1.5295 C   0  0  0  0  0  0  0  0  0  0  0  0
   -4.9932    0.3696    0.4649 C   0  0  0  0  0  0  0  0  0  0  0  0
   -4.2760   -0.2473   -0.5609 C   0  0  0  0  0  0  0  0  0  0  0  0
   -2.8791   -0.2616   -0.5124 C   0  0  0  0  0  0  0  0  0  0  0  0
   -0.0803   -1.3390   -2.2232 H   0  0  0  0  0  0  0  0  0  0  0  0
    2.0345   -1.2330   -1.9297 H   0  0  0  0  0  0  0  0  0  0  0  0
    4.4119   -1.0564   -1.5011 H   0  0  0  0  0  0  0  0  0  0  0  0
    3.6041    1.0970    2.1673 H   0  0  0  0  0  0  0  0  0  0  0  0
    1.2152    0.9226    1.7419 H   0  0  0  0  0  0  0  0  0  0  0  0
   -2.3953    1.4146    2.4016 H   0  0  0  0  0  0  0  0  0  0  0  0
   -4.8757    1.4472    2.3282 H   0  0  0  0  0  0  0  0  0  0  0  0
   -6.0803    0.3847    0.4341 H   0  0  0  0  0  0  0  0  0  0  0  0
   -4.8022   -0.7132   -1.3913 H   0  0  0  0  0  0  0  0  0  0  0  0
  1  2  2  0
  2  3  1  0
  3  4  2  0
  4  5  1  0
  5  6  2  0
  6  7  1  0
  7  8  2  0
  8  9  1  0
  9 10  2  0
  9 11  1  0
  8 12  1  0
 12 13  2  0
  4 14  1  0
 14 15  1  0
 15 16  2  0
 16 17  1  0
 17 18  2  0
 18 19  1  0
 19 20  2  0
 20  2  1  0
 13  5  1  0
 20 15  1  0
  3 21  1  0
  6 22  1  0
  7 23  1  0
 12 24  1  0
 13 25  1  0
 16 26  1  0
 17 27  1  0
 18 28  1  0
 19 29  1  0
M  CHG  2   9   1  11  -1
M  END
$$$$
