
     RDKit          3D

 35 34  0  0  0  0  0  0  0  0999 V2000
    4.4579    0.1618   -0.2406 C   0  0  0  0  0  0  0  0  0  0  0  0
    3.2901   -0.5512    0.4391 C   0  0  0  0  0  0  0  0  0  0  0  0
    3.5445   -2.0658    0.6128 C   0  0  0  0  0  0  0  0  0  0  0  0
    4.2745   -2.6177   -0.2620 O   0  0  0  0  0  0  0  0  0  0  0  0
    3.0060   -2.5843    1.6360 O   0  0  0  0  0  1  0  0  0  0  0  0
    1.9873   -0.2971   -0.3027 C   0  0  0  0  0  0  0  0  0  0  0  0
    1.7648   -0.8208   -1.5867 C   0  0  0  0  0  0  0  0  0  0  0  0
    0.5705   -0.5715   -2.2670 C   0  0  0  0  0  0  0  0  0  0  0  0
   -0.4234    0.1999   -1.6689 C   0  0  0  0  0  0  0  0  0  0  0  0
   -0.2199    0.7062   -0.3844 C   0  0  0  0  0  0  0  0  0  0  0  0
   -1.1725    1.4833    0.2334 O   0  0  0  0  0  0  0  0  0  0  0  0
   -2.3811    0.8804    0.5093 C   0  0  0  0  0  0  0  0  0  0  0  0
   -3.5150    1.6891    0.4091 C   0  0  0  0  0  0  0  0  0  0  0  0
   -4.7758    1.1652    0.6988 C   0  0  0  0  0  0  0  0  0  0  0  0
   -4.9017   -0.1645    1.1017 C   0  0  0  0  0  0  0  0  0  0  0  0
   -3.7674   -0.9681    1.2216 C   0  0  0  0  0  0  0  0  0  0  0  0
   -2.5054   -0.4458    0.9324 C   0  0  0  0  0  0  0  0  0  0  0  0
    0.9824    0.4827    0.2879 C   0  0  0  0  0  0  0  0  0  0  0  0
    0.0133    0.3976    0.0000 O   0  0  0  0  0  0  0  0  0  0  0  0
    0.0000    0.0000    0.0000 Ca  0  0  0  0  0 15  0  0  0  0  0  0
    5.3912   -0.0213    0.3032 H   0  0  0  0  0  0  0  0  0  0  0  0
    4.2906    1.2444   -0.2675 H   0  0  0  0  0  0  0  0  0  0  0  0
    4.6074   -0.1732   -1.2731 H   0  0  0  0  0  0  0  0  0  0  0  0
    3.2089   -0.1344    1.4528 H   0  0  0  0  0  0  0  0  0  0  0  0
    2.5293   -1.4422   -2.0534 H   0  0  0  0  0  0  0  0  0  0  0  0
    0.4199   -0.9897   -3.2575 H   0  0  0  0  0  0  0  0  0  0  0  0
   -1.3514    0.3943   -2.1959 H   0  0  0  0  0  0  0  0  0  0  0  0
   -3.4123    2.7256    0.1013 H   0  0  0  0  0  0  0  0  0  0  0  0
   -5.6571    1.7943    0.6136 H   0  0  0  0  0  0  0  0  0  0  0  0
   -5.8817   -0.5745    1.3297 H   0  0  0  0  0  0  0  0  0  0  0  0
   -3.8588   -2.0015    1.5458 H   0  0  0  0  0  0  0  0  0  0  0  0
   -1.6278   -1.0787    1.0480 H   0  0  0  0  0  0  0  0  0  0  0  0
    1.1260    0.8939    1.2831 H   0  0  0  0  0  0  0  0  0  0  0  0
   -0.7697   -0.1733    0.0000 H   0  0  0  0  0  0  0  0  0  0  0  0
    0.7564   -0.2243    0.0000 H   0  0  0  0  0  0  0  0  0  0  0  0
  1  2  1  0
  2  3  1  0
  3  4  2  0
  3  5  1  0
  2  6  1  0
  6  7  2  0
  7  8  1  0
  8  9  2  0
  9 10  1  0
 10 11  1  0
 11 12  1  0
 12 13  2  0
 13 14  1  0
 14 15  2  0
 15 16  1  0
 16 17  2  0
 10 18  2  0
 18  6  1  0
 17 12  1  0
  1 21  1  0
  1 22  1  0
  1 23  1  0
  2 24  1  0
  7 25  1  0
  8 26  1  0
  9 27  1  0
 13 28  1  0
 14 29  1  0
 15 30  1  0
 16 31  1  0
 17 32  1  0
 18 33  1  0
 19 34  1  0
 19 35  1  0
M  CHG  2   5  -1  20   2
M  END
$$$$
