
     RDKit          3D

 40 39  0  0  0  0  0  0  0  0999 V2000
   -4.4324   -1.2305    0.3819 C   0  0  0  0  0  0  0  0  0  0  0  0
   -4.3762    0.2947    0.5438 C   0  0  0  0  0  0  0  0  0  0  0  0
   -5.7076    0.8198    0.0914 C   0  0  0  0  0  0  0  0  0  0  0  0
   -3.3002    0.7986   -0.3098 N   0  0  0  0  0  0  0  0  0  0  0  0
   -2.0478    0.2466    0.1472 C   0  0  0  0  0  0  0  0  0  0  0  0
   -0.9045    0.7293   -0.7050 C   0  0  0  0  0  0  0  0  0  0  0  0
   -0.7664    2.1160   -0.6940 O   0  0  0  0  0  0  0  0  0  0  0  0
    0.3959    0.1520   -0.2845 C   0  0  0  0  0  0  0  0  0  0  0  0
    1.5421    0.6577   -0.8485 C   0  0  0  0  0  0  0  0  0  0  0  0
    2.8171    0.1736   -0.5091 C   0  0  0  0  0  0  0  0  0  0  0  0
    2.9478   -0.8184    0.3967 C   0  0  0  0  0  0  0  0  0  0  0  0
    4.1655   -1.3718    0.7921 N   0  0  0  0  0  0  0  0  0  0  0  0
    5.4959   -0.3964    1.2482 S   0  0  0  0  0  6  0  0  0  0  0  0
    6.0319    0.6152   -0.0854 C   0  0  0  0  0  0  0  0  0  0  0  0
    6.6299   -1.2524    1.7808 O   0  0  0  0  0  0  0  0  0  0  0  0
    5.0075    0.4827    2.4005 O   0  0  0  0  0  0  0  0  0  0  0  0
    1.8030   -1.3435    0.9781 C   0  0  0  0  0  0  0  0  0  0  0  0
    0.5418   -0.8575    0.6355 C   0  0  0  0  0  0  0  0  0  0  0  0
    0.6914    0.0000    0.0000 Cl  0  0  0  0  0  0  0  0  0  0  0  0
   -4.2390   -1.4636   -0.6888 H   0  0  0  0  0  0  0  0  0  0  0  0
   -5.4193   -1.5847    0.7310 H   0  0  0  0  0  0  0  0  0  0  0  0
   -3.6792   -1.7104    1.0492 H   0  0  0  0  0  0  0  0  0  0  0  0
   -4.1766    0.5036    1.6102 H   0  0  0  0  0  0  0  0  0  0  0  0
   -6.0106    1.7568    0.5568 H   0  0  0  0  0  0  0  0  0  0  0  0
   -5.6472    0.9523   -1.0134 H   0  0  0  0  0  0  0  0  0  0  0  0
   -6.4898    0.0605    0.3489 H   0  0  0  0  0  0  0  0  0  0  0  0
   -3.4841    0.4452   -1.2708 H   0  0  0  0  0  0  0  0  0  0  0  0
   -2.0533   -0.8688    0.0587 H   0  0  0  0  0  0  0  0  0  0  0  0
   -1.8443    0.5307    1.2048 H   0  0  0  0  0  0  0  0  0  0  0  0
   -1.0668    0.3836   -1.7683 H   0  0  0  0  0  0  0  0  0  0  0  0
   -1.3254    2.5525   -1.3596 H   0  0  0  0  0  0  0  0  0  0  0  0
    1.4939    1.4472   -1.5734 H   0  0  0  0  0  0  0  0  0  0  0  0
    3.6713    0.6152   -1.0008 H   0  0  0  0  0  0  0  0  0  0  0  0
    4.2624   -2.4462    0.8076 H   0  0  0  0  0  0  0  0  0  0  0  0
    7.1508    0.7657    0.0545 H   0  0  0  0  0  0  0  0  0  0  0  0
    5.9268    0.0480   -1.0319 H   0  0  0  0  0  0  0  0  0  0  0  0
    5.5583    1.6115   -0.0815 H   0  0  0  0  0  0  0  0  0  0  0  0
    1.8729   -2.1428    1.7111 H   0  0  0  0  0  0  0  0  0  0  0  0
   -0.3441   -1.2719    1.0928 H   0  0  0  0  0  0  0  0  0  0  0  0
   -0.6914    0.0000    0.0000 H   0  0  0  0  0  0  0  0  0  0  0  0
  1  2  1  0
  2  3  1  0
  2  4  1  0
  4  5  1  0
  5  6  1  0
  6  7  1  0
  6  8  1  0
  8  9  2  0
  9 10  1  0
 10 11  2  0
 11 12  1  0
 12 13  1  0
 13 14  1  0
 13 15  2  0
 13 16  2  0
 11 17  1  0
 17 18  2  0
 18  8  1  0
  1 20  1  0
  1 21  1  0
  1 22  1  0
  2 23  1  0
  3 24  1  0
  3 25  1  0
  3 26  1  0
  4 27  1  0
  5 28  1  0
  5 29  1  0
  6 30  1  0
  7 31  1  0
  9 32  1  0
 10 33  1  0
 12 34  1  0
 14 35  1  0
 14 36  1  0
 14 37  1  0
 17 38  1  0
 18 39  1  0
 19 40  1  0
M  END
$$$$
