
     RDKit          3D

 53 56  0  0  0  0  0  0  0  0999 V2000
    6.3875   -0.3691   -1.7939 C   0  0  0  0  0  0  0  0  0  0  0  0
    5.8482   -1.3561   -0.9242 O   0  0  0  0  0  0  0  0  0  0  0  0
    4.7294   -1.0212   -0.2115 C   0  0  0  0  0  0  0  0  0  0  0  0
    4.2731   -2.0229    0.6467 C   0  0  0  0  0  0  0  0  0  0  0  0
    3.1394   -1.8182    1.4298 C   0  0  0  0  0  0  0  0  0  0  0  0
    2.4443   -0.6057    1.3472 C   0  0  0  0  0  0  0  0  0  0  0  0
    1.2429   -0.4659    2.2046 C   0  0  0  0  0  0  0  0  0  0  0  0
    1.3243   -0.7358    3.4002 O   0  0  0  0  0  0  0  0  0  0  0  0
    0.0685   -0.0971    1.5992 N   0  0  0  0  0  0  0  0  0  0  0  0
   -0.3698   -0.1427    0.2160 C   0  0  0  0  0  0  0  0  0  0  0  0
   -1.7541   -0.5797    0.7699 C   0  0  0  0  0  0  0  0  0  0  0  0
   -1.9837   -2.0905    0.6457 C   0  0  0  0  0  0  0  0  0  0  0  0
   -2.8356   -2.1769   -0.5322 N   0  0  0  0  0  0  0  0  0  0  0  0
   -3.0742   -3.3912   -1.1390 C   0  0  0  0  0  0  0  0  0  0  0  0
   -3.9443   -3.3675   -2.3688 C   0  0  0  0  0  0  0  0  0  0  0  0
   -2.6137   -4.4456   -0.7061 O   0  0  0  0  0  0  0  0  0  0  0  0
   -3.3383   -0.8790   -0.9628 C   0  0  0  0  0  0  0  0  0  0  0  0
   -3.0268    0.0507    0.2047 C   0  0  0  0  0  0  0  0  0  0  0  0
   -2.9537    1.4810   -0.1552 C   0  0  0  0  0  0  0  0  0  0  0  0
   -3.2547    2.5276    0.5789 N   0  0  0  0  0  0  0  0  0  0  0  0
   -2.9611    3.5673   -0.2650 C   0  0  0  0  0  0  0  0  0  0  0  0
   -3.1294    4.9795    0.1234 C   0  0  0  0  0  0  0  0  0  0  0  0
   -2.5040    3.2024   -1.4695 N   0  0  0  0  0  0  0  0  0  0  0  0
   -2.4976    1.8101   -1.3997 O   0  0  0  0  0  0  0  0  0  0  0  0
   -1.2708   -0.1135    2.1596 C   0  0  0  0  0  0  0  0  0  0  0  0
    2.9039    0.4235    0.5072 C   0  0  0  0  0  0  0  0  0  0  0  0
    2.2012    1.5997    0.5266 O   0  0  0  0  0  0  0  0  0  0  0  0
    2.6863    2.6844   -0.2530 C   0  0  0  0  0  0  0  0  0  0  0  0
    4.0464    0.1992   -0.2770 C   0  0  0  0  0  0  0  0  0  0  0  0
    7.2757   -0.7936   -2.2716 H   0  0  0  0  0  0  0  0  0  0  0  0
    6.7015    0.5194   -1.2363 H   0  0  0  0  0  0  0  0  0  0  0  0
    5.6759   -0.1096   -2.5848 H   0  0  0  0  0  0  0  0  0  0  0  0
    4.8075   -2.9683    0.7084 H   0  0  0  0  0  0  0  0  0  0  0  0
    2.7967   -2.6018    2.1022 H   0  0  0  0  0  0  0  0  0  0  0  0
   -0.3100    0.8396   -0.2587 H   0  0  0  0  0  0  0  0  0  0  0  0
    0.1474   -0.8772   -0.4075 H   0  0  0  0  0  0  0  0  0  0  0  0
   -1.0713   -2.6813    0.5166 H   0  0  0  0  0  0  0  0  0  0  0  0
   -2.5543   -2.4874    1.4929 H   0  0  0  0  0  0  0  0  0  0  0  0
   -4.9673   -3.0961   -2.0962 H   0  0  0  0  0  0  0  0  0  0  0  0
   -3.5477   -2.6633   -3.1047 H   0  0  0  0  0  0  0  0  0  0  0  0
   -3.9568   -4.3628   -2.8231 H   0  0  0  0  0  0  0  0  0  0  0  0
   -4.4082   -0.9268   -1.1877 H   0  0  0  0  0  0  0  0  0  0  0  0
   -2.8005   -0.6174   -1.8812 H   0  0  0  0  0  0  0  0  0  0  0  0
   -3.8272   -0.0663    0.9498 H   0  0  0  0  0  0  0  0  0  0  0  0
   -2.1568    5.4768    0.1899 H   0  0  0  0  0  0  0  0  0  0  0  0
   -3.7428    5.5125   -0.6097 H   0  0  0  0  0  0  0  0  0  0  0  0
   -3.6202    5.0604    1.0983 H   0  0  0  0  0  0  0  0  0  0  0  0
   -1.4134   -0.8248    2.9777 H   0  0  0  0  0  0  0  0  0  0  0  0
   -1.5930    0.8827    2.4767 H   0  0  0  0  0  0  0  0  0  0  0  0
    2.0209    3.5373   -0.0884 H   0  0  0  0  0  0  0  0  0  0  0  0
    2.6593    2.4437   -1.3207 H   0  0  0  0  0  0  0  0  0  0  0  0
    3.6920    2.9805    0.0627 H   0  0  0  0  0  0  0  0  0  0  0  0
    4.4092    0.9769   -0.9360 H   0  0  0  0  0  0  0  0  0  0  0  0
  1  2  1  0
  2  3  1  0
  3  4  2  0
  4  5  1  0
  5  6  2  0
  6  7  1  0
  7  8  2  0
  7  9  1  0
  9 10  1  0
 10 11  1  0
 11 12  1  0
 12 13  1  0
 13 14  1  0
 14 15  1  0
 14 16  2  0
 13 17  1  0
 17 18  1  0
 18 19  1  0
 19 20  2  0
 20 21  1  0
 21 22  1  0
 21 23  2  0
 23 24  1  0
 11 25  1  0
  6 26  1  0
 26 27  1  0
 27 28  1  0
 26 29  2  0
 29  3  1  0
 25  9  1  0
 18 11  1  0
 24 19  1  0
  1 30  1  0
  1 31  1  0
  1 32  1  0
  4 33  1  0
  5 34  1  0
 10 35  1  0
 10 36  1  0
 12 37  1  0
 12 38  1  0
 15 39  1  0
 15 40  1  0
 15 41  1  0
 17 42  1  0
 17 43  1  0
 18 44  1  0
 22 45  1  0
 22 46  1  0
 22 47  1  0
 25 48  1  0
 25 49  1  0
 28 50  1  0
 28 51  1  0
 28 52  1  0
 29 53  1  0
M  END
$$$$
