
     RDKit          3D

 48 50  0  0  0  0  0  0  0  0999 V2000
    7.4565   -0.3754    0.5460 C   0  0  0  0  0  0  0  0  0  0  0  0
    6.3972   -0.1282   -0.3695 O   0  0  0  0  0  0  0  0  0  0  0  0
    6.1480   -1.2370   -1.2453 C   0  0  0  0  0  0  0  0  0  0  0  0
    5.1661   -2.2226   -0.6041 C   0  0  0  0  0  0  0  0  0  0  0  0
    3.8745   -1.6032   -0.3625 N   0  0  0  0  0  0  0  0  0  0  0  0
    2.9312   -1.5256   -1.3768 C   0  0  0  0  0  0  0  0  0  0  0  0
    3.0868   -2.1136   -2.4456 O   0  0  0  0  0  0  0  0  0  0  0  0
    1.7577   -0.6771   -1.0745 C   0  0  0  0  0  0  0  0  0  0  0  0
    1.3604   -0.1225    0.1808 C   0  0  0  0  0  0  0  0  0  0  0  0
    0.2034    0.5839   -0.0664 C   0  0  0  0  0  0  0  0  0  0  0  0
   -0.0336    0.4213   -1.3978 N   0  0  0  0  0  0  0  0  0  0  0  0
    0.8789   -0.3234   -2.0333 N   0  0  0  0  0  0  0  0  0  0  0  0
   -1.1830    0.9466   -2.1047 C   0  0  0  0  0  0  0  0  0  0  0  0
   -1.8009    2.0801   -1.2986 C   0  0  0  0  0  0  0  0  0  0  0  0
   -1.9858    1.6434    0.1200 N   0  0  0  0  0  0  0  0  0  0  0  0
   -3.0511    2.5967    1.0412 S   0  0  0  0  0  6  0  0  0  0  0  0
   -2.8677    2.2498    2.4364 O   0  0  0  0  0  0  0  0  0  0  0  0
   -2.8696    3.9678    0.6092 O   0  0  0  0  0  0  0  0  0  0  0  0
   -4.6916    2.0470    0.5270 C   0  0  0  0  0  0  0  0  0  0  0  0
   -4.8099    0.5425    0.5857 C   0  0  0  0  0  0  0  0  0  0  0  0
   -4.8443   -0.0953    1.8411 C   0  0  0  0  0  0  0  0  0  0  0  0
   -4.9383   -1.4845    1.9452 C   0  0  0  0  0  0  0  0  0  0  0  0
   -5.0122   -2.2650    0.7973 C   0  0  0  0  0  0  0  0  0  0  0  0
   -5.0029   -1.6539   -0.4545 C   0  0  0  0  0  0  0  0  0  0  0  0
   -4.9097   -0.2615   -0.5619 C   0  0  0  0  0  0  0  0  0  0  0  0
   -4.9606    0.4041   -2.1557 Cl  0  0  0  0  0  0  0  0  0  0  0  0
   -0.6885    1.3972    0.8048 C   0  0  0  0  0  0  0  0  0  0  0  0
    8.3937   -0.5471    0.0080 H   0  0  0  0  0  0  0  0  0  0  0  0
    7.5767    0.5097    1.1767 H   0  0  0  0  0  0  0  0  0  0  0  0
    7.2288   -1.2301    1.1887 H   0  0  0  0  0  0  0  0  0  0  0  0
    5.7194   -0.8258   -2.1655 H   0  0  0  0  0  0  0  0  0  0  0  0
    7.0870   -1.7357   -1.5114 H   0  0  0  0  0  0  0  0  0  0  0  0
    5.0366   -3.0972   -1.2499 H   0  0  0  0  0  0  0  0  0  0  0  0
    5.5308   -2.5611    0.3700 H   0  0  0  0  0  0  0  0  0  0  0  0
    3.8561   -0.8824    0.3450 H   0  0  0  0  0  0  0  0  0  0  0  0
    1.8478   -0.2333    1.1388 H   0  0  0  0  0  0  0  0  0  0  0  0
   -1.8797    0.1111   -2.2256 H   0  0  0  0  0  0  0  0  0  0  0  0
   -0.8578    1.2959   -3.0895 H   0  0  0  0  0  0  0  0  0  0  0  0
   -1.1479    2.9621   -1.3229 H   0  0  0  0  0  0  0  0  0  0  0  0
   -2.7573    2.3620   -1.7470 H   0  0  0  0  0  0  0  0  0  0  0  0
   -4.8771    2.4657   -0.4640 H   0  0  0  0  0  0  0  0  0  0  0  0
   -5.4117    2.5086    1.2118 H   0  0  0  0  0  0  0  0  0  0  0  0
   -4.7870    0.4878    2.7604 H   0  0  0  0  0  0  0  0  0  0  0  0
   -4.9505   -1.9550    2.9258 H   0  0  0  0  0  0  0  0  0  0  0  0
   -5.0831   -3.3469    0.8758 H   0  0  0  0  0  0  0  0  0  0  0  0
   -5.0744   -2.2713   -1.3471 H   0  0  0  0  0  0  0  0  0  0  0  0
   -0.8628    0.8426    1.7333 H   0  0  0  0  0  0  0  0  0  0  0  0
   -0.1984    2.3488    1.0404 H   0  0  0  0  0  0  0  0  0  0  0  0
  1  2  1  0
  2  3  1  0
  3  4  1  0
  4  5  1  0
  5  6  1  0
  6  7  2  0
  6  8  1  0
  8  9  1  0
  9 10  2  0
 10 11  1  0
 11 12  1  0
 11 13  1  0
 13 14  1  0
 14 15  1  0
 15 16  1  0
 16 17  2  0
 16 18  2  0
 16 19  1  0
 19 20  1  0
 20 21  2  0
 21 22  1  0
 22 23  2  0
 23 24  1  0
 24 25  2  0
 25 26  1  0
 15 27  1  0
 12  8  2  0
 25 20  1  0
 27 10  1  0
  1 28  1  0
  1 29  1  0
  1 30  1  0
  3 31  1  0
  3 32  1  0
  4 33  1  0
  4 34  1  0
  5 35  1  0
  9 36  1  0
 13 37  1  0
 13 38  1  0
 14 39  1  0
 14 40  1  0
 19 41  1  0
 19 42  1  0
 21 43  1  0
 22 44  1  0
 23 45  1  0
 24 46  1  0
 27 47  1  0
 27 48  1  0
M  END
$$$$
