
     RDKit          3D

 31 30  0  0  0  0  0  0  0  0999 V2000
    4.8624    1.6824   -0.2536 C   0  0  0  0  0  0  0  0  0  0  0  0
    3.9716    0.4960    0.0317 C   0  0  0  0  0  0  0  0  0  0  0  0
    4.3475   -0.6855   -0.3311 N   0  0  0  0  0  0  0  0  0  0  0  0
    2.7950    0.7205    0.6936 N   0  0  0  0  0  0  0  0  0  0  0  0
    1.9828   -0.3526    1.2549 C   0  0  0  0  0  0  0  0  0  0  0  0
    1.2408   -1.1291    0.1621 C   0  0  0  0  0  0  0  0  0  0  0  0
   -0.0429   -2.2338    0.8617 S   0  0  0  0  0  0  0  0  0  0  0  0
   -1.4050   -1.0386    1.0940 C   0  0  0  0  0  0  0  0  0  0  0  0
   -2.1661   -0.8036   -0.2106 C   0  0  0  0  0  0  0  0  0  0  0  0
   -3.2736    0.2475   -0.0587 C   0  0  2  0  0  0  0  0  0  0  0  0
   -4.2808   -0.1848    0.9393 N   0  0  0  0  0  0  0  0  0  0  0  0
   -3.9302    0.5252   -1.4206 C   0  0  0  0  0  0  0  0  0  0  0  0
   -3.3612    0.6397   -2.4939 O   0  0  0  0  0  0  0  0  0  0  0  0
   -5.2714    0.6885   -1.3477 O   0  0  0  0  0  0  0  0  0  0  0  0
    5.2713    1.6068   -1.2652 H   0  0  0  0  0  0  0  0  0  0  0  0
    4.3035    2.6180   -0.1669 H   0  0  0  0  0  0  0  0  0  0  0  0
    5.6866    1.6890    0.4652 H   0  0  0  0  0  0  0  0  0  0  0  0
    5.2567   -0.6465   -0.8027 H   0  0  0  0  0  0  0  0  0  0  0  0
    2.6973    1.6140    1.1623 H   0  0  0  0  0  0  0  0  0  0  0  0
    2.6076   -1.0236    1.8566 H   0  0  0  0  0  0  0  0  0  0  0  0
    1.2669    0.1123    1.9417 H   0  0  0  0  0  0  0  0  0  0  0  0
    1.9396   -1.7638   -0.3912 H   0  0  0  0  0  0  0  0  0  0  0  0
    0.7871   -0.4502   -0.5666 H   0  0  0  0  0  0  0  0  0  0  0  0
   -2.0718   -1.4669    1.8491 H   0  0  0  0  0  0  0  0  0  0  0  0
   -1.0135   -0.1009    1.4994 H   0  0  0  0  0  0  0  0  0  0  0  0
   -1.4735   -0.4693   -0.9928 H   0  0  0  0  0  0  0  0  0  0  0  0
   -2.5996   -1.7475   -0.5688 H   0  0  0  0  0  0  0  0  0  0  0  0
   -2.8483    1.1981    0.2831 H   0  0  0  0  0  0  0  0  0  0  0  0
   -5.0707    0.4649    0.8688 H   0  0  0  0  0  0  0  0  0  0  0  0
   -4.6748   -1.0777    0.6362 H   0  0  0  0  0  0  0  0  0  0  0  0
   -5.5334    0.8713   -2.2751 H   0  0  0  0  0  0  0  0  0  0  0  0
  1  2  1  0
  2  3  2  3
  2  4  1  0
  4  5  1  0
  5  6  1  0
  6  7  1  0
  7  8  1  0
  8  9  1  0
  9 10  1  0
 10 11  1  0
 10 12  1  0
 12 13  2  0
 12 14  1  0
  1 15  1  0
  1 16  1  0
  1 17  1  0
  3 18  1  0
  4 19  1  0
  5 20  1  0
  5 21  1  0
  6 22  1  0
  6 23  1  0
  8 24  1  0
  8 25  1  0
  9 26  1  0
  9 27  1  0
 10 28  1  1
 11 29  1  0
 11 30  1  0
 14 31  1  0
M  END
$$$$
