
     RDKit          3D

 57 60  0  0  0  0  0  0  0  0999 V2000
    9.0975   -1.6451   -0.6320 C   0  0  0  0  0  0  0  0  0  0  0  0
    7.8703   -0.7725   -0.5431 C   0  0  0  0  0  0  0  0  0  0  0  0
    7.8287    0.3131   -1.1102 O   0  0  0  0  0  0  0  0  0  0  0  0
    6.8645   -1.3621    0.2019 N   0  0  0  0  0  0  0  0  0  0  0  0
    5.5941   -0.8295    0.5028 C   0  0  0  0  0  0  0  0  0  0  0  0
    4.7344   -1.6241    1.2747 C   0  0  0  0  0  0  0  0  0  0  0  0
    3.4574   -1.1692    1.6176 C   0  0  0  0  0  0  0  0  0  0  0  0
    3.0249    0.0841    1.1800 C   0  0  0  0  0  0  0  0  0  0  0  0
    1.6770    0.5534    1.5782 C   0  0  0  0  0  0  0  0  0  0  0  0
    1.3562    0.4474    2.7597 O   0  0  0  0  0  0  0  0  0  0  0  0
    0.8295    1.0849    0.6120 N   0  0  0  0  0  0  0  0  0  0  0  0
    0.9896    0.9017   -0.8380 C   0  0  0  0  0  0  0  0  0  0  0  0
   -0.3620    0.7392   -1.5490 C   0  0  0  0  0  0  0  0  0  0  0  0
   -1.2365    1.9155   -1.3142 N   0  0  0  0  0  0  0  0  0  0  0  0
   -2.7570    1.9336   -2.0544 S   0  0  0  0  0  6  0  0  0  0  0  0
   -3.3571    3.2265   -1.7984 O   0  0  0  0  0  0  0  0  0  0  0  0
   -2.5966    1.4564   -3.4101 O   0  0  0  0  0  0  0  0  0  0  0  0
   -3.6937    0.7193   -1.1197 C   0  0  0  0  0  0  0  0  0  0  0  0
   -4.3352    1.1861    0.0416 C   0  0  0  0  0  0  0  0  0  0  0  0
   -5.1080    0.3280    0.8188 C   0  0  0  0  0  0  0  0  0  0  0  0
   -5.2535   -1.0030    0.4404 C   0  0  0  0  0  0  0  0  0  0  0  0
   -4.6391   -1.4742   -0.7211 C   0  0  0  0  0  0  0  0  0  0  0  0
   -3.8565   -0.6216   -1.5273 C   0  0  0  0  0  0  0  0  0  0  0  0
   -3.2920   -1.1954   -2.7976 C   0  0  0  0  0  0  0  0  0  0  0  0
   -6.0042   -1.8770    1.2249 N   0  0  0  0  0  0  0  0  0  0  0  0
   -6.6883   -1.4448    2.3268 C   0  0  0  0  0  0  0  0  0  0  0  0
   -7.3265   -2.2252    3.0297 O   0  0  0  0  0  0  0  0  0  0  0  0
   -6.6558    0.0646    2.5649 C   0  0  0  0  0  0  0  0  0  0  0  0
   -5.6516    0.8611    1.9529 O   0  0  0  0  0  0  0  0  0  0  0  0
   -1.0795    2.5753    0.0138 C   0  0  0  0  0  0  0  0  0  0  0  0
   -0.4493    1.6438    1.0552 C   0  0  0  0  0  0  0  0  0  0  0  0
    3.8853    0.8964    0.4383 C   0  0  0  0  0  0  0  0  0  0  0  0
    5.1609    0.4344    0.0932 C   0  0  0  0  0  0  0  0  0  0  0  0
    9.3266   -2.0884    0.3414 H   0  0  0  0  0  0  0  0  0  0  0  0
    8.9302   -2.4356   -1.3688 H   0  0  0  0  0  0  0  0  0  0  0  0
    9.9548   -1.0385   -0.9402 H   0  0  0  0  0  0  0  0  0  0  0  0
    7.0634   -2.2784    0.5834 H   0  0  0  0  0  0  0  0  0  0  0  0
    5.0490   -2.6020    1.6316 H   0  0  0  0  0  0  0  0  0  0  0  0
    2.8065   -1.7861    2.2347 H   0  0  0  0  0  0  0  0  0  0  0  0
    1.6129    0.0262   -1.0417 H   0  0  0  0  0  0  0  0  0  0  0  0
    1.5042    1.7915   -1.2178 H   0  0  0  0  0  0  0  0  0  0  0  0
   -0.8525   -0.1639   -1.1715 H   0  0  0  0  0  0  0  0  0  0  0  0
   -0.1830    0.6245   -2.6226 H   0  0  0  0  0  0  0  0  0  0  0  0
   -4.2514    2.2281    0.3437 H   0  0  0  0  0  0  0  0  0  0  0  0
   -4.7798   -2.5131   -1.0153 H   0  0  0  0  0  0  0  0  0  0  0  0
   -3.4042   -2.2853   -2.8268 H   0  0  0  0  0  0  0  0  0  0  0  0
   -3.8259   -0.7934   -3.6635 H   0  0  0  0  0  0  0  0  0  0  0  0
   -2.2220   -0.9987   -2.8866 H   0  0  0  0  0  0  0  0  0  0  0  0
   -6.0652   -2.8626    1.0079 H   0  0  0  0  0  0  0  0  0  0  0  0
   -6.5645    0.2180    3.6458 H   0  0  0  0  0  0  0  0  0  0  0  0
   -7.6299    0.4614    2.2558 H   0  0  0  0  0  0  0  0  0  0  0  0
   -2.0313    2.9490    0.3977 H   0  0  0  0  0  0  0  0  0  0  0  0
   -0.4345    3.4494   -0.1360 H   0  0  0  0  0  0  0  0  0  0  0  0
   -0.3022    2.1816    1.9987 H   0  0  0  0  0  0  0  0  0  0  0  0
   -1.1168    0.7973    1.2586 H   0  0  0  0  0  0  0  0  0  0  0  0
    3.5868    1.8992    0.1444 H   0  0  0  0  0  0  0  0  0  0  0  0
    5.8009    1.0985   -0.4799 H   0  0  0  0  0  0  0  0  0  0  0  0
  1  2  1  0
  2  3  2  0
  2  4  1  0
  4  5  1  0
  5  6  2  0
  6  7  1  0
  7  8  2  0
  8  9  1  0
  9 10  2  0
  9 11  1  0
 11 12  1  0
 12 13  1  0
 13 14  1  0
 14 15  1  0
 15 16  2  0
 15 17  2  0
 15 18  1  0
 18 19  2  0
 19 20  1  0
 20 21  2  0
 21 22  1  0
 22 23  2  0
 23 24  1  0
 21 25  1  0
 25 26  1  0
 26 27  2  0
 26 28  1  0
 28 29  1  0
 14 30  1  0
 30 31  1  0
  8 32  1  0
 32 33  2  0
 33  5  1  0
 31 11  1  0
 23 18  1  0
 29 20  1  0
  1 34  1  0
  1 35  1  0
  1 36  1  0
  4 37  1  0
  6 38  1  0
  7 39  1  0
 12 40  1  0
 12 41  1  0
 13 42  1  0
 13 43  1  0
 19 44  1  0
 22 45  1  0
 24 46  1  0
 24 47  1  0
 24 48  1  0
 25 49  1  0
 28 50  1  0
 28 51  1  0
 30 52  1  0
 30 53  1  0
 31 54  1  0
 31 55  1  0
 32 56  1  0
 33 57  1  0
M  END
$$$$
