
     RDKit          3D

 43 42  0  0  0  0  0  0  0  0999 V2000
   -3.7739    0.2861    0.6239 C   0  0  0  0  0  0  0  0  0  0  0  0
   -2.5950   -0.3096   -0.1033 C   0  0  0  0  0  0  0  0  0  0  0  0
   -2.0393    0.6954   -1.0822 C   0  0  0  0  0  0  0  0  0  0  0  0
   -1.4901   -0.7470    0.8354 C   0  0  2  0  0  0  0  0  0  0  0  0
   -1.0398    0.4056    1.5693 N   0  0  0  0  0  0  0  0  0  0  0  0
   -0.4360   -1.3652   -0.0055 C   0  0  0  0  0  0  0  0  0  0  0  0
   -0.7712   -2.3648   -0.7443 O   0  0  0  0  0  0  0  0  0  0  0  0
    0.9152   -0.9450   -0.0635 N   0  0  0  0  0  0  0  0  0  0  0  0
    1.8970   -1.6080   -0.9381 C   0  0  0  0  0  0  0  0  0  0  0  0
    3.2454   -1.1997   -0.4537 C   0  0  0  0  0  0  0  0  0  0  0  0
    3.0319   -0.0845    0.5206 C   0  0  0  0  0  0  0  0  0  0  0  0
    1.5331    0.1153    0.6612 C   0  0  1  0  0  0  0  0  0  0  0  0
    1.1314    1.5668    0.1030 B   0  0  0  0  0  0  0  0  0  0  0  0
    1.0470    2.7012    1.0271 O   0  0  0  0  0  0  0  0  0  0  0  0
    1.5154    1.8659   -1.2741 O   0  0  0  0  0  0  0  0  0  0  0  0
   -1.1027   -0.1789    0.0406 C   0  0  0  0  0  0  0  0  0  0  0  0
    0.5257    0.4422   -0.2278 S   0  0  0  0  0  6  0  0  0  0  0  0
    0.8074    1.6264    0.6615 O   0  0  0  0  0  0  0  0  0  0  0  0
    0.6678    0.9200   -1.6583 O   0  0  0  0  0  0  0  0  0  0  0  0
    1.6587   -0.7788   -0.0150 O   0  0  0  0  0  0  0  0  0  0  0  0
   -3.9779   -0.2591    1.5713 H   0  0  0  0  0  0  0  0  0  0  0  0
   -3.6485    1.3743    0.8002 H   0  0  0  0  0  0  0  0  0  0  0  0
   -4.6585    0.1795   -0.0478 H   0  0  0  0  0  0  0  0  0  0  0  0
   -2.9821   -1.2031   -0.6524 H   0  0  0  0  0  0  0  0  0  0  0  0
   -1.0820    0.3123   -1.4861 H   0  0  0  0  0  0  0  0  0  0  0  0
   -2.7294    0.7983   -1.9484 H   0  0  0  0  0  0  0  0  0  0  0  0
   -1.8707    1.6516   -0.5774 H   0  0  0  0  0  0  0  0  0  0  0  0
   -1.8656   -1.5417    1.5438 H   0  0  0  0  0  0  0  0  0  0  0  0
   -0.9904    0.2136    2.6099 H   0  0  0  0  0  0  0  0  0  0  0  0
   -1.6467    1.2528    1.4095 H   0  0  0  0  0  0  0  0  0  0  0  0
    1.7303   -1.3497   -1.9986 H   0  0  0  0  0  0  0  0  0  0  0  0
    1.7120   -2.7109   -0.7964 H   0  0  0  0  0  0  0  0  0  0  0  0
    3.9087   -0.8487   -1.2887 H   0  0  0  0  0  0  0  0  0  0  0  0
    3.7931   -2.0502    0.0086 H   0  0  0  0  0  0  0  0  0  0  0  0
    3.5220    0.8643    0.1623 H   0  0  0  0  0  0  0  0  0  0  0  0
    3.4273   -0.3834    1.5033 H   0  0  0  0  0  0  0  0  0  0  0  0
    1.2390    0.0194    1.7451 H   0  0  0  0  0  0  0  0  0  0  0  0
    1.4827    2.4646    1.8768 H   0  0  0  0  0  0  0  0  0  0  0  0
    2.4653    2.2036   -1.3047 H   0  0  0  0  0  0  0  0  0  0  0  0
   -1.8477    0.2334   -0.6564 H   0  0  0  0  0  0  0  0  0  0  0  0
   -1.4800   -0.0225    1.0590 H   0  0  0  0  0  0  0  0  0  0  0  0
   -1.0894   -1.2790   -0.1296 H   0  0  0  0  0  0  0  0  0  0  0  0
    1.8602   -0.9629    0.9260 H   0  0  0  0  0  0  0  0  0  0  0  0
  1  2  1  0
  2  3  1  0
  2  4  1  0
  4  5  1  0
  4  6  1  0
  6  7  2  0
  6  8  1  0
  8  9  1  0
  9 10  1  0
 10 11  1  0
 11 12  1  0
 12 13  1  0
 13 14  1  0
 13 15  1  0
 16 17  1  0
 17 18  2  0
 17 19  2  0
 17 20  1  0
 12  8  1  0
  1 21  1  0
  1 22  1  0
  1 23  1  0
  2 24  1  0
  3 25  1  0
  3 26  1  0
  3 27  1  0
  4 28  1  1
  5 29  1  0
  5 30  1  0
  9 31  1  0
  9 32  1  0
 10 33  1  0
 10 34  1  0
 11 35  1  0
 11 36  1  0
 12 37  1  1
 14 38  1  0
 15 39  1  0
 16 40  1  0
 16 41  1  0
 16 42  1  0
 20 43  1  0
M  END
$$$$
