
     RDKit          3D

 56 59  0  0  0  0  0  0  0  0999 V2000
    3.8186    0.3716    3.8523 O   0  0  0  0  0  0  0  0  0  0  0  0
    3.3022    0.1832    2.7529 C   0  0  0  0  0  0  0  0  0  0  0  0
    4.0387   -0.2445    1.6685 N   0  0  0  0  0  0  0  0  0  0  0  0
    5.4413   -0.5569    1.8019 C   0  0  0  0  0  0  0  0  0  0  0  0
    6.0969   -0.6378    0.4497 C   0  0  0  0  0  0  0  0  0  0  0  0
    6.5395    0.5276   -0.1913 C   0  0  0  0  0  0  0  0  0  0  0  0
    7.1237    0.4625   -1.4557 C   0  0  0  0  0  0  0  0  0  0  0  0
    7.2734   -0.7690   -2.0923 C   0  0  0  0  0  0  0  0  0  0  0  0
    6.8363   -1.9346   -1.4657 C   0  0  0  0  0  0  0  0  0  0  0  0
    6.2440   -1.8703   -0.2039 C   0  0  0  0  0  0  0  0  0  0  0  0
    1.8824    0.4125    2.4946 C   0  0  0  0  0  0  0  0  0  0  0  0
    1.1260    0.0855    1.3834 C   0  0  0  0  0  0  0  0  0  0  0  0
   -0.1227    0.5491    1.6831 N   0  0  0  0  0  0  0  0  0  0  0  0
   -1.3234    0.4512    0.8806 C   0  0  0  0  0  0  0  0  0  0  0  0
   -1.3340    1.4484   -0.2822 C   0  0  2  0  0  0  0  0  0  0  0  0
   -1.4249    2.9214    0.1575 C   0  0  0  0  0  0  0  0  0  0  0  0
   -2.9155    3.2221    0.1294 C   0  0  0  0  0  0  0  0  0  0  0  0
   -3.3876    2.4803   -1.1143 C   0  0  0  0  0  0  0  0  0  0  0  0
   -2.5300    1.2942   -1.1436 N   0  0  0  0  0  0  0  0  0  0  0  0
   -2.9140   -0.0982   -1.9382 S   0  0  0  0  0  6  0  0  0  0  0  0
   -1.6738   -0.7826   -2.2232 O   0  0  0  0  0  0  0  0  0  0  0  0
   -3.8857    0.1846   -2.9653 O   0  0  0  0  0  0  0  0  0  0  0  0
   -3.6916   -0.9719   -0.7126 N   0  0  0  0  0  0  0  0  0  0  0  0
   -4.9598   -0.3730   -0.1808 C   0  0  0  0  0  0  0  0  0  0  0  0
   -5.8219   -1.4356    0.5093 C   0  0  0  0  0  0  0  0  0  0  0  0
   -6.2523   -2.4707   -0.3826 O   0  0  0  0  0  0  0  0  0  0  0  0
   -5.3137   -2.7367   -1.4352 C   0  0  0  0  0  0  0  0  0  0  0  0
   -3.8673   -2.4318   -1.0382 C   0  0  0  0  0  0  0  0  0  0  0  0
   -0.1637    1.1055    2.9002 N   0  0  0  0  0  0  0  0  0  0  0  0
    1.0585    1.0324    3.4099 N   0  0  0  0  0  0  0  0  0  0  0  0
    3.5963   -0.4043    0.7768 H   0  0  0  0  0  0  0  0  0  0  0  0
    5.5244   -1.5143    2.3320 H   0  0  0  0  0  0  0  0  0  0  0  0
    5.9365    0.1979    2.4263 H   0  0  0  0  0  0  0  0  0  0  0  0
    6.4308    1.4955    0.2956 H   0  0  0  0  0  0  0  0  0  0  0  0
    7.4664    1.3723   -1.9438 H   0  0  0  0  0  0  0  0  0  0  0  0
    7.7316   -0.8219   -3.0762 H   0  0  0  0  0  0  0  0  0  0  0  0
    6.9542   -2.8956   -1.9648 H   0  0  0  0  0  0  0  0  0  0  0  0
    5.9032   -2.7883    0.2686 H   0  0  0  0  0  0  0  0  0  0  0  0
    1.3500   -0.4127    0.4522 H   0  0  0  0  0  0  0  0  0  0  0  0
   -1.3522   -0.5823    0.5204 H   0  0  0  0  0  0  0  0  0  0  0  0
   -2.1887    0.5895    1.5390 H   0  0  0  0  0  0  0  0  0  0  0  0
   -0.4312    1.3256   -0.8915 H   0  0  0  0  0  0  0  0  0  0  0  0
   -0.9736    3.1319    1.1314 H   0  0  0  0  0  0  0  0  0  0  0  0
   -0.9178    3.5520   -0.5859 H   0  0  0  0  0  0  0  0  0  0  0  0
   -3.1298    4.2941    0.0798 H   0  0  0  0  0  0  0  0  0  0  0  0
   -3.3997    2.8117    1.0234 H   0  0  0  0  0  0  0  0  0  0  0  0
   -3.2016    3.0768   -2.0130 H   0  0  0  0  0  0  0  0  0  0  0  0
   -4.4513    2.2450   -1.0490 H   0  0  0  0  0  0  0  0  0  0  0  0
   -4.7018    0.4007    0.5494 H   0  0  0  0  0  0  0  0  0  0  0  0
   -5.5404    0.0760   -0.9948 H   0  0  0  0  0  0  0  0  0  0  0  0
   -5.2745   -1.9050    1.3346 H   0  0  0  0  0  0  0  0  0  0  0  0
   -6.7197   -0.9746    0.9333 H   0  0  0  0  0  0  0  0  0  0  0  0
   -5.4176   -3.7936   -1.7020 H   0  0  0  0  0  0  0  0  0  0  0  0
   -5.6116   -2.1459   -2.3097 H   0  0  0  0  0  0  0  0  0  0  0  0
   -3.1904   -2.7521   -1.8359 H   0  0  0  0  0  0  0  0  0  0  0  0
   -3.5913   -2.9970   -0.1394 H   0  0  0  0  0  0  0  0  0  0  0  0
  1  2  2  0
  2  3  1  0
  3  4  1  0
  4  5  1  0
  5  6  2  0
  6  7  1  0
  7  8  2  0
  8  9  1  0
  9 10  2  0
  2 11  1  0
 11 12  2  0
 12 13  1  0
 13 14  1  0
 14 15  1  0
 15 16  1  0
 16 17  1  0
 17 18  1  0
 18 19  1  0
 19 20  1  0
 20 21  2  0
 20 22  2  0
 20 23  1  0
 23 24  1  0
 24 25  1  0
 25 26  1  0
 26 27  1  0
 27 28  1  0
 13 29  1  0
 29 30  2  0
 10  5  1  0
 30 11  1  0
 19 15  1  0
 28 23  1  0
  3 31  1  0
  4 32  1  0
  4 33  1  0
  6 34  1  0
  7 35  1  0
  8 36  1  0
  9 37  1  0
 10 38  1  0
 12 39  1  0
 14 40  1  0
 14 41  1  0
 15 42  1  6
 16 43  1  0
 16 44  1  0
 17 45  1  0
 17 46  1  0
 18 47  1  0
 18 48  1  0
 24 49  1  0
 24 50  1  0
 25 51  1  0
 25 52  1  0
 27 53  1  0
 27 54  1  0
 28 55  1  0
 28 56  1  0
M  END
$$$$
