
     RDKit          3D

 35 35  0  0  0  0  0  0  0  0999 V2000
    2.9821    2.6755   -2.2729 C   0  0  0  0  0  0  0  0  0  0  0  0
    3.8186    2.0875   -1.2837 O   0  0  0  0  0  0  0  0  0  0  0  0
    3.2590    0.9619   -0.7105 C   0  0  0  0  0  0  0  0  0  0  0  0
    3.9859    0.4272    0.2636 N   0  0  0  0  0  0  0  0  0  0  0  0
    3.4377   -0.6514    0.8169 C   0  0  0  0  0  0  0  0  0  0  0  0
    4.1978   -1.3409    1.9049 C   0  0  0  0  0  0  0  0  0  0  0  0
    2.2805   -1.1894    0.4469 N   0  0  0  0  0  0  0  0  0  0  0  0
    1.6375   -0.5744   -0.5390 C   0  0  0  0  0  0  0  0  0  0  0  0
    0.4151   -1.0296   -1.0130 N   0  0  0  0  0  0  0  0  0  0  0  0
   -0.3351   -2.0879   -0.5540 C   0  0  0  0  0  0  0  0  0  0  0  0
    0.0375   -2.8271    0.3549 O   0  0  0  0  0  0  0  0  0  0  0  0
   -1.4787   -2.2977   -1.2130 N   0  0  0  0  0  2  0  0  0  0  0  0
   -2.4140   -1.0623   -1.5872 S   0  0  0  0  0  6  0  0  0  0  0  0
   -3.6537   -1.4552   -2.2539 O   0  0  0  0  0  0  0  0  0  0  0  0
   -1.6882    0.0392   -2.2238 O   0  0  0  0  0  0  0  0  0  0  0  0
   -3.0641   -0.2984   -0.0734 C   0  0  0  0  0  0  0  0  0  0  0  0
   -2.8901   -0.9636    1.1504 C   0  0  0  0  0  0  0  0  0  0  0  0
   -3.3622   -0.3973    2.3360 C   0  0  0  0  0  0  0  0  0  0  0  0
   -4.0194    0.8283    2.3077 C   0  0  0  0  0  0  0  0  0  0  0  0
   -4.2115    1.4827    1.0899 C   0  0  0  0  0  0  0  0  0  0  0  0
   -3.7413    0.9257   -0.1094 C   0  0  0  0  0  0  0  0  0  0  0  0
   -4.0910    1.8214   -1.5457 Cl  0  0  0  0  0  0  0  0  0  0  0  0
    2.0933    0.5111   -1.1565 N   0  0  0  0  0  0  0  0  0  0  0  0
    0.0000    0.0000    0.0000 K   0  0  0  0  0 15  0  0  0  0  0  0
    2.8289    1.9973   -3.1197 H   0  0  0  0  0  0  0  0  0  0  0  0
    2.0254    2.9985   -1.8471 H   0  0  0  0  0  0  0  0  0  0  0  0
    3.4920    3.5666   -2.6521 H   0  0  0  0  0  0  0  0  0  0  0  0
    4.8305   -0.6299    2.4451 H   0  0  0  0  0  0  0  0  0  0  0  0
    4.8328   -2.1205    1.4740 H   0  0  0  0  0  0  0  0  0  0  0  0
    3.5116   -1.8011    2.6226 H   0  0  0  0  0  0  0  0  0  0  0  0
    0.0108   -0.4530   -1.7472 H   0  0  0  0  0  0  0  0  0  0  0  0
   -2.3908   -1.9277    1.2013 H   0  0  0  0  0  0  0  0  0  0  0  0
   -3.2117   -0.9202    3.2766 H   0  0  0  0  0  0  0  0  0  0  0  0
   -4.3877    1.2711    3.2283 H   0  0  0  0  0  0  0  0  0  0  0  0
   -4.7377    2.4336    1.0757 H   0  0  0  0  0  0  0  0  0  0  0  0
  1  2  1  0
  2  3  1  0
  3  4  2  0
  4  5  1  0
  5  6  1  0
  5  7  2  0
  7  8  1  0
  8  9  1  0
  9 10  1  0
 10 11  2  0
 10 12  1  0
 12 13  1  0
 13 14  2  0
 13 15  2  0
 13 16  1  0
 16 17  2  0
 17 18  1  0
 18 19  2  0
 19 20  1  0
 20 21  2  0
 21 22  1  0
  8 23  2  0
 23  3  1  0
 21 16  1  0
  1 25  1  0
  1 26  1  0
  1 27  1  0
  6 28  1  0
  6 29  1  0
  6 30  1  0
  9 31  1  0
 17 32  1  0
 18 33  1  0
 19 34  1  0
 20 35  1  0
M  CHG  2  12  -1  24   1
M  END
$$$$
