
     RDKit          3D

 63 65  0  0  0  0  0  0  0  0999 V2000
    0.4646   -5.1517    2.1583 C   0  0  0  0  0  0  0  0  0  0  0  0
    0.1208   -3.7562    1.8988 C   0  0  0  0  0  0  0  0  0  0  0  0
    0.8641   -2.8556    2.3897 O   0  0  0  0  0  0  0  0  0  0  0  0
   -1.0275   -3.3313    1.1095 C   0  0  0  0  0  0  0  0  0  0  0  0
   -1.8786   -4.2801    0.5917 C   0  0  0  0  0  0  0  0  0  0  0  0
   -2.9793   -3.9364   -0.1210 N   0  0  0  0  0  0  0  0  0  0  0  0
   -3.3106   -2.6583   -0.3665 C   0  0  0  0  0  0  0  0  0  0  0  0
   -4.4426   -2.3323   -1.0958 C   0  0  0  0  0  0  0  0  0  0  0  0
   -4.7352   -0.9881   -1.3173 C   0  0  0  0  0  0  0  0  0  0  0  0
   -3.8951   -0.0354   -0.8068 C   0  0  0  0  0  0  0  0  0  0  0  0
   -4.1974    1.3698   -1.0285 C   0  0  0  0  0  0  0  0  0  0  0  0
   -3.3071    2.2837   -0.4846 C   0  0  0  0  0  0  0  0  0  0  0  0
   -3.4943    3.6277   -0.6250 C   0  0  0  0  0  0  0  0  0  0  0  0
   -2.3384    4.7485    0.0831 Cl  0  0  0  0  0  0  0  0  0  0  0  0
   -4.5743    4.1254   -1.3127 C   0  0  0  0  0  0  0  0  0  0  0  0
   -4.7914    5.4881   -1.4730 O   0  0  0  0  0  0  0  0  0  0  0  0
   -5.4518    3.2010   -1.8481 C   0  0  0  0  0  0  0  0  0  0  0  0
   -6.8555    3.7477   -2.7397 Cl  0  0  0  0  0  0  0  0  0  0  0  0
   -5.2740    1.8218   -1.7130 C   0  0  0  0  0  0  0  0  0  0  0  0
   -2.7978   -0.4089   -0.0981 N   0  0  0  0  0  0  0  0  0  0  0  0
   -2.4752   -1.6930    0.1403 C   0  0  0  0  0  0  0  0  0  0  0  0
   -1.3310   -2.0196    0.8784 C   0  0  0  0  0  0  0  0  0  0  0  0
   -0.5023   -0.9614    1.3210 N   0  0  0  0  0  0  0  0  0  0  0  0
    0.4314   -0.2714    0.4591 C   0  0  1  0  0  0  0  0  0  0  0  0
    1.1954    0.7286    1.2428 C   0  0  0  0  0  0  0  0  0  0  0  0
    2.6496    0.4427    1.3949 C   0  0  0  0  0  0  0  0  0  0  0  0
    3.3474   -0.1066    0.1855 C   0  0  2  0  0  0  0  0  0  0  0  0
    4.6492    0.5564   -0.0661 C   0  0  0  0  0  0  0  0  0  0  0  0
    4.6482    1.9727   -0.2892 N   0  0  0  0  0  0  0  0  0  0  0  0
    6.0238    2.4994   -0.1167 C   0  0  0  0  0  0  0  0  0  0  0  0
    4.4150    2.2021   -1.7346 C   0  0  0  0  0  0  0  0  0  0  0  0
    2.4080   -0.2570   -0.9557 C   0  0  0  0  0  0  0  0  0  0  0  0
    1.2035   -1.1392   -0.4721 C   0  0  0  0  0  0  0  0  0  0  0  0
    0.6915    0.0000    0.0000 Cl  0  0  0  0  0  0  0  0  0  0  0  0
   -0.2375   -5.6529    2.8548 H   0  0  0  0  0  0  0  0  0  0  0  0
    1.5319   -5.2374    2.4870 H   0  0  0  0  0  0  0  0  0  0  0  0
    0.4082   -5.7364    1.2070 H   0  0  0  0  0  0  0  0  0  0  0  0
   -1.6260   -5.3329    0.7832 H   0  0  0  0  0  0  0  0  0  0  0  0
   -5.1006   -3.0899   -1.4949 H   0  0  0  0  0  0  0  0  0  0  0  0
   -5.6265   -0.7988   -1.8903 H   0  0  0  0  0  0  0  0  0  0  0  0
   -2.4231    1.9411    0.0750 H   0  0  0  0  0  0  0  0  0  0  0  0
   -4.1014    6.1218   -1.0520 H   0  0  0  0  0  0  0  0  0  0  0  0
   -5.9869    1.1290   -2.1541 H   0  0  0  0  0  0  0  0  0  0  0  0
   -0.5632   -0.6640    2.3097 H   0  0  0  0  0  0  0  0  0  0  0  0
   -0.2675    0.3531   -0.2280 H   0  0  0  0  0  0  0  0  0  0  0  0
    1.0274    1.7799    0.8772 H   0  0  0  0  0  0  0  0  0  0  0  0
    0.7961    0.7964    2.3118 H   0  0  0  0  0  0  0  0  0  0  0  0
    2.7884   -0.2368    2.2718 H   0  0  0  0  0  0  0  0  0  0  0  0
    3.1252    1.4089    1.7278 H   0  0  0  0  0  0  0  0  0  0  0  0
    3.6343   -1.1853    0.5126 H   0  0  0  0  0  0  0  0  0  0  0  0
    5.1550    0.0126   -0.9353 H   0  0  0  0  0  0  0  0  0  0  0  0
    5.3872    0.3815    0.7694 H   0  0  0  0  0  0  0  0  0  0  0  0
    6.5139    2.5734   -1.0963 H   0  0  0  0  0  0  0  0  0  0  0  0
    6.6094    1.8640    0.5665 H   0  0  0  0  0  0  0  0  0  0  0  0
    5.9336    3.5459    0.2870 H   0  0  0  0  0  0  0  0  0  0  0  0
    4.8079    3.2577   -1.9415 H   0  0  0  0  0  0  0  0  0  0  0  0
    5.0260    1.4462   -2.2569 H   0  0  0  0  0  0  0  0  0  0  0  0
    3.3675    2.2320   -2.0219 H   0  0  0  0  0  0  0  0  0  0  0  0
    1.9742    0.6881   -1.2736 H   0  0  0  0  0  0  0  0  0  0  0  0
    2.8688   -0.8409   -1.7676 H   0  0  0  0  0  0  0  0  0  0  0  0
    1.6015   -2.0693   -0.0878 H   0  0  0  0  0  0  0  0  0  0  0  0
    0.6146   -1.3202   -1.3919 H   0  0  0  0  0  0  0  0  0  0  0  0
   -0.6915    0.0000    0.0000 H   0  0  0  0  0  0  0  0  0  0  0  0
  1  2  1  0
  2  3  2  0
  2  4  1  0
  4  5  2  0
  5  6  1  0
  6  7  2  0
  7  8  1  0
  8  9  2  0
  9 10  1  0
 10 11  1  0
 11 12  2  0
 12 13  1  0
 13 14  1  0
 13 15  2  0
 15 16  1  0
 15 17  1  0
 17 18  1  0
 17 19  2  0
 10 20  2  0
 20 21  1  0
 21 22  2  0
 22 23  1  0
 23 24  1  0
 24 25  1  0
 25 26  1  0
 26 27  1  0
 27 28  1  0
 28 29  1  0
 29 30  1  0
 29 31  1  0
 27 32  1  0
 32 33  1  0
 22  4  1  0
 33 24  1  0
 21  7  1  0
 19 11  1  0
  1 35  1  0
  1 36  1  0
  1 37  1  0
  5 38  1  0
  8 39  1  0
  9 40  1  0
 12 41  1  0
 16 42  1  0
 19 43  1  0
 23 44  1  0
 24 45  1  6
 25 46  1  0
 25 47  1  0
 26 48  1  0
 26 49  1  0
 27 50  1  1
 28 51  1  0
 28 52  1  0
 30 53  1  0
 30 54  1  0
 30 55  1  0
 31 56  1  0
 31 57  1  0
 31 58  1  0
 32 59  1  0
 32 60  1  0
 33 61  1  0
 33 62  1  0
 34 63  1  0
M  END
$$$$
