
     RDKit          3D

 49 50  0  0  0  0  0  0  0  0999 V2000
   -7.1310    0.8772   -1.5369 C   0  0  0  0  0  0  0  0  0  0  0  0
   -6.2550    0.4078   -0.3853 C   0  0  0  0  0  0  0  0  0  0  0  0
   -6.2215   -1.1181   -0.2969 C   0  0  0  0  0  0  0  0  0  0  0  0
   -5.4468   -1.6421    0.9163 C   0  0  0  0  0  0  0  0  0  0  0  0
   -3.9723   -1.2317    0.9932 C   0  0  0  0  0  0  0  0  0  0  0  0
   -3.1513   -1.6958   -0.2123 C   0  0  0  0  0  0  0  0  0  0  0  0
   -1.6455   -1.4715   -0.0405 C   0  0  0  0  0  0  0  0  0  0  0  0
   -1.2591    0.0085    0.0266 C   0  0  0  0  0  0  0  0  0  0  0  0
    0.2382    0.1887    0.0751 C   0  0  0  0  0  0  0  0  0  0  0  0
    0.9727    0.3604   -1.1026 C   0  0  0  0  0  0  0  0  0  0  0  0
    2.3624    0.5112   -1.0564 C   0  0  0  0  0  0  0  0  0  0  0  0
    3.0546    0.4888    0.1647 C   0  0  0  0  0  0  0  0  0  0  0  0
    4.5175    0.6468    0.2112 C   0  0  0  0  0  0  0  0  0  0  0  0
    5.3268   -0.2977    0.8645 C   0  0  0  0  0  0  0  0  0  0  0  0
    6.7172   -0.1493    0.9094 C   0  0  0  0  0  0  0  0  0  0  0  0
    7.3270    0.9517    0.3001 C   0  0  0  0  0  0  0  0  0  0  0  0
    8.8032    1.0692    0.3732 C   0  0  0  0  0  0  0  0  0  0  0  0
    9.5546    0.2878    0.9266 O   0  0  0  0  0  0  0  0  0  0  0  0
    9.2724    2.1634   -0.2525 O   0  0  0  0  0  0  0  0  0  0  0  0
    6.5364    1.9014   -0.3540 C   0  0  0  0  0  0  0  0  0  0  0  0
    5.1459    1.7470   -0.3965 C   0  0  0  0  0  0  0  0  0  0  0  0
    2.3080    0.3087    1.3397 C   0  0  0  0  0  0  0  0  0  0  0  0
    0.9181    0.1588    1.2972 C   0  0  0  0  0  0  0  0  0  0  0  0
   -8.1632    0.5356   -1.4099 H   0  0  0  0  0  0  0  0  0  0  0  0
   -6.7578    0.4973   -2.4933 H   0  0  0  0  0  0  0  0  0  0  0  0
   -7.1391    1.9707   -1.5854 H   0  0  0  0  0  0  0  0  0  0  0  0
   -6.6380    0.8274    0.5520 H   0  0  0  0  0  0  0  0  0  0  0  0
   -5.2442    0.8033   -0.5320 H   0  0  0  0  0  0  0  0  0  0  0  0
   -7.2498   -1.4957   -0.2301 H   0  0  0  0  0  0  0  0  0  0  0  0
   -5.8020   -1.5352   -1.2197 H   0  0  0  0  0  0  0  0  0  0  0  0
   -5.9484   -1.3022    1.8310 H   0  0  0  0  0  0  0  0  0  0  0  0
   -5.5104   -2.7375    0.9206 H   0  0  0  0  0  0  0  0  0  0  0  0
   -3.9006   -0.1451    1.1073 H   0  0  0  0  0  0  0  0  0  0  0  0
   -3.5467   -1.6669    1.9060 H   0  0  0  0  0  0  0  0  0  0  0  0
   -3.3217   -2.7678   -0.3708 H   0  0  0  0  0  0  0  0  0  0  0  0
   -3.4877   -1.1825   -1.1203 H   0  0  0  0  0  0  0  0  0  0  0  0
   -1.2964   -1.9931    0.8596 H   0  0  0  0  0  0  0  0  0  0  0  0
   -1.1321   -1.9435   -0.8883 H   0  0  0  0  0  0  0  0  0  0  0  0
   -1.7007    0.4856    0.9094 H   0  0  0  0  0  0  0  0  0  0  0  0
   -1.6630    0.5443   -0.8417 H   0  0  0  0  0  0  0  0  0  0  0  0
    0.4698    0.3741   -2.0670 H   0  0  0  0  0  0  0  0  0  0  0  0
    2.9067    0.6334   -1.9907 H   0  0  0  0  0  0  0  0  0  0  0  0
    4.8765   -1.1694    1.3363 H   0  0  0  0  0  0  0  0  0  0  0  0
    7.3196   -0.8985    1.4197 H   0  0  0  0  0  0  0  0  0  0  0  0
   10.2423    2.1081   -0.1231 H   0  0  0  0  0  0  0  0  0  0  0  0
    6.9879    2.7673   -0.8320 H   0  0  0  0  0  0  0  0  0  0  0  0
    4.5492    2.5050   -0.9013 H   0  0  0  0  0  0  0  0  0  0  0  0
    2.8063    0.2942    2.3070 H   0  0  0  0  0  0  0  0  0  0  0  0
    0.3708    0.0201    2.2269 H   0  0  0  0  0  0  0  0  0  0  0  0
  1  2  1  0
  2  3  1  0
  3  4  1  0
  4  5  1  0
  5  6  1  0
  6  7  1  0
  7  8  1  0
  8  9  1  0
  9 10  2  0
 10 11  1  0
 11 12  2  0
 12 13  1  0
 13 14  2  0
 14 15  1  0
 15 16  2  0
 16 17  1  0
 17 18  2  0
 17 19  1  0
 16 20  1  0
 20 21  2  0
 12 22  1  0
 22 23  2  0
 23  9  1  0
 21 13  1  0
  1 24  1  0
  1 25  1  0
  1 26  1  0
  2 27  1  0
  2 28  1  0
  3 29  1  0
  3 30  1  0
  4 31  1  0
  4 32  1  0
  5 33  1  0
  5 34  1  0
  6 35  1  0
  6 36  1  0
  7 37  1  0
  7 38  1  0
  8 39  1  0
  8 40  1  0
 10 41  1  0
 11 42  1  0
 14 43  1  0
 15 44  1  0
 19 45  1  0
 20 46  1  0
 21 47  1  0
 22 48  1  0
 23 49  1  0
M  END
$$$$
