
     RDKit          3D

 52 55  0  0  0  0  0  0  0  0999 V2000
    8.2500    3.2464   -0.0399 N   0  0  0  0  0  0  0  0  0  0  0  0
    8.1145    2.0994   -0.7716 C   0  0  0  0  0  0  0  0  0  0  0  0
    9.0758    1.6103   -1.3514 O   0  0  0  0  0  0  0  0  0  0  0  0
    6.7572    1.4984   -0.8693 C   0  0  0  0  0  0  0  0  0  0  0  0
    5.7473    1.7702    0.0585 C   0  0  0  0  0  0  0  0  0  0  0  0
    4.4841    1.1775   -0.0773 C   0  0  0  0  0  0  0  0  0  0  0  0
    4.2167    0.3033   -1.1328 C   0  0  0  0  0  0  0  0  0  0  0  0
    2.9746   -0.3322   -1.3379 N   0  0  0  0  0  0  0  0  0  0  0  0
    1.8223   -0.1997   -0.5790 C   0  0  0  0  0  0  0  0  0  0  0  0
    1.6806    0.5063    0.4125 O   0  0  0  0  0  0  0  0  0  0  0  0
    0.6984   -1.0608   -1.1191 C   0  0  0  0  0  0  0  0  0  0  0  0
   -0.5792   -0.8796   -0.3199 C   0  0  2  0  0  0  0  0  0  0  0  0
   -0.5929   -1.6013    0.9274 N   0  0  0  0  0  0  0  0  0  0  0  0
   -1.7213   -2.3832    1.0513 C   0  0  0  0  0  0  0  0  0  0  0  0
   -2.0347   -2.9609    2.0786 O   0  0  0  0  0  0  0  0  0  0  0  0
   -2.3762   -2.3844   -0.1445 N   0  0  0  0  0  0  0  0  0  0  0  0
   -3.6277   -3.0752   -0.3949 C   0  0  0  0  0  0  0  0  0  0  0  0
   -4.8327   -2.1311   -0.5140 C   0  0  0  0  0  0  0  0  0  0  0  0
   -4.9997   -1.2311    0.6707 C   0  0  0  0  0  0  0  0  0  0  0  0
   -5.4758   -1.5942    1.9151 C   0  0  0  0  0  0  0  0  0  0  0  0
   -5.4193   -0.4987    2.7335 N   0  0  0  0  0  0  0  0  0  0  0  0
   -4.9291    0.5859    2.0451 C   0  0  0  0  0  0  0  0  0  0  0  0
   -4.6968    1.8975    2.4762 C   0  0  0  0  0  0  0  0  0  0  0  0
   -4.1807    2.8041    1.5458 C   0  0  0  0  0  0  0  0  0  0  0  0
   -3.9108    2.4127    0.2371 C   0  0  0  0  0  0  0  0  0  0  0  0
   -4.1488    1.0972   -0.1768 C   0  0  0  0  0  0  0  0  0  0  0  0
   -4.6662    0.1608    0.7430 C   0  0  0  0  0  0  0  0  0  0  0  0
   -1.7648   -1.5354   -1.0228 C   0  0  0  0  0  0  0  0  0  0  0  0
   -2.1107   -1.3057   -2.1746 O   0  0  0  0  0  0  0  0  0  0  0  0
    5.2363    0.0224   -2.0509 C   0  0  0  0  0  0  0  0  0  0  0  0
    6.4980    0.6121   -1.9194 C   0  0  0  0  0  0  0  0  0  0  0  0
    9.1546    3.6978   -0.0922 H   0  0  0  0  0  0  0  0  0  0  0  0
    7.4609    3.8213    0.2169 H   0  0  0  0  0  0  0  0  0  0  0  0
    5.9238    2.4187    0.9115 H   0  0  0  0  0  0  0  0  0  0  0  0
    3.7338    1.4157    0.6706 H   0  0  0  0  0  0  0  0  0  0  0  0
    2.9256   -0.9526   -2.1376 H   0  0  0  0  0  0  0  0  0  0  0  0
    0.5319   -0.7702   -2.1638 H   0  0  0  0  0  0  0  0  0  0  0  0
    1.0216   -2.1091   -1.1084 H   0  0  0  0  0  0  0  0  0  0  0  0
   -0.8270    0.1681   -0.1188 H   0  0  0  0  0  0  0  0  0  0  0  0
   -0.1084   -1.2948    1.7634 H   0  0  0  0  0  0  0  0  0  0  0  0
   -3.7987   -3.8029    0.4068 H   0  0  0  0  0  0  0  0  0  0  0  0
   -3.5193   -3.6288   -1.3346 H   0  0  0  0  0  0  0  0  0  0  0  0
   -5.7422   -2.7314   -0.6411 H   0  0  0  0  0  0  0  0  0  0  0  0
   -4.7394   -1.5275   -1.4244 H   0  0  0  0  0  0  0  0  0  0  0  0
   -5.8236   -2.5452    2.2963 H   0  0  0  0  0  0  0  0  0  0  0  0
   -5.6847   -0.4864    3.7082 H   0  0  0  0  0  0  0  0  0  0  0  0
   -4.9063    2.2054    3.4953 H   0  0  0  0  0  0  0  0  0  0  0  0
   -3.9895    3.8307    1.8497 H   0  0  0  0  0  0  0  0  0  0  0  0
   -3.5136    3.1346   -0.4721 H   0  0  0  0  0  0  0  0  0  0  0  0
   -3.9372    0.8064   -1.2020 H   0  0  0  0  0  0  0  0  0  0  0  0
    5.0705   -0.6590   -2.8816 H   0  0  0  0  0  0  0  0  0  0  0  0
    7.2789    0.3784   -2.6411 H   0  0  0  0  0  0  0  0  0  0  0  0
  1  2  1  0
  2  3  2  0
  2  4  1  0
  4  5  2  0
  5  6  1  0
  6  7  2  0
  7  8  1  0
  8  9  1  0
  9 10  2  0
  9 11  1  0
 11 12  1  0
 12 13  1  0
 13 14  1  0
 14 15  2  0
 14 16  1  0
 16 17  1  0
 17 18  1  0
 18 19  1  0
 19 20  2  0
 20 21  1  0
 21 22  1  0
 22 23  2  0
 23 24  1  0
 24 25  2  0
 25 26  1  0
 26 27  2  0
 16 28  1  0
 28 29  2  0
  7 30  1  0
 30 31  2  0
 31  4  1  0
 28 12  1  0
 27 19  1  0
 27 22  1  0
  1 32  1  0
  1 33  1  0
  5 34  1  0
  6 35  1  0
  8 36  1  0
 11 37  1  0
 11 38  1  0
 12 39  1  1
 13 40  1  0
 17 41  1  0
 17 42  1  0
 18 43  1  0
 18 44  1  0
 20 45  1  0
 21 46  1  0
 23 47  1  0
 24 48  1  0
 25 49  1  0
 26 50  1  0
 30 51  1  0
 31 52  1  0
M  END
$$$$
