
     RDKit          3D

 49 51  0  0  0  0  0  0  0  0999 V2000
    6.4346    2.4197   -0.9486 C   0  0  0  0  0  0  0  0  0  0  0  0
    5.7775    1.2667   -1.6605 C   0  0  0  0  0  0  0  0  0  0  0  0
    5.8615    1.1431   -2.8803 O   0  0  0  0  0  0  0  0  0  0  0  0
    5.0134    0.2619   -0.8607 C   0  0  0  0  0  0  0  0  0  0  0  0
    4.3815   -0.7914   -1.5401 C   0  0  0  0  0  0  0  0  0  0  0  0
    3.6597   -1.7589   -0.8368 C   0  0  0  0  0  0  0  0  0  0  0  0
    3.5640   -1.6668    0.5535 C   0  0  0  0  0  0  0  0  0  0  0  0
    2.6472   -2.9021    1.4441 S   0  0  0  0  0  6  0  0  0  0  0  0
    3.1082   -4.1927    0.9893 O   0  0  0  0  0  0  0  0  0  0  0  0
    2.6401   -2.5321    2.8426 O   0  0  0  0  0  0  0  0  0  0  0  0
    1.0887   -2.7010    0.8732 N   0  0  0  0  0  0  0  0  0  0  0  0
    0.3947   -1.4389    1.1501 C   0  0  0  0  0  0  0  0  0  0  0  0
   -0.5827   -1.5926    2.2984 C   0  0  0  0  0  0  0  0  0  0  0  0
   -1.6426   -0.5576    1.9785 C   0  0  0  0  0  0  0  0  0  0  0  0
   -1.6915   -0.5223    0.5334 N   0  0  0  0  0  0  0  0  0  0  0  0
   -2.7691    0.0632   -0.1868 C   0  0  0  0  0  0  0  0  0  0  0  0
   -2.8330    0.0229   -1.5815 C   0  0  0  0  0  0  0  0  0  0  0  0
   -3.9037    0.5989   -2.2759 C   0  0  0  0  0  0  0  0  0  0  0  0
   -4.9463    1.2366   -1.5958 C   0  0  0  0  0  0  0  0  0  0  0  0
   -6.0786    1.8423   -2.3779 C   0  0  0  0  0  0  0  0  0  0  0  0
   -4.8985    1.3020   -0.1936 C   0  0  0  0  0  0  0  0  0  0  0  0
   -5.9902    1.9725    0.5965 C   0  0  0  0  0  0  0  0  0  0  0  0
   -3.8161    0.7113    0.4895 C   0  0  0  0  0  0  0  0  0  0  0  0
   -0.5165   -1.0659   -0.0098 C   0  0  0  0  0  0  0  0  0  0  0  0
   -0.1940   -1.2342   -1.1781 O   0  0  0  0  0  0  0  0  0  0  0  0
    4.1928   -0.6275    1.2445 C   0  0  0  0  0  0  0  0  0  0  0  0
    4.9160    0.3376    0.5358 C   0  0  0  0  0  0  0  0  0  0  0  0
    7.1969    2.0532   -0.2570 H   0  0  0  0  0  0  0  0  0  0  0  0
    5.6855    3.0178   -0.4238 H   0  0  0  0  0  0  0  0  0  0  0  0
    6.9256    3.0634   -1.6851 H   0  0  0  0  0  0  0  0  0  0  0  0
    4.4529   -0.8648   -2.6248 H   0  0  0  0  0  0  0  0  0  0  0  0
    3.1854   -2.5745   -1.3782 H   0  0  0  0  0  0  0  0  0  0  0  0
    0.9349   -3.0987   -0.0575 H   0  0  0  0  0  0  0  0  0  0  0  0
    1.0799   -0.6006    1.3126 H   0  0  0  0  0  0  0  0  0  0  0  0
   -0.1216   -1.4315    3.2775 H   0  0  0  0  0  0  0  0  0  0  0  0
   -1.0289   -2.5958    2.3024 H   0  0  0  0  0  0  0  0  0  0  0  0
   -2.6020   -0.8564    2.4114 H   0  0  0  0  0  0  0  0  0  0  0  0
   -1.3546    0.4345    2.3437 H   0  0  0  0  0  0  0  0  0  0  0  0
   -2.0666   -0.4634   -2.1765 H   0  0  0  0  0  0  0  0  0  0  0  0
   -3.9105    0.5387   -3.3626 H   0  0  0  0  0  0  0  0  0  0  0  0
   -6.0966    2.9276   -2.2388 H   0  0  0  0  0  0  0  0  0  0  0  0
   -7.0353    1.4181   -2.0562 H   0  0  0  0  0  0  0  0  0  0  0  0
   -5.9768    1.6465   -3.4505 H   0  0  0  0  0  0  0  0  0  0  0  0
   -5.7368    2.0354    1.6604 H   0  0  0  0  0  0  0  0  0  0  0  0
   -6.1476    2.9961    0.2415 H   0  0  0  0  0  0  0  0  0  0  0  0
   -6.9227    1.4066    0.5057 H   0  0  0  0  0  0  0  0  0  0  0  0
   -3.8096    0.7846    1.5734 H   0  0  0  0  0  0  0  0  0  0  0  0
    4.1329   -0.5639    2.3294 H   0  0  0  0  0  0  0  0  0  0  0  0
    5.3988    1.1324    1.0976 H   0  0  0  0  0  0  0  0  0  0  0  0
  1  2  1  0
  2  3  2  0
  2  4  1  0
  4  5  2  0
  5  6  1  0
  6  7  2  0
  7  8  1  0
  8  9  2  0
  8 10  2  0
  8 11  1  0
 11 12  1  0
 12 13  1  0
 13 14  1  0
 14 15  1  0
 15 16  1  0
 16 17  2  0
 17 18  1  0
 18 19  2  0
 19 20  1  0
 19 21  1  0
 21 22  1  0
 21 23  2  0
 15 24  1  0
 24 25  2  0
  7 26  1  0
 26 27  2  0
 27  4  1  0
 24 12  1  0
 23 16  1  0
  1 28  1  0
  1 29  1  0
  1 30  1  0
  5 31  1  0
  6 32  1  0
 11 33  1  0
 12 34  1  0
 13 35  1  0
 13 36  1  0
 14 37  1  0
 14 38  1  0
 17 39  1  0
 18 40  1  0
 20 41  1  0
 20 42  1  0
 20 43  1  0
 22 44  1  0
 22 45  1  0
 22 46  1  0
 23 47  1  0
 26 48  1  0
 27 49  1  0
M  END
$$$$
