
     RDKit          3D

 62 66  0  0  0  0  0  0  0  0999 V2000
   -7.4574    2.6157   -1.5584 C   0  0  0  0  0  0  0  0  0  0  0  0
   -6.4109    3.0229   -0.5541 C   0  0  0  0  0  0  0  0  0  0  0  0
   -6.5565    4.0209    0.1523 O   0  0  0  0  0  0  0  0  0  0  0  0
   -5.1752    2.1871   -0.4460 C   0  0  0  0  0  0  0  0  0  0  0  0
   -3.9588    2.7680   -0.5068 C   0  0  0  0  0  0  0  0  0  0  0  0
   -3.7222    4.2369   -0.7601 C   0  0  0  0  0  0  0  0  0  0  0  0
   -2.7765    1.9052   -0.3278 C   0  0  0  0  0  0  0  0  0  0  0  0
   -1.4762    2.3691   -0.2826 C   0  0  0  0  0  0  0  0  0  0  0  0
   -0.3889    1.5882   -0.1313 N   0  0  0  0  0  0  0  0  0  0  0  0
   -0.5904    0.2748   -0.0048 C   0  0  0  0  0  0  0  0  0  0  0  0
    0.4556   -0.6122    0.1579 N   0  0  0  0  0  0  0  0  0  0  0  0
    1.8317   -0.4991    0.2036 C   0  0  0  0  0  0  0  0  0  0  0  0
    2.5279    0.6909    0.0694 C   0  0  0  0  0  0  0  0  0  0  0  0
    3.9287    0.6928    0.1225 C   0  0  0  0  0  0  0  0  0  0  0  0
    4.6517   -0.4843    0.3154 C   0  0  0  0  0  0  0  0  0  0  0  0
    6.0333   -0.5176    0.3671 N   0  0  0  0  0  0  0  0  0  0  0  0
    6.8577    0.6246   -0.0597 C   0  0  0  0  0  0  0  0  0  0  0  0
    8.2832    0.1576   -0.4376 C   0  0  0  0  0  0  0  0  0  0  0  0
    9.0221   -0.5507    0.6241 N   0  0  0  0  0  0  0  0  0  0  0  0
    8.1044   -1.1596    1.6028 C   0  0  0  0  0  0  0  0  0  0  0  0
    6.7395   -1.6224    1.0406 C   0  0  0  0  0  0  0  0  0  0  0  0
    3.8510   -1.6221    0.4365 C   0  0  0  0  0  0  0  0  0  0  0  0
    2.4910   -1.6600    0.3876 N   0  0  0  0  0  0  0  0  0  0  0  0
   -1.8140   -0.2690   -0.0242 N   0  0  0  0  0  0  0  0  0  0  0  0
   -2.8883    0.5332   -0.1823 C   0  0  0  0  0  0  0  0  0  0  0  0
   -4.1815   -0.0620   -0.1940 N   0  0  0  0  0  0  0  0  0  0  0  0
   -4.3285   -1.5152   -0.0339 C   0  0  0  0  0  0  0  0  0  0  0  0
   -3.9457   -2.0513    1.3538 C   0  0  0  0  0  0  0  0  0  0  0  0
   -3.5606   -3.4987    1.0837 C   0  0  0  0  0  0  0  0  0  0  0  0
   -2.8182   -3.4269   -0.2418 C   0  0  0  0  0  0  0  0  0  0  0  0
   -3.5873   -2.3937   -1.0621 C   0  0  0  0  0  0  0  0  0  0  0  0
   -5.3312    0.7124   -0.2719 C   0  0  0  0  0  0  0  0  0  0  0  0
   -6.4668    0.2409   -0.2166 O   0  0  0  0  0  0  0  0  0  0  0  0
   -7.8572    3.5137   -2.0397 H   0  0  0  0  0  0  0  0  0  0  0  0
   -7.0224    1.9877   -2.3429 H   0  0  0  0  0  0  0  0  0  0  0  0
   -8.2635    2.0783   -1.0550 H   0  0  0  0  0  0  0  0  0  0  0  0
   -2.9771    4.3796   -1.5501 H   0  0  0  0  0  0  0  0  0  0  0  0
   -3.3691    4.7302    0.1508 H   0  0  0  0  0  0  0  0  0  0  0  0
   -4.6106    4.7690   -1.1084 H   0  0  0  0  0  0  0  0  0  0  0  0
   -1.2352    3.4249   -0.3644 H   0  0  0  0  0  0  0  0  0  0  0  0
    0.1463   -1.5649    0.2645 H   0  0  0  0  0  0  0  0  0  0  0  0
    2.0139    1.6335   -0.0764 H   0  0  0  0  0  0  0  0  0  0  0  0
    4.4311    1.6506    0.0289 H   0  0  0  0  0  0  0  0  0  0  0  0
    6.4270    1.1052   -0.9465 H   0  0  0  0  0  0  0  0  0  0  0  0
    6.9049    1.3689    0.7446 H   0  0  0  0  0  0  0  0  0  0  0  0
    8.2078   -0.5123   -1.3052 H   0  0  0  0  0  0  0  0  0  0  0  0
    8.8787    1.0220   -0.7551 H   0  0  0  0  0  0  0  0  0  0  0  0
    9.5929   -1.2764    0.1887 H   0  0  0  0  0  0  0  0  0  0  0  0
    7.9269   -0.4202    2.3946 H   0  0  0  0  0  0  0  0  0  0  0  0
    8.6083   -2.0079    2.0801 H   0  0  0  0  0  0  0  0  0  0  0  0
    6.8917   -2.4421    0.3263 H   0  0  0  0  0  0  0  0  0  0  0  0
    6.1526   -2.0088    1.8846 H   0  0  0  0  0  0  0  0  0  0  0  0
    4.2958   -2.6050    0.5633 H   0  0  0  0  0  0  0  0  0  0  0  0
   -5.3908   -1.7616   -0.1670 H   0  0  0  0  0  0  0  0  0  0  0  0
   -4.7767   -1.9735    2.0629 H   0  0  0  0  0  0  0  0  0  0  0  0
   -3.0982   -1.5150    1.7923 H   0  0  0  0  0  0  0  0  0  0  0  0
   -2.9443   -3.9217    1.8820 H   0  0  0  0  0  0  0  0  0  0  0  0
   -4.4606   -4.1163    0.9812 H   0  0  0  0  0  0  0  0  0  0  0  0
   -2.7712   -4.3983   -0.7428 H   0  0  0  0  0  0  0  0  0  0  0  0
   -1.7897   -3.0868   -0.0771 H   0  0  0  0  0  0  0  0  0  0  0  0
   -2.9298   -1.8439   -1.7419 H   0  0  0  0  0  0  0  0  0  0  0  0
   -4.3246   -2.9055   -1.6937 H   0  0  0  0  0  0  0  0  0  0  0  0
  1  2  1  0
  2  3  2  0
  2  4  1  0
  4  5  2  0
  5  6  1  0
  5  7  1  0
  7  8  2  0
  8  9  1  0
  9 10  2  0
 10 11  1  0
 11 12  1  0
 12 13  2  0
 13 14  1  0
 14 15  2  0
 15 16  1  0
 16 17  1  0
 17 18  1  0
 18 19  1  0
 19 20  1  0
 20 21  1  0
 15 22  1  0
 22 23  2  0
 10 24  1  0
 24 25  2  0
 25 26  1  0
 26 27  1  0
 27 28  1  0
 28 29  1  0
 29 30  1  0
 30 31  1  0
 26 32  1  0
 32 33  2  0
 32  4  1  0
 25  7  1  0
 31 27  1  0
 23 12  1  0
 21 16  1  0
  1 34  1  0
  1 35  1  0
  1 36  1  0
  6 37  1  0
  6 38  1  0
  6 39  1  0
  8 40  1  0
 11 41  1  0
 13 42  1  0
 14 43  1  0
 17 44  1  0
 17 45  1  0
 18 46  1  0
 18 47  1  0
 19 48  1  0
 20 49  1  0
 20 50  1  0
 21 51  1  0
 21 52  1  0
 22 53  1  0
 27 54  1  0
 28 55  1  0
 28 56  1  0
 29 57  1  0
 29 58  1  0
 30 59  1  0
 30 60  1  0
 31 61  1  0
 31 62  1  0
M  END
$$$$
