
     RDKit          3D

 56 59  0  0  0  0  0  0  0  0999 V2000
   -6.6029   -3.0888    0.1311 C   0  0  0  0  0  0  0  0  0  0  0  0
   -5.5457   -2.0576   -0.2309 C   0  0  0  0  0  0  0  0  0  0  0  0
   -6.1836   -0.7995   -0.6870 N   0  0  0  0  0  0  0  0  0  0  0  0
   -6.8048    0.0137    0.3869 C   0  0  0  0  0  0  0  0  0  0  0  0
   -8.3061    0.0831    0.1638 C   0  0  0  0  0  0  0  0  0  0  0  0
   -5.4179    0.0439   -1.9541 S   0  0  0  0  0  6  0  0  0  0  0  0
   -5.0484   -0.9090   -2.9798 O   0  0  0  0  0  0  0  0  0  0  0  0
   -6.2119    1.2124   -2.2709 O   0  0  0  0  0  0  0  0  0  0  0  0
   -3.9039    0.6177   -1.2030 C   0  0  0  0  0  0  0  0  0  0  0  0
   -2.7604   -0.1810   -1.2557 C   0  0  0  0  0  0  0  0  0  0  0  0
   -1.5617    0.2803   -0.7004 C   0  0  0  0  0  0  0  0  0  0  0  0
   -1.4950    1.5488   -0.1010 C   0  0  0  0  0  0  0  0  0  0  0  0
   -0.2735    2.0187    0.4693 N   0  0  0  0  0  0  0  0  0  0  0  0
   -0.0652    3.2072    1.1310 C   0  0  0  0  0  0  0  0  0  0  0  0
    1.1697    3.3409    1.5552 N   0  0  0  0  0  0  0  0  0  0  0  0
    1.8358    2.2024    1.1540 C   0  0  0  0  0  0  0  0  0  0  0  0
    3.2634    1.9694    1.4538 C   0  0  0  0  0  0  0  0  0  0  0  0
    3.8348    2.5939    2.3407 O   0  0  0  0  0  0  0  0  0  0  0  0
    3.8562    1.0152    0.6383 N   0  0  0  0  0  0  0  0  0  0  0  0
    5.1826    0.5372    0.6905 C   0  0  0  0  0  0  0  0  0  0  0  0
    6.1152    0.9141    1.6607 C   0  0  0  0  0  0  0  0  0  0  0  0
    7.4104    0.3823    1.6479 C   0  0  0  0  0  0  0  0  0  0  0  0
    7.7799   -0.5322    0.6674 C   0  0  0  0  0  0  0  0  0  0  0  0
    6.8631   -0.8960   -0.3202 C   0  0  0  0  0  0  0  0  0  0  0  0
    5.5674   -0.3776   -0.2994 C   0  0  0  0  0  0  0  0  0  0  0  0
    7.1615   -1.7651   -1.3395 O   0  0  0  0  0  0  0  0  0  0  0  0
    8.5773   -1.9485   -1.4660 C   0  0  0  0  0  0  0  0  0  0  0  0
    9.2115   -2.1805   -0.1044 C   0  0  0  0  0  0  0  0  0  0  0  0
    9.0566   -1.0265    0.7292 O   0  0  0  0  0  0  0  0  0  0  0  0
    0.9492    1.3743    0.4833 C   0  0  0  0  0  0  0  0  0  0  0  0
   -2.6477    2.3517   -0.0785 C   0  0  0  0  0  0  0  0  0  0  0  0
   -3.8453    1.8918   -0.6373 C   0  0  0  0  0  0  0  0  0  0  0  0
   -7.2094   -2.7639    0.9820 H   0  0  0  0  0  0  0  0  0  0  0  0
   -7.2755   -3.2717   -0.7139 H   0  0  0  0  0  0  0  0  0  0  0  0
   -6.1283   -4.0372    0.4027 H   0  0  0  0  0  0  0  0  0  0  0  0
   -4.9236   -2.4866   -1.0226 H   0  0  0  0  0  0  0  0  0  0  0  0
   -4.8924   -1.8611    0.6262 H   0  0  0  0  0  0  0  0  0  0  0  0
   -6.3926    1.0262    0.4106 H   0  0  0  0  0  0  0  0  0  0  0  0
   -6.5975   -0.4181    1.3724 H   0  0  0  0  0  0  0  0  0  0  0  0
   -8.7553   -0.9150    0.1729 H   0  0  0  0  0  0  0  0  0  0  0  0
   -8.7799    0.6769    0.9517 H   0  0  0  0  0  0  0  0  0  0  0  0
   -8.5429    0.5457   -0.7998 H   0  0  0  0  0  0  0  0  0  0  0  0
   -2.7890   -1.1580   -1.7348 H   0  0  0  0  0  0  0  0  0  0  0  0
   -0.7024   -0.3806   -0.7610 H   0  0  0  0  0  0  0  0  0  0  0  0
   -0.8370    3.9460    1.2934 H   0  0  0  0  0  0  0  0  0  0  0  0
    3.2941    0.6603   -0.1213 H   0  0  0  0  0  0  0  0  0  0  0  0
    5.8696    1.6176    2.4506 H   0  0  0  0  0  0  0  0  0  0  0  0
    8.1230    0.6783    2.4132 H   0  0  0  0  0  0  0  0  0  0  0  0
    4.8740   -0.6893   -1.0750 H   0  0  0  0  0  0  0  0  0  0  0  0
    8.7425   -2.8152   -2.1135 H   0  0  0  0  0  0  0  0  0  0  0  0
    9.0007   -1.0660   -1.9615 H   0  0  0  0  0  0  0  0  0  0  0  0
    8.7622   -3.0417    0.4056 H   0  0  0  0  0  0  0  0  0  0  0  0
   10.2840   -2.3695   -0.2136 H   0  0  0  0  0  0  0  0  0  0  0  0
    1.0908    0.3980    0.0488 H   0  0  0  0  0  0  0  0  0  0  0  0
   -2.6546    3.3500    0.3501 H   0  0  0  0  0  0  0  0  0  0  0  0
   -4.7213    2.5381   -0.6340 H   0  0  0  0  0  0  0  0  0  0  0  0
  1  2  1  0
  2  3  1  0
  3  4  1  0
  4  5  1  0
  3  6  1  0
  6  7  2  0
  6  8  2  0
  6  9  1  0
  9 10  2  0
 10 11  1  0
 11 12  2  0
 12 13  1  0
 13 14  1  0
 14 15  2  0
 15 16  1  0
 16 17  1  0
 17 18  2  0
 17 19  1  0
 19 20  1  0
 20 21  2  0
 21 22  1  0
 22 23  2  0
 23 24  1  0
 24 25  2  0
 24 26  1  0
 26 27  1  0
 27 28  1  0
 28 29  1  0
 16 30  2  0
 12 31  1  0
 31 32  2  0
 32  9  1  0
 30 13  1  0
 25 20  1  0
 29 23  1  0
  1 33  1  0
  1 34  1  0
  1 35  1  0
  2 36  1  0
  2 37  1  0
  4 38  1  0
  4 39  1  0
  5 40  1  0
  5 41  1  0
  5 42  1  0
 10 43  1  0
 11 44  1  0
 14 45  1  0
 19 46  1  0
 21 47  1  0
 22 48  1  0
 25 49  1  0
 27 50  1  0
 27 51  1  0
 28 52  1  0
 28 53  1  0
 30 54  1  0
 31 55  1  0
 32 56  1  0
M  END
$$$$
