
     RDKit          3D

 41 43  0  0  0  0  0  0  0  0999 V2000
    5.9273   -0.3319    3.1179 C   0  0  0  0  0  0  0  0  0  0  0  0
    6.6701    0.0304    1.9611 O   0  0  0  0  0  0  0  0  0  0  0  0
    5.9578    0.3326    0.8327 C   0  0  0  0  0  0  0  0  0  0  0  0
    6.7357    0.7188   -0.2589 C   0  0  0  0  0  0  0  0  0  0  0  0
    6.1344    1.0512   -1.4710 C   0  0  0  0  0  0  0  0  0  0  0  0
    4.7452    0.9993   -1.6009 C   0  0  0  0  0  0  0  0  0  0  0  0
    3.9509    0.6151   -0.5202 C   0  0  0  0  0  0  0  0  0  0  0  0
    2.5445    0.5291   -0.5706 N   0  0  0  0  0  0  0  0  0  0  0  0
    1.7024    0.8613   -1.6181 C   0  0  0  0  0  0  0  0  0  0  0  0
    2.0546    1.2888   -2.7156 O   0  0  0  0  0  0  0  0  0  0  0  0
    0.2321    0.5597   -1.3575 C   0  0  0  0  0  0  0  0  0  0  0  0
   -0.2540    0.9261    0.3528 S   0  0  0  0  0  0  0  0  0  0  0  0
   -1.9251    0.4306    0.3398 C   0  0  0  0  0  0  0  0  0  0  0  0
   -2.6858    0.4778    1.4658 N   0  0  0  0  0  0  0  0  0  0  0  0
   -3.8577    0.0373    1.0665 C   0  0  0  0  0  0  0  0  0  0  0  0
   -5.0080   -0.1243    1.7833 N   0  0  0  0  0  0  0  0  0  0  0  0
   -6.0363   -0.5881    1.1367 C   0  0  0  0  0  0  0  0  0  0  0  0
   -7.3263   -0.7691    1.8977 C   0  0  0  0  0  0  0  0  0  0  0  0
   -6.0498   -0.9442   -0.3196 C   0  0  0  0  0  0  0  0  0  0  0  0
   -4.8968   -0.7698   -0.9901 C   0  0  0  0  0  0  0  0  0  0  0  0
   -4.7432   -1.0786   -2.4468 C   0  0  0  0  0  0  0  0  0  0  0  0
   -3.7860   -0.2758   -0.2967 N   0  0  0  0  0  0  0  0  0  0  0  0
   -2.5346   -0.0266   -0.7527 N   0  0  0  0  0  0  0  0  0  0  0  0
    4.5675    0.2808    0.6971 C   0  0  0  0  0  0  0  0  0  0  0  0
    6.6398   -0.5255    3.9255 H   0  0  0  0  0  0  0  0  0  0  0  0
    5.3583   -1.2520    2.9486 H   0  0  0  0  0  0  0  0  0  0  0  0
    5.2731    0.4851    3.4393 H   0  0  0  0  0  0  0  0  0  0  0  0
    7.8178    0.7608   -0.1637 H   0  0  0  0  0  0  0  0  0  0  0  0
    6.7461    1.3504   -2.3179 H   0  0  0  0  0  0  0  0  0  0  0  0
    4.3164    1.2632   -2.5626 H   0  0  0  0  0  0  0  0  0  0  0  0
    2.0792    0.2524    0.2878 H   0  0  0  0  0  0  0  0  0  0  0  0
    0.0662   -0.4984   -1.5852 H   0  0  0  0  0  0  0  0  0  0  0  0
   -0.3645    1.1762   -2.0379 H   0  0  0  0  0  0  0  0  0  0  0  0
   -8.0420   -1.3727    1.3333 H   0  0  0  0  0  0  0  0  0  0  0  0
   -7.1227   -1.2671    2.8500 H   0  0  0  0  0  0  0  0  0  0  0  0
   -7.7647    0.2137    2.0952 H   0  0  0  0  0  0  0  0  0  0  0  0
   -6.9604   -1.3177   -0.7696 H   0  0  0  0  0  0  0  0  0  0  0  0
   -3.9714   -1.8403   -2.6005 H   0  0  0  0  0  0  0  0  0  0  0  0
   -5.6741   -1.4596   -2.8809 H   0  0  0  0  0  0  0  0  0  0  0  0
   -4.4625   -0.1791   -3.0044 H   0  0  0  0  0  0  0  0  0  0  0  0
    3.9464   -0.0198    1.5337 H   0  0  0  0  0  0  0  0  0  0  0  0
  1  2  1  0
  2  3  1  0
  3  4  2  0
  4  5  1  0
  5  6  2  0
  6  7  1  0
  7  8  1  0
  8  9  1  0
  9 10  2  0
  9 11  1  0
 11 12  1  0
 12 13  1  0
 13 14  1  0
 14 15  2  0
 15 16  1  0
 16 17  2  0
 17 18  1  0
 17 19  1  0
 19 20  2  0
 20 21  1  0
 20 22  1  0
 22 23  1  0
  7 24  2  0
 24  3  1  0
 23 13  2  0
 22 15  1  0
  1 25  1  0
  1 26  1  0
  1 27  1  0
  4 28  1  0
  5 29  1  0
  6 30  1  0
  8 31  1  0
 11 32  1  0
 11 33  1  0
 18 34  1  0
 18 35  1  0
 18 36  1  0
 19 37  1  0
 21 38  1  0
 21 39  1  0
 21 40  1  0
 24 41  1  0
M  END
$$$$
