
     RDKit          3D

 24 24  0  0  0  0  0  0  0  0999 V2000
   -1.6847   -2.5182   -0.5873 N   0  0  0  0  0  0  0  0  0  0  0  0
   -0.7749   -1.5360   -0.1734 C   0  0  0  0  0  0  0  0  0  0  0  0
    0.5237   -1.9512    0.1658 C   0  0  0  0  0  0  0  0  0  0  0  0
    1.5449   -1.0360    0.4651 C   0  0  0  0  0  0  0  0  0  0  0  0
    3.0737   -1.7030    0.9130 Cl  0  0  0  0  0  0  0  0  0  0  0  0
    1.2792    0.3292    0.3924 C   0  0  0  0  0  0  0  0  0  0  0  0
    2.5189    1.5382    0.7313 S   0  0  0  0  0  6  0  0  0  0  0  0
    2.8812    1.2724    2.3473 N   0  0  0  0  0  0  0  0  0  0  0  0
    3.7043    1.2392   -0.0337 O   0  0  0  0  0  0  0  0  0  0  0  0
    1.9088    2.8486    0.7024 O   0  0  0  0  0  0  0  0  0  0  0  0
    0.0057    0.7707    0.0091 C   0  0  0  0  0  0  0  0  0  0  0  0
   -1.0041   -0.1580   -0.2951 C   0  0  0  0  0  0  0  0  0  0  0  0
   -2.5908    0.4942   -0.7489 S   0  0  0  0  0  6  0  0  0  0  0  0
   -2.3748    0.8557   -2.3721 N   0  0  0  0  0  0  0  0  0  0  0  0
   -2.7807    1.7586   -0.0771 O   0  0  0  0  0  0  0  0  0  0  0  0
   -3.5848   -0.5551   -0.6940 O   0  0  0  0  0  0  0  0  0  0  0  0
   -2.6674   -2.2213   -0.5679 H   0  0  0  0  0  0  0  0  0  0  0  0
   -1.5650   -3.4312   -0.1579 H   0  0  0  0  0  0  0  0  0  0  0  0
    0.7474   -3.0170    0.1945 H   0  0  0  0  0  0  0  0  0  0  0  0
    2.6703    2.1085    2.8937 H   0  0  0  0  0  0  0  0  0  0  0  0
    3.8468    0.9521    2.4394 H   0  0  0  0  0  0  0  0  0  0  0  0
   -0.2045    1.8377   -0.0649 H   0  0  0  0  0  0  0  0  0  0  0  0
   -2.9749    0.2659   -2.9495 H   0  0  0  0  0  0  0  0  0  0  0  0
   -2.4984    1.8560   -2.5322 H   0  0  0  0  0  0  0  0  0  0  0  0
  1  2  1  0
  2  3  2  0
  3  4  1  0
  4  5  1  0
  4  6  2  0
  6  7  1  0
  7  8  1  0
  7  9  2  0
  7 10  2  0
  6 11  1  0
 11 12  2  0
 12 13  1  0
 13 14  1  0
 13 15  2  0
 13 16  2  0
 12  2  1  0
  1 17  1  0
  1 18  1  0
  3 19  1  0
  8 20  1  0
  8 21  1  0
 11 22  1  0
 14 23  1  0
 14 24  1  0
M  END
$$$$
