
     RDKit          3D

 52 55  0  0  0  0  0  0  0  0999 V2000
    7.8314   -3.0836   -0.7201 C   0  0  0  0  0  0  0  0  0  0  0  0
    6.6391   -2.5495   -0.0080 C   0  0  0  0  0  0  0  0  0  0  0  0
    6.5696   -2.3681    1.2917 N   0  0  0  0  0  0  0  0  0  0  0  0
    5.3202   -1.8766    1.6405 C   0  0  0  0  0  0  0  0  0  0  0  0
    5.0273   -1.6497    3.0813 C   0  0  0  0  0  0  0  0  0  0  0  0
    4.4696   -1.6378    0.5729 C   0  0  0  0  0  0  0  0  0  0  0  0
    3.0998   -1.1672    0.6150 C   0  0  0  0  0  0  0  0  0  0  0  0
    2.3020   -1.5760    1.4595 O   0  0  0  0  0  0  0  0  0  0  0  0
    2.6838   -0.2154   -0.3175 N   0  0  0  0  0  0  0  0  0  0  0  0
    3.5812    0.7574   -0.9541 C   0  0  0  0  0  0  0  0  0  0  0  0
    2.7372    2.0127   -1.1220 C   0  0  0  0  0  0  0  0  0  0  0  0
    2.8295    2.7963   -0.0234 F   0  0  0  0  0  0  0  0  0  0  0  0
    3.1119    2.7433   -2.1873 F   0  0  0  0  0  0  0  0  0  0  0  0
    1.3291    1.4817   -1.2697 C   0  0  0  0  0  0  0  0  0  0  0  0
    1.3091    0.3146   -0.2727 C   0  0  1  0  0  0  0  0  0  0  0  0
    0.2379   -0.7320   -0.6103 C   0  0  0  0  0  0  0  0  0  0  0  0
   -1.1029   -0.2185   -0.4400 N   0  0  0  0  0  0  0  0  0  0  0  0
   -1.8900   -0.2804    0.6651 C   0  0  0  0  0  0  0  0  0  0  0  0
   -3.0539    0.3710    0.2974 C   0  0  0  0  0  0  0  0  0  0  0  0
   -4.2074    0.6113    1.1678 C   0  0  0  0  0  0  0  0  0  0  0  0
   -4.0805    0.4792    2.3873 O   0  0  0  0  0  0  0  0  0  0  0  0
   -5.4418    0.9861    0.6171 N   0  0  0  0  0  0  0  0  0  0  0  0
   -5.6859    1.2273   -0.8101 C   0  0  0  0  0  0  0  0  0  0  0  0
   -7.1726    1.1367   -1.1745 C   0  0  0  0  0  0  0  0  0  0  0  0
   -7.9816    1.9397   -0.3077 O   0  0  0  0  0  0  0  0  0  0  0  0
   -7.8433    1.4877    1.0453 C   0  0  0  0  0  0  0  0  0  0  0  0
   -6.3982    1.6303    1.5218 C   0  0  0  0  0  0  0  0  0  0  0  0
   -2.9023    0.8138   -0.9968 N   0  0  0  0  0  0  0  0  0  0  0  0
   -1.7156    0.4275   -1.4438 N   0  0  0  0  0  0  0  0  0  0  0  0
    5.2245   -2.1351   -0.8849 S   0  0  0  0  0  0  0  0  0  0  0  0
    8.6442   -3.2773   -0.0129 H   0  0  0  0  0  0  0  0  0  0  0  0
    7.5930   -4.0248   -1.2257 H   0  0  0  0  0  0  0  0  0  0  0  0
    8.1953   -2.3666   -1.4629 H   0  0  0  0  0  0  0  0  0  0  0  0
    4.3136   -2.3946    3.4461 H   0  0  0  0  0  0  0  0  0  0  0  0
    4.6061   -0.6520    3.2397 H   0  0  0  0  0  0  0  0  0  0  0  0
    5.9390   -1.7291    3.6817 H   0  0  0  0  0  0  0  0  0  0  0  0
    3.8790    0.3595   -1.9288 H   0  0  0  0  0  0  0  0  0  0  0  0
    4.4630    0.9444   -0.3351 H   0  0  0  0  0  0  0  0  0  0  0  0
    1.1654    1.1395   -2.2985 H   0  0  0  0  0  0  0  0  0  0  0  0
    0.5761    2.2381   -1.0299 H   0  0  0  0  0  0  0  0  0  0  0  0
    1.1477    0.7051    0.7417 H   0  0  0  0  0  0  0  0  0  0  0  0
    0.3365   -1.0823   -1.6451 H   0  0  0  0  0  0  0  0  0  0  0  0
    0.3169   -1.6185    0.0269 H   0  0  0  0  0  0  0  0  0  0  0  0
   -1.5848   -0.7492    1.5902 H   0  0  0  0  0  0  0  0  0  0  0  0
   -5.3064    2.2317   -1.0300 H   0  0  0  0  0  0  0  0  0  0  0  0
   -5.1493    0.4964   -1.4183 H   0  0  0  0  0  0  0  0  0  0  0  0
   -7.5221    0.0982   -1.1242 H   0  0  0  0  0  0  0  0  0  0  0  0
   -7.3264    1.4868   -2.2001 H   0  0  0  0  0  0  0  0  0  0  0  0
   -8.1810    0.4467    1.1134 H   0  0  0  0  0  0  0  0  0  0  0  0
   -8.5051    2.0947    1.6709 H   0  0  0  0  0  0  0  0  0  0  0  0
   -6.1228    2.6919    1.5496 H   0  0  0  0  0  0  0  0  0  0  0  0
   -6.3050    1.2349    2.5383 H   0  0  0  0  0  0  0  0  0  0  0  0
  1  2  1  0
  2  3  2  0
  3  4  1  0
  4  5  1  0
  4  6  2  0
  6  7  1  0
  7  8  2  0
  7  9  1  0
  9 10  1  0
 10 11  1  0
 11 12  1  0
 11 13  1  0
 11 14  1  0
 14 15  1  0
 15 16  1  0
 16 17  1  0
 17 18  1  0
 18 19  2  0
 19 20  1  0
 20 21  2  0
 20 22  1  0
 22 23  1  0
 23 24  1  0
 24 25  1  0
 25 26  1  0
 26 27  1  0
 19 28  1  0
 28 29  2  0
  6 30  1  0
 30  2  1  0
 15  9  1  0
 29 17  1  0
 27 22  1  0
  1 31  1  0
  1 32  1  0
  1 33  1  0
  5 34  1  0
  5 35  1  0
  5 36  1  0
 10 37  1  0
 10 38  1  0
 14 39  1  0
 14 40  1  0
 15 41  1  1
 16 42  1  0
 16 43  1  0
 18 44  1  0
 23 45  1  0
 23 46  1  0
 24 47  1  0
 24 48  1  0
 26 49  1  0
 26 50  1  0
 27 51  1  0
 27 52  1  0
M  END
$$$$
