
     RDKit          3D

 22 22  0  0  0  0  0  0  0  0999 V2000
    4.6173    0.0656    0.6464 N   0  0  0  0  0  0  0  0  0  0  0  0
    3.3428   -0.0368    0.1565 C   0  0  0  0  0  0  0  0  0  0  0  0
    3.0014    0.6334   -1.3305 S   0  0  0  0  0  0  0  0  0  0  0  0
    2.5075   -0.7133    1.0340 N   0  0  0  0  0  0  0  0  0  0  0  0
    1.2166   -1.0785    0.7404 N   0  0  0  0  0  0  0  0  0  0  0  0
    0.3846   -0.1010    0.5401 C   0  0  0  0  0  0  0  0  0  0  0  0
   -1.0296   -0.3085    0.1575 C   0  0  0  0  0  0  0  0  0  0  0  0
   -1.5779   -1.4884    0.5564 N   0  0  0  0  0  0  0  0  0  0  0  0
   -2.8874   -1.6641    0.2985 C   0  0  0  0  0  0  0  0  0  0  0  0
   -3.6795   -0.7130   -0.3199 C   0  0  0  0  0  0  0  0  0  0  0  0
   -3.0883    0.4830   -0.7260 C   0  0  0  0  0  0  0  0  0  0  0  0
   -1.7178    0.6941   -0.5474 C   0  0  0  0  0  0  0  0  0  0  0  0
   -1.1732    1.9444   -0.8979 N   0  0  0  0  0  0  0  0  0  0  0  0
    5.2515    0.6515    0.1150 H   0  0  0  0  0  0  0  0  0  0  0  0
    4.7530    0.0694    1.6487 H   0  0  0  0  0  0  0  0  0  0  0  0
    2.9922   -1.4552    1.5321 H   0  0  0  0  0  0  0  0  0  0  0  0
    0.7063    0.9489    0.6514 H   0  0  0  0  0  0  0  0  0  0  0  0
   -3.3012   -2.6137    0.6259 H   0  0  0  0  0  0  0  0  0  0  0  0
   -4.7369   -0.8942   -0.4788 H   0  0  0  0  0  0  0  0  0  0  0  0
   -3.7067    1.2442   -1.1943 H   0  0  0  0  0  0  0  0  0  0  0  0
   -1.6938    2.4235   -1.6280 H   0  0  0  0  0  0  0  0  0  0  0  0
   -0.1811    1.9087   -1.1318 H   0  0  0  0  0  0  0  0  0  0  0  0
  1  2  1  0
  2  3  2  0
  2  4  1  0
  4  5  1  0
  5  6  2  0
  6  7  1  0
  7  8  2  0
  8  9  1  0
  9 10  2  0
 10 11  1  0
 11 12  2  0
 12 13  1  0
 12  7  1  0
  1 14  1  0
  1 15  1  0
  4 16  1  0
  6 17  1  0
  9 18  1  0
 10 19  1  0
 11 20  1  0
 13 21  1  0
 13 22  1  0
M  END
$$$$
