
     RDKit          3D

 15 15  0  0  0  0  0  0  0  0999 V2000
    2.7490    0.1985    0.0717 O   0  0  0  0  0  0  0  0  0  0  0  0
    1.5307    0.1860    0.0273 C   0  0  0  0  0  0  0  0  0  0  0  0
    0.8992    1.5448   -0.2243 C   0  0  0  0  0  0  0  0  0  0  0  0
   -0.4083    1.7934   -0.3159 C   0  0  0  0  0  0  0  0  0  0  0  0
   -1.4293    0.9366   -0.2115 C   0  0  0  0  0  0  0  0  0  0  0  0
   -1.4743   -0.3834    0.0078 C   0  0  0  0  0  0  0  0  0  0  0  0
   -0.5210   -1.3038    0.1984 C   0  0  0  0  0  0  0  0  0  0  0  0
    0.8102   -1.1605    0.2253 C   0  0  0  0  0  0  0  0  0  0  0  0
    1.6344   -2.2606    0.4411 O   0  0  0  0  0  0  0  0  0  0  0  0
    1.5965    2.3701   -0.3358 H   0  0  0  0  0  0  0  0  0  0  0  0
   -0.6758    2.8361   -0.5008 H   0  0  0  0  0  0  0  0  0  0  0  0
   -2.4129    1.4041   -0.3274 H   0  0  0  0  0  0  0  0  0  0  0  0
   -2.4914   -0.7890    0.0369 H   0  0  0  0  0  0  0  0  0  0  0  0
   -0.9005   -2.3149    0.3533 H   0  0  0  0  0  0  0  0  0  0  0  0
    1.0936   -3.0573    0.5539 H   0  0  0  0  0  0  0  0  0  0  0  0
  1  2  2  0
  2  3  1  0
  3  4  2  0
  4  5  1  0
  5  6  2  0
  6  7  1  0
  7  8  2  0
  8  9  1  0
  8  2  1  0
  3 10  1  0
  4 11  1  0
  5 12  1  0
  6 13  1  0
  7 14  1  0
  9 15  1  0
M  END
$$$$
