
     RDKit          3D

 47 48  0  0  0  0  0  0  0  0999 V2000
   -4.4461    0.8682   -3.1769 C   0  0  0  0  0  0  0  0  0  0  0  0
   -3.0483    0.6838   -2.9471 O   0  0  0  0  0  0  0  0  0  0  0  0
   -2.5234    1.5279   -2.0289 C   0  0  0  0  0  0  0  0  0  0  0  0
   -3.1304    2.3647   -1.3801 O   0  0  0  0  0  0  0  0  0  0  0  0
   -1.0884    1.2480   -1.8381 C   0  0  0  0  0  0  0  0  0  0  0  0
   -0.2159    1.1397   -2.8580 C   0  0  0  0  0  0  0  0  0  0  0  0
   -0.5689    1.2764   -4.2374 C   0  0  0  0  0  0  0  0  0  0  0  0
   -0.8110    1.3992   -5.3656 N   0  0  0  0  0  0  0  0  0  0  0  0
    1.1351    0.9384   -2.6199 N   0  0  0  0  0  0  0  0  0  0  0  0
    1.7030    0.9537   -1.3535 C   0  0  0  0  0  0  0  0  0  0  0  0
    3.2084    0.8996   -1.3032 C   0  0  0  0  0  0  0  0  0  0  0  0
    0.8993    1.0559   -0.2700 C   0  0  0  0  0  0  0  0  0  0  0  0
    1.4063    1.0989    1.1170 C   0  0  0  0  0  0  0  0  0  0  0  0
    1.1094    1.9749    1.9124 O   0  0  0  0  0  0  0  0  0  0  0  0
    2.1510   -0.0065    1.3617 O   0  0  0  0  0  0  0  0  0  0  0  0
    2.6363   -0.1550    2.7083 C   0  0  0  0  0  0  0  0  0  0  0  0
    3.9451    0.6100    2.8639 C   0  0  0  0  0  0  0  0  0  0  0  0
    2.8470   -1.6452    2.9453 C   0  0  0  0  0  0  0  0  0  0  0  0
   -0.6181    1.1626   -0.3940 C   0  0  0  0  0  0  0  0  0  0  0  0
   -1.3106    0.0039    0.3339 C   0  0  0  0  0  0  0  0  0  0  0  0
   -2.2262    0.2746    1.3646 C   0  0  0  0  0  0  0  0  0  0  0  0
   -2.8675   -0.7634    2.0450 C   0  0  0  0  0  0  0  0  0  0  0  0
   -2.6055   -2.0909    1.7083 C   0  0  0  0  0  0  0  0  0  0  0  0
   -1.6972   -2.3733    0.6815 C   0  0  0  0  0  0  0  0  0  0  0  0
   -1.4136   -3.7693    0.3252 N   0  0  0  0  0  4  0  0  0  0  0  0
   -0.6083   -3.9772   -0.5938 O   0  0  0  0  0  0  0  0  0  0  0  0
   -1.9942   -4.6579    0.9648 O   0  0  0  0  0  1  0  0  0  0  0  0
   -1.0524   -1.3362   -0.0087 C   0  0  0  0  0  0  0  0  0  0  0  0
   -5.0131    0.6605   -2.2640 H   0  0  0  0  0  0  0  0  0  0  0  0
   -4.7589    0.1596   -3.9487 H   0  0  0  0  0  0  0  0  0  0  0  0
   -4.6457    1.8827   -3.5357 H   0  0  0  0  0  0  0  0  0  0  0  0
    1.7624    0.9415   -3.4236 H   0  0  0  0  0  0  0  0  0  0  0  0
    3.5538   -0.1235   -1.4832 H   0  0  0  0  0  0  0  0  0  0  0  0
    3.6181    1.2430   -0.3494 H   0  0  0  0  0  0  0  0  0  0  0  0
    3.6381    1.5471   -2.0759 H   0  0  0  0  0  0  0  0  0  0  0  0
    1.8929    0.2092    3.4279 H   0  0  0  0  0  0  0  0  0  0  0  0
    4.3639    0.4790    3.8663 H   0  0  0  0  0  0  0  0  0  0  0  0
    4.6840    0.2756    2.1273 H   0  0  0  0  0  0  0  0  0  0  0  0
    3.7930    1.6804    2.6909 H   0  0  0  0  0  0  0  0  0  0  0  0
    1.9053   -2.1883    2.8088 H   0  0  0  0  0  0  0  0  0  0  0  0
    3.2182   -1.8392    3.9562 H   0  0  0  0  0  0  0  0  0  0  0  0
    3.5574   -2.0624    2.2230 H   0  0  0  0  0  0  0  0  0  0  0  0
   -0.9032    2.1080    0.0907 H   0  0  0  0  0  0  0  0  0  0  0  0
   -2.4489    1.3040    1.6470 H   0  0  0  0  0  0  0  0  0  0  0  0
   -3.5731   -0.5328    2.8408 H   0  0  0  0  0  0  0  0  0  0  0  0
   -3.1132   -2.8857    2.2511 H   0  0  0  0  0  0  0  0  0  0  0  0
   -0.3459   -1.5641   -0.8061 H   0  0  0  0  0  0  0  0  0  0  0  0
  1  2  1  0
  2  3  1  0
  3  4  2  0
  3  5  1  0
  5  6  2  0
  6  7  1  0
  7  8  3  0
  6  9  1  0
  9 10  1  0
 10 11  1  0
 10 12  2  0
 12 13  1  0
 13 14  2  0
 13 15  1  0
 15 16  1  0
 16 17  1  0
 16 18  1  0
 12 19  1  0
 19 20  1  0
 20 21  2  0
 21 22  1  0
 22 23  2  0
 23 24  1  0
 24 25  1  0
 25 26  2  0
 25 27  1  0
 24 28  2  0
 19  5  1  0
 28 20  1  0
  1 29  1  0
  1 30  1  0
  1 31  1  0
  9 32  1  0
 11 33  1  0
 11 34  1  0
 11 35  1  0
 16 36  1  0
 17 37  1  0
 17 38  1  0
 17 39  1  0
 18 40  1  0
 18 41  1  0
 18 42  1  0
 19 43  1  0
 21 44  1  0
 22 45  1  0
 23 46  1  0
 28 47  1  0
M  CHG  2  25   1  27  -1
M  END
$$$$
