
     RDKit          3D

 55 57  0  0  0  0  0  0  0  0999 V2000
    1.9552    1.5797    1.1498 C   0  0  0  0  0  0  0  0  0  0  0  0
    0.5784    1.8093    1.1962 C   0  0  0  0  0  0  0  0  0  0  0  0
   -0.1574    1.9689    0.0204 C   0  0  0  0  0  0  0  0  0  0  0  0
   -1.4939    2.1890    0.2085 O   0  0  0  0  0  0  0  0  0  0  0  0
   -2.3114    2.2733   -0.9611 C   0  0  0  0  0  0  0  0  0  0  0  0
   -3.7676    2.4328   -0.5286 C   0  0  0  0  0  0  0  0  0  0  0  0
   -4.3102    1.2298    0.2516 C   0  0  0  0  0  0  0  0  0  0  0  0
   -4.3760    0.0442   -0.6164 N   0  0  0  0  0  0  0  0  0  0  0  0
   -3.5043   -1.0463   -0.1510 C   0  0  0  0  0  0  0  0  0  0  0  0
   -4.0348   -1.7821    1.0837 C   0  0  0  0  0  0  0  0  0  0  0  0
   -5.4594   -2.2800    0.8614 C   0  0  0  0  0  0  0  0  0  0  0  0
   -6.3584   -1.1459    0.3793 C   0  0  0  0  0  0  0  0  0  0  0  0
   -5.7501   -0.4326   -0.8329 C   0  0  0  0  0  0  0  0  0  0  0  0
    0.4997    1.9014   -1.2076 C   0  0  0  0  0  0  0  0  0  0  0  0
    1.8798    1.6708   -1.2576 C   0  0  0  0  0  0  0  0  0  0  0  0
    2.6211    1.5049   -0.0803 C   0  0  0  0  0  0  0  0  0  0  0  0
    4.1165    1.2686   -0.1324 C   0  0  0  0  0  0  0  0  0  0  0  0
    4.5375    0.0019    0.4889 N   0  0  0  0  0  0  0  0  0  0  0  0
    3.9626   -1.1625   -0.2069 C   0  0  0  0  0  0  0  0  0  0  0  0
    4.7301   -2.4501    0.0868 C   0  0  0  0  0  0  0  0  0  0  0  0
    6.1742   -2.3584   -0.4024 C   0  0  0  0  0  0  0  0  0  0  0  0
    6.6875   -0.9197   -0.4235 C   0  0  0  0  0  0  0  0  0  0  0  0
    5.9987   -0.0676    0.6398 C   0  0  0  0  0  0  0  0  0  0  0  0
    2.5101    1.4506    2.0772 H   0  0  0  0  0  0  0  0  0  0  0  0
    0.0750    1.8624    2.1585 H   0  0  0  0  0  0  0  0  0  0  0  0
   -2.0232    3.1570   -1.5437 H   0  0  0  0  0  0  0  0  0  0  0  0
   -2.1957    1.3772   -1.5822 H   0  0  0  0  0  0  0  0  0  0  0  0
   -3.8487    3.3144    0.1188 H   0  0  0  0  0  0  0  0  0  0  0  0
   -4.3928    2.6199   -1.4094 H   0  0  0  0  0  0  0  0  0  0  0  0
   -5.3022    1.5018    0.6336 H   0  0  0  0  0  0  0  0  0  0  0  0
   -3.6909    1.0612    1.1413 H   0  0  0  0  0  0  0  0  0  0  0  0
   -2.4926   -0.6699    0.0466 H   0  0  0  0  0  0  0  0  0  0  0  0
   -3.3900   -1.7668   -0.9716 H   0  0  0  0  0  0  0  0  0  0  0  0
   -3.3805   -2.6310    1.3135 H   0  0  0  0  0  0  0  0  0  0  0  0
   -4.0114   -1.1201    1.9577 H   0  0  0  0  0  0  0  0  0  0  0  0
   -5.8581   -2.7088    1.7881 H   0  0  0  0  0  0  0  0  0  0  0  0
   -5.4525   -3.0821    0.1130 H   0  0  0  0  0  0  0  0  0  0  0  0
   -7.3441   -1.5462    0.1135 H   0  0  0  0  0  0  0  0  0  0  0  0
   -6.5177   -0.4340    1.1980 H   0  0  0  0  0  0  0  0  0  0  0  0
   -6.3956    0.3997   -1.1407 H   0  0  0  0  0  0  0  0  0  0  0  0
   -5.7433   -1.1247   -1.6852 H   0  0  0  0  0  0  0  0  0  0  0  0
   -0.0301    2.0270   -2.1450 H   0  0  0  0  0  0  0  0  0  0  0  0
    2.3711    1.6221   -2.2262 H   0  0  0  0  0  0  0  0  0  0  0  0
    4.5759    2.1143    0.3972 H   0  0  0  0  0  0  0  0  0  0  0  0
    4.4765    1.3237   -1.1685 H   0  0  0  0  0  0  0  0  0  0  0  0
    2.9221   -1.2968    0.1099 H   0  0  0  0  0  0  0  0  0  0  0  0
    3.9544   -1.0084   -1.2945 H   0  0  0  0  0  0  0  0  0  0  0  0
    4.2338   -3.3055   -0.3857 H   0  0  0  0  0  0  0  0  0  0  0  0
    4.7195   -2.6429    1.1673 H   0  0  0  0  0  0  0  0  0  0  0  0
    6.8085   -2.9757    0.2445 H   0  0  0  0  0  0  0  0  0  0  0  0
    6.2585   -2.7809   -1.4109 H   0  0  0  0  0  0  0  0  0  0  0  0
    6.5119   -0.4811   -1.4140 H   0  0  0  0  0  0  0  0  0  0  0  0
    7.7724   -0.9143   -0.2696 H   0  0  0  0  0  0  0  0  0  0  0  0
    6.4525    0.9306    0.6623 H   0  0  0  0  0  0  0  0  0  0  0  0
    6.2091   -0.5022    1.6255 H   0  0  0  0  0  0  0  0  0  0  0  0
  1  2  2  0
  2  3  1  0
  3  4  1  0
  4  5  1  0
  5  6  1  0
  6  7  1  0
  7  8  1  0
  8  9  1  0
  9 10  1  0
 10 11  1  0
 11 12  1  0
 12 13  1  0
  3 14  2  0
 14 15  1  0
 15 16  2  0
 16 17  1  0
 17 18  1  0
 18 19  1  0
 19 20  1  0
 20 21  1  0
 21 22  1  0
 22 23  1  0
 16  1  1  0
 23 18  1  0
 13  8  1  0
  1 24  1  0
  2 25  1  0
  5 26  1  0
  5 27  1  0
  6 28  1  0
  6 29  1  0
  7 30  1  0
  7 31  1  0
  9 32  1  0
  9 33  1  0
 10 34  1  0
 10 35  1  0
 11 36  1  0
 11 37  1  0
 12 38  1  0
 12 39  1  0
 13 40  1  0
 13 41  1  0
 14 42  1  0
 15 43  1  0
 17 44  1  0
 17 45  1  0
 19 46  1  0
 19 47  1  0
 20 48  1  0
 20 49  1  0
 21 50  1  0
 21 51  1  0
 22 52  1  0
 22 53  1  0
 23 54  1  0
 23 55  1  0
M  END
$$$$
