
     RDKit          3D

 45 47  0  0  0  0  0  0  0  0999 V2000
    0.7652    0.0000    0.0000 Br  0  0  0  0  0  0  0  0  0  0  0  0
    3.7248    0.7961    1.5987 C   0  0  0  0  0  0  0  0  0  0  0  0
    3.6592    0.6410    0.2271 N   0  0  0  0  0  0  0  0  0  0  0  0
    3.5012   -0.6492   -0.3327 C   0  0  1  0  0  0  0  0  0  0  0  0
    2.1175   -1.2159   -0.2611 C   0  0  0  0  0  0  0  0  0  0  0  0
    1.1882   -0.2781    0.4175 C   0  0  2  0  0  0  0  0  0  0  0  0
   -0.1650   -0.6041    0.3259 O   0  0  0  0  0  0  0  0  0  0  0  0
   -1.0032   -0.8825    1.3720 C   0  0  0  0  0  0  0  0  0  0  0  0
   -0.5441   -0.8497    2.5268 O   0  0  0  0  0  0  0  0  0  0  0  0
   -2.4221   -1.2086    1.0477 C   0  0  2  0  0  0  0  0  0  0  0  0
   -2.5248   -2.4932    0.2558 C   0  0  0  0  0  0  0  0  0  0  0  0
   -1.8362   -2.4295   -0.9509 O   0  0  0  0  0  0  0  0  0  0  0  0
   -3.0694   -0.0789    0.3397 C   0  0  0  0  0  0  0  0  0  0  0  0
   -2.6119    0.3717   -0.8930 C   0  0  0  0  0  0  0  0  0  0  0  0
   -3.2222    1.4134   -1.5324 C   0  0  0  0  0  0  0  0  0  0  0  0
   -4.3069    2.0197   -0.9378 C   0  0  0  0  0  0  0  0  0  0  0  0
   -4.7836    1.5961    0.2829 C   0  0  0  0  0  0  0  0  0  0  0  0
   -4.1547    0.5489    0.9052 C   0  0  0  0  0  0  0  0  0  0  0  0
    1.3535    1.1104   -0.1601 C   0  0  0  0  0  0  0  0  0  0  0  0
    2.7539    1.4543   -0.5185 C   0  0  2  0  0  0  0  0  0  0  0  0
    3.1096    1.0212   -1.9418 C   0  0  1  0  0  0  0  0  0  0  0  0
    4.4539    0.8169   -2.1288 O   0  0  0  0  0  0  0  0  0  0  0  0
    3.7691   -0.3359   -1.8135 C   0  0  1  0  0  0  0  0  0  0  0  0
   -0.7652    0.0000    0.0000 H   0  0  0  0  0  0  0  0  0  0  0  0
    2.9634    1.4787    2.0699 H   0  0  0  0  0  0  0  0  0  0  0  0
    3.7584   -0.1932    2.1339 H   0  0  0  0  0  0  0  0  0  0  0  0
    4.7121    1.2767    1.8733 H   0  0  0  0  0  0  0  0  0  0  0  0
    4.2853   -1.3342    0.0253 H   0  0  0  0  0  0  0  0  0  0  0  0
    1.6853   -1.4430   -1.2766 H   0  0  0  0  0  0  0  0  0  0  0  0
    2.1944   -2.1950    0.2800 H   0  0  0  0  0  0  0  0  0  0  0  0
    1.4415   -0.2922    1.5177 H   0  0  0  0  0  0  0  0  0  0  0  0
   -2.9345   -1.3335    2.0236 H   0  0  0  0  0  0  0  0  0  0  0  0
   -3.6151   -2.5783   -0.0298 H   0  0  0  0  0  0  0  0  0  0  0  0
   -2.3035   -3.3795    0.8483 H   0  0  0  0  0  0  0  0  0  0  0  0
   -2.2179   -3.1521   -1.5434 H   0  0  0  0  0  0  0  0  0  0  0  0
   -1.7585   -0.1344   -1.3174 H   0  0  0  0  0  0  0  0  0  0  0  0
   -2.8372    1.7439   -2.5022 H   0  0  0  0  0  0  0  0  0  0  0  0
   -4.7808    2.8579   -1.4750 H   0  0  0  0  0  0  0  0  0  0  0  0
   -5.6368    2.1173    0.6891 H   0  0  0  0  0  0  0  0  0  0  0  0
   -4.5355    0.2183    1.8696 H   0  0  0  0  0  0  0  0  0  0  0  0
    0.7334    1.1710   -1.0908 H   0  0  0  0  0  0  0  0  0  0  0  0
    0.8964    1.8275    0.5562 H   0  0  0  0  0  0  0  0  0  0  0  0
    2.9676    2.5282   -0.3764 H   0  0  0  0  0  0  0  0  0  0  0  0
    2.4076    1.1636   -2.7478 H   0  0  0  0  0  0  0  0  0  0  0  0
    3.5873   -1.1117   -2.5542 H   0  0  0  0  0  0  0  0  0  0  0  0
  2  3  1  0
  3  4  1  0
  4  5  1  0
  5  6  1  0
  6  7  1  0
  7  8  1  0
  8  9  2  0
  8 10  1  0
 10 11  1  0
 11 12  1  0
 10 13  1  0
 13 14  2  0
 14 15  1  0
 15 16  2  0
 16 17  1  0
 17 18  2  0
  6 19  1  0
 19 20  1  0
 20 21  1  0
 21 22  1  0
 22 23  1  0
 20  3  1  0
 23 21  1  0
 23  4  1  0
 18 13  1  0
  1 24  1  0
  2 25  1  0
  2 26  1  0
  2 27  1  0
  4 28  1  1
  5 29  1  0
  5 30  1  0
  6 31  1  1
 10 32  1  1
 11 33  1  0
 11 34  1  0
 12 35  1  0
 14 36  1  0
 15 37  1  0
 16 38  1  0
 17 39  1  0
 18 40  1  0
 19 41  1  0
 19 42  1  0
 20 43  1  6
 21 44  1  6
 23 45  1  6
M  END
$$$$
