
     RDKit          3D

 66 66  0  0  0  0  0  0  0  0999 V2000
   -3.8084    2.3581   -3.2209 C   0  0  0  0  0  0  0  0  0  0  0  0
   -3.1674    1.9780   -1.8944 C   0  0  0  0  0  0  0  0  0  0  0  0
   -4.1249    1.2574   -0.9343 C   0  0  2  0  0  0  0  0  0  0  0  0
   -5.3419    2.1092   -0.5643 C   0  0  0  0  0  0  0  0  0  0  0  0
   -3.3699    0.8599    0.3248 C   0  0  0  0  0  0  0  0  0  0  0  0
   -3.4981    1.3960    1.4164 O   0  0  0  0  0  0  0  0  0  0  0  0
   -2.5473   -0.1952    0.0574 O   0  0  0  0  0  0  0  0  0  0  0  0
   -1.6873   -0.6223    1.1410 C   0  0  1  0  0  0  0  0  0  0  0  0
   -2.5252   -1.4175    2.1705 C   0  0  0  0  0  0  0  0  0  0  0  0
   -1.8710   -2.7119    2.6678 C   0  0  2  0  0  0  0  0  0  0  0  0
   -0.8049   -2.4522    3.5651 O   0  0  0  0  0  0  0  0  0  0  0  0
   -1.3481   -3.5101    1.5149 C   0  0  0  0  0  0  0  0  0  0  0  0
   -0.7701   -2.8947    0.4681 C   0  0  0  0  0  0  0  0  0  0  0  0
   -0.4597   -3.5975   -0.7542 C   0  0  0  0  0  0  0  0  0  0  0  0
   -0.3071   -2.9386   -1.9108 C   0  0  0  0  0  0  0  0  0  0  0  0
   -0.4065   -1.4330   -1.9883 C   0  0  2  0  0  0  0  0  0  0  0  0
    0.2070   -0.9167   -3.2900 C   0  0  0  0  0  0  0  0  0  0  0  0
    0.1704   -0.7658   -0.7038 C   0  0  2  0  0  0  0  0  0  0  0  0
    1.7279   -0.8506   -0.6234 C   0  0  0  0  0  0  0  0  0  0  0  0
    2.4184    0.4124   -1.1598 C   0  0  0  0  0  0  0  0  0  0  0  0
    3.9490    0.3714   -1.0406 C   0  0  1  0  0  0  0  0  0  0  0  0
    4.4803    1.5211   -1.7107 O   0  0  0  0  0  0  0  0  0  0  0  0
    4.5518    0.2580    0.3717 C   0  0  0  0  0  0  0  0  0  0  0  0
    4.2166    1.3995    1.3427 C   0  0  1  0  0  0  0  0  0  0  0  0
    2.8179    1.3688    1.6348 O   0  0  0  0  0  0  0  0  0  0  0  0
    4.9986    1.2488    2.6454 C   0  0  0  0  0  0  0  0  0  0  0  0
    4.8923    2.5622    3.4169 C   0  0  0  0  0  0  0  0  0  0  0  0
    3.7161    3.0242    3.5184 O   0  0  0  0  0  0  0  0  0  0  0  0
    5.9851    3.0223    3.8481 O   0  0  0  0  0  1  0  0  0  0  0  0
   -0.4702   -1.4061    0.5779 C   0  0  1  0  0  0  0  0  0  0  0  0
    0.0000    0.0000    0.0000 Na  0  0  0  0  0 15  0  0  0  0  0  0
   -3.0467    2.7379   -3.9106 H   0  0  0  0  0  0  0  0  0  0  0  0
   -4.2898    1.4938   -3.6879 H   0  0  0  0  0  0  0  0  0  0  0  0
   -4.5553    3.1475   -3.0886 H   0  0  0  0  0  0  0  0  0  0  0  0
   -2.3053    1.3323   -2.1014 H   0  0  0  0  0  0  0  0  0  0  0  0
   -2.7626    2.8796   -1.4168 H   0  0  0  0  0  0  0  0  0  0  0  0
   -4.4987    0.3335   -1.3977 H   0  0  0  0  0  0  0  0  0  0  0  0
   -5.0402    3.0822   -0.1609 H   0  0  0  0  0  0  0  0  0  0  0  0
   -5.9847    2.2838   -1.4324 H   0  0  0  0  0  0  0  0  0  0  0  0
   -5.9499    1.6097    0.1975 H   0  0  0  0  0  0  0  0  0  0  0  0
   -1.2806    0.2778    1.6254 H   0  0  0  0  0  0  0  0  0  0  0  0
   -2.7367   -0.7631    3.0262 H   0  0  0  0  0  0  0  0  0  0  0  0
   -3.4974   -1.6715    1.7259 H   0  0  0  0  0  0  0  0  0  0  0  0
   -2.6200   -3.2995    3.2078 H   0  0  0  0  0  0  0  0  0  0  0  0
   -1.1671   -1.8975    4.2797 H   0  0  0  0  0  0  0  0  0  0  0  0
   -1.5463   -4.5775    1.5115 H   0  0  0  0  0  0  0  0  0  0  0  0
   -0.4368   -4.6836   -0.7411 H   0  0  0  0  0  0  0  0  0  0  0  0
   -0.1635   -3.5055   -2.8250 H   0  0  0  0  0  0  0  0  0  0  0  0
   -1.4768   -1.1948   -2.0489 H   0  0  0  0  0  0  0  0  0  0  0  0
    1.2594   -1.2037   -3.3949 H   0  0  0  0  0  0  0  0  0  0  0  0
    0.1321    0.1750   -3.3463 H   0  0  0  0  0  0  0  0  0  0  0  0
   -0.3266   -1.3251   -4.1568 H   0  0  0  0  0  0  0  0  0  0  0  0
   -0.0971    0.2992   -0.7210 H   0  0  0  0  0  0  0  0  0  0  0  0
    2.0985   -1.7278   -1.1659 H   0  0  0  0  0  0  0  0  0  0  0  0
    2.0426   -0.9840    0.4157 H   0  0  0  0  0  0  0  0  0  0  0  0
    2.0229    1.3092   -0.6709 H   0  0  0  0  0  0  0  0  0  0  0  0
    2.1767    0.5546   -2.2165 H   0  0  0  0  0  0  0  0  0  0  0  0
    4.3039   -0.4929   -1.6155 H   0  0  0  0  0  0  0  0  0  0  0  0
    4.1587    2.3020   -1.2240 H   0  0  0  0  0  0  0  0  0  0  0  0
    5.6437    0.2196    0.2573 H   0  0  0  0  0  0  0  0  0  0  0  0
    4.2432   -0.6964    0.8133 H   0  0  0  0  0  0  0  0  0  0  0  0
    4.4368    2.3663    0.8759 H   0  0  0  0  0  0  0  0  0  0  0  0
    2.7165    2.0364    2.3602 H   0  0  0  0  0  0  0  0  0  0  0  0
    4.5888    0.4474    3.2722 H   0  0  0  0  0  0  0  0  0  0  0  0
    6.0547    1.0313    2.4483 H   0  0  0  0  0  0  0  0  0  0  0  0
    0.2803   -1.3312    1.3791 H   0  0  0  0  0  0  0  0  0  0  0  0
  1  2  1  0
  2  3  1  0
  3  4  1  0
  3  5  1  0
  5  6  2  0
  5  7  1  0
  7  8  1  0
  8  9  1  0
  9 10  1  0
 10 11  1  0
 10 12  1  0
 12 13  2  0
 13 14  1  0
 14 15  2  0
 15 16  1  0
 16 17  1  0
 16 18  1  0
 18 19  1  0
 19 20  1  0
 20 21  1  0
 21 22  1  0
 21 23  1  0
 23 24  1  0
 24 25  1  0
 24 26  1  0
 26 27  1  0
 27 28  2  0
 27 29  1  0
 18 30  1  0
 30  8  1  0
 30 13  1  0
  1 32  1  0
  1 33  1  0
  1 34  1  0
  2 35  1  0
  2 36  1  0
  3 37  1  6
  4 38  1  0
  4 39  1  0
  4 40  1  0
  8 41  1  1
  9 42  1  0
  9 43  1  0
 10 44  1  1
 11 45  1  0
 12 46  1  0
 14 47  1  0
 15 48  1  0
 16 49  1  6
 17 50  1  0
 17 51  1  0
 17 52  1  0
 18 53  1  6
 19 54  1  0
 19 55  1  0
 20 56  1  0
 20 57  1  0
 21 58  1  6
 22 59  1  0
 23 60  1  0
 23 61  1  0
 24 62  1  6
 25 63  1  0
 26 64  1  0
 26 65  1  0
 30 66  1  1
M  CHG  2  29  -1  31   1
M  END
$$$$
