
     RDKit          3D

 57 62  0  0  0  0  0  0  0  0999 V2000
   -0.7883    5.0965   -1.6281 N   0  0  0  0  0  0  0  0  0  0  0  0
    0.1033    4.9181   -0.5550 C   0  0  0  0  0  0  0  0  0  0  0  0
    1.0647    5.8533   -0.4180 N   0  0  0  0  0  0  0  0  0  0  0  0
    1.9284    5.7295    0.6116 C   0  0  0  0  0  0  0  0  0  0  0  0
    1.8895    4.6954    1.5274 C   0  0  0  0  0  0  0  0  0  0  0  0
    0.9092    3.7224    1.3709 C   0  0  0  0  0  0  0  0  0  0  0  0
    0.0061    3.8070    0.3015 C   0  0  0  0  0  0  0  0  0  0  0  0
   -1.0432    2.7939    0.1228 C   0  0  0  0  0  0  0  0  0  0  0  0
   -2.3237    3.1182    0.0114 N   0  0  0  0  0  0  0  0  0  0  0  0
   -3.0097    1.9439    0.0807 C   0  0  0  0  0  0  0  0  0  0  0  0
   -4.3839    1.6969    0.0605 C   0  0  0  0  0  0  0  0  0  0  0  0
   -4.7964    0.3644    0.1439 C   0  0  0  0  0  0  0  0  0  0  0  0
   -3.8494   -0.6615    0.2399 C   0  0  0  0  0  0  0  0  0  0  0  0
   -4.2420   -2.0857    0.3284 C   0  0  0  0  0  0  0  0  0  0  0  0
   -3.4618   -3.0837   -0.2861 C   0  0  0  0  0  0  0  0  0  0  0  0
   -3.8167   -4.4341   -0.2173 C   0  0  0  0  0  0  0  0  0  0  0  0
   -4.9609   -4.8180    0.4749 C   0  0  0  0  0  0  0  0  0  0  0  0
   -5.7459   -3.8540    1.1006 C   0  0  0  0  0  0  0  0  0  0  0  0
   -5.3888   -2.5032    1.0294 C   0  0  0  0  0  0  0  0  0  0  0  0
   -2.5103   -0.4389    0.2451 N   0  0  0  0  0  0  0  0  0  0  0  0
   -2.1497    0.8615    0.1790 C   0  0  0  0  0  0  0  0  0  0  0  0
   -0.8678    1.4003    0.1147 N   0  0  0  0  0  0  0  0  0  0  0  0
    0.3533    0.6596    0.0208 C   0  0  0  0  0  0  0  0  0  0  0  0
    0.4519   -0.6216    0.5698 C   0  0  0  0  0  0  0  0  0  0  0  0
    1.6472   -1.3467    0.4713 C   0  0  0  0  0  0  0  0  0  0  0  0
    2.7858   -0.8427   -0.1849 C   0  0  0  0  0  0  0  0  0  0  0  0
    4.1239   -1.6617   -0.2857 C   0  0  0  0  0  0  0  0  0  0  0  0
    4.9774   -1.3621    0.8723 N   0  0  0  0  0  0  0  0  0  0  0  0
    5.0078   -1.5924   -1.5609 C   0  0  0  0  0  0  0  0  0  0  0  0
    5.3644   -3.0787   -1.3563 C   0  0  0  0  0  0  0  0  0  0  0  0
    4.1033   -3.2029   -0.4776 C   0  0  0  0  0  0  0  0  0  0  0  0
    2.6519    0.4455   -0.7366 C   0  0  0  0  0  0  0  0  0  0  0  0
    1.4641    1.1846   -0.6460 C   0  0  0  0  0  0  0  0  0  0  0  0
   -0.7058    4.3149   -2.2692 H   0  0  0  0  0  0  0  0  0  0  0  0
   -1.7344    5.0395   -1.2445 H   0  0  0  0  0  0  0  0  0  0  0  0
    2.6736    6.5166    0.6832 H   0  0  0  0  0  0  0  0  0  0  0  0
    2.6011    4.6508    2.3441 H   0  0  0  0  0  0  0  0  0  0  0  0
    0.8522    2.9065    2.0872 H   0  0  0  0  0  0  0  0  0  0  0  0
   -5.0958    2.5099   -0.0206 H   0  0  0  0  0  0  0  0  0  0  0  0
   -5.8586    0.1408    0.1131 H   0  0  0  0  0  0  0  0  0  0  0  0
   -2.5614   -2.8061   -0.8329 H   0  0  0  0  0  0  0  0  0  0  0  0
   -3.1963   -5.1820   -0.7042 H   0  0  0  0  0  0  0  0  0  0  0  0
   -5.2372   -5.8676    0.5311 H   0  0  0  0  0  0  0  0  0  0  0  0
   -6.6349   -4.1518    1.6508 H   0  0  0  0  0  0  0  0  0  0  0  0
   -6.0134   -1.7800    1.5490 H   0  0  0  0  0  0  0  0  0  0  0  0
   -0.3724   -1.0821    1.1095 H   0  0  0  0  0  0  0  0  0  0  0  0
    1.6897   -2.3378    0.9219 H   0  0  0  0  0  0  0  0  0  0  0  0
    4.5337   -1.5933    1.7604 H   0  0  0  0  0  0  0  0  0  0  0  0
    5.2169   -0.3739    0.9420 H   0  0  0  0  0  0  0  0  0  0  0  0
    4.4394   -1.4192   -2.4837 H   0  0  0  0  0  0  0  0  0  0  0  0
    5.8540   -0.8980   -1.5504 H   0  0  0  0  0  0  0  0  0  0  0  0
    6.3022   -3.2397   -0.8126 H   0  0  0  0  0  0  0  0  0  0  0  0
    5.3721   -3.6918   -2.2612 H   0  0  0  0  0  0  0  0  0  0  0  0
    4.2108   -3.8235    0.4177 H   0  0  0  0  0  0  0  0  0  0  0  0
    3.2332   -3.5667   -1.0390 H   0  0  0  0  0  0  0  0  0  0  0  0
    3.4974    0.8844   -1.2659 H   0  0  0  0  0  0  0  0  0  0  0  0
    1.4400    2.1468   -1.1500 H   0  0  0  0  0  0  0  0  0  0  0  0
  1  2  1  0
  2  3  2  0
  3  4  1  0
  4  5  2  0
  5  6  1  0
  6  7  2  0
  7  8  1  0
  8  9  2  0
  9 10  1  0
 10 11  2  0
 11 12  1  0
 12 13  2  0
 13 14  1  0
 14 15  2  0
 15 16  1  0
 16 17  2  0
 17 18  1  0
 18 19  2  0
 13 20  1  0
 20 21  2  0
 21 22  1  0
 22 23  1  0
 23 24  2  0
 24 25  1  0
 25 26  2  0
 26 27  1  0
 27 28  1  0
 27 29  1  0
 29 30  1  0
 30 31  1  0
 26 32  1  0
 32 33  2  0
  7  2  1  0
 22  8  1  0
 33 23  1  0
 21 10  1  0
 31 27  1  0
 19 14  1  0
  1 34  1  0
  1 35  1  0
  4 36  1  0
  5 37  1  0
  6 38  1  0
 11 39  1  0
 12 40  1  0
 15 41  1  0
 16 42  1  0
 17 43  1  0
 18 44  1  0
 19 45  1  0
 24 46  1  0
 25 47  1  0
 28 48  1  0
 28 49  1  0
 29 50  1  0
 29 51  1  0
 30 52  1  0
 30 53  1  0
 31 54  1  0
 31 55  1  0
 32 56  1  0
 33 57  1  0
M  END
$$$$
