
     RDKit          3D

 46 49  0  0  0  0  0  0  0  0999 V2000
    1.4957   -3.3027    0.5055 C   0  0  0  0  0  0  0  0  0  0  0  0
    1.6893   -1.8159    0.4117 C   0  0  0  0  0  0  0  0  0  0  0  0
    2.3768   -1.3150   -0.5681 N   0  0  0  0  0  0  0  0  0  0  0  0
    2.5329    0.0630   -0.6208 C   0  0  0  0  0  0  0  0  0  0  0  0
    3.3363    0.6397   -1.7434 C   0  0  0  0  0  0  0  0  0  0  0  0
    3.9359   -0.1850   -2.6957 C   0  0  0  0  0  0  0  0  0  0  0  0
    4.6792    0.3879   -3.7257 C   0  0  0  0  0  0  0  0  0  0  0  0
    4.8084    1.7683   -3.7842 C   0  0  0  0  0  0  0  0  0  0  0  0
    4.1851    2.5213   -2.8050 C   0  0  0  0  0  0  0  0  0  0  0  0
    3.4582    1.9929   -1.7942 N   0  0  0  0  0  0  0  0  0  0  0  0
    2.0030    0.9042    0.2849 C   0  0  0  0  0  0  0  0  0  0  0  0
    1.2271    0.3120    1.3684 C   0  0  0  0  0  0  0  0  0  0  0  0
    0.6112    0.9342    2.3286 N   0  0  0  0  0  0  0  0  0  0  0  0
    0.0581   -0.0880    3.0766 N   0  0  0  0  0  0  0  0  0  0  0  0
   -0.8627    0.1334    4.1737 C   0  0  0  0  0  0  0  0  0  0  0  0
   -2.2859    0.3554    3.6632 C   0  0  0  0  0  0  0  0  0  0  0  0
   -3.2741    0.1145    4.3515 O   0  0  0  0  0  0  0  0  0  0  0  0
   -2.3607    0.9488    2.4249 N   0  0  0  0  0  0  0  0  0  0  0  0
   -3.6014    1.2160    1.7383 C   0  0  0  0  0  0  0  0  0  0  0  0
   -3.5809    0.5953    0.3676 C   0  0  0  0  0  0  0  0  0  0  0  0
   -3.4623   -0.7974    0.2161 C   0  0  0  0  0  0  0  0  0  0  0  0
   -3.4568   -1.3707   -1.0570 C   0  0  0  0  0  0  0  0  0  0  0  0
   -3.5682   -0.5548   -2.1773 C   0  0  0  0  0  0  0  0  0  0  0  0
   -3.5643   -1.1089   -3.3960 F   0  0  0  0  0  0  0  0  0  0  0  0
   -3.6903    0.8219   -2.0512 C   0  0  0  0  0  0  0  0  0  0  0  0
   -3.6970    1.3853   -0.7798 C   0  0  0  0  0  0  0  0  0  0  0  0
   -3.8195    2.7158   -0.6670 F   0  0  0  0  0  0  0  0  0  0  0  0
    0.3187   -1.3317    2.4800 C   0  0  0  0  0  0  0  0  0  0  0  0
   -0.1065   -2.4179    2.8377 O   0  0  0  0  0  0  0  0  0  0  0  0
    1.1136   -1.0328    1.3829 N   0  0  0  0  0  0  0  0  0  0  0  0
    1.8603   -3.6658    1.4708 H   0  0  0  0  0  0  0  0  0  0  0  0
    0.4332   -3.5433    0.4034 H   0  0  0  0  0  0  0  0  0  0  0  0
    2.0495   -3.8089   -0.2910 H   0  0  0  0  0  0  0  0  0  0  0  0
    3.8317   -1.2634   -2.6427 H   0  0  0  0  0  0  0  0  0  0  0  0
    5.1532   -0.2422   -4.4738 H   0  0  0  0  0  0  0  0  0  0  0  0
    5.3829    2.2458   -4.5711 H   0  0  0  0  0  0  0  0  0  0  0  0
    4.2567    3.6058   -2.8049 H   0  0  0  0  0  0  0  0  0  0  0  0
    2.1132    1.9806    0.2627 H   0  0  0  0  0  0  0  0  0  0  0  0
   -0.5407    1.0109    4.7403 H   0  0  0  0  0  0  0  0  0  0  0  0
   -0.8595   -0.7508    4.8169 H   0  0  0  0  0  0  0  0  0  0  0  0
   -1.4852    1.2502    2.0030 H   0  0  0  0  0  0  0  0  0  0  0  0
   -3.7109    2.3044    1.6881 H   0  0  0  0  0  0  0  0  0  0  0  0
   -4.4532    0.8237    2.3004 H   0  0  0  0  0  0  0  0  0  0  0  0
   -3.3810   -1.4381    1.0939 H   0  0  0  0  0  0  0  0  0  0  0  0
   -3.3704   -2.4463   -1.1801 H   0  0  0  0  0  0  0  0  0  0  0  0
   -3.7787    1.4485   -2.9321 H   0  0  0  0  0  0  0  0  0  0  0  0
  1  2  1  0
  2  3  2  0
  3  4  1  0
  4  5  1  0
  5  6  2  0
  6  7  1  0
  7  8  2  0
  8  9  1  0
  9 10  2  0
  4 11  2  0
 11 12  1  0
 12 13  2  0
 13 14  1  0
 14 15  1  0
 15 16  1  0
 16 17  2  0
 16 18  1  0
 18 19  1  0
 19 20  1  0
 20 21  2  0
 21 22  1  0
 22 23  2  0
 23 24  1  0
 23 25  1  0
 25 26  2  0
 26 27  1  0
 14 28  1  0
 28 29  2  0
 28 30  1  0
 30  2  1  0
 10  5  1  0
 30 12  1  0
 26 20  1  0
  1 31  1  0
  1 32  1  0
  1 33  1  0
  6 34  1  0
  7 35  1  0
  8 36  1  0
  9 37  1  0
 11 38  1  0
 15 39  1  0
 15 40  1  0
 18 41  1  0
 19 42  1  0
 19 43  1  0
 21 44  1  0
 22 45  1  0
 25 46  1  0
M  END
$$$$
