
     RDKit          3D

 37 39  0  0  0  0  0  0  0  0999 V2000
    7.7919   -1.3026    0.5360 O   0  0  0  0  0  0  0  0  0  0  0  0
    7.1162   -0.6513   -0.2386 C   0  0  0  0  0  0  0  0  0  0  0  0
    7.6816    0.1971   -1.1144 O   0  0  0  0  0  0  0  0  0  0  0  0
    5.6375   -0.6867   -0.3425 C   0  0  0  0  0  0  0  0  0  0  0  0
    4.9327   -1.5469    0.5079 C   0  0  0  0  0  0  0  0  0  0  0  0
    3.5377   -1.6130    0.4433 C   0  0  0  0  0  0  0  0  0  0  0  0
    2.8347   -0.8155   -0.4665 C   0  0  0  0  0  0  0  0  0  0  0  0
    1.3731   -0.9126   -0.5266 C   0  0  0  0  0  0  0  0  0  0  0  0
    0.5042    0.0504   -0.1875 C   0  0  0  0  0  0  0  0  0  0  0  0
    0.8504    1.6194    0.3984 S   0  0  0  0  0  0  0  0  0  0  0  0
   -0.8541    2.0131    0.6338 C   0  0  0  0  0  0  0  0  0  0  0  0
   -1.2696    3.4280    1.4280 S   0  0  0  0  0  0  0  0  0  0  0  0
   -1.6514    0.9754    0.1589 N   0  0  0  0  0  0  0  0  0  0  0  0
   -3.0859    1.0027    0.1077 C   0  0  0  0  0  0  0  0  0  0  0  0
   -3.7842    2.1491   -0.2982 C   0  0  0  0  0  0  0  0  0  0  0  0
   -5.1810    2.1622   -0.3604 C   0  0  0  0  0  0  0  0  0  0  0  0
   -5.9083    1.0228   -0.0277 C   0  0  0  0  0  0  0  0  0  0  0  0
   -5.2443   -0.1449    0.3634 C   0  0  0  0  0  0  0  0  0  0  0  0
   -6.0073   -1.3962    0.7245 C   0  0  0  0  0  0  0  0  0  0  0  0
   -7.3589   -1.2670    0.5991 F   0  0  0  0  0  0  0  0  0  0  0  0
   -5.7883   -1.7817    2.0126 F   0  0  0  0  0  0  0  0  0  0  0  0
   -5.6623   -2.4602   -0.0506 F   0  0  0  0  0  0  0  0  0  0  0  0
   -3.8374   -0.1423    0.4235 C   0  0  0  0  0  0  0  0  0  0  0  0
   -0.9662   -0.1588   -0.2795 C   0  0  0  0  0  0  0  0  0  0  0  0
   -1.4394   -1.2005   -0.7204 O   0  0  0  0  0  0  0  0  0  0  0  0
    3.5412    0.0379   -1.3223 C   0  0  0  0  0  0  0  0  0  0  0  0
    4.9368    0.1056   -1.2593 C   0  0  0  0  0  0  0  0  0  0  0  0
    8.6411    0.1180   -0.9311 H   0  0  0  0  0  0  0  0  0  0  0  0
    5.4666   -2.1685    1.2241 H   0  0  0  0  0  0  0  0  0  0  0  0
    3.0084   -2.2888    1.1120 H   0  0  0  0  0  0  0  0  0  0  0  0
    1.0022   -1.8796   -0.8652 H   0  0  0  0  0  0  0  0  0  0  0  0
   -3.2629    3.0472   -0.6198 H   0  0  0  0  0  0  0  0  0  0  0  0
   -5.6996    3.0637   -0.6806 H   0  0  0  0  0  0  0  0  0  0  0  0
   -6.9959    1.0486   -0.0829 H   0  0  0  0  0  0  0  0  0  0  0  0
   -3.3409   -1.0573    0.7479 H   0  0  0  0  0  0  0  0  0  0  0  0
    3.0153    0.6558   -2.0470 H   0  0  0  0  0  0  0  0  0  0  0  0
    5.4660    0.7777   -1.9307 H   0  0  0  0  0  0  0  0  0  0  0  0
  1  2  2  0
  2  3  1  0
  2  4  1  0
  4  5  2  0
  5  6  1  0
  6  7  2  0
  7  8  1  0
  8  9  2  0
  9 10  1  0
 10 11  1  0
 11 12  2  0
 11 13  1  0
 13 14  1  0
 14 15  2  0
 15 16  1  0
 16 17  2  0
 17 18  1  0
 18 19  1  0
 19 20  1  0
 19 21  1  0
 19 22  1  0
 18 23  2  0
 13 24  1  0
 24 25  2  0
  7 26  1  0
 26 27  2  0
 27  4  1  0
 24  9  1  0
 23 14  1  0
  3 28  1  0
  5 29  1  0
  6 30  1  0
  8 31  1  0
 15 32  1  0
 16 33  1  0
 17 34  1  0
 23 35  1  0
 26 36  1  0
 27 37  1  0
M  END
$$$$
