
     RDKit          3D

 43 44  0  0  0  0  0  0  0  0999 V2000
    3.5757    0.5031   -3.4804 C   0  0  0  0  0  0  0  0  0  0  0  0
    2.9967   -0.1156   -2.3313 O   0  0  0  0  0  0  0  0  0  0  0  0
    1.9804    0.5944   -1.7770 C   0  0  0  0  0  0  0  0  0  0  0  0
    1.5307    1.6447   -2.2058 O   0  0  0  0  0  0  0  0  0  0  0  0
    1.4109   -0.1457   -0.6269 C   0  0  0  0  0  0  0  0  0  0  0  0
    2.1714   -0.7080    0.3411 C   0  0  0  0  0  0  0  0  0  0  0  0
    3.6611   -0.5242    0.4777 C   0  0  0  0  0  0  0  0  0  0  0  0
    1.5692   -1.4898    1.3147 N   0  0  0  0  0  0  0  0  0  0  0  0
    0.2297   -1.8459    1.3244 C   0  0  0  0  0  0  0  0  0  0  0  0
   -0.1699   -2.8716    2.3530 C   0  0  0  0  0  0  0  0  0  0  0  0
   -0.6059   -1.2974    0.4146 C   0  0  0  0  0  0  0  0  0  0  0  0
   -2.0387   -1.6422    0.3053 C   0  0  0  0  0  0  0  0  0  0  0  0
   -2.5753   -1.9365   -0.7521 O   0  0  0  0  0  0  0  0  0  0  0  0
   -2.6533   -1.4952    1.5037 O   0  0  0  0  0  0  0  0  0  0  0  0
   -4.0605   -1.7290    1.4668 C   0  0  0  0  0  0  0  0  0  0  0  0
   -0.1065   -0.2956   -0.6201 C   0  0  0  0  0  0  0  0  0  0  0  0
   -0.8619    1.0353   -0.5099 C   0  0  0  0  0  0  0  0  0  0  0  0
   -1.7882    1.3531   -1.5251 C   0  0  0  0  0  0  0  0  0  0  0  0
   -2.5277    2.5407   -1.4939 C   0  0  0  0  0  0  0  0  0  0  0  0
   -2.3674    3.4446   -0.4468 C   0  0  0  0  0  0  0  0  0  0  0  0
   -1.4680    3.1615    0.5767 C   0  0  0  0  0  0  0  0  0  0  0  0
   -0.7301    1.9676    0.5376 C   0  0  0  0  0  0  0  0  0  0  0  0
    0.1623    1.7426    1.6578 N   0  0  0  0  0  4  0  0  0  0  0  0
    1.3118    2.1930    1.5629 O   0  0  0  0  0  0  0  0  0  0  0  0
   -0.3168    1.1763    2.6491 O   0  0  0  0  0  1  0  0  0  0  0  0
    3.9878    1.4837   -3.2224 H   0  0  0  0  0  0  0  0  0  0  0  0
    4.3923   -0.1333   -3.8322 H   0  0  0  0  0  0  0  0  0  0  0  0
    2.8352    0.5912   -4.2815 H   0  0  0  0  0  0  0  0  0  0  0  0
    3.9321   -0.3848    1.5306 H   0  0  0  0  0  0  0  0  0  0  0  0
    4.1872   -1.4082    0.1039 H   0  0  0  0  0  0  0  0  0  0  0  0
    4.0309    0.3580   -0.0527 H   0  0  0  0  0  0  0  0  0  0  0  0
    2.1701   -1.9003    2.0258 H   0  0  0  0  0  0  0  0  0  0  0  0
    0.6066   -3.6393    2.4477 H   0  0  0  0  0  0  0  0  0  0  0  0
   -0.2987   -2.3945    3.3297 H   0  0  0  0  0  0  0  0  0  0  0  0
   -1.0922   -3.3993    2.0949 H   0  0  0  0  0  0  0  0  0  0  0  0
   -4.5506   -1.0117    0.8011 H   0  0  0  0  0  0  0  0  0  0  0  0
   -4.4541   -1.5884    2.4772 H   0  0  0  0  0  0  0  0  0  0  0  0
   -4.2706   -2.7563    1.1529 H   0  0  0  0  0  0  0  0  0  0  0  0
   -0.3423   -0.7389   -1.6005 H   0  0  0  0  0  0  0  0  0  0  0  0
   -1.9452    0.6706   -2.3606 H   0  0  0  0  0  0  0  0  0  0  0  0
   -3.2301    2.7586   -2.2958 H   0  0  0  0  0  0  0  0  0  0  0  0
   -2.9427    4.3670   -0.4306 H   0  0  0  0  0  0  0  0  0  0  0  0
   -1.3451    3.8657    1.3966 H   0  0  0  0  0  0  0  0  0  0  0  0
  1  2  1  0
  2  3  1  0
  3  4  2  0
  3  5  1  0
  5  6  2  0
  6  7  1  0
  6  8  1  0
  8  9  1  0
  9 10  1  0
  9 11  2  0
 11 12  1  0
 12 13  2  0
 12 14  1  0
 14 15  1  0
 11 16  1  0
 16 17  1  0
 17 18  2  0
 18 19  1  0
 19 20  2  0
 20 21  1  0
 21 22  2  0
 22 23  1  0
 23 24  2  0
 23 25  1  0
 16  5  1  0
 22 17  1  0
  1 26  1  0
  1 27  1  0
  1 28  1  0
  7 29  1  0
  7 30  1  0
  7 31  1  0
  8 32  1  0
 10 33  1  0
 10 34  1  0
 10 35  1  0
 15 36  1  0
 15 37  1  0
 15 38  1  0
 16 39  1  0
 18 40  1  0
 19 41  1  0
 20 42  1  0
 21 43  1  0
M  CHG  2  23   1  25  -1
M  END
$$$$
