
     RDKit          3D

 19 19  0  0  0  0  0  0  0  0999 V2000
   -2.3456   -1.1077    1.1812 O   0  0  0  0  0  0  0  0  0  0  0  0
   -2.6228   -0.1248    0.5157 C   0  0  0  0  0  0  0  0  0  0  0  0
   -3.9160    0.2357    0.3586 O   0  0  0  0  0  0  0  0  0  0  0  0
   -1.6884    0.8316   -0.1838 C   0  0  0  0  0  0  0  0  0  0  0  0
   -0.2472    0.3805   -0.2024 C   0  0  0  0  0  0  0  0  0  0  0  0
    0.2810   -0.2687   -1.3279 C   0  0  0  0  0  0  0  0  0  0  0  0
    1.6114   -0.6906   -1.3400 C   0  0  0  0  0  0  0  0  0  0  0  0
    2.4141   -0.4720   -0.2276 C   0  0  0  0  0  0  0  0  0  0  0  0
    3.7067   -0.9028   -0.2820 O   0  0  0  0  0  0  0  0  0  0  0  0
    1.9087    0.1630    0.9018 C   0  0  0  0  0  0  0  0  0  0  0  0
    0.5779    0.5875    0.9137 C   0  0  0  0  0  0  0  0  0  0  0  0
   -4.4089   -0.4506    0.8565 H   0  0  0  0  0  0  0  0  0  0  0  0
   -2.0392    0.9648   -1.2143 H   0  0  0  0  0  0  0  0  0  0  0  0
   -1.7551    1.8061    0.3143 H   0  0  0  0  0  0  0  0  0  0  0  0
   -0.3376   -0.4529   -2.2033 H   0  0  0  0  0  0  0  0  0  0  0  0
    2.0187   -1.1924   -2.2129 H   0  0  0  0  0  0  0  0  0  0  0  0
    4.1295   -0.7136    0.5714 H   0  0  0  0  0  0  0  0  0  0  0  0
    2.5271    0.3320    1.7772 H   0  0  0  0  0  0  0  0  0  0  0  0
    0.1856    1.0748    1.8038 H   0  0  0  0  0  0  0  0  0  0  0  0
  1  2  2  0
  2  3  1  0
  2  4  1  0
  4  5  1  0
  5  6  2  0
  6  7  1  0
  7  8  2  0
  8  9  1  0
  8 10  1  0
 10 11  2  0
 11  5  1  0
  3 12  1  0
  4 13  1  0
  4 14  1  0
  6 15  1  0
  7 16  1  0
  9 17  1  0
 10 18  1  0
 11 19  1  0
M  END
$$$$
