
     RDKit          3D

 26 27  0  0  0  0  0  0  0  0999 V2000
    3.5210    1.1198    0.3091 C   0  0  0  0  0  0  0  0  0  0  0  0
    4.0379   -0.1526    0.1462 C   0  0  0  0  0  0  0  0  0  0  0  0
    3.2761   -1.2580    0.0132 N   0  0  0  0  0  0  0  0  0  0  0  0
    1.9332   -1.0821    0.0484 C   0  0  0  0  0  0  0  0  0  0  0  0
    1.3025    0.1473    0.2186 C   0  0  0  0  0  0  0  0  0  0  0  0
   -0.2032    0.3254    0.2406 C   0  0  2  0  0  0  0  0  0  0  0  0
   -1.0057   -0.9341    0.6115 C   0  0  0  0  0  0  0  0  0  0  0  0
   -2.4937   -0.6162    0.7735 C   0  0  0  0  0  0  0  0  0  0  0  0
   -2.9517    0.5084   -0.1539 C   0  0  0  0  0  0  0  0  0  0  0  0
   -2.0486    0.6257   -1.3760 C   0  0  0  0  0  0  0  0  0  0  0  0
   -0.6599    0.9244   -1.0249 N   0  0  0  0  0  0  0  0  0  0  0  0
    2.1374    1.2673    0.3419 C   0  0  0  0  0  0  0  0  0  0  0  0
    4.1771    1.9773    0.4043 H   0  0  0  0  0  0  0  0  0  0  0  0
    5.1101   -0.3218    0.1140 H   0  0  0  0  0  0  0  0  0  0  0  0
    1.3725   -2.0036   -0.0754 H   0  0  0  0  0  0  0  0  0  0  0  0
   -0.4072    1.0595    1.0339 H   0  0  0  0  0  0  0  0  0  0  0  0
   -0.8939   -1.6989   -0.1688 H   0  0  0  0  0  0  0  0  0  0  0  0
   -0.6301   -1.3813    1.5402 H   0  0  0  0  0  0  0  0  0  0  0  0
   -2.7066   -0.3315    1.8108 H   0  0  0  0  0  0  0  0  0  0  0  0
   -3.0747   -1.5254    0.5781 H   0  0  0  0  0  0  0  0  0  0  0  0
   -3.9890    0.3345   -0.4619 H   0  0  0  0  0  0  0  0  0  0  0  0
   -2.9468    1.4589    0.3952 H   0  0  0  0  0  0  0  0  0  0  0  0
   -2.0882   -0.3081   -1.9505 H   0  0  0  0  0  0  0  0  0  0  0  0
   -2.4199    1.4180   -2.0348 H   0  0  0  0  0  0  0  0  0  0  0  0
   -0.0537    0.6269   -1.7898 H   0  0  0  0  0  0  0  0  0  0  0  0
    1.7052    2.2593    0.4566 H   0  0  0  0  0  0  0  0  0  0  0  0
  1  2  2  0
  2  3  1  0
  3  4  2  0
  4  5  1  0
  5  6  1  0
  6  7  1  0
  7  8  1  0
  8  9  1  0
  9 10  1  0
 10 11  1  0
  5 12  2  0
 12  1  1  0
 11  6  1  0
  1 13  1  0
  2 14  1  0
  4 15  1  0
  6 16  1  1
  7 17  1  0
  7 18  1  0
  8 19  1  0
  8 20  1  0
  9 21  1  0
  9 22  1  0
 10 23  1  0
 10 24  1  0
 11 25  1  0
 12 26  1  0
M  END
$$$$
