
     RDKit          3D

 41 43  0  0  0  0  0  0  0  0999 V2000
    6.5442    1.0288    1.9004 C   0  0  0  0  0  0  0  0  0  0  0  0
    6.1179   -0.0314    0.9524 C   0  0  0  0  0  0  0  0  0  0  0  0
    6.8385   -1.1539    0.5918 C   0  0  0  0  0  0  0  0  0  0  0  0
    5.9401   -2.0961   -0.5225 S   0  0  0  0  0  0  0  0  0  0  0  0
    4.6706   -0.9483   -0.4469 C   0  0  0  0  0  0  0  0  0  0  0  0
    3.1936   -1.1296   -1.3641 S   0  0  0  0  0  0  0  0  0  0  0  0
    2.3968    0.4594   -0.9996 C   0  0  0  0  0  0  0  0  0  0  0  0
    1.0510    0.5299   -1.6947 C   0  0  0  0  0  0  0  0  0  0  0  0
    0.9660    1.0504   -2.8101 O   0  0  0  0  0  0  0  0  0  0  0  0
   -0.1290   -0.0368   -1.0151 C   0  0  0  0  0  0  0  0  0  0  0  0
   -0.1644   -0.7604    0.2106 C   0  0  0  0  0  0  0  0  0  0  0  0
   -1.4668   -1.1303    0.4701 C   0  0  0  0  0  0  0  0  0  0  0  0
   -2.0078   -1.8975    1.6262 C   0  0  0  0  0  0  0  0  0  0  0  0
   -2.2446   -0.6613   -0.5700 N   0  0  0  0  0  0  0  0  0  0  0  0
   -3.6809   -0.9207   -0.7210 C   0  0  0  0  0  0  0  0  0  0  0  0
   -4.5215    0.0417    0.0671 C   0  0  0  0  0  0  0  0  0  0  0  0
   -4.3005    1.3738    0.3673 C   0  0  0  0  0  0  0  0  0  0  0  0
   -5.3544    1.9433    1.1382 C   0  0  0  0  0  0  0  0  0  0  0  0
   -6.3529    1.0328    1.3975 C   0  0  0  0  0  0  0  0  0  0  0  0
   -6.0199   -0.4964    0.7129 S   0  0  0  0  0  0  0  0  0  0  0  0
   -1.4477    0.0374   -1.4630 C   0  0  0  0  0  0  0  0  0  0  0  0
   -1.9889    0.7117   -2.6833 C   0  0  0  0  0  0  0  0  0  0  0  0
    4.8723    0.0747    0.3531 N   0  0  0  0  0  0  0  0  0  0  0  0
    6.1868    2.0082    1.5679 H   0  0  0  0  0  0  0  0  0  0  0  0
    7.6353    1.0747    1.9781 H   0  0  0  0  0  0  0  0  0  0  0  0
    6.1340    0.8305    2.8953 H   0  0  0  0  0  0  0  0  0  0  0  0
    7.8217   -1.4587    0.9206 H   0  0  0  0  0  0  0  0  0  0  0  0
    3.0174    1.2794   -1.3780 H   0  0  0  0  0  0  0  0  0  0  0  0
    2.2713    0.6124    0.0766 H   0  0  0  0  0  0  0  0  0  0  0  0
    0.6766   -1.0068    0.8476 H   0  0  0  0  0  0  0  0  0  0  0  0
   -1.2138   -2.1282    2.3442 H   0  0  0  0  0  0  0  0  0  0  0  0
   -2.4422   -2.8457    1.2952 H   0  0  0  0  0  0  0  0  0  0  0  0
   -2.7741   -1.3216    2.1536 H   0  0  0  0  0  0  0  0  0  0  0  0
   -3.8482   -1.9584   -0.4104 H   0  0  0  0  0  0  0  0  0  0  0  0
   -3.9323   -0.8707   -1.7851 H   0  0  0  0  0  0  0  0  0  0  0  0
   -3.4166    1.9192    0.0553 H   0  0  0  0  0  0  0  0  0  0  0  0
   -5.3776    2.9695    1.4841 H   0  0  0  0  0  0  0  0  0  0  0  0
   -7.2655    1.1922    1.9554 H   0  0  0  0  0  0  0  0  0  0  0  0
   -1.4459    1.6373   -2.8955 H   0  0  0  0  0  0  0  0  0  0  0  0
   -3.0383    0.9970   -2.5705 H   0  0  0  0  0  0  0  0  0  0  0  0
   -1.9002    0.0486   -3.5493 H   0  0  0  0  0  0  0  0  0  0  0  0
  1  2  1  0
  2  3  2  0
  3  4  1  0
  4  5  1  0
  5  6  1  0
  6  7  1  0
  7  8  1  0
  8  9  2  0
  8 10  1  0
 10 11  1  0
 11 12  2  0
 12 13  1  0
 12 14  1  0
 14 15  1  0
 15 16  1  0
 16 17  2  0
 17 18  1  0
 18 19  2  0
 19 20  1  0
 14 21  1  0
 21 22  1  0
  5 23  2  0
 23  2  1  0
 21 10  2  0
 20 16  1  0
  1 24  1  0
  1 25  1  0
  1 26  1  0
  3 27  1  0
  7 28  1  0
  7 29  1  0
 11 30  1  0
 13 31  1  0
 13 32  1  0
 13 33  1  0
 15 34  1  0
 15 35  1  0
 17 36  1  0
 18 37  1  0
 19 38  1  0
 22 39  1  0
 22 40  1  0
 22 41  1  0
M  END
$$$$
