
     RDKit          3D

 44 46  0  0  0  0  0  0  0  0999 V2000
   -3.6158   -1.6148    0.8009 O   0  0  0  0  0  0  0  0  0  0  0  0
   -2.7231   -0.9240    1.2838 C   0  0  0  0  0  0  0  0  0  0  0  0
   -2.2085   -1.1816    2.7086 C   0  0  0  0  0  0  0  0  0  0  0  0
   -0.7573   -1.1264    2.9200 N   0  0  0  0  0  0  0  0  0  0  0  0
    0.0396   -0.6049    1.9235 N   0  0  0  0  0  0  0  0  0  0  0  0
    1.3207   -0.8203    1.9880 C   0  0  0  0  0  0  0  0  0  0  0  0
    2.1933   -0.2917    0.8596 C   0  0  0  0  0  0  0  0  0  0  0  0
    3.3182    0.0917    1.1313 O   0  0  0  0  0  0  0  0  0  0  0  0
    1.5366   -0.3138   -0.3523 N   0  0  0  0  0  0  0  0  0  0  0  0
    2.0147    0.1282   -1.5993 C   0  0  0  0  0  0  0  0  0  0  0  0
    1.1398    0.0421   -2.6881 C   0  0  0  0  0  0  0  0  0  0  0  0
    1.5360    0.4728   -3.9560 C   0  0  0  0  0  0  0  0  0  0  0  0
    2.8126    0.9882   -4.1484 C   0  0  0  0  0  0  0  0  0  0  0  0
    3.6908    1.0746   -3.0705 C   0  0  0  0  0  0  0  0  0  0  0  0
    3.2947    0.6443   -1.7998 C   0  0  0  0  0  0  0  0  0  0  0  0
    1.9720   -1.6380    3.0600 C   0  0  0  0  0  0  0  0  0  0  0  0
    1.2246   -1.3869    4.3493 C   0  0  0  0  0  0  0  0  0  0  0  0
   -0.2663   -1.5347    4.1602 C   0  0  0  0  0  0  0  0  0  0  0  0
   -0.9847   -1.9261    5.0777 O   0  0  0  0  0  0  0  0  0  0  0  0
   -2.1690    0.2016    0.6995 N   0  0  0  0  0  0  0  0  0  0  0  0
   -2.3873    0.7191   -0.5872 C   0  0  0  0  0  0  0  0  0  0  0  0
   -3.2903    0.1758   -1.5049 C   0  0  0  0  0  0  0  0  0  0  0  0
   -3.4178    0.7312   -2.7832 C   0  0  0  0  0  0  0  0  0  0  0  0
   -2.6459    1.8296   -3.1451 C   0  0  0  0  0  0  0  0  0  0  0  0
   -2.7899    2.4929   -4.7238 Cl  0  0  0  0  0  0  0  0  0  0  0  0
   -1.7559    2.3898   -2.2341 C   0  0  0  0  0  0  0  0  0  0  0  0
   -1.6283    1.8376   -0.9575 C   0  0  0  0  0  0  0  0  0  0  0  0
   -2.6695   -0.4451    3.3777 H   0  0  0  0  0  0  0  0  0  0  0  0
   -2.5535   -2.1771    3.0192 H   0  0  0  0  0  0  0  0  0  0  0  0
    0.5697   -0.6190   -0.3192 H   0  0  0  0  0  0  0  0  0  0  0  0
    0.1363   -0.3608   -2.5671 H   0  0  0  0  0  0  0  0  0  0  0  0
    0.8455    0.4065   -4.7905 H   0  0  0  0  0  0  0  0  0  0  0  0
    3.1241    1.3235   -5.1346 H   0  0  0  0  0  0  0  0  0  0  0  0
    4.6935    1.4742   -3.2175 H   0  0  0  0  0  0  0  0  0  0  0  0
    4.0129    0.7239   -0.9921 H   0  0  0  0  0  0  0  0  0  0  0  0
    1.9029   -2.6913    2.7589 H   0  0  0  0  0  0  0  0  0  0  0  0
    3.0281   -1.3825    3.1744 H   0  0  0  0  0  0  0  0  0  0  0  0
    1.4170   -0.3727    4.7248 H   0  0  0  0  0  0  0  0  0  0  0  0
    1.5571   -2.1000    5.1114 H   0  0  0  0  0  0  0  0  0  0  0  0
   -1.4209    0.6228    1.2462 H   0  0  0  0  0  0  0  0  0  0  0  0
   -3.9026   -0.6876   -1.2661 H   0  0  0  0  0  0  0  0  0  0  0  0
   -4.1193    0.2932   -3.4888 H   0  0  0  0  0  0  0  0  0  0  0  0
   -1.1491    3.2458   -2.5155 H   0  0  0  0  0  0  0  0  0  0  0  0
   -0.9257    2.2899   -0.2610 H   0  0  0  0  0  0  0  0  0  0  0  0
  1  2  2  0
  2  3  1  0
  3  4  1  0
  4  5  1  0
  5  6  2  0
  6  7  1  0
  7  8  2  0
  7  9  1  0
  9 10  1  0
 10 11  2  0
 11 12  1  0
 12 13  2  0
 13 14  1  0
 14 15  2  0
  6 16  1  0
 16 17  1  0
 17 18  1  0
 18 19  2  0
  2 20  1  0
 20 21  1  0
 21 22  2  0
 22 23  1  0
 23 24  2  0
 24 25  1  0
 24 26  1  0
 26 27  2  0
 18  4  1  0
 27 21  1  0
 15 10  1  0
  3 28  1  0
  3 29  1  0
  9 30  1  0
 11 31  1  0
 12 32  1  0
 13 33  1  0
 14 34  1  0
 15 35  1  0
 16 36  1  0
 16 37  1  0
 17 38  1  0
 17 39  1  0
 20 40  1  0
 22 41  1  0
 23 42  1  0
 26 43  1  0
 27 44  1  0
M  END
$$$$
