
     RDKit          3D

 48 51  0  0  0  0  0  0  0  0999 V2000
   -0.8403    1.6825    2.2432 N   0  0  0  0  0  0  0  0  0  0  0  0
   -0.6673    0.8446    1.1606 C   0  0  0  0  0  0  0  0  0  0  0  0
    0.5944    0.6539    0.7486 N   0  0  0  0  0  0  0  0  0  0  0  0
    0.8179   -0.1556   -0.3174 C   0  0  0  0  0  0  0  0  0  0  0  0
    2.4598   -0.4641   -0.8943 S   0  0  0  0  0  0  0  0  0  0  0  0
    3.4153    0.4852    0.3265 C   0  0  0  0  0  0  0  0  0  0  0  0
    4.8999    0.3745    0.0626 C   0  0  0  0  0  0  0  0  0  0  0  0
    5.5366    1.2770   -0.8046 C   0  0  0  0  0  0  0  0  0  0  0  0
    6.9050    1.1685   -1.0646 C   0  0  0  0  0  0  0  0  0  0  0  0
    7.6432    0.1453   -0.4572 C   0  0  0  0  0  0  0  0  0  0  0  0
    9.0813    0.0273   -0.7267 N   0  0  0  0  0  4  0  0  0  0  0  0
    9.7002   -0.8902   -0.1681 O   0  0  0  0  0  0  0  0  0  0  0  0
    9.5951    0.8547   -1.4936 O   0  0  0  0  0  1  0  0  0  0  0  0
    7.0213   -0.7675    0.4036 C   0  0  0  0  0  0  0  0  0  0  0  0
    5.6525   -0.6510    0.6575 C   0  0  0  0  0  0  0  0  0  0  0  0
   -0.2654   -0.7555   -0.9637 C   0  0  0  0  0  0  0  0  0  0  0  0
   -0.3865   -1.6129   -2.0368 N   0  0  0  0  0  0  0  0  0  0  0  0
   -1.6793   -1.8109   -2.1736 C   0  0  0  0  0  0  0  0  0  0  0  0
   -2.4039   -1.1462   -1.2181 N   0  0  0  0  0  0  0  0  0  0  0  0
   -3.8436   -1.2007   -1.0935 C   0  0  0  0  0  0  0  0  0  0  0  0
   -4.4031    0.0444   -1.5460 O   0  0  0  0  0  0  0  0  0  0  0  0
   -5.5324    0.3681   -0.6915 C   0  0  0  0  0  0  0  0  0  0  0  0
   -5.2299    1.6392    0.1107 C   0  0  0  0  0  0  0  0  0  0  0  0
   -5.1637    2.7618   -0.7710 O   0  0  0  0  0  0  0  0  0  0  0  0
   -5.7817   -0.8724    0.1667 C   0  0  0  0  0  0  0  0  0  0  0  0
   -6.3807   -0.6161    1.4277 O   0  0  0  0  0  0  0  0  0  0  0  0
   -4.3885   -1.4620    0.3096 C   0  0  0  0  0  0  0  0  0  0  0  0
   -4.4656   -2.8441    0.6557 O   0  0  0  0  0  0  0  0  0  0  0  0
   -1.5138   -0.4584   -0.4392 C   0  0  0  0  0  0  0  0  0  0  0  0
   -1.7760    0.3267    0.6163 N   0  0  0  0  0  0  0  0  0  0  0  0
   -1.7595    2.1006    2.2209 H   0  0  0  0  0  0  0  0  0  0  0  0
   -0.0526    2.3105    2.3256 H   0  0  0  0  0  0  0  0  0  0  0  0
    3.1200    1.5404    0.2931 H   0  0  0  0  0  0  0  0  0  0  0  0
    3.1984    0.1189    1.3368 H   0  0  0  0  0  0  0  0  0  0  0  0
    4.9646    2.0669   -1.2892 H   0  0  0  0  0  0  0  0  0  0  0  0
    7.3735    1.8799   -1.7414 H   0  0  0  0  0  0  0  0  0  0  0  0
    7.5812   -1.5716    0.8767 H   0  0  0  0  0  0  0  0  0  0  0  0
    5.1715   -1.3706    1.3183 H   0  0  0  0  0  0  0  0  0  0  0  0
   -2.1399   -2.4222   -2.9406 H   0  0  0  0  0  0  0  0  0  0  0  0
   -4.1943   -1.9851   -1.7773 H   0  0  0  0  0  0  0  0  0  0  0  0
   -6.3884    0.5593   -1.3487 H   0  0  0  0  0  0  0  0  0  0  0  0
   -6.0181    1.8440    0.8410 H   0  0  0  0  0  0  0  0  0  0  0  0
   -4.2676    1.5653    0.6245 H   0  0  0  0  0  0  0  0  0  0  0  0
   -4.9192    3.5331   -0.2328 H   0  0  0  0  0  0  0  0  0  0  0  0
   -6.4328   -1.5736   -0.3711 H   0  0  0  0  0  0  0  0  0  0  0  0
   -6.4075   -1.4732    1.8956 H   0  0  0  0  0  0  0  0  0  0  0  0
   -3.8530   -0.9482    1.1127 H   0  0  0  0  0  0  0  0  0  0  0  0
   -3.5768   -3.1210    0.9482 H   0  0  0  0  0  0  0  0  0  0  0  0
  1  2  1  0
  2  3  2  0
  3  4  1  0
  4  5  1  0
  5  6  1  0
  6  7  1  0
  7  8  2  0
  8  9  1  0
  9 10  2  0
 10 11  1  0
 11 12  2  0
 11 13  1  0
 10 14  1  0
 14 15  2  0
  4 16  2  0
 16 17  1  0
 17 18  2  0
 18 19  1  0
 19 20  1  0
 20 21  1  0
 21 22  1  0
 22 23  1  0
 23 24  1  0
 22 25  1  0
 25 26  1  0
 25 27  1  0
 27 28  1  0
 19 29  1  0
 29 30  2  0
 30  2  1  0
 15  7  1  0
 29 16  1  0
 27 20  1  0
  1 31  1  0
  1 32  1  0
  6 33  1  0
  6 34  1  0
  8 35  1  0
  9 36  1  0
 14 37  1  0
 15 38  1  0
 18 39  1  0
 20 40  1  0
 22 41  1  0
 23 42  1  0
 23 43  1  0
 24 44  1  0
 25 45  1  0
 26 46  1  0
 27 47  1  0
 28 48  1  0
M  CHG  2  11   1  13  -1
M  END
$$$$
