
     RDKit          3D

 46 46  0  0  0  0  0  0  0  0999 V2000
   -6.4325   -2.4735    1.9216 C   0  0  0  0  0  0  0  0  0  0  0  0
   -5.0988   -2.1207    1.3426 C   0  0  0  0  0  0  0  0  0  0  0  0
   -4.1276   -3.0488    1.3893 N   0  0  0  0  0  0  0  0  0  0  0  0
   -2.9506   -2.7201    0.8346 C   0  0  0  0  0  0  0  0  0  0  0  0
   -2.7023   -1.5011    0.2381 C   0  0  0  0  0  0  0  0  0  0  0  0
   -1.3453   -1.1465   -0.2778 C   0  0  0  0  0  0  0  0  0  0  0  0
   -0.7575   -0.0222    0.4701 N   0  0  0  0  0  4  0  0  0  0  0  0
   -0.6205   -0.0800    1.7859 C   0  0  0  0  0  0  0  0  0  0  0  0
    0.1862    1.2966    2.3953 S   0  0  0  0  0  0  0  0  0  0  0  0
    0.4219    1.9245    0.8141 C   0  0  0  0  0  0  0  0  0  0  0  0
    1.2773    3.1433    0.6112 C   0  0  0  0  0  0  0  0  0  0  0  0
    2.7437    2.7638    0.3649 C   0  0  0  0  0  0  0  0  0  0  0  0
    2.8785    2.1341   -0.9017 O   0  0  0  0  0  0  0  0  0  0  0  0
    3.3116    0.5860   -0.9529 P   0  0  0  0  0  5  0  0  0  0  0  0
    2.4904   -0.3092   -0.0818 O   0  0  0  0  0  0  0  0  0  0  0  0
    3.1631    0.2667   -2.5144 O   0  0  0  0  0  0  0  0  0  0  0  0
    4.8861    0.6210   -0.7070 O   0  0  0  0  0  0  0  0  0  0  0  0
    5.7110   -0.7036   -1.0077 P   0  0  0  0  0  5  0  0  0  0  0  0
    5.0103   -1.6258   -1.9501 O   0  0  0  0  0  0  0  0  0  0  0  0
    7.1200   -0.1791   -1.5361 O   0  0  0  0  0  0  0  0  0  0  0  0
    6.0714   -1.3142    0.4192 O   0  0  0  0  0  0  0  0  0  0  0  0
   -0.2142    1.1212   -0.1171 C   0  0  0  0  0  0  0  0  0  0  0  0
   -0.2725    1.2992   -1.5902 C   0  0  0  0  0  0  0  0  0  0  0  0
   -3.7754   -0.6328    0.2080 C   0  0  0  0  0  0  0  0  0  0  0  0
   -3.6969    0.6114   -0.4233 N   0  0  0  0  0  0  0  0  0  0  0  0
   -4.9586   -0.9152    0.7611 N   0  0  0  0  0  0  0  0  0  0  0  0
    0.0000    0.0000    0.0000 Cl  0  0  0  0  0 15  0  0  0  0  0  0
   -7.0525   -2.9467    1.1551 H   0  0  0  0  0  0  0  0  0  0  0  0
   -6.9440   -1.5783    2.2854 H   0  0  0  0  0  0  0  0  0  0  0  0
   -6.3159   -3.1667    2.7596 H   0  0  0  0  0  0  0  0  0  0  0  0
   -2.1922   -3.4971    0.9094 H   0  0  0  0  0  0  0  0  0  0  0  0
   -0.6538   -1.9924   -0.1810 H   0  0  0  0  0  0  0  0  0  0  0  0
   -1.4193   -0.9336   -1.3483 H   0  0  0  0  0  0  0  0  0  0  0  0
   -0.9636   -0.8883    2.4202 H   0  0  0  0  0  0  0  0  0  0  0  0
    1.2135    3.7957    1.4892 H   0  0  0  0  0  0  0  0  0  0  0  0
    0.8957    3.7179   -0.2395 H   0  0  0  0  0  0  0  0  0  0  0  0
    3.3534    3.6741    0.3383 H   0  0  0  0  0  0  0  0  0  0  0  0
    3.1387    2.1236    1.1622 H   0  0  0  0  0  0  0  0  0  0  0  0
    3.5031   -0.6341   -2.7331 H   0  0  0  0  0  0  0  0  0  0  0  0
    7.5508    0.5344   -1.0362 H   0  0  0  0  0  0  0  0  0  0  0  0
    6.6678   -0.7925    0.9826 H   0  0  0  0  0  0  0  0  0  0  0  0
    0.1525    2.2571   -1.9004 H   0  0  0  0  0  0  0  0  0  0  0  0
    0.2978    0.5121   -2.0921 H   0  0  0  0  0  0  0  0  0  0  0  0
   -1.3048    1.2717   -1.9491 H   0  0  0  0  0  0  0  0  0  0  0  0
   -3.6516    0.4996   -1.4337 H   0  0  0  0  0  0  0  0  0  0  0  0
   -4.5942    1.0686   -0.2193 H   0  0  0  0  0  0  0  0  0  0  0  0
  1  2  1  0
  2  3  2  0
  3  4  1  0
  4  5  2  0
  5  6  1  0
  6  7  1  0
  7  8  2  0
  8  9  1  0
  9 10  1  0
 10 11  1  0
 11 12  1  0
 12 13  1  0
 13 14  1  0
 14 15  2  0
 14 16  1  0
 14 17  1  0
 17 18  1  0
 18 19  2  0
 18 20  1  0
 18 21  1  0
 10 22  2  0
 22 23  1  0
  5 24  1  0
 24 25  1  0
 24 26  2  0
 26  2  1  0
 22  7  1  0
  1 28  1  0
  1 29  1  0
  1 30  1  0
  4 31  1  0
  6 32  1  0
  6 33  1  0
  8 34  1  0
 11 35  1  0
 11 36  1  0
 12 37  1  0
 12 38  1  0
 16 39  1  0
 20 40  1  0
 21 41  1  0
 23 42  1  0
 23 43  1  0
 23 44  1  0
 25 45  1  0
 25 46  1  0
M  CHG  2   7   1  27  -1
M  END
$$$$
