
     RDKit          3D

 48 50  0  0  0  0  0  0  0  0999 V2000
    7.6794   -0.6536   -0.7925 C   0  0  0  0  0  0  0  0  0  0  0  0
    6.6466   -0.8487    0.2227 N   0  0  0  0  0  0  0  0  0  0  0  0
    7.1265   -1.0219    1.5937 C   0  0  0  0  0  0  0  0  0  0  0  0
    5.3704   -0.3149    0.0140 C   0  0  0  0  0  0  0  0  0  0  0  0
    4.9778    0.2255   -1.2252 C   0  0  0  0  0  0  0  0  0  0  0  0
    3.6960    0.7535   -1.4397 C   0  0  0  0  0  0  0  0  0  0  0  0
    2.7477    0.7390   -0.4176 C   0  0  0  0  0  0  0  0  0  0  0  0
    1.4032    1.3170   -0.6840 C   0  0  0  0  0  0  0  0  0  0  0  0
    1.2563    2.1885   -1.5354 O   0  0  0  0  0  0  0  0  0  0  0  0
    0.3589    0.8062    0.0466 N   0  0  0  0  0  0  0  0  0  0  0  0
   -1.0042    1.2607   -0.1579 C   0  0  0  0  0  0  0  0  0  0  0  0
   -1.9896    0.2732    0.4928 C   0  0  0  0  0  0  0  0  0  0  0  0
   -1.5327   -0.5700    1.2717 O   0  0  0  0  0  0  0  0  0  0  0  0
   -3.3487    0.4294    0.1562 N   0  0  0  0  0  0  0  0  0  0  0  0
   -3.7934    1.6126   -0.5967 C   0  0  0  0  0  0  0  0  0  0  0  0
   -5.1886    2.0705   -0.2177 C   0  0  0  0  0  0  0  0  0  0  0  0
   -6.1675    0.9550   -0.5104 C   0  0  0  0  0  0  0  0  0  0  0  0
   -5.7113   -0.3321    0.1213 C   0  0  0  0  0  0  0  0  0  0  0  0
   -6.6914   -1.3154    0.3582 C   0  0  0  0  0  0  0  0  0  0  0  0
   -6.3500   -2.5414    0.9136 C   0  0  0  0  0  0  0  0  0  0  0  0
   -5.0240   -2.7989    1.2258 C   0  0  0  0  0  0  0  0  0  0  0  0
   -4.0400   -1.8324    0.9810 C   0  0  0  0  0  0  0  0  0  0  0  0
   -4.3530   -0.5784    0.4315 C   0  0  0  0  0  0  0  0  0  0  0  0
    3.1003    0.2068    0.8219 C   0  0  0  0  0  0  0  0  0  0  0  0
    4.3879   -0.3158    1.0224 C   0  0  0  0  0  0  0  0  0  0  0  0
    7.8794    0.4099   -0.9570 H   0  0  0  0  0  0  0  0  0  0  0  0
    8.6239   -1.1219   -0.4971 H   0  0  0  0  0  0  0  0  0  0  0  0
    7.3923   -1.1231   -1.7388 H   0  0  0  0  0  0  0  0  0  0  0  0
    8.1554   -1.4005    1.6135 H   0  0  0  0  0  0  0  0  0  0  0  0
    6.5246   -1.7629    2.1331 H   0  0  0  0  0  0  0  0  0  0  0  0
    7.1159   -0.0695    2.1384 H   0  0  0  0  0  0  0  0  0  0  0  0
    5.6641    0.2543   -2.0682 H   0  0  0  0  0  0  0  0  0  0  0  0
    3.4457    1.1711   -2.4115 H   0  0  0  0  0  0  0  0  0  0  0  0
    0.4763    0.0051    0.6585 H   0  0  0  0  0  0  0  0  0  0  0  0
   -1.0925    2.2398    0.3246 H   0  0  0  0  0  0  0  0  0  0  0  0
   -1.1897    1.3408   -1.2340 H   0  0  0  0  0  0  0  0  0  0  0  0
   -3.1187    2.4538   -0.4201 H   0  0  0  0  0  0  0  0  0  0  0  0
   -3.7333    1.3639   -1.6645 H   0  0  0  0  0  0  0  0  0  0  0  0
   -5.4615    2.9686   -0.7833 H   0  0  0  0  0  0  0  0  0  0  0  0
   -5.2194    2.3324    0.8483 H   0  0  0  0  0  0  0  0  0  0  0  0
   -7.1569    1.2395   -0.1313 H   0  0  0  0  0  0  0  0  0  0  0  0
   -6.2550    0.8017   -1.5938 H   0  0  0  0  0  0  0  0  0  0  0  0
   -7.7327   -1.1213    0.1093 H   0  0  0  0  0  0  0  0  0  0  0  0
   -7.1116   -3.2925    1.0980 H   0  0  0  0  0  0  0  0  0  0  0  0
   -4.7403   -3.7573    1.6534 H   0  0  0  0  0  0  0  0  0  0  0  0
   -3.0249   -2.1220    1.2260 H   0  0  0  0  0  0  0  0  0  0  0  0
    2.4033    0.2043    1.6562 H   0  0  0  0  0  0  0  0  0  0  0  0
    4.5990   -0.7289    2.0060 H   0  0  0  0  0  0  0  0  0  0  0  0
  1  2  1  0
  2  3  1  0
  2  4  1  0
  4  5  2  0
  5  6  1  0
  6  7  2  0
  7  8  1  0
  8  9  2  0
  8 10  1  0
 10 11  1  0
 11 12  1  0
 12 13  2  0
 12 14  1  0
 14 15  1  0
 15 16  1  0
 16 17  1  0
 17 18  1  0
 18 19  2  0
 19 20  1  0
 20 21  2  0
 21 22  1  0
 22 23  2  0
  7 24  1  0
 24 25  2  0
 25  4  1  0
 23 14  1  0
 23 18  1  0
  1 26  1  0
  1 27  1  0
  1 28  1  0
  3 29  1  0
  3 30  1  0
  3 31  1  0
  5 32  1  0
  6 33  1  0
 10 34  1  0
 11 35  1  0
 11 36  1  0
 15 37  1  0
 15 38  1  0
 16 39  1  0
 16 40  1  0
 17 41  1  0
 17 42  1  0
 19 43  1  0
 20 44  1  0
 21 45  1  0
 22 46  1  0
 24 47  1  0
 25 48  1  0
M  END
$$$$
