
     RDKit          3D

 56 58  0  0  0  0  0  0  0  0999 V2000
   -7.2766    3.1215    0.5515 C   0  0  0  0  0  0  0  0  0  0  0  0
   -7.2043    1.7545    0.1689 O   0  0  0  0  0  0  0  0  0  0  0  0
   -5.8741    1.3115   -0.0485 C   0  0  0  0  0  0  0  0  0  0  0  0
   -4.9783    1.0981    1.1908 C   0  0  0  0  0  0  0  0  0  0  0  0
   -5.3344    1.4061    2.3281 O   0  0  0  0  0  0  0  0  0  0  0  0
   -3.7311    0.5464    0.9553 N   0  0  0  0  0  0  0  0  0  0  0  0
   -2.8238    0.2647    2.0511 C   0  0  0  0  0  0  0  0  0  0  0  0
   -1.6968   -0.5761    1.4421 C   0  0  2  0  0  0  0  0  0  0  0  0
   -0.3123   -0.1828    1.9686 C   0  0  0  0  0  0  0  0  0  0  0  0
    0.3233    0.7166    0.8937 C   0  0  1  0  0  0  0  0  0  0  0  0
    1.4478    0.0545    0.2500 N   0  0  0  0  0  0  0  0  0  0  0  0
    2.6815    0.0524    0.8555 C   0  0  0  0  0  0  0  0  0  0  0  0
    2.9469    0.6513    1.8874 O   0  0  0  0  0  0  0  0  0  0  0  0
    3.5710   -0.7109    0.1434 N   0  0  0  0  0  0  0  0  0  0  0  0
    4.9624   -0.8016    0.5390 C   0  0  0  0  0  0  0  0  0  0  0  0
    5.7843    0.4361    0.1439 C   0  0  0  0  0  0  0  0  0  0  0  0
    7.1865    0.3446    0.7478 C   0  0  0  0  0  0  0  0  0  0  0  0
    5.8802    0.5878   -1.3756 C   0  0  0  0  0  0  0  0  0  0  0  0
   -0.7933    1.0193   -0.1135 C   0  0  0  0  0  0  0  0  0  0  0  0
   -1.7173   -0.2073   -0.0539 C   0  0  1  0  0  0  0  0  0  0  0  0
   -1.2148   -1.2975   -0.9388 C   0  0  0  0  0  0  0  0  0  0  0  0
   -0.2713   -2.1874   -0.7156 N   0  0  0  0  0  0  0  0  0  0  0  0
   -0.2476   -2.8853   -1.8966 C   0  0  0  0  0  0  0  0  0  0  0  0
    0.6504   -4.0320   -2.1265 C   0  0  0  0  0  0  0  0  0  0  0  0
   -1.0874   -2.4308   -2.8343 N   0  0  0  0  0  0  0  0  0  0  0  0
   -1.7288   -1.3668   -2.2029 O   0  0  0  0  0  0  0  0  0  0  0  0
   -3.1900    0.1153   -0.3232 C   0  0  0  0  0  0  0  0  0  0  0  0
   -6.7805    3.2956    1.5091 H   0  0  0  0  0  0  0  0  0  0  0  0
   -8.3313    3.3896    0.6591 H   0  0  0  0  0  0  0  0  0  0  0  0
   -6.8360    3.7597   -0.2206 H   0  0  0  0  0  0  0  0  0  0  0  0
   -5.3691    2.0011   -0.7350 H   0  0  0  0  0  0  0  0  0  0  0  0
   -5.9592    0.3430   -0.5531 H   0  0  0  0  0  0  0  0  0  0  0  0
   -3.3468   -0.2705    2.8508 H   0  0  0  0  0  0  0  0  0  0  0  0
   -2.4770    1.2244    2.4510 H   0  0  0  0  0  0  0  0  0  0  0  0
   -1.9019   -1.6399    1.6155 H   0  0  0  0  0  0  0  0  0  0  0  0
    0.2897   -1.0817    2.1473 H   0  0  0  0  0  0  0  0  0  0  0  0
   -0.3833    0.3437    2.9268 H   0  0  0  0  0  0  0  0  0  0  0  0
    0.6908    1.6485    1.3388 H   0  0  0  0  0  0  0  0  0  0  0  0
    1.2410   -0.8262   -0.2106 H   0  0  0  0  0  0  0  0  0  0  0  0
    3.3578   -0.8144   -0.8373 H   0  0  0  0  0  0  0  0  0  0  0  0
    5.3703   -1.7038    0.0696 H   0  0  0  0  0  0  0  0  0  0  0  0
    4.9962   -0.9447    1.6256 H   0  0  0  0  0  0  0  0  0  0  0  0
    5.3018    1.3366    0.5436 H   0  0  0  0  0  0  0  0  0  0  0  0
    7.7800    1.2280    0.4903 H   0  0  0  0  0  0  0  0  0  0  0  0
    7.1355    0.2850    1.8398 H   0  0  0  0  0  0  0  0  0  0  0  0
    7.7194   -0.5403    0.3843 H   0  0  0  0  0  0  0  0  0  0  0  0
    4.8912    0.7310   -1.8228 H   0  0  0  0  0  0  0  0  0  0  0  0
    6.3370   -0.2952   -1.8354 H   0  0  0  0  0  0  0  0  0  0  0  0
    6.4891    1.4590   -1.6402 H   0  0  0  0  0  0  0  0  0  0  0  0
   -1.3279    1.9206    0.2135 H   0  0  0  0  0  0  0  0  0  0  0  0
   -0.4101    1.2181   -1.1213 H   0  0  0  0  0  0  0  0  0  0  0  0
    0.0973   -4.8827   -2.5368 H   0  0  0  0  0  0  0  0  0  0  0  0
    1.4435   -3.7609   -2.8300 H   0  0  0  0  0  0  0  0  0  0  0  0
    1.1197   -4.3529   -1.1911 H   0  0  0  0  0  0  0  0  0  0  0  0
   -3.7651   -0.7675   -0.6280 H   0  0  0  0  0  0  0  0  0  0  0  0
   -3.3245    0.8944   -1.0804 H   0  0  0  0  0  0  0  0  0  0  0  0
  1  2  1  0
  2  3  1  0
  3  4  1  0
  4  5  2  0
  4  6  1  0
  6  7  1  0
  7  8  1  0
  8  9  1  0
  9 10  1  0
 10 11  1  0
 11 12  1  0
 12 13  2  0
 12 14  1  0
 14 15  1  0
 15 16  1  0
 16 17  1  0
 16 18  1  0
 10 19  1  0
 19 20  1  0
 20 21  1  6
 21 22  2  0
 22 23  1  0
 23 24  1  0
 23 25  2  0
 25 26  1  0
 20 27  1  0
 27  6  1  0
 20  8  1  0
 26 21  1  0
  1 28  1  0
  1 29  1  0
  1 30  1  0
  3 31  1  0
  3 32  1  0
  7 33  1  0
  7 34  1  0
  8 35  1  6
  9 36  1  0
  9 37  1  0
 10 38  1  1
 11 39  1  0
 14 40  1  0
 15 41  1  0
 15 42  1  0
 16 43  1  0
 17 44  1  0
 17 45  1  0
 17 46  1  0
 18 47  1  0
 18 48  1  0
 18 49  1  0
 19 50  1  0
 19 51  1  0
 24 52  1  0
 24 53  1  0
 24 54  1  0
 27 55  1  0
 27 56  1  0
M  END
$$$$
