
     RDKit          3D

 59 62  0  0  0  0  0  0  0  0999 V2000
    7.5088    2.2057    3.5221 C   0  0  0  0  0  0  0  0  0  0  0  0
    7.1993    1.3381    2.3175 C   0  0  0  0  0  0  0  0  0  0  0  0
    5.7769    1.1910    2.2278 O   0  0  0  0  0  0  0  0  0  0  0  0
    5.3572    0.4002    1.2014 C   0  0  0  0  0  0  0  0  0  0  0  0
    6.1109   -0.1533    0.4160 O   0  0  0  0  0  0  0  0  0  0  0  0
    3.9944    0.3541    1.2393 N   0  0  0  0  0  0  0  0  0  0  0  0
    3.1153   -0.3311    0.3832 C   0  0  0  0  0  0  0  0  0  0  0  0
    3.5302   -1.0738   -0.7210 C   0  0  0  0  0  0  0  0  0  0  0  0
    2.5912   -1.7187   -1.5305 C   0  0  0  0  0  0  0  0  0  0  0  0
    1.2240   -1.6318   -1.2403 C   0  0  0  0  0  0  0  0  0  0  0  0
    0.7933   -0.9070   -0.1193 C   0  0  0  0  0  0  0  0  0  0  0  0
    1.7466   -0.2497    0.6736 C   0  0  0  0  0  0  0  0  0  0  0  0
   -0.6088   -0.8192    0.1612 N   0  0  0  0  0  0  0  0  0  0  0  0
   -1.1870    0.4267    0.4809 C   0  0  0  0  0  0  0  0  0  0  0  0
   -0.5478    1.4332    0.8065 O   0  0  0  0  0  0  0  0  0  0  0  0
   -2.7260    0.5099    0.2971 C   0  0  0  0  0  0  0  0  0  0  0  0
   -3.1104    1.3640   -0.8572 N   0  0  0  0  0  0  0  0  0  0  0  0
   -4.5514    1.2577   -1.1413 C   0  0  0  0  0  0  0  0  0  0  0  0
   -5.3863    2.3522   -0.4791 C   0  0  0  0  0  0  0  0  0  0  0  0
   -4.9574    3.7433   -0.9495 C   0  0  0  0  0  0  0  0  0  0  0  0
   -3.5149    3.7637   -1.4541 C   0  0  0  0  0  0  0  0  0  0  0  0
   -2.6539    2.7590   -0.6887 C   0  0  0  0  0  0  0  0  0  0  0  0
   -1.1984   -2.0612    0.6015 C   0  0  0  0  0  0  0  0  0  0  0  0
   -1.8868   -2.0606    1.8378 C   0  0  0  0  0  0  0  0  0  0  0  0
   -2.4797   -3.2133    2.3557 C   0  0  0  0  0  0  0  0  0  0  0  0
   -2.3877   -4.4050    1.6560 C   0  0  0  0  0  0  0  0  0  0  0  0
   -1.6992   -4.4380    0.4464 C   0  0  0  0  0  0  0  0  0  0  0  0
   -1.0926   -3.2819   -0.1001 C   0  0  0  0  0  0  0  0  0  0  0  0
   -0.3975   -3.4981   -1.4293 C   0  0  0  0  0  0  0  0  0  0  0  0
    0.2056   -2.2890   -2.1276 C   0  0  0  0  0  0  0  0  0  0  0  0
    8.5864    2.3678    3.6182 H   0  0  0  0  0  0  0  0  0  0  0  0
    7.0093    3.1778    3.4363 H   0  0  0  0  0  0  0  0  0  0  0  0
    7.1380    1.7368    4.4407 H   0  0  0  0  0  0  0  0  0  0  0  0
    7.6695    0.3561    2.4407 H   0  0  0  0  0  0  0  0  0  0  0  0
    7.5774    1.8190    1.4072 H   0  0  0  0  0  0  0  0  0  0  0  0
    3.5929    0.8939    1.9934 H   0  0  0  0  0  0  0  0  0  0  0  0
    4.5788   -1.1627   -0.9882 H   0  0  0  0  0  0  0  0  0  0  0  0
    2.9386   -2.2815   -2.3950 H   0  0  0  0  0  0  0  0  0  0  0  0
    1.4201    0.3143    1.5435 H   0  0  0  0  0  0  0  0  0  0  0  0
   -3.1635    0.8761    1.2345 H   0  0  0  0  0  0  0  0  0  0  0  0
   -3.1310   -0.4885    0.1131 H   0  0  0  0  0  0  0  0  0  0  0  0
   -4.6832    1.3248   -2.2299 H   0  0  0  0  0  0  0  0  0  0  0  0
   -4.9459    0.2701   -0.8684 H   0  0  0  0  0  0  0  0  0  0  0  0
   -6.4503    2.2016   -0.6961 H   0  0  0  0  0  0  0  0  0  0  0  0
   -5.2815    2.2852    0.6122 H   0  0  0  0  0  0  0  0  0  0  0  0
   -5.6202    4.0951   -1.7500 H   0  0  0  0  0  0  0  0  0  0  0  0
   -5.0766    4.4511   -0.1189 H   0  0  0  0  0  0  0  0  0  0  0  0
   -3.4926    3.5225   -2.5250 H   0  0  0  0  0  0  0  0  0  0  0  0
   -3.1027    4.7755   -1.3555 H   0  0  0  0  0  0  0  0  0  0  0  0
   -2.6604    3.0518    0.3704 H   0  0  0  0  0  0  0  0  0  0  0  0
   -1.6224    2.8416   -1.0513 H   0  0  0  0  0  0  0  0  0  0  0  0
   -1.9410   -1.1586    2.4445 H   0  0  0  0  0  0  0  0  0  0  0  0
   -3.0053   -3.1766    3.3080 H   0  0  0  0  0  0  0  0  0  0  0  0
   -2.8440   -5.3098    2.0496 H   0  0  0  0  0  0  0  0  0  0  0  0
   -1.6323   -5.3862   -0.0861 H   0  0  0  0  0  0  0  0  0  0  0  0
    0.3960   -4.2428   -1.2694 H   0  0  0  0  0  0  0  0  0  0  0  0
   -1.1235   -3.9474   -2.1201 H   0  0  0  0  0  0  0  0  0  0  0  0
    0.6717   -2.6104   -3.0687 H   0  0  0  0  0  0  0  0  0  0  0  0
   -0.5701   -1.5640   -2.4110 H   0  0  0  0  0  0  0  0  0  0  0  0
  1  2  1  0
  2  3  1  0
  3  4  1  0
  4  5  2  0
  4  6  1  0
  6  7  1  0
  7  8  2  0
  8  9  1  0
  9 10  2  0
 10 11  1  0
 11 12  2  0
 11 13  1  0
 13 14  1  0
 14 15  2  0
 14 16  1  0
 16 17  1  0
 17 18  1  0
 18 19  1  0
 19 20  1  0
 20 21  1  0
 21 22  1  0
 13 23  1  0
 23 24  2  0
 24 25  1  0
 25 26  2  0
 26 27  1  0
 27 28  2  0
 28 29  1  0
 29 30  1  0
 12  7  1  0
 22 17  1  0
 28 23  1  0
 30 10  1  0
  1 31  1  0
  1 32  1  0
  1 33  1  0
  2 34  1  0
  2 35  1  0
  6 36  1  0
  8 37  1  0
  9 38  1  0
 12 39  1  0
 16 40  1  0
 16 41  1  0
 18 42  1  0
 18 43  1  0
 19 44  1  0
 19 45  1  0
 20 46  1  0
 20 47  1  0
 21 48  1  0
 21 49  1  0
 22 50  1  0
 22 51  1  0
 24 52  1  0
 25 53  1  0
 26 54  1  0
 27 55  1  0
 29 56  1  0
 29 57  1  0
 30 58  1  0
 30 59  1  0
M  END
$$$$
