
     RDKit          3D

 56 59  0  0  0  0  0  0  0  0999 V2000
   -5.7457    1.7616    0.4201 O   0  0  0  0  0  0  0  0  0  0  0  0
   -4.9101    0.9572    0.0183 C   0  0  0  0  0  0  0  0  0  0  0  0
   -5.1909   -0.1365   -0.7708 N   0  0  0  0  0  0  0  0  0  0  0  0
   -6.4644   -0.6354   -1.1141 C   0  0  0  0  0  0  0  0  0  0  0  0
   -7.6512   -0.2500   -0.4966 C   0  0  0  0  0  0  0  0  0  0  0  0
   -8.8599   -0.8168   -0.9029 C   0  0  0  0  0  0  0  0  0  0  0  0
   -8.8416   -1.7626   -1.9141 C   0  0  0  0  0  0  0  0  0  0  0  0
   -7.7149   -2.1749   -2.5312 N   0  0  0  0  0  0  0  0  0  0  0  0
   -6.5593   -1.6022   -2.1153 C   0  0  0  0  0  0  0  0  0  0  0  0
   -3.5415    1.1068    0.2960 N   0  0  0  0  0  0  0  0  0  0  0  0
   -3.1747    2.3134    1.0339 C   0  0  0  0  0  0  0  0  0  0  0  0
   -1.7028    2.6702    0.8526 C   0  0  0  0  0  0  0  0  0  0  0  0
   -0.7859    1.4870    1.1990 C   0  0  0  0  0  0  0  0  0  0  0  0
    0.6853    1.8737    0.9528 C   0  0  0  0  0  0  0  0  0  0  0  0
    1.6720    0.8358    1.4304 C   0  0  0  0  0  0  0  0  0  0  0  0
    1.8991    0.6453    2.8019 C   0  0  0  0  0  0  0  0  0  0  0  0
    2.8036   -0.3225    3.2463 C   0  0  0  0  0  0  0  0  0  0  0  0
    3.4943   -1.1075    2.3250 C   0  0  0  0  0  0  0  0  0  0  0  0
    3.2872   -0.9078    0.9609 C   0  0  0  0  0  0  0  0  0  0  0  0
    3.9153   -1.7095    0.0404 O   0  0  0  0  0  0  0  0  0  0  0  0
    5.2373   -1.3917   -0.2586 C   0  0  0  0  0  0  0  0  0  0  0  0
    5.9022   -2.2818   -1.0889 C   0  0  0  0  0  0  0  0  0  0  0  0
    7.2235   -2.0059   -1.4338 C   0  0  0  0  0  0  0  0  0  0  0  0
    7.8374   -0.8466   -0.9482 C   0  0  0  0  0  0  0  0  0  0  0  0
    9.2589   -0.4954   -1.2607 C   0  0  0  0  0  0  0  0  0  0  0  0
    9.4395    0.8358   -1.4834 F   0  0  0  0  0  0  0  0  0  0  0  0
   10.1086   -0.8245   -0.2500 F   0  0  0  0  0  0  0  0  0  0  0  0
    9.7364   -1.1253   -2.3699 F   0  0  0  0  0  0  0  0  0  0  0  0
    7.0873   -0.0215   -0.1212 C   0  0  0  0  0  0  0  0  0  0  0  0
    5.8046   -0.2654    0.2293 N   0  0  0  0  0  0  0  0  0  0  0  0
    2.3713    0.0436    0.5102 C   0  0  0  0  0  0  0  0  0  0  0  0
   -1.2104    0.2622    0.3726 C   0  0  0  0  0  0  0  0  0  0  0  0
   -2.6905   -0.0558    0.5643 C   0  0  0  0  0  0  0  0  0  0  0  0
   -4.4174   -0.4571   -1.3332 H   0  0  0  0  0  0  0  0  0  0  0  0
   -7.6672    0.4829    0.3039 H   0  0  0  0  0  0  0  0  0  0  0  0
   -9.7935   -0.5226   -0.4359 H   0  0  0  0  0  0  0  0  0  0  0  0
   -9.7594   -2.2282   -2.2617 H   0  0  0  0  0  0  0  0  0  0  0  0
   -5.6773   -1.9622   -2.6371 H   0  0  0  0  0  0  0  0  0  0  0  0
   -3.7896    3.1560    0.6971 H   0  0  0  0  0  0  0  0  0  0  0  0
   -3.4046    2.1422    2.0930 H   0  0  0  0  0  0  0  0  0  0  0  0
   -1.4596    3.5341    1.4823 H   0  0  0  0  0  0  0  0  0  0  0  0
   -1.5329    2.9734   -0.1889 H   0  0  0  0  0  0  0  0  0  0  0  0
   -0.9228    1.2504    2.2631 H   0  0  0  0  0  0  0  0  0  0  0  0
    0.9126    2.8153    1.4702 H   0  0  0  0  0  0  0  0  0  0  0  0
    0.8456    2.0774   -0.1140 H   0  0  0  0  0  0  0  0  0  0  0  0
    1.3727    1.2533    3.5343 H   0  0  0  0  0  0  0  0  0  0  0  0
    2.9711   -0.4620    4.3109 H   0  0  0  0  0  0  0  0  0  0  0  0
    4.1961   -1.8617    2.6673 H   0  0  0  0  0  0  0  0  0  0  0  0
    5.4019   -3.1707   -1.4575 H   0  0  0  0  0  0  0  0  0  0  0  0
    7.7671   -2.6923   -2.0803 H   0  0  0  0  0  0  0  0  0  0  0  0
    7.5046    0.8920    0.2985 H   0  0  0  0  0  0  0  0  0  0  0  0
    2.2145    0.1664   -0.5579 H   0  0  0  0  0  0  0  0  0  0  0  0
   -1.0170    0.4502   -0.6916 H   0  0  0  0  0  0  0  0  0  0  0  0
   -0.6232   -0.6180    0.6573 H   0  0  0  0  0  0  0  0  0  0  0  0
   -2.8844   -0.3669    1.5984 H   0  0  0  0  0  0  0  0  0  0  0  0
   -2.9569   -0.9050   -0.0696 H   0  0  0  0  0  0  0  0  0  0  0  0
  1  2  2  0
  2  3  1  0
  3  4  1  0
  4  5  2  0
  5  6  1  0
  6  7  2  0
  7  8  1  0
  8  9  2  0
  2 10  1  0
 10 11  1  0
 11 12  1  0
 12 13  1  0
 13 14  1  0
 14 15  1  0
 15 16  2  0
 16 17  1  0
 17 18  2  0
 18 19  1  0
 19 20  1  0
 20 21  1  0
 21 22  2  0
 22 23  1  0
 23 24  2  0
 24 25  1  0
 25 26  1  0
 25 27  1  0
 25 28  1  0
 24 29  1  0
 29 30  2  0
 19 31  2  0
 13 32  1  0
 32 33  1  0
  9  4  1  0
 33 10  1  0
 31 15  1  0
 30 21  1  0
  3 34  1  0
  5 35  1  0
  6 36  1  0
  7 37  1  0
  9 38  1  0
 11 39  1  0
 11 40  1  0
 12 41  1  0
 12 42  1  0
 13 43  1  0
 14 44  1  0
 14 45  1  0
 16 46  1  0
 17 47  1  0
 18 48  1  0
 22 49  1  0
 23 50  1  0
 29 51  1  0
 31 52  1  0
 32 53  1  0
 32 54  1  0
 33 55  1  0
 33 56  1  0
M  END
$$$$
