
     RDKit          3D

 57 59  0  0  0  0  0  0  0  0999 V2000
    6.5939    1.5215   -2.9426 C   0  0  0  0  0  0  0  0  0  0  0  0
    5.5907    0.3783   -2.9624 C   0  0  0  0  0  0  0  0  0  0  0  0
    4.7222    0.3734   -1.7309 C   0  0  0  0  0  0  0  0  0  0  0  0
    3.5447    1.1291   -1.6898 C   0  0  0  0  0  0  0  0  0  0  0  0
    2.7464    1.1366   -0.5436 C   0  0  0  0  0  0  0  0  0  0  0  0
    3.1138    0.3943    0.5866 C   0  0  0  0  0  0  0  0  0  0  0  0
    2.2437    0.3954    1.8214 C   0  0  0  0  0  0  0  0  0  0  0  0
    1.0699   -0.5548    1.7378 C   0  0  0  0  0  0  0  0  0  0  0  0
    1.2342   -1.9178    2.0582 C   0  0  0  0  0  0  0  0  0  0  0  0
    0.1653   -2.8106    1.9641 C   0  0  0  0  0  0  0  0  0  0  0  0
   -1.0629   -2.3214    1.5547 C   0  0  0  0  0  0  0  0  0  0  0  0
   -1.2460   -0.9818    1.2294 C   0  0  0  0  0  0  0  0  0  0  0  0
   -0.1856   -0.0912    1.3093 C   0  0  0  0  0  0  0  0  0  0  0  0
   -2.6640   -0.7742    0.7901 C   0  0  2  0  0  0  0  0  0  0  0  0
   -3.3194   -2.0006    1.2569 O   0  0  0  0  0  0  0  0  0  0  0  0
   -2.3333   -3.0523    1.3383 C   0  0  0  0  0  0  0  0  0  0  0  0
   -2.6894   -0.7541   -0.6372 O   0  0  0  0  0  0  0  0  0  0  0  0
   -3.8751   -0.1638   -1.1580 C   0  0  2  0  0  0  0  0  0  0  0  0
   -3.9392   -0.4177   -2.6718 C   0  0  0  0  0  0  0  0  0  0  0  0
   -5.1699    0.0240   -3.2369 O   0  0  0  0  0  0  0  0  0  0  0  0
   -3.8702    1.3474   -0.8587 C   0  0  1  0  0  0  0  0  0  0  0  0
   -5.1523    1.9128   -1.1696 O   0  0  0  0  0  0  0  0  0  0  0  0
   -3.4745    1.6678    0.6003 C   0  0  2  0  0  0  0  0  0  0  0  0
   -2.2282    2.3696    0.6339 O   0  0  0  0  0  0  0  0  0  0  0  0
   -3.4193    0.4093    1.4717 C   0  0  1  0  0  0  0  0  0  0  0  0
   -4.7994    0.0342    1.7348 O   0  0  0  0  0  0  0  0  0  0  0  0
    4.2928   -0.3613    0.5440 C   0  0  0  0  0  0  0  0  0  0  0  0
    5.0917   -0.3678   -0.6022 C   0  0  0  0  0  0  0  0  0  0  0  0
   -0.1214    0.3788    0.0000 O   0  0  0  0  0  0  0  0  0  0  0  0
    6.0895    2.4927   -2.9023 H   0  0  0  0  0  0  0  0  0  0  0  0
    7.2121    1.4982   -3.8457 H   0  0  0  0  0  0  0  0  0  0  0  0
    7.2580    1.4518   -2.0743 H   0  0  0  0  0  0  0  0  0  0  0  0
    4.9603    0.4527   -3.8567 H   0  0  0  0  0  0  0  0  0  0  0  0
    6.1215   -0.5779   -3.0450 H   0  0  0  0  0  0  0  0  0  0  0  0
    3.2391    1.7159   -2.5530 H   0  0  0  0  0  0  0  0  0  0  0  0
    1.8319    1.7249   -0.5395 H   0  0  0  0  0  0  0  0  0  0  0  0
    1.8849    1.4163    2.0097 H   0  0  0  0  0  0  0  0  0  0  0  0
    2.8465    0.1478    2.7056 H   0  0  0  0  0  0  0  0  0  0  0  0
    2.2078   -2.2884    2.3718 H   0  0  0  0  0  0  0  0  0  0  0  0
    0.3031   -3.8611    2.1997 H   0  0  0  0  0  0  0  0  0  0  0  0
   -0.3143    0.9501    1.0326 H   0  0  0  0  0  0  0  0  0  0  0  0
   -2.3272   -3.6116    0.3978 H   0  0  0  0  0  0  0  0  0  0  0  0
   -2.5921   -3.7061    2.1751 H   0  0  0  0  0  0  0  0  0  0  0  0
   -4.7637   -0.6387   -0.7219 H   0  0  0  0  0  0  0  0  0  0  0  0
   -3.8380   -1.4889   -2.8767 H   0  0  0  0  0  0  0  0  0  0  0  0
   -3.1127    0.0794   -3.1918 H   0  0  0  0  0  0  0  0  0  0  0  0
   -5.3273    0.9361   -2.9170 H   0  0  0  0  0  0  0  0  0  0  0  0
   -3.1524    1.8391   -1.5271 H   0  0  0  0  0  0  0  0  0  0  0  0
   -5.7854    1.5706   -0.5062 H   0  0  0  0  0  0  0  0  0  0  0  0
   -4.2147    2.3540    1.0319 H   0  0  0  0  0  0  0  0  0  0  0  0
   -2.3743    3.2260    0.1901 H   0  0  0  0  0  0  0  0  0  0  0  0
   -2.9767    0.6288    2.4504 H   0  0  0  0  0  0  0  0  0  0  0  0
   -4.7603   -0.9264    1.9359 H   0  0  0  0  0  0  0  0  0  0  0  0
    4.5989   -0.9514    1.4047 H   0  0  0  0  0  0  0  0  0  0  0  0
    6.0052   -0.9582   -0.6089 H   0  0  0  0  0  0  0  0  0  0  0  0
    0.7878    0.0435    0.0000 H   0  0  0  0  0  0  0  0  0  0  0  0
   -0.6664   -0.4223    0.0000 H   0  0  0  0  0  0  0  0  0  0  0  0
  1  2  1  0
  2  3  1  0
  3  4  2  0
  4  5  1  0
  5  6  2  0
  6  7  1  0
  7  8  1  0
  8  9  2  0
  9 10  1  0
 10 11  2  0
 11 12  1  0
 12 13  2  0
 12 14  1  0
 14 15  1  1
 15 16  1  0
 14 17  1  0
 17 18  1  0
 18 19  1  0
 19 20  1  0
 18 21  1  0
 21 22  1  0
 21 23  1  0
 23 24  1  0
 23 25  1  0
 25 26  1  0
  6 27  1  0
 27 28  2  0
 28  3  1  0
 13  8  1  0
 25 14  1  0
 16 11  1  0
  1 30  1  0
  1 31  1  0
  1 32  1  0
  2 33  1  0
  2 34  1  0
  4 35  1  0
  5 36  1  0
  7 37  1  0
  7 38  1  0
  9 39  1  0
 10 40  1  0
 13 41  1  0
 16 42  1  0
 16 43  1  0
 18 44  1  1
 19 45  1  0
 19 46  1  0
 20 47  1  0
 21 48  1  6
 22 49  1  0
 23 50  1  1
 24 51  1  0
 25 52  1  1
 26 53  1  0
 27 54  1  0
 28 55  1  0
 29 56  1  0
 29 57  1  0
M  END
$$$$
