
     RDKit          3D

 55 59  0  0  0  0  0  0  0  0999 V2000
    7.1094    1.1473   -0.1039 O   0  0  0  0  0  0  0  0  0  0  0  0
    5.8120    0.5770    0.0376 C   0  0  1  0  0  0  0  0  0  0  0  0
    5.0455    0.7659   -1.2632 C   0  0  0  0  0  0  0  0  0  0  0  0
    3.6198    0.2164   -1.1751 C   0  0  0  0  0  0  0  0  0  0  0  0
    3.4676   -1.0061   -0.2457 C   0  0  2  0  0  0  0  0  0  0  0  0
    3.0497   -0.5894    1.0926 N   0  0  0  0  0  0  0  0  0  0  0  0
    1.6748   -0.5145    1.2980 C   0  0  0  0  0  0  0  0  0  0  0  0
    1.2802   -0.8988    2.5275 N   0  0  0  0  0  0  0  0  0  0  0  0
   -0.0402   -0.8568    2.8402 C   0  0  0  0  0  0  0  0  0  0  0  0
   -0.9518   -0.4250    1.8890 C   0  0  0  0  0  0  0  0  0  0  0  0
   -2.3076   -0.2633    1.9105 N   0  0  0  0  0  0  0  0  0  0  0  0
   -2.6319    0.1946    0.7191 C   0  0  0  0  0  0  0  0  0  0  0  0
   -3.8587    0.5669    0.2758 N   0  0  0  0  0  0  0  0  0  0  0  0
   -5.0547    0.3563    1.0085 C   0  0  0  0  0  0  0  0  0  0  0  0
   -6.0153    1.3801    1.0464 C   0  0  0  0  0  0  0  0  0  0  0  0
   -5.7842    2.5149    0.3661 F   0  0  0  0  0  0  0  0  0  0  0  0
   -7.1978    1.2608    1.7686 C   0  0  0  0  0  0  0  0  0  0  0  0
   -7.4368    0.0878    2.4692 C   0  0  0  0  0  0  0  0  0  0  0  0
   -8.5723   -0.0422    3.1666 F   0  0  0  0  0  0  0  0  0  0  0  0
   -6.5244   -0.9578    2.4477 C   0  0  0  0  0  0  0  0  0  0  0  0
   -5.3451   -0.8194    1.7182 C   0  0  0  0  0  0  0  0  0  0  0  0
   -4.5210   -1.8766    1.6616 F   0  0  0  0  0  0  0  0  0  0  0  0
   -1.5108    0.3021   -0.0951 N   0  0  0  0  0  0  0  0  0  0  0  0
   -1.5244    0.7236   -1.4762 C   0  0  1  0  0  0  0  0  0  0  0  0
   -0.2101    0.8619   -2.2285 C   0  0  0  0  0  0  0  0  0  0  0  0
   -0.6843    0.9213   -3.6637 C   0  0  0  0  0  0  0  0  0  0  0  0
   -1.8348    0.0685   -3.7445 O   0  0  0  0  0  0  0  0  0  0  0  0
   -2.2677   -0.2315   -2.4056 C   0  0  0  0  0  0  0  0  0  0  0  0
   -0.4287   -0.0696    0.6610 C   0  0  0  0  0  0  0  0  0  0  0  0
    0.8660   -0.0941    0.3115 N   0  0  0  0  0  0  0  0  0  0  0  0
    4.7962   -1.7681   -0.1306 C   0  0  0  0  0  0  0  0  0  0  0  0
    5.9462   -0.9046    0.3980 C   0  0  0  0  0  0  0  0  0  0  0  0
    7.5491    1.0797    0.7611 H   0  0  0  0  0  0  0  0  0  0  0  0
    5.3018    1.1198    0.8421 H   0  0  0  0  0  0  0  0  0  0  0  0
    5.0223    1.8257   -1.5454 H   0  0  0  0  0  0  0  0  0  0  0  0
    5.5852    0.2653   -2.0786 H   0  0  0  0  0  0  0  0  0  0  0  0
    3.3053   -0.0643   -2.1885 H   0  0  0  0  0  0  0  0  0  0  0  0
    2.9502    1.0283   -0.8673 H   0  0  0  0  0  0  0  0  0  0  0  0
    2.7281   -1.6966   -0.6738 H   0  0  0  0  0  0  0  0  0  0  0  0
    3.3694   -1.1839    1.8532 H   0  0  0  0  0  0  0  0  0  0  0  0
   -0.3265   -1.1633    3.8375 H   0  0  0  0  0  0  0  0  0  0  0  0
   -3.9269    1.4124   -0.2872 H   0  0  0  0  0  0  0  0  0  0  0  0
   -7.9185    2.0698    1.7855 H   0  0  0  0  0  0  0  0  0  0  0  0
   -6.7281   -1.8779    2.9839 H   0  0  0  0  0  0  0  0  0  0  0  0
   -2.0159    1.7065   -1.4944 H   0  0  0  0  0  0  0  0  0  0  0  0
    0.3768    1.7377   -1.9375 H   0  0  0  0  0  0  0  0  0  0  0  0
    0.4139   -0.0314   -2.1122 H   0  0  0  0  0  0  0  0  0  0  0  0
    0.0759    0.5838   -4.3736 H   0  0  0  0  0  0  0  0  0  0  0  0
   -0.9966    1.9343   -3.9390 H   0  0  0  0  0  0  0  0  0  0  0  0
   -2.0231   -1.2804   -2.2011 H   0  0  0  0  0  0  0  0  0  0  0  0
   -3.3543   -0.1175   -2.3557 H   0  0  0  0  0  0  0  0  0  0  0  0
    4.6825   -2.6504    0.5114 H   0  0  0  0  0  0  0  0  0  0  0  0
    5.0684   -2.1460   -1.1250 H   0  0  0  0  0  0  0  0  0  0  0  0
    5.9989   -0.9899    1.4910 H   0  0  0  0  0  0  0  0  0  0  0  0
    6.8971   -1.3123    0.0322 H   0  0  0  0  0  0  0  0  0  0  0  0
  1  2  1  0
  2  3  1  0
  3  4  1  0
  4  5  1  0
  5  6  1  0
  6  7  1  0
  7  8  2  0
  8  9  1  0
  9 10  2  0
 10 11  1  0
 11 12  2  0
 12 13  1  0
 13 14  1  0
 14 15  2  0
 15 16  1  0
 15 17  1  0
 17 18  2  0
 18 19  1  0
 18 20  1  0
 20 21  2  0
 21 22  1  0
 12 23  1  0
 23 24  1  0
 24 25  1  0
 25 26  1  0
 26 27  1  0
 27 28  1  0
 23 29  1  0
 29 30  2  0
  5 31  1  0
 31 32  1  0
 32  2  1  0
 30  7  1  0
 29 10  1  0
 21 14  1  0
 28 24  1  0
  1 33  1  0
  2 34  1  1
  3 35  1  0
  3 36  1  0
  4 37  1  0
  4 38  1  0
  5 39  1  6
  6 40  1  0
  9 41  1  0
 13 42  1  0
 17 43  1  0
 20 44  1  0
 24 45  1  1
 25 46  1  0
 25 47  1  0
 26 48  1  0
 26 49  1  0
 28 50  1  0
 28 51  1  0
 31 52  1  0
 31 53  1  0
 32 54  1  0
 32 55  1  0
M  END
$$$$
