
     RDKit          3D

 21 22  0  0  0  0  0  0  0  0999 V2000
    3.6443    1.3871   -1.2354 O   0  0  0  0  0  0  0  0  0  0  0  0
    3.2603    0.4725   -0.5285 C   0  0  0  0  0  0  0  0  0  0  0  0
    4.1576   -0.3573    0.0467 O   0  0  0  0  0  0  0  0  0  0  0  0
    1.8440    0.1245   -0.1916 C   0  0  0  0  0  0  0  0  0  0  0  0
    1.5397   -0.9454    0.6291 C   0  0  0  0  0  0  0  0  0  0  0  0
    0.2010   -1.1957    0.8943 C   0  0  0  0  0  0  0  0  0  0  0  0
   -0.0373   -2.2567    1.7271 O   0  0  0  0  0  0  0  0  0  0  0  0
   -0.8184   -0.3973    0.3344 C   0  0  0  0  0  0  0  0  0  0  0  0
   -2.2086   -0.5965    0.5298 C   0  0  0  0  0  0  0  0  0  0  0  0
   -3.1461    0.2491   -0.0632 C   0  0  0  0  0  0  0  0  0  0  0  0
   -2.7144    1.2999   -0.8592 C   0  0  0  0  0  0  0  0  0  0  0  0
   -1.3474    1.4966   -1.0621 C   0  0  0  0  0  0  0  0  0  0  0  0
   -0.3925    0.6704   -0.4860 C   0  0  0  0  0  0  0  0  0  0  0  0
    0.8986    0.9280   -0.7414 N   0  0  0  0  0  0  0  0  0  0  0  0
    5.0178   -0.0040   -0.2658 H   0  0  0  0  0  0  0  0  0  0  0  0
    2.3117   -1.5715    1.0614 H   0  0  0  0  0  0  0  0  0  0  0  0
   -0.9665   -2.2599    2.0018 H   0  0  0  0  0  0  0  0  0  0  0  0
   -2.5850   -1.4152    1.1351 H   0  0  0  0  0  0  0  0  0  0  0  0
   -4.2094    0.0849    0.0940 H   0  0  0  0  0  0  0  0  0  0  0  0
   -3.4335    1.9665   -1.3284 H   0  0  0  0  0  0  0  0  0  0  0  0
   -1.0161    2.3200   -1.6922 H   0  0  0  0  0  0  0  0  0  0  0  0
  1  2  2  0
  2  3  1  0
  2  4  1  0
  4  5  2  0
  5  6  1  0
  6  7  1  0
  6  8  2  0
  8  9  1  0
  9 10  2  0
 10 11  1  0
 11 12  2  0
 12 13  1  0
 13 14  2  0
 14  4  1  0
 13  8  1  0
  3 15  1  0
  5 16  1  0
  7 17  1  0
  9 18  1  0
 10 19  1  0
 11 20  1  0
 12 21  1  0
M  END
$$$$
