
     RDKit          3D

 36 37  0  0  0  0  0  0  0  0999 V2000
   -3.7376    3.3078    0.5242 C   0  0  0  0  0  0  0  0  0  0  0  0
   -2.6390    2.2856    0.3700 C   0  0  0  0  0  0  0  0  0  0  0  0
   -1.4680    2.6340    0.2604 O   0  0  0  0  0  0  0  0  0  0  0  0
   -3.1257    0.9904    0.3234 N   0  0  0  0  0  0  0  0  0  0  0  0
   -2.3763   -0.2062    0.2191 C   0  0  0  0  0  0  0  0  0  0  0  0
   -0.9828   -0.2214    0.3671 C   0  0  0  0  0  0  0  0  0  0  0  0
   -0.2536   -1.4105    0.2322 C   0  0  0  0  0  0  0  0  0  0  0  0
    1.2337   -1.4471    0.3654 C   0  0  0  0  0  0  0  0  0  0  0  0
    1.7506   -2.4814    0.7723 O   0  0  0  0  0  0  0  0  0  0  0  0
    1.8924   -0.2948   -0.0275 N   0  0  0  0  0  0  0  0  0  0  0  0
    3.2792   -0.0409    0.0198 C   0  0  0  0  0  0  0  0  0  0  0  0
    4.2220   -0.9356    0.5348 C   0  0  0  0  0  0  0  0  0  0  0  0
    5.5807   -0.6033    0.5470 C   0  0  0  0  0  0  0  0  0  0  0  0
    5.9943    0.6236    0.0465 C   0  0  0  0  0  0  0  0  0  0  0  0
    7.2955    0.9400    0.0594 F   0  0  0  0  0  0  0  0  0  0  0  0
    5.0744    1.5280   -0.4660 C   0  0  0  0  0  0  0  0  0  0  0  0
    3.7174    1.1959   -0.4784 C   0  0  0  0  0  0  0  0  0  0  0  0
   -0.9299   -2.6083   -0.0049 C   0  0  0  0  0  0  0  0  0  0  0  0
   -2.3184   -2.6130   -0.1290 C   0  0  0  0  0  0  0  0  0  0  0  0
   -3.0551   -1.4205   -0.0229 C   0  0  0  0  0  0  0  0  0  0  0  0
   -4.5512   -1.4933   -0.1766 C   0  0  0  0  0  0  0  0  0  0  0  0
   -3.3413    4.1901    1.0349 H   0  0  0  0  0  0  0  0  0  0  0  0
   -4.1070    3.5925   -0.4644 H   0  0  0  0  0  0  0  0  0  0  0  0
   -4.5627    2.9126    1.1238 H   0  0  0  0  0  0  0  0  0  0  0  0
   -4.1317    0.8955    0.2840 H   0  0  0  0  0  0  0  0  0  0  0  0
   -0.4544    0.6862    0.6351 H   0  0  0  0  0  0  0  0  0  0  0  0
    1.3321    0.4426   -0.4372 H   0  0  0  0  0  0  0  0  0  0  0  0
    3.9326   -1.9009    0.9378 H   0  0  0  0  0  0  0  0  0  0  0  0
    6.3129   -1.2979    0.9461 H   0  0  0  0  0  0  0  0  0  0  0  0
    5.4161    2.4834   -0.8504 H   0  0  0  0  0  0  0  0  0  0  0  0
    3.0096    1.9169   -0.8801 H   0  0  0  0  0  0  0  0  0  0  0  0
   -0.3769   -3.5421   -0.0908 H   0  0  0  0  0  0  0  0  0  0  0  0
   -2.8220   -3.5606   -0.3120 H   0  0  0  0  0  0  0  0  0  0  0  0
   -4.8782   -0.8686   -1.0141 H   0  0  0  0  0  0  0  0  0  0  0  0
   -5.0435   -1.1634    0.7438 H   0  0  0  0  0  0  0  0  0  0  0  0
   -4.8882   -2.5153   -0.3808 H   0  0  0  0  0  0  0  0  0  0  0  0
  1  2  1  0
  2  3  2  0
  2  4  1  0
  4  5  1  0
  5  6  2  0
  6  7  1  0
  7  8  1  0
  8  9  2  0
  8 10  1  0
 10 11  1  0
 11 12  2  0
 12 13  1  0
 13 14  2  0
 14 15  1  0
 14 16  1  0
 16 17  2  0
  7 18  2  0
 18 19  1  0
 19 20  2  0
 20 21  1  0
 20  5  1  0
 17 11  1  0
  1 22  1  0
  1 23  1  0
  1 24  1  0
  4 25  1  0
  6 26  1  0
 10 27  1  0
 12 28  1  0
 13 29  1  0
 16 30  1  0
 17 31  1  0
 18 32  1  0
 19 33  1  0
 21 34  1  0
 21 35  1  0
 21 36  1  0
M  END
$$$$
