
     RDKit          3D

 58 61  0  0  0  0  0  0  0  0999 V2000
    4.8291    2.8522    1.1903 C   0  0  0  0  0  0  0  0  0  0  0  0
    4.6523    1.4228    0.8236 C   0  0  0  0  0  0  0  0  0  0  0  0
    3.6524    0.7936    0.0983 C   0  0  0  0  0  0  0  0  0  0  0  0
    2.2327    1.4802   -0.5890 S   0  0  0  0  0  6  0  0  0  0  0  0
    2.6906    2.0032   -1.8567 O   0  0  0  0  0  0  0  0  0  0  0  0
    1.7362    2.3415    0.4626 O   0  0  0  0  0  0  0  0  0  0  0  0
    1.0799    0.2782   -0.8721 N   0  0  0  0  0  0  0  0  0  0  0  0
    1.1894   -0.5322   -2.1019 C   0  0  0  0  0  0  0  0  0  0  0  0
    0.7895   -1.9784   -1.8462 C   0  0  0  0  0  0  0  0  0  0  0  0
   -0.6138   -2.0879   -1.2546 C   0  0  0  0  0  0  0  0  0  0  0  0
   -0.8758   -1.0990   -0.0934 C   0  0  0  0  0  0  0  0  0  0  0  0
   -2.0452   -0.2082   -0.3118 N   0  0  0  0  0  0  0  0  0  0  0  0
   -2.0143    0.6406   -1.4175 C   0  0  0  0  0  0  0  0  0  0  0  0
   -2.3806    0.3206   -2.5412 O   0  0  0  0  0  0  0  0  0  0  0  0
   -1.5462    2.0251   -1.1567 C   0  0  0  0  0  0  0  0  0  0  0  0
   -2.5730    3.1094   -0.9510 C   0  0  0  0  0  0  0  0  0  0  0  0
   -1.6774    2.7073    0.1765 C   0  0  0  0  0  0  0  0  0  0  0  0
   -3.3898   -0.7048    0.0361 C   0  0  0  0  0  0  0  0  0  0  0  0
   -3.7952   -2.0157   -0.6425 C   0  0  0  0  0  0  0  0  0  0  0  0
   -5.2315   -2.3773   -0.2790 C   0  0  0  0  0  0  0  0  0  0  0  0
   -5.6043   -2.0110    1.0515 O   0  0  0  0  0  0  0  0  0  0  0  0
   -4.5109   -1.9309    1.9546 C   0  0  0  0  0  0  0  0  0  0  0  0
   -3.6005   -0.7746    1.5589 C   0  0  0  0  0  0  0  0  0  0  0  0
    0.4088   -0.3276    0.2987 C   0  0  0  0  0  0  0  0  0  0  0  0
    4.0541   -0.5384   -0.0095 C   0  0  0  0  0  0  0  0  0  0  0  0
    5.1986   -0.7819    0.6342 N   0  0  0  0  0  0  0  0  0  0  0  0
    5.5360    0.4198    1.1758 N   0  0  0  0  0  0  0  0  0  0  0  0
    6.7562    0.5137    1.9870 C   0  0  0  0  0  0  0  0  0  0  0  0
    7.0279    1.7833    2.3966 F   0  0  0  0  0  0  0  0  0  0  0  0
    6.6645   -0.2412    3.1144 F   0  0  0  0  0  0  0  0  0  0  0  0
    5.8431    3.1908    0.9421 H   0  0  0  0  0  0  0  0  0  0  0  0
    4.6519    3.0031    2.2630 H   0  0  0  0  0  0  0  0  0  0  0  0
    4.1387    3.4954    0.6321 H   0  0  0  0  0  0  0  0  0  0  0  0
    2.2122   -0.5155   -2.4990 H   0  0  0  0  0  0  0  0  0  0  0  0
    0.5422   -0.0900   -2.8678 H   0  0  0  0  0  0  0  0  0  0  0  0
    1.5027   -2.4492   -1.1611 H   0  0  0  0  0  0  0  0  0  0  0  0
    0.8403   -2.5478   -2.7808 H   0  0  0  0  0  0  0  0  0  0  0  0
   -0.7430   -3.1165   -0.8862 H   0  0  0  0  0  0  0  0  0  0  0  0
   -1.3458   -1.9714   -2.0616 H   0  0  0  0  0  0  0  0  0  0  0  0
   -1.1278   -1.6966    0.7920 H   0  0  0  0  0  0  0  0  0  0  0  0
   -0.6965    2.3064   -1.7690 H   0  0  0  0  0  0  0  0  0  0  0  0
   -3.6201    2.8384   -0.8852 H   0  0  0  0  0  0  0  0  0  0  0  0
   -2.3980    4.0655   -1.4364 H   0  0  0  0  0  0  0  0  0  0  0  0
   -2.1083    2.1562    1.0096 H   0  0  0  0  0  0  0  0  0  0  0  0
   -0.8949    3.3794    0.4625 H   0  0  0  0  0  0  0  0  0  0  0  0
   -4.0918    0.0576   -0.3355 H   0  0  0  0  0  0  0  0  0  0  0  0
   -3.6913   -1.9587   -1.7331 H   0  0  0  0  0  0  0  0  0  0  0  0
   -3.1346   -2.8229   -0.3064 H   0  0  0  0  0  0  0  0  0  0  0  0
   -5.4024   -3.4529   -0.4148 H   0  0  0  0  0  0  0  0  0  0  0  0
   -5.9230   -1.8550   -0.9507 H   0  0  0  0  0  0  0  0  0  0  0  0
   -3.9720   -2.8863    1.9675 H   0  0  0  0  0  0  0  0  0  0  0  0
   -4.9075   -1.7701    2.9637 H   0  0  0  0  0  0  0  0  0  0  0  0
   -2.6666   -0.8419    2.1184 H   0  0  0  0  0  0  0  0  0  0  0  0
   -4.0649    0.1670    1.8718 H   0  0  0  0  0  0  0  0  0  0  0  0
    0.1497    0.4428    1.0315 H   0  0  0  0  0  0  0  0  0  0  0  0
    1.1048   -1.0157    0.7878 H   0  0  0  0  0  0  0  0  0  0  0  0
    3.5756   -1.3538   -0.5286 H   0  0  0  0  0  0  0  0  0  0  0  0
    7.5879    0.1592    1.3767 H   0  0  0  0  0  0  0  0  0  0  0  0
  1  2  1  0
  2  3  2  0
  3  4  1  0
  4  5  2  0
  4  6  2  0
  4  7  1  0
  7  8  1  0
  8  9  1  0
  9 10  1  0
 10 11  1  0
 11 12  1  0
 12 13  1  0
 13 14  2  0
 13 15  1  0
 15 16  1  0
 16 17  1  0
 12 18  1  0
 18 19  1  0
 19 20  1  0
 20 21  1  0
 21 22  1  0
 22 23  1  0
 11 24  1  0
  3 25  1  0
 25 26  2  0
 26 27  1  0
 27 28  1  0
 28 29  1  0
 28 30  1  0
 27  2  1  0
 24  7  1  0
 17 15  1  0
 23 18  1  0
  1 31  1  0
  1 32  1  0
  1 33  1  0
  8 34  1  0
  8 35  1  0
  9 36  1  0
  9 37  1  0
 10 38  1  0
 10 39  1  0
 11 40  1  0
 15 41  1  0
 16 42  1  0
 16 43  1  0
 17 44  1  0
 17 45  1  0
 18 46  1  0
 19 47  1  0
 19 48  1  0
 20 49  1  0
 20 50  1  0
 22 51  1  0
 22 52  1  0
 23 53  1  0
 23 54  1  0
 24 55  1  0
 24 56  1  0
 25 57  1  0
 28 58  1  0
M  END
$$$$
