
     RDKit          3D

138141  0  0  0  0  0  0  0  0999 V2000
   10.0610   -5.2354    0.0637 N   0  0  0  0  0  0  0  0  0  0  0  0
   10.5896   -4.5447   -1.1125 C   0  0  0  0  0  0  0  0  0  0  0  0
    9.8550   -3.2333   -1.3952 C   0  0  0  0  0  0  0  0  0  0  0  0
    8.4185   -3.4311   -1.9031 C   0  0  0  0  0  0  0  0  0  0  0  0
    7.6966   -2.1117   -2.2232 C   0  0  0  0  0  0  0  0  0  0  0  0
    7.1787   -1.3892   -0.9753 C   0  0  2  0  0  0  0  0  0  0  0  0
    6.1051   -0.4211   -1.2214 N   0  0  0  0  0  0  0  0  0  0  0  0
    6.1248    0.5441   -2.2177 C   0  0  0  0  0  0  0  0  0  0  0  0
    6.9248    0.5342   -3.1548 O   0  0  0  0  0  0  0  0  0  0  0  0
    5.2129    1.7517   -1.9233 C   0  0  2  0  0  0  0  0  0  0  0  0
    6.0527    2.8158   -1.2055 C   0  0  0  0  0  0  0  0  0  0  0  0
    5.1063    3.4000   -0.1677 C   0  0  0  0  0  0  0  0  0  0  0  0
    4.2696    2.2054    0.2524 C   0  0  0  0  0  0  0  0  0  0  0  0
    4.1468    1.4117   -0.9589 N   0  0  0  0  0  0  0  0  0  0  0  0
    2.9848    0.7904   -1.3992 C   0  0  0  0  0  0  0  0  0  0  0  0
    2.7958    0.5585   -2.5951 O   0  0  0  0  0  0  0  0  0  0  0  0
    2.0374    0.1959   -0.3232 C   0  0  2  0  0  0  0  0  0  0  0  0
    2.6243   -1.2077   -0.0802 C   0  0  0  0  0  0  0  0  0  0  0  0
    1.8088   -2.1665    1.2353 S   0  0  0  0  0  0  0  0  0  0  0  0
    1.1171   -3.8104    0.2000 S   0  0  0  0  0  0  0  0  0  0  0  0
   -0.4962   -4.1784    0.9868 C   0  0  0  0  0  0  0  0  0  0  0  0
   -1.7953   -3.6275    0.3608 C   0  0  2  0  0  0  0  0  0  0  0  0
   -1.8003   -3.5771   -1.1130 N   0  0  0  0  0  0  0  0  0  0  0  0
   -2.1764   -2.2495    0.9406 C   0  0  0  0  0  0  0  0  0  0  0  0
   -1.3446   -1.4832    1.4398 O   0  0  0  0  0  0  0  0  0  0  0  0
   -3.4877   -1.8410    0.9064 N   0  0  0  0  0  0  0  0  0  0  0  0
   -4.6903   -2.6123    0.5598 C   0  0  1  0  0  0  0  0  0  0  0  0
   -5.5607   -2.7929    1.8148 C   0  0  0  0  0  0  0  0  0  0  0  0
   -6.7021   -3.7706    1.6456 C   0  0  0  0  0  0  0  0  0  0  0  0
   -8.0211   -3.3072    1.5208 C   0  0  0  0  0  0  0  0  0  0  0  0
   -9.0773   -4.2050    1.3323 C   0  0  0  0  0  0  0  0  0  0  0  0
   -8.8080   -5.5675    1.2679 C   0  0  0  0  0  0  0  0  0  0  0  0
   -9.8039   -6.4819    1.0818 O   0  0  0  0  0  0  0  0  0  0  0  0
   -7.5112   -6.0444    1.3914 C   0  0  0  0  0  0  0  0  0  0  0  0
   -6.4565   -5.1505    1.5819 C   0  0  0  0  0  0  0  0  0  0  0  0
   -5.5206   -2.1070   -0.6492 C   0  0  0  0  0  0  0  0  0  0  0  0
   -5.9867   -2.9272   -1.4543 O   0  0  0  0  0  0  0  0  0  0  0  0
   -5.9024   -0.8170   -0.8332 N   0  0  0  0  0  0  0  0  0  0  0  0
   -5.2406    0.4361   -0.4654 C   0  0  1  0  0  0  0  0  0  0  0  0
   -5.4719    1.5189   -1.5498 C   0  0  0  0  0  0  0  0  0  0  0  0
   -6.9122    1.8899   -1.8471 C   0  0  0  0  0  0  0  0  0  0  0  0
   -7.6352    2.7261   -0.9851 C   0  0  0  0  0  0  0  0  0  0  0  0
   -8.9463    3.0966   -1.2859 C   0  0  0  0  0  0  0  0  0  0  0  0
   -9.5436    2.6508   -2.4598 C   0  0  0  0  0  0  0  0  0  0  0  0
   -8.8406    1.8134   -3.3262 C   0  0  0  0  0  0  0  0  0  0  0  0
   -7.5322    1.4335   -3.0196 C   0  0  0  0  0  0  0  0  0  0  0  0
   -5.6642    0.9434    0.9304 C   0  0  0  0  0  0  0  0  0  0  0  0
   -6.6286    0.4817    1.5488 O   0  0  0  0  0  0  0  0  0  0  0  0
   -4.9654    1.9634    1.5251 N   0  0  0  0  0  0  0  0  0  0  0  0
   -3.5799    2.3544    1.2238 C   0  0  1  0  0  0  0  0  0  0  0  0
   -3.3016    3.7791    1.7120 C   0  0  0  0  0  0  0  0  0  0  0  0
   -4.0451    4.8199    0.8793 C   0  0  0  0  0  0  0  0  0  0  0  0
   -3.5198    6.2148    1.1385 C   0  0  0  0  0  0  0  0  0  0  0  0
   -4.3320    7.2086    0.6796 N   0  0  0  0  0  0  0  0  0  0  0  0
   -2.4408    6.4615    1.6698 O   0  0  0  0  0  0  0  0  0  0  0  0
   -2.6328    1.3438    1.9033 C   0  0  0  0  0  0  0  0  0  0  0  0
   -3.0503    0.5722    2.7768 O   0  0  0  0  0  0  0  0  0  0  0  0
   -1.3156    1.2944    1.5504 N   0  0  0  0  0  0  0  0  0  0  0  0
   -0.6456    1.9668    0.4224 C   0  0  1  0  0  0  0  0  0  0  0  0
    0.4432    2.8830    0.9483 C   0  0  0  0  0  0  0  0  0  0  0  0
    0.9905    3.7531   -0.1484 C   0  0  0  0  0  0  0  0  0  0  0  0
    1.1304    5.0711    0.1611 N   0  0  0  0  0  0  0  0  0  0  0  0
    1.3476    3.3166   -1.2328 O   0  0  0  0  0  0  0  0  0  0  0  0
   -0.4232    0.9325   -0.7049 C   0  0  0  0  0  0  0  0  0  0  0  0
   -1.3992    0.6884   -1.4320 O   0  0  0  0  0  0  0  0  0  0  0  0
    0.6650    0.1352   -0.8437 N   0  0  0  0  0  0  0  0  0  0  0  0
    8.2632   -0.6277   -0.1850 C   0  0  0  0  0  0  0  0  0  0  0  0
    9.1293    0.0780   -0.6985 O   0  0  0  0  0  0  0  0  0  0  0  0
    8.1075   -0.7149    1.1888 N   0  0  0  0  0  0  0  0  0  0  0  0
    8.8517    0.1717    2.0652 C   0  0  0  0  0  0  0  0  0  0  0  0
    7.9737    1.3895    2.3585 C   0  0  0  0  0  0  0  0  0  0  0  0
    8.6364    2.5776    2.5174 N   0  0  0  0  0  0  0  0  0  0  0  0
    6.7579    1.3129    2.5066 O   0  0  0  0  0  0  0  0  0  0  0  0
   10.0973   -4.6088    0.8694 H   0  0  0  0  0  0  0  0  0  0  0  0
    9.0804   -5.4606   -0.0792 H   0  0  0  0  0  0  0  0  0  0  0  0
   11.6468   -4.3276   -0.9359 H   0  0  0  0  0  0  0  0  0  0  0  0
   10.5337   -5.2119   -1.9801 H   0  0  0  0  0  0  0  0  0  0  0  0
    9.8638   -2.6229   -0.4868 H   0  0  0  0  0  0  0  0  0  0  0  0
   10.4185   -2.6754   -2.1528 H   0  0  0  0  0  0  0  0  0  0  0  0
    8.4597   -4.0323   -2.8213 H   0  0  0  0  0  0  0  0  0  0  0  0
    7.8268   -4.0094   -1.1814 H   0  0  0  0  0  0  0  0  0  0  0  0
    6.8361   -2.3621   -2.8578 H   0  0  0  0  0  0  0  0  0  0  0  0
    8.3576   -1.4744   -2.8230 H   0  0  0  0  0  0  0  0  0  0  0  0
    6.7223   -2.1332   -0.3127 H   0  0  0  0  0  0  0  0  0  0  0  0
    5.5439   -0.1541   -0.4210 H   0  0  0  0  0  0  0  0  0  0  0  0
    4.7622    2.1179   -2.8532 H   0  0  0  0  0  0  0  0  0  0  0  0
    6.4255    3.5760   -1.8981 H   0  0  0  0  0  0  0  0  0  0  0  0
    6.9229    2.3759   -0.7016 H   0  0  0  0  0  0  0  0  0  0  0  0
    4.4717    4.1612   -0.6350 H   0  0  0  0  0  0  0  0  0  0  0  0
    5.6331    3.8676    0.6697 H   0  0  0  0  0  0  0  0  0  0  0  0
    4.7825    1.5942    0.9970 H   0  0  0  0  0  0  0  0  0  0  0  0
    3.3102    2.5165    0.6534 H   0  0  0  0  0  0  0  0  0  0  0  0
    2.0559    0.7623    0.5983 H   0  0  0  0  0  0  0  0  0  0  0  0
    2.6536   -1.7821   -1.0152 H   0  0  0  0  0  0  0  0  0  0  0  0
    3.6680   -1.1165    0.2470 H   0  0  0  0  0  0  0  0  0  0  0  0
   -0.5546   -5.2747    0.9334 H   0  0  0  0  0  0  0  0  0  0  0  0
   -0.4384   -3.9372    2.0525 H   0  0  0  0  0  0  0  0  0  0  0  0
   -2.5694   -4.3339    0.6848 H   0  0  0  0  0  0  0  0  0  0  0  0
   -1.6264   -4.5037   -1.4971 H   0  0  0  0  0  0  0  0  0  0  0  0
   -2.7079   -3.2706   -1.4590 H   0  0  0  0  0  0  0  0  0  0  0  0
   -3.6166   -0.9885    1.4491 H   0  0  0  0  0  0  0  0  0  0  0  0
   -4.3639   -3.6052    0.2424 H   0  0  0  0  0  0  0  0  0  0  0  0
   -4.9331   -3.1562    2.6433 H   0  0  0  0  0  0  0  0  0  0  0  0
   -5.9517   -1.8255    2.1571 H   0  0  0  0  0  0  0  0  0  0  0  0
   -8.2313   -2.2392    1.5587 H   0  0  0  0  0  0  0  0  0  0  0  0
  -10.0830   -3.8178    1.2233 H   0  0  0  0  0  0  0  0  0  0  0  0
  -10.6575   -6.0146    1.1216 H   0  0  0  0  0  0  0  0  0  0  0  0
   -7.3236   -7.1136    1.3308 H   0  0  0  0  0  0  0  0  0  0  0  0
   -5.4477   -5.5427    1.6789 H   0  0  0  0  0  0  0  0  0  0  0  0
   -6.5866   -0.7512   -1.5780 H   0  0  0  0  0  0  0  0  0  0  0  0
   -4.1707    0.2209   -0.4318 H   0  0  0  0  0  0  0  0  0  0  0  0
   -4.9499    2.4497   -1.2993 H   0  0  0  0  0  0  0  0  0  0  0  0
   -5.0060    1.1719   -2.4840 H   0  0  0  0  0  0  0  0  0  0  0  0
   -7.1855    3.1078   -0.0704 H   0  0  0  0  0  0  0  0  0  0  0  0
   -9.4955    3.7460   -0.6080 H   0  0  0  0  0  0  0  0  0  0  0  0
  -10.5567    2.9504   -2.7065 H   0  0  0  0  0  0  0  0  0  0  0  0
   -9.3081    1.4588   -4.2418 H   0  0  0  0  0  0  0  0  0  0  0  0
   -6.9950    0.7904   -3.7163 H   0  0  0  0  0  0  0  0  0  0  0  0
   -5.2400    2.0424    2.5029 H   0  0  0  0  0  0  0  0  0  0  0  0
   -3.4231    2.2791    0.1465 H   0  0  0  0  0  0  0  0  0  0  0  0
   -3.5716    3.8869    2.7711 H   0  0  0  0  0  0  0  0  0  0  0  0
   -2.2268    3.9808    1.6668 H   0  0  0  0  0  0  0  0  0  0  0  0
   -5.1161    4.7826    1.1046 H   0  0  0  0  0  0  0  0  0  0  0  0
   -3.9127    4.6202   -0.1894 H   0  0  0  0  0  0  0  0  0  0  0  0
   -5.2469    7.0412    0.2806 H   0  0  0  0  0  0  0  0  0  0  0  0
   -4.0495    8.1685    0.8471 H   0  0  0  0  0  0  0  0  0  0  0  0
   -0.8928    0.4198    1.8752 H   0  0  0  0  0  0  0  0  0  0  0  0
   -1.3711    2.6531   -0.0340 H   0  0  0  0  0  0  0  0  0  0  0  0
    0.0246    3.5280    1.7325 H   0  0  0  0  0  0  0  0  0  0  0  0
    1.2527    2.3474    1.4454 H   0  0  0  0  0  0  0  0  0  0  0  0
    0.5825    5.5102    0.8904 H   0  0  0  0  0  0  0  0  0  0  0  0
    1.4330    5.6801   -0.5959 H   0  0  0  0  0  0  0  0  0  0  0  0
    0.5635   -0.4558   -1.6639 H   0  0  0  0  0  0  0  0  0  0  0  0
    7.2270   -1.0610    1.5624 H   0  0  0  0  0  0  0  0  0  0  0  0
    9.7988    0.4723    1.6034 H   0  0  0  0  0  0  0  0  0  0  0  0
    9.0476   -0.3553    3.0040 H   0  0  0  0  0  0  0  0  0  0  0  0
    9.5609    2.6895    2.1117 H   0  0  0  0  0  0  0  0  0  0  0  0
    8.0484    3.3958    2.5494 H   0  0  0  0  0  0  0  0  0  0  0  0
  1  2  1  0
  2  3  1  0
  3  4  1  0
  4  5  1  0
  5  6  1  0
  6  7  1  0
  7  8  1  0
  8  9  2  0
  8 10  1  0
 10 11  1  0
 11 12  1  0
 12 13  1  0
 13 14  1  0
 14 15  1  0
 15 16  2  0
 15 17  1  0
 17 18  1  0
 18 19  1  0
 19 20  1  0
 20 21  1  0
 21 22  1  0
 22 23  1  0
 22 24  1  0
 24 25  2  0
 24 26  1  0
 26 27  1  0
 27 28  1  0
 28 29  1  0
 29 30  2  0
 30 31  1  0
 31 32  2  0
 32 33  1  0
 32 34  1  0
 34 35  2  0
 27 36  1  0
 36 37  2  0
 36 38  1  0
 38 39  1  0
 39 40  1  0
 40 41  1  0
 41 42  2  0
 42 43  1  0
 43 44  2  0
 44 45  1  0
 45 46  2  0
 39 47  1  0
 47 48  2  0
 47 49  1  0
 49 50  1  0
 50 51  1  0
 51 52  1  0
 52 53  1  0
 53 54  1  0
 53 55  2  0
 50 56  1  0
 56 57  2  0
 56 58  1  0
 58 59  1  0
 59 60  1  0
 60 61  1  0
 61 62  1  0
 61 63  2  0
 59 64  1  0
 64 65  2  0
 64 66  1  0
  6 67  1  0
 67 68  2  0
 67 69  1  0
 69 70  1  0
 70 71  1  0
 71 72  1  0
 71 73  2  0
 14 10  1  0
 66 17  1  0
 35 29  1  0
 46 41  1  0
  1 74  1  0
  1 75  1  0
  2 76  1  0
  2 77  1  0
  3 78  1  0
  3 79  1  0
  4 80  1  0
  4 81  1  0
  5 82  1  0
  5 83  1  0
  6 84  1  1
  7 85  1  0
 10 86  1  6
 11 87  1  0
 11 88  1  0
 12 89  1  0
 12 90  1  0
 13 91  1  0
 13 92  1  0
 17 93  1  1
 18 94  1  0
 18 95  1  0
 21 96  1  0
 21 97  1  0
 22 98  1  6
 23 99  1  0
 23100  1  0
 26101  1  0
 27102  1  6
 28103  1  0
 28104  1  0
 30105  1  0
 31106  1  0
 33107  1  0
 34108  1  0
 35109  1  0
 38110  1  0
 39111  1  1
 40112  1  0
 40113  1  0
 42114  1  0
 43115  1  0
 44116  1  0
 45117  1  0
 46118  1  0
 49119  1  0
 50120  1  6
 51121  1  0
 51122  1  0
 52123  1  0
 52124  1  0
 54125  1  0
 54126  1  0
 58127  1  0
 59128  1  6
 60129  1  0
 60130  1  0
 62131  1  0
 62132  1  0
 66133  1  0
 69134  1  0
 70135  1  0
 70136  1  0
 72137  1  0
 72138  1  0
M  END
$$$$
