
     RDKit          3D

 60 57  0  0  0  0  0  0  0  0999 V2000
   -3.1288   -0.4529   -2.2710 C   0  0  0  0  0  0  0  0  0  0  0  0
   -3.2700    0.2949   -0.9464 C   0  0  0  0  0  0  0  0  0  0  0  0
   -1.9062    0.6748   -0.2931 C   0  0  0  0  0  0  0  0  0  0  0  0
   -2.1753    1.8192    0.7174 C   0  0  0  0  0  0  0  0  0  0  0  0
   -0.9982    2.7537    0.9557 C   0  0  0  0  0  0  0  0  0  0  0  0
   -1.2101   -0.6226    0.2635 C   0  0  2  0  0  0  0  0  0  0  0  0
   -1.4874   -0.9216    1.6718 N   0  0  0  0  0  0  0  0  0  0  0  0
   -0.7896   -0.4626    2.7705 C   0  0  0  0  0  0  0  0  0  0  0  0
   -1.4242   -0.8499    4.0814 C   0  0  0  0  0  0  0  0  0  0  0  0
    0.2413    0.2023    2.7257 O   0  0  0  0  0  0  0  0  0  0  0  0
    0.2096   -0.8885   -0.3115 C   0  0  2  0  0  0  0  0  0  0  0  0
    0.8331   -2.2791   -0.0337 C   0  0  2  0  0  0  0  0  0  0  0  0
    0.5468   -2.8207    1.2518 O   0  0  0  0  0  0  0  0  0  0  0  0
    2.3390   -2.0674   -0.1379 C   0  0  1  0  0  0  0  0  0  0  0  0
    2.8215   -2.1573   -1.5655 C   0  0  0  0  0  0  0  0  0  0  0  0
    2.1467   -2.0602   -2.5788 O   0  0  0  0  0  0  0  0  0  0  0  0
    4.1526   -2.3705   -1.6463 O   0  0  0  0  0  0  0  0  0  0  0  0
    2.5382   -0.6681    0.4357 C   0  0  0  0  0  0  0  0  0  0  0  0
    1.3329    0.1494   -0.0614 C   0  0  1  0  0  0  0  0  0  0  0  0
    1.6831    0.8280   -1.3227 N   0  0  0  0  0  0  0  0  0  0  0  0
    2.4310    1.9567   -1.3388 C   0  0  0  0  0  0  0  0  0  0  0  0
    3.0729    2.4436   -0.3443 N   0  0  0  0  0  0  0  0  0  0  0  0
    2.4242    2.5176   -2.5634 N   0  0  0  0  0  0  0  0  0  0  0  0
   -0.0072    0.3976    0.0000 O   0  0  0  0  0  0  0  0  0  0  0  0
   -0.0022    0.3980    0.0000 O   0  0  0  0  0  0  0  0  0  0  0  0
    0.0078    0.3978    0.0000 O   0  0  0  0  0  0  0  0  0  0  0  0
   -2.5592    0.1415   -2.9914 H   0  0  0  0  0  0  0  0  0  0  0  0
   -4.1180   -0.6404   -2.7006 H   0  0  0  0  0  0  0  0  0  0  0  0
   -2.6335   -1.4192   -2.1555 H   0  0  0  0  0  0  0  0  0  0  0  0
   -3.8678   -0.2994   -0.2450 H   0  0  0  0  0  0  0  0  0  0  0  0
   -3.8486    1.2007   -1.1609 H   0  0  0  0  0  0  0  0  0  0  0  0
   -1.2916    1.0857   -1.1046 H   0  0  0  0  0  0  0  0  0  0  0  0
   -2.5570    1.4361    1.6695 H   0  0  0  0  0  0  0  0  0  0  0  0
   -2.9766    2.4584    0.3232 H   0  0  0  0  0  0  0  0  0  0  0  0
   -1.3446    3.6627    1.4571 H   0  0  0  0  0  0  0  0  0  0  0  0
   -0.5271    3.0534    0.0143 H   0  0  0  0  0  0  0  0  0  0  0  0
   -0.2420    2.3099    1.6020 H   0  0  0  0  0  0  0  0  0  0  0  0
   -1.7650   -1.4571   -0.1873 H   0  0  0  0  0  0  0  0  0  0  0  0
   -2.4192   -1.2626    1.8645 H   0  0  0  0  0  0  0  0  0  0  0  0
   -2.0903   -0.0446    4.4124 H   0  0  0  0  0  0  0  0  0  0  0  0
   -1.9965   -1.7827    3.9890 H   0  0  0  0  0  0  0  0  0  0  0  0
   -0.6376   -1.0071    4.8261 H   0  0  0  0  0  0  0  0  0  0  0  0
    0.0393   -0.8937   -1.4007 H   0  0  0  0  0  0  0  0  0  0  0  0
    0.4664   -3.0096   -0.7638 H   0  0  0  0  0  0  0  0  0  0  0  0
   -0.3740   -2.5950    1.4709 H   0  0  0  0  0  0  0  0  0  0  0  0
    2.8819   -2.8135    0.4534 H   0  0  0  0  0  0  0  0  0  0  0  0
    4.3492   -2.3460   -2.6041 H   0  0  0  0  0  0  0  0  0  0  0  0
    2.5093   -0.7230    1.5325 H   0  0  0  0  0  0  0  0  0  0  0  0
    3.5064   -0.2369    0.1522 H   0  0  0  0  0  0  0  0  0  0  0  0
    1.0498    0.9108    0.6625 H   0  0  0  0  0  0  0  0  0  0  0  0
    0.9123    0.8953   -1.9694 H   0  0  0  0  0  0  0  0  0  0  0  0
    3.5333    3.3115   -0.6109 H   0  0  0  0  0  0  0  0  0  0  0  0
    2.4823    1.8211   -3.2976 H   0  0  0  0  0  0  0  0  0  0  0  0
    3.1353    3.2250   -2.6966 H   0  0  0  0  0  0  0  0  0  0  0  0
   -0.7597   -0.2126    0.0000 H   0  0  0  0  0  0  0  0  0  0  0  0
    0.7669   -0.1850    0.0000 H   0  0  0  0  0  0  0  0  0  0  0  0
   -0.7621   -0.2031    0.0000 H   0  0  0  0  0  0  0  0  0  0  0  0
    0.7643   -0.1948    0.0000 H   0  0  0  0  0  0  0  0  0  0  0  0
   -0.7670   -0.1838    0.0000 H   0  0  0  0  0  0  0  0  0  0  0  0
    0.7592   -0.2140    0.0000 H   0  0  0  0  0  0  0  0  0  0  0  0
  1  2  1  0
  2  3  1  0
  3  4  1  0
  4  5  1  0
  3  6  1  0
  6  7  1  0
  7  8  1  0
  8  9  1  0
  8 10  2  0
  6 11  1  0
 11 12  1  0
 12 13  1  0
 12 14  1  0
 14 15  1  0
 15 16  2  0
 15 17  1  0
 14 18  1  0
 18 19  1  0
 19 20  1  0
 20 21  1  0
 21 22  2  3
 21 23  1  0
 19 11  1  0
  1 27  1  0
  1 28  1  0
  1 29  1  0
  2 30  1  0
  2 31  1  0
  3 32  1  0
  4 33  1  0
  4 34  1  0
  5 35  1  0
  5 36  1  0
  5 37  1  0
  6 38  1  6
  7 39  1  0
  9 40  1  0
  9 41  1  0
  9 42  1  0
 11 43  1  6
 12 44  1  6
 13 45  1  0
 14 46  1  1
 17 47  1  0
 18 48  1  0
 18 49  1  0
 19 50  1  1
 20 51  1  0
 22 52  1  0
 23 53  1  0
 23 54  1  0
 24 55  1  0
 24 56  1  0
 25 57  1  0
 25 58  1  0
 26 59  1  0
 26 60  1  0
M  END
$$$$
