
     RDKit          3D

 57 61  0  0  0  0  0  0  0  0999 V2000
    3.4180   -2.6780    2.3404 C   0  0  0  0  0  0  0  0  0  0  0  0
    2.5516   -1.9428    1.3501 C   0  0  0  0  0  0  0  0  0  0  0  0
    1.2183   -1.7048    1.7359 C   0  0  0  0  0  0  0  0  0  0  0  0
    0.3146   -1.0860    0.8778 C   0  0  0  0  0  0  0  0  0  0  0  0
   -0.9359   -0.8878    1.3244 F   0  0  0  0  0  0  0  0  0  0  0  0
    0.6987   -0.6891   -0.3976 C   0  0  0  0  0  0  0  0  0  0  0  0
   -0.2198    0.0130   -1.3454 C   0  0  0  0  0  0  0  0  0  0  0  0
    0.1442    0.1502   -2.5093 O   0  0  0  0  0  0  0  0  0  0  0  0
   -1.4049    0.4678   -0.8201 N   0  0  0  0  0  0  0  0  0  0  0  0
   -2.3708    1.2763   -1.4202 C   0  0  0  0  0  0  0  0  0  0  0  0
   -2.2770    1.7936   -2.7051 C   0  0  0  0  0  0  0  0  0  0  0  0
   -3.2717    2.6610   -3.1528 C   0  0  0  0  0  0  0  0  0  0  0  0
   -4.3381    2.9673   -2.3155 C   0  0  0  0  0  0  0  0  0  0  0  0
   -4.3830    2.3716   -1.0629 C   0  0  0  0  0  0  0  0  0  0  0  0
   -5.4718    2.6494   -0.1304 C   0  0  0  0  0  0  0  0  0  0  0  0
   -6.1050    3.8075   -0.0102 N   0  0  0  0  0  0  0  0  0  0  0  0
   -7.0037    3.7145    1.0225 N   0  0  0  0  0  0  0  0  0  0  0  0
   -6.9433    2.4897    1.4837 C   0  0  0  0  0  0  0  0  0  0  0  0
   -6.0332    1.7652    0.7662 N   0  0  0  0  0  0  0  0  0  0  0  0
   -5.8225    0.3284    0.8793 C   0  0  0  0  0  0  0  0  0  0  0  0
   -7.1221   -0.4571    0.6543 C   0  0  0  0  0  0  0  0  0  0  0  0
   -5.1691   -0.0543    2.2061 C   0  0  0  0  0  0  0  0  0  0  0  0
   -3.4120    1.5425   -0.6022 N   0  0  0  0  0  0  0  0  0  0  0  0
    2.0244   -0.9221   -0.8008 C   0  0  0  0  0  0  0  0  0  0  0  0
    2.9667   -1.5161    0.0695 C   0  0  0  0  0  0  0  0  0  0  0  0
    4.3103   -1.6379   -0.3994 N   0  0  0  0  0  0  0  0  0  0  0  0
    4.7157   -1.7418   -1.7165 C   0  0  0  0  0  0  0  0  0  0  0  0
    6.0227   -1.8137   -1.8453 N   0  0  0  0  0  0  0  0  0  0  0  0
    6.4962   -1.7225   -0.5753 C   0  0  0  0  0  0  0  0  0  0  0  0
    7.9979   -1.6974   -0.2124 C   0  0  0  0  0  0  0  0  0  0  0  0
    8.9514   -0.9282   -1.0900 C   0  0  0  0  0  0  0  0  0  0  0  0
    8.6074   -0.4076    0.2763 C   0  0  0  0  0  0  0  0  0  0  0  0
    5.4744   -1.6063    0.3351 C   0  0  0  0  0  0  0  0  0  0  0  0
    2.8127   -3.1875    3.1013 H   0  0  0  0  0  0  0  0  0  0  0  0
    4.0650   -1.9750    2.8743 H   0  0  0  0  0  0  0  0  0  0  0  0
    4.0118   -3.4536    1.8473 H   0  0  0  0  0  0  0  0  0  0  0  0
    0.8616   -2.0108    2.7172 H   0  0  0  0  0  0  0  0  0  0  0  0
   -1.6331    0.2671    0.1483 H   0  0  0  0  0  0  0  0  0  0  0  0
   -1.4421    1.5709   -3.3601 H   0  0  0  0  0  0  0  0  0  0  0  0
   -3.2066    3.1038   -4.1456 H   0  0  0  0  0  0  0  0  0  0  0  0
   -5.1140    3.6562   -2.6333 H   0  0  0  0  0  0  0  0  0  0  0  0
   -7.5344    2.0858    2.2951 H   0  0  0  0  0  0  0  0  0  0  0  0
   -5.1486    0.0201    0.0750 H   0  0  0  0  0  0  0  0  0  0  0  0
   -7.5264   -0.2349   -0.3428 H   0  0  0  0  0  0  0  0  0  0  0  0
   -7.8873   -0.2098    1.3967 H   0  0  0  0  0  0  0  0  0  0  0  0
   -6.9332   -1.5339    0.7128 H   0  0  0  0  0  0  0  0  0  0  0  0
   -5.0114   -1.1401    2.2411 H   0  0  0  0  0  0  0  0  0  0  0  0
   -4.1949    0.4324    2.3360 H   0  0  0  0  0  0  0  0  0  0  0  0
   -5.7964    0.2192    3.0612 H   0  0  0  0  0  0  0  0  0  0  0  0
    2.3202   -0.5698   -1.7897 H   0  0  0  0  0  0  0  0  0  0  0  0
    4.0196   -1.7923   -2.5430 H   0  0  0  0  0  0  0  0  0  0  0  0
    8.3683   -2.6229    0.2170 H   0  0  0  0  0  0  0  0  0  0  0  0
    9.9383   -1.3482   -1.2471 H   0  0  0  0  0  0  0  0  0  0  0  0
    8.5468   -0.4068   -1.9523 H   0  0  0  0  0  0  0  0  0  0  0  0
    7.9840    0.4772    0.3305 H   0  0  0  0  0  0  0  0  0  0  0  0
    9.3623   -0.4671    1.0514 H   0  0  0  0  0  0  0  0  0  0  0  0
    5.5088   -1.4312    1.3985 H   0  0  0  0  0  0  0  0  0  0  0  0
  1  2  1  0
  2  3  2  0
  3  4  1  0
  4  5  1  0
  4  6  2  0
  6  7  1  0
  7  8  2  0
  7  9  1  0
  9 10  1  0
 10 11  2  0
 11 12  1  0
 12 13  2  0
 13 14  1  0
 14 15  1  0
 15 16  2  0
 16 17  1  0
 17 18  2  0
 18 19  1  0
 19 20  1  0
 20 21  1  0
 20 22  1  0
 14 23  2  0
  6 24  1  0
 24 25  2  0
 25 26  1  0
 26 27  1  0
 27 28  2  0
 28 29  1  0
 29 30  1  0
 30 31  1  0
 31 32  1  0
 29 33  2  0
 25  2  1  0
 33 26  1  0
 23 10  1  0
 32 30  1  0
 19 15  1  0
  1 34  1  0
  1 35  1  0
  1 36  1  0
  3 37  1  0
  9 38  1  0
 11 39  1  0
 12 40  1  0
 13 41  1  0
 18 42  1  0
 20 43  1  0
 21 44  1  0
 21 45  1  0
 21 46  1  0
 22 47  1  0
 22 48  1  0
 22 49  1  0
 24 50  1  0
 27 51  1  0
 30 52  1  0
 31 53  1  0
 31 54  1  0
 32 55  1  0
 32 56  1  0
 33 57  1  0
M  END
$$$$
