
     RDKit          3D

 82 86  0  0  0  0  0  0  0  0999 V2000
   -6.4725    2.4139    0.1925 C   0  0  0  0  0  0  0  0  0  0  0  0
   -5.6245    1.1580    0.4726 C   0  0  0  0  0  0  0  0  0  0  0  0
   -5.8643    0.7544    1.9428 C   0  0  0  0  0  0  0  0  0  0  0  0
   -6.0805    0.0237   -0.4723 C   0  0  0  0  0  0  0  0  0  0  0  0
   -5.1433   -1.1916   -0.4878 C   0  0  0  0  0  0  0  0  0  0  0  0
   -3.6774   -0.8096   -0.8131 C   0  0  2  0  0  0  0  0  0  0  0  0
   -3.6300   -0.2816   -2.2581 C   0  0  0  0  0  0  0  0  0  0  0  0
   -3.2349    0.7984   -2.6608 O   0  0  0  0  0  0  0  0  0  0  0  0
   -4.1023   -1.1762   -3.1561 O   0  0  0  0  0  0  0  0  0  0  0  0
   -2.7521   -2.0636   -0.7655 C   0  0  0  0  0  0  0  0  0  0  0  0
   -1.7110   -2.0711    0.3666 C   0  0  0  0  0  0  0  0  0  0  0  0
   -0.8836   -0.7530    0.5628 C   0  0  2  0  0  0  0  0  0  0  0  0
   -0.6982   -0.5778    2.1075 C   0  0  0  0  0  0  0  0  0  0  0  0
   -1.7218    0.4567    0.1253 C   0  0  0  0  0  0  0  0  0  0  0  0
   -1.1502    1.5785   -0.3444 C   0  0  0  0  0  0  0  0  0  0  0  0
    0.3187    1.7610   -0.5793 C   0  0  0  0  0  0  0  0  0  0  0  0
    1.2271    0.6244   -0.0453 C   0  0  2  0  0  0  0  0  0  0  0  0
    2.7685    0.7558   -0.4838 C   0  0  1  0  0  0  0  0  0  0  0  0
    2.8861    1.3013   -1.9284 C   0  0  0  0  0  0  0  0  0  0  0  0
    3.3938    1.8228    0.4717 C   0  0  0  0  0  0  0  0  0  0  0  0
    4.9088    1.9185    0.4271 C   0  0  0  0  0  0  0  0  0  0  0  0
    5.5415    0.5746    0.7612 C   0  0  2  0  0  0  0  0  0  0  0  0
    6.9645    0.7172    0.8077 O   0  0  0  0  0  0  0  0  0  0  0  0
    5.1262   -0.5577   -0.2109 C   0  0  1  0  0  0  0  0  0  0  0  0
    5.7841   -0.3528   -1.6057 C   0  0  0  0  0  0  0  0  0  0  0  0
    5.7181   -1.8994    0.3364 C   0  0  0  0  0  0  0  0  0  0  0  0
    7.1432   -1.9256    0.3375 O   0  0  0  0  0  0  0  0  0  0  0  0
    3.5346   -0.6284   -0.3476 C   0  0  0  0  0  0  0  0  0  0  0  0
    2.8611   -1.4480    0.7738 C   0  0  0  0  0  0  0  0  0  0  0  0
    1.4603   -1.9011    0.3644 C   0  0  0  0  0  0  0  0  0  0  0  0
    0.5417   -0.7822   -0.2075 C   0  0  1  0  0  0  0  0  0  0  0  0
    0.3337   -1.1030   -1.7128 C   0  0  0  0  0  0  0  0  0  0  0  0
   -3.2255    0.2486    0.2290 C   0  0  1  0  0  0  0  0  0  0  0  0
   -4.1309    1.4998    0.2355 C   0  0  0  0  0  0  0  0  0  0  0  0
   -6.3681    2.7434   -0.8470 H   0  0  0  0  0  0  0  0  0  0  0  0
   -6.1686    3.2476    0.8362 H   0  0  0  0  0  0  0  0  0  0  0  0
   -7.5350    2.2206    0.3750 H   0  0  0  0  0  0  0  0  0  0  0  0
   -6.9276    0.5634    2.1281 H   0  0  0  0  0  0  0  0  0  0  0  0
   -5.5493    1.5520    2.6252 H   0  0  0  0  0  0  0  0  0  0  0  0
   -5.3214   -0.1522    2.2227 H   0  0  0  0  0  0  0  0  0  0  0  0
   -6.1636    0.4123   -1.4955 H   0  0  0  0  0  0  0  0  0  0  0  0
   -7.0895   -0.3110   -0.1986 H   0  0  0  0  0  0  0  0  0  0  0  0
   -5.1851   -1.6963    0.4856 H   0  0  0  0  0  0  0  0  0  0  0  0
   -5.5294   -1.9166   -1.2157 H   0  0  0  0  0  0  0  0  0  0  0  0
   -4.0055   -0.7107   -4.0132 H   0  0  0  0  0  0  0  0  0  0  0  0
   -2.2263   -2.1873   -1.7176 H   0  0  0  0  0  0  0  0  0  0  0  0
   -3.3600   -2.9728   -0.6668 H   0  0  0  0  0  0  0  0  0  0  0  0
   -1.0458   -2.9300    0.2278 H   0  0  0  0  0  0  0  0  0  0  0  0
   -2.2637   -2.2990    1.2889 H   0  0  0  0  0  0  0  0  0  0  0  0
   -0.2296    0.3738    2.3755 H   0  0  0  0  0  0  0  0  0  0  0  0
   -1.6628   -0.5852    2.6307 H   0  0  0  0  0  0  0  0  0  0  0  0
   -0.1077   -1.3789    2.5582 H   0  0  0  0  0  0  0  0  0  0  0  0
   -1.7681    2.4112   -0.6730 H   0  0  0  0  0  0  0  0  0  0  0  0
    0.6263    2.7130   -0.1315 H   0  0  0  0  0  0  0  0  0  0  0  0
    0.4249    1.8665   -1.6635 H   0  0  0  0  0  0  0  0  0  0  0  0
    1.2516    0.7866    1.0386 H   0  0  0  0  0  0  0  0  0  0  0  0
    3.9132    1.4076   -2.2646 H   0  0  0  0  0  0  0  0  0  0  0  0
    2.4642    2.3087   -2.0165 H   0  0  0  0  0  0  0  0  0  0  0  0
    2.3810    0.6612   -2.6545 H   0  0  0  0  0  0  0  0  0  0  0  0
    3.1189    1.5985    1.5111 H   0  0  0  0  0  0  0  0  0  0  0  0
    2.9730    2.8140    0.2591 H   0  0  0  0  0  0  0  0  0  0  0  0
    5.2522    2.2959   -0.5418 H   0  0  0  0  0  0  0  0  0  0  0  0
    5.2481    2.6653    1.1570 H   0  0  0  0  0  0  0  0  0  0  0  0
    5.2367    0.2966    1.7781 H   0  0  0  0  0  0  0  0  0  0  0  0
    7.2376    1.2493    0.0375 H   0  0  0  0  0  0  0  0  0  0  0  0
    5.3536   -1.0349   -2.3467 H   0  0  0  0  0  0  0  0  0  0  0  0
    5.6901    0.6643   -1.9814 H   0  0  0  0  0  0  0  0  0  0  0  0
    6.8623   -0.5431   -1.5906 H   0  0  0  0  0  0  0  0  0  0  0  0
    5.3791   -2.7453   -0.2711 H   0  0  0  0  0  0  0  0  0  0  0  0
    5.4158   -2.0761    1.3729 H   0  0  0  0  0  0  0  0  0  0  0  0
    7.4338   -1.0824    0.7468 H   0  0  0  0  0  0  0  0  0  0  0  0
    3.3489   -1.1951   -1.2711 H   0  0  0  0  0  0  0  0  0  0  0  0
    3.4033   -2.3701    0.9942 H   0  0  0  0  0  0  0  0  0  0  0  0
    2.8272   -0.8765    1.7085 H   0  0  0  0  0  0  0  0  0  0  0  0
    1.0135   -2.4131    1.2202 H   0  0  0  0  0  0  0  0  0  0  0  0
    1.5776   -2.7019   -0.3791 H   0  0  0  0  0  0  0  0  0  0  0  0
    1.2783   -1.1014   -2.2602 H   0  0  0  0  0  0  0  0  0  0  0  0
   -0.3368   -0.3990   -2.2123 H   0  0  0  0  0  0  0  0  0  0  0  0
   -0.0751   -2.1078   -1.8533 H   0  0  0  0  0  0  0  0  0  0  0  0
   -3.3764   -0.1884    1.2247 H   0  0  0  0  0  0  0  0  0  0  0  0
   -3.7876    2.1922    1.0158 H   0  0  0  0  0  0  0  0  0  0  0  0
   -4.0374    2.0468   -0.7092 H   0  0  0  0  0  0  0  0  0  0  0  0
  1  2  1  0
  2  3  1  0
  2  4  1  0
  4  5  1  0
  5  6  1  0
  6  7  1  6
  7  8  2  0
  7  9  1  0
  6 10  1  0
 10 11  1  0
 11 12  1  0
 12 13  1  1
 12 14  1  0
 14 15  2  0
 15 16  1  0
 16 17  1  0
 17 18  1  0
 18 19  1  6
 18 20  1  0
 20 21  1  0
 21 22  1  0
 22 23  1  0
 22 24  1  0
 24 25  1  6
 24 26  1  0
 26 27  1  0
 24 28  1  0
 28 29  1  0
 29 30  1  0
 30 31  1  0
 31 32  1  6
 14 33  1  0
 33 34  1  0
 34  2  1  0
 33  6  1  0
 31 12  1  0
 31 17  1  0
 28 18  1  0
  1 35  1  0
  1 36  1  0
  1 37  1  0
  3 38  1  0
  3 39  1  0
  3 40  1  0
  4 41  1  0
  4 42  1  0
  5 43  1  0
  5 44  1  0
  9 45  1  0
 10 46  1  0
 10 47  1  0
 11 48  1  0
 11 49  1  0
 13 50  1  0
 13 51  1  0
 13 52  1  0
 15 53  1  0
 16 54  1  0
 16 55  1  0
 17 56  1  1
 19 57  1  0
 19 58  1  0
 19 59  1  0
 20 60  1  0
 20 61  1  0
 21 62  1  0
 21 63  1  0
 22 64  1  1
 23 65  1  0
 25 66  1  0
 25 67  1  0
 25 68  1  0
 26 69  1  0
 26 70  1  0
 27 71  1  0
 28 72  1  0
 29 73  1  0
 29 74  1  0
 30 75  1  0
 30 76  1  0
 32 77  1  0
 32 78  1  0
 32 79  1  0
 33 80  1  1
 34 81  1  0
 34 82  1  0
M  END
$$$$
