
     RDKit          3D

 61 62  0  0  0  0  0  0  0  0999 V2000
    0.6911    0.0000    0.0000 Cl  0  0  0  0  0  0  0  0  0  0  0  0
    0.6888    0.0000    0.0000 Cl  0  0  0  0  0  0  0  0  0  0  0  0
    0.6922    0.0000    0.0000 Cl  0  0  0  0  0  0  0  0  0  0  0  0
    0.6859    0.0000    0.0000 Cl  0  0  0  0  0  0  0  0  0  0  0  0
    8.4939    1.4872    0.5444 C   0  0  0  0  0  0  0  0  0  0  0  0
    7.4734    2.0166   -0.1963 C   0  0  0  0  0  0  0  0  0  0  0  0
    6.3464    1.2654   -0.4508 C   0  0  0  0  0  0  0  0  0  0  0  0
    6.2685   -0.0293    0.0554 C   0  0  0  0  0  0  0  0  0  0  0  0
    5.1396   -0.7619   -0.1944 C   0  0  0  0  0  0  0  0  0  0  0  0
    4.0218   -0.2736   -1.0112 C   0  0  0  0  0  0  0  0  0  0  0  0
    3.9916    0.2567   -2.2733 C   0  0  0  0  0  0  0  0  0  0  0  0
    2.7224    0.5131   -2.5843 N   0  0  0  0  0  0  0  0  0  0  0  0
    1.8913    0.1792   -1.5887 N   0  0  0  0  0  0  0  0  0  0  0  0
    0.5551    0.2701   -1.4802 C   0  0  0  0  0  0  0  0  0  0  0  0
   -0.0416   -0.1523   -0.3170 C   0  0  0  0  0  0  0  0  0  0  0  0
   -1.4863   -0.1046   -0.1073 C   0  0  0  0  0  0  0  0  0  0  0  0
   -2.3643   -0.2832   -1.1566 C   0  0  0  0  0  0  0  0  0  0  0  0
   -3.7283   -0.2296   -0.9331 C   0  0  0  0  0  0  0  0  0  0  0  0
   -4.2823   -0.0014    0.3122 C   0  0  0  0  0  0  0  0  0  0  0  0
   -5.6874    0.0380    0.5209 N   0  0  0  0  0  0  0  0  0  0  0  0
   -6.3431    1.3336    0.6709 C   0  0  0  0  0  0  0  0  0  0  0  0
   -7.1642    1.5063   -0.6077 C   0  0  0  0  0  0  0  0  0  0  0  0
   -7.6237    0.1962   -1.0692 N   0  0  0  0  0  0  0  0  0  0  0  0
   -7.8915   -0.7000    0.0487 C   0  0  0  0  0  0  0  0  0  0  0  0
   -6.5328   -1.1376    0.6063 C   0  0  0  0  0  0  0  0  0  0  0  0
   -3.3891    0.1752    1.3504 C   0  0  0  0  0  0  0  0  0  0  0  0
   -2.0129    0.1245    1.1439 C   0  0  0  0  0  0  0  0  0  0  0  0
    0.7516   -0.6511    0.6889 C   0  0  0  0  0  0  0  0  0  0  0  0
    2.0801   -0.7129    0.5111 N   0  0  0  0  0  0  0  0  0  0  0  0
    2.6854   -0.3083   -0.6109 C   0  0  0  0  0  0  0  0  0  0  0  0
    5.0826   -2.0563    0.3391 C   0  0  0  0  0  0  0  0  0  0  0  0
    6.1365   -2.5317    1.0750 C   0  0  0  0  0  0  0  0  0  0  0  0
    7.2375   -1.8057    1.3125 N   0  0  0  0  0  0  0  0  0  0  0  0
    7.3157   -0.5590    0.8107 C   0  0  0  0  0  0  0  0  0  0  0  0
    8.4386    0.1972    1.0609 C   0  0  0  0  0  0  0  0  0  0  0  0
   -0.6911    0.0000    0.0000 H   0  0  0  0  0  0  0  0  0  0  0  0
   -0.6888    0.0000    0.0000 H   0  0  0  0  0  0  0  0  0  0  0  0
   -0.6922    0.0000    0.0000 H   0  0  0  0  0  0  0  0  0  0  0  0
   -0.6859    0.0000    0.0000 H   0  0  0  0  0  0  0  0  0  0  0  0
    9.3704    2.0829    0.7366 H   0  0  0  0  0  0  0  0  0  0  0  0
    7.5137    3.0373   -0.6082 H   0  0  0  0  0  0  0  0  0  0  0  0
    5.5452    1.6768   -1.0204 H   0  0  0  0  0  0  0  0  0  0  0  0
    4.8777    0.4186   -2.8874 H   0  0  0  0  0  0  0  0  0  0  0  0
   -0.0595    0.6706   -2.2971 H   0  0  0  0  0  0  0  0  0  0  0  0
   -1.9546   -0.4648   -2.1580 H   0  0  0  0  0  0  0  0  0  0  0  0
   -4.4116   -0.3715   -1.7678 H   0  0  0  0  0  0  0  0  0  0  0  0
   -6.9872    1.3831    1.5640 H   0  0  0  0  0  0  0  0  0  0  0  0
   -5.6119    2.1630    0.6966 H   0  0  0  0  0  0  0  0  0  0  0  0
   -7.9942    2.2224   -0.4738 H   0  0  0  0  0  0  0  0  0  0  0  0
   -6.4692    1.9625   -1.3576 H   0  0  0  0  0  0  0  0  0  0  0  0
   -6.9264   -0.2424   -1.6867 H   0  0  0  0  0  0  0  0  0  0  0  0
   -8.4725   -0.1485    0.8215 H   0  0  0  0  0  0  0  0  0  0  0  0
   -8.4722   -1.5464   -0.3162 H   0  0  0  0  0  0  0  0  0  0  0  0
   -6.1176   -1.9260   -0.0288 H   0  0  0  0  0  0  0  0  0  0  0  0
   -6.5992   -1.4048    1.6852 H   0  0  0  0  0  0  0  0  0  0  0  0
   -3.7835    0.3561    2.3479 H   0  0  0  0  0  0  0  0  0  0  0  0
   -1.3254    0.2624    1.9535 H   0  0  0  0  0  0  0  0  0  0  0  0
    0.3155   -0.9969    1.6315 H   0  0  0  0  0  0  0  0  0  0  0  0
    4.1824   -2.6132    0.1270 H   0  0  0  0  0  0  0  0  0  0  0  0
    6.0553   -3.5399    1.4696 H   0  0  0  0  0  0  0  0  0  0  0  0
    9.2407   -0.2418    1.6521 H   0  0  0  0  0  0  0  0  0  0  0  0
  5  6  2  0
  6  7  1  0
  7  8  2  0
  8  9  1  0
  9 10  1  0
 10 11  1  0
 11 12  2  0
 12 13  1  0
 13 14  1  0
 14 15  2  0
 15 16  1  0
 16 17  2  0
 17 18  1  0
 18 19  2  0
 19 20  1  0
 20 21  1  0
 21 22  1  0
 22 23  1  0
 23 24  1  0
 24 25  1  0
 19 26  1  0
 26 27  2  0
 15 28  1  0
 28 29  2  0
 29 30  1  0
  9 31  2  0
 31 32  1  0
 32 33  2  0
 33 34  1  0
 34 35  2  0
 35  5  1  0
 34  8  1  0
 30 10  2  0
 30 13  1  0
 27 16  1  0
 25 20  1  0
  1 36  1  0
  2 37  1  0
  3 38  1  0
  4 39  1  0
  5 40  1  0
  6 41  1  0
  7 42  1  0
 11 43  1  0
 14 44  1  0
 17 45  1  0
 18 46  1  0
 21 47  1  0
 21 48  1  0
 22 49  1  0
 22 50  1  0
 23 51  1  0
 24 52  1  0
 24 53  1  0
 25 54  1  0
 25 55  1  0
 26 56  1  0
 27 57  1  0
 28 58  1  0
 31 59  1  0
 32 60  1  0
 35 61  1  0
M  END
$$$$
