
     RDKit          3D

 39 41  0  0  0  0  0  0  0  0999 V2000
    4.0522    2.0169    1.5186 C   0  0  0  0  0  0  0  0  0  0  0  0
    4.2580    0.6194    1.3659 O   0  0  0  0  0  0  0  0  0  0  0  0
    3.2757   -0.1186    0.7548 C   0  0  0  0  0  0  0  0  0  0  0  0
    3.6723   -1.4348    0.4790 C   0  0  0  0  0  0  0  0  0  0  0  0
    4.9312   -1.8575    0.8168 O   0  0  0  0  0  0  0  0  0  0  0  0
    2.8313   -2.3459   -0.1422 C   0  0  0  0  0  0  0  0  0  0  0  0
    1.5419   -1.9471   -0.4972 C   0  0  0  0  0  0  0  0  0  0  0  0
    1.0943   -0.6370   -0.2232 C   0  0  0  0  0  0  0  0  0  0  0  0
    1.9751    0.2707    0.4041 C   0  0  0  0  0  0  0  0  0  0  0  0
    1.5464    1.5411    0.6829 O   0  0  0  0  0  0  0  0  0  0  0  0
   -0.3013   -0.2852   -0.6914 C   0  0  2  0  0  0  0  0  0  0  0  0
   -0.8313    0.8254    0.0447 O   0  0  0  0  0  0  0  0  0  0  0  0
   -2.1370    1.2031   -0.4226 C   0  0  2  0  0  0  0  0  0  0  0  0
   -2.5865    2.4380    0.3741 C   0  0  0  0  0  0  0  0  0  0  0  0
   -3.8949    2.8446   -0.0122 O   0  0  0  0  0  0  0  0  0  0  0  0
   -3.1379    0.0444   -0.2685 C   0  0  1  0  0  0  0  0  0  0  0  0
   -4.4088    0.3436   -0.8587 O   0  0  0  0  0  0  0  0  0  0  0  0
   -2.6053   -1.2275   -0.9390 C   0  0  2  0  0  0  0  0  0  0  0  0
   -3.4694   -2.3176   -0.5855 O   0  0  0  0  0  0  0  0  0  0  0  0
   -1.1692   -1.5292   -0.5046 C   0  0  1  0  0  0  0  0  0  0  0  0
   -0.6437   -2.6058   -1.3085 O   0  0  0  0  0  0  0  0  0  0  0  0
    0.6718   -2.9266   -1.2093 C   0  0  0  0  0  0  0  0  0  0  0  0
    1.1298   -3.9453   -1.7053 O   0  0  0  0  0  0  0  0  0  0  0  0
    3.2770    2.2211    2.2632 H   0  0  0  0  0  0  0  0  0  0  0  0
    4.9847    2.4459    1.8993 H   0  0  0  0  0  0  0  0  0  0  0  0
    3.8429    2.5009    0.5592 H   0  0  0  0  0  0  0  0  0  0  0  0
    5.3564   -1.0830    1.2356 H   0  0  0  0  0  0  0  0  0  0  0  0
    3.1860   -3.3524   -0.3529 H   0  0  0  0  0  0  0  0  0  0  0  0
    0.5751    1.5650    0.5699 H   0  0  0  0  0  0  0  0  0  0  0  0
   -0.2235   -0.0072   -1.7517 H   0  0  0  0  0  0  0  0  0  0  0  0
   -2.0776    1.4922   -1.4807 H   0  0  0  0  0  0  0  0  0  0  0  0
   -2.5850    2.2259    1.4491 H   0  0  0  0  0  0  0  0  0  0  0  0
   -1.8901    3.2664    0.2031 H   0  0  0  0  0  0  0  0  0  0  0  0
   -4.0808    3.6801    0.4571 H   0  0  0  0  0  0  0  0  0  0  0  0
   -3.3167   -0.1618    0.7944 H   0  0  0  0  0  0  0  0  0  0  0  0
   -4.6273    1.2683   -0.6054 H   0  0  0  0  0  0  0  0  0  0  0  0
   -2.6601   -1.1419   -2.0316 H   0  0  0  0  0  0  0  0  0  0  0  0
   -4.3709   -2.0212   -0.8225 H   0  0  0  0  0  0  0  0  0  0  0  0
   -1.1847   -1.8678    0.5412 H   0  0  0  0  0  0  0  0  0  0  0  0
  1  2  1  0
  2  3  1  0
  3  4  2  0
  4  5  1  0
  4  6  1  0
  6  7  2  0
  7  8  1  0
  8  9  2  0
  9 10  1  0
  8 11  1  0
 11 12  1  0
 12 13  1  0
 13 14  1  0
 14 15  1  0
 13 16  1  0
 16 17  1  0
 16 18  1  0
 18 19  1  0
 18 20  1  0
 20 21  1  0
 21 22  1  0
 22 23  2  0
  9  3  1  0
 20 11  1  0
 22  7  1  0
  1 24  1  0
  1 25  1  0
  1 26  1  0
  5 27  1  0
  6 28  1  0
 10 29  1  0
 11 30  1  6
 13 31  1  6
 14 32  1  0
 14 33  1  0
 15 34  1  0
 16 35  1  1
 17 36  1  0
 18 37  1  6
 19 38  1  0
 20 39  1  1
M  END
$$$$
