
     RDKit          3D

 36 38  0  0  0  0  0  0  0  0999 V2000
   -3.0986    2.3897   -1.3503 C   0  0  0  0  0  0  0  0  0  0  0  0
   -2.2364    1.3272   -0.9699 O   0  0  0  0  0  0  0  0  0  0  0  0
   -2.5494    0.6526    0.1751 C   0  0  0  0  0  0  0  0  0  0  0  0
   -3.6747    0.8708    0.9840 C   0  0  0  0  0  0  0  0  0  0  0  0
   -3.9039    0.1159    2.1413 C   0  0  0  0  0  0  0  0  0  0  0  0
   -3.0150   -0.8902    2.5383 C   0  0  0  0  0  0  0  0  0  0  0  0
   -1.8784   -1.1295    1.7493 C   0  0  0  0  0  0  0  0  0  0  0  0
   -0.7816   -2.0272    1.8064 C   0  0  0  0  0  0  0  0  0  0  0  0
    0.0304   -1.7484    0.7213 C   0  0  0  0  0  0  0  0  0  0  0  0
    1.2608   -2.3919    0.2824 C   0  0  0  0  0  0  0  0  0  0  0  0
    1.5326   -3.5321    0.6697 O   0  0  0  0  0  0  0  0  0  0  0  0
    2.0855   -1.7309   -0.6502 N   0  0  0  0  0  0  0  0  0  0  0  0
    2.9342   -2.5666   -1.4919 C   0  0  0  0  0  0  0  0  0  0  0  0
    2.3138   -0.3136   -0.6859 C   0  0  0  0  0  0  0  0  0  0  0  0
    2.7772    0.3074   -1.8567 C   0  0  0  0  0  0  0  0  0  0  0  0
    3.0343    1.6823   -1.8948 C   0  0  0  0  0  0  0  0  0  0  0  0
    2.8463    2.4598   -0.7572 C   0  0  0  0  0  0  0  0  0  0  0  0
    2.4075    1.8614    0.4190 C   0  0  0  0  0  0  0  0  0  0  0  0
    2.1507    0.4864    0.4554 C   0  0  0  0  0  0  0  0  0  0  0  0
   -0.5382   -0.7505   -0.0228 O   0  0  0  0  0  0  0  0  0  0  0  0
   -1.6851   -0.3626    0.6064 C   0  0  0  0  0  0  0  0  0  0  0  0
   -3.1295    3.1692   -0.5818 H   0  0  0  0  0  0  0  0  0  0  0  0
   -4.1035    2.0193   -1.5783 H   0  0  0  0  0  0  0  0  0  0  0  0
   -2.6947    2.8384   -2.2630 H   0  0  0  0  0  0  0  0  0  0  0  0
   -4.4054    1.6336    0.7312 H   0  0  0  0  0  0  0  0  0  0  0  0
   -4.7896    0.3125    2.7425 H   0  0  0  0  0  0  0  0  0  0  0  0
   -3.2042   -1.4709    3.4362 H   0  0  0  0  0  0  0  0  0  0  0  0
   -0.5916   -2.7922    2.5466 H   0  0  0  0  0  0  0  0  0  0  0  0
    3.9832   -2.2821   -1.3597 H   0  0  0  0  0  0  0  0  0  0  0  0
    2.8369   -3.6288   -1.2502 H   0  0  0  0  0  0  0  0  0  0  0  0
    2.6366   -2.4458   -2.5380 H   0  0  0  0  0  0  0  0  0  0  0  0
    2.9175   -0.2551   -2.7746 H   0  0  0  0  0  0  0  0  0  0  0  0
    3.3753    2.1438   -2.8179 H   0  0  0  0  0  0  0  0  0  0  0  0
    3.0424    3.5281   -0.7862 H   0  0  0  0  0  0  0  0  0  0  0  0
    2.2670    2.4604    1.3150 H   0  0  0  0  0  0  0  0  0  0  0  0
    1.8477    0.0597    1.4067 H   0  0  0  0  0  0  0  0  0  0  0  0
  1  2  1  0
  2  3  1  0
  3  4  2  0
  4  5  1  0
  5  6  2  0
  6  7  1  0
  7  8  1  0
  8  9  2  0
  9 10  1  0
 10 11  2  0
 10 12  1  0
 12 13  1  0
 12 14  1  0
 14 15  2  0
 15 16  1  0
 16 17  2  0
 17 18  1  0
 18 19  2  0
  9 20  1  0
 20 21  1  0
 21  3  1  0
 21  7  2  0
 19 14  1  0
  1 22  1  0
  1 23  1  0
  1 24  1  0
  4 25  1  0
  5 26  1  0
  6 27  1  0
  8 28  1  0
 13 29  1  0
 13 30  1  0
 13 31  1  0
 15 32  1  0
 16 33  1  0
 17 34  1  0
 18 35  1  0
 19 36  1  0
M  END
$$$$
