
     RDKit          3D

 35 36  0  0  0  0  0  0  0  0999 V2000
   -2.8222   -1.1484   -2.1173 C   0  0  0  0  0  0  0  0  0  0  0  0
   -2.4007   -0.5558   -0.7532 C   0  0  0  0  0  0  0  0  0  0  0  0
   -3.5124    0.4026   -0.3017 C   0  0  0  0  0  0  0  0  0  0  0  0
   -2.2483   -1.7254    0.2312 C   0  0  0  0  0  0  0  0  0  0  0  0
   -1.0559    0.1914   -0.9409 C   0  0  0  0  0  0  0  0  0  0  0  0
   -0.5364    0.2859   -2.0594 O   0  0  0  0  0  0  0  0  0  0  0  0
   -0.4478    0.7673    0.1618 N   0  0  0  0  0  0  0  0  0  0  0  0
   -1.0143    0.8507    1.4074 N   0  0  0  0  0  0  0  0  0  0  0  0
   -0.2504    1.6281    2.1024 C   0  0  0  0  0  0  0  0  0  0  0  0
    0.9146    2.2276    1.3859 C   0  0  0  0  0  0  0  0  0  0  0  0
    0.8484    1.4459    0.0816 C   0  0  1  0  0  0  0  0  0  0  0  0
    2.0195    0.4838   -0.0483 C   0  0  0  0  0  0  0  0  0  0  0  0
    2.1075   -0.6880    0.7223 C   0  0  0  0  0  0  0  0  0  0  0  0
    3.2076   -1.5391    0.6024 C   0  0  0  0  0  0  0  0  0  0  0  0
    4.2351   -1.2307   -0.2859 C   0  0  0  0  0  0  0  0  0  0  0  0
    4.1629   -0.0730   -1.0570 C   0  0  0  0  0  0  0  0  0  0  0  0
    3.0636    0.7798   -0.9388 C   0  0  0  0  0  0  0  0  0  0  0  0
   -2.9589   -0.3612   -2.8682 H   0  0  0  0  0  0  0  0  0  0  0  0
   -3.7666   -1.6993   -2.0396 H   0  0  0  0  0  0  0  0  0  0  0  0
   -2.0643   -1.8417   -2.5007 H   0  0  0  0  0  0  0  0  0  0  0  0
   -3.5355    1.2999   -0.9307 H   0  0  0  0  0  0  0  0  0  0  0  0
   -4.4962   -0.0768   -0.3638 H   0  0  0  0  0  0  0  0  0  0  0  0
   -3.3897    0.7329    0.7332 H   0  0  0  0  0  0  0  0  0  0  0  0
   -3.1402   -2.3625    0.2288 H   0  0  0  0  0  0  0  0  0  0  0  0
   -2.1020   -1.3910    1.2620 H   0  0  0  0  0  0  0  0  0  0  0  0
   -1.3875   -2.3503   -0.0334 H   0  0  0  0  0  0  0  0  0  0  0  0
   -0.4498    1.8847    3.1525 H   0  0  0  0  0  0  0  0  0  0  0  0
    0.7148    3.2939    1.2419 H   0  0  0  0  0  0  0  0  0  0  0  0
    1.8339    2.1050    1.9639 H   0  0  0  0  0  0  0  0  0  0  0  0
    0.8289    2.1251   -0.7796 H   0  0  0  0  0  0  0  0  0  0  0  0
    1.3125   -0.9543    1.4161 H   0  0  0  0  0  0  0  0  0  0  0  0
    3.2587   -2.4467    1.1981 H   0  0  0  0  0  0  0  0  0  0  0  0
    5.0883   -1.8968   -0.3833 H   0  0  0  0  0  0  0  0  0  0  0  0
    4.9598    0.1633   -1.7574 H   0  0  0  0  0  0  0  0  0  0  0  0
    3.0231    1.6731   -1.5588 H   0  0  0  0  0  0  0  0  0  0  0  0
  1  2  1  0
  2  3  1  0
  2  4  1  0
  2  5  1  0
  5  6  2  0
  5  7  1  0
  7  8  1  0
  8  9  2  0
  9 10  1  0
 10 11  1  0
 11 12  1  0
 12 13  2  0
 13 14  1  0
 14 15  2  0
 15 16  1  0
 16 17  2  0
 11  7  1  0
 17 12  1  0
  1 18  1  0
  1 19  1  0
  1 20  1  0
  3 21  1  0
  3 22  1  0
  3 23  1  0
  4 24  1  0
  4 25  1  0
  4 26  1  0
  9 27  1  0
 10 28  1  0
 10 29  1  0
 11 30  1  6
 13 31  1  0
 14 32  1  0
 15 33  1  0
 16 34  1  0
 17 35  1  0
M  END
$$$$
