
     RDKit          3D

 47 49  0  0  0  0  0  0  0  0999 V2000
   -6.5292   -0.3145   -0.0171 C   0  0  0  0  0  0  0  0  0  0  0  0
   -5.3886    0.5508   -0.4200 C   0  0  0  0  0  0  0  0  0  0  0  0
   -5.4560    1.4817   -1.3471 N   0  0  0  0  0  0  0  0  0  0  0  0
   -4.2031    2.0098   -1.4296 C   0  0  0  0  0  0  0  0  0  0  0  0
   -3.3337    1.4135   -0.5353 C   0  0  0  0  0  0  0  0  0  0  0  0
   -1.9237    1.7011   -0.3313 C   0  0  0  0  0  0  0  0  0  0  0  0
   -1.4799    2.9811   -0.0990 C   0  0  0  0  0  0  0  0  0  0  0  0
   -0.1246    3.1081    0.0496 C   0  0  0  0  0  0  0  0  0  0  0  0
    0.7291    2.0722   -0.0310 N   0  0  0  0  0  0  0  0  0  0  0  0
    0.2112    0.8598   -0.2747 C   0  0  0  0  0  0  0  0  0  0  0  0
    1.0078   -0.2751   -0.3946 N   0  0  0  0  0  0  0  0  0  0  0  0
    2.3767   -0.5236   -0.2592 C   0  0  0  0  0  0  0  0  0  0  0  0
    2.8529   -1.8173   -0.5393 C   0  0  0  0  0  0  0  0  0  0  0  0
    4.2108   -2.1353   -0.4377 C   0  0  0  0  0  0  0  0  0  0  0  0
    5.1163   -1.1460   -0.0608 C   0  0  0  0  0  0  0  0  0  0  0  0
    6.8431   -1.5341    0.0803 S   0  0  0  0  0  6  0  0  0  0  0  0
    7.4935   -1.0700   -1.5033 C   0  0  0  0  0  0  0  0  0  0  0  0
    6.9606   -2.9745    0.2094 O   0  0  0  0  0  0  0  0  0  0  0  0
    7.4106   -0.6500    1.0803 O   0  0  0  0  0  0  0  0  0  0  0  0
    4.6726    0.1409    0.2379 C   0  0  0  0  0  0  0  0  0  0  0  0
    3.3105    0.4445    0.1296 C   0  0  0  0  0  0  0  0  0  0  0  0
   -1.1036    0.6402   -0.4284 N   0  0  0  0  0  0  0  0  0  0  0  0
   -4.1164    0.4867    0.1337 N   0  0  0  0  0  0  0  0  0  0  0  0
   -3.7553   -0.3869    1.2514 C   0  0  0  0  0  0  0  0  0  0  0  0
   -3.1012   -1.6875    0.7867 C   0  0  0  0  0  0  0  0  0  0  0  0
   -2.9640    0.2943    2.3707 C   0  0  0  0  0  0  0  0  0  0  0  0
   -7.3732   -0.1731   -0.6998 H   0  0  0  0  0  0  0  0  0  0  0  0
   -6.2510   -1.3721   -0.0467 H   0  0  0  0  0  0  0  0  0  0  0  0
   -6.8685   -0.0614    0.9919 H   0  0  0  0  0  0  0  0  0  0  0  0
   -3.9782    2.7929   -2.1426 H   0  0  0  0  0  0  0  0  0  0  0  0
   -2.1454    3.8302   -0.0308 H   0  0  0  0  0  0  0  0  0  0  0  0
    0.3336    4.0738    0.2417 H   0  0  0  0  0  0  0  0  0  0  0  0
    0.4162   -1.0626   -0.6162 H   0  0  0  0  0  0  0  0  0  0  0  0
    2.1596   -2.6003   -0.8397 H   0  0  0  0  0  0  0  0  0  0  0  0
    4.5428   -3.1496   -0.6483 H   0  0  0  0  0  0  0  0  0  0  0  0
    7.3267   -0.0025   -1.6592 H   0  0  0  0  0  0  0  0  0  0  0  0
    8.5650   -1.2817   -1.5043 H   0  0  0  0  0  0  0  0  0  0  0  0
    6.9987   -1.6579   -2.2786 H   0  0  0  0  0  0  0  0  0  0  0  0
    5.3671    0.9132    0.5615 H   0  0  0  0  0  0  0  0  0  0  0  0
    2.9963    1.4562    0.3700 H   0  0  0  0  0  0  0  0  0  0  0  0
   -4.7057   -0.6689    1.7210 H   0  0  0  0  0  0  0  0  0  0  0  0
   -3.7093   -2.1820    0.0215 H   0  0  0  0  0  0  0  0  0  0  0  0
   -2.1076   -1.5265    0.3634 H   0  0  0  0  0  0  0  0  0  0  0  0
   -2.9924   -2.3819    1.6267 H   0  0  0  0  0  0  0  0  0  0  0  0
   -3.4008    1.2646    2.6307 H   0  0  0  0  0  0  0  0  0  0  0  0
   -1.9144    0.4490    2.1103 H   0  0  0  0  0  0  0  0  0  0  0  0
   -2.9757   -0.3292    3.2720 H   0  0  0  0  0  0  0  0  0  0  0  0
  1  2  1  0
  2  3  2  0
  3  4  1  0
  4  5  2  0
  5  6  1  0
  6  7  2  0
  7  8  1  0
  8  9  2  0
  9 10  1  0
 10 11  1  0
 11 12  1  0
 12 13  2  0
 13 14  1  0
 14 15  2  0
 15 16  1  0
 16 17  1  0
 16 18  2  0
 16 19  2  0
 15 20  1  0
 20 21  2  0
 10 22  2  0
  5 23  1  0
 23 24  1  0
 24 25  1  0
 24 26  1  0
 23  2  1  0
 22  6  1  0
 21 12  1  0
  1 27  1  0
  1 28  1  0
  1 29  1  0
  4 30  1  0
  7 31  1  0
  8 32  1  0
 11 33  1  0
 13 34  1  0
 14 35  1  0
 17 36  1  0
 17 37  1  0
 17 38  1  0
 20 39  1  0
 21 40  1  0
 24 41  1  0
 25 42  1  0
 25 43  1  0
 25 44  1  0
 26 45  1  0
 26 46  1  0
 26 47  1  0
M  END
$$$$
