
     RDKit          3D

 76 76  0  0  0  0  0  0  0  0999 V2000
    6.4386    2.2429    0.7146 C   0  0  0  0  0  0  0  0  0  0  0  0
    6.2013    0.7772    0.3610 C   0  0  0  0  0  0  0  0  0  0  0  0
    4.9171    0.2652    0.8693 N   0  0  0  0  0  0  0  0  0  0  0  0
    4.9123   -1.2062    0.9290 C   0  0  0  0  0  0  0  0  0  0  0  0
    4.9469   -1.9390   -0.4100 C   0  0  0  0  0  0  0  0  0  0  0  0
    3.7680    0.8402    0.1432 C   0  0  0  0  0  0  0  0  0  0  0  0
    2.3857    0.4287    0.6890 C   0  0  0  0  0  0  0  0  0  0  0  0
    1.3207    1.2124    0.1432 O   0  0  0  0  0  0  0  0  0  0  0  0
    1.0184    0.9891   -1.2372 C   0  0  0  0  0  0  0  0  0  0  0  0
    0.4001   -0.3849   -1.5160 C   0  0  0  0  0  0  0  0  0  0  0  0
   -0.7341   -0.6336   -0.6682 O   0  0  0  0  0  0  0  0  0  0  0  0
   -1.8877    0.0064   -1.0143 C   0  0  0  0  0  0  0  0  0  0  0  0
   -1.9946    0.7067   -2.0150 O   0  0  0  0  0  0  0  0  0  0  0  0
   -2.9951   -0.2042    0.0398 C   0  0  0  0  0  0  0  0  0  0  0  0
   -4.3897   -0.0711   -0.6051 C   0  0  0  0  0  0  0  0  0  0  0  0
   -4.7511   -0.9525   -1.6456 C   0  0  0  0  0  0  0  0  0  0  0  0
   -6.0064   -0.8856   -2.2535 C   0  0  0  0  0  0  0  0  0  0  0  0
   -6.9301    0.0667   -1.8362 C   0  0  0  0  0  0  0  0  0  0  0  0
   -6.5951    0.9521   -0.8167 C   0  0  0  0  0  0  0  0  0  0  0  0
   -5.3376    0.8864   -0.2079 C   0  0  0  0  0  0  0  0  0  0  0  0
   -2.6923    0.7634    1.2109 C   0  0  0  0  0  0  0  0  0  0  0  0
   -3.3169    0.1403    2.4614 C   0  0  0  0  0  0  0  0  0  0  0  0
   -3.6057   -1.3172    2.1144 C   0  0  0  0  0  0  0  0  0  0  0  0
   -2.9057   -1.5632    0.7812 C   0  0  0  0  0  0  0  0  0  0  0  0
    2.5051    0.1564   -1.0467 O   0  0  0  0  0  0  0  0  0  0  0  0
    2.2045    0.2916    0.1265 C   0  0  0  0  0  0  0  0  0  0  0  0
    3.1558    0.4907    1.0596 O   0  0  0  0  0  0  0  0  0  0  0  0
    0.8240    0.2931    0.7253 C   0  0  0  0  0  0  0  0  0  0  0  0
   -0.2654   -0.0892   -0.2836 C   0  0  0  0  0  0  0  0  0  0  0  0
   -0.4394    0.9857   -1.2148 O   0  0  0  0  0  0  0  0  0  0  0  0
   -1.6214   -0.3685    0.3758 C   0  0  0  0  0  0  0  0  0  0  0  0
   -2.2214    0.8178    1.0698 C   0  0  0  0  0  0  0  0  0  0  0  0
   -3.1921    1.4587    0.7047 O   0  0  0  0  0  0  0  0  0  0  0  0
   -1.6175    1.1084    2.2387 O   0  0  0  0  0  0  0  0  0  0  0  0
    0.1207   -1.3986   -0.9950 C   0  0  0  0  0  0  0  0  0  0  0  0
    0.3815   -2.4644   -0.4627 O   0  0  0  0  0  0  0  0  0  0  0  0
    0.1616   -1.2654   -2.3399 O   0  0  0  0  0  0  0  0  0  0  0  0
    7.4602    2.5300    0.4439 H   0  0  0  0  0  0  0  0  0  0  0  0
    5.7596    2.9110    0.1772 H   0  0  0  0  0  0  0  0  0  0  0  0
    6.3175    2.4137    1.7895 H   0  0  0  0  0  0  0  0  0  0  0  0
    7.0250    0.2118    0.8158 H   0  0  0  0  0  0  0  0  0  0  0  0
    6.2849    0.6422   -0.7242 H   0  0  0  0  0  0  0  0  0  0  0  0
    5.7672   -1.5403    1.5304 H   0  0  0  0  0  0  0  0  0  0  0  0
    4.0370   -1.5449    1.4962 H   0  0  0  0  0  0  0  0  0  0  0  0
    4.9620   -3.0208   -0.2379 H   0  0  0  0  0  0  0  0  0  0  0  0
    4.0659   -1.7159   -1.0193 H   0  0  0  0  0  0  0  0  0  0  0  0
    5.8419   -1.6869   -0.9869 H   0  0  0  0  0  0  0  0  0  0  0  0
    3.8050    1.9349    0.1988 H   0  0  0  0  0  0  0  0  0  0  0  0
    3.8325    0.5985   -0.9246 H   0  0  0  0  0  0  0  0  0  0  0  0
    2.3657    0.6073    1.7705 H   0  0  0  0  0  0  0  0  0  0  0  0
    2.1823   -0.6356    0.5390 H   0  0  0  0  0  0  0  0  0  0  0  0
    0.3065    1.7733   -1.5120 H   0  0  0  0  0  0  0  0  0  0  0  0
    1.9082    1.1446   -1.8542 H   0  0  0  0  0  0  0  0  0  0  0  0
    1.1217   -1.1804   -1.3078 H   0  0  0  0  0  0  0  0  0  0  0  0
    0.1197   -0.4840   -2.5707 H   0  0  0  0  0  0  0  0  0  0  0  0
   -4.0472   -1.7035   -2.0005 H   0  0  0  0  0  0  0  0  0  0  0  0
   -6.2585   -1.5747   -3.0551 H   0  0  0  0  0  0  0  0  0  0  0  0
   -7.9066    0.1229   -2.3084 H   0  0  0  0  0  0  0  0  0  0  0  0
   -7.3129    1.7018   -0.4935 H   0  0  0  0  0  0  0  0  0  0  0  0
   -5.1305    1.6035    0.5803 H   0  0  0  0  0  0  0  0  0  0  0  0
   -1.6080    0.8333    1.3766 H   0  0  0  0  0  0  0  0  0  0  0  0
   -3.0291    1.7914    1.0424 H   0  0  0  0  0  0  0  0  0  0  0  0
   -4.2406    0.6550    2.7452 H   0  0  0  0  0  0  0  0  0  0  0  0
   -2.6292    0.2156    3.3107 H   0  0  0  0  0  0  0  0  0  0  0  0
   -3.2526   -2.0027    2.8922 H   0  0  0  0  0  0  0  0  0  0  0  0
   -4.6866   -1.4693    2.0103 H   0  0  0  0  0  0  0  0  0  0  0  0
   -3.3598   -2.4007    0.2415 H   0  0  0  0  0  0  0  0  0  0  0  0
   -1.8682   -1.8516    0.9896 H   0  0  0  0  0  0  0  0  0  0  0  0
    3.9992    0.4858    0.5602 H   0  0  0  0  0  0  0  0  0  0  0  0
    0.8284   -0.4184    1.5590 H   0  0  0  0  0  0  0  0  0  0  0  0
    0.6560    1.3060    1.1058 H   0  0  0  0  0  0  0  0  0  0  0  0
    0.0909    0.7496   -2.0054 H   0  0  0  0  0  0  0  0  0  0  0  0
   -2.3495   -0.6836   -0.3858 H   0  0  0  0  0  0  0  0  0  0  0  0
   -1.5619   -1.1952    1.0960 H   0  0  0  0  0  0  0  0  0  0  0  0
   -2.1274    1.8772    2.5747 H   0  0  0  0  0  0  0  0  0  0  0  0
    0.4684   -2.1376   -2.6667 H   0  0  0  0  0  0  0  0  0  0  0  0
  1  2  1  0
  2  3  1  0
  3  4  1  0
  4  5  1  0
  3  6  1  0
  6  7  1  0
  7  8  1  0
  8  9  1  0
  9 10  1  0
 10 11  1  0
 11 12  1  0
 12 13  2  0
 12 14  1  0
 14 15  1  0
 15 16  2  0
 16 17  1  0
 17 18  2  0
 18 19  1  0
 19 20  2  0
 14 21  1  0
 21 22  1  0
 22 23  1  0
 23 24  1  0
 25 26  2  0
 26 27  1  0
 26 28  1  0
 28 29  1  0
 29 30  1  0
 29 31  1  0
 31 32  1  0
 32 33  2  0
 32 34  1  0
 29 35  1  0
 35 36  2  0
 35 37  1  0
 24 14  1  0
 20 15  1  0
  1 38  1  0
  1 39  1  0
  1 40  1  0
  2 41  1  0
  2 42  1  0
  4 43  1  0
  4 44  1  0
  5 45  1  0
  5 46  1  0
  5 47  1  0
  6 48  1  0
  6 49  1  0
  7 50  1  0
  7 51  1  0
  9 52  1  0
  9 53  1  0
 10 54  1  0
 10 55  1  0
 16 56  1  0
 17 57  1  0
 18 58  1  0
 19 59  1  0
 20 60  1  0
 21 61  1  0
 21 62  1  0
 22 63  1  0
 22 64  1  0
 23 65  1  0
 23 66  1  0
 24 67  1  0
 24 68  1  0
 27 69  1  0
 28 70  1  0
 28 71  1  0
 30 72  1  0
 31 73  1  0
 31 74  1  0
 34 75  1  0
 37 76  1  0
M  END
$$$$
