
     RDKit          3D

 58 60  0  0  0  0  0  0  0  0999 V2000
    6.9388    2.0375    1.2084 C   0  0  0  0  0  0  0  0  0  0  0  0
    5.5916    2.0090    0.7568 O   0  0  0  0  0  0  0  0  0  0  0  0
    5.1339    0.7725    0.3755 C   0  0  0  0  0  0  0  0  0  0  0  0
    5.9421   -0.1614   -0.2865 C   0  0  0  0  0  0  0  0  0  0  0  0
    5.4449   -1.4264   -0.6156 C   0  0  0  0  0  0  0  0  0  0  0  0
    4.1336   -1.7608   -0.2933 C   0  0  0  0  0  0  0  0  0  0  0  0
    3.3100   -0.8138    0.3275 C   0  0  0  0  0  0  0  0  0  0  0  0
    1.9401   -1.2237    0.6908 C   0  0  0  0  0  0  0  0  0  0  0  0
    1.7510   -1.6354    1.8331 O   0  0  0  0  0  0  0  0  0  0  0  0
    0.9522   -1.1648   -0.2905 N   0  0  0  0  0  0  0  0  0  0  0  0
    1.1582   -0.6833   -1.6619 C   0  0  0  0  0  0  0  0  0  0  0  0
    0.0868   -1.1965   -2.6220 C   0  0  0  0  0  0  0  0  0  0  0  0
   -1.3410   -0.8483   -2.1727 C   0  0  0  0  0  0  0  0  0  0  0  0
   -1.4525   -0.6883   -0.6440 C   0  0  0  0  0  0  0  0  0  0  0  0
   -2.8467   -0.8246   -0.1509 N   0  0  0  0  0  0  0  0  0  0  0  0
   -3.4016   -2.1032   -0.1703 C   0  0  0  0  0  0  0  0  0  0  0  0
   -4.7797   -2.3386    0.3802 C   0  0  0  0  0  0  0  0  0  0  0  0
   -2.8014   -3.0652   -0.6636 O   0  0  0  0  0  0  0  0  0  0  0  0
   -3.4339    0.3977    0.4553 C   0  0  0  0  0  0  0  0  0  0  0  0
   -3.3294    0.4225    1.9831 C   0  0  0  0  0  0  0  0  0  0  0  0
   -3.8582    1.7454    2.5172 C   0  0  0  0  0  0  0  0  0  0  0  0
   -5.1809    1.9983    2.0406 O   0  0  0  0  0  0  0  0  0  0  0  0
   -5.2457    2.1036    0.6182 C   0  0  0  0  0  0  0  0  0  0  0  0
   -4.8364    0.7842   -0.0260 C   0  0  0  0  0  0  0  0  0  0  0  0
   -0.4115   -1.5729    0.0748 C   0  0  0  0  0  0  0  0  0  0  0  0
    3.7922    0.4611    0.6487 C   0  0  0  0  0  0  0  0  0  0  0  0
    2.9806    1.3260    1.3401 O   0  0  0  0  0  0  0  0  0  0  0  0
    2.6048    2.4605    0.5648 C   0  0  0  0  0  0  0  0  0  0  0  0
    7.6331    2.0191    0.3619 H   0  0  0  0  0  0  0  0  0  0  0  0
    7.0950    2.9791    1.7390 H   0  0  0  0  0  0  0  0  0  0  0  0
    7.1459    1.2219    1.9095 H   0  0  0  0  0  0  0  0  0  0  0  0
    6.9681    0.0733   -0.5505 H   0  0  0  0  0  0  0  0  0  0  0  0
    6.0867   -2.1540   -1.1065 H   0  0  0  0  0  0  0  0  0  0  0  0
    3.7520   -2.7532   -0.5145 H   0  0  0  0  0  0  0  0  0  0  0  0
    2.1459   -0.9818   -2.0264 H   0  0  0  0  0  0  0  0  0  0  0  0
    1.1379    0.4131   -1.6265 H   0  0  0  0  0  0  0  0  0  0  0  0
    0.1717   -2.2866   -2.6830 H   0  0  0  0  0  0  0  0  0  0  0  0
    0.2649   -0.8114   -3.6353 H   0  0  0  0  0  0  0  0  0  0  0  0
   -1.6771    0.0815   -2.6559 H   0  0  0  0  0  0  0  0  0  0  0  0
   -2.0112   -1.6336   -2.5508 H   0  0  0  0  0  0  0  0  0  0  0  0
   -1.1389    0.3420   -0.4315 H   0  0  0  0  0  0  0  0  0  0  0  0
   -4.9483   -1.8235    1.3219 H   0  0  0  0  0  0  0  0  0  0  0  0
   -4.9011   -3.4111    0.5861 H   0  0  0  0  0  0  0  0  0  0  0  0
   -5.5242   -2.0520   -0.3692 H   0  0  0  0  0  0  0  0  0  0  0  0
   -2.8087    1.2281    0.1008 H   0  0  0  0  0  0  0  0  0  0  0  0
   -3.9092   -0.3886    2.4258 H   0  0  0  0  0  0  0  0  0  0  0  0
   -2.2904    0.2778    2.2992 H   0  0  0  0  0  0  0  0  0  0  0  0
   -3.2105    2.5787    2.2318 H   0  0  0  0  0  0  0  0  0  0  0  0
   -3.8903    1.7156    3.6123 H   0  0  0  0  0  0  0  0  0  0  0  0
   -4.6130    2.9326    0.2816 H   0  0  0  0  0  0  0  0  0  0  0  0
   -6.2760    2.3442    0.3454 H   0  0  0  0  0  0  0  0  0  0  0  0
   -5.5793    0.0411    0.2700 H   0  0  0  0  0  0  0  0  0  0  0  0
   -4.8611    0.8616   -1.1191 H   0  0  0  0  0  0  0  0  0  0  0  0
   -0.4980   -2.6221   -0.2214 H   0  0  0  0  0  0  0  0  0  0  0  0
   -0.5506   -1.5274    1.1594 H   0  0  0  0  0  0  0  0  0  0  0  0
    2.0444    3.1337    1.2212 H   0  0  0  0  0  0  0  0  0  0  0  0
    1.9404    2.1672   -0.2552 H   0  0  0  0  0  0  0  0  0  0  0  0
    3.4601    3.0233    0.1838 H   0  0  0  0  0  0  0  0  0  0  0  0
  1  2  1  0
  2  3  1  0
  3  4  2  0
  4  5  1  0
  5  6  2  0
  6  7  1  0
  7  8  1  0
  8  9  2  0
  8 10  1  0
 10 11  1  0
 11 12  1  0
 12 13  1  0
 13 14  1  0
 14 15  1  0
 15 16  1  0
 16 17  1  0
 16 18  2  0
 15 19  1  0
 19 20  1  0
 20 21  1  0
 21 22  1  0
 22 23  1  0
 23 24  1  0
 14 25  1  0
  7 26  2  0
 26 27  1  0
 27 28  1  0
 26  3  1  0
 25 10  1  0
 24 19  1  0
  1 29  1  0
  1 30  1  0
  1 31  1  0
  4 32  1  0
  5 33  1  0
  6 34  1  0
 11 35  1  0
 11 36  1  0
 12 37  1  0
 12 38  1  0
 13 39  1  0
 13 40  1  0
 14 41  1  0
 17 42  1  0
 17 43  1  0
 17 44  1  0
 19 45  1  0
 20 46  1  0
 20 47  1  0
 21 48  1  0
 21 49  1  0
 23 50  1  0
 23 51  1  0
 24 52  1  0
 24 53  1  0
 25 54  1  0
 25 55  1  0
 28 56  1  0
 28 57  1  0
 28 58  1  0
M  END
$$$$
