
     RDKit          3D

 94 97  0  0  0  0  0  0  0  0999 V2000
    6.0493    0.3654   -2.6082 C   0  0  0  0  0  0  0  0  0  0  0  0
    6.4162    1.7071   -2.0354 C   0  0  0  0  0  0  0  0  0  0  0  0
    6.9929    2.6689   -2.8784 C   0  0  0  0  0  0  0  0  0  0  0  0
    7.3566    3.9176   -2.3802 C   0  0  0  0  0  0  0  0  0  0  0  0
    7.1610    4.2151   -1.0324 C   0  0  0  0  0  0  0  0  0  0  0  0
    6.5846    3.2729   -0.1641 C   0  0  0  0  0  0  0  0  0  0  0  0
    6.4487    3.6277    1.2891 C   0  0  0  0  0  0  0  0  0  0  0  0
    6.1594    2.0393   -0.6905 C   0  0  0  0  0  0  0  0  0  0  0  0
    5.5618    1.0785    0.0852 O   0  0  0  0  0  0  0  0  0  0  0  0
    4.3027    1.4891    0.6187 C   0  0  0  0  0  0  0  0  0  0  0  0
    3.2539    0.4108    0.3637 C   0  0  0  0  0  0  0  0  0  0  0  0
    2.7636   -0.2445    1.2794 O   0  0  0  0  0  0  0  0  0  0  0  0
    2.9114    0.2853   -0.9675 N   0  0  0  0  0  0  0  0  0  0  0  0
    1.8326   -0.5746   -1.4812 C   0  0  1  0  0  0  0  0  0  0  0  0
    2.3123   -2.0249   -1.7371 C   0  0  0  0  0  0  0  0  0  0  0  0
    2.6131   -2.9072   -0.5503 C   0  0  0  0  0  0  0  0  0  0  0  0
    3.9084   -2.9594   -0.0181 C   0  0  0  0  0  0  0  0  0  0  0  0
    4.2056   -3.8002    1.0551 C   0  0  0  0  0  0  0  0  0  0  0  0
    3.2126   -4.6035    1.6057 C   0  0  0  0  0  0  0  0  0  0  0  0
    1.9207   -4.5644    1.0859 C   0  0  0  0  0  0  0  0  0  0  0  0
    1.6244   -3.7238    0.0121 C   0  0  0  0  0  0  0  0  0  0  0  0
    0.4900   -0.3971   -0.7114 C   0  0  1  0  0  0  0  0  0  0  0  0
    0.2561    1.0227   -0.6148 O   0  0  0  0  0  0  0  0  0  0  0  0
   -0.7286   -1.0156   -1.4395 C   0  0  0  0  0  0  0  0  0  0  0  0
   -1.7854   -1.6316   -0.4793 C   0  0  2  0  0  0  0  0  0  0  0  0
   -2.3229   -2.9578   -1.0892 C   0  0  0  0  0  0  0  0  0  0  0  0
   -3.2904   -3.7029   -0.1927 C   0  0  0  0  0  0  0  0  0  0  0  0
   -4.5797   -4.0087   -0.6494 C   0  0  0  0  0  0  0  0  0  0  0  0
   -5.4804   -4.6884    0.1706 C   0  0  0  0  0  0  0  0  0  0  0  0
   -5.1019   -5.0749    1.4548 C   0  0  0  0  0  0  0  0  0  0  0  0
   -3.8194   -4.7897    1.9153 C   0  0  0  0  0  0  0  0  0  0  0  0
   -2.9145   -4.1148    1.0930 C   0  0  0  0  0  0  0  0  0  0  0  0
   -2.9160   -0.7292   -0.2214 N   0  0  0  0  0  0  0  0  0  0  0  0
   -2.8386    0.3849    0.5769 C   0  0  0  0  0  0  0  0  0  0  0  0
   -1.7584    0.7478    1.0504 O   0  0  0  0  0  0  0  0  0  0  0  0
   -4.1792    1.0804    0.9761 C   0  0  2  0  0  0  0  0  0  0  0  0
   -5.4933    0.9128    0.1588 C   0  0  0  0  0  0  0  0  0  0  0  0
   -6.2193   -0.3997    0.4958 C   0  0  0  0  0  0  0  0  0  0  0  0
   -5.3999    1.0850   -1.3562 C   0  0  0  0  0  0  0  0  0  0  0  0
   -3.9188    2.4987    1.3148 N   0  0  0  0  0  0  0  0  0  0  0  0
   -3.8789    2.8507    2.7291 C   0  0  0  0  0  0  0  0  0  0  0  0
   -4.0157    4.3422    2.9531 C   0  0  0  0  0  0  0  0  0  0  0  0
   -2.9822    5.0305    2.0973 C   0  0  0  0  0  0  0  0  0  0  0  0
   -3.1029    4.6058    0.7284 N   0  0  0  0  0  0  0  0  0  0  0  0
   -3.3963    3.3329    0.3465 C   0  0  0  0  0  0  0  0  0  0  0  0
   -3.1962    3.0036   -0.8175 O   0  0  0  0  0  0  0  0  0  0  0  0
    5.0161    0.3777   -2.9619 H   0  0  0  0  0  0  0  0  0  0  0  0
    6.6992    0.1103   -3.4504 H   0  0  0  0  0  0  0  0  0  0  0  0
    6.1646   -0.4323   -1.8690 H   0  0  0  0  0  0  0  0  0  0  0  0
    7.1683    2.4459   -3.9292 H   0  0  0  0  0  0  0  0  0  0  0  0
    7.8074    4.6563   -3.0395 H   0  0  0  0  0  0  0  0  0  0  0  0
    7.4767    5.1871   -0.6559 H   0  0  0  0  0  0  0  0  0  0  0  0
    7.1867    4.3858    1.5757 H   0  0  0  0  0  0  0  0  0  0  0  0
    6.6312    2.7522    1.9223 H   0  0  0  0  0  0  0  0  0  0  0  0
    5.4495    4.0269    1.4910 H   0  0  0  0  0  0  0  0  0  0  0  0
    4.4044    1.6122    1.7014 H   0  0  0  0  0  0  0  0  0  0  0  0
    3.9311    2.4291    0.1910 H   0  0  0  0  0  0  0  0  0  0  0  0
    3.2456    1.0079   -1.5915 H   0  0  0  0  0  0  0  0  0  0  0  0
    1.6597   -0.1486   -2.4810 H   0  0  0  0  0  0  0  0  0  0  0  0
    1.5882   -2.5485   -2.3731 H   0  0  0  0  0  0  0  0  0  0  0  0
    3.2212   -1.9778   -2.3583 H   0  0  0  0  0  0  0  0  0  0  0  0
    4.6942   -2.3321   -0.4310 H   0  0  0  0  0  0  0  0  0  0  0  0
    5.2139   -3.8175    1.4639 H   0  0  0  0  0  0  0  0  0  0  0  0
    3.4423   -5.2526    2.4451 H   0  0  0  0  0  0  0  0  0  0  0  0
    1.1455   -5.1950    1.5114 H   0  0  0  0  0  0  0  0  0  0  0  0
    0.6170   -3.7224   -0.3885 H   0  0  0  0  0  0  0  0  0  0  0  0
    0.5887   -0.7937    0.3025 H   0  0  0  0  0  0  0  0  0  0  0  0
   -0.4486    1.1269    0.0641 H   0  0  0  0  0  0  0  0  0  0  0  0
   -0.3801   -1.8008   -2.1206 H   0  0  0  0  0  0  0  0  0  0  0  0
   -1.2117   -0.2575   -2.0716 H   0  0  0  0  0  0  0  0  0  0  0  0
   -1.3241   -1.8452    0.4903 H   0  0  0  0  0  0  0  0  0  0  0  0
   -1.4931   -3.6370   -1.3202 H   0  0  0  0  0  0  0  0  0  0  0  0
   -2.8126   -2.7336   -2.0478 H   0  0  0  0  0  0  0  0  0  0  0  0
   -4.8931   -3.7175   -1.6497 H   0  0  0  0  0  0  0  0  0  0  0  0
   -6.4800   -4.9153   -0.1919 H   0  0  0  0  0  0  0  0  0  0  0  0
   -5.8039   -5.6035    2.0927 H   0  0  0  0  0  0  0  0  0  0  0  0
   -3.5194   -5.1005    2.9139 H   0  0  0  0  0  0  0  0  0  0  0  0
   -1.9127   -3.9141    1.4677 H   0  0  0  0  0  0  0  0  0  0  0  0
   -3.8302   -1.0715   -0.4652 H   0  0  0  0  0  0  0  0  0  0  0  0
   -4.3906    0.6008    1.9436 H   0  0  0  0  0  0  0  0  0  0  0  0
   -6.1782    1.7014    0.5073 H   0  0  0  0  0  0  0  0  0  0  0  0
   -6.2912   -0.5502    1.5794 H   0  0  0  0  0  0  0  0  0  0  0  0
   -5.7351   -1.2711    0.0609 H   0  0  0  0  0  0  0  0  0  0  0  0
   -7.2430   -0.3693    0.1054 H   0  0  0  0  0  0  0  0  0  0  0  0
   -6.3468    0.8064   -1.8337 H   0  0  0  0  0  0  0  0  0  0  0  0
   -4.6180    0.4743   -1.8104 H   0  0  0  0  0  0  0  0  0  0  0  0
   -5.2322    2.1297   -1.6283 H   0  0  0  0  0  0  0  0  0  0  0  0
   -4.7016    2.3383    3.2417 H   0  0  0  0  0  0  0  0  0  0  0  0
   -2.9312    2.4794    3.1364 H   0  0  0  0  0  0  0  0  0  0  0  0
   -5.0221    4.6672    2.6588 H   0  0  0  0  0  0  0  0  0  0  0  0
   -3.8775    4.5946    4.0090 H   0  0  0  0  0  0  0  0  0  0  0  0
   -3.1122    6.1153    2.1254 H   0  0  0  0  0  0  0  0  0  0  0  0
   -1.9668    4.7959    2.4324 H   0  0  0  0  0  0  0  0  0  0  0  0
   -2.6148    5.1235    0.0084 H   0  0  0  0  0  0  0  0  0  0  0  0
  1  2  1  0
  2  3  2  0
  3  4  1  0
  4  5  2  0
  5  6  1  0
  6  7  1  0
  6  8  2  0
  8  9  1  0
  9 10  1  0
 10 11  1  0
 11 12  2  0
 11 13  1  0
 13 14  1  0
 14 15  1  0
 15 16  1  0
 16 17  2  0
 17 18  1  0
 18 19  2  0
 19 20  1  0
 20 21  2  0
 14 22  1  0
 22 23  1  0
 22 24  1  0
 24 25  1  0
 25 26  1  0
 26 27  1  0
 27 28  2  0
 28 29  1  0
 29 30  2  0
 30 31  1  0
 31 32  2  0
 25 33  1  0
 33 34  1  0
 34 35  2  0
 34 36  1  0
 36 37  1  0
 37 38  1  0
 37 39  1  0
 36 40  1  0
 40 41  1  0
 41 42  1  0
 42 43  1  0
 43 44  1  0
 44 45  1  0
 45 46  2  0
  8  2  1  0
 21 16  1  0
 32 27  1  0
 45 40  1  0
  1 47  1  0
  1 48  1  0
  1 49  1  0
  3 50  1  0
  4 51  1  0
  5 52  1  0
  7 53  1  0
  7 54  1  0
  7 55  1  0
 10 56  1  0
 10 57  1  0
 13 58  1  0
 14 59  1  6
 15 60  1  0
 15 61  1  0
 17 62  1  0
 18 63  1  0
 19 64  1  0
 20 65  1  0
 21 66  1  0
 22 67  1  1
 23 68  1  0
 24 69  1  0
 24 70  1  0
 25 71  1  1
 26 72  1  0
 26 73  1  0
 28 74  1  0
 29 75  1  0
 30 76  1  0
 31 77  1  0
 32 78  1  0
 33 79  1  0
 36 80  1  1
 37 81  1  0
 38 82  1  0
 38 83  1  0
 38 84  1  0
 39 85  1  0
 39 86  1  0
 39 87  1  0
 41 88  1  0
 41 89  1  0
 42 90  1  0
 42 91  1  0
 43 92  1  0
 43 93  1  0
 44 94  1  0
M  END
$$$$
