
     RDKit          3D

 50 53  0  0  0  0  0  0  0  0999 V2000
    3.2942    2.0771    0.3486 O   0  0  0  0  0  0  0  0  0  0  0  0
    2.9598    0.8993    0.3921 C   0  0  0  0  0  0  0  0  0  0  0  0
    3.8933   -0.1939    0.7862 C   0  0  0  0  0  0  0  0  0  0  0  0
    5.2983    0.0593    1.1516 C   0  0  0  0  0  0  0  0  0  0  0  0
    5.6207    1.0391    2.1037 C   0  0  0  0  0  0  0  0  0  0  0  0
    6.9512    1.2817    2.4597 C   0  0  0  0  0  0  0  0  0  0  0  0
    7.9651    0.5444    1.8574 C   0  0  0  0  0  0  0  0  0  0  0  0
    9.2762    0.7498    2.1698 O   0  0  0  0  0  0  0  0  0  0  0  0
    7.6707   -0.4269    0.9078 C   0  0  0  0  0  0  0  0  0  0  0  0
    6.3409   -0.6691    0.5533 C   0  0  0  0  0  0  0  0  0  0  0  0
    3.3920   -1.4391    0.8229 C   0  0  0  0  0  0  0  0  0  0  0  0
    2.1073   -1.8203    0.5191 O   0  0  0  0  0  0  0  0  0  0  0  0
    1.2308   -0.8439    0.1231 C   0  0  0  0  0  0  0  0  0  0  0  0
   -0.0642   -1.2450   -0.2069 C   0  0  0  0  0  0  0  0  0  0  0  0
   -1.0095   -0.3068   -0.6353 C   0  0  0  0  0  0  0  0  0  0  0  0
   -2.2368   -0.8286   -0.9295 O   0  0  0  0  0  0  0  0  0  0  0  0
   -3.1401   -0.0290   -1.7101 C   0  0  2  0  0  0  0  0  0  0  0  0
   -3.7449    1.0116   -0.9280 O   0  0  0  0  0  0  0  0  0  0  0  0
   -4.9885    0.6646   -0.2794 C   0  0  2  0  0  0  0  0  0  0  0  0
   -5.1017    1.5469    0.9703 C   0  0  0  0  0  0  0  0  0  0  0  0
   -4.9992    2.9249    0.5994 O   0  0  0  0  0  0  0  0  0  0  0  0
   -5.0718   -0.8236    0.0643 C   0  0  1  0  0  0  0  0  0  0  0  0
   -6.2571   -1.1439    0.7949 O   0  0  0  0  0  0  0  0  0  0  0  0
   -5.0198   -1.6583   -1.2291 C   0  0  2  0  0  0  0  0  0  0  0  0
   -4.5177   -2.9658   -0.8978 O   0  0  0  0  0  0  0  0  0  0  0  0
   -4.1750   -0.9927   -2.3329 C   0  0  1  0  0  0  0  0  0  0  0  0
   -5.0471   -0.2927   -3.2310 O   0  0  0  0  0  0  0  0  0  0  0  0
   -0.6543    1.0414   -0.7059 C   0  0  0  0  0  0  0  0  0  0  0  0
    0.6429    1.4450   -0.3686 C   0  0  0  0  0  0  0  0  0  0  0  0
    1.5849    0.4973    0.0415 C   0  0  0  0  0  0  0  0  0  0  0  0
    4.8349    1.6300    2.5733 H   0  0  0  0  0  0  0  0  0  0  0  0
    7.1712    2.0491    3.1962 H   0  0  0  0  0  0  0  0  0  0  0  0
    9.3282    1.4453    2.8469 H   0  0  0  0  0  0  0  0  0  0  0  0
    8.4738   -0.9902    0.4391 H   0  0  0  0  0  0  0  0  0  0  0  0
    6.1325   -1.4216   -0.2045 H   0  0  0  0  0  0  0  0  0  0  0  0
    3.9645   -2.3115    1.1174 H   0  0  0  0  0  0  0  0  0  0  0  0
   -0.3324   -2.2965   -0.1388 H   0  0  0  0  0  0  0  0  0  0  0  0
   -2.5974    0.4577   -2.5315 H   0  0  0  0  0  0  0  0  0  0  0  0
   -5.8004    0.9493   -0.9599 H   0  0  0  0  0  0  0  0  0  0  0  0
   -4.2843    1.3394    1.6673 H   0  0  0  0  0  0  0  0  0  0  0  0
   -6.0535    1.4029    1.4876 H   0  0  0  0  0  0  0  0  0  0  0  0
   -4.2540    2.9661   -0.0321 H   0  0  0  0  0  0  0  0  0  0  0  0
   -4.2317   -1.0958    0.7148 H   0  0  0  0  0  0  0  0  0  0  0  0
   -6.3094   -2.1188    0.8272 H   0  0  0  0  0  0  0  0  0  0  0  0
   -6.0394   -1.8252   -1.5991 H   0  0  0  0  0  0  0  0  0  0  0  0
   -3.5783   -2.8748   -0.6559 H   0  0  0  0  0  0  0  0  0  0  0  0
   -3.6596   -1.7683   -2.9117 H   0  0  0  0  0  0  0  0  0  0  0  0
   -4.5155    0.0538   -3.9678 H   0  0  0  0  0  0  0  0  0  0  0  0
   -1.3646    1.8081   -1.0016 H   0  0  0  0  0  0  0  0  0  0  0  0
    0.9148    2.4979   -0.4274 H   0  0  0  0  0  0  0  0  0  0  0  0
  1  2  2  0
  2  3  1  0
  3  4  1  0
  4  5  2  0
  5  6  1  0
  6  7  2  0
  7  8  1  0
  7  9  1  0
  9 10  2  0
  3 11  2  0
 11 12  1  0
 12 13  1  0
 13 14  2  0
 14 15  1  0
 15 16  1  0
 16 17  1  0
 17 18  1  0
 18 19  1  0
 19 20  1  0
 20 21  1  0
 19 22  1  0
 22 23  1  0
 22 24  1  0
 24 25  1  0
 24 26  1  0
 26 27  1  0
 15 28  2  0
 28 29  1  0
 29 30  2  0
 30  2  1  0
 10  4  1  0
 30 13  1  0
 26 17  1  0
  5 31  1  0
  6 32  1  0
  8 33  1  0
  9 34  1  0
 10 35  1  0
 11 36  1  0
 14 37  1  0
 17 38  1  6
 19 39  1  6
 20 40  1  0
 20 41  1  0
 21 42  1  0
 22 43  1  1
 23 44  1  0
 24 45  1  6
 25 46  1  0
 26 47  1  6
 27 48  1  0
 28 49  1  0
 29 50  1  0
M  END
$$$$
