
     RDKit          3D

 48 50  0  0  0  0  0  0  0  0999 V2000
   -8.1898    2.1843   -0.5539 C   0  0  0  0  0  0  0  0  0  0  0  0
   -6.8600    1.5438   -0.2890 C   0  0  0  0  0  0  0  0  0  0  0  0
   -6.7147    0.6007    0.7316 C   0  0  0  0  0  0  0  0  0  0  0  0
   -5.4797   -0.0166    0.9543 C   0  0  0  0  0  0  0  0  0  0  0  0
   -4.3707    0.2905    0.1564 C   0  0  0  0  0  0  0  0  0  0  0  0
   -3.1637   -0.3799    0.4455 N   0  0  0  0  0  0  0  0  0  0  0  0
   -1.9375   -0.1993   -0.1631 C   0  0  0  0  0  0  0  0  0  0  0  0
   -1.6512    0.6183   -1.0294 O   0  0  0  0  0  0  0  0  0  0  0  0
   -0.8818   -1.1095    0.3845 C   0  0  0  0  0  0  0  0  0  0  0  0
   -1.1045   -2.5192    0.6256 C   0  0  0  0  0  0  0  0  0  0  0  0
   -0.1176   -3.2911    1.1006 C   0  0  0  0  0  0  0  0  0  0  0  0
    1.2276   -2.7154    1.3794 C   0  0  0  0  0  0  0  0  0  0  0  0
    2.1157   -3.4489    1.8019 O   0  0  0  0  0  0  0  0  0  0  0  0
    1.3716   -1.3531    1.1167 N   0  0  0  0  0  0  0  0  0  0  0  0
    2.6846   -0.7342    1.3241 C   0  0  0  0  0  0  0  0  0  0  0  0
    3.6121   -0.9301    0.1068 C   0  0  0  0  0  0  0  0  0  0  0  0
    4.9362   -0.2978    0.2573 N   0  0  0  0  0  0  0  0  0  0  0  0
    5.8532   -0.6897   -0.8373 C   0  0  0  0  0  0  0  0  0  0  0  0
    5.9579    0.3611   -1.9537 C   0  0  0  0  0  0  0  0  0  0  0  0
    6.4255    1.6351   -1.4895 O   0  0  0  0  0  0  0  0  0  0  0  0
    6.1356    1.8697   -0.1049 C   0  0  0  0  0  0  0  0  0  0  0  0
    4.8423    1.1766    0.3511 C   0  0  0  0  0  0  0  0  0  0  0  0
    0.3329   -0.5837    0.6089 C   0  0  0  0  0  0  0  0  0  0  0  0
   -4.5215    1.2189   -0.8733 C   0  0  0  0  0  0  0  0  0  0  0  0
   -5.7574    1.8374   -1.0970 C   0  0  0  0  0  0  0  0  0  0  0  0
   -8.0633    3.1917   -0.9642 H   0  0  0  0  0  0  0  0  0  0  0  0
   -8.7678    2.2811    0.3712 H   0  0  0  0  0  0  0  0  0  0  0  0
   -8.7606    1.5809   -1.2663 H   0  0  0  0  0  0  0  0  0  0  0  0
   -7.5618    0.3404    1.3624 H   0  0  0  0  0  0  0  0  0  0  0  0
   -5.4034   -0.7401    1.7616 H   0  0  0  0  0  0  0  0  0  0  0  0
   -3.2003   -1.0287    1.2207 H   0  0  0  0  0  0  0  0  0  0  0  0
   -2.0688   -2.9530    0.3827 H   0  0  0  0  0  0  0  0  0  0  0  0
   -0.2336   -4.3525    1.2797 H   0  0  0  0  0  0  0  0  0  0  0  0
    3.1481   -1.1837    2.2111 H   0  0  0  0  0  0  0  0  0  0  0  0
    2.5353    0.3287    1.5467 H   0  0  0  0  0  0  0  0  0  0  0  0
    3.1152   -0.5663   -0.8024 H   0  0  0  0  0  0  0  0  0  0  0  0
    3.7481   -2.0110   -0.0288 H   0  0  0  0  0  0  0  0  0  0  0  0
    5.5868   -1.6648   -1.2618 H   0  0  0  0  0  0  0  0  0  0  0  0
    6.8469   -0.8153   -0.3889 H   0  0  0  0  0  0  0  0  0  0  0  0
    6.6546    0.0201   -2.7262 H   0  0  0  0  0  0  0  0  0  0  0  0
    4.9854    0.5113   -2.4366 H   0  0  0  0  0  0  0  0  0  0  0  0
    6.9929    1.5340    0.4903 H   0  0  0  0  0  0  0  0  0  0  0  0
    6.0500    2.9525    0.0319 H   0  0  0  0  0  0  0  0  0  0  0  0
    4.0219    1.5471   -0.2775 H   0  0  0  0  0  0  0  0  0  0  0  0
    4.6298    1.4578    1.3880 H   0  0  0  0  0  0  0  0  0  0  0  0
    0.5456    0.4645    0.4100 H   0  0  0  0  0  0  0  0  0  0  0  0
   -3.6988    1.4843   -1.5297 H   0  0  0  0  0  0  0  0  0  0  0  0
   -5.8475    2.5530   -1.9117 H   0  0  0  0  0  0  0  0  0  0  0  0
  1  2  1  0
  2  3  2  0
  3  4  1  0
  4  5  2  0
  5  6  1  0
  6  7  1  0
  7  8  2  0
  7  9  1  0
  9 10  1  0
 10 11  2  0
 11 12  1  0
 12 13  2  0
 12 14  1  0
 14 15  1  0
 15 16  1  0
 16 17  1  0
 17 18  1  0
 18 19  1  0
 19 20  1  0
 20 21  1  0
 21 22  1  0
 14 23  1  0
  5 24  1  0
 24 25  2  0
 25  2  1  0
 23  9  2  0
 22 17  1  0
  1 26  1  0
  1 27  1  0
  1 28  1  0
  3 29  1  0
  4 30  1  0
  6 31  1  0
 10 32  1  0
 11 33  1  0
 15 34  1  0
 15 35  1  0
 16 36  1  0
 16 37  1  0
 18 38  1  0
 18 39  1  0
 19 40  1  0
 19 41  1  0
 21 42  1  0
 21 43  1  0
 22 44  1  0
 22 45  1  0
 23 46  1  0
 24 47  1  0
 25 48  1  0
M  END
$$$$
