
     RDKit          3D

 52 54  0  0  0  0  0  0  0  0999 V2000
    7.3747    1.5265    0.0483 C   0  0  0  0  0  0  0  0  0  0  0  0
    8.2395    0.4333    0.3164 O   0  0  0  0  0  0  0  0  0  0  0  0
    7.5868   -0.7056    0.8817 C   0  0  0  0  0  0  0  0  0  0  0  0
    6.6241   -1.4098   -0.0804 C   0  0  0  0  0  0  0  0  0  0  0  0
    5.3008   -0.8051   -0.0990 N   0  0  0  0  0  0  0  0  0  0  0  0
    4.4054   -1.1229   -1.1114 C   0  0  0  0  0  0  0  0  0  0  0  0
    4.7297   -1.8176   -2.0714 O   0  0  0  0  0  0  0  0  0  0  0  0
    3.0442   -0.5782   -0.9197 C   0  0  0  0  0  0  0  0  0  0  0  0
    2.6301    0.4827   -0.0574 C   0  0  0  0  0  0  0  0  0  0  0  0
    1.2711    0.6117   -0.2429 C   0  0  0  0  0  0  0  0  0  0  0  0
    0.9476   -0.3366   -1.1677 N   0  0  0  0  0  0  0  0  0  0  0  0
    1.9861   -1.0642   -1.5972 N   0  0  0  0  0  0  0  0  0  0  0  0
   -0.3911   -0.5916   -1.6597 C   0  0  0  0  0  0  0  0  0  0  0  0
   -1.2608    0.6321   -1.4166 C   0  0  0  0  0  0  0  0  0  0  0  0
   -1.0905    1.1317   -0.0452 N   0  0  0  0  0  0  0  0  0  0  0  0
   -2.1346    1.5904    0.7562 C   0  0  0  0  0  0  0  0  0  0  0  0
   -1.9620    2.3328    1.7215 O   0  0  0  0  0  0  0  0  0  0  0  0
   -3.5259    1.2009    0.4343 C   0  0  0  0  0  0  0  0  0  0  0  0
   -4.4399    2.2323    0.1953 C   0  0  0  0  0  0  0  0  0  0  0  0
   -5.7683    1.9249   -0.0910 C   0  0  0  0  0  0  0  0  0  0  0  0
   -6.1955    0.5956   -0.1281 C   0  0  0  0  0  0  0  0  0  0  0  0
   -7.5203    0.4380   -0.4315 O   0  0  0  0  0  0  0  0  0  0  0  0
   -8.0349   -0.8875   -0.4370 C   0  0  0  0  0  0  0  0  0  0  0  0
   -5.2837   -0.4336    0.1341 C   0  0  0  0  0  0  0  0  0  0  0  0
   -3.9449   -0.1404    0.4340 C   0  0  0  0  0  0  0  0  0  0  0  0
   -2.9938   -1.0898    0.7049 O   0  0  0  0  0  0  0  0  0  0  0  0
   -3.4524   -2.3798    1.0917 C   0  0  0  0  0  0  0  0  0  0  0  0
    0.2589    1.5348    0.3368 C   0  0  0  0  0  0  0  0  0  0  0  0
    6.7478    1.7551    0.9154 H   0  0  0  0  0  0  0  0  0  0  0  0
    6.7569    1.3224   -0.8299 H   0  0  0  0  0  0  0  0  0  0  0  0
    7.9920    2.4017   -0.1729 H   0  0  0  0  0  0  0  0  0  0  0  0
    8.3882   -1.4075    1.1368 H   0  0  0  0  0  0  0  0  0  0  0  0
    7.0943   -0.4224    1.8194 H   0  0  0  0  0  0  0  0  0  0  0  0
    7.0292   -1.4130   -1.0981 H   0  0  0  0  0  0  0  0  0  0  0  0
    6.4791   -2.4478    0.2389 H   0  0  0  0  0  0  0  0  0  0  0  0
    4.9010   -0.5189    0.7833 H   0  0  0  0  0  0  0  0  0  0  0  0
    3.2450    1.0849    0.5960 H   0  0  0  0  0  0  0  0  0  0  0  0
   -0.7641   -1.4627   -1.1107 H   0  0  0  0  0  0  0  0  0  0  0  0
   -0.3335   -0.8292   -2.7264 H   0  0  0  0  0  0  0  0  0  0  0  0
   -2.3022    0.4034   -1.6501 H   0  0  0  0  0  0  0  0  0  0  0  0
   -0.9668    1.4513   -2.0859 H   0  0  0  0  0  0  0  0  0  0  0  0
   -4.1188    3.2706    0.2374 H   0  0  0  0  0  0  0  0  0  0  0  0
   -6.4786    2.7265   -0.2813 H   0  0  0  0  0  0  0  0  0  0  0  0
   -9.1022   -0.8310   -0.6717 H   0  0  0  0  0  0  0  0  0  0  0  0
   -7.9346   -1.3546    0.5483 H   0  0  0  0  0  0  0  0  0  0  0  0
   -7.5548   -1.4926   -1.2130 H   0  0  0  0  0  0  0  0  0  0  0  0
   -5.6133   -1.4639    0.0979 H   0  0  0  0  0  0  0  0  0  0  0  0
   -4.1793   -2.3198    1.9087 H   0  0  0  0  0  0  0  0  0  0  0  0
   -3.8656   -2.9178    0.2328 H   0  0  0  0  0  0  0  0  0  0  0  0
   -2.5888   -2.9458    1.4540 H   0  0  0  0  0  0  0  0  0  0  0  0
    0.3484    1.5533    1.4287 H   0  0  0  0  0  0  0  0  0  0  0  0
    0.4203    2.5529   -0.0358 H   0  0  0  0  0  0  0  0  0  0  0  0
  1  2  1  0
  2  3  1  0
  3  4  1  0
  4  5  1  0
  5  6  1  0
  6  7  2  0
  6  8  1  0
  8  9  1  0
  9 10  2  0
 10 11  1  0
 11 12  1  0
 11 13  1  0
 13 14  1  0
 14 15  1  0
 15 16  1  0
 16 17  2  0
 16 18  1  0
 18 19  2  0
 19 20  1  0
 20 21  2  0
 21 22  1  0
 22 23  1  0
 21 24  1  0
 24 25  2  0
 25 26  1  0
 26 27  1  0
 15 28  1  0
 12  8  2  0
 25 18  1  0
 28 10  1  0
  1 29  1  0
  1 30  1  0
  1 31  1  0
  3 32  1  0
  3 33  1  0
  4 34  1  0
  4 35  1  0
  5 36  1  0
  9 37  1  0
 13 38  1  0
 13 39  1  0
 14 40  1  0
 14 41  1  0
 19 42  1  0
 20 43  1  0
 23 44  1  0
 23 45  1  0
 23 46  1  0
 24 47  1  0
 27 48  1  0
 27 49  1  0
 27 50  1  0
 28 51  1  0
 28 52  1  0
M  END
$$$$
