
     RDKit          3D

 37 36  0  0  0  0  0  0  0  0999 V2000
   -4.1611    2.4832   -0.4567 N   0  0  0  0  0  0  0  0  0  0  0  0
   -4.3671    1.0948    0.0023 C   0  0  1  0  0  0  0  0  0  0  0  0
   -3.0755    0.4440    0.5096 C   0  0  0  0  0  0  0  0  0  0  0  0
   -2.0736    0.1494   -0.6072 C   0  0  0  0  0  0  0  0  0  0  0  0
   -0.8465   -0.5743   -0.0885 C   0  0  0  0  0  0  0  0  0  0  0  0
   -0.6573   -0.8434    1.0923 O   0  0  0  0  0  0  0  0  0  0  0  0
    0.0451   -0.9052   -1.0855 N   0  0  0  0  0  0  0  0  0  0  0  0
    1.3750   -1.4006   -0.7406 C   0  0  1  0  0  0  0  0  0  0  0  0
    1.9773   -2.2849   -1.8408 C   0  0  0  0  0  0  0  0  0  0  0  0
    1.9608   -1.5309   -3.5094 S   0  0  0  0  0  0  0  0  0  0  0  0
    2.3038   -0.2050   -0.4541 C   0  0  0  0  0  0  0  0  0  0  0  0
    2.1615    0.8899   -0.9971 O   0  0  0  0  0  0  0  0  0  0  0  0
    3.3532   -0.4793    0.3928 N   0  0  0  0  0  0  0  0  0  0  0  0
    4.2564    0.5818    0.8122 C   0  0  0  0  0  0  0  0  0  0  0  0
    5.3234    0.0178    1.7291 C   0  0  0  0  0  0  0  0  0  0  0  0
    5.3435   -1.1102    2.2000 O   0  0  0  0  0  0  0  0  0  0  0  0
    6.2897    0.9077    2.0239 O   0  0  0  0  0  0  0  0  0  0  0  0
   -5.4072    1.0799    1.1286 C   0  0  0  0  0  0  0  0  0  0  0  0
   -5.6279    1.9754    1.9305 O   0  0  0  0  0  0  0  0  0  0  0  0
   -6.0813   -0.0860    1.2040 O   0  0  0  0  0  0  0  0  0  0  0  0
   -4.0626    3.0841    0.3663 H   0  0  0  0  0  0  0  0  0  0  0  0
   -3.2965    2.5715   -0.9830 H   0  0  0  0  0  0  0  0  0  0  0  0
   -4.7787    0.5280   -0.8407 H   0  0  0  0  0  0  0  0  0  0  0  0
   -2.6071    1.0809    1.2724 H   0  0  0  0  0  0  0  0  0  0  0  0
   -3.3205   -0.4957    1.0231 H   0  0  0  0  0  0  0  0  0  0  0  0
   -1.7372    1.0783   -1.0799 H   0  0  0  0  0  0  0  0  0  0  0  0
   -2.5430   -0.4786   -1.3734 H   0  0  0  0  0  0  0  0  0  0  0  0
   -0.0094   -0.3750   -1.9494 H   0  0  0  0  0  0  0  0  0  0  0  0
    1.2969   -1.9940    0.1789 H   0  0  0  0  0  0  0  0  0  0  0  0
    1.4054   -3.2163   -1.9125 H   0  0  0  0  0  0  0  0  0  0  0  0
    3.0129   -2.5490   -1.6027 H   0  0  0  0  0  0  0  0  0  0  0  0
    2.6482   -0.4201   -3.1921 H   0  0  0  0  0  0  0  0  0  0  0  0
    3.3013   -1.2929    1.0001 H   0  0  0  0  0  0  0  0  0  0  0  0
    3.6781    1.3405    1.3474 H   0  0  0  0  0  0  0  0  0  0  0  0
    4.7193    1.0140   -0.0798 H   0  0  0  0  0  0  0  0  0  0  0  0
    6.8967    0.4256    2.6246 H   0  0  0  0  0  0  0  0  0  0  0  0
   -6.6957    0.0508    1.9555 H   0  0  0  0  0  0  0  0  0  0  0  0
  1  2  1  0
  2  3  1  0
  3  4  1  0
  4  5  1  0
  5  6  2  0
  5  7  1  0
  7  8  1  0
  8  9  1  0
  9 10  1  0
  8 11  1  0
 11 12  2  0
 11 13  1  0
 13 14  1  0
 14 15  1  0
 15 16  2  0
 15 17  1  0
  2 18  1  0
 18 19  2  0
 18 20  1  0
  1 21  1  0
  1 22  1  0
  2 23  1  6
  3 24  1  0
  3 25  1  0
  4 26  1  0
  4 27  1  0
  7 28  1  0
  8 29  1  1
  9 30  1  0
  9 31  1  0
 10 32  1  0
 13 33  1  0
 14 34  1  0
 14 35  1  0
 17 36  1  0
 20 37  1  0
M  END
$$$$
