
     RDKit          3D

 22 21  0  0  0  0  0  0  0  0999 V2000
    0.6920    0.0000    0.0000 Cl  0  0  0  0  0  0  0  0  0  0  0  0
   -2.3878    0.3946    0.9047 N   0  0  0  0  0  0  0  0  0  0  0  0
   -2.0213   -0.9367    0.4510 C   0  0  0  0  0  0  0  0  0  0  0  0
   -1.0412   -0.8988   -0.6824 C   0  0  0  0  0  0  0  0  0  0  0  0
    0.2272   -0.2159   -0.3158 C   0  0  0  0  0  0  0  0  0  0  0  0
    0.3996    1.1411   -0.4918 C   0  0  0  0  0  0  0  0  0  0  0  0
    1.6091    1.7273   -0.1303 C   0  0  0  0  0  0  0  0  0  0  0  0
    2.6549    1.0024    0.4023 C   0  0  0  0  0  0  0  0  0  0  0  0
    2.4575   -0.3541    0.5686 C   0  0  0  0  0  0  0  0  0  0  0  0
    1.2774   -0.9670    0.2232 C   0  0  0  0  0  0  0  0  0  0  0  0
   -0.6920    0.0000    0.0000 H   0  0  0  0  0  0  0  0  0  0  0  0
   -2.4714    1.0712    0.1299 H   0  0  0  0  0  0  0  0  0  0  0  0
   -3.1739    0.3790    1.5585 H   0  0  0  0  0  0  0  0  0  0  0  0
   -1.5949   -1.5296    1.2788 H   0  0  0  0  0  0  0  0  0  0  0  0
   -2.9496   -1.4090    0.0701 H   0  0  0  0  0  0  0  0  0  0  0  0
   -0.8047   -1.9499   -0.9560 H   0  0  0  0  0  0  0  0  0  0  0  0
   -1.4421   -0.4086   -1.5842 H   0  0  0  0  0  0  0  0  0  0  0  0
   -0.4104    1.7249   -0.9085 H   0  0  0  0  0  0  0  0  0  0  0  0
    1.7241    2.7926   -0.2763 H   0  0  0  0  0  0  0  0  0  0  0  0
    3.5978    1.4526    0.6853 H   0  0  0  0  0  0  0  0  0  0  0  0
    3.2515   -0.9876    0.9878 H   0  0  0  0  0  0  0  0  0  0  0  0
    1.0981   -2.0285    0.3437 H   0  0  0  0  0  0  0  0  0  0  0  0
  2  3  1  0
  3  4  1  0
  4  5  1  0
  5  6  2  0
  6  7  1  0
  7  8  2  0
  8  9  1  0
  9 10  2  0
 10  5  1  0
  1 11  1  0
  2 12  1  0
  2 13  1  0
  3 14  1  0
  3 15  1  0
  4 16  1  0
  4 17  1  0
  6 18  1  0
  7 19  1  0
  8 20  1  0
  9 21  1  0
 10 22  1  0
M  END
$$$$
