
     RDKit          3D

 69 72  0  0  0  0  0  0  0  0999 V2000
    4.1954   -5.4637   -1.0232 C   0  0  0  0  0  0  0  0  0  0  0  0
    3.6572   -4.1634   -0.8918 O   0  0  0  0  0  0  0  0  0  0  0  0
    4.5016   -3.1239   -0.5356 C   0  0  0  0  0  0  0  0  0  0  0  0
    5.8264   -3.3468   -0.3155 C   0  0  0  0  0  0  0  0  0  0  0  0
    6.6696   -2.3059    0.0407 C   0  0  0  0  0  0  0  0  0  0  0  0
    6.1827   -1.0242    0.1789 C   0  0  0  0  0  0  0  0  0  0  0  0
    4.8297   -0.7740   -0.0418 C   0  0  0  0  0  0  0  0  0  0  0  0
    4.0285   -1.8308   -0.3926 C   0  0  0  0  0  0  0  0  0  0  0  0
    2.5957   -1.5645   -0.6257 C   0  0  0  0  0  0  0  0  0  0  0  0
    1.8919   -2.5533   -0.9449 O   0  0  0  0  0  0  0  0  0  0  0  0
    2.1080   -0.2021   -0.4725 C   0  0  0  0  0  0  0  0  0  0  0  0
    0.7731    0.0230   -0.6927 C   0  0  0  0  0  0  0  0  0  0  0  0
   -0.1341   -0.9355   -1.0467 O   0  0  0  0  0  0  0  0  0  0  0  0
    0.2053    1.3241   -0.5653 C   0  0  0  0  0  0  0  0  0  0  0  0
    1.0162    2.3325   -0.2218 C   0  0  0  0  0  0  0  0  0  0  0  0
    2.4067    2.1438    0.0161 C   0  0  0  0  0  0  0  0  0  0  0  0
    3.1718    3.2034    0.3602 O   0  0  0  0  0  0  0  0  0  0  0  0
    2.9344    0.8642   -0.1150 C   0  0  0  0  0  0  0  0  0  0  0  0
    4.3322    0.5843    0.1087 C   0  0  0  0  0  0  0  0  0  0  0  0
    5.1189    1.4845    0.4280 O   0  0  0  0  0  0  0  0  0  0  0  0
    0.5435    3.7135   -0.0689 C   0  0  0  0  0  0  0  0  0  0  0  0
   -0.9320    3.7835   -0.1479 C   0  0  1  0  0  0  0  0  0  0  0  0
   -1.4291    3.4083    1.1029 O   0  0  0  0  0  0  0  0  0  0  0  0
   -1.3190    5.1853   -0.3870 C   0  0  0  0  0  0  0  0  0  0  0  0
   -2.0988    5.9257    0.6378 C   0  0  0  0  0  0  0  0  0  0  0  0
   -1.0352    5.8025   -1.4003 O   0  0  0  0  0  0  0  0  0  0  0  0
   -1.4983    2.8590   -1.2405 C   0  0  0  0  0  0  0  0  0  0  0  0
   -1.2541    1.4416   -0.8218 C   0  0  2  0  0  0  0  0  0  0  0  0
   -1.8729    0.9645    0.2250 O   0  0  0  0  0  0  0  0  0  0  0  0
   -2.6569   -0.0442    0.3915 C   0  0  1  0  0  0  0  0  0  0  0  0
   -2.3205   -1.1159    1.3929 C   0  0  0  0  0  0  0  0  0  0  0  0
   -3.1909   -2.3134    1.0341 C   0  0  2  0  0  0  0  0  0  0  0  0
   -2.7288   -2.7391   -0.2973 N   0  0  0  0  0  0  0  0  0  0  0  0
   -4.6283   -1.9542    0.8996 C   0  0  2  0  0  0  0  0  0  0  0  0
   -5.2117   -2.8407   -0.0314 O   0  0  0  0  0  0  0  0  0  0  0  0
   -4.9155   -0.5711    0.4528 C   0  0  2  0  0  0  0  0  0  0  0  0
   -5.3234   -0.5087   -1.0253 C   0  0  0  0  0  0  0  0  0  0  0  0
   -3.9657    0.3739    0.7421 O   0  0  0  0  0  0  0  0  0  0  0  0
    0.6886    0.0000    0.0000 Cl  0  0  0  0  0  0  0  0  0  0  0  0
    3.4369   -6.2330   -1.1825 H   0  0  0  0  0  0  0  0  0  0  0  0
    4.7723   -5.7554   -0.0990 H   0  0  0  0  0  0  0  0  0  0  0  0
    4.9302   -5.5340   -1.8580 H   0  0  0  0  0  0  0  0  0  0  0  0
    6.2633   -4.3315   -0.4093 H   0  0  0  0  0  0  0  0  0  0  0  0
    7.7165   -2.4737    0.2161 H   0  0  0  0  0  0  0  0  0  0  0  0
    6.8403   -0.2151    0.4561 H   0  0  0  0  0  0  0  0  0  0  0  0
   -0.1307   -1.8828   -1.2203 H   0  0  0  0  0  0  0  0  0  0  0  0
    4.0824    3.3810    0.5710 H   0  0  0  0  0  0  0  0  0  0  0  0
    1.0147    4.3920   -0.8515 H   0  0  0  0  0  0  0  0  0  0  0  0
    0.8508    4.1212    0.9240 H   0  0  0  0  0  0  0  0  0  0  0  0
   -0.7339    3.3329    1.7882 H   0  0  0  0  0  0  0  0  0  0  0  0
   -3.1480    5.5636    0.6462 H   0  0  0  0  0  0  0  0  0  0  0  0
   -1.7026    5.7431    1.6678 H   0  0  0  0  0  0  0  0  0  0  0  0
   -2.0416    7.0270    0.5003 H   0  0  0  0  0  0  0  0  0  0  0  0
   -0.9843    3.1512   -2.1574 H   0  0  0  0  0  0  0  0  0  0  0  0
   -2.5930    3.0352   -1.2306 H   0  0  0  0  0  0  0  0  0  0  0  0
   -1.4624    0.8211   -1.7367 H   0  0  0  0  0  0  0  0  0  0  0  0
   -2.8041   -0.5707   -0.5847 H   0  0  0  0  0  0  0  0  0  0  0  0
   -2.6885   -0.8234    2.4212 H   0  0  0  0  0  0  0  0  0  0  0  0
   -1.2800   -1.4314    1.4008 H   0  0  0  0  0  0  0  0  0  0  0  0
   -3.0371   -3.1461    1.7331 H   0  0  0  0  0  0  0  0  0  0  0  0
   -3.4791   -3.1586   -0.8597 H   0  0  0  0  0  0  0  0  0  0  0  0
   -1.8883   -3.3446   -0.2011 H   0  0  0  0  0  0  0  0  0  0  0  0
   -5.1392   -2.2013    1.8756 H   0  0  0  0  0  0  0  0  0  0  0  0
   -5.0828   -3.7766    0.2389 H   0  0  0  0  0  0  0  0  0  0  0  0
   -5.8476   -0.2407    1.0041 H   0  0  0  0  0  0  0  0  0  0  0  0
   -6.4221   -0.6013   -1.1444 H   0  0  0  0  0  0  0  0  0  0  0  0
   -5.0342    0.4590   -1.4734 H   0  0  0  0  0  0  0  0  0  0  0  0
   -4.8814   -1.3493   -1.5977 H   0  0  0  0  0  0  0  0  0  0  0  0
   -0.6886    0.0000    0.0000 H   0  0  0  0  0  0  0  0  0  0  0  0
  1  2  1  0
  2  3  1  0
  3  4  2  0
  4  5  1  0
  5  6  2  0
  6  7  1  0
  7  8  2  0
  8  9  1  0
  9 10  2  0
  9 11  1  0
 11 12  2  0
 12 13  1  0
 12 14  1  0
 14 15  2  0
 15 16  1  0
 16 17  1  0
 16 18  2  0
 18 19  1  0
 19 20  2  0
 15 21  1  0
 21 22  1  0
 22 23  1  1
 22 24  1  0
 24 25  1  0
 24 26  2  0
 22 27  1  0
 27 28  1  0
 28 29  1  0
 29 30  1  0
 30 31  1  0
 31 32  1  0
 32 33  1  0
 32 34  1  0
 34 35  1  0
 34 36  1  0
 36 37  1  0
 36 38  1  0
  8  3  1  0
 18 11  1  0
 38 30  1  0
 19  7  1  0
 28 14  1  0
  1 40  1  0
  1 41  1  0
  1 42  1  0
  4 43  1  0
  5 44  1  0
  6 45  1  0
 13 46  1  0
 17 47  1  0
 21 48  1  0
 21 49  1  0
 23 50  1  0
 25 51  1  0
 25 52  1  0
 25 53  1  0
 27 54  1  0
 27 55  1  0
 28 56  1  6
 30 57  1  6
 31 58  1  0
 31 59  1  0
 32 60  1  1
 33 61  1  0
 33 62  1  0
 34 63  1  1
 35 64  1  0
 36 65  1  1
 37 66  1  0
 37 67  1  0
 37 68  1  0
 39 69  1  0
M  END
$$$$
