
     RDKit          3D

 24 25  0  0  0  0  0  0  0  0999 V2000
   -2.9556    2.1306   -0.4761 O   0  0  0  0  0  0  0  0  0  0  0  0
   -2.2511    1.3734    0.1678 C   0  0  0  0  0  0  0  0  0  0  0  0
   -2.9407    0.3998    1.0981 C   0  0  0  0  0  0  0  0  0  0  0  0
   -2.3585   -0.6345    1.7096 C   0  0  0  0  0  0  0  0  0  0  0  0
   -1.1214   -1.1221    1.5630 C   0  0  0  0  0  0  0  0  0  0  0  0
    0.0140   -0.7735    0.5261 C   0  0  0  0  0  0  0  0  0  0  0  0
    0.8922   -1.8400    0.2299 C   0  0  0  0  0  0  0  0  0  0  0  0
    1.9702   -1.6678   -0.6375 C   0  0  0  0  0  0  0  0  0  0  0  0
    2.8129   -2.7045   -0.9173 O   0  0  0  0  0  0  0  0  0  0  0  0
    2.1913   -0.4285   -1.2157 C   0  0  0  0  0  0  0  0  0  0  0  0
    3.2464   -0.2259   -2.0631 O   0  0  0  0  0  0  0  0  0  0  0  0
    1.3321    0.6335   -0.9376 C   0  0  0  0  0  0  0  0  0  0  0  0
    1.6353    1.8300   -1.5464 O   0  0  0  0  0  0  0  0  0  0  0  0
    0.2301    0.4739   -0.0798 C   0  0  0  0  0  0  0  0  0  0  0  0
   -0.7535    1.6590    0.1103 C   0  0  0  0  0  0  0  0  0  0  0  0
   -0.3665    2.9776   -0.1078 O   0  0  0  0  0  0  0  0  0  0  0  0
   -3.9733    0.6346    1.3414 H   0  0  0  0  0  0  0  0  0  0  0  0
   -2.9824   -1.1500    2.4443 H   0  0  0  0  0  0  0  0  0  0  0  0
   -0.8815   -1.9499    2.2347 H   0  0  0  0  0  0  0  0  0  0  0  0
    0.7281   -2.8121    0.6880 H   0  0  0  0  0  0  0  0  0  0  0  0
    2.5149   -3.5017   -0.4544 H   0  0  0  0  0  0  0  0  0  0  0  0
    3.1704    0.7109   -2.3304 H   0  0  0  0  0  0  0  0  0  0  0  0
    1.0552    2.5112   -1.1455 H   0  0  0  0  0  0  0  0  0  0  0  0
   -1.2088    3.4760   -0.2016 H   0  0  0  0  0  0  0  0  0  0  0  0
  1  2  2  0
  2  3  1  0
  3  4  2  0
  4  5  1  0
  5  6  2  0
  6  7  1  0
  7  8  2  0
  8  9  1  0
  8 10  1  0
 10 11  1  0
 10 12  2  0
 12 13  1  0
 12 14  1  0
 14 15  2  0
 15 16  1  0
 15  2  1  0
 14  6  1  0
  3 17  1  0
  4 18  1  0
  5 19  1  0
  7 20  1  0
  9 21  1  0
 11 22  1  0
 13 23  1  0
 16 24  1  0
M  END
$$$$
