
     RDKit          3D

 51 53  0  0  0  0  0  0  0  0999 V2000
   -1.3428    6.4261   -1.5518 C   0  0  0  0  0  0  0  0  0  0  0  0
   -1.1925    5.2760   -1.2392 C   0  0  0  0  0  0  0  0  0  0  0  0
   -1.0077    3.8693   -0.8561 C   0  0  0  0  0  0  0  0  0  0  0  0
   -2.1733    3.1326   -1.2252 O   0  0  0  0  0  0  0  0  0  0  0  0
   -2.1826    1.7925   -0.9625 C   0  0  0  0  0  0  0  0  0  0  0  0
   -3.3466    1.1322   -1.3447 C   0  0  0  0  0  0  0  0  0  0  0  0
   -3.5031   -0.2413   -1.1199 C   0  0  0  0  0  0  0  0  0  0  0  0
   -2.4856   -0.9953   -0.5197 C   0  0  0  0  0  0  0  0  0  0  0  0
   -1.3128   -0.3241   -0.1602 C   0  0  0  0  0  0  0  0  0  0  0  0
   -1.1652    1.0619   -0.3585 C   0  0  0  0  0  0  0  0  0  0  0  0
   -0.2586   -1.1422    0.4693 C   0  0  0  0  0  0  0  0  0  0  0  0
    1.0877   -0.5756    0.7233 C   0  0  0  0  0  0  0  0  0  0  0  0
    1.5602   -0.5109    2.0342 C   0  0  0  0  0  0  0  0  0  0  0  0
    2.8257    0.0224    2.2864 C   0  0  0  0  0  0  0  0  0  0  0  0
    3.6346    0.4815    1.2336 C   0  0  0  0  0  0  0  0  0  0  0  0
    5.0101    1.0516    1.5365 C   0  0  0  0  0  0  0  0  0  0  0  0
    5.1229    2.5124    1.0932 C   0  0  0  0  0  0  0  0  0  0  0  0
    6.1203    0.2040    0.9109 C   0  0  0  0  0  0  0  0  0  0  0  0
    3.1518    0.3837   -0.0821 C   0  0  0  0  0  0  0  0  0  0  0  0
    1.8870   -0.1489   -0.3400 C   0  0  0  0  0  0  0  0  0  0  0  0
   -0.4496   -2.3686    0.8240 N   0  0  0  0  0  0  0  0  0  0  0  0
   -1.6352   -3.0102    0.5859 C   0  0  0  0  0  0  0  0  0  0  0  0
   -1.8190   -4.1255    1.0664 O   0  0  0  0  0  0  0  0  0  0  0  0
   -2.6026   -2.3895   -0.2229 N   0  0  0  0  0  0  0  0  0  0  0  0
   -3.8132   -3.1503   -0.5993 C   0  0  0  0  0  0  0  0  0  0  0  0
   -3.5070   -4.5123   -1.2411 C   0  0  0  0  0  0  0  0  0  0  0  0
   -4.7856   -3.2932    0.5726 C   0  0  0  0  0  0  0  0  0  0  0  0
   -1.4824    7.4450   -1.8313 H   0  0  0  0  0  0  0  0  0  0  0  0
   -0.8544    3.8090    0.2278 H   0  0  0  0  0  0  0  0  0  0  0  0
   -0.1295    3.4688   -1.3761 H   0  0  0  0  0  0  0  0  0  0  0  0
   -4.1549    1.6941   -1.8094 H   0  0  0  0  0  0  0  0  0  0  0  0
   -4.4572   -0.6667   -1.4095 H   0  0  0  0  0  0  0  0  0  0  0  0
   -0.2612    1.5570   -0.0246 H   0  0  0  0  0  0  0  0  0  0  0  0
    0.9511   -0.8792    2.8563 H   0  0  0  0  0  0  0  0  0  0  0  0
    3.1805    0.0664    3.3143 H   0  0  0  0  0  0  0  0  0  0  0  0
    5.1639    1.0332    2.6237 H   0  0  0  0  0  0  0  0  0  0  0  0
    5.0383    2.6190    0.0063 H   0  0  0  0  0  0  0  0  0  0  0  0
    4.3357    3.1220    1.5506 H   0  0  0  0  0  0  0  0  0  0  0  0
    6.0890    2.9321    1.3938 H   0  0  0  0  0  0  0  0  0  0  0  0
    6.0769    0.2147   -0.1836 H   0  0  0  0  0  0  0  0  0  0  0  0
    7.1053    0.5802    1.2078 H   0  0  0  0  0  0  0  0  0  0  0  0
    6.0475   -0.8393    1.2375 H   0  0  0  0  0  0  0  0  0  0  0  0
    3.7648    0.7106   -0.9194 H   0  0  0  0  0  0  0  0  0  0  0  0
    1.5409   -0.2400   -1.3661 H   0  0  0  0  0  0  0  0  0  0  0  0
   -4.3336   -2.6147   -1.3959 H   0  0  0  0  0  0  0  0  0  0  0  0
   -2.7448   -4.4117   -2.0211 H   0  0  0  0  0  0  0  0  0  0  0  0
   -4.4116   -4.9210   -1.7058 H   0  0  0  0  0  0  0  0  0  0  0  0
   -3.1606   -5.2566   -0.5193 H   0  0  0  0  0  0  0  0  0  0  0  0
   -5.7117   -3.7800    0.2488 H   0  0  0  0  0  0  0  0  0  0  0  0
   -5.0465   -2.3116    0.9826 H   0  0  0  0  0  0  0  0  0  0  0  0
   -4.3626   -3.8897    1.3867 H   0  0  0  0  0  0  0  0  0  0  0  0
  1  2  3  0
  2  3  1  0
  3  4  1  0
  4  5  1  0
  5  6  2  0
  6  7  1  0
  7  8  2  0
  8  9  1  0
  9 10  2  0
  9 11  1  0
 11 12  1  0
 12 13  2  0
 13 14  1  0
 14 15  2  0
 15 16  1  0
 16 17  1  0
 16 18  1  0
 15 19  1  0
 19 20  2  0
 11 21  2  0
 21 22  1  0
 22 23  2  0
 22 24  1  0
 24 25  1  0
 25 26  1  0
 25 27  1  0
 10  5  1  0
 20 12  1  0
 24  8  1  0
  1 28  1  0
  3 29  1  0
  3 30  1  0
  6 31  1  0
  7 32  1  0
 10 33  1  0
 13 34  1  0
 14 35  1  0
 16 36  1  0
 17 37  1  0
 17 38  1  0
 17 39  1  0
 18 40  1  0
 18 41  1  0
 18 42  1  0
 19 43  1  0
 20 44  1  0
 25 45  1  0
 26 46  1  0
 26 47  1  0
 26 48  1  0
 27 49  1  0
 27 50  1  0
 27 51  1  0
M  END
$$$$
