
     RDKit          3D

 55 57  0  0  0  0  0  0  0  0999 V2000
   -9.3878    0.8766   -0.9589 C   0  0  0  0  0  0  0  0  0  0  0  0
   -8.0012    0.4146   -0.6189 C   0  0  0  0  0  0  0  0  0  0  0  0
   -7.7085   -0.9503   -0.5122 C   0  0  0  0  0  0  0  0  0  0  0  0
   -6.4222   -1.3767   -0.1665 C   0  0  0  0  0  0  0  0  0  0  0  0
   -5.4131   -0.4380    0.0774 C   0  0  0  0  0  0  0  0  0  0  0  0
   -4.0314   -0.8463    0.4589 C   0  0  0  0  0  0  0  0  0  0  0  0
   -3.4963   -2.0780   -0.1617 C   0  0  0  0  0  0  0  0  0  0  0  0
   -2.2654   -2.4485    0.1932 C   0  0  0  0  0  0  0  0  0  0  0  0
   -1.4774   -1.6540    1.1571 C   0  0  0  0  0  0  0  0  0  0  0  0
   -0.3579   -2.0485    1.4723 O   0  0  0  0  0  0  0  0  0  0  0  0
   -2.0863   -0.5040    1.6333 N   0  0  0  0  0  0  0  0  0  0  0  0
   -1.3496    0.3789    2.5335 C   0  0  0  0  0  0  0  0  0  0  0  0
   -0.5897    1.3938    1.7489 C   0  0  0  0  0  0  0  0  0  0  0  0
   -0.9602    2.6827    1.6776 N   0  0  0  0  0  0  0  0  0  0  0  0
    0.0187    3.2566    0.8589 O   0  0  0  0  0  0  0  0  0  0  0  0
    0.8842    2.2553    0.5343 C   0  0  0  0  0  0  0  0  0  0  0  0
    2.0324    2.5291   -0.3064 C   0  0  0  0  0  0  0  0  0  0  0  0
    2.3130    3.6357   -0.7618 O   0  0  0  0  0  0  0  0  0  0  0  0
    2.8157    1.4077   -0.5475 N   0  0  0  0  0  0  0  0  0  0  0  0
    4.1363    1.5153   -1.1289 C   0  0  0  0  0  0  0  0  0  0  0  0
    4.5903    0.2240   -1.8067 C   0  0  0  0  0  0  0  0  0  0  0  0
    4.7984   -0.9422   -0.8416 C   0  0  0  0  0  0  0  0  0  0  0  0
    5.6791   -0.5885    0.2219 O   0  0  0  0  0  0  0  0  0  0  0  0
    7.0672   -0.7607   -0.0754 C   0  0  0  0  0  0  0  0  0  0  0  0
    7.8408    0.1973    0.8226 C   0  0  0  0  0  0  0  0  0  0  0  0
    7.4826   -2.2015    0.2029 C   0  0  0  0  0  0  0  0  0  0  0  0
    0.5669    1.0912    1.0658 N   0  0  0  0  0  0  0  0  0  0  0  0
   -3.3614   -0.1045    1.2866 N   0  0  0  0  0  0  0  0  0  0  0  0
   -5.7107    0.9281   -0.0006 C   0  0  0  0  0  0  0  0  0  0  0  0
   -6.9963    1.3505   -0.3475 C   0  0  0  0  0  0  0  0  0  0  0  0
   -9.9612    0.0824   -1.4475 H   0  0  0  0  0  0  0  0  0  0  0  0
   -9.3517    1.7247   -1.6501 H   0  0  0  0  0  0  0  0  0  0  0  0
   -9.9159    1.1778   -0.0493 H   0  0  0  0  0  0  0  0  0  0  0  0
   -8.4846   -1.6922   -0.6883 H   0  0  0  0  0  0  0  0  0  0  0  0
   -6.2396   -2.4427   -0.0655 H   0  0  0  0  0  0  0  0  0  0  0  0
   -4.0682   -2.6318   -0.8925 H   0  0  0  0  0  0  0  0  0  0  0  0
   -1.7832   -3.3281   -0.2129 H   0  0  0  0  0  0  0  0  0  0  0  0
   -0.6531   -0.2105    3.1403 H   0  0  0  0  0  0  0  0  0  0  0  0
   -2.0609    0.8568    3.2171 H   0  0  0  0  0  0  0  0  0  0  0  0
    2.6029    0.6077    0.0442 H   0  0  0  0  0  0  0  0  0  0  0  0
    4.1276    2.3227   -1.8702 H   0  0  0  0  0  0  0  0  0  0  0  0
    4.8261    1.8170   -0.3330 H   0  0  0  0  0  0  0  0  0  0  0  0
    5.5340    0.4334   -2.3233 H   0  0  0  0  0  0  0  0  0  0  0  0
    3.8626   -0.0715   -2.5718 H   0  0  0  0  0  0  0  0  0  0  0  0
    5.1607   -1.8251   -1.3797 H   0  0  0  0  0  0  0  0  0  0  0  0
    3.8423   -1.2216   -0.3869 H   0  0  0  0  0  0  0  0  0  0  0  0
    7.2738   -0.5051   -1.1211 H   0  0  0  0  0  0  0  0  0  0  0  0
    7.5300    1.2305    0.6331 H   0  0  0  0  0  0  0  0  0  0  0  0
    8.9189    0.1219    0.6512 H   0  0  0  0  0  0  0  0  0  0  0  0
    7.6372   -0.0030    1.8809 H   0  0  0  0  0  0  0  0  0  0  0  0
    8.5573   -2.3403    0.0493 H   0  0  0  0  0  0  0  0  0  0  0  0
    7.2339   -2.4885    1.2306 H   0  0  0  0  0  0  0  0  0  0  0  0
    6.9525   -2.8986   -0.4531 H   0  0  0  0  0  0  0  0  0  0  0  0
   -4.9436    1.6718    0.2072 H   0  0  0  0  0  0  0  0  0  0  0  0
   -7.2082    2.4167   -0.3997 H   0  0  0  0  0  0  0  0  0  0  0  0
  1  2  1  0
  2  3  2  0
  3  4  1  0
  4  5  2  0
  5  6  1  0
  6  7  1  0
  7  8  2  0
  8  9  1  0
  9 10  2  0
  9 11  1  0
 11 12  1  0
 12 13  1  0
 13 14  2  0
 14 15  1  0
 15 16  1  0
 16 17  1  0
 17 18  2  0
 17 19  1  0
 19 20  1  0
 20 21  1  0
 21 22  1  0
 22 23  1  0
 23 24  1  0
 24 25  1  0
 24 26  1  0
 16 27  2  0
 11 28  1  0
  5 29  1  0
 29 30  2  0
 30  2  1  0
 28  6  2  0
 27 13  1  0
  1 31  1  0
  1 32  1  0
  1 33  1  0
  3 34  1  0
  4 35  1  0
  7 36  1  0
  8 37  1  0
 12 38  1  0
 12 39  1  0
 19 40  1  0
 20 41  1  0
 20 42  1  0
 21 43  1  0
 21 44  1  0
 22 45  1  0
 22 46  1  0
 24 47  1  0
 25 48  1  0
 25 49  1  0
 25 50  1  0
 26 51  1  0
 26 52  1  0
 26 53  1  0
 29 54  1  0
 30 55  1  0
M  END
$$$$
