
     RDKit          3D

 25 27  0  0  0  0  0  0  0  0999 V2000
    4.6372   -0.4931    0.3958 C   0  0  0  0  0  0  0  0  0  0  0  0
    3.4269   -1.0652   -0.0824 O   0  0  0  0  0  0  0  0  0  0  0  0
    2.2772   -0.3492    0.1196 C   0  0  0  0  0  0  0  0  0  0  0  0
    2.1879    0.8909    0.7527 C   0  0  0  0  0  0  0  0  0  0  0  0
    0.9561    1.5425    0.9090 C   0  0  0  0  0  0  0  0  0  0  0  0
   -0.1838    0.9064    0.4078 C   0  0  0  0  0  0  0  0  0  0  0  0
   -1.5030    1.3020    0.4177 N   0  0  0  0  0  0  0  0  0  0  0  0
   -2.2931    0.3600   -0.1909 C   0  0  0  0  0  0  0  0  0  0  0  0
   -3.6504    0.2834   -0.4328 C   0  0  0  0  0  0  0  0  0  0  0  0
   -4.7602    1.5531    0.0638 S   0  0  0  0  0  0  0  0  0  0  0  0
   -4.1345   -0.7984   -1.0686 N   0  0  0  0  0  0  0  0  0  0  0  0
   -3.2562   -1.7504   -1.4341 C   0  0  0  0  0  0  0  0  0  0  0  0
   -1.9295   -1.7661   -1.2449 N   0  0  0  0  0  0  0  0  0  0  0  0
   -1.4634   -0.6701   -0.6043 C   0  0  0  0  0  0  0  0  0  0  0  0
   -0.1312   -0.3337   -0.2307 C   0  0  0  0  0  0  0  0  0  0  0  0
    1.1201   -0.9658   -0.3740 C   0  0  0  0  0  0  0  0  0  0  0  0
    4.8498    0.4571   -0.1051 H   0  0  0  0  0  0  0  0  0  0  0  0
    5.4511   -1.1844    0.1567 H   0  0  0  0  0  0  0  0  0  0  0  0
    4.6134   -0.3710    1.4837 H   0  0  0  0  0  0  0  0  0  0  0  0
    3.0691    1.3899    1.1439 H   0  0  0  0  0  0  0  0  0  0  0  0
    0.8995    2.5073    1.4034 H   0  0  0  0  0  0  0  0  0  0  0  0
   -1.8464    2.1651    0.8164 H   0  0  0  0  0  0  0  0  0  0  0  0
   -5.8457    0.9339   -0.4205 H   0  0  0  0  0  0  0  0  0  0  0  0
   -3.6740   -2.6124   -1.9456 H   0  0  0  0  0  0  0  0  0  0  0  0
    1.1832   -1.9318   -0.8680 H   0  0  0  0  0  0  0  0  0  0  0  0
  1  2  1  0
  2  3  1  0
  3  4  2  0
  4  5  1  0
  5  6  2  0
  6  7  1  0
  7  8  1  0
  8  9  2  0
  9 10  1  0
  9 11  1  0
 11 12  2  0
 12 13  1  0
 13 14  2  0
 14 15  1  0
 15 16  2  0
 16  3  1  0
 15  6  1  0
 14  8  1  0
  1 17  1  0
  1 18  1  0
  1 19  1  0
  4 20  1  0
  5 21  1  0
  7 22  1  0
 10 23  1  0
 12 24  1  0
 16 25  1  0
M  END
$$$$
