
     RDKit          3D

 31 33  0  0  0  0  0  0  0  0999 V2000
    1.6508    3.0869   -0.0572 O   0  0  0  0  0  0  0  0  0  0  0  0
    1.2711    1.9178   -0.0464 C   0  0  0  0  0  0  0  0  0  0  0  0
   -0.1718    1.5959    0.0432 C   0  0  0  0  0  0  0  0  0  0  0  0
   -1.0496    2.6609    0.1269 O   0  0  0  0  0  0  0  0  0  0  0  0
   -0.5416    0.3017    0.0549 C   0  0  0  0  0  0  0  0  0  0  0  0
   -1.9496   -0.1393    0.1555 C   0  0  0  0  0  0  0  0  0  0  0  0
   -2.2955   -1.1700    1.0443 C   0  0  0  0  0  0  0  0  0  0  0  0
   -3.6152   -1.6190    1.1390 C   0  0  0  0  0  0  0  0  0  0  0  0
   -4.5961   -1.0451    0.3414 C   0  0  0  0  0  0  0  0  0  0  0  0
   -5.8706   -1.5119    0.4660 O   0  0  0  0  0  0  0  0  0  0  0  0
   -4.2797   -0.0301   -0.5539 C   0  0  0  0  0  0  0  0  0  0  0  0
   -2.9578    0.4171   -0.6477 C   0  0  0  0  0  0  0  0  0  0  0  0
    0.3541   -0.7603   -0.0020 O   0  0  0  0  0  0  0  0  0  0  0  0
    1.6961   -0.4935   -0.0934 C   0  0  0  0  0  0  0  0  0  0  0  0
    2.5580   -1.5876   -0.1599 C   0  0  0  0  0  0  0  0  0  0  0  0
    3.9310   -1.3749   -0.2520 C   0  0  0  0  0  0  0  0  0  0  0  0
    4.7379   -2.4720   -0.3146 O   0  0  0  0  0  0  0  0  0  0  0  0
    4.4584   -0.0865   -0.2787 C   0  0  0  0  0  0  0  0  0  0  0  0
    3.5924    1.0024   -0.2117 C   0  0  0  0  0  0  0  0  0  0  0  0
    4.1635    2.2460   -0.2410 O   0  0  0  0  0  0  0  0  0  0  0  0
    2.2116    0.7988   -0.1194 C   0  0  0  0  0  0  0  0  0  0  0  0
   -0.4857    3.4627    0.1280 H   0  0  0  0  0  0  0  0  0  0  0  0
   -1.5394   -1.6303    1.6767 H   0  0  0  0  0  0  0  0  0  0  0  0
   -3.8742   -2.4135    1.8330 H   0  0  0  0  0  0  0  0  0  0  0  0
   -6.4432   -1.0127   -0.1390 H   0  0  0  0  0  0  0  0  0  0  0  0
   -5.0377    0.4233   -1.1843 H   0  0  0  0  0  0  0  0  0  0  0  0
   -2.7219    1.2076   -1.3570 H   0  0  0  0  0  0  0  0  0  0  0  0
    2.1652   -2.6006   -0.1408 H   0  0  0  0  0  0  0  0  0  0  0  0
    5.6633   -2.1801   -0.3767 H   0  0  0  0  0  0  0  0  0  0  0  0
    5.5274    0.0878   -0.3500 H   0  0  0  0  0  0  0  0  0  0  0  0
    3.4487    2.9187   -0.1835 H   0  0  0  0  0  0  0  0  0  0  0  0
  1  2  2  0
  2  3  1  0
  3  4  1  0
  3  5  2  0
  5  6  1  0
  6  7  2  0
  7  8  1  0
  8  9  2  0
  9 10  1  0
  9 11  1  0
 11 12  2  0
  5 13  1  0
 13 14  1  0
 14 15  2  0
 15 16  1  0
 16 17  1  0
 16 18  2  0
 18 19  1  0
 19 20  1  0
 19 21  2  0
 21  2  1  0
 12  6  1  0
 21 14  1  0
  4 22  1  0
  7 23  1  0
  8 24  1  0
 10 25  1  0
 11 26  1  0
 12 27  1  0
 15 28  1  0
 17 29  1  0
 18 30  1  0
 20 31  1  0
M  END
$$$$
