
     RDKit          3D

 67 69  0  0  0  0  0  0  0  0999 V2000
   -6.4555    3.9433   -2.0396 C   0  0  0  0  0  0  0  0  0  0  0  0
   -5.5816    3.3700   -1.0326 N   0  0  0  0  0  0  0  0  0  0  0  0
   -5.9152    3.7283    0.3383 C   0  0  0  0  0  0  0  0  0  0  0  0
   -5.0930    2.0957   -1.2975 C   0  0  0  0  0  0  0  0  0  0  0  0
   -5.5904    1.3749   -2.1626 O   0  0  0  0  0  0  0  0  0  0  0  0
   -3.9886    1.7079   -0.5663 N   0  0  0  0  0  0  0  0  0  0  0  0
   -2.9408    2.6138   -0.1329 C   0  0  0  0  0  0  0  0  0  0  0  0
   -1.8625    1.7007    0.4290 C   0  0  0  0  0  0  0  0  0  0  0  0
   -1.9209    0.4671   -0.4980 C   0  0  0  0  0  0  0  0  0  0  0  0
   -1.2632   -0.7311    0.0812 N   0  0  0  0  0  0  0  0  0  0  0  0
    0.1810   -0.5264    0.3200 C   0  0  0  0  0  0  0  0  0  0  0  0
    0.7542   -1.3952    1.4633 C   0  0  0  0  0  0  0  0  0  0  0  0
    2.1812   -1.1477    1.6986 N   0  0  0  0  0  0  0  0  0  0  0  0
    2.5254    0.0565    2.4452 C   0  0  0  0  0  0  0  0  0  0  0  0
    3.0955   -1.8379    0.8993 C   0  0  0  0  0  0  0  0  0  0  0  0
    2.7429   -2.7530    0.1489 O   0  0  0  0  0  0  0  0  0  0  0  0
    4.5725   -1.4528    0.9892 C   0  0  0  0  0  0  0  0  0  0  0  0
    4.7425   -0.1265    0.5048 O   0  0  0  0  0  0  0  0  0  0  0  0
    6.0207    0.3493    0.4242 C   0  0  0  0  0  0  0  0  0  0  0  0
    6.1280    1.6322   -0.1186 C   0  0  0  0  0  0  0  0  0  0  0  0
    7.3760    2.2404   -0.2643 C   0  0  0  0  0  0  0  0  0  0  0  0
    8.5275    1.5665    0.1367 C   0  0  0  0  0  0  0  0  0  0  0  0
    8.4266    0.2893    0.6850 C   0  0  0  0  0  0  0  0  0  0  0  0
    7.1764   -0.3204    0.8279 C   0  0  0  0  0  0  0  0  0  0  0  0
   -1.6052   -1.9865   -0.6430 C   0  0  0  0  0  0  0  0  0  0  0  0
   -2.1278   -3.0269    0.3679 C   0  0  0  0  0  0  0  0  0  0  0  0
   -2.1270   -4.4378   -0.2158 C   0  0  0  0  0  0  0  0  0  0  0  0
   -2.2835   -4.3912   -1.6306 O   0  0  0  0  0  0  0  0  0  0  0  0
   -1.1389   -3.8353   -2.2871 C   0  0  0  0  0  0  0  0  0  0  0  0
   -0.5485   -2.6288   -1.5529 C   0  0  0  0  0  0  0  0  0  0  0  0
   -3.4565    0.3595   -0.7155 C   0  0  0  0  0  0  0  0  0  0  0  0
   -7.4533    3.5005   -1.9589 H   0  0  0  0  0  0  0  0  0  0  0  0
   -6.5112    5.0258   -1.8942 H   0  0  0  0  0  0  0  0  0  0  0  0
   -6.0572    3.7402   -3.0386 H   0  0  0  0  0  0  0  0  0  0  0  0
   -5.3754    3.1298    1.0709 H   0  0  0  0  0  0  0  0  0  0  0  0
   -5.6870    4.7870    0.4916 H   0  0  0  0  0  0  0  0  0  0  0  0
   -6.9837    3.5537    0.5015 H   0  0  0  0  0  0  0  0  0  0  0  0
   -2.5783    3.1671   -1.0087 H   0  0  0  0  0  0  0  0  0  0  0  0
   -3.2893    3.3346    0.6083 H   0  0  0  0  0  0  0  0  0  0  0  0
   -0.8907    2.2055    0.4418 H   0  0  0  0  0  0  0  0  0  0  0  0
   -2.1157    1.4067    1.4578 H   0  0  0  0  0  0  0  0  0  0  0  0
   -1.4502    0.7199   -1.4586 H   0  0  0  0  0  0  0  0  0  0  0  0
    0.7664   -0.6473   -0.5999 H   0  0  0  0  0  0  0  0  0  0  0  0
    0.3704    0.5082    0.6244 H   0  0  0  0  0  0  0  0  0  0  0  0
    0.2128   -1.1998    2.3977 H   0  0  0  0  0  0  0  0  0  0  0  0
    0.6275   -2.4584    1.2394 H   0  0  0  0  0  0  0  0  0  0  0  0
    1.8234    0.1855    3.2750 H   0  0  0  0  0  0  0  0  0  0  0  0
    2.4675    0.9193    1.7739 H   0  0  0  0  0  0  0  0  0  0  0  0
    3.5336   -0.0086    2.8584 H   0  0  0  0  0  0  0  0  0  0  0  0
    4.9002   -1.5493    2.0304 H   0  0  0  0  0  0  0  0  0  0  0  0
    5.1300   -2.1611    0.3653 H   0  0  0  0  0  0  0  0  0  0  0  0
    5.2332    2.1599   -0.4378 H   0  0  0  0  0  0  0  0  0  0  0  0
    7.4458    3.2373   -0.6918 H   0  0  0  0  0  0  0  0  0  0  0  0
    9.5011    2.0351    0.0256 H   0  0  0  0  0  0  0  0  0  0  0  0
    9.3231   -0.2389    1.0034 H   0  0  0  0  0  0  0  0  0  0  0  0
    7.1452   -1.3153    1.2579 H   0  0  0  0  0  0  0  0  0  0  0  0
   -2.4496   -1.7905   -1.3142 H   0  0  0  0  0  0  0  0  0  0  0  0
   -1.5531   -3.0420    1.2998 H   0  0  0  0  0  0  0  0  0  0  0  0
   -3.1507   -2.7468    0.6569 H   0  0  0  0  0  0  0  0  0  0  0  0
   -1.2024   -4.9762    0.0294 H   0  0  0  0  0  0  0  0  0  0  0  0
   -2.9575   -5.0133    0.2065 H   0  0  0  0  0  0  0  0  0  0  0  0
   -1.4676   -3.5409   -3.2934 H   0  0  0  0  0  0  0  0  0  0  0  0
   -0.3779   -4.6164   -2.4154 H   0  0  0  0  0  0  0  0  0  0  0  0
   -0.1537   -1.9183   -2.2907 H   0  0  0  0  0  0  0  0  0  0  0  0
    0.3042   -2.9787   -0.9601 H   0  0  0  0  0  0  0  0  0  0  0  0
   -3.6993   -0.0597   -1.6978 H   0  0  0  0  0  0  0  0  0  0  0  0
   -3.9316   -0.2521    0.0604 H   0  0  0  0  0  0  0  0  0  0  0  0
  1  2  1  0
  2  3  1  0
  2  4  1  0
  4  5  2  0
  4  6  1  0
  6  7  1  0
  7  8  1  0
  8  9  1  0
  9 10  1  0
 10 11  1  0
 11 12  1  0
 12 13  1  0
 13 14  1  0
 13 15  1  0
 15 16  2  0
 15 17  1  0
 17 18  1  0
 18 19  1  0
 19 20  2  0
 20 21  1  0
 21 22  2  0
 22 23  1  0
 23 24  2  0
 10 25  1  0
 25 26  1  0
 26 27  1  0
 27 28  1  0
 28 29  1  0
 29 30  1  0
  9 31  1  0
 31  6  1  0
 24 19  1  0
 30 25  1  0
  1 32  1  0
  1 33  1  0
  1 34  1  0
  3 35  1  0
  3 36  1  0
  3 37  1  0
  7 38  1  0
  7 39  1  0
  8 40  1  0
  8 41  1  0
  9 42  1  0
 11 43  1  0
 11 44  1  0
 12 45  1  0
 12 46  1  0
 14 47  1  0
 14 48  1  0
 14 49  1  0
 17 50  1  0
 17 51  1  0
 20 52  1  0
 21 53  1  0
 22 54  1  0
 23 55  1  0
 24 56  1  0
 25 57  1  0
 26 58  1  0
 26 59  1  0
 27 60  1  0
 27 61  1  0
 29 62  1  0
 29 63  1  0
 30 64  1  0
 30 65  1  0
 31 66  1  0
 31 67  1  0
M  END
$$$$
