
     RDKit          3D

 35 37  0  0  0  0  0  0  0  0999 V2000
   -3.2001   -2.4031    0.9640 C   0  0  0  0  0  0  0  0  0  0  0  0
   -3.1761   -1.0461    0.4784 N   0  0  0  0  0  0  0  0  0  0  0  0
   -2.0897   -0.3496    0.0016 C   0  0  0  0  0  0  0  0  0  0  0  0
   -0.4980   -1.0268   -0.0723 S   0  0  0  0  0  0  0  0  0  0  0  0
    0.2891    0.1458   -1.2169 C   0  0  0  0  0  0  0  0  0  0  0  0
    1.7635   -0.1965   -1.3479 C   0  0  0  0  0  0  0  0  0  0  0  0
    2.1888   -0.8029   -2.3269 O   0  0  0  0  0  0  0  0  0  0  0  0
    2.5132    0.2522   -0.2691 N   0  0  0  0  0  0  0  0  0  0  0  0
    3.9037    0.1270   -0.0725 C   0  0  0  0  0  0  0  0  0  0  0  0
    4.4224    0.6262    1.1310 C   0  0  0  0  0  0  0  0  0  0  0  0
    5.7894    0.5465    1.4093 C   0  0  0  0  0  0  0  0  0  0  0  0
    6.6533   -0.0335    0.4846 C   0  0  0  0  0  0  0  0  0  0  0  0
    6.1424   -0.5291   -0.7129 C   0  0  0  0  0  0  0  0  0  0  0  0
    7.3183   -1.3156   -1.9698 Br  0  0  0  0  0  0  0  0  0  0  0  0
    4.7762   -0.4518   -0.9962 C   0  0  0  0  0  0  0  0  0  0  0  0
   -2.3997    0.8750   -0.3691 N   0  0  0  0  0  0  0  0  0  0  0  0
   -3.7453    0.9690   -0.1268 C   0  0  0  0  0  0  0  0  0  0  0  0
   -4.6591    2.0734   -0.3341 C   0  0  0  0  0  0  0  0  0  0  0  0
   -4.3602    3.1749   -0.7825 O   0  0  0  0  0  0  0  0  0  0  0  0
   -5.9568    1.7579    0.0404 N   0  0  0  0  0  0  0  0  0  0  0  0
   -6.3284    0.5299    0.5578 C   0  0  0  0  0  0  0  0  0  0  0  0
   -5.5290   -0.4747    0.7572 N   0  0  0  0  0  0  0  0  0  0  0  0
   -4.2505   -0.2019    0.3969 C   0  0  0  0  0  0  0  0  0  0  0  0
   -2.8694   -3.0679    0.1618 H   0  0  0  0  0  0  0  0  0  0  0  0
   -4.2140   -2.6779    1.2643 H   0  0  0  0  0  0  0  0  0  0  0  0
   -2.5355   -2.4769    1.8287 H   0  0  0  0  0  0  0  0  0  0  0  0
    0.1920    1.1752   -0.8555 H   0  0  0  0  0  0  0  0  0  0  0  0
   -0.1787    0.0832   -2.2048 H   0  0  0  0  0  0  0  0  0  0  0  0
    1.9928    0.6824    0.4868 H   0  0  0  0  0  0  0  0  0  0  0  0
    3.7700    1.0843    1.8705 H   0  0  0  0  0  0  0  0  0  0  0  0
    6.1782    0.9370    2.3464 H   0  0  0  0  0  0  0  0  0  0  0  0
    7.7161   -0.0944    0.7029 H   0  0  0  0  0  0  0  0  0  0  0  0
    4.4187   -0.8473   -1.9410 H   0  0  0  0  0  0  0  0  0  0  0  0
   -6.6363    2.4928   -0.0844 H   0  0  0  0  0  0  0  0  0  0  0  0
   -7.4012    0.4633    0.8001 H   0  0  0  0  0  0  0  0  0  0  0  0
  1  2  1  0
  2  3  1  0
  3  4  1  0
  4  5  1  0
  5  6  1  0
  6  7  2  0
  6  8  1  0
  8  9  1  0
  9 10  2  0
 10 11  1  0
 11 12  2  0
 12 13  1  0
 13 14  1  0
 13 15  2  0
  3 16  2  0
 16 17  1  0
 17 18  1  0
 18 19  2  0
 18 20  1  0
 20 21  1  0
 21 22  2  0
 22 23  1  0
 23  2  1  0
 15  9  1  0
 23 17  2  0
  1 24  1  0
  1 25  1  0
  1 26  1  0
  5 27  1  0
  5 28  1  0
  8 29  1  0
 10 30  1  0
 11 31  1  0
 12 32  1  0
 15 33  1  0
 20 34  1  0
 21 35  1  0
M  END
$$$$
