
     RDKit          3D

 50 53  0  0  0  0  0  0  0  0999 V2000
    3.1831   -2.4445    0.5268 C   0  0  0  0  0  0  0  0  0  0  0  0
    3.0169   -1.0025    0.1189 C   0  0  0  0  0  0  0  0  0  0  0  0
    1.9275   -0.5212   -0.5197 C   0  0  0  0  0  0  0  0  0  0  0  0
    0.7417   -1.3372   -0.9866 C   0  0  0  0  0  0  0  0  0  0  0  0
   -0.3956   -1.2122    0.0287 C   0  0  0  0  0  0  0  0  0  0  0  0
   -0.1649   -1.4073    1.2260 O   0  0  0  0  0  0  0  0  0  0  0  0
   -1.6760   -0.9117   -0.4259 N   0  0  0  0  0  0  0  0  0  0  0  0
   -2.0081   -0.7343   -1.8427 C   0  0  0  0  0  0  0  0  0  0  0  0
   -3.4632   -0.3626   -2.1019 C   0  0  0  0  0  0  0  0  0  0  0  0
   -4.4370   -1.2961   -1.3890 C   0  0  0  0  0  0  0  0  0  0  0  0
   -3.9165   -1.7893   -0.0356 C   0  0  0  0  0  0  0  0  0  0  0  0
   -2.7927   -0.9077    0.5459 C   0  0  0  0  0  0  0  0  0  0  0  0
   -3.1947    0.4945    0.9898 C   0  0  0  0  0  0  0  0  0  0  0  0
   -4.5127    0.8469    1.3120 C   0  0  0  0  0  0  0  0  0  0  0  0
   -4.8143    2.1360    1.7491 C   0  0  0  0  0  0  0  0  0  0  0  0
   -3.7822    3.0464    1.8721 C   0  0  0  0  0  0  0  0  0  0  0  0
   -2.4976    2.7527    1.5988 N   0  0  0  0  0  0  0  0  0  0  0  0
   -2.2348    1.4913    1.1749 C   0  0  0  0  0  0  0  0  0  0  0  0
    1.7847    0.9261   -0.8372 C   0  0  0  0  0  0  0  0  0  0  0  0
    0.8007    1.3544   -1.4328 O   0  0  0  0  0  0  0  0  0  0  0  0
    2.8034    1.7738   -0.4487 O   0  0  0  0  0  0  0  0  0  0  0  0
    3.9542    1.2865    0.1881 C   0  0  0  0  0  0  0  0  0  0  0  0
    4.9287    2.2378    0.5011 C   0  0  0  0  0  0  0  0  0  0  0  0
    6.0952    1.8164    1.1202 C   0  0  0  0  0  0  0  0  0  0  0  0
    7.0848    2.6920    1.4519 O   0  0  0  0  0  0  0  0  0  0  0  0
    6.2881    0.4745    1.4198 C   0  0  0  0  0  0  0  0  0  0  0  0
    5.2980   -0.4630    1.1005 C   0  0  0  0  0  0  0  0  0  0  0  0
    4.1038   -0.0689    0.4777 C   0  0  0  0  0  0  0  0  0  0  0  0
    2.2947   -3.0554    0.3544 H   0  0  0  0  0  0  0  0  0  0  0  0
    3.3896   -2.5214    1.6004 H   0  0  0  0  0  0  0  0  0  0  0  0
    4.0073   -2.9072   -0.0268 H   0  0  0  0  0  0  0  0  0  0  0  0
    0.9736   -2.4020   -1.0830 H   0  0  0  0  0  0  0  0  0  0  0  0
    0.4610   -1.0313   -1.9959 H   0  0  0  0  0  0  0  0  0  0  0  0
   -1.7707   -1.6758   -2.3523 H   0  0  0  0  0  0  0  0  0  0  0  0
   -1.3627    0.0447   -2.2594 H   0  0  0  0  0  0  0  0  0  0  0  0
   -3.6381    0.6666   -1.7657 H   0  0  0  0  0  0  0  0  0  0  0  0
   -3.6661   -0.3647   -3.1791 H   0  0  0  0  0  0  0  0  0  0  0  0
   -4.6472   -2.1660   -2.0234 H   0  0  0  0  0  0  0  0  0  0  0  0
   -5.3949   -0.7791   -1.2583 H   0  0  0  0  0  0  0  0  0  0  0  0
   -3.5095   -2.7999   -0.1839 H   0  0  0  0  0  0  0  0  0  0  0  0
   -4.7480   -1.9144    0.6668 H   0  0  0  0  0  0  0  0  0  0  0  0
   -2.4622   -1.4085    1.4652 H   0  0  0  0  0  0  0  0  0  0  0  0
   -5.3266    0.1327    1.2354 H   0  0  0  0  0  0  0  0  0  0  0  0
   -5.8317    2.4195    1.9939 H   0  0  0  0  0  0  0  0  0  0  0  0
   -3.9649    4.0623    2.2088 H   0  0  0  0  0  0  0  0  0  0  0  0
   -1.1805    1.3067    0.9853 H   0  0  0  0  0  0  0  0  0  0  0  0
    4.7587    3.2805    0.2556 H   0  0  0  0  0  0  0  0  0  0  0  0
    6.8006    3.5901    1.2129 H   0  0  0  0  0  0  0  0  0  0  0  0
    7.2067    0.1540    1.9044 H   0  0  0  0  0  0  0  0  0  0  0  0
    5.4902   -1.5022    1.3532 H   0  0  0  0  0  0  0  0  0  0  0  0
  1  2  1  0
  2  3  2  0
  3  4  1  0
  4  5  1  0
  5  6  2  0
  5  7  1  0
  7  8  1  0
  8  9  1  0
  9 10  1  0
 10 11  1  0
 11 12  1  0
 12 13  1  0
 13 14  2  0
 14 15  1  0
 15 16  2  0
 16 17  1  0
 17 18  2  0
  3 19  1  0
 19 20  2  0
 19 21  1  0
 21 22  1  0
 22 23  2  0
 23 24  1  0
 24 25  1  0
 24 26  2  0
 26 27  1  0
 27 28  2  0
 28  2  1  0
 12  7  1  0
 18 13  1  0
 28 22  1  0
  1 29  1  0
  1 30  1  0
  1 31  1  0
  4 32  1  0
  4 33  1  0
  8 34  1  0
  8 35  1  0
  9 36  1  0
  9 37  1  0
 10 38  1  0
 10 39  1  0
 11 40  1  0
 11 41  1  0
 12 42  1  0
 14 43  1  0
 15 44  1  0
 16 45  1  0
 18 46  1  0
 23 47  1  0
 25 48  1  0
 26 49  1  0
 27 50  1  0
M  END
$$$$
