
     RDKit          3D

 58 62  0  0  0  0  0  0  0  0999 V2000
    8.4670   -3.3179   -1.6924 C   0  0  0  0  0  0  0  0  0  0  0  0
    7.8490   -2.6417   -0.6074 O   0  0  0  0  0  0  0  0  0  0  0  0
    6.6847   -1.9610   -0.8632 C   0  0  0  0  0  0  0  0  0  0  0  0
    6.0757   -1.8806   -2.1170 C   0  0  0  0  0  0  0  0  0  0  0  0
    4.8869   -1.1626   -2.2786 C   0  0  0  0  0  0  0  0  0  0  0  0
    4.2821   -0.5133   -1.1958 C   0  0  0  0  0  0  0  0  0  0  0  0
    3.0392    0.2181   -1.4114 C   0  0  0  0  0  0  0  0  0  0  0  0
    2.2608    0.8345   -0.4386 C   0  0  0  0  0  0  0  0  0  0  0  0
    1.2102    1.3711   -1.1260 N   0  0  0  0  0  0  0  0  0  0  0  0
    0.0652    2.0925   -0.8281 C   0  0  0  0  0  0  0  0  0  0  0  0
   -0.2607    2.4599    0.5849 C   0  0  0  0  0  0  0  0  0  0  0  0
   -1.6690    3.0228    0.7572 C   0  0  0  0  0  0  0  0  0  0  0  0
   -1.8320    4.2442    0.7932 O   0  0  0  0  0  0  0  0  0  0  0  0
   -2.7335    2.1316    0.8188 N   0  0  0  0  0  0  0  0  0  0  0  0
   -2.5931    0.6802    1.0139 C   0  0  0  0  0  0  0  0  0  0  0  0
   -3.7875   -0.1279    0.4670 C   0  0  0  0  0  0  0  0  0  0  0  0
   -5.0589    0.4249    0.9749 N   0  0  0  0  0  0  0  0  0  0  0  0
   -6.1640   -0.3562    0.5690 C   0  0  0  0  0  0  0  0  0  0  0  0
   -6.3070   -1.6493    1.0789 C   0  0  0  0  0  0  0  0  0  0  0  0
   -7.3942   -2.4330    0.6962 C   0  0  0  0  0  0  0  0  0  0  0  0
   -8.3264   -1.9093   -0.1852 C   0  0  0  0  0  0  0  0  0  0  0  0
   -8.1285   -0.6190   -0.6391 C   0  0  0  0  0  0  0  0  0  0  0  0
   -7.0812    0.1571   -0.2794 N   0  0  0  0  0  0  0  0  0  0  0  0
   -5.2196    1.8512    0.6119 C   0  0  0  0  0  0  0  0  0  0  0  0
   -4.0524    2.6758    1.1789 C   0  0  0  0  0  0  0  0  0  0  0  0
   -0.6319    2.3561   -1.9550 C   0  0  0  0  0  0  0  0  0  0  0  0
    0.1173    1.6998   -3.4202 S   0  0  0  0  0  0  0  0  0  0  0  0
    1.3985    1.0703   -2.4396 C   0  0  0  0  0  0  0  0  0  0  0  0
    2.4732    0.3720   -2.6703 N   0  0  0  0  0  0  0  0  0  0  0  0
    4.8985   -0.5920    0.0621 C   0  0  0  0  0  0  0  0  0  0  0  0
    6.0924   -1.3082    0.2362 C   0  0  0  0  0  0  0  0  0  0  0  0
    6.7531   -1.4345    1.4346 O   0  0  0  0  0  0  0  0  0  0  0  0
    6.2348   -0.7366    2.5568 C   0  0  0  0  0  0  0  0  0  0  0  0
    9.3694   -3.8063   -1.3119 H   0  0  0  0  0  0  0  0  0  0  0  0
    7.8134   -4.0977   -2.0964 H   0  0  0  0  0  0  0  0  0  0  0  0
    8.7745   -2.6146   -2.4728 H   0  0  0  0  0  0  0  0  0  0  0  0
    6.4959   -2.3625   -2.9930 H   0  0  0  0  0  0  0  0  0  0  0  0
    4.4316   -1.1144   -3.2672 H   0  0  0  0  0  0  0  0  0  0  0  0
    2.3597    0.9312    0.6318 H   0  0  0  0  0  0  0  0  0  0  0  0
   -0.1243    1.6130    1.2652 H   0  0  0  0  0  0  0  0  0  0  0  0
    0.4433    3.2293    0.9275 H   0  0  0  0  0  0  0  0  0  0  0  0
   -1.6807    0.3122    0.5394 H   0  0  0  0  0  0  0  0  0  0  0  0
   -2.4940    0.5180    2.0942 H   0  0  0  0  0  0  0  0  0  0  0  0
   -3.6509   -1.1731    0.7685 H   0  0  0  0  0  0  0  0  0  0  0  0
   -3.7753   -0.0907   -0.6310 H   0  0  0  0  0  0  0  0  0  0  0  0
   -5.5885   -2.0396    1.7915 H   0  0  0  0  0  0  0  0  0  0  0  0
   -7.5123   -3.4369    1.0928 H   0  0  0  0  0  0  0  0  0  0  0  0
   -9.1870   -2.4858   -0.5039 H   0  0  0  0  0  0  0  0  0  0  0  0
   -8.8295   -0.1547   -1.3266 H   0  0  0  0  0  0  0  0  0  0  0  0
   -5.2378    1.9717   -0.4800 H   0  0  0  0  0  0  0  0  0  0  0  0
   -6.1543    2.2522    1.0235 H   0  0  0  0  0  0  0  0  0  0  0  0
   -4.1447    3.7126    0.8381 H   0  0  0  0  0  0  0  0  0  0  0  0
   -4.0983    2.6853    2.2753 H   0  0  0  0  0  0  0  0  0  0  0  0
   -1.5614    2.9091   -2.0160 H   0  0  0  0  0  0  0  0  0  0  0  0
    4.4412   -0.0888    0.9046 H   0  0  0  0  0  0  0  0  0  0  0  0
    6.2213    0.3442    2.3800 H   0  0  0  0  0  0  0  0  0  0  0  0
    6.8999   -0.9257    3.4055 H   0  0  0  0  0  0  0  0  0  0  0  0
    5.2402   -1.1072    2.8264 H   0  0  0  0  0  0  0  0  0  0  0  0
  1  2  1  0
  2  3  1  0
  3  4  2  0
  4  5  1  0
  5  6  2  0
  6  7  1  0
  7  8  2  0
  8  9  1  0
  9 10  1  0
 10 11  1  0
 11 12  1  0
 12 13  2  0
 12 14  1  0
 14 15  1  0
 15 16  1  0
 16 17  1  0
 17 18  1  0
 18 19  2  0
 19 20  1  0
 20 21  2  0
 21 22  1  0
 22 23  2  0
 17 24  1  0
 24 25  1  0
 10 26  2  0
 26 27  1  0
 27 28  1  0
 28 29  2  0
  6 30  1  0
 30 31  2  0
 31 32  1  0
 32 33  1  0
 31  3  1  0
 29  7  1  0
 28  9  1  0
 25 14  1  0
 23 18  1  0
  1 34  1  0
  1 35  1  0
  1 36  1  0
  4 37  1  0
  5 38  1  0
  8 39  1  0
 11 40  1  0
 11 41  1  0
 15 42  1  0
 15 43  1  0
 16 44  1  0
 16 45  1  0
 19 46  1  0
 20 47  1  0
 21 48  1  0
 22 49  1  0
 24 50  1  0
 24 51  1  0
 25 52  1  0
 25 53  1  0
 26 54  1  0
 30 55  1  0
 33 56  1  0
 33 57  1  0
 33 58  1  0
M  END
$$$$
