
     RDKit          3D

 68 72  0  0  0  0  0  0  0  0999 V2000
   -4.6363    5.6895   -1.7798 C   0  0  0  0  0  0  0  0  0  0  0  0
   -3.5947    4.7244   -1.2782 C   0  0  0  0  0  0  0  0  0  0  0  0
   -2.2933    5.2062   -1.0530 C   0  0  0  0  0  0  0  0  0  0  0  0
   -1.2812    4.3644   -0.5879 C   0  0  0  0  0  0  0  0  0  0  0  0
   -1.5526    3.0262   -0.3373 C   0  0  0  0  0  0  0  0  0  0  0  0
   -0.6003    2.0973    0.1359 N   0  0  0  0  0  0  0  0  0  0  0  0
    0.7145    2.3413    0.4875 C   0  0  0  0  0  0  0  0  0  0  0  0
    1.2813    3.4282    0.5031 O   0  0  0  0  0  0  0  0  0  0  0  0
    1.4813    1.1380    0.9265 C   0  0  0  0  0  0  0  0  0  0  0  0
    1.2534   -0.1292    0.3767 C   0  0  0  0  0  0  0  0  0  0  0  0
    1.9912   -1.2289    0.8248 C   0  0  0  0  0  0  0  0  0  0  0  0
    2.9748   -1.0795    1.8145 C   0  0  0  0  0  0  0  0  0  0  0  0
    3.7675   -2.2768    2.2989 C   0  0  0  0  0  0  0  0  0  0  0  0
    5.0181   -2.5781    1.5959 N   0  0  0  0  0  0  0  0  0  0  0  0
    4.8486   -2.9371    0.1812 C   0  0  0  0  0  0  0  0  0  0  0  0
    6.1895   -3.3509   -0.4743 C   0  0  0  0  0  0  0  0  0  0  0  0
    7.2868   -2.3719   -0.3286 N   0  0  0  0  0  0  0  0  0  0  0  0
    7.0882   -1.2084   -1.1913 C   0  0  0  0  0  0  0  0  0  0  0  0
    7.3945   -1.9801    1.0924 C   0  0  0  0  0  0  0  0  0  0  0  0
    6.0621   -1.5565    1.7588 C   0  0  0  0  0  0  0  0  0  0  0  0
    3.2056    0.1964    2.3492 C   0  0  0  0  0  0  0  0  0  0  0  0
    2.4701    1.2980    1.9039 C   0  0  0  0  0  0  0  0  0  0  0  0
   -2.8499    2.5441   -0.5706 C   0  0  0  0  0  0  0  0  0  0  0  0
   -3.8909    3.3642   -1.0383 C   0  0  0  0  0  0  0  0  0  0  0  0
   -5.1879    2.8759   -1.2646 N   0  0  0  0  0  0  0  0  0  0  0  0
   -5.7940    1.6278   -1.1468 C   0  0  0  0  0  0  0  0  0  0  0  0
   -7.0887    1.5902   -1.4943 N   0  0  0  0  0  0  0  0  0  0  0  0
   -7.7163    0.4052   -1.4018 C   0  0  0  0  0  0  0  0  0  0  0  0
   -7.1025   -0.7487   -0.9827 C   0  0  0  0  0  0  0  0  0  0  0  0
   -5.7708   -0.6355   -0.6451 C   0  0  0  0  0  0  0  0  0  0  0  0
   -4.9519   -1.7683   -0.1822 C   0  0  0  0  0  0  0  0  0  0  0  0
   -5.1564   -3.0905   -0.6032 C   0  0  0  0  0  0  0  0  0  0  0  0
   -4.3368   -4.1196   -0.1361 C   0  0  0  0  0  0  0  0  0  0  0  0
   -3.3188   -3.8028    0.7452 C   0  0  0  0  0  0  0  0  0  0  0  0
   -3.0718   -2.5503    1.1767 N   0  0  0  0  0  0  0  0  0  0  0  0
   -3.8911   -1.5747    0.7068 C   0  0  0  0  0  0  0  0  0  0  0  0
   -5.1243    0.5487   -0.7196 N   0  0  0  0  0  0  0  0  0  0  0  0
   -5.0012    5.3754   -2.7633 H   0  0  0  0  0  0  0  0  0  0  0  0
   -5.4740    5.7457   -1.0769 H   0  0  0  0  0  0  0  0  0  0  0  0
   -4.2317    6.7017   -1.8868 H   0  0  0  0  0  0  0  0  0  0  0  0
   -2.0526    6.2513   -1.2381 H   0  0  0  0  0  0  0  0  0  0  0  0
   -0.2938    4.7870   -0.4329 H   0  0  0  0  0  0  0  0  0  0  0  0
   -0.9526    1.1619    0.2945 H   0  0  0  0  0  0  0  0  0  0  0  0
    0.5251   -0.2790   -0.4155 H   0  0  0  0  0  0  0  0  0  0  0  0
    1.7983   -2.2082    0.3912 H   0  0  0  0  0  0  0  0  0  0  0  0
    3.9813   -2.1477    3.3689 H   0  0  0  0  0  0  0  0  0  0  0  0
    3.1183   -3.1630    2.2650 H   0  0  0  0  0  0  0  0  0  0  0  0
    4.1561   -3.7833    0.0960 H   0  0  0  0  0  0  0  0  0  0  0  0
    4.4197   -2.1056   -0.3898 H   0  0  0  0  0  0  0  0  0  0  0  0
    6.0253   -3.5788   -1.5355 H   0  0  0  0  0  0  0  0  0  0  0  0
    6.5203   -4.2950   -0.0201 H   0  0  0  0  0  0  0  0  0  0  0  0
    7.9367   -0.5204   -1.1011 H   0  0  0  0  0  0  0  0  0  0  0  0
    7.0507   -1.5173   -2.2423 H   0  0  0  0  0  0  0  0  0  0  0  0
    6.1736   -0.6491   -0.9693 H   0  0  0  0  0  0  0  0  0  0  0  0
    8.1352   -1.1785    1.2074 H   0  0  0  0  0  0  0  0  0  0  0  0
    7.8016   -2.8367    1.6463 H   0  0  0  0  0  0  0  0  0  0  0  0
    6.2555   -1.3960    2.8266 H   0  0  0  0  0  0  0  0  0  0  0  0
    5.7455   -0.5960    1.3363 H   0  0  0  0  0  0  0  0  0  0  0  0
    3.9625    0.3409    3.1172 H   0  0  0  0  0  0  0  0  0  0  0  0
    2.6652    2.2823    2.3256 H   0  0  0  0  0  0  0  0  0  0  0  0
   -3.0432    1.4954   -0.3803 H   0  0  0  0  0  0  0  0  0  0  0  0
   -5.8755    3.5290   -1.6077 H   0  0  0  0  0  0  0  0  0  0  0  0
   -8.7653    0.4133   -1.6839 H   0  0  0  0  0  0  0  0  0  0  0  0
   -7.6527   -1.6764   -0.9125 H   0  0  0  0  0  0  0  0  0  0  0  0
   -5.9401   -3.3355   -1.3149 H   0  0  0  0  0  0  0  0  0  0  0  0
   -4.4869   -5.1443   -0.4590 H   0  0  0  0  0  0  0  0  0  0  0  0
   -2.6550   -4.5689    1.1356 H   0  0  0  0  0  0  0  0  0  0  0  0
   -3.6634   -0.5824    1.0909 H   0  0  0  0  0  0  0  0  0  0  0  0
  1  2  1  0
  2  3  2  0
  3  4  1  0
  4  5  2  0
  5  6  1  0
  6  7  1  0
  7  8  2  0
  7  9  1  0
  9 10  2  0
 10 11  1  0
 11 12  2  0
 12 13  1  0
 13 14  1  0
 14 15  1  0
 15 16  1  0
 16 17  1  0
 17 18  1  0
 17 19  1  0
 19 20  1  0
 12 21  1  0
 21 22  2  0
  5 23  1  0
 23 24  2  0
 24 25  1  0
 25 26  1  0
 26 27  2  0
 27 28  1  0
 28 29  2  0
 29 30  1  0
 30 31  1  0
 31 32  2  0
 32 33  1  0
 33 34  2  0
 34 35  1  0
 35 36  2  0
 30 37  2  0
 24  2  1  0
 37 26  1  0
 22  9  1  0
 36 31  1  0
 20 14  1  0
  1 38  1  0
  1 39  1  0
  1 40  1  0
  3 41  1  0
  4 42  1  0
  6 43  1  0
 10 44  1  0
 11 45  1  0
 13 46  1  0
 13 47  1  0
 15 48  1  0
 15 49  1  0
 16 50  1  0
 16 51  1  0
 18 52  1  0
 18 53  1  0
 18 54  1  0
 19 55  1  0
 19 56  1  0
 20 57  1  0
 20 58  1  0
 21 59  1  0
 22 60  1  0
 23 61  1  0
 25 62  1  0
 28 63  1  0
 29 64  1  0
 32 65  1  0
 33 66  1  0
 34 67  1  0
 36 68  1  0
M  END
$$$$
