
     RDKit          3D

 39 41  0  0  0  0  0  0  0  0999 V2000
    3.0998   -2.5244   -0.5253 C   0  0  0  0  0  0  0  0  0  0  0  0
    2.6072   -1.1936   -0.3926 O   0  0  0  0  0  0  0  0  0  0  0  0
    3.5196   -0.1658   -0.4180 C   0  0  0  0  0  0  0  0  0  0  0  0
    4.9008   -0.3731   -0.5676 C   0  0  0  0  0  0  0  0  0  0  0  0
    5.7919    0.7027   -0.5879 C   0  0  0  0  0  0  0  0  0  0  0  0
    5.3185    2.0013   -0.4592 C   0  0  0  0  0  0  0  0  0  0  0  0
    3.9508    2.2245   -0.3100 C   0  0  0  0  0  0  0  0  0  0  0  0
    3.0332    1.1547   -0.2867 C   0  0  0  0  0  0  0  0  0  0  0  0
    1.5819    1.5346   -0.1193 C   0  0  0  0  0  0  0  0  0  0  0  0
    1.2970    2.7245   -0.0163 O   0  0  0  0  0  0  0  0  0  0  0  0
    0.6686    0.4983   -0.0942 N   0  0  0  0  0  0  0  0  0  0  0  0
   -0.7314    0.5707    0.0488 C   0  0  0  0  0  0  0  0  0  0  0  0
   -1.4395    1.7565    0.1934 C   0  0  0  0  0  0  0  0  0  0  0  0
   -2.8320    1.7407    0.3301 C   0  0  0  0  0  0  0  0  0  0  0  0
   -3.5516    0.5389    0.3256 C   0  0  0  0  0  0  0  0  0  0  0  0
   -4.9106    0.4920    0.4571 O   0  0  0  0  0  0  0  0  0  0  0  0
   -5.6303    1.7084    0.6047 C   0  0  0  0  0  0  0  0  0  0  0  0
   -2.8458   -0.6732    0.1796 C   0  0  0  0  0  0  0  0  0  0  0  0
   -3.5063   -1.9377    0.1654 N   0  0  0  0  0  0  0  0  0  0  0  0
   -2.9555   -3.1950    0.0318 C   0  0  0  0  0  0  0  0  0  0  0  0
   -3.9003   -4.1054    0.0680 N   0  0  0  0  0  0  0  0  0  0  0  0
   -5.0670   -3.4144    0.2268 N   0  0  0  0  0  0  0  0  0  0  0  0
   -4.8432   -2.1104    0.2867 N   0  0  0  0  0  0  0  0  0  0  0  0
   -1.4394   -0.6388    0.0427 C   0  0  0  0  0  0  0  0  0  0  0  0
    3.5887   -2.6693   -1.4941 H   0  0  0  0  0  0  0  0  0  0  0  0
    3.7664   -2.7827    0.3039 H   0  0  0  0  0  0  0  0  0  0  0  0
    2.2405   -3.2008   -0.4830 H   0  0  0  0  0  0  0  0  0  0  0  0
    5.3261   -1.3663   -0.6722 H   0  0  0  0  0  0  0  0  0  0  0  0
    6.8584    0.5235   -0.7046 H   0  0  0  0  0  0  0  0  0  0  0  0
    6.0081    2.8418   -0.4744 H   0  0  0  0  0  0  0  0  0  0  0  0
    3.5990    3.2509   -0.2105 H   0  0  0  0  0  0  0  0  0  0  0  0
    1.0693   -0.4289   -0.1921 H   0  0  0  0  0  0  0  0  0  0  0  0
   -0.9423    2.7217    0.2050 H   0  0  0  0  0  0  0  0  0  0  0  0
   -3.3241    2.7027    0.4393 H   0  0  0  0  0  0  0  0  0  0  0  0
   -5.5121    2.3465   -0.2770 H   0  0  0  0  0  0  0  0  0  0  0  0
   -6.6921    1.4593    0.6941 H   0  0  0  0  0  0  0  0  0  0  0  0
   -5.3345    2.2335    1.5188 H   0  0  0  0  0  0  0  0  0  0  0  0
   -1.9042   -3.3963   -0.0848 H   0  0  0  0  0  0  0  0  0  0  0  0
   -0.8637   -1.5516   -0.0716 H   0  0  0  0  0  0  0  0  0  0  0  0
  1  2  1  0
  2  3  1  0
  3  4  2  0
  4  5  1  0
  5  6  2  0
  6  7  1  0
  7  8  2  0
  8  9  1  0
  9 10  2  0
  9 11  1  0
 11 12  1  0
 12 13  2  0
 13 14  1  0
 14 15  2  0
 15 16  1  0
 16 17  1  0
 15 18  1  0
 18 19  1  0
 19 20  1  0
 20 21  2  0
 21 22  1  0
 22 23  2  0
 18 24  2  0
  8  3  1  0
 24 12  1  0
 23 19  1  0
  1 25  1  0
  1 26  1  0
  1 27  1  0
  4 28  1  0
  5 29  1  0
  6 30  1  0
  7 31  1  0
 11 32  1  0
 13 33  1  0
 14 34  1  0
 17 35  1  0
 17 36  1  0
 17 37  1  0
 20 38  1  0
 24 39  1  0
M  END
$$$$
