
     RDKit          3D

 52 52  0  0  0  0  0  0  0  0999 V2000
   -3.2109   -4.1358    0.8901 C   0  0  0  0  0  0  0  0  0  0  0  0
   -2.3777   -3.2880   -0.0579 C   0  0  0  0  0  0  0  0  0  0  0  0
   -2.3347   -1.8247    0.3888 C   0  0  0  0  0  0  0  0  0  0  0  0
   -1.4922   -0.9798   -0.5783 C   0  0  0  0  0  0  0  0  0  0  0  0
   -1.3437    0.4468   -0.2386 N   0  0  0  0  0  0  0  0  0  0  0  0
   -2.6141    1.1918   -0.1663 C   0  0  0  0  0  0  0  0  0  0  0  0
   -3.4314    1.1538   -1.4673 C   0  0  0  0  0  0  0  0  0  0  0  0
   -4.7089    1.9977   -1.4021 C   0  0  0  0  0  0  0  0  0  0  0  0
   -4.4504    3.4945   -1.3230 C   0  0  0  0  0  0  0  0  0  0  0  0
   -0.5363    0.6216    0.9839 C   0  0  0  0  0  0  0  0  0  0  0  0
    0.1196    2.0051    1.1060 C   0  0  0  0  0  0  0  0  0  0  0  0
    1.0492    2.3438   -0.0580 C   0  0  0  0  0  0  0  0  0  0  0  0
    2.1046    1.3770   -0.1853 O   0  0  0  0  0  0  0  0  0  0  0  0
    3.1869    1.5665    0.6072 C   0  0  0  0  0  0  0  0  0  0  0  0
    3.3389    2.4715    1.4123 O   0  0  0  0  0  0  0  0  0  0  0  0
    4.1914    0.4926    0.3778 C   0  0  0  0  0  0  0  0  0  0  0  0
    3.9878   -0.5466   -0.5377 C   0  0  0  0  0  0  0  0  0  0  0  0
    4.9672   -1.5311   -0.7123 C   0  0  0  0  0  0  0  0  0  0  0  0
    6.1390   -1.5190    0.0484 C   0  0  0  0  0  0  0  0  0  0  0  0
    7.1613   -2.4350   -0.2184 N   0  0  0  0  0  0  0  0  0  0  0  0
    6.3627   -0.4484    0.9171 C   0  0  0  0  0  0  0  0  0  0  0  0
    5.3897    0.5401    1.0993 C   0  0  0  0  0  0  0  0  0  0  0  0
   -2.7964   -4.1141    1.9030 H   0  0  0  0  0  0  0  0  0  0  0  0
   -3.2279   -5.1766    0.5522 H   0  0  0  0  0  0  0  0  0  0  0  0
   -4.2438   -3.7757    0.9334 H   0  0  0  0  0  0  0  0  0  0  0  0
   -1.3603   -3.6939   -0.1028 H   0  0  0  0  0  0  0  0  0  0  0  0
   -2.8001   -3.3569   -1.0671 H   0  0  0  0  0  0  0  0  0  0  0  0
   -3.3593   -1.4395    0.4374 H   0  0  0  0  0  0  0  0  0  0  0  0
   -1.9174   -1.7721    1.4009 H   0  0  0  0  0  0  0  0  0  0  0  0
   -0.4901   -1.4229   -0.6592 H   0  0  0  0  0  0  0  0  0  0  0  0
   -1.9010   -1.0691   -1.5918 H   0  0  0  0  0  0  0  0  0  0  0  0
   -3.2310    0.8363    0.6680 H   0  0  0  0  0  0  0  0  0  0  0  0
   -2.3864    2.2410    0.0423 H   0  0  0  0  0  0  0  0  0  0  0  0
   -3.7378    0.1246   -1.6859 H   0  0  0  0  0  0  0  0  0  0  0  0
   -2.8119    1.4909   -2.3076 H   0  0  0  0  0  0  0  0  0  0  0  0
   -5.3003    1.7977   -2.3038 H   0  0  0  0  0  0  0  0  0  0  0  0
   -5.3200    1.6857   -0.5472 H   0  0  0  0  0  0  0  0  0  0  0  0
   -3.8059    3.8264   -2.1431 H   0  0  0  0  0  0  0  0  0  0  0  0
   -3.9786    3.7729   -0.3764 H   0  0  0  0  0  0  0  0  0  0  0  0
   -5.3959    4.0421   -1.3930 H   0  0  0  0  0  0  0  0  0  0  0  0
   -1.1448    0.4346    1.8780 H   0  0  0  0  0  0  0  0  0  0  0  0
    0.2721   -0.1210    1.0052 H   0  0  0  0  0  0  0  0  0  0  0  0
    0.6953    2.0129    2.0396 H   0  0  0  0  0  0  0  0  0  0  0  0
   -0.6383    2.7890    1.2054 H   0  0  0  0  0  0  0  0  0  0  0  0
    1.4658    3.3513    0.0614 H   0  0  0  0  0  0  0  0  0  0  0  0
    0.4992    2.3479   -1.0050 H   0  0  0  0  0  0  0  0  0  0  0  0
    3.0798   -0.5985   -1.1335 H   0  0  0  0  0  0  0  0  0  0  0  0
    4.8042   -2.3104   -1.4526 H   0  0  0  0  0  0  0  0  0  0  0  0
    7.8167   -2.5582    0.5472 H   0  0  0  0  0  0  0  0  0  0  0  0
    6.8369   -3.3204   -0.5943 H   0  0  0  0  0  0  0  0  0  0  0  0
    7.2995   -0.3723    1.4633 H   0  0  0  0  0  0  0  0  0  0  0  0
    5.5794    1.3538    1.7966 H   0  0  0  0  0  0  0  0  0  0  0  0
  1  2  1  0
  2  3  1  0
  3  4  1  0
  4  5  1  0
  5  6  1  0
  6  7  1  0
  7  8  1  0
  8  9  1  0
  5 10  1  0
 10 11  1  0
 11 12  1  0
 12 13  1  0
 13 14  1  0
 14 15  2  0
 14 16  1  0
 16 17  2  0
 17 18  1  0
 18 19  2  0
 19 20  1  0
 19 21  1  0
 21 22  2  0
 22 16  1  0
  1 23  1  0
  1 24  1  0
  1 25  1  0
  2 26  1  0
  2 27  1  0
  3 28  1  0
  3 29  1  0
  4 30  1  0
  4 31  1  0
  6 32  1  0
  6 33  1  0
  7 34  1  0
  7 35  1  0
  8 36  1  0
  8 37  1  0
  9 38  1  0
  9 39  1  0
  9 40  1  0
 10 41  1  0
 10 42  1  0
 11 43  1  0
 11 44  1  0
 12 45  1  0
 12 46  1  0
 17 47  1  0
 18 48  1  0
 20 49  1  0
 20 50  1  0
 21 51  1  0
 22 52  1  0
M  END
$$$$
