
     RDKit          3D

 78 81  0  0  0  0  0  0  0  0999 V2000
    7.8469   -1.5821   -0.1782 C   0  0  0  0  0  0  0  0  0  0  0  0
    7.5374   -0.1027    0.0554 C   0  0  0  0  0  0  0  0  0  0  0  0
    7.7903    0.2673    1.5183 C   0  0  0  0  0  0  0  0  0  0  0  0
    8.4627    0.6374   -0.7520 O   0  0  0  0  0  0  0  0  0  0  0  0
    6.1192    0.2808   -0.4159 C   0  0  0  0  0  0  0  0  0  0  0  0
    4.9680   -0.3990    0.3405 C   0  0  0  0  0  0  0  0  0  0  0  0
    3.5817   -0.0615   -0.2528 C   0  0  0  0  0  0  0  0  0  0  0  0
    3.4654    1.3627   -0.2421 O   0  0  0  0  0  0  0  0  0  0  0  0
    2.3712   -0.6613    0.5480 C   0  0  0  0  0  0  0  0  0  0  0  0
    2.6345   -2.1555    0.8487 C   0  0  0  0  0  0  0  0  0  0  0  0
    2.3061   -0.0223    1.8305 O   0  0  0  0  0  0  0  0  0  0  0  0
    0.9630   -0.5562   -0.1405 C   0  0  0  0  0  0  0  0  0  0  0  0
    0.9436   -0.9243   -1.6266 C   0  0  0  0  0  0  0  0  0  0  0  0
   -0.5288   -0.7635   -1.9806 C   0  0  0  0  0  0  0  0  0  0  0  0
   -0.9057    0.5821   -1.3358 C   0  0  0  0  0  0  0  0  0  0  0  0
   -0.4847    1.5629   -2.2986 O   0  0  0  0  0  0  0  0  0  0  0  0
   -2.4130    0.6988   -1.1282 C   0  0  0  0  0  0  0  0  0  0  0  0
   -3.1898    1.4358   -1.9428 C   0  0  0  0  0  0  0  0  0  0  0  0
   -4.6588    1.4980   -1.8147 C   0  0  0  0  0  0  0  0  0  0  0  0
   -5.2998    2.0979   -2.6777 O   0  0  0  0  0  0  0  0  0  0  0  0
   -5.3474    0.7989   -0.6610 C   0  0  0  0  0  0  0  0  0  0  0  0
   -6.0948   -0.4302   -1.1782 C   0  0  0  0  0  0  0  0  0  0  0  0
   -7.0673   -0.9742   -0.1275 C   0  0  0  0  0  0  0  0  0  0  0  0
   -7.2230   -2.3780   -0.3417 O   0  0  0  0  0  0  0  0  0  0  0  0
   -6.6043   -0.7241    1.3226 C   0  0  0  0  0  0  0  0  0  0  0  0
   -7.1519    0.4987    1.8176 O   0  0  0  0  0  0  0  0  0  0  0  0
   -5.0779   -0.6517    1.4297 C   0  0  0  0  0  0  0  0  0  0  0  0
   -4.4038    0.4407    0.5240 C   0  0  0  0  0  0  0  0  0  0  0  0
   -4.1805    1.7272    1.3604 C   0  0  0  0  0  0  0  0  0  0  0  0
   -3.0290   -0.1274   -0.0069 C   0  0  0  0  0  0  0  0  0  0  0  0
   -2.0249   -0.4495    1.1249 C   0  0  0  0  0  0  0  0  0  0  0  0
   -0.8893    0.5627    1.2514 C   0  0  0  0  0  0  0  0  0  0  0  0
   -0.0142    0.6902   -0.0259 C   0  0  0  0  0  0  0  0  0  0  0  0
    0.6846    2.0576    0.0608 C   0  0  0  0  0  0  0  0  0  0  0  0
    7.2486   -2.2376    0.4613 H   0  0  0  0  0  0  0  0  0  0  0  0
    7.6681   -1.8573   -1.2238 H   0  0  0  0  0  0  0  0  0  0  0  0
    8.9049   -1.7921    0.0181 H   0  0  0  0  0  0  0  0  0  0  0  0
    7.5694    1.3257    1.6966 H   0  0  0  0  0  0  0  0  0  0  0  0
    7.1865   -0.3337    2.2051 H   0  0  0  0  0  0  0  0  0  0  0  0
    8.8460    0.1245    1.7771 H   0  0  0  0  0  0  0  0  0  0  0  0
    8.3601    1.5812   -0.5394 H   0  0  0  0  0  0  0  0  0  0  0  0
    6.0301    0.0581   -1.4878 H   0  0  0  0  0  0  0  0  0  0  0  0
    6.0153    1.3713   -0.3417 H   0  0  0  0  0  0  0  0  0  0  0  0
    4.9988   -0.0804    1.3885 H   0  0  0  0  0  0  0  0  0  0  0  0
    5.1199   -1.4812    0.3106 H   0  0  0  0  0  0  0  0  0  0  0  0
    3.5564   -0.4104   -1.2904 H   0  0  0  0  0  0  0  0  0  0  0  0
    3.8565    1.6922   -1.0711 H   0  0  0  0  0  0  0  0  0  0  0  0
    3.4815   -2.2869    1.5310 H   0  0  0  0  0  0  0  0  0  0  0  0
    2.8209   -2.7268   -0.0659 H   0  0  0  0  0  0  0  0  0  0  0  0
    1.7868   -2.6114    1.3746 H   0  0  0  0  0  0  0  0  0  0  0  0
    2.6672    0.8755    1.6888 H   0  0  0  0  0  0  0  0  0  0  0  0
    0.3950   -1.3653    0.3390 H   0  0  0  0  0  0  0  0  0  0  0  0
    1.5524   -0.2367   -2.2231 H   0  0  0  0  0  0  0  0  0  0  0  0
    1.2862   -1.9463   -1.8131 H   0  0  0  0  0  0  0  0  0  0  0  0
   -0.6651   -0.7665   -3.0679 H   0  0  0  0  0  0  0  0  0  0  0  0
   -1.1016   -1.6001   -1.5635 H   0  0  0  0  0  0  0  0  0  0  0  0
   -0.7292    2.4381   -1.9534 H   0  0  0  0  0  0  0  0  0  0  0  0
   -2.7979    1.9890   -2.7902 H   0  0  0  0  0  0  0  0  0  0  0  0
   -6.0946    1.5256   -0.3102 H   0  0  0  0  0  0  0  0  0  0  0  0
   -5.3850   -1.2082   -1.4882 H   0  0  0  0  0  0  0  0  0  0  0  0
   -6.6608   -0.1918   -2.0882 H   0  0  0  0  0  0  0  0  0  0  0  0
   -8.0520   -0.5139   -0.2733 H   0  0  0  0  0  0  0  0  0  0  0  0
   -7.5612   -2.4984   -1.2468 H   0  0  0  0  0  0  0  0  0  0  0  0
   -6.9629   -1.5264    1.9787 H   0  0  0  0  0  0  0  0  0  0  0  0
   -8.1105    0.3620    1.9209 H   0  0  0  0  0  0  0  0  0  0  0  0
   -4.6884   -1.6450    1.1712 H   0  0  0  0  0  0  0  0  0  0  0  0
   -4.8063   -0.4782    2.4789 H   0  0  0  0  0  0  0  0  0  0  0  0
   -5.1315    2.1611    1.6872 H   0  0  0  0  0  0  0  0  0  0  0  0
   -3.6533    2.4984    0.7897 H   0  0  0  0  0  0  0  0  0  0  0  0
   -3.6000    1.5298    2.2670 H   0  0  0  0  0  0  0  0  0  0  0  0
   -3.2585   -1.0990   -0.4711 H   0  0  0  0  0  0  0  0  0  0  0  0
   -1.6118   -1.4491    0.9456 H   0  0  0  0  0  0  0  0  0  0  0  0
   -2.5247   -0.5345    2.0953 H   0  0  0  0  0  0  0  0  0  0  0  0
   -1.3260    1.5376    1.5013 H   0  0  0  0  0  0  0  0  0  0  0  0
   -0.2640    0.2916    2.1101 H   0  0  0  0  0  0  0  0  0  0  0  0
    1.3436    2.2358   -0.7922 H   0  0  0  0  0  0  0  0  0  0  0  0
    1.2588    2.1733    0.9823 H   0  0  0  0  0  0  0  0  0  0  0  0
   -0.0531    2.8699    0.0657 H   0  0  0  0  0  0  0  0  0  0  0  0
  1  2  1  0
  2  3  1  0
  2  4  1  0
  2  5  1  0
  5  6  1  0
  6  7  1  0
  7  8  1  0
  7  9  1  0
  9 10  1  0
  9 11  1  0
  9 12  1  0
 12 13  1  0
 13 14  1  0
 14 15  1  0
 15 16  1  0
 15 17  1  0
 17 18  2  0
 18 19  1  0
 19 20  2  0
 19 21  1  0
 21 22  1  0
 22 23  1  0
 23 24  1  0
 23 25  1  0
 25 26  1  0
 25 27  1  0
 27 28  1  0
 28 29  1  0
 28 30  1  0
 30 31  1  0
 31 32  1  0
 32 33  1  0
 33 34  1  0
 33 12  1  0
 33 15  1  0
 30 17  1  0
 28 21  1  0
  1 35  1  0
  1 36  1  0
  1 37  1  0
  3 38  1  0
  3 39  1  0
  3 40  1  0
  4 41  1  0
  5 42  1  0
  5 43  1  0
  6 44  1  0
  6 45  1  0
  7 46  1  0
  8 47  1  0
 10 48  1  0
 10 49  1  0
 10 50  1  0
 11 51  1  0
 12 52  1  0
 13 53  1  0
 13 54  1  0
 14 55  1  0
 14 56  1  0
 16 57  1  0
 18 58  1  0
 21 59  1  0
 22 60  1  0
 22 61  1  0
 23 62  1  0
 24 63  1  0
 25 64  1  0
 26 65  1  0
 27 66  1  0
 27 67  1  0
 29 68  1  0
 29 69  1  0
 29 70  1  0
 30 71  1  0
 31 72  1  0
 31 73  1  0
 32 74  1  0
 32 75  1  0
 34 76  1  0
 34 77  1  0
 34 78  1  0
M  END
$$$$
