
     RDKit          3D

 54 55  0  0  0  0  0  0  0  0999 V2000
    7.3176    1.4682    2.0409 C   0  0  0  0  0  0  0  0  0  0  0  0
    7.0577    0.7315    0.7378 C   0  0  0  0  0  0  0  0  0  0  0  0
    5.6169    0.3025    0.6166 C   0  0  0  0  0  0  0  0  0  0  0  0
    5.1909   -0.9182    1.1515 C   0  0  0  0  0  0  0  0  0  0  0  0
    3.8523   -1.3102    1.0498 C   0  0  0  0  0  0  0  0  0  0  0  0
    2.9268   -0.4864    0.4075 C   0  0  0  0  0  0  0  0  0  0  0  0
    1.5145   -0.9469    0.3028 C   0  0  0  0  0  0  0  0  0  0  0  0
    1.0209   -1.6207    1.2062 O   0  0  0  0  0  0  0  0  0  0  0  0
    0.8578   -0.5948   -0.8757 N   0  0  0  0  0  0  0  0  0  0  0  0
   -0.5633   -0.4996   -0.8336 N   0  0  0  0  0  0  0  0  0  0  0  0
   -1.0186    0.7472   -0.3962 C   0  0  0  0  0  0  0  0  0  0  0  0
   -0.2659    1.7209   -0.2752 O   0  0  0  0  0  0  0  0  0  0  0  0
   -2.4466    0.9676   -0.1202 C   0  0  0  0  0  0  0  0  0  0  0  0
   -3.1865    1.7619   -1.0000 C   0  0  0  0  0  0  0  0  0  0  0  0
   -4.5480    1.9840   -0.7637 C   0  0  0  0  0  0  0  0  0  0  0  0
   -5.3496    2.8390   -1.7034 C   0  0  0  0  0  0  0  0  0  0  0  0
   -5.1390    1.4453    0.3898 C   0  0  0  0  0  0  0  0  0  0  0  0
   -4.3871    0.6908    1.3031 C   0  0  0  0  0  0  0  0  0  0  0  0
   -5.0202    0.1310    2.5435 C   0  0  0  0  0  0  0  0  0  0  0  0
   -3.0295    0.4622    1.0472 C   0  0  0  0  0  0  0  0  0  0  0  0
   -1.2835   -1.7612   -1.2252 C   0  0  0  0  0  0  0  0  0  0  0  0
   -1.7249   -2.5647    0.0157 C   0  0  0  0  0  0  0  0  0  0  0  0
   -2.5107   -1.4393   -2.1084 C   0  0  0  0  0  0  0  0  0  0  0  0
   -0.3863   -2.6842   -2.0952 C   0  0  0  0  0  0  0  0  0  0  0  0
    3.3378    0.7535   -0.0945 C   0  0  0  0  0  0  0  0  0  0  0  0
    4.6782    1.1398    0.0043 C   0  0  0  0  0  0  0  0  0  0  0  0
    6.7043    2.3713    2.1135 H   0  0  0  0  0  0  0  0  0  0  0  0
    8.3699    1.7665    2.1052 H   0  0  0  0  0  0  0  0  0  0  0  0
    7.0889    0.8327    2.9072 H   0  0  0  0  0  0  0  0  0  0  0  0
    7.7117   -0.1470    0.6672 H   0  0  0  0  0  0  0  0  0  0  0  0
    7.3237    1.3717   -0.1071 H   0  0  0  0  0  0  0  0  0  0  0  0
    5.8970   -1.5679    1.6557 H   0  0  0  0  0  0  0  0  0  0  0  0
    3.5327   -2.2575    1.4736 H   0  0  0  0  0  0  0  0  0  0  0  0
    1.2790    0.1156   -1.4692 H   0  0  0  0  0  0  0  0  0  0  0  0
   -2.6997    2.1949   -1.8712 H   0  0  0  0  0  0  0  0  0  0  0  0
   -5.2526    3.8892   -1.4150 H   0  0  0  0  0  0  0  0  0  0  0  0
   -6.4140    2.5668   -1.6860 H   0  0  0  0  0  0  0  0  0  0  0  0
   -4.9982    2.7252   -2.7314 H   0  0  0  0  0  0  0  0  0  0  0  0
   -6.1957    1.6281    0.5830 H   0  0  0  0  0  0  0  0  0  0  0  0
   -4.9430   -0.9608    2.5458 H   0  0  0  0  0  0  0  0  0  0  0  0
   -6.0806    0.3948    2.6040 H   0  0  0  0  0  0  0  0  0  0  0  0
   -4.5253    0.5312    3.4339 H   0  0  0  0  0  0  0  0  0  0  0  0
   -2.4274   -0.1021    1.7586 H   0  0  0  0  0  0  0  0  0  0  0  0
   -1.6662   -1.9852    0.9430 H   0  0  0  0  0  0  0  0  0  0  0  0
   -1.0919   -3.4436    0.1681 H   0  0  0  0  0  0  0  0  0  0  0  0
   -2.7556   -2.9327   -0.0875 H   0  0  0  0  0  0  0  0  0  0  0  0
   -2.2660   -0.6827   -2.8606 H   0  0  0  0  0  0  0  0  0  0  0  0
   -2.8711   -2.3259   -2.6420 H   0  0  0  0  0  0  0  0  0  0  0  0
   -3.3601   -1.0747   -1.5251 H   0  0  0  0  0  0  0  0  0  0  0  0
   -0.0197   -2.1592   -2.9831 H   0  0  0  0  0  0  0  0  0  0  0  0
    0.4839   -3.0552   -1.5413 H   0  0  0  0  0  0  0  0  0  0  0  0
   -0.9453   -3.5676   -2.4403 H   0  0  0  0  0  0  0  0  0  0  0  0
    2.6273    1.4484   -0.5326 H   0  0  0  0  0  0  0  0  0  0  0  0
    4.9823    2.1068   -0.3921 H   0  0  0  0  0  0  0  0  0  0  0  0
  1  2  1  0
  2  3  1  0
  3  4  2  0
  4  5  1  0
  5  6  2  0
  6  7  1  0
  7  8  2  0
  7  9  1  0
  9 10  1  0
 10 11  1  0
 11 12  2  0
 11 13  1  0
 13 14  2  0
 14 15  1  0
 15 16  1  0
 15 17  2  0
 17 18  1  0
 18 19  1  0
 18 20  2  0
 10 21  1  0
 21 22  1  0
 21 23  1  0
 21 24  1  0
  6 25  1  0
 25 26  2  0
 26  3  1  0
 20 13  1  0
  1 27  1  0
  1 28  1  0
  1 29  1  0
  2 30  1  0
  2 31  1  0
  4 32  1  0
  5 33  1  0
  9 34  1  0
 14 35  1  0
 16 36  1  0
 16 37  1  0
 16 38  1  0
 17 39  1  0
 19 40  1  0
 19 41  1  0
 19 42  1  0
 20 43  1  0
 22 44  1  0
 22 45  1  0
 22 46  1  0
 23 47  1  0
 23 48  1  0
 23 49  1  0
 24 50  1  0
 24 51  1  0
 24 52  1  0
 25 53  1  0
 26 54  1  0
M  END
$$$$
