
     RDKit          3D

 52 52  0  0  0  0  0  0  0  0999 V2000
   -2.3394   -3.4985    2.4571 C   0  0  0  0  0  0  0  0  0  0  0  0
   -2.6028   -2.1289    1.8196 C   0  0  0  0  0  0  0  0  0  0  0  0
   -4.0528   -1.7321    2.0932 C   0  0  0  0  0  0  0  0  0  0  0  0
   -1.6241   -1.0794    2.3846 C   0  0  0  0  0  0  0  0  0  0  0  0
   -0.9936   -0.1053    1.3723 C   0  0  2  0  0  0  0  0  0  0  0  0
   -1.9025    0.9052    0.8292 N   0  0  0  0  0  0  0  0  0  0  0  0
   -2.8304    0.6578   -0.1519 C   0  0  0  0  0  0  0  0  0  0  0  0
   -2.8728   -0.3399   -0.8524 O   0  0  0  0  0  0  0  0  0  0  0  0
   -3.8109    1.7436   -0.3427 C   0  0  1  0  0  0  0  0  0  0  0  0
   -3.2449    2.9986   -0.7673 O   0  0  0  0  0  0  0  0  0  0  0  0
   -4.0471    2.2837   -1.7289 C   0  0  2  0  0  0  0  0  0  0  0  0
   -5.3288    2.9179   -2.0540 C   0  0  0  0  0  0  0  0  0  0  0  0
   -6.3118    2.9114   -1.3283 O   0  0  0  0  0  0  0  0  0  0  0  0
   -5.3313    3.5241   -3.2575 O   0  0  0  0  0  0  0  0  0  0  0  0
   -0.0466   -0.7878    0.3530 C   0  0  0  0  0  0  0  0  0  0  0  0
    0.4636   -1.8875    0.5507 O   0  0  0  0  0  0  0  0  0  0  0  0
    0.3246    0.0364   -0.6950 N   0  0  0  0  0  0  0  0  0  0  0  0
    1.2190   -0.4138   -1.7395 C   0  0  0  0  0  0  0  0  0  0  0  0
    2.6865   -0.3576   -1.3223 C   0  0  0  0  0  0  0  0  0  0  0  0
    3.1544    1.0704   -1.0130 C   0  0  0  0  0  0  0  0  0  0  0  0
    4.6098    1.1055   -0.5450 C   0  0  0  0  0  0  0  0  0  0  0  0
    5.5035    0.8504   -1.6685 N   0  0  0  0  0  0  0  0  0  0  0  0
    6.5246   -0.0370   -1.5760 C   0  0  0  0  0  0  0  0  0  0  0  0
    6.7481   -0.8240   -0.5886 N   0  0  0  0  0  0  0  0  0  0  0  0
    7.2941   -0.0074   -2.6855 N   0  0  0  0  0  0  0  0  0  0  0  0
   -1.3247   -3.8408    2.2300 H   0  0  0  0  0  0  0  0  0  0  0  0
   -2.4459   -3.4570    3.5476 H   0  0  0  0  0  0  0  0  0  0  0  0
   -3.0382   -4.2530    2.0750 H   0  0  0  0  0  0  0  0  0  0  0  0
   -2.4610   -2.2438    0.7448 H   0  0  0  0  0  0  0  0  0  0  0  0
   -4.2377   -1.6365    3.1681 H   0  0  0  0  0  0  0  0  0  0  0  0
   -4.7439   -2.4888    1.7054 H   0  0  0  0  0  0  0  0  0  0  0  0
   -4.3101   -0.7782    1.6300 H   0  0  0  0  0  0  0  0  0  0  0  0
   -2.1195   -0.4968    3.1716 H   0  0  0  0  0  0  0  0  0  0  0  0
   -0.7959   -1.6005    2.8838 H   0  0  0  0  0  0  0  0  0  0  0  0
   -0.2987    0.5048    1.9703 H   0  0  0  0  0  0  0  0  0  0  0  0
   -2.0232    1.7512    1.3750 H   0  0  0  0  0  0  0  0  0  0  0  0
   -4.6185    1.7844    0.3794 H   0  0  0  0  0  0  0  0  0  0  0  0
   -3.5226    1.8271   -2.5571 H   0  0  0  0  0  0  0  0  0  0  0  0
   -6.2321    3.9065   -3.3317 H   0  0  0  0  0  0  0  0  0  0  0  0
   -0.2950    0.8132   -0.8912 H   0  0  0  0  0  0  0  0  0  0  0  0
    0.9505   -1.4407   -2.0101 H   0  0  0  0  0  0  0  0  0  0  0  0
    1.0459    0.2217   -2.6122 H   0  0  0  0  0  0  0  0  0  0  0  0
    3.2949   -0.7756   -2.1332 H   0  0  0  0  0  0  0  0  0  0  0  0
    2.8489   -0.9905   -0.4432 H   0  0  0  0  0  0  0  0  0  0  0  0
    3.0228    1.7010   -1.9005 H   0  0  0  0  0  0  0  0  0  0  0  0
    2.5291    1.4962   -0.2170 H   0  0  0  0  0  0  0  0  0  0  0  0
    4.7501    0.3967    0.2805 H   0  0  0  0  0  0  0  0  0  0  0  0
    4.8366    2.1010   -0.1433 H   0  0  0  0  0  0  0  0  0  0  0  0
    5.7668    1.7018   -2.1543 H   0  0  0  0  0  0  0  0  0  0  0  0
    7.5890   -1.3761   -0.7641 H   0  0  0  0  0  0  0  0  0  0  0  0
    6.7651    0.1907   -3.5278 H   0  0  0  0  0  0  0  0  0  0  0  0
    7.8788   -0.8239   -2.8111 H   0  0  0  0  0  0  0  0  0  0  0  0
  1  2  1  0
  2  3  1  0
  2  4  1  0
  4  5  1  0
  5  6  1  0
  6  7  1  0
  7  8  2  0
  7  9  1  0
  9 10  1  0
 10 11  1  0
 11 12  1  0
 12 13  2  0
 12 14  1  0
  5 15  1  0
 15 16  2  0
 15 17  1  0
 17 18  1  0
 18 19  1  0
 19 20  1  0
 20 21  1  0
 21 22  1  0
 22 23  1  0
 23 24  2  3
 23 25  1  0
 11  9  1  0
  1 26  1  0
  1 27  1  0
  1 28  1  0
  2 29  1  0
  3 30  1  0
  3 31  1  0
  3 32  1  0
  4 33  1  0
  4 34  1  0
  5 35  1  1
  6 36  1  0
  9 37  1  1
 11 38  1  6
 14 39  1  0
 17 40  1  0
 18 41  1  0
 18 42  1  0
 19 43  1  0
 19 44  1  0
 20 45  1  0
 20 46  1  0
 21 47  1  0
 21 48  1  0
 22 49  1  0
 24 50  1  0
 25 51  1  0
 25 52  1  0
M  END
$$$$
