
     RDKit          3D

129131  0  0  0  0  0  0  0  0999 V2000
   -2.2703    8.3864    0.1725 C   0  0  0  0  0  0  0  0  0  0  0  0
   -1.5875    7.2412    0.3126 C   0  0  0  0  0  0  0  0  0  0  0  0
   -1.9038    5.9802   -0.4528 C   0  0  0  0  0  0  0  0  0  0  0  0
   -2.3207    4.7720    0.4087 C   0  0  2  0  0  0  0  0  0  0  0  0
   -3.6386    5.0181    1.1222 C   0  0  0  0  0  0  0  0  0  0  0  0
   -4.8245    4.4025    0.9294 C   0  0  0  0  0  0  0  0  0  0  0  0
   -6.0049    4.7492    1.8053 C   0  0  0  0  0  0  0  0  0  0  0  0
   -5.1073    3.3745   -0.1468 C   0  0  0  0  0  0  0  0  0  0  0  0
   -5.1753    1.9038    0.3359 C   0  0  2  0  0  0  0  0  0  0  0  0
   -3.8552    1.4623    0.9697 C   0  0  0  0  0  0  0  0  0  0  0  0
   -5.6026    1.0257   -0.8663 C   0  0  0  0  0  0  0  0  0  0  0  0
   -5.7369   -0.5085   -0.6788 C   0  0  2  0  0  0  0  0  0  0  0  0
   -6.2680   -0.7347    0.6303 O   0  0  0  0  0  0  0  0  0  0  0  0
   -6.6941   -2.0589    0.8918 C   0  0  0  0  0  0  0  0  0  0  0  0
   -4.4178   -1.2716   -1.0383 C   0  0  1  0  0  0  0  0  0  0  0  0
   -3.6131   -1.4746    0.1132 O   0  0  0  0  0  0  0  0  0  0  0  0
   -2.2873   -1.9758   -0.1135 C   0  0  1  0  0  0  0  0  0  0  0  0
   -1.4457   -0.8482   -0.3199 O   0  0  0  0  0  0  0  0  0  0  0  0
   -1.9060   -2.6682    1.2413 C   0  0  0  0  0  0  0  0  0  0  0  0
   -2.4319   -2.4370    2.3306 O   0  0  0  0  0  0  0  0  0  0  0  0
   -0.8414   -3.7452    1.2319 C   0  0  0  0  0  0  0  0  0  0  0  0
   -1.1355   -4.8047    0.6859 O   0  0  0  0  0  0  0  0  0  0  0  0
    0.3747   -3.5292    1.9266 N   0  0  0  0  0  0  0  0  0  0  0  0
    1.1271   -4.7635    2.1869 C   0  0  0  0  0  0  0  0  0  0  0  0
    2.2470   -4.9912    1.1572 C   0  0  0  0  0  0  0  0  0  0  0  0
    2.0361   -4.2090   -0.1403 C   0  0  0  0  0  0  0  0  0  0  0  0
    1.8067   -2.7085    0.1218 C   0  0  0  0  0  0  0  0  0  0  0  0
    1.2813   -2.4217    1.5434 C   0  0  1  0  0  0  0  0  0  0  0  0
    0.8779   -0.9448    1.7368 C   0  0  0  0  0  0  0  0  0  0  0  0
   -0.2671   -0.5304    1.8815 O   0  0  0  0  0  0  0  0  0  0  0  0
    1.9655   -0.1222    1.7207 O   0  0  0  0  0  0  0  0  0  0  0  0
    2.0843    0.6932    0.5398 C   0  0  2  0  0  0  0  0  0  0  0  0
    3.4464    0.3824   -0.1211 C   0  0  0  0  0  0  0  0  0  0  0  0
    3.4667    0.5819   -1.6111 C   0  0  0  0  0  0  0  0  0  0  0  0
    4.4971   -0.0563    0.6078 C   0  0  0  0  0  0  0  0  0  0  0  0
    5.9294   -0.3824    0.2511 C   0  0  2  0  0  0  0  0  0  0  0  0
    6.6251    0.5483   -0.7534 C   0  0  0  0  0  0  0  0  0  0  0  0
    8.1053    0.1878   -0.8651 C   0  0  0  0  0  0  0  0  0  0  0  0
    8.3231   -1.2826   -1.2393 C   0  0  1  0  0  0  0  0  0  0  0  0
    9.7312   -1.5273   -1.1446 O   0  0  0  0  0  0  0  0  0  0  0  0
    7.5507   -2.2515   -0.3133 C   0  0  2  0  0  0  0  0  0  0  0  0
    7.5364   -3.5911   -0.8372 O   0  0  0  0  0  0  0  0  0  0  0  0
    8.7320   -4.3166   -0.5679 C   0  0  0  0  0  0  0  0  0  0  0  0
    6.0764   -1.8419   -0.1794 C   0  0  0  0  0  0  0  0  0  0  0  0
    1.9401    2.2171    0.8143 C   0  0  2  0  0  0  0  0  0  0  0  0
    3.0686    2.7727    1.7055 C   0  0  0  0  0  0  0  0  0  0  0  0
    0.5486    2.5858    1.3890 C   0  0  1  0  0  0  0  0  0  0  0  0
    0.6028    2.5450    2.8098 O   0  0  0  0  0  0  0  0  0  0  0  0
    0.1243    3.9802    0.8935 C   0  0  0  0  0  0  0  0  0  0  0  0
   -1.2388    4.3682    1.4276 C   0  0  0  0  0  0  0  0  0  0  0  0
   -1.4416    4.3309    2.6429 O   0  0  0  0  0  0  0  0  0  0  0  0
   -2.1991   -2.8876   -1.3748 C   0  0  2  0  0  0  0  0  0  0  0  0
   -1.7157   -2.1835   -2.6579 C   0  0  0  0  0  0  0  0  0  0  0  0
   -3.5364   -3.5999   -1.5985 C   0  0  0  0  0  0  0  0  0  0  0  0
   -4.7159   -2.6218   -1.7351 C   0  0  2  0  0  0  0  0  0  0  0  0
   -5.0055   -2.3523   -3.1131 O   0  0  0  0  0  0  0  0  0  0  0  0
   -5.7888   -3.3689   -3.7325 C   0  0  0  0  0  0  0  0  0  0  0  0
   -0.0764    0.3904    0.0000 O   0  0  0  0  0  0  0  0  0  0  0  0
   -3.1156    8.4689   -0.5028 H   0  0  0  0  0  0  0  0  0  0  0  0
   -1.9963    9.2709    0.7410 H   0  0  0  0  0  0  0  0  0  0  0  0
   -0.7500    7.2194    1.0031 H   0  0  0  0  0  0  0  0  0  0  0  0
   -2.6959    6.1791   -1.1891 H   0  0  0  0  0  0  0  0  0  0  0  0
   -1.0144    5.7259   -1.0441 H   0  0  0  0  0  0  0  0  0  0  0  0
   -2.4193    3.9052   -0.2572 H   0  0  0  0  0  0  0  0  0  0  0  0
   -3.5676    5.7539    1.9262 H   0  0  0  0  0  0  0  0  0  0  0  0
   -6.8279    5.1420    1.1961 H   0  0  0  0  0  0  0  0  0  0  0  0
   -6.3588    3.8649    2.3512 H   0  0  0  0  0  0  0  0  0  0  0  0
   -5.7499    5.5181    2.5509 H   0  0  0  0  0  0  0  0  0  0  0  0
   -4.3774    3.4571   -0.9600 H   0  0  0  0  0  0  0  0  0  0  0  0
   -6.0651    3.6388   -0.6168 H   0  0  0  0  0  0  0  0  0  0  0  0
   -5.9517    1.8341    1.1068 H   0  0  0  0  0  0  0  0  0  0  0  0
   -3.0677    1.3553    0.2189 H   0  0  0  0  0  0  0  0  0  0  0  0
   -3.5106    2.1687    1.7284 H   0  0  0  0  0  0  0  0  0  0  0  0
   -3.9818    0.5107    1.4931 H   0  0  0  0  0  0  0  0  0  0  0  0
   -4.9673    1.2411   -1.7350 H   0  0  0  0  0  0  0  0  0  0  0  0
   -6.6043    1.3845   -1.1521 H   0  0  0  0  0  0  0  0  0  0  0  0
   -6.5012   -0.8047   -1.4086 H   0  0  0  0  0  0  0  0  0  0  0  0
   -7.3818   -2.4061    0.1178 H   0  0  0  0  0  0  0  0  0  0  0  0
   -5.8367   -2.7326    0.9808 H   0  0  0  0  0  0  0  0  0  0  0  0
   -7.2226   -2.0624    1.8490 H   0  0  0  0  0  0  0  0  0  0  0  0
   -3.8684   -0.6317   -1.7359 H   0  0  0  0  0  0  0  0  0  0  0  0
   -1.4386   -0.4086    0.5652 H   0  0  0  0  0  0  0  0  0  0  0  0
    0.4562   -5.6283    2.2228 H   0  0  0  0  0  0  0  0  0  0  0  0
    1.5706   -4.6716    3.1874 H   0  0  0  0  0  0  0  0  0  0  0  0
    2.3488   -6.0613    0.9505 H   0  0  0  0  0  0  0  0  0  0  0  0
    3.2027   -4.6782    1.5986 H   0  0  0  0  0  0  0  0  0  0  0  0
    1.1775   -4.6222   -0.6771 H   0  0  0  0  0  0  0  0  0  0  0  0
    2.9006   -4.3373   -0.8021 H   0  0  0  0  0  0  0  0  0  0  0  0
    1.1193   -2.3101   -0.6346 H   0  0  0  0  0  0  0  0  0  0  0  0
    2.7583   -2.1946   -0.0237 H   0  0  0  0  0  0  0  0  0  0  0  0
    2.1247   -2.5181    2.2469 H   0  0  0  0  0  0  0  0  0  0  0  0
    1.2969    0.3984   -0.1684 H   0  0  0  0  0  0  0  0  0  0  0  0
    2.5012    0.3165   -2.0503 H   0  0  0  0  0  0  0  0  0  0  0  0
    4.1976   -0.0549   -2.1076 H   0  0  0  0  0  0  0  0  0  0  0  0
    3.6718    1.6296   -1.8472 H   0  0  0  0  0  0  0  0  0  0  0  0
    4.3313   -0.1840    1.6812 H   0  0  0  0  0  0  0  0  0  0  0  0
    6.4842   -0.2649    1.1963 H   0  0  0  0  0  0  0  0  0  0  0  0
    6.1872    0.4634   -1.7521 H   0  0  0  0  0  0  0  0  0  0  0  0
    6.5266    1.5945   -0.4401 H   0  0  0  0  0  0  0  0  0  0  0  0
    8.6097    0.4040    0.0859 H   0  0  0  0  0  0  0  0  0  0  0  0
    8.5897    0.8300   -1.6084 H   0  0  0  0  0  0  0  0  0  0  0  0
    8.0267   -1.4644   -2.2810 H   0  0  0  0  0  0  0  0  0  0  0  0
   10.1421   -1.1489   -1.9412 H   0  0  0  0  0  0  0  0  0  0  0  0
    8.0093   -2.2605    0.6846 H   0  0  0  0  0  0  0  0  0  0  0  0
    8.5660   -5.3602   -0.8513 H   0  0  0  0  0  0  0  0  0  0  0  0
    9.5653   -3.9427   -1.1668 H   0  0  0  0  0  0  0  0  0  0  0  0
    8.9786   -4.2887    0.4981 H   0  0  0  0  0  0  0  0  0  0  0  0
    5.5572   -2.0176   -1.1326 H   0  0  0  0  0  0  0  0  0  0  0  0
    5.5910   -2.5093    0.5444 H   0  0  0  0  0  0  0  0  0  0  0  0
    2.0318    2.7066   -0.1644 H   0  0  0  0  0  0  0  0  0  0  0  0
    4.0381    2.7083    1.2029 H   0  0  0  0  0  0  0  0  0  0  0  0
    2.9031    3.8305    1.9333 H   0  0  0  0  0  0  0  0  0  0  0  0
    3.1414    2.2271    2.6559 H   0  0  0  0  0  0  0  0  0  0  0  0
   -0.2096    1.8684    1.0552 H   0  0  0  0  0  0  0  0  0  0  0  0
   -0.2390    2.9063    3.1602 H   0  0  0  0  0  0  0  0  0  0  0  0
    0.8287    4.7605    1.1995 H   0  0  0  0  0  0  0  0  0  0  0  0
    0.0912    3.9658   -0.2029 H   0  0  0  0  0  0  0  0  0  0  0  0
   -1.4369   -3.6561   -1.2320 H   0  0  0  0  0  0  0  0  0  0  0  0
   -1.7055   -2.8887   -3.4967 H   0  0  0  0  0  0  0  0  0  0  0  0
   -0.6916   -1.8205   -2.5359 H   0  0  0  0  0  0  0  0  0  0  0  0
   -2.3389   -1.3365   -2.9503 H   0  0  0  0  0  0  0  0  0  0  0  0
   -3.7259   -4.2447   -0.7286 H   0  0  0  0  0  0  0  0  0  0  0  0
   -3.4571   -4.2675   -2.4650 H   0  0  0  0  0  0  0  0  0  0  0  0
   -5.5933   -3.0942   -1.2822 H   0  0  0  0  0  0  0  0  0  0  0  0
   -5.2394   -4.3139   -3.7781 H   0  0  0  0  0  0  0  0  0  0  0  0
   -6.0159   -3.0527   -4.7530 H   0  0  0  0  0  0  0  0  0  0  0  0
   -6.7291   -3.5076   -3.1941 H   0  0  0  0  0  0  0  0  0  0  0  0
    0.7869   -0.0493    0.0000 H   0  0  0  0  0  0  0  0  0  0  0  0
   -0.7105   -0.3411    0.0000 H   0  0  0  0  0  0  0  0  0  0  0  0
  1  2  2  3
  2  3  1  0
  3  4  1  0
  4  5  1  0
  5  6  2  0
  6  7  1  0
  6  8  1  0
  8  9  1  0
  9 10  1  0
  9 11  1  0
 11 12  1  0
 12 13  1  0
 13 14  1  0
 12 15  1  0
 15 16  1  0
 16 17  1  0
 17 18  1  6
 17 19  1  0
 19 20  2  0
 19 21  1  0
 21 22  2  0
 21 23  1  0
 23 24  1  0
 24 25  1  0
 25 26  1  0
 26 27  1  0
 27 28  1  0
 28 29  1  0
 29 30  2  0
 29 31  1  0
 31 32  1  0
 32 33  1  0
 33 34  1  0
 33 35  2  0
 35 36  1  0
 36 37  1  0
 37 38  1  0
 38 39  1  0
 39 40  1  0
 39 41  1  0
 41 42  1  0
 42 43  1  0
 41 44  1  0
 32 45  1  0
 45 46  1  0
 45 47  1  0
 47 48  1  0
 47 49  1  0
 49 50  1  0
 50 51  2  0
 17 52  1  0
 52 53  1  0
 52 54  1  0
 54 55  1  0
 55 56  1  0
 56 57  1  0
 50  4  1  0
 55 15  1  0
 28 23  1  0
 44 36  1  0
  1 59  1  0
  1 60  1  0
  2 61  1  0
  3 62  1  0
  3 63  1  0
  4 64  1  6
  5 65  1  0
  7 66  1  0
  7 67  1  0
  7 68  1  0
  8 69  1  0
  8 70  1  0
  9 71  1  1
 10 72  1  0
 10 73  1  0
 10 74  1  0
 11 75  1  0
 11 76  1  0
 12 77  1  6
 14 78  1  0
 14 79  1  0
 14 80  1  0
 15 81  1  6
 18 82  1  0
 24 83  1  0
 24 84  1  0
 25 85  1  0
 25 86  1  0
 26 87  1  0
 26 88  1  0
 27 89  1  0
 27 90  1  0
 28 91  1  1
 32 92  1  6
 34 93  1  0
 34 94  1  0
 34 95  1  0
 35 96  1  0
 36 97  1  1
 37 98  1  0
 37 99  1  0
 38100  1  0
 38101  1  0
 39102  1  6
 40103  1  0
 41104  1  1
 43105  1  0
 43106  1  0
 43107  1  0
 44108  1  0
 44109  1  0
 45110  1  6
 46111  1  0
 46112  1  0
 46113  1  0
 47114  1  6
 48115  1  0
 49116  1  0
 49117  1  0
 52118  1  1
 53119  1  0
 53120  1  0
 53121  1  0
 54122  1  0
 54123  1  0
 55124  1  1
 57125  1  0
 57126  1  0
 57127  1  0
 58128  1  0
 58129  1  0
M  END
$$$$
