
     RDKit          3D

 50 52  0  0  0  0  0  0  0  0999 V2000
   -3.6569    3.3457    0.0258 C   0  0  0  0  0  0  0  0  0  0  0  0
   -2.4226    2.5078    0.2539 C   0  0  0  0  0  0  0  0  0  0  0  0
   -1.4481    3.0219    0.8031 O   0  0  0  0  0  0  0  0  0  0  0  0
   -2.4417    1.1763   -0.1746 N   0  0  0  0  0  0  0  0  0  0  0  0
   -3.6210    0.5572   -0.8377 C   0  0  0  0  0  0  0  0  0  0  0  0
   -4.4936   -0.2231    0.1524 C   0  0  0  0  0  0  0  0  0  0  0  0
   -4.0701   -1.6761    0.3413 C   0  0  0  0  0  0  0  0  0  0  0  0
   -3.4102   -2.2516   -0.7830 O   0  0  0  0  0  0  0  0  0  0  0  0
   -3.8005   -1.6812   -2.0239 C   0  0  0  0  0  0  0  0  0  0  0  0
   -3.2928   -0.2491   -2.1085 C   0  0  0  0  0  0  0  0  0  0  0  0
   -1.2772    0.3218    0.1295 C   0  0  0  0  0  0  0  0  0  0  0  0
   -0.9186    0.1735    1.6151 C   0  0  0  0  0  0  0  0  0  0  0  0
    0.4918   -0.4058    1.5669 C   0  0  0  0  0  0  0  0  0  0  0  0
    1.0628    0.0744    0.3173 N   0  0  0  0  0  0  0  0  0  0  0  0
    2.3624   -0.0741   -0.1245 C   0  0  0  0  0  0  0  0  0  0  0  0
    2.7130    0.3360   -1.2312 O   0  0  0  0  0  0  0  0  0  0  0  0
    3.3065   -0.8189    0.8132 C   0  0  0  0  0  0  0  0  0  0  0  0
    4.7610   -0.7504    0.4020 C   0  0  0  0  0  0  0  0  0  0  0  0
    5.3314   -1.8353   -0.2866 C   0  0  0  0  0  0  0  0  0  0  0  0
    6.6664   -1.8011   -0.6945 C   0  0  0  0  0  0  0  0  0  0  0  0
    7.4496   -0.6819   -0.4268 C   0  0  0  0  0  0  0  0  0  0  0  0
    6.8969    0.4062    0.2471 C   0  0  0  0  0  0  0  0  0  0  0  0
    5.5605    0.3756    0.6574 C   0  0  0  0  0  0  0  0  0  0  0  0
    4.9468    1.7576    1.4945 Cl  0  0  0  0  0  0  0  0  0  0  0  0
    0.0599    0.7457   -0.4986 C   0  0  0  0  0  0  0  0  0  0  0  0
   -3.7922    3.5341   -1.0421 H   0  0  0  0  0  0  0  0  0  0  0  0
   -3.5333    4.3107    0.5276 H   0  0  0  0  0  0  0  0  0  0  0  0
   -4.5382    2.8631    0.4550 H   0  0  0  0  0  0  0  0  0  0  0  0
   -4.2484    1.3797   -1.1921 H   0  0  0  0  0  0  0  0  0  0  0  0
   -5.5164   -0.2333   -0.2499 H   0  0  0  0  0  0  0  0  0  0  0  0
   -4.5640    0.2804    1.1236 H   0  0  0  0  0  0  0  0  0  0  0  0
   -4.9443   -2.2920    0.5808 H   0  0  0  0  0  0  0  0  0  0  0  0
   -3.3868   -1.7636    1.1914 H   0  0  0  0  0  0  0  0  0  0  0  0
   -4.8899   -1.7366   -2.1358 H   0  0  0  0  0  0  0  0  0  0  0  0
   -3.3600   -2.2789   -2.8283 H   0  0  0  0  0  0  0  0  0  0  0  0
   -3.7463    0.2337   -2.9831 H   0  0  0  0  0  0  0  0  0  0  0  0
   -2.2153   -0.2543   -2.3049 H   0  0  0  0  0  0  0  0  0  0  0  0
   -1.4884   -0.6894   -0.2330 H   0  0  0  0  0  0  0  0  0  0  0  0
   -0.8967    1.1335    2.1391 H   0  0  0  0  0  0  0  0  0  0  0  0
   -1.6131   -0.4738    2.1580 H   0  0  0  0  0  0  0  0  0  0  0  0
    0.4737   -1.5004    1.5305 H   0  0  0  0  0  0  0  0  0  0  0  0
    1.0947   -0.0870    2.4214 H   0  0  0  0  0  0  0  0  0  0  0  0
    3.2097   -0.4356    1.8340 H   0  0  0  0  0  0  0  0  0  0  0  0
    2.9823   -1.8669    0.8454 H   0  0  0  0  0  0  0  0  0  0  0  0
    4.7330   -2.7135   -0.5207 H   0  0  0  0  0  0  0  0  0  0  0  0
    7.0916   -2.6466   -1.2297 H   0  0  0  0  0  0  0  0  0  0  0  0
    8.4870   -0.6521   -0.7492 H   0  0  0  0  0  0  0  0  0  0  0  0
    7.5111    1.2805    0.4459 H   0  0  0  0  0  0  0  0  0  0  0  0
    0.2555    1.8204   -0.4465 H   0  0  0  0  0  0  0  0  0  0  0  0
    0.1390    0.4363   -1.5460 H   0  0  0  0  0  0  0  0  0  0  0  0
  1  2  1  0
  2  3  2  0
  2  4  1  0
  4  5  1  0
  5  6  1  0
  6  7  1  0
  7  8  1  0
  8  9  1  0
  9 10  1  0
  4 11  1  0
 11 12  1  0
 12 13  1  0
 13 14  1  0
 14 15  1  0
 15 16  2  0
 15 17  1  0
 17 18  1  0
 18 19  2  0
 19 20  1  0
 20 21  2  0
 21 22  1  0
 22 23  2  0
 23 24  1  0
 14 25  1  0
 10  5  1  0
 25 11  1  0
 23 18  1  0
  1 26  1  0
  1 27  1  0
  1 28  1  0
  5 29  1  0
  6 30  1  0
  6 31  1  0
  7 32  1  0
  7 33  1  0
  9 34  1  0
  9 35  1  0
 10 36  1  0
 10 37  1  0
 11 38  1  0
 12 39  1  0
 12 40  1  0
 13 41  1  0
 13 42  1  0
 17 43  1  0
 17 44  1  0
 19 45  1  0
 20 46  1  0
 21 47  1  0
 22 48  1  0
 25 49  1  0
 25 50  1  0
M  END
$$$$
