
     RDKit          3D

 31 33  0  0  0  0  0  0  0  0999 V2000
   -5.0091    0.4709   -0.2205 C   0  0  0  0  0  0  0  0  0  0  0  0
   -3.5337    0.2274   -0.0995 C   0  0  0  0  0  0  0  0  0  0  0  0
   -3.0460   -1.0499    0.2056 C   0  0  0  0  0  0  0  0  0  0  0  0
   -1.6648   -1.2975    0.2912 C   0  0  0  0  0  0  0  0  0  0  0  0
   -1.1695   -2.6765    0.6275 C   0  0  0  0  0  0  0  0  0  0  0  0
   -0.7573   -0.2514    0.0558 C   0  0  0  0  0  0  0  0  0  0  0  0
    0.6164   -0.4841    0.1364 N   0  0  0  0  0  0  0  0  0  0  0  0
    1.4072    0.5104   -0.0940 C   0  0  0  0  0  0  0  0  0  0  0  0
    2.8862    0.3892   -0.0387 C   0  0  0  0  0  0  0  0  0  0  0  0
    3.7292    1.4738   -0.2908 C   0  0  0  0  0  0  0  0  0  0  0  0
    5.0956    1.2676   -0.2165 C   0  0  0  0  0  0  0  0  0  0  0  0
    5.6595    0.0793    0.0854 N   0  0  0  0  0  0  0  0  0  0  0  0
    4.8242   -0.9532    0.3249 C   0  0  0  0  0  0  0  0  0  0  0  0
    3.4461   -0.8510    0.2760 C   0  0  0  0  0  0  0  0  0  0  0  0
    1.0395    1.7691   -0.4096 O   0  0  0  0  0  0  0  0  0  0  0  0
   -0.2737    2.0794   -0.5085 C   0  0  0  0  0  0  0  0  0  0  0  0
   -0.6430    3.2128   -0.7945 O   0  0  0  0  0  0  0  0  0  0  0  0
   -1.2465    1.0085   -0.2605 C   0  0  0  0  0  0  0  0  0  0  0  0
   -2.6221    1.2573   -0.3457 C   0  0  0  0  0  0  0  0  0  0  0  0
   -5.3375    0.2753   -1.2459 H   0  0  0  0  0  0  0  0  0  0  0  0
   -5.5688   -0.1780    0.4612 H   0  0  0  0  0  0  0  0  0  0  0  0
   -5.2570    1.5054    0.0395 H   0  0  0  0  0  0  0  0  0  0  0  0
   -3.7497   -1.8628    0.3800 H   0  0  0  0  0  0  0  0  0  0  0  0
   -0.5715   -2.6524    1.5443 H   0  0  0  0  0  0  0  0  0  0  0  0
   -1.9990   -3.3723    0.7920 H   0  0  0  0  0  0  0  0  0  0  0  0
   -0.5623   -3.0721   -0.1932 H   0  0  0  0  0  0  0  0  0  0  0  0
    3.3508    2.4591   -0.5396 H   0  0  0  0  0  0  0  0  0  0  0  0
    5.7955    2.0776   -0.4036 H   0  0  0  0  0  0  0  0  0  0  0  0
    5.3086   -1.8956    0.5650 H   0  0  0  0  0  0  0  0  0  0  0  0
    2.8293   -1.7202    0.4791 H   0  0  0  0  0  0  0  0  0  0  0  0
   -2.9766    2.2541   -0.6030 H   0  0  0  0  0  0  0  0  0  0  0  0
  1  2  1  0
  2  3  2  0
  3  4  1  0
  4  5  1  0
  4  6  2  0
  6  7  1  0
  7  8  2  0
  8  9  1  0
  9 10  2  0
 10 11  1  0
 11 12  2  0
 12 13  1  0
 13 14  2  0
  8 15  1  0
 15 16  1  0
 16 17  2  0
 16 18  1  0
 18 19  2  0
 19  2  1  0
 18  6  1  0
 14  9  1  0
  1 20  1  0
  1 21  1  0
  1 22  1  0
  3 23  1  0
  5 24  1  0
  5 25  1  0
  5 26  1  0
 10 27  1  0
 11 28  1  0
 13 29  1  0
 14 30  1  0
 19 31  1  0
M  END
$$$$
