
     RDKit          3D

 42 45  0  0  0  0  0  0  0  0999 V2000
    2.8145    5.3543    0.9288 Cl  0  0  0  0  0  0  0  0  0  0  0  0
    2.6302    3.6774    0.5292 C   0  0  0  0  0  0  0  0  0  0  0  0
    2.4122    3.3795   -0.8198 C   0  0  0  0  0  0  0  0  0  0  0  0
    2.2395    2.0614   -1.2251 C   0  0  0  0  0  0  0  0  0  0  0  0
    2.2901    1.0353   -0.2839 C   0  0  0  0  0  0  0  0  0  0  0  0
    2.5108    1.3173    1.0800 C   0  0  0  0  0  0  0  0  0  0  0  0
    2.5992    0.2241    1.9821 N   0  0  0  0  0  0  0  0  0  0  0  0
    3.4570    0.2111    3.0280 N   0  0  0  0  0  0  0  0  0  0  0  0
    3.4100   -1.0103    3.5353 N   0  0  0  0  0  0  0  0  0  0  0  0
    2.5134   -1.7904    2.8610 N   0  0  0  0  0  0  0  0  0  0  0  0
    1.9749   -1.0310    1.9299 C   0  0  0  0  0  0  0  0  0  0  0  0
    0.9410   -1.3344    1.0913 N   0  0  0  0  0  0  0  0  0  0  0  0
    0.1486   -2.5137    1.4195 C   0  0  0  0  0  0  0  0  0  0  0  0
   -0.8503   -2.7921    0.3183 C   0  0  0  0  0  0  0  0  0  0  0  0
   -0.7275   -3.9549   -0.4592 C   0  0  0  0  0  0  0  0  0  0  0  0
   -1.6711   -4.2589   -1.4434 C   0  0  0  0  0  0  0  0  0  0  0  0
   -2.7576   -3.4124   -1.6580 C   0  0  0  0  0  0  0  0  0  0  0  0
   -2.8909   -2.2486   -0.9040 C   0  0  0  0  0  0  0  0  0  0  0  0
   -1.9254   -1.9251    0.0567 C   0  0  0  0  0  0  0  0  0  0  0  0
   -2.0414   -0.7804    0.8119 O   0  0  0  0  0  0  0  0  0  0  0  0
   -2.1410    0.4282    0.1520 C   0  0  0  0  0  0  0  0  0  0  0  0
   -1.5091    0.6882   -1.0610 C   0  0  0  0  0  0  0  0  0  0  0  0
   -1.6107    1.9656   -1.6067 C   0  0  0  0  0  0  0  0  0  0  0  0
   -2.3205    2.9443   -0.9203 C   0  0  0  0  0  0  0  0  0  0  0  0
   -2.8984    2.6035    0.2902 C   0  0  0  0  0  0  0  0  0  0  0  0
   -2.8137    1.3734    0.8421 N   0  0  0  0  0  0  0  0  0  0  0  0
    2.6778    2.6538    1.4960 C   0  0  0  0  0  0  0  0  0  0  0  0
    2.8054    3.0968    3.1724 Cl  0  0  0  0  0  0  0  0  0  0  0  0
    2.3738    4.1769   -1.5578 H   0  0  0  0  0  0  0  0  0  0  0  0
    2.0822    1.8298   -2.2764 H   0  0  0  0  0  0  0  0  0  0  0  0
    2.2033    0.0111   -0.6479 H   0  0  0  0  0  0  0  0  0  0  0  0
    0.3417   -0.5551    0.8303 H   0  0  0  0  0  0  0  0  0  0  0  0
   -0.3893   -2.3681    2.3644 H   0  0  0  0  0  0  0  0  0  0  0  0
    0.8025   -3.3848    1.5510 H   0  0  0  0  0  0  0  0  0  0  0  0
    0.1009   -4.6418   -0.2940 H   0  0  0  0  0  0  0  0  0  0  0  0
   -1.5675   -5.1681   -2.0309 H   0  0  0  0  0  0  0  0  0  0  0  0
   -3.5035   -3.6626   -2.4082 H   0  0  0  0  0  0  0  0  0  0  0  0
   -3.7497   -1.6006   -1.0634 H   0  0  0  0  0  0  0  0  0  0  0  0
   -0.9404   -0.0735   -1.5816 H   0  0  0  0  0  0  0  0  0  0  0  0
   -1.1379    2.1943   -2.5585 H   0  0  0  0  0  0  0  0  0  0  0  0
   -2.4201    3.9489   -1.3163 H   0  0  0  0  0  0  0  0  0  0  0  0
   -3.4627    3.3319    0.8687 H   0  0  0  0  0  0  0  0  0  0  0  0
  1  2  1  0
  2  3  2  0
  3  4  1  0
  4  5  2  0
  5  6  1  0
  6  7  1  0
  7  8  1  0
  8  9  2  0
  9 10  1  0
 10 11  2  0
 11 12  1  0
 12 13  1  0
 13 14  1  0
 14 15  2  0
 15 16  1  0
 16 17  2  0
 17 18  1  0
 18 19  2  0
 19 20  1  0
 20 21  1  0
 21 22  2  0
 22 23  1  0
 23 24  2  0
 24 25  1  0
 25 26  2  0
  6 27  2  0
 27 28  1  0
 27  2  1  0
 11  7  1  0
 19 14  1  0
 26 21  1  0
  3 29  1  0
  4 30  1  0
  5 31  1  0
 12 32  1  0
 13 33  1  0
 13 34  1  0
 15 35  1  0
 16 36  1  0
 17 37  1  0
 18 38  1  0
 22 39  1  0
 23 40  1  0
 24 41  1  0
 25 42  1  0
M  END
$$$$
