
     RDKit          3D

 45 47  0  0  0  0  0  0  0  0999 V2000
   -6.1213   -0.0905   -0.3543 C   0  0  0  0  0  0  0  0  0  0  0  0
   -5.2152   -1.0330   -1.1272 C   0  0  0  0  0  0  0  0  0  0  0  0
   -3.8421   -0.5719   -1.1529 N   0  0  0  0  0  0  0  0  0  0  0  0
   -3.0186   -0.7435   -0.0621 C   0  0  0  0  0  0  0  0  0  0  0  0
   -3.4136   -1.2325    0.9884 O   0  0  0  0  0  0  0  0  0  0  0  0
   -1.7092   -0.3319   -0.3032 N   0  0  0  0  0  0  0  0  0  0  0  0
   -1.5127    0.9445   -1.0145 C   0  0  0  0  0  0  0  0  0  0  0  0
   -0.7645    1.9897   -0.1760 C   0  0  0  0  0  0  0  0  0  0  0  0
   -0.9612    1.7806    1.3220 C   0  0  0  0  0  0  0  0  0  0  0  0
   -0.6318    0.3536    1.7969 C   0  0  0  0  0  0  0  0  0  0  0  0
   -0.6215   -0.7001    0.6564 C   0  0  0  0  0  0  0  0  0  0  0  0
   -0.7611   -2.1178    1.2719 C   0  0  0  0  0  0  0  0  0  0  0  0
    0.7160   -0.7220   -0.0977 C   0  0  0  0  0  0  0  0  0  0  0  0
    0.8795   -1.3615   -1.2690 N   0  0  0  0  0  0  0  0  0  0  0  0
    2.2225   -1.1453   -1.5726 O   0  0  0  0  0  0  0  0  0  0  0  0
    2.7439   -0.4032   -0.5512 C   0  0  0  0  0  0  0  0  0  0  0  0
    4.1543   -0.0420   -0.6385 C   0  0  0  0  0  0  0  0  0  0  0  0
    4.9611   -0.4406   -1.7183 C   0  0  0  0  0  0  0  0  0  0  0  0
    6.3100   -0.0763   -1.7720 C   0  0  0  0  0  0  0  0  0  0  0  0
    6.8570    0.6868   -0.7481 C   0  0  0  0  0  0  0  0  0  0  0  0
    8.1488    1.0348   -0.8017 F   0  0  0  0  0  0  0  0  0  0  0  0
    6.0819    1.0932    0.3301 C   0  0  0  0  0  0  0  0  0  0  0  0
    4.7338    0.7294    0.3844 C   0  0  0  0  0  0  0  0  0  0  0  0
    1.8597   -0.1191    0.3797 N   0  0  0  0  0  0  0  0  0  0  0  0
   -7.1561   -0.4449   -0.3884 H   0  0  0  0  0  0  0  0  0  0  0  0
   -5.8217   -0.0162    0.6958 H   0  0  0  0  0  0  0  0  0  0  0  0
   -6.0893    0.9176   -0.7809 H   0  0  0  0  0  0  0  0  0  0  0  0
   -5.2482   -2.0389   -0.6950 H   0  0  0  0  0  0  0  0  0  0  0  0
   -5.5525   -1.0967   -2.1668 H   0  0  0  0  0  0  0  0  0  0  0  0
   -3.3510   -0.6687   -2.0306 H   0  0  0  0  0  0  0  0  0  0  0  0
   -0.9657    0.7400   -1.9414 H   0  0  0  0  0  0  0  0  0  0  0  0
   -2.4764    1.3772   -1.3039 H   0  0  0  0  0  0  0  0  0  0  0  0
    0.3054    1.9589   -0.4104 H   0  0  0  0  0  0  0  0  0  0  0  0
   -1.0954    2.9946   -0.4641 H   0  0  0  0  0  0  0  0  0  0  0  0
   -0.3605    2.5041    1.8852 H   0  0  0  0  0  0  0  0  0  0  0  0
   -2.0091    1.9975    1.5675 H   0  0  0  0  0  0  0  0  0  0  0  0
    0.3238    0.3560    2.3359 H   0  0  0  0  0  0  0  0  0  0  0  0
   -1.3867    0.0863    2.5487 H   0  0  0  0  0  0  0  0  0  0  0  0
    0.1576   -2.4091    1.7970 H   0  0  0  0  0  0  0  0  0  0  0  0
   -1.5653   -2.1862    2.0098 H   0  0  0  0  0  0  0  0  0  0  0  0
   -0.9515   -2.8700    0.4972 H   0  0  0  0  0  0  0  0  0  0  0  0
    4.5513   -1.0395   -2.5297 H   0  0  0  0  0  0  0  0  0  0  0  0
    6.9349   -0.3835   -2.6050 H   0  0  0  0  0  0  0  0  0  0  0  0
    6.5283    1.6884    1.1206 H   0  0  0  0  0  0  0  0  0  0  0  0
    4.1324    1.0514    1.2338 H   0  0  0  0  0  0  0  0  0  0  0  0
  1  2  1  0
  2  3  1  0
  3  4  1  0
  4  5  2  0
  4  6  1  0
  6  7  1  0
  7  8  1  0
  8  9  1  0
  9 10  1  0
 10 11  1  0
 11 12  1  0
 11 13  1  0
 13 14  2  0
 14 15  1  0
 15 16  1  0
 16 17  1  0
 17 18  2  0
 18 19  1  0
 19 20  2  0
 20 21  1  0
 20 22  1  0
 22 23  2  0
 16 24  2  0
 11  6  1  0
 24 13  1  0
 23 17  1  0
  1 25  1  0
  1 26  1  0
  1 27  1  0
  2 28  1  0
  2 29  1  0
  3 30  1  0
  7 31  1  0
  7 32  1  0
  8 33  1  0
  8 34  1  0
  9 35  1  0
  9 36  1  0
 10 37  1  0
 10 38  1  0
 12 39  1  0
 12 40  1  0
 12 41  1  0
 18 42  1  0
 19 43  1  0
 22 44  1  0
 23 45  1  0
M  END
$$$$
