
     RDKit          3D

 44 45  0  0  0  0  0  0  0  0999 V2000
   -3.2691    2.9712    0.7922 C   0  0  0  0  0  0  0  0  0  0  0  0
   -3.5545    1.6570    0.1255 C   0  0  0  0  0  0  0  0  0  0  0  0
   -4.6415    1.5000   -0.6485 C   0  0  0  0  0  0  0  0  0  0  0  0
   -4.9572    0.2200   -1.3154 C   0  0  0  0  0  0  0  0  0  0  0  0
   -5.9534    0.1066   -2.0206 O   0  0  0  0  0  0  0  0  0  0  0  0
   -4.0903   -0.8115   -1.1060 N   0  0  0  0  0  0  0  0  0  0  0  0
   -2.9364   -0.7217   -0.3118 C   0  0  0  0  0  0  0  0  0  0  0  0
   -2.1041   -1.8484   -0.1542 C   0  0  0  0  0  0  0  0  0  0  0  0
   -2.4128   -3.1695   -0.8031 C   0  0  0  0  0  0  0  0  0  0  0  0
   -0.9550   -1.7318    0.6393 C   0  0  0  0  0  0  0  0  0  0  0  0
   -0.6462   -0.5135    1.2481 C   0  0  0  0  0  0  0  0  0  0  0  0
    0.8082   -0.3723    2.2601 S   0  0  0  0  0  6  0  0  0  0  0  0
    1.3072   -1.7027    2.5247 O   0  0  0  0  0  0  0  0  0  0  0  0
    0.5134    0.5620    3.3234 O   0  0  0  0  0  0  0  0  0  0  0  0
    1.8845    0.3977    1.2348 N   0  0  0  0  0  0  0  0  0  0  0  0
    2.2669   -0.2188   -0.0363 C   0  0  0  0  0  0  0  0  0  0  0  0
    3.7209    0.1395   -0.4255 C   0  0  0  0  0  0  0  0  0  0  0  0
    4.7094   -0.3509    0.6466 C   0  0  0  0  0  0  0  0  0  0  0  0
    4.0502   -0.5633   -1.7564 C   0  0  0  0  0  0  0  0  0  0  0  0
    3.8885    1.6563   -0.6212 C   0  0  0  0  0  0  0  0  0  0  0  0
   -1.4832    0.5973    1.1029 C   0  0  0  0  0  0  0  0  0  0  0  0
   -2.6382    0.5083    0.3164 C   0  0  0  0  0  0  0  0  0  0  0  0
   -2.3087    3.3771    0.4571 H   0  0  0  0  0  0  0  0  0  0  0  0
   -4.0343    3.7207    0.5604 H   0  0  0  0  0  0  0  0  0  0  0  0
   -3.2479    2.8586    1.8814 H   0  0  0  0  0  0  0  0  0  0  0  0
   -5.3520    2.2985   -0.8279 H   0  0  0  0  0  0  0  0  0  0  0  0
   -4.3357   -1.6751   -1.5684 H   0  0  0  0  0  0  0  0  0  0  0  0
   -1.6541   -3.9228   -0.5657 H   0  0  0  0  0  0  0  0  0  0  0  0
   -2.4382   -3.0608   -1.8922 H   0  0  0  0  0  0  0  0  0  0  0  0
   -3.3764   -3.5502   -0.4496 H   0  0  0  0  0  0  0  0  0  0  0  0
   -0.3013   -2.5910    0.7845 H   0  0  0  0  0  0  0  0  0  0  0  0
    1.9067    1.4105    1.3320 H   0  0  0  0  0  0  0  0  0  0  0  0
    2.1693   -1.3088    0.0263 H   0  0  0  0  0  0  0  0  0  0  0  0
    1.5752    0.1319   -0.8115 H   0  0  0  0  0  0  0  0  0  0  0  0
    4.5528    0.1577    1.6041 H   0  0  0  0  0  0  0  0  0  0  0  0
    4.6029   -1.4279    0.8182 H   0  0  0  0  0  0  0  0  0  0  0  0
    5.7455   -0.1633    0.3426 H   0  0  0  0  0  0  0  0  0  0  0  0
    5.0743   -0.3438   -2.0792 H   0  0  0  0  0  0  0  0  0  0  0  0
    3.9577   -1.6513   -1.6634 H   0  0  0  0  0  0  0  0  0  0  0  0
    3.3728   -0.2373   -2.5538 H   0  0  0  0  0  0  0  0  0  0  0  0
    3.1685    2.0418   -1.3517 H   0  0  0  0  0  0  0  0  0  0  0  0
    4.8935    1.8970   -0.9864 H   0  0  0  0  0  0  0  0  0  0  0  0
    3.7448    2.2059    0.3149 H   0  0  0  0  0  0  0  0  0  0  0  0
   -1.2226    1.5211    1.6133 H   0  0  0  0  0  0  0  0  0  0  0  0
  1  2  1  0
  2  3  2  0
  3  4  1  0
  4  5  2  0
  4  6  1  0
  6  7  1  0
  7  8  2  0
  8  9  1  0
  8 10  1  0
 10 11  2  0
 11 12  1  0
 12 13  2  0
 12 14  2  0
 12 15  1  0
 15 16  1  0
 16 17  1  0
 17 18  1  0
 17 19  1  0
 17 20  1  0
 11 21  1  0
 21 22  2  0
 22  2  1  0
 22  7  1  0
  1 23  1  0
  1 24  1  0
  1 25  1  0
  3 26  1  0
  6 27  1  0
  9 28  1  0
  9 29  1  0
  9 30  1  0
 10 31  1  0
 15 32  1  0
 16 33  1  0
 16 34  1  0
 18 35  1  0
 18 36  1  0
 18 37  1  0
 19 38  1  0
 19 39  1  0
 19 40  1  0
 20 41  1  0
 20 42  1  0
 20 43  1  0
 21 44  1  0
M  END
$$$$
