
     RDKit          3D

 60 63  0  0  0  0  0  0  0  0999 V2000
   -4.3148    3.4590   -2.2511 C   0  0  0  0  0  0  0  0  0  0  0  0
   -4.8425    2.9687   -1.0251 O   0  0  0  0  0  0  0  0  0  0  0  0
   -4.7064    1.5593   -0.8858 C   0  0  0  0  0  0  0  0  0  0  0  0
   -3.3107    1.0284   -0.4945 C   0  0  0  0  0  0  0  0  0  0  0  0
   -2.3328    1.7779   -0.5612 O   0  0  0  0  0  0  0  0  0  0  0  0
   -3.1737   -0.3168   -0.1113 N   0  0  0  0  0  0  0  0  0  0  0  0
   -4.2829   -1.1945    0.3456 C   0  0  0  0  0  0  0  0  0  0  0  0
   -5.3327   -1.5441   -0.7115 C   0  0  0  0  0  0  0  0  0  0  0  0
   -6.2897   -2.6060   -0.1651 C   0  0  0  0  0  0  0  0  0  0  0  0
   -6.4334   -2.5634    1.2565 O   0  0  0  0  0  0  0  0  0  0  0  0
   -6.3499   -1.2471    1.7929 C   0  0  0  0  0  0  0  0  0  0  0  0
   -4.9212   -0.7301    1.6635 C   0  0  0  0  0  0  0  0  0  0  0  0
   -1.8132   -0.8116    0.1890 C   0  0  0  0  0  0  0  0  0  0  0  0
   -1.1425   -0.1923    1.4178 C   0  0  0  0  0  0  0  0  0  0  0  0
    0.3196   -0.6003    1.2511 C   0  0  0  0  0  0  0  0  0  0  0  0
    0.5172   -0.7716   -0.1833 N   0  0  0  0  0  0  0  0  0  0  0  0
    1.7092   -0.9268   -0.8792 C   0  0  0  0  0  0  0  0  0  0  0  0
    1.7068   -0.9542   -2.1121 O   0  0  0  0  0  0  0  0  0  0  0  0
    2.9810   -1.0712   -0.1499 C   0  0  0  0  0  0  0  0  0  0  0  0
    4.2745   -1.0765   -0.7437 C   0  0  0  0  0  0  0  0  0  0  0  0
    5.1479   -1.2472    0.3014 C   0  0  0  0  0  0  0  0  0  0  0  0
    6.6178   -1.3461    0.4210 C   0  0  0  0  0  0  0  0  0  0  0  0
    7.2550   -0.1295   -0.0614 N   0  0  0  0  0  0  0  0  0  0  0  0
    7.4689    1.0204    0.6479 C   0  0  0  0  0  0  0  0  0  0  0  0
    8.1074    1.8935   -0.2075 C   0  0  0  0  0  0  0  0  0  0  0  0
    8.5537    3.2786    0.0582 C   0  0  0  0  0  0  0  0  0  0  0  0
    8.2399    1.1610   -1.4092 C   0  0  0  0  0  0  0  0  0  0  0  0
    7.7311   -0.0701   -1.3224 N   0  0  0  0  0  0  0  0  0  0  0  0
    4.4370   -1.3555    1.4531 O   0  0  0  0  0  0  0  0  0  0  0  0
    3.0897   -1.2552    1.1777 N   0  0  0  0  0  0  0  0  0  0  0  0
   -0.7430   -0.6522   -0.9032 C   0  0  0  0  0  0  0  0  0  0  0  0
   -4.8498    3.0192   -3.0984 H   0  0  0  0  0  0  0  0  0  0  0  0
   -4.4628    4.5423   -2.2762 H   0  0  0  0  0  0  0  0  0  0  0  0
   -3.2450    3.2570   -2.3394 H   0  0  0  0  0  0  0  0  0  0  0  0
   -5.0074    1.0767   -1.8216 H   0  0  0  0  0  0  0  0  0  0  0  0
   -5.4179    1.2873   -0.1066 H   0  0  0  0  0  0  0  0  0  0  0  0
   -3.8216   -2.1653    0.5745 H   0  0  0  0  0  0  0  0  0  0  0  0
   -4.8693   -1.8920   -1.6416 H   0  0  0  0  0  0  0  0  0  0  0  0
   -5.9371   -0.6748   -0.9775 H   0  0  0  0  0  0  0  0  0  0  0  0
   -5.9204   -3.6059   -0.4162 H   0  0  0  0  0  0  0  0  0  0  0  0
   -7.2790   -2.5029   -0.6241 H   0  0  0  0  0  0  0  0  0  0  0  0
   -7.0641   -0.5924    1.2789 H   0  0  0  0  0  0  0  0  0  0  0  0
   -6.6410   -1.2843    2.8475 H   0  0  0  0  0  0  0  0  0  0  0  0
   -4.3161   -1.1298    2.4885 H   0  0  0  0  0  0  0  0  0  0  0  0
   -4.9079    0.3565    1.7934 H   0  0  0  0  0  0  0  0  0  0  0  0
   -1.8796   -1.8935    0.3683 H   0  0  0  0  0  0  0  0  0  0  0  0
   -1.2206    0.8995    1.4246 H   0  0  0  0  0  0  0  0  0  0  0  0
   -1.5685   -0.5551    2.3585 H   0  0  0  0  0  0  0  0  0  0  0  0
    0.5089   -1.5624    1.7385 H   0  0  0  0  0  0  0  0  0  0  0  0
    0.9942    0.1609    1.6522 H   0  0  0  0  0  0  0  0  0  0  0  0
    4.5188   -0.9608   -1.7908 H   0  0  0  0  0  0  0  0  0  0  0  0
    6.9335   -1.4871    1.4606 H   0  0  0  0  0  0  0  0  0  0  0  0
    7.0035   -2.1861   -0.1670 H   0  0  0  0  0  0  0  0  0  0  0  0
    7.1465    1.1224    1.6754 H   0  0  0  0  0  0  0  0  0  0  0  0
    8.3003    3.5897    1.0770 H   0  0  0  0  0  0  0  0  0  0  0  0
    8.0758    3.9755   -0.6379 H   0  0  0  0  0  0  0  0  0  0  0  0
    9.6387    3.3605   -0.0616 H   0  0  0  0  0  0  0  0  0  0  0  0
    8.6882    1.4769   -2.3431 H   0  0  0  0  0  0  0  0  0  0  0  0
   -0.8239   -1.4316   -1.6686 H   0  0  0  0  0  0  0  0  0  0  0  0
   -0.7435    0.3153   -1.4102 H   0  0  0  0  0  0  0  0  0  0  0  0
  1  2  1  0
  2  3  1  0
  3  4  1  0
  4  5  2  0
  4  6  1  0
  6  7  1  0
  7  8  1  0
  8  9  1  0
  9 10  1  0
 10 11  1  0
 11 12  1  0
  6 13  1  0
 13 14  1  0
 14 15  1  0
 15 16  1  0
 16 17  1  0
 17 18  2  0
 17 19  1  0
 19 20  1  0
 20 21  2  0
 21 22  1  0
 22 23  1  0
 23 24  1  0
 24 25  2  0
 25 26  1  0
 25 27  1  0
 27 28  2  0
 21 29  1  0
 29 30  1  0
 16 31  1  0
 12  7  1  0
 31 13  1  0
 30 19  2  0
 28 23  1  0
  1 32  1  0
  1 33  1  0
  1 34  1  0
  3 35  1  0
  3 36  1  0
  7 37  1  0
  8 38  1  0
  8 39  1  0
  9 40  1  0
  9 41  1  0
 11 42  1  0
 11 43  1  0
 12 44  1  0
 12 45  1  0
 13 46  1  0
 14 47  1  0
 14 48  1  0
 15 49  1  0
 15 50  1  0
 20 51  1  0
 22 52  1  0
 22 53  1  0
 24 54  1  0
 26 55  1  0
 26 56  1  0
 26 57  1  0
 27 58  1  0
 31 59  1  0
 31 60  1  0
M  END
$$$$
