
     RDKit          3D

 38 39  0  0  0  0  0  0  0  0999 V2000
   -4.1082   -1.6220   -1.6248 C   0  0  0  0  0  0  0  0  0  0  0  0
   -2.7494   -1.4721   -1.0928 C   0  0  0  0  0  0  0  0  0  0  0  0
   -1.8991   -2.5199   -1.0741 C   0  0  0  0  0  0  0  0  0  0  0  0
   -0.6383   -2.3652   -0.5761 C   0  0  0  0  0  0  0  0  0  0  0  0
   -0.2261   -1.1453   -0.0914 C   0  0  0  0  0  0  0  0  0  0  0  0
    1.0100   -0.9650    0.4048 N   0  0  0  0  0  0  0  0  0  0  0  0
    1.4461    0.2050    0.8844 C   0  0  0  0  0  0  0  0  0  0  0  0
    2.7361    0.3826    1.4011 N   0  0  0  0  0  0  0  0  0  0  0  0
    3.7424   -0.6318    1.4835 C   0  0  0  0  0  0  0  0  0  0  0  0
    4.0969   -1.1548    0.1101 C   0  0  0  0  0  0  0  0  0  0  0  0
    4.5920   -0.0486   -0.6792 N   0  0  0  0  0  0  0  0  0  0  0  0
    0.5387    1.2465    0.8433 C   0  0  0  0  0  0  0  0  0  0  0  0
    0.7186    2.4908    1.2507 N   0  0  0  0  0  0  0  0  0  0  0  0
   -0.4016    3.1762    1.0347 C   0  0  0  0  0  0  0  0  0  0  0  0
   -1.3503    2.3191    0.4560 C   0  0  0  0  0  0  0  0  0  0  0  0
   -2.7000    2.7546    0.0880 C   0  0  0  0  0  0  0  0  0  0  0  0
   -0.7160    1.1398    0.3607 N   0  0  0  0  0  0  0  0  0  0  0  0
   -1.1207   -0.0553   -0.1145 C   0  0  0  0  0  0  0  0  0  0  0  0
   -2.3807   -0.2065   -0.6112 C   0  0  0  0  0  0  0  0  0  0  0  0
    0.6852    0.0000    0.0000 Cl  0  0  0  0  0  0  0  0  0  0  0  0
   -4.0793   -2.2900   -2.5241 H   0  0  0  0  0  0  0  0  0  0  0  0
   -4.5915   -0.6667   -1.9011 H   0  0  0  0  0  0  0  0  0  0  0  0
   -4.7373   -2.0713   -0.8260 H   0  0  0  0  0  0  0  0  0  0  0  0
   -2.1890   -3.4727   -1.4410 H   0  0  0  0  0  0  0  0  0  0  0  0
    0.0487   -3.1872   -0.5542 H   0  0  0  0  0  0  0  0  0  0  0  0
    3.0192    1.3361    1.7689 H   0  0  0  0  0  0  0  0  0  0  0  0
    3.2862   -1.5131    2.0261 H   0  0  0  0  0  0  0  0  0  0  0  0
    4.6216   -0.3563    2.0665 H   0  0  0  0  0  0  0  0  0  0  0  0
    3.1752   -1.5643   -0.3491 H   0  0  0  0  0  0  0  0  0  0  0  0
    4.8618   -1.9462    0.2544 H   0  0  0  0  0  0  0  0  0  0  0  0
    4.7924    0.7819   -0.1145 H   0  0  0  0  0  0  0  0  0  0  0  0
    3.9552    0.1136   -1.4872 H   0  0  0  0  0  0  0  0  0  0  0  0
   -0.5219    4.2256    1.2800 H   0  0  0  0  0  0  0  0  0  0  0  0
   -2.7970    3.8615    0.3471 H   0  0  0  0  0  0  0  0  0  0  0  0
   -3.5256    2.3104    0.6651 H   0  0  0  0  0  0  0  0  0  0  0  0
   -2.8162    2.7575   -1.0083 H   0  0  0  0  0  0  0  0  0  0  0  0
   -3.0928    0.5650   -0.6558 H   0  0  0  0  0  0  0  0  0  0  0  0
   -0.6852    0.0000    0.0000 H   0  0  0  0  0  0  0  0  0  0  0  0
  1  2  1  0
  2  3  2  0
  3  4  1  0
  4  5  2  0
  5  6  1  0
  6  7  2  0
  7  8  1  0
  8  9  1  0
  9 10  1  0
 10 11  1  0
  7 12  1  0
 12 13  2  0
 13 14  1  0
 14 15  2  0
 15 16  1  0
 15 17  1  0
 17 18  1  0
 18 19  2  0
 19  2  1  0
 18  5  1  0
 17 12  1  0
  1 21  1  0
  1 22  1  0
  1 23  1  0
  3 24  1  0
  4 25  1  0
  8 26  1  0
  9 27  1  0
  9 28  1  0
 10 29  1  0
 10 30  1  0
 11 31  1  0
 11 32  1  0
 14 33  1  0
 16 34  1  0
 16 35  1  0
 16 36  1  0
 19 37  1  0
 20 38  1  0
M  END
$$$$
