
     RDKit          3D

 43 46  0  0  0  0  0  0  0  0999 V2000
    1.2667    3.4376   -1.5000 N   0  0  0  0  0  0  0  0  0  0  0  0
    0.0788    2.7786   -1.2147 C   0  0  0  0  0  0  0  0  0  0  0  0
   -1.0186    3.1550   -1.9019 N   0  0  0  0  0  0  0  0  0  0  0  0
   -2.1805    2.5192   -1.6506 C   0  0  0  0  0  0  0  0  0  0  0  0
   -2.4070    1.5162   -0.7864 N   0  0  0  0  0  0  0  0  0  0  0  0
   -1.2855    1.1685   -0.1315 C   0  0  0  0  0  0  0  0  0  0  0  0
   -0.0375    1.7453   -0.2808 C   0  0  0  0  0  0  0  0  0  0  0  0
    0.7951    1.0564    0.6370 C   0  0  0  0  0  0  0  0  0  0  0  0
    2.2437    1.3079    0.9122 C   0  0  0  0  0  0  0  0  0  0  0  0
    3.0506    1.3367   -0.2778 O   0  0  0  0  0  0  0  0  0  0  0  0
    3.5429    0.1497   -0.7522 C   0  0  0  0  0  0  0  0  0  0  0  0
    4.4944    0.2862   -1.7688 C   0  0  0  0  0  0  0  0  0  0  0  0
    5.0818   -0.8374   -2.3550 C   0  0  0  0  0  0  0  0  0  0  0  0
    4.7120   -2.1111   -1.9319 C   0  0  0  0  0  0  0  0  0  0  0  0
    3.7572   -2.2491   -0.9266 C   0  0  0  0  0  0  0  0  0  0  0  0
    3.2906   -3.8264   -0.4145 Cl  0  0  0  0  0  0  0  0  0  0  0  0
    3.1700   -1.1269   -0.3341 C   0  0  0  0  0  0  0  0  0  0  0  0
    0.1255    0.1005    1.3027 N   0  0  0  0  0  0  0  0  0  0  0  0
   -1.1340    0.1784    0.8041 N   0  0  0  0  0  0  0  0  0  0  0  0
   -2.1437   -0.7429    1.3048 C   0  0  0  0  0  0  0  0  0  0  0  0
   -2.8473   -1.5412    0.2018 C   0  0  0  0  0  0  0  0  0  0  0  0
   -3.8869   -2.4654    0.8171 C   0  0  0  0  0  0  0  0  0  0  0  0
   -4.8085   -1.7243    1.6157 O   0  0  0  0  0  0  0  0  0  0  0  0
   -4.1773   -1.0658    2.7130 C   0  0  0  0  0  0  0  0  0  0  0  0
   -3.1601   -0.0501    2.2154 C   0  0  0  0  0  0  0  0  0  0  0  0
    2.0965    2.8604   -1.3975 H   0  0  0  0  0  0  0  0  0  0  0  0
    1.1880    3.9402   -2.3792 H   0  0  0  0  0  0  0  0  0  0  0  0
   -3.0383    2.8574   -2.2231 H   0  0  0  0  0  0  0  0  0  0  0  0
    2.3288    2.3066    1.3583 H   0  0  0  0  0  0  0  0  0  0  0  0
    2.6592    0.6183    1.6596 H   0  0  0  0  0  0  0  0  0  0  0  0
    4.7868    1.2784   -2.1057 H   0  0  0  0  0  0  0  0  0  0  0  0
    5.8230   -0.7149   -3.1409 H   0  0  0  0  0  0  0  0  0  0  0  0
    5.1660   -2.9889   -2.3893 H   0  0  0  0  0  0  0  0  0  0  0  0
    2.4217   -1.2829    0.4360 H   0  0  0  0  0  0  0  0  0  0  0  0
   -1.5926   -1.4697    1.9207 H   0  0  0  0  0  0  0  0  0  0  0  0
   -2.1226   -2.1186   -0.3833 H   0  0  0  0  0  0  0  0  0  0  0  0
   -3.3581   -0.8629   -0.4906 H   0  0  0  0  0  0  0  0  0  0  0  0
   -4.4575   -2.9634    0.0253 H   0  0  0  0  0  0  0  0  0  0  0  0
   -3.4176   -3.2465    1.4281 H   0  0  0  0  0  0  0  0  0  0  0  0
   -4.9558   -0.5621    3.2947 H   0  0  0  0  0  0  0  0  0  0  0  0
   -3.7092   -1.8133    3.3657 H   0  0  0  0  0  0  0  0  0  0  0  0
   -3.6824    0.7378    1.6598 H   0  0  0  0  0  0  0  0  0  0  0  0
   -2.6584    0.4282    3.0642 H   0  0  0  0  0  0  0  0  0  0  0  0
  1  2  1  0
  2  3  2  0
  3  4  1  0
  4  5  2  0
  5  6  1  0
  6  7  2  0
  7  8  1  0
  8  9  1  0
  9 10  1  0
 10 11  1  0
 11 12  2  0
 12 13  1  0
 13 14  2  0
 14 15  1  0
 15 16  1  0
 15 17  2  0
  8 18  2  0
 18 19  1  0
 19 20  1  0
 20 21  1  0
 21 22  1  0
 22 23  1  0
 23 24  1  0
 24 25  1  0
  7  2  1  0
 17 11  1  0
 25 20  1  0
 19  6  1  0
  1 26  1  0
  1 27  1  0
  4 28  1  0
  9 29  1  0
  9 30  1  0
 12 31  1  0
 13 32  1  0
 14 33  1  0
 17 34  1  0
 20 35  1  0
 21 36  1  0
 21 37  1  0
 22 38  1  0
 22 39  1  0
 24 40  1  0
 24 41  1  0
 25 42  1  0
 25 43  1  0
M  END
$$$$
