
     RDKit          3D

 59 63  0  0  0  0  0  0  0  0999 V2000
    8.5526    3.3822   -1.3574 C   0  0  0  0  0  0  0  0  0  0  0  0
    7.5972    2.5333   -0.6464 C   0  0  0  0  0  0  0  0  0  0  0  0
    6.8116    1.8365   -0.0631 C   0  0  0  0  0  0  0  0  0  0  0  0
    5.8759    1.0086    0.6299 C   0  0  0  0  0  0  0  0  0  0  0  0
    6.3055   -0.0264    1.4479 C   0  0  0  0  0  0  0  0  0  0  0  0
    5.4716   -0.8460    2.1286 N   0  0  0  0  0  0  0  0  0  0  0  0
    4.1441   -0.6112    1.9790 C   0  0  0  0  0  0  0  0  0  0  0  0
    3.5940    0.3970    1.1831 C   0  0  0  0  0  0  0  0  0  0  0  0
    2.1406    0.5867    1.0684 C   0  0  0  0  0  0  0  0  0  0  0  0
    1.5570    1.8553    1.2959 C   0  0  0  0  0  0  0  0  0  0  0  0
    0.1761    2.0572    1.1995 C   0  0  0  0  0  0  0  0  0  0  0  0
   -0.6217    0.9803    0.8612 C   0  0  0  0  0  0  0  0  0  0  0  0
   -0.0715   -0.2826    0.6364 C   0  0  0  0  0  0  0  0  0  0  0  0
    1.2985   -0.4903    0.7381 C   0  0  0  0  0  0  0  0  0  0  0  0
   -1.1577   -1.2904    0.3417 C   0  0  2  0  0  0  0  0  0  0  0  0
   -1.5304   -1.9977    1.5994 N   0  0  0  0  0  0  0  0  0  0  0  0
   -1.2998   -3.2339    1.3089 C   0  0  0  0  0  0  0  0  0  0  0  0
   -1.4757   -4.3905    2.2221 C   0  0  0  0  0  0  0  0  0  0  0  0
   -0.8499   -3.4120   -0.1003 C   0  0  0  0  0  0  0  0  0  0  0  0
   -0.5743   -4.6099   -0.6839 N   0  0  0  0  0  0  0  0  0  0  0  0
   -0.7755   -2.2742   -0.7013 N   0  0  0  0  0  0  0  0  0  0  0  0
   -2.3345   -0.3500   -0.1476 C   0  0  1  0  0  0  0  0  0  0  0  0
   -2.2033   -0.0029   -1.6606 C   0  0  0  0  0  0  0  0  0  0  0  0
   -3.2766    0.9692   -2.1727 C   0  0  0  0  0  0  0  0  0  0  0  0
   -4.6665    0.7392   -1.5621 C   0  0  2  0  0  0  0  0  0  0  0  0
   -4.9309    1.6709   -0.5068 O   0  0  0  0  0  0  0  0  0  0  0  0
   -5.3998    2.9291   -0.9745 C   0  0  0  0  0  0  0  0  0  0  0  0
   -4.7863   -0.6629   -0.9753 C   0  0  0  0  0  0  0  0  0  0  0  0
   -3.7370   -0.9699    0.1018 C   0  0  0  0  0  0  0  0  0  0  0  0
   -2.1145    0.9412    0.7153 C   0  0  0  0  0  0  0  0  0  0  0  0
    4.5029    1.2176    0.4998 C   0  0  0  0  0  0  0  0  0  0  0  0
    8.1406    3.7142   -2.3151 H   0  0  0  0  0  0  0  0  0  0  0  0
    9.4815    2.8396   -1.5573 H   0  0  0  0  0  0  0  0  0  0  0  0
    8.7984    4.2702   -0.7674 H   0  0  0  0  0  0  0  0  0  0  0  0
    7.3631   -0.2347    1.5848 H   0  0  0  0  0  0  0  0  0  0  0  0
    3.5054   -1.2811    2.5507 H   0  0  0  0  0  0  0  0  0  0  0  0
    2.1861    2.7003    1.5706 H   0  0  0  0  0  0  0  0  0  0  0  0
   -0.2546    3.0350    1.3891 H   0  0  0  0  0  0  0  0  0  0  0  0
    1.7024   -1.4810    0.5489 H   0  0  0  0  0  0  0  0  0  0  0  0
   -2.2667   -5.0412    1.8406 H   0  0  0  0  0  0  0  0  0  0  0  0
   -0.5415   -4.9541    2.2879 H   0  0  0  0  0  0  0  0  0  0  0  0
   -1.7521   -4.0423    3.2209 H   0  0  0  0  0  0  0  0  0  0  0  0
   -1.1016   -5.4146   -0.3680 H   0  0  0  0  0  0  0  0  0  0  0  0
   -0.5123   -4.5437   -1.6956 H   0  0  0  0  0  0  0  0  0  0  0  0
   -1.2157    0.4127   -1.8952 H   0  0  0  0  0  0  0  0  0  0  0  0
   -2.2840   -0.9267   -2.2494 H   0  0  0  0  0  0  0  0  0  0  0  0
   -2.9382    1.9974   -2.0061 H   0  0  0  0  0  0  0  0  0  0  0  0
   -3.3410    0.8413   -3.2607 H   0  0  0  0  0  0  0  0  0  0  0  0
   -5.4336    0.8577   -2.3380 H   0  0  0  0  0  0  0  0  0  0  0  0
   -6.3594    2.8101   -1.4867 H   0  0  0  0  0  0  0  0  0  0  0  0
   -4.6743    3.4008   -1.6425 H   0  0  0  0  0  0  0  0  0  0  0  0
   -5.5486    3.5807   -0.1092 H   0  0  0  0  0  0  0  0  0  0  0  0
   -4.6959   -1.3991   -1.7844 H   0  0  0  0  0  0  0  0  0  0  0  0
   -5.7816   -0.8015   -0.5353 H   0  0  0  0  0  0  0  0  0  0  0  0
   -4.1224   -0.6481    1.0772 H   0  0  0  0  0  0  0  0  0  0  0  0
   -3.6705   -2.0631    0.1562 H   0  0  0  0  0  0  0  0  0  0  0  0
   -2.4785    1.8547    0.2416 H   0  0  0  0  0  0  0  0  0  0  0  0
   -2.5648    0.8497    1.7103 H   0  0  0  0  0  0  0  0  0  0  0  0
    4.1382    2.0135   -0.1458 H   0  0  0  0  0  0  0  0  0  0  0  0
  1  2  1  0
  2  3  3  0
  3  4  1  0
  4  5  2  0
  5  6  1  0
  6  7  2  0
  7  8  1  0
  8  9  1  0
  9 10  2  0
 10 11  1  0
 11 12  2  0
 12 13  1  0
 13 14  2  0
 13 15  1  0
 15 16  1  1
 16 17  2  0
 17 18  1  0
 17 19  1  0
 19 20  1  0
 19 21  2  0
 15 22  1  0
 22 23  1  6
 23 24  1  0
 24 25  1  0
 25 26  1  0
 26 27  1  0
 25 28  1  0
 28 29  1  0
 22 30  1  0
  8 31  2  0
 31  4  1  0
 14  9  1  0
 21 15  1  0
 29 22  1  0
 30 12  1  0
  1 32  1  0
  1 33  1  0
  1 34  1  0
  5 35  1  0
  7 36  1  0
 10 37  1  0
 11 38  1  0
 14 39  1  0
 18 40  1  0
 18 41  1  0
 18 42  1  0
 20 43  1  0
 20 44  1  0
 23 45  1  0
 23 46  1  0
 24 47  1  0
 24 48  1  0
 25 49  1  6
 27 50  1  0
 27 51  1  0
 27 52  1  0
 28 53  1  0
 28 54  1  0
 29 55  1  0
 29 56  1  0
 30 57  1  0
 30 58  1  0
 31 59  1  0
M  END
$$$$
