
     RDKit          3D

 44 46  0  0  0  0  0  0  0  0999 V2000
   -7.4518    1.4914    0.6684 C   0  0  0  0  0  0  0  0  0  0  0  0
   -6.5329    1.3507   -0.4081 O   0  0  0  0  0  0  0  0  0  0  0  0
   -5.4098    0.6054   -0.1706 C   0  0  0  0  0  0  0  0  0  0  0  0
   -5.0872   -0.0278    1.0268 C   0  0  0  0  0  0  0  0  0  0  0  0
   -3.9018   -0.7594    1.1319 C   0  0  0  0  0  0  0  0  0  0  0  0
   -3.0263   -0.8725    0.0405 C   0  0  0  0  0  0  0  0  0  0  0  0
   -1.7521   -1.6651    0.1925 C   0  0  0  0  0  0  0  0  0  0  0  0
   -0.6034   -0.7934    0.2596 N   0  0  0  0  0  0  0  0  0  0  0  0
    0.6280   -1.2609    0.6682 C   0  0  0  0  0  0  0  0  0  0  0  0
    0.7484   -2.3859    1.1549 O   0  0  0  0  0  0  0  0  0  0  0  0
    1.7527   -0.3641    0.4814 C   0  0  0  0  0  0  0  0  0  0  0  0
    1.5721    1.2512   -0.0372 S   0  0  0  0  0  0  0  0  0  0  0  0
    3.1714    1.6475   -0.0083 N   0  0  0  0  0  0  0  0  0  0  0  0
    3.8860    0.5916    0.4021 C   0  0  0  0  0  0  0  0  0  0  0  0
    5.3467    0.6936    0.4906 C   0  0  0  0  0  0  0  0  0  0  0  0
    6.1566   -0.1480   -0.2685 C   0  0  0  0  0  0  0  0  0  0  0  0
    7.5389   -0.0274   -0.1528 C   0  0  0  0  0  0  0  0  0  0  0  0
    8.0683    0.9240    0.7115 C   0  0  0  0  0  0  0  0  0  0  0  0
    7.1904    1.7184    1.4309 C   0  0  0  0  0  0  0  0  0  0  0  0
    5.8466    1.6219    1.3461 N   0  0  0  0  0  0  0  0  0  0  0  0
    3.1017   -0.5931    0.6929 C   0  0  0  0  0  0  0  0  0  0  0  0
    3.6000   -1.7858    1.1209 N   0  0  0  0  0  0  0  0  0  0  0  0
   -3.3473   -0.2241   -1.1658 C   0  0  0  0  0  0  0  0  0  0  0  0
   -2.4264   -0.3523   -2.1741 O   0  0  0  0  0  0  0  0  0  0  0  0
   -2.7521    0.2282   -3.4319 C   0  0  0  0  0  0  0  0  0  0  0  0
   -4.5370    0.5055   -1.2600 C   0  0  0  0  0  0  0  0  0  0  0  0
   -8.2845    2.1090    0.3182 H   0  0  0  0  0  0  0  0  0  0  0  0
   -6.9896    2.0060    1.5172 H   0  0  0  0  0  0  0  0  0  0  0  0
   -7.8604    0.5206    0.9680 H   0  0  0  0  0  0  0  0  0  0  0  0
   -5.7314    0.0278    1.8979 H   0  0  0  0  0  0  0  0  0  0  0  0
   -3.6623   -1.2426    2.0775 H   0  0  0  0  0  0  0  0  0  0  0  0
   -1.7833   -2.2892    1.0935 H   0  0  0  0  0  0  0  0  0  0  0  0
   -1.6205   -2.3475   -0.6555 H   0  0  0  0  0  0  0  0  0  0  0  0
   -0.6299    0.0322   -0.3241 H   0  0  0  0  0  0  0  0  0  0  0  0
    5.7219   -0.8789   -0.9431 H   0  0  0  0  0  0  0  0  0  0  0  0
    8.1955   -0.6662   -0.7366 H   0  0  0  0  0  0  0  0  0  0  0  0
    9.1401    1.0473    0.8201 H   0  0  0  0  0  0  0  0  0  0  0  0
    7.5556    2.4779    2.1164 H   0  0  0  0  0  0  0  0  0  0  0  0
    2.9385   -2.4847    1.4739 H   0  0  0  0  0  0  0  0  0  0  0  0
    4.4812   -1.8133    1.6297 H   0  0  0  0  0  0  0  0  0  0  0  0
   -2.8269    1.3178   -3.3543 H   0  0  0  0  0  0  0  0  0  0  0  0
   -1.9366    0.0001   -4.1249 H   0  0  0  0  0  0  0  0  0  0  0  0
   -3.6694   -0.2059   -3.8431 H   0  0  0  0  0  0  0  0  0  0  0  0
   -4.8176    1.0202   -2.1733 H   0  0  0  0  0  0  0  0  0  0  0  0
  1  2  1  0
  2  3  1  0
  3  4  2  0
  4  5  1  0
  5  6  2  0
  6  7  1  0
  7  8  1  0
  8  9  1  0
  9 10  2  0
  9 11  1  0
 11 12  1  0
 12 13  1  0
 13 14  2  0
 14 15  1  0
 15 16  2  0
 16 17  1  0
 17 18  2  0
 18 19  1  0
 19 20  2  0
 14 21  1  0
 21 22  1  0
  6 23  1  0
 23 24  1  0
 24 25  1  0
 23 26  2  0
 26  3  1  0
 21 11  2  0
 20 15  1  0
  1 27  1  0
  1 28  1  0
  1 29  1  0
  4 30  1  0
  5 31  1  0
  7 32  1  0
  7 33  1  0
  8 34  1  0
 16 35  1  0
 17 36  1  0
 18 37  1  0
 19 38  1  0
 22 39  1  0
 22 40  1  0
 25 41  1  0
 25 42  1  0
 25 43  1  0
 26 44  1  0
M  END
$$$$
