
     RDKit          3D

 52 54  0  0  0  0  0  0  0  0999 V2000
   -7.9186    2.7219   -0.7403 C   0  0  0  0  0  0  0  0  0  0  0  0
   -7.0984    1.6587   -1.2042 O   0  0  0  0  0  0  0  0  0  0  0  0
   -6.0005    1.3256   -0.4504 C   0  0  0  0  0  0  0  0  0  0  0  0
   -5.7006    1.8861    0.7983 C   0  0  0  0  0  0  0  0  0  0  0  0
   -4.5606    1.4850    1.4972 C   0  0  0  0  0  0  0  0  0  0  0  0
   -3.7160    0.5276    0.9372 C   0  0  0  0  0  0  0  0  0  0  0  0
   -2.2543    0.0023    1.8042 S   0  0  0  0  0  6  0  0  0  0  0  0
   -2.2331   -1.4442    1.7354 O   0  0  0  0  0  0  0  0  0  0  0  0
   -2.2188    0.6978    3.0765 O   0  0  0  0  0  0  0  0  0  0  0  0
   -1.0029    0.6380    0.8135 N   0  0  0  0  0  0  0  0  0  0  0  0
   -0.9312    2.1197    0.7710 C   0  0  0  0  0  0  0  0  0  0  0  0
    0.2783    0.0020    0.9878 C   0  0  0  0  0  0  0  0  0  0  0  0
    0.9115   -0.0846    2.2301 C   0  0  0  0  0  0  0  0  0  0  0  0
    2.1938   -0.6342    2.3239 C   0  0  0  0  0  0  0  0  0  0  0  0
    2.8662   -1.0659    1.1731 C   0  0  0  0  0  0  0  0  0  0  0  0
    4.2330   -1.6373    1.3286 C   0  0  0  0  0  0  0  0  0  0  0  0
    4.5612   -2.1749    2.3803 O   0  0  0  0  0  0  0  0  0  0  0  0
    5.0837   -1.4981    0.2593 N   0  0  0  0  0  0  0  0  0  0  0  0
    6.3947   -2.1038    0.2640 C   0  0  0  0  0  0  0  0  0  0  0  0
    7.2122   -1.4869   -0.8097 C   0  0  0  0  0  0  0  0  0  0  0  0
    8.4625   -0.9033   -0.8311 C   0  0  0  0  0  0  0  0  0  0  0  0
    8.6959   -0.5048   -2.1693 C   0  0  0  0  0  0  0  0  0  0  0  0
    7.5730   -0.8617   -2.8777 C   0  0  0  0  0  0  0  0  0  0  0  0
    6.6638   -1.4546   -2.0621 O   0  0  0  0  0  0  0  0  0  0  0  0
    2.2355   -0.9630   -0.0730 C   0  0  0  0  0  0  0  0  0  0  0  0
    0.9512   -0.4166   -0.1628 C   0  0  0  0  0  0  0  0  0  0  0  0
   -4.0069   -0.0551   -0.2999 C   0  0  0  0  0  0  0  0  0  0  0  0
   -5.1532    0.3366   -0.9963 C   0  0  0  0  0  0  0  0  0  0  0  0
   -5.5200   -0.1690   -2.2202 O   0  0  0  0  0  0  0  0  0  0  0  0
   -4.8627   -1.3503   -2.6609 C   0  0  0  0  0  0  0  0  0  0  0  0
   -8.7106    2.8800   -1.4794 H   0  0  0  0  0  0  0  0  0  0  0  0
   -7.3495    3.6548   -0.6600 H   0  0  0  0  0  0  0  0  0  0  0  0
   -8.3978    2.4670    0.2111 H   0  0  0  0  0  0  0  0  0  0  0  0
   -6.3411    2.6314    1.2589 H   0  0  0  0  0  0  0  0  0  0  0  0
   -4.3448    1.9212    2.4693 H   0  0  0  0  0  0  0  0  0  0  0  0
   -1.8789    2.5456    0.4323 H   0  0  0  0  0  0  0  0  0  0  0  0
   -0.6746    2.5349    1.7506 H   0  0  0  0  0  0  0  0  0  0  0  0
   -0.1705    2.4380    0.0493 H   0  0  0  0  0  0  0  0  0  0  0  0
    0.4222    0.2643    3.1357 H   0  0  0  0  0  0  0  0  0  0  0  0
    2.6714   -0.7179    3.2986 H   0  0  0  0  0  0  0  0  0  0  0  0
    4.7936   -1.0461   -0.5962 H   0  0  0  0  0  0  0  0  0  0  0  0
    6.8595   -1.9706    1.2470 H   0  0  0  0  0  0  0  0  0  0  0  0
    6.2721   -3.1773    0.0818 H   0  0  0  0  0  0  0  0  0  0  0  0
    9.1231   -0.7823    0.0164 H   0  0  0  0  0  0  0  0  0  0  0  0
    9.5734   -0.0158   -2.5694 H   0  0  0  0  0  0  0  0  0  0  0  0
    7.2812   -0.7701   -3.9149 H   0  0  0  0  0  0  0  0  0  0  0  0
    2.7123   -1.3228   -0.9799 H   0  0  0  0  0  0  0  0  0  0  0  0
    0.4684   -0.3346   -1.1331 H   0  0  0  0  0  0  0  0  0  0  0  0
   -3.3265   -0.8026   -0.6964 H   0  0  0  0  0  0  0  0  0  0  0  0
   -5.3724   -1.7008   -3.5648 H   0  0  0  0  0  0  0  0  0  0  0  0
   -3.8209   -1.1403   -2.9261 H   0  0  0  0  0  0  0  0  0  0  0  0
   -4.9285   -2.1490   -1.9135 H   0  0  0  0  0  0  0  0  0  0  0  0
  1  2  1  0
  2  3  1  0
  3  4  2  0
  4  5  1  0
  5  6  2  0
  6  7  1  0
  7  8  2  0
  7  9  2  0
  7 10  1  0
 10 11  1  0
 10 12  1  0
 12 13  2  0
 13 14  1  0
 14 15  2  0
 15 16  1  0
 16 17  2  0
 16 18  1  0
 18 19  1  0
 19 20  1  0
 20 21  2  0
 21 22  1  0
 22 23  2  0
 23 24  1  0
 15 25  1  0
 25 26  2  0
  6 27  1  0
 27 28  2  0
 28 29  1  0
 29 30  1  0
 28  3  1  0
 26 12  1  0
 24 20  1  0
  1 31  1  0
  1 32  1  0
  1 33  1  0
  4 34  1  0
  5 35  1  0
 11 36  1  0
 11 37  1  0
 11 38  1  0
 13 39  1  0
 14 40  1  0
 18 41  1  0
 19 42  1  0
 19 43  1  0
 21 44  1  0
 22 45  1  0
 23 46  1  0
 25 47  1  0
 26 48  1  0
 27 49  1  0
 30 50  1  0
 30 51  1  0
 30 52  1  0
M  END
$$$$
