
     RDKit          3D

 18 16  0  0  0  0  0  0  0  0999 V2000
   -0.6950    1.1970   -0.6328 C   0  0  0  0  0  0  0  0  0  0  0  0
   -0.0000    0.0000    0.0000 N   0  0  0  0  0  4  0  0  0  0  0  0
    1.2561    0.4660    0.7221 C   0  0  0  0  0  0  0  0  0  0  0  0
    0.3791   -0.9983   -1.0845 C   0  0  0  0  0  0  0  0  0  0  0  0
   -0.9402   -0.6648    0.9952 C   0  0  0  0  0  0  0  0  0  0  0  0
    0.0000    0.0000    0.0000 Cl  0  0  0  0  0 15  0  0  0  0  0  0
   -1.5941    0.8439   -1.1465 H   0  0  0  0  0  0  0  0  0  0  0  0
   -0.9598    1.9029    0.1600 H   0  0  0  0  0  0  0  0  0  0  0  0
   -0.0057    1.6617   -1.3441 H   0  0  0  0  0  0  0  0  0  0  0  0
    1.9192    0.9405   -0.0074 H   0  0  0  0  0  0  0  0  0  0  0  0
    1.7419   -0.4059    1.1700 H   0  0  0  0  0  0  0  0  0  0  0  0
    0.9651    1.1817    1.4967 H   0  0  0  0  0  0  0  0  0  0  0  0
    1.0539   -0.5041   -1.7897 H   0  0  0  0  0  0  0  0  0  0  0  0
    0.8766   -1.8506   -0.6123 H   0  0  0  0  0  0  0  0  0  0  0  0
   -0.5344   -1.3219   -1.5921 H   0  0  0  0  0  0  0  0  0  0  0  0
   -1.2017    0.0661    1.7662 H   0  0  0  0  0  0  0  0  0  0  0  0
   -0.4249   -1.5215    1.4395 H   0  0  0  0  0  0  0  0  0  0  0  0
   -1.8360   -0.9928    0.4597 H   0  0  0  0  0  0  0  0  0  0  0  0
  1  2  1  0
  2  3  1  0
  2  4  1  0
  2  5  1  0
  1  7  1  0
  1  8  1  0
  1  9  1  0
  3 10  1  0
  3 11  1  0
  3 12  1  0
  4 13  1  0
  4 14  1  0
  4 15  1  0
  5 16  1  0
  5 17  1  0
  5 18  1  0
M  CHG  2   2   1   6  -1
M  END
$$$$
