
     RDKit          3D

 66 68  0  0  0  0  0  0  0  0999 V2000
   -4.3024    3.2162   -1.0349 C   0  0  0  0  0  0  0  0  0  0  0  0
   -3.5363    3.5613    0.2448 C   0  0  0  0  0  0  0  0  0  0  0  0
   -4.4061    3.3260    1.4823 C   0  0  0  0  0  0  0  0  0  0  0  0
   -2.2251    2.8000    0.3310 C   0  0  0  0  0  0  0  0  0  0  0  0
   -1.0143    3.4975    0.3464 C   0  0  0  0  0  0  0  0  0  0  0  0
    0.2145    2.8327    0.4269 C   0  0  0  0  0  0  0  0  0  0  0  0
    0.2142    1.4294    0.4923 C   0  0  0  0  0  0  0  0  0  0  0  0
   -0.9705    0.6967    0.4673 C   0  0  0  0  0  0  0  0  0  0  0  0
   -2.1978    1.3957    0.3936 C   0  0  0  0  0  0  0  0  0  0  0  0
   -0.6076   -0.6777    0.5140 C   0  0  0  0  0  0  0  0  0  0  0  0
   -1.7535   -2.0019    0.4479 S   0  0  0  0  0  0  0  0  0  0  0  0
   -1.9359   -2.3375   -1.3573 C   0  0  0  0  0  0  0  0  0  0  0  0
   -0.6027   -2.7668   -1.9817 C   0  0  0  0  0  0  0  0  0  0  0  0
   -2.9342   -3.5029   -1.4720 C   0  0  0  0  0  0  0  0  0  0  0  0
   -2.5049   -1.1254   -2.1042 C   0  0  0  0  0  0  0  0  0  0  0  0
    0.7635   -0.7732    0.6946 C   0  0  0  0  0  0  0  0  0  0  0  0
    1.6282   -1.9895    0.9242 C   0  0  0  0  0  0  0  0  0  0  0  0
    1.8012   -2.4217    2.4037 C   0  0  0  0  0  0  0  0  0  0  0  0
    2.2394   -1.2686    3.3234 C   0  0  0  0  0  0  0  0  0  0  0  0
    2.8915   -3.5117    2.4761 C   0  0  0  0  0  0  0  0  0  0  0  0
    0.5083   -3.0192    2.9443 C   0  0  0  0  0  0  0  0  0  0  0  0
   -0.1598   -2.5994    3.8758 O   0  0  0  0  0  0  0  0  0  0  0  0
    0.1280   -4.1438    2.3033 O   0  0  0  0  0  0  0  0  0  0  0  0
    1.2590    0.5193    0.5710 N   0  0  0  0  0  0  0  0  0  0  0  0
    2.6671    0.9195    0.5564 C   0  0  0  0  0  0  0  0  0  0  0  0
    3.1515    1.3100   -0.8228 C   0  0  0  0  0  0  0  0  0  0  0  0
    3.8640    2.5073   -0.9990 C   0  0  0  0  0  0  0  0  0  0  0  0
    4.3413    2.8733   -2.2602 C   0  0  0  0  0  0  0  0  0  0  0  0
    4.1188    2.0405   -3.3538 C   0  0  0  0  0  0  0  0  0  0  0  0
    4.7074    2.4913   -4.9061 Cl  0  0  0  0  0  0  0  0  0  0  0  0
    3.4272    0.8430   -3.1963 C   0  0  0  0  0  0  0  0  0  0  0  0
    2.9504    0.4764   -1.9352 C   0  0  0  0  0  0  0  0  0  0  0  0
   -5.2022    3.8346   -1.1230 H   0  0  0  0  0  0  0  0  0  0  0  0
   -3.6841    3.3956   -1.9215 H   0  0  0  0  0  0  0  0  0  0  0  0
   -4.6168    2.1670   -1.0547 H   0  0  0  0  0  0  0  0  0  0  0  0
   -3.3147    4.6363    0.2072 H   0  0  0  0  0  0  0  0  0  0  0  0
   -3.8611    3.5823    2.3975 H   0  0  0  0  0  0  0  0  0  0  0  0
   -5.3071    3.9476    1.4436 H   0  0  0  0  0  0  0  0  0  0  0  0
   -4.7267    2.2821    1.5661 H   0  0  0  0  0  0  0  0  0  0  0  0
   -1.0110    4.5848    0.2956 H   0  0  0  0  0  0  0  0  0  0  0  0
    1.1366    3.4040    0.4351 H   0  0  0  0  0  0  0  0  0  0  0  0
   -3.1249    0.8290    0.3873 H   0  0  0  0  0  0  0  0  0  0  0  0
   -0.1755   -3.6359   -1.4691 H   0  0  0  0  0  0  0  0  0  0  0  0
   -0.7419   -3.0505   -3.0319 H   0  0  0  0  0  0  0  0  0  0  0  0
    0.1368   -1.9597   -1.9704 H   0  0  0  0  0  0  0  0  0  0  0  0
   -3.9132   -3.2444   -1.0506 H   0  0  0  0  0  0  0  0  0  0  0  0
   -2.5702   -4.4033   -0.9624 H   0  0  0  0  0  0  0  0  0  0  0  0
   -3.0980   -3.7730   -2.5222 H   0  0  0  0  0  0  0  0  0  0  0  0
   -2.7255   -1.3840   -3.1470 H   0  0  0  0  0  0  0  0  0  0  0  0
   -3.4405   -0.7725   -1.6561 H   0  0  0  0  0  0  0  0  0  0  0  0
   -1.7968   -0.2913   -2.1352 H   0  0  0  0  0  0  0  0  0  0  0  0
    1.2082   -2.8239    0.3494 H   0  0  0  0  0  0  0  0  0  0  0  0
    2.6139   -1.8286    0.4724 H   0  0  0  0  0  0  0  0  0  0  0  0
    1.4941   -0.4672    3.3620 H   0  0  0  0  0  0  0  0  0  0  0  0
    3.1927   -0.8385    3.0017 H   0  0  0  0  0  0  0  0  0  0  0  0
    2.3742   -1.6195    4.3541 H   0  0  0  0  0  0  0  0  0  0  0  0
    2.9761   -3.9213    3.4895 H   0  0  0  0  0  0  0  0  0  0  0  0
    2.6712   -4.3494    1.8048 H   0  0  0  0  0  0  0  0  0  0  0  0
    3.8709   -3.1109    2.1918 H   0  0  0  0  0  0  0  0  0  0  0  0
   -0.7429   -4.3461    2.7065 H   0  0  0  0  0  0  0  0  0  0  0  0
    2.7644    1.7485    1.2676 H   0  0  0  0  0  0  0  0  0  0  0  0
    3.2894    0.1077    0.9360 H   0  0  0  0  0  0  0  0  0  0  0  0
    4.0505    3.1692   -0.1554 H   0  0  0  0  0  0  0  0  0  0  0  0
    4.8845    3.8065   -2.3820 H   0  0  0  0  0  0  0  0  0  0  0  0
    3.2538    0.1909   -4.0484 H   0  0  0  0  0  0  0  0  0  0  0  0
    2.4114   -0.4632   -1.8339 H   0  0  0  0  0  0  0  0  0  0  0  0
  1  2  1  0
  2  3  1  0
  2  4  1  0
  4  5  2  0
  5  6  1  0
  6  7  2  0
  7  8  1  0
  8  9  2  0
  8 10  1  0
 10 11  1  0
 11 12  1  0
 12 13  1  0
 12 14  1  0
 12 15  1  0
 10 16  2  0
 16 17  1  0
 17 18  1  0
 18 19  1  0
 18 20  1  0
 18 21  1  0
 21 22  2  0
 21 23  1  0
 16 24  1  0
 24 25  1  0
 25 26  1  0
 26 27  2  0
 27 28  1  0
 28 29  2  0
 29 30  1  0
 29 31  1  0
 31 32  2  0
  9  4  1  0
 32 26  1  0
 24  7  1  0
  1 33  1  0
  1 34  1  0
  1 35  1  0
  2 36  1  0
  3 37  1  0
  3 38  1  0
  3 39  1  0
  5 40  1  0
  6 41  1  0
  9 42  1  0
 13 43  1  0
 13 44  1  0
 13 45  1  0
 14 46  1  0
 14 47  1  0
 14 48  1  0
 15 49  1  0
 15 50  1  0
 15 51  1  0
 17 52  1  0
 17 53  1  0
 19 54  1  0
 19 55  1  0
 19 56  1  0
 20 57  1  0
 20 58  1  0
 20 59  1  0
 23 60  1  0
 25 61  1  0
 25 62  1  0
 27 63  1  0
 28 64  1  0
 31 65  1  0
 32 66  1  0
M  END
$$$$
