
     RDKit          3D

 76 77  0  0  0  0  0  0  0  0999 V2000
    5.7303   -2.1317    1.4178 C   0  0  0  0  0  0  0  0  0  0  0  0
    6.5972   -1.2513    0.5526 C   0  0  0  0  0  0  0  0  0  0  0  0
    7.8611   -1.7295    0.2022 C   0  0  0  0  0  0  0  0  0  0  0  0
    8.7420   -0.9663   -0.5483 C   0  0  0  0  0  0  0  0  0  0  0  0
    9.9449   -1.5613   -0.9482 N   0  0  0  0  0  0  0  0  0  0  0  0
    8.2911    0.2676   -1.0492 C   0  0  0  0  0  0  0  0  0  0  0  0
    9.0839    1.0517   -1.9198 C   0  0  0  0  0  0  0  0  0  0  0  0
    8.6517    2.2858   -2.4000 C   0  0  0  0  0  0  0  0  0  0  0  0
    7.4101    2.7685   -2.0289 C   0  0  0  0  0  0  0  0  0  0  0  0
    6.5968    2.0125   -1.1817 C   0  0  0  0  0  0  0  0  0  0  0  0
    7.0038    0.7550   -0.6753 C   0  0  0  0  0  0  0  0  0  0  0  0
    6.1964   -0.0092    0.1430 N   0  0  0  0  0  4  0  0  0  0  0  0
    4.8700    0.5156    0.6043 C   0  0  0  0  0  0  0  0  0  0  0  0
    3.7936    0.2014   -0.4355 C   0  0  0  0  0  0  0  0  0  0  0  0
    2.4175    0.7797   -0.0828 C   0  0  0  0  0  0  0  0  0  0  0  0
    1.7501    0.0812    1.1063 C   0  0  0  0  0  0  0  0  0  0  0  0
    0.3846    0.6758    1.4768 C   0  0  0  0  0  0  0  0  0  0  0  0
   -0.7066    0.4295    0.4283 C   0  0  0  0  0  0  0  0  0  0  0  0
   -2.0593    0.9856    0.8947 C   0  0  0  0  0  0  0  0  0  0  0  0
   -3.1571    0.8888   -0.1731 C   0  0  0  0  0  0  0  0  0  0  0  0
   -3.6827   -0.5260   -0.4393 C   0  0  0  0  0  0  0  0  0  0  0  0
   -4.5913   -1.1017    0.6546 C   0  0  0  0  0  0  0  0  0  0  0  0
   -5.9855   -0.5497    0.5619 N   0  0  0  0  0  4  0  0  0  0  0  0
   -6.4153    0.3601    1.4898 C   0  0  0  0  0  0  0  0  0  0  0  0
   -5.5743    0.7669    2.6738 C   0  0  0  0  0  0  0  0  0  0  0  0
   -7.6913    0.9195    1.3832 C   0  0  0  0  0  0  0  0  0  0  0  0
   -8.5472    0.5846    0.3463 C   0  0  0  0  0  0  0  0  0  0  0  0
   -9.8435    1.1152    0.3693 N   0  0  0  0  0  0  0  0  0  0  0  0
   -8.1544   -0.4420   -0.5291 C   0  0  0  0  0  0  0  0  0  0  0  0
   -9.0288   -0.9475   -1.5202 C   0  0  0  0  0  0  0  0  0  0  0  0
   -8.6443   -1.9589   -2.3975 C   0  0  0  0  0  0  0  0  0  0  0  0
   -7.3738   -2.4972   -2.3056 C   0  0  0  0  0  0  0  0  0  0  0  0
   -6.4911   -2.0287   -1.3296 C   0  0  0  0  0  0  0  0  0  0  0  0
   -6.8473   -1.0024   -0.4211 C   0  0  0  0  0  0  0  0  0  0  0  0
    0.0000    0.0000    0.0000 Cl  0  0  0  0  0 15  0  0  0  0  0  0
    0.0000    0.0000    0.0000 Cl  0  0  0  0  0 15  0  0  0  0  0  0
    5.7389   -1.7646    2.4482 H   0  0  0  0  0  0  0  0  0  0  0  0
    6.0941   -3.1650    1.4256 H   0  0  0  0  0  0  0  0  0  0  0  0
    4.7032   -2.1685    1.0473 H   0  0  0  0  0  0  0  0  0  0  0  0
    8.1678   -2.7230    0.5291 H   0  0  0  0  0  0  0  0  0  0  0  0
   10.2882   -2.3219   -0.3662 H   0  0  0  0  0  0  0  0  0  0  0  0
   10.7050   -0.9311   -1.1902 H   0  0  0  0  0  0  0  0  0  0  0  0
   10.0620    0.7095   -2.2534 H   0  0  0  0  0  0  0  0  0  0  0  0
    9.2892    2.8635   -3.0679 H   0  0  0  0  0  0  0  0  0  0  0  0
    7.0703    3.7316   -2.4072 H   0  0  0  0  0  0  0  0  0  0  0  0
    5.6300    2.4505   -0.9556 H   0  0  0  0  0  0  0  0  0  0  0  0
    4.6395    0.0745    1.5767 H   0  0  0  0  0  0  0  0  0  0  0  0
    4.9656    1.5869    0.8030 H   0  0  0  0  0  0  0  0  0  0  0  0
    3.7105   -0.8812   -0.5835 H   0  0  0  0  0  0  0  0  0  0  0  0
    4.0929    0.6098   -1.4077 H   0  0  0  0  0  0  0  0  0  0  0  0
    1.7784    0.6770   -0.9669 H   0  0  0  0  0  0  0  0  0  0  0  0
    2.5108    1.8537    0.1182 H   0  0  0  0  0  0  0  0  0  0  0  0
    1.6405   -0.9891    0.8944 H   0  0  0  0  0  0  0  0  0  0  0  0
    2.3975    0.1642    1.9866 H   0  0  0  0  0  0  0  0  0  0  0  0
    0.4925    1.7529    1.6542 H   0  0  0  0  0  0  0  0  0  0  0  0
    0.0664    0.2302    2.4277 H   0  0  0  0  0  0  0  0  0  0  0  0
   -0.4303    0.9098   -0.5165 H   0  0  0  0  0  0  0  0  0  0  0  0
   -0.7877   -0.6461    0.2371 H   0  0  0  0  0  0  0  0  0  0  0  0
   -1.9314    2.0459    1.1477 H   0  0  0  0  0  0  0  0  0  0  0  0
   -2.3699    0.4801    1.8153 H   0  0  0  0  0  0  0  0  0  0  0  0
   -2.7626    1.2948   -1.1135 H   0  0  0  0  0  0  0  0  0  0  0  0
   -3.9919    1.5411    0.1058 H   0  0  0  0  0  0  0  0  0  0  0  0
   -4.2123   -0.5020   -1.3974 H   0  0  0  0  0  0  0  0  0  0  0  0
   -2.8359   -1.2070   -0.5795 H   0  0  0  0  0  0  0  0  0  0  0  0
   -4.6737   -2.1911    0.5745 H   0  0  0  0  0  0  0  0  0  0  0  0
   -4.1749   -0.9301    1.6472 H   0  0  0  0  0  0  0  0  0  0  0  0
   -6.0897    1.5018    3.3017 H   0  0  0  0  0  0  0  0  0  0  0  0
   -5.3641   -0.1022    3.3044 H   0  0  0  0  0  0  0  0  0  0  0  0
   -4.6414    1.2301    2.3480 H   0  0  0  0  0  0  0  0  0  0  0  0
   -8.0289    1.6341    2.1341 H   0  0  0  0  0  0  0  0  0  0  0  0
   -9.9648    1.9901    0.8740 H   0  0  0  0  0  0  0  0  0  0  0  0
  -10.3326    1.1506   -0.5206 H   0  0  0  0  0  0  0  0  0  0  0  0
  -10.0459   -0.5707   -1.6186 H   0  0  0  0  0  0  0  0  0  0  0  0
   -9.3449   -2.3276   -3.1457 H   0  0  0  0  0  0  0  0  0  0  0  0
   -7.0723   -3.2907   -2.9878 H   0  0  0  0  0  0  0  0  0  0  0  0
   -5.5194   -2.5125   -1.3152 H   0  0  0  0  0  0  0  0  0  0  0  0
  1  2  1  0
  2  3  2  0
  3  4  1  0
  4  5  1  0
  4  6  2  0
  6  7  1  0
  7  8  2  0
  8  9  1  0
  9 10  2  0
 10 11  1  0
 11 12  2  0
 12 13  1  0
 13 14  1  0
 14 15  1  0
 15 16  1  0
 16 17  1  0
 17 18  1  0
 18 19  1  0
 19 20  1  0
 20 21  1  0
 21 22  1  0
 22 23  1  0
 23 24  2  0
 24 25  1  0
 24 26  1  0
 26 27  2  0
 27 28  1  0
 27 29  1  0
 29 30  2  0
 30 31  1  0
 31 32  2  0
 32 33  1  0
 33 34  2  0
 12  2  1  0
 34 23  1  0
 11  6  1  0
 34 29  1  0
  1 37  1  0
  1 38  1  0
  1 39  1  0
  3 40  1  0
  5 41  1  0
  5 42  1  0
  7 43  1  0
  8 44  1  0
  9 45  1  0
 10 46  1  0
 13 47  1  0
 13 48  1  0
 14 49  1  0
 14 50  1  0
 15 51  1  0
 15 52  1  0
 16 53  1  0
 16 54  1  0
 17 55  1  0
 17 56  1  0
 18 57  1  0
 18 58  1  0
 19 59  1  0
 19 60  1  0
 20 61  1  0
 20 62  1  0
 21 63  1  0
 21 64  1  0
 22 65  1  0
 22 66  1  0
 25 67  1  0
 25 68  1  0
 25 69  1  0
 26 70  1  0
 28 71  1  0
 28 72  1  0
 30 73  1  0
 31 74  1  0
 32 75  1  0
 33 76  1  0
M  CHG  4  12   1  23   1  35  -1  36  -1
M  END
$$$$
