
     RDKit          3D

 48 51  0  0  0  0  0  0  0  0999 V2000
    5.6827   -0.3621   -0.4990 C   0  0  0  0  0  0  0  0  0  0  0  0
    4.4410    0.2972   -0.8931 N   0  0  0  0  0  0  0  0  0  0  0  0
    3.7136    0.8470    0.2761 C   0  0  0  0  0  0  0  0  0  0  0  0
    2.5547   -0.0378    0.7820 C   0  0  0  0  0  0  0  0  0  0  0  0
    1.5307   -0.2752   -0.2699 N   0  0  0  0  0  0  0  0  0  0  0  0
    0.3821    0.4399   -0.1147 C   0  0  0  0  0  0  0  0  0  0  0  0
    0.2629    1.6476    0.3998 N   0  0  0  0  0  0  0  0  0  0  0  0
   -1.0394    1.9782    0.2143 C   0  0  0  0  0  0  0  0  0  0  0  0
   -1.7398    0.9788   -0.3978 C   0  0  0  0  0  0  0  0  0  0  0  0
   -3.0960    1.1376   -0.7885 C   0  0  0  0  0  0  0  0  0  0  0  0
   -3.7363    0.3533   -1.4788 O   0  0  0  0  0  0  0  0  0  0  0  0
   -3.6340    2.3297   -0.3568 N   0  0  0  0  0  0  0  0  0  0  0  0
   -2.9644    3.3796    0.2433 C   0  0  0  0  0  0  0  0  0  0  0  0
   -3.5767    4.4243    0.4655 O   0  0  0  0  0  0  0  0  0  0  0  0
   -1.6220    3.1839    0.5440 N   0  0  0  0  0  0  0  0  0  0  0  0
   -0.8397    4.2339    1.1660 C   0  0  0  0  0  0  0  0  0  0  0  0
   -0.8519   -0.0617   -0.4977 N   0  0  0  0  0  0  0  0  0  0  0  0
   -1.1362   -1.4221   -0.9341 C   0  0  0  0  0  0  0  0  0  0  0  0
   -2.0599   -2.1796   -0.0019 C   0  0  0  0  0  0  0  0  0  0  0  0
   -3.3629   -2.4854   -0.4408 C   0  0  0  0  0  0  0  0  0  0  0  0
   -4.2617   -3.1787    0.3728 C   0  0  0  0  0  0  0  0  0  0  0  0
   -3.8729   -3.5947    1.6402 C   0  0  0  0  0  0  0  0  0  0  0  0
   -2.5819   -3.3240    2.0875 C   0  0  0  0  0  0  0  0  0  0  0  0
   -1.6786   -2.6284    1.2735 C   0  0  0  0  0  0  0  0  0  0  0  0
   -0.0892   -2.3977    1.9025 Cl  0  0  0  0  0  0  0  0  0  0  0  0
    2.0918   -0.2277   -1.6474 C   0  0  0  0  0  0  0  0  0  0  0  0
    3.5825   -0.6288   -1.6645 C   0  0  0  0  0  0  0  0  0  0  0  0
    6.2104   -0.7460   -1.3792 H   0  0  0  0  0  0  0  0  0  0  0  0
    6.3586    0.3513   -0.0148 H   0  0  0  0  0  0  0  0  0  0  0  0
    5.5090   -1.1954    0.1913 H   0  0  0  0  0  0  0  0  0  0  0  0
    4.4020    1.0607    1.1031 H   0  0  0  0  0  0  0  0  0  0  0  0
    3.3027    1.8189   -0.0264 H   0  0  0  0  0  0  0  0  0  0  0  0
    2.9516   -1.0133    1.0907 H   0  0  0  0  0  0  0  0  0  0  0  0
    2.1162    0.4057    1.6853 H   0  0  0  0  0  0  0  0  0  0  0  0
   -4.5887    2.5142   -0.6200 H   0  0  0  0  0  0  0  0  0  0  0  0
   -0.0445    4.5400    0.4791 H   0  0  0  0  0  0  0  0  0  0  0  0
   -0.3985    3.8528    2.0924 H   0  0  0  0  0  0  0  0  0  0  0  0
   -1.4536    5.1068    1.4038 H   0  0  0  0  0  0  0  0  0  0  0  0
   -1.5643   -1.3397   -1.9405 H   0  0  0  0  0  0  0  0  0  0  0  0
   -0.2021   -1.9807   -1.0456 H   0  0  0  0  0  0  0  0  0  0  0  0
   -3.6987   -2.1728   -1.4293 H   0  0  0  0  0  0  0  0  0  0  0  0
   -5.2660   -3.3896    0.0128 H   0  0  0  0  0  0  0  0  0  0  0  0
   -4.5696   -4.1340    2.2766 H   0  0  0  0  0  0  0  0  0  0  0  0
   -2.2794   -3.6646    3.0751 H   0  0  0  0  0  0  0  0  0  0  0  0
    1.9850    0.7790   -2.0749 H   0  0  0  0  0  0  0  0  0  0  0  0
    1.5320   -0.9177   -2.2891 H   0  0  0  0  0  0  0  0  0  0  0  0
    3.6630   -1.6516   -1.2713 H   0  0  0  0  0  0  0  0  0  0  0  0
    3.9365   -0.6515   -2.7016 H   0  0  0  0  0  0  0  0  0  0  0  0
  1  2  1  0
  2  3  1  0
  3  4  1  0
  4  5  1  0
  5  6  1  0
  6  7  2  0
  7  8  1  0
  8  9  2  0
  9 10  1  0
 10 11  2  0
 10 12  1  0
 12 13  1  0
 13 14  2  0
 13 15  1  0
 15 16  1  0
  9 17  1  0
 17 18  1  0
 18 19  1  0
 19 20  2  0
 20 21  1  0
 21 22  2  0
 22 23  1  0
 23 24  2  0
 24 25  1  0
  5 26  1  0
 26 27  1  0
 27  2  1  0
 17  6  1  0
 24 19  1  0
 15  8  1  0
  1 28  1  0
  1 29  1  0
  1 30  1  0
  3 31  1  0
  3 32  1  0
  4 33  1  0
  4 34  1  0
 12 35  1  0
 16 36  1  0
 16 37  1  0
 16 38  1  0
 18 39  1  0
 18 40  1  0
 20 41  1  0
 21 42  1  0
 22 43  1  0
 23 44  1  0
 26 45  1  0
 26 46  1  0
 27 47  1  0
 27 48  1  0
M  END
$$$$
