
     RDKit          3D

 35 37  0  0  0  0  0  0  0  0999 V2000
   -3.1144    2.3285   -1.8791 C   0  0  0  0  0  0  0  0  0  0  0  0
   -3.2287    1.2257   -0.9104 C   0  0  0  0  0  0  0  0  0  0  0  0
   -2.3015    0.6433   -0.1871 N   0  0  0  0  0  0  0  0  0  0  0  0
   -3.0239   -0.2978    0.5104 C   0  0  0  0  0  0  0  0  0  0  0  0
   -2.4162   -1.2211    1.5006 C   0  0  0  0  0  0  0  0  0  0  0  0
   -1.5074   -2.1586    0.8441 N   0  0  0  0  0  0  0  0  0  0  0  0
   -1.8948   -3.4029    0.3985 C   0  0  0  0  0  0  0  0  0  0  0  0
   -0.8107   -4.0092   -0.1869 C   0  0  0  0  0  0  0  0  0  0  0  0
    0.2704   -3.1047   -0.0934 C   0  0  0  0  0  0  0  0  0  0  0  0
   -0.1685   -1.9512    0.5488 C   0  0  0  0  0  0  0  0  0  0  0  0
    0.5858   -0.7481    0.8854 C   0  0  0  0  0  0  0  0  0  0  0  0
    0.3391   -0.0906    1.8893 O   0  0  0  0  0  0  0  0  0  0  0  0
    1.5707   -0.4518   -0.0391 N   0  0  0  0  0  0  0  0  0  0  0  0
    2.4904    0.6167   -0.0185 C   0  0  0  0  0  0  0  0  0  0  0  0
    3.3507    0.7339   -1.1201 C   0  0  0  0  0  0  0  0  0  0  0  0
    4.2964    1.7605   -1.1850 C   0  0  0  0  0  0  0  0  0  0  0  0
    4.3925    2.6821   -0.1461 C   0  0  0  0  0  0  0  0  0  0  0  0
    3.5416    2.5683    0.9509 C   0  0  0  0  0  0  0  0  0  0  0  0
    3.6744    3.8205    2.3636 Br  0  0  0  0  0  0  0  0  0  0  0  0
    2.5945    1.5431    1.0209 C   0  0  0  0  0  0  0  0  0  0  0  0
   -4.3386   -0.3032    0.2391 N   0  0  0  0  0  0  0  0  0  0  0  0
   -4.4757    0.7107   -0.7108 O   0  0  0  0  0  0  0  0  0  0  0  0
   -2.0758    2.6617   -1.9644 H   0  0  0  0  0  0  0  0  0  0  0  0
   -3.4529    2.0070   -2.8685 H   0  0  0  0  0  0  0  0  0  0  0  0
   -3.7225    3.1813   -1.5633 H   0  0  0  0  0  0  0  0  0  0  0  0
   -1.8806   -0.6815    2.2829 H   0  0  0  0  0  0  0  0  0  0  0  0
   -3.1857   -1.8187    2.0046 H   0  0  0  0  0  0  0  0  0  0  0  0
   -2.9119   -3.7511    0.5307 H   0  0  0  0  0  0  0  0  0  0  0  0
   -0.7993   -4.9984   -0.6267 H   0  0  0  0  0  0  0  0  0  0  0  0
    1.2794   -3.2913   -0.4390 H   0  0  0  0  0  0  0  0  0  0  0  0
    1.5886   -1.0386   -0.8615 H   0  0  0  0  0  0  0  0  0  0  0  0
    3.2964    0.0277   -1.9451 H   0  0  0  0  0  0  0  0  0  0  0  0
    4.9563    1.8398   -2.0452 H   0  0  0  0  0  0  0  0  0  0  0  0
    5.1286    3.4797   -0.1983 H   0  0  0  0  0  0  0  0  0  0  0  0
    1.9534    1.4883    1.8942 H   0  0  0  0  0  0  0  0  0  0  0  0
  1  2  1  0
  2  3  2  0
  3  4  1  0
  4  5  1  0
  5  6  1  0
  6  7  1  0
  7  8  2  0
  8  9  1  0
  9 10  2  0
 10 11  1  0
 11 12  2  0
 11 13  1  0
 13 14  1  0
 14 15  2  0
 15 16  1  0
 16 17  2  0
 17 18  1  0
 18 19  1  0
 18 20  2  0
  4 21  2  0
 21 22  1  0
 22  2  1  0
 10  6  1  0
 20 14  1  0
  1 23  1  0
  1 24  1  0
  1 25  1  0
  5 26  1  0
  5 27  1  0
  7 28  1  0
  8 29  1  0
  9 30  1  0
 13 31  1  0
 15 32  1  0
 16 33  1  0
 17 34  1  0
 20 35  1  0
M  END
$$$$
