
     RDKit          3D

 88 88  0  0  0  0  0  0  0  0999 V2000
   -0.5214    7.3206   -3.3233 C   0  0  0  0  0  0  0  0  0  0  0  0
   -0.4964    6.2639   -2.3626 O   0  0  0  0  0  0  0  0  0  0  0  0
   -0.1768    5.0451   -2.8854 C   0  0  0  0  0  0  0  0  0  0  0  0
    0.0906    4.8289   -4.0591 O   0  0  0  0  0  0  0  0  0  0  0  0
   -0.1725    4.0108   -1.7851 C   0  0  0  0  0  0  0  0  0  0  0  0
   -0.1083    2.5877   -2.3498 C   0  0  0  0  0  0  0  0  0  0  0  0
   -0.0148    1.5038   -1.2678 C   0  0  2  0  0  0  0  0  0  0  0  0
   -1.1268    1.5722   -0.3253 N   0  0  0  0  0  0  0  0  0  0  0  0
   -2.3225    0.9438   -0.5834 C   0  0  0  0  0  0  0  0  0  0  0  0
   -2.5444    0.3884   -1.6589 O   0  0  0  0  0  0  0  0  0  0  0  0
   -3.3838    1.0341    0.5347 C   0  0  2  0  0  0  0  0  0  0  0  0
   -2.8697    0.6293    1.9135 C   0  0  0  0  0  0  0  0  0  0  0  0
   -1.9973   -0.5972    1.8459 C   0  0  0  0  0  0  0  0  0  0  0  0
   -2.3251   -1.6559    1.3310 O   0  0  0  0  0  0  0  0  0  0  0  0
   -0.7944   -0.3420    2.4273 O   0  0  0  0  0  0  0  0  0  0  0  0
    0.1391   -1.4219    2.3451 C   0  0  0  0  0  0  0  0  0  0  0  0
   -4.5324    0.2324    0.1342 N   0  0  0  0  0  0  0  0  0  0  0  0
   -5.7925    0.4440    0.5862 C   0  0  0  0  0  0  0  0  0  0  0  0
   -6.1158    1.3321    1.3618 O   0  0  0  0  0  0  0  0  0  0  0  0
   -6.6203   -0.4805    0.0534 O   0  0  0  0  0  0  0  0  0  0  0  0
   -7.9812   -0.3565    0.4775 C   0  0  0  0  0  0  0  0  0  0  0  0
   -8.7462   -1.5776    0.0292 C   0  0  0  0  0  0  0  0  0  0  0  0
   -9.9325   -1.4505   -0.7070 C   0  0  0  0  0  0  0  0  0  0  0  0
  -10.6519   -2.5847   -1.0933 C   0  0  0  0  0  0  0  0  0  0  0  0
  -10.1953   -3.8548   -0.7457 C   0  0  0  0  0  0  0  0  0  0  0  0
   -9.0194   -3.9943   -0.0111 C   0  0  0  0  0  0  0  0  0  0  0  0
   -8.3004   -2.8620    0.3772 C   0  0  0  0  0  0  0  0  0  0  0  0
    1.3103    1.5920   -0.4814 C   0  0  0  0  0  0  0  0  0  0  0  0
    1.3326    1.9642    0.6897 O   0  0  0  0  0  0  0  0  0  0  0  0
    2.4280    1.2680   -1.2250 N   0  0  0  0  0  0  0  0  0  0  0  0
    3.7732    1.0963   -0.6600 C   0  0  2  0  0  0  0  0  0  0  0  0
    3.8461   -0.3133   -0.0152 C   0  0  0  0  0  0  0  0  0  0  0  0
    2.9622   -0.7936    0.6886 O   0  0  0  0  0  0  0  0  0  0  0  0
    4.9933   -1.0264   -0.3225 N   0  0  0  0  0  0  0  0  0  0  0  0
    5.2070   -2.3581    0.2615 C   0  0  1  0  0  0  0  0  0  0  0  0
    6.1793   -3.1601   -0.5897 C   0  0  0  0  0  0  0  0  0  0  0  0
    6.0066   -4.6264   -0.3143 C   0  0  0  0  0  0  0  0  0  0  0  0
    5.2046   -5.3407   -0.8982 O   0  0  0  0  0  0  0  0  0  0  0  0
    6.8388   -5.0204    0.6876 O   0  0  0  0  0  0  0  0  0  0  0  0
    6.6931   -6.3956    1.0511 C   0  0  0  0  0  0  0  0  0  0  0  0
    5.8043   -2.1257    1.6502 C   0  0  0  0  0  0  0  0  0  0  0  0
    6.7439   -1.3421    1.8197 O   0  0  0  0  0  0  0  0  0  0  0  0
    5.1378   -2.8340    2.8041 C   0  0  0  0  0  0  0  0  0  0  0  0
    4.7121   -4.0793    2.4572 F   0  0  0  0  0  0  0  0  0  0  0  0
    4.2646    2.2303    0.2718 C   0  0  0  0  0  0  0  0  0  0  0  0
    4.1597    3.5975   -0.4170 C   0  0  0  0  0  0  0  0  0  0  0  0
    5.7165    2.0212    0.7181 C   0  0  0  0  0  0  0  0  0  0  0  0
   -0.7295    8.2548   -2.7936 H   0  0  0  0  0  0  0  0  0  0  0  0
   -1.3174    7.1499   -4.0555 H   0  0  0  0  0  0  0  0  0  0  0  0
    0.4501    7.4132   -3.8195 H   0  0  0  0  0  0  0  0  0  0  0  0
    0.6900    4.2137   -1.1426 H   0  0  0  0  0  0  0  0  0  0  0  0
   -1.0903    4.1340   -1.1994 H   0  0  0  0  0  0  0  0  0  0  0  0
   -1.0018    2.4148   -2.9640 H   0  0  0  0  0  0  0  0  0  0  0  0
    0.7498    2.5047   -3.0289 H   0  0  0  0  0  0  0  0  0  0  0  0
   -0.0392    0.5161   -1.7470 H   0  0  0  0  0  0  0  0  0  0  0  0
   -0.8905    1.9091    0.6054 H   0  0  0  0  0  0  0  0  0  0  0  0
   -3.7233    2.0772    0.5755 H   0  0  0  0  0  0  0  0  0  0  0  0
   -2.2830    1.4560    2.3338 H   0  0  0  0  0  0  0  0  0  0  0  0
   -3.6809    0.4334    2.6224 H   0  0  0  0  0  0  0  0  0  0  0  0
    1.0623   -1.1066    2.8365 H   0  0  0  0  0  0  0  0  0  0  0  0
   -0.2489   -2.3024    2.8659 H   0  0  0  0  0  0  0  0  0  0  0  0
    0.3589   -1.6570    1.3000 H   0  0  0  0  0  0  0  0  0  0  0  0
   -4.3938   -0.5257   -0.5268 H   0  0  0  0  0  0  0  0  0  0  0  0
   -8.4063    0.5500    0.0278 H   0  0  0  0  0  0  0  0  0  0  0  0
   -8.0488   -0.2856    1.5708 H   0  0  0  0  0  0  0  0  0  0  0  0
  -10.3053   -0.4682   -0.9905 H   0  0  0  0  0  0  0  0  0  0  0  0
  -11.5689   -2.4758   -1.6674 H   0  0  0  0  0  0  0  0  0  0  0  0
  -10.7564   -4.7358   -1.0464 H   0  0  0  0  0  0  0  0  0  0  0  0
   -8.6603   -4.9833    0.2612 H   0  0  0  0  0  0  0  0  0  0  0  0
   -7.3840   -2.9840    0.9512 H   0  0  0  0  0  0  0  0  0  0  0  0
    2.2514    0.7487   -2.0772 H   0  0  0  0  0  0  0  0  0  0  0  0
    4.4263    1.0780   -1.5439 H   0  0  0  0  0  0  0  0  0  0  0  0
    5.8288   -0.4860   -0.5257 H   0  0  0  0  0  0  0  0  0  0  0  0
    4.2381   -2.8606    0.3550 H   0  0  0  0  0  0  0  0  0  0  0  0
    7.2252   -2.8735   -0.4262 H   0  0  0  0  0  0  0  0  0  0  0  0
    5.9879   -3.0109   -1.6592 H   0  0  0  0  0  0  0  0  0  0  0  0
    7.3952   -6.6091    1.8614 H   0  0  0  0  0  0  0  0  0  0  0  0
    6.9341   -7.0436    0.2022 H   0  0  0  0  0  0  0  0  0  0  0  0
    5.6786   -6.5912    1.4124 H   0  0  0  0  0  0  0  0  0  0  0  0
    4.2709   -2.2559    3.1348 H   0  0  0  0  0  0  0  0  0  0  0  0
    5.8513   -2.9448    3.6255 H   0  0  0  0  0  0  0  0  0  0  0  0
    3.6566    2.2560    1.1831 H   0  0  0  0  0  0  0  0  0  0  0  0
    4.7787    3.6330   -1.3219 H   0  0  0  0  0  0  0  0  0  0  0  0
    3.1303    3.8313   -0.7016 H   0  0  0  0  0  0  0  0  0  0  0  0
    4.4994    4.3967    0.2520 H   0  0  0  0  0  0  0  0  0  0  0  0
    6.3861    1.9187   -0.1432 H   0  0  0  0  0  0  0  0  0  0  0  0
    6.0661    2.8697    1.3168 H   0  0  0  0  0  0  0  0  0  0  0  0
    5.8113    1.1278    1.3416 H   0  0  0  0  0  0  0  0  0  0  0  0
  1  2  1  0
  2  3  1  0
  3  4  2  0
  3  5  1  0
  5  6  1  0
  6  7  1  0
  7  8  1  0
  8  9  1  0
  9 10  2  0
  9 11  1  0
 11 12  1  0
 12 13  1  0
 13 14  2  0
 13 15  1  0
 15 16  1  0
 11 17  1  0
 17 18  1  0
 18 19  2  0
 18 20  1  0
 20 21  1  0
 21 22  1  0
 22 23  2  0
 23 24  1  0
 24 25  2  0
 25 26  1  0
 26 27  2  0
  7 28  1  0
 28 29  2  0
 28 30  1  0
 30 31  1  0
 31 32  1  0
 32 33  2  0
 32 34  1  0
 34 35  1  0
 35 36  1  0
 36 37  1  0
 37 38  2  0
 37 39  1  0
 39 40  1  0
 35 41  1  0
 41 42  2  0
 41 43  1  0
 43 44  1  0
 31 45  1  0
 45 46  1  0
 45 47  1  0
 27 22  1  0
  1 48  1  0
  1 49  1  0
  1 50  1  0
  5 51  1  0
  5 52  1  0
  6 53  1  0
  6 54  1  0
  7 55  1  6
  8 56  1  0
 11 57  1  1
 12 58  1  0
 12 59  1  0
 16 60  1  0
 16 61  1  0
 16 62  1  0
 17 63  1  0
 21 64  1  0
 21 65  1  0
 23 66  1  0
 24 67  1  0
 25 68  1  0
 26 69  1  0
 27 70  1  0
 30 71  1  0
 31 72  1  6
 34 73  1  0
 35 74  1  1
 36 75  1  0
 36 76  1  0
 40 77  1  0
 40 78  1  0
 40 79  1  0
 43 80  1  0
 43 81  1  0
 45 82  1  0
 46 83  1  0
 46 84  1  0
 46 85  1  0
 47 86  1  0
 47 87  1  0
 47 88  1  0
M  END
$$$$
