
     RDKit          3D

 44 46  0  0  0  0  0  0  0  0999 V2000
    1.6212    2.7193    1.2043 C   0  0  0  0  0  0  0  0  0  0  0  0
    1.4361    1.2569    1.5140 C   0  0  0  0  0  0  0  0  0  0  0  0
    1.8178    0.7532    2.5674 O   0  0  0  0  0  0  0  0  0  0  0  0
    0.8232    0.3911    0.4757 C   0  0  0  0  0  0  0  0  0  0  0  0
   -0.5157    0.2384    0.4098 C   0  0  0  0  0  0  0  0  0  0  0  0
   -1.4601    1.0558    1.2663 C   0  0  0  0  0  0  0  0  0  0  0  0
   -1.0546   -0.6693   -0.5306 N   0  0  0  0  0  0  0  0  0  0  0  0
   -2.4377   -1.0780   -0.5138 C   0  0  0  0  0  0  0  0  0  0  0  0
   -3.1978   -1.0991   -1.6910 C   0  0  0  0  0  0  0  0  0  0  0  0
   -4.5381   -1.4914   -1.6727 C   0  0  0  0  0  0  0  0  0  0  0  0
   -5.1375   -1.8797   -0.4762 C   0  0  0  0  0  0  0  0  0  0  0  0
   -4.3974   -1.8899    0.7128 C   0  0  0  0  0  0  0  0  0  0  0  0
   -5.0176   -2.3227    2.0176 C   0  0  0  0  0  0  0  0  0  0  0  0
   -6.3018   -2.7598    1.8963 F   0  0  0  0  0  0  0  0  0  0  0  0
   -5.0514   -1.3121    2.9309 F   0  0  0  0  0  0  0  0  0  0  0  0
   -4.3307   -3.3381    2.6105 F   0  0  0  0  0  0  0  0  0  0  0  0
   -3.0489   -1.4890    0.6805 C   0  0  0  0  0  0  0  0  0  0  0  0
   -0.2430   -1.2357   -1.5353 C   0  0  0  0  0  0  0  0  0  0  0  0
   -0.5977   -2.0288   -2.4060 O   0  0  0  0  0  0  0  0  0  0  0  0
    1.0701   -0.8561   -1.5449 N   0  0  0  0  0  0  0  0  0  0  0  0
    1.7642   -0.4086   -0.3631 C   0  0  1  0  0  0  0  0  0  0  0  0
    3.0360    0.3120   -0.7610 C   0  0  0  0  0  0  0  0  0  0  0  0
    4.2383    0.0794   -0.0809 C   0  0  0  0  0  0  0  0  0  0  0  0
    5.3884    0.7809   -0.4395 C   0  0  0  0  0  0  0  0  0  0  0  0
    5.3029    1.7069   -1.4702 C   0  0  0  0  0  0  0  0  0  0  0  0
    6.4572    2.4603   -1.8774 C   0  0  0  0  0  0  0  0  0  0  0  0
    7.4137    3.0497   -2.1756 N   0  0  0  0  0  0  0  0  0  0  0  0
    4.1549    1.9643   -2.1432 N   0  0  0  0  0  0  0  0  0  0  0  0
    3.0566    1.2648   -1.7783 C   0  0  0  0  0  0  0  0  0  0  0  0
    2.6890    2.9439    1.1440 H   0  0  0  0  0  0  0  0  0  0  0  0
    1.1584    3.3154    1.9953 H   0  0  0  0  0  0  0  0  0  0  0  0
    1.1504    2.9822    0.2530 H   0  0  0  0  0  0  0  0  0  0  0  0
   -2.3569    1.3450    0.7079 H   0  0  0  0  0  0  0  0  0  0  0  0
   -1.0161    1.9983    1.5993 H   0  0  0  0  0  0  0  0  0  0  0  0
   -1.7530    0.5052    2.1646 H   0  0  0  0  0  0  0  0  0  0  0  0
   -2.7597   -0.7948   -2.6394 H   0  0  0  0  0  0  0  0  0  0  0  0
   -5.1113   -1.4964   -2.5971 H   0  0  0  0  0  0  0  0  0  0  0  0
   -6.1827   -2.1863   -0.4794 H   0  0  0  0  0  0  0  0  0  0  0  0
   -2.4670   -1.5474    1.5988 H   0  0  0  0  0  0  0  0  0  0  0  0
    1.5970   -1.3976   -2.2194 H   0  0  0  0  0  0  0  0  0  0  0  0
    2.0311   -1.3195    0.1895 H   0  0  0  0  0  0  0  0  0  0  0  0
    4.2853   -0.6378    0.7376 H   0  0  0  0  0  0  0  0  0  0  0  0
    6.3249    0.6075    0.0829 H   0  0  0  0  0  0  0  0  0  0  0  0
    2.1599    1.5075   -2.3461 H   0  0  0  0  0  0  0  0  0  0  0  0
  1  2  1  0
  2  3  2  0
  2  4  1  0
  4  5  2  0
  5  6  1  0
  5  7  1  0
  7  8  1  0
  8  9  2  0
  9 10  1  0
 10 11  2  0
 11 12  1  0
 12 13  1  0
 13 14  1  0
 13 15  1  0
 13 16  1  0
 12 17  2  0
  7 18  1  0
 18 19  2  0
 18 20  1  0
 20 21  1  0
 21 22  1  0
 22 23  2  0
 23 24  1  0
 24 25  2  0
 25 26  1  0
 26 27  3  0
 25 28  1  0
 28 29  2  0
 21  4  1  0
 29 22  1  0
 17  8  1  0
  1 30  1  0
  1 31  1  0
  1 32  1  0
  6 33  1  0
  6 34  1  0
  6 35  1  0
  9 36  1  0
 10 37  1  0
 11 38  1  0
 17 39  1  0
 20 40  1  0
 21 41  1  1
 23 42  1  0
 24 43  1  0
 29 44  1  0
M  END
$$$$
