
     RDKit          3D

 47 48  0  0  0  0  0  0  0  0999 V2000
   -5.5843   -0.2025   -2.1246 C   0  0  0  0  0  0  0  0  0  0  0  0
   -4.7364   -0.0862   -0.8906 C   0  0  0  0  0  0  0  0  0  0  0  0
   -3.4858   -0.4507   -0.9388 N   0  0  0  0  0  0  0  0  0  0  0  0
   -2.6648   -0.3645    0.2000 N   0  0  0  0  0  0  0  0  0  0  0  0
   -1.2769   -0.7783    0.0034 C   0  0  0  0  0  0  0  0  0  0  0  0
   -0.3865    0.4134   -0.3585 C   0  0  0  0  0  0  0  0  0  0  0  0
    0.9251    0.0016   -1.0241 C   0  0  0  0  0  0  0  0  0  0  0  0
    1.8715   -0.7587   -0.1161 C   0  0  0  0  0  0  0  0  0  0  0  0
    1.6046   -1.0734    1.0363 O   0  0  0  0  0  0  0  0  0  0  0  0
    3.0632   -1.0735   -0.7350 N   0  0  0  0  0  0  0  0  0  0  0  0
    4.1376   -1.7382   -0.0267 C   0  0  0  0  0  0  0  0  0  0  0  0
    4.9634   -0.7786    0.8334 C   0  0  0  0  0  0  0  0  0  0  0  0
    5.6406    0.3701    0.0597 C   0  0  0  0  0  0  0  0  0  0  0  0
    6.6266   -0.1366   -0.9935 C   0  0  0  0  0  0  0  0  0  0  0  0
    6.3634    1.2974    1.0404 C   0  0  0  0  0  0  0  0  0  0  0  0
   -3.0625    0.1489    1.4568 C   0  0  0  0  0  0  0  0  0  0  0  0
   -2.3124    0.2603    2.4223 O   0  0  0  0  0  0  0  0  0  0  0  0
   -4.4592    0.5375    1.4780 C   0  0  0  0  0  0  0  0  0  0  0  0
   -5.1374    1.0371    2.5178 N   0  0  0  0  0  0  0  0  0  0  0  0
   -6.4261    1.2471    2.0436 O   0  0  0  0  0  0  0  0  0  0  0  0
   -6.5004    0.8747    0.7313 C   0  0  0  0  0  0  0  0  0  0  0  0
   -7.8142    1.0418    0.0843 C   0  0  0  0  0  0  0  0  0  0  0  0
   -5.2675    0.4201    0.3390 C   0  0  0  0  0  0  0  0  0  0  0  0
   -5.9621    0.7838   -2.4074 H   0  0  0  0  0  0  0  0  0  0  0  0
   -4.9978   -0.6059   -2.9551 H   0  0  0  0  0  0  0  0  0  0  0  0
   -6.4272   -0.8718   -1.9318 H   0  0  0  0  0  0  0  0  0  0  0  0
   -1.2619   -1.5331   -0.7917 H   0  0  0  0  0  0  0  0  0  0  0  0
   -0.9249   -1.2607    0.9210 H   0  0  0  0  0  0  0  0  0  0  0  0
   -0.9233    1.0708   -1.0545 H   0  0  0  0  0  0  0  0  0  0  0  0
   -0.1879    1.0100    0.5402 H   0  0  0  0  0  0  0  0  0  0  0  0
    1.4446    0.9070   -1.3612 H   0  0  0  0  0  0  0  0  0  0  0  0
    0.7203   -0.6146   -1.9075 H   0  0  0  0  0  0  0  0  0  0  0  0
    3.2632   -0.6779   -1.6443 H   0  0  0  0  0  0  0  0  0  0  0  0
    3.7034   -2.5132    0.6154 H   0  0  0  0  0  0  0  0  0  0  0  0
    4.7601   -2.2429   -0.7713 H   0  0  0  0  0  0  0  0  0  0  0  0
    4.3130   -0.3469    1.6052 H   0  0  0  0  0  0  0  0  0  0  0  0
    5.7280   -1.3613    1.3630 H   0  0  0  0  0  0  0  0  0  0  0  0
    4.8705    0.9634   -0.4486 H   0  0  0  0  0  0  0  0  0  0  0  0
    7.1444    0.7002   -1.4748 H   0  0  0  0  0  0  0  0  0  0  0  0
    7.3837   -0.7899   -0.5470 H   0  0  0  0  0  0  0  0  0  0  0  0
    6.1147   -0.6957   -1.7825 H   0  0  0  0  0  0  0  0  0  0  0  0
    7.1567    0.7672    1.5784 H   0  0  0  0  0  0  0  0  0  0  0  0
    5.6644    1.7032    1.7794 H   0  0  0  0  0  0  0  0  0  0  0  0
    6.8180    2.1431    0.5135 H   0  0  0  0  0  0  0  0  0  0  0  0
   -8.5545    1.4465    0.7817 H   0  0  0  0  0  0  0  0  0  0  0  0
   -7.7397    1.7296   -0.7633 H   0  0  0  0  0  0  0  0  0  0  0  0
   -8.1872    0.0802   -0.2808 H   0  0  0  0  0  0  0  0  0  0  0  0
  1  2  1  0
  2  3  2  0
  3  4  1  0
  4  5  1  0
  5  6  1  0
  6  7  1  0
  7  8  1  0
  8  9  2  0
  8 10  1  0
 10 11  1  0
 11 12  1  0
 12 13  1  0
 13 14  1  0
 13 15  1  0
  4 16  1  0
 16 17  2  0
 16 18  1  0
 18 19  2  0
 19 20  1  0
 20 21  1  0
 21 22  1  0
 21 23  2  0
 23  2  1  0
 23 18  1  0
  1 24  1  0
  1 25  1  0
  1 26  1  0
  5 27  1  0
  5 28  1  0
  6 29  1  0
  6 30  1  0
  7 31  1  0
  7 32  1  0
 10 33  1  0
 11 34  1  0
 11 35  1  0
 12 36  1  0
 12 37  1  0
 13 38  1  0
 14 39  1  0
 14 40  1  0
 14 41  1  0
 15 42  1  0
 15 43  1  0
 15 44  1  0
 22 45  1  0
 22 46  1  0
 22 47  1  0
M  END
$$$$
