
     RDKit          3D

 30 32  0  0  0  0  0  0  0  0999 V2000
    0.1701   -2.0000    0.4349 O   0  0  0  0  0  0  0  0  0  0  0  0
    0.6473   -0.9092    0.1438 C   0  0  0  0  0  0  0  0  0  0  0  0
   -0.1919    0.2773   -0.1932 C   0  0  0  0  0  0  0  0  0  0  0  0
   -1.6677    0.2281   -0.2026 C   0  0  0  0  0  0  0  0  0  0  0  0
   -2.3430   -0.8338   -0.8320 C   0  0  0  0  0  0  0  0  0  0  0  0
   -3.7416   -0.8948   -0.8502 C   0  0  0  0  0  0  0  0  0  0  0  0
   -4.4696    0.1135   -0.2353 C   0  0  0  0  0  0  0  0  0  0  0  0
   -5.8364    0.1123   -0.2169 O   0  0  0  0  0  0  0  0  0  0  0  0
   -3.8137    1.1676    0.3925 C   0  0  0  0  0  0  0  0  0  0  0  0
   -4.5368    2.1560    0.9977 O   0  0  0  0  0  0  0  0  0  0  0  0
   -2.4263    1.2330    0.4187 C   0  0  0  0  0  0  0  0  0  0  0  0
    0.4576    1.4060   -0.5219 C   0  0  0  0  0  0  0  0  0  0  0  0
    1.8177    1.5952   -0.5658 O   0  0  0  0  0  0  0  0  0  0  0  0
    2.6199    0.5313   -0.2423 C   0  0  0  0  0  0  0  0  0  0  0  0
    3.9994    0.7412   -0.2818 C   0  0  0  0  0  0  0  0  0  0  0  0
    4.8550   -0.3098    0.0366 C   0  0  0  0  0  0  0  0  0  0  0  0
    6.2092   -0.1555    0.0130 O   0  0  0  0  0  0  0  0  0  0  0  0
    4.3547   -1.5595    0.3913 C   0  0  0  0  0  0  0  0  0  0  0  0
    2.9752   -1.7671    0.4301 C   0  0  0  0  0  0  0  0  0  0  0  0
    2.1087   -0.7157    0.1117 C   0  0  0  0  0  0  0  0  0  0  0  0
   -1.7797   -1.6337   -1.3109 H   0  0  0  0  0  0  0  0  0  0  0  0
   -4.2292   -1.7310   -1.3405 H   0  0  0  0  0  0  0  0  0  0  0  0
   -6.1424   -0.6979   -0.6603 H   0  0  0  0  0  0  0  0  0  0  0  0
   -5.4695    1.8928    0.8638 H   0  0  0  0  0  0  0  0  0  0  0  0
   -1.9515    2.0626    0.9351 H   0  0  0  0  0  0  0  0  0  0  0  0
   -0.0379    2.3271   -0.8072 H   0  0  0  0  0  0  0  0  0  0  0  0
    4.3842    1.7172   -0.5592 H   0  0  0  0  0  0  0  0  0  0  0  0
    6.4205    0.7581   -0.2415 H   0  0  0  0  0  0  0  0  0  0  0  0
    5.0366   -2.3693    0.6375 H   0  0  0  0  0  0  0  0  0  0  0  0
    2.5809   -2.7421    0.7078 H   0  0  0  0  0  0  0  0  0  0  0  0
  1  2  2  0
  2  3  1  0
  3  4  1  0
  4  5  2  0
  5  6  1  0
  6  7  2  0
  7  8  1  0
  7  9  1  0
  9 10  1  0
  9 11  2  0
  3 12  2  0
 12 13  1  0
 13 14  1  0
 14 15  2  0
 15 16  1  0
 16 17  1  0
 16 18  2  0
 18 19  1  0
 19 20  2  0
 20  2  1  0
 11  4  1  0
 20 14  1  0
  5 21  1  0
  6 22  1  0
  8 23  1  0
 10 24  1  0
 11 25  1  0
 12 26  1  0
 15 27  1  0
 17 28  1  0
 18 29  1  0
 19 30  1  0
M  END
$$$$
