
     RDKit          3D

 37 39  0  0  0  0  0  0  0  0999 V2000
   -4.9907    1.8221   -1.2144 C   0  0  0  0  0  0  0  0  0  0  0  0
   -3.6874    1.9881   -0.9513 C   0  0  0  0  0  0  0  0  0  0  0  0
   -3.0792    1.9476    0.4191 C   0  0  0  0  0  0  0  0  0  0  0  0
   -2.0927    0.8993    0.4726 N   0  0  0  0  0  0  0  0  0  0  0  0
   -0.7412    1.0999    0.2571 C   0  0  0  0  0  0  0  0  0  0  0  0
   -0.1284    2.1186    0.0049 O   0  0  0  0  0  0  0  0  0  0  0  0
   -0.0985   -0.2842    0.3731 C   0  0  0  0  0  0  0  0  0  0  0  0
    1.1533   -0.6035    0.2682 N   0  0  0  0  0  0  0  0  0  0  0  0
    2.0201    0.4263    0.0530 N   0  0  0  0  0  0  0  0  0  0  0  0
    3.3087    0.1312   -0.4511 C   0  0  0  0  0  0  0  0  0  0  0  0
    3.7557   -1.1782   -0.6652 C   0  0  0  0  0  0  0  0  0  0  0  0
    5.0427   -1.4269   -1.1553 C   0  0  0  0  0  0  0  0  0  0  0  0
    5.9112   -0.3674   -1.4158 C   0  0  0  0  0  0  0  0  0  0  0  0
    5.5035    0.9403   -1.1640 C   0  0  0  0  0  0  0  0  0  0  0  0
    4.2254    1.1749   -0.6641 C   0  0  0  0  0  0  0  0  0  0  0  0
    3.9021    2.4699   -0.3526 O   0  0  0  0  0  0  0  0  0  0  0  0
   -1.1876   -1.2155    0.6321 C   0  0  0  0  0  0  0  0  0  0  0  0
   -1.1602   -2.5852    0.8087 C   0  0  0  0  0  0  0  0  0  0  0  0
   -2.3809   -3.2186    1.0442 C   0  0  0  0  0  0  0  0  0  0  0  0
   -3.5768   -2.4763    1.0958 C   0  0  0  0  0  0  0  0  0  0  0  0
   -3.5756   -1.0866    0.9146 C   0  0  0  0  0  0  0  0  0  0  0  0
   -2.3628   -0.4650    0.6831 C   0  0  0  0  0  0  0  0  0  0  0  0
   -5.7172    1.6352   -0.4301 H   0  0  0  0  0  0  0  0  0  0  0  0
   -5.3591    1.8745   -2.2351 H   0  0  0  0  0  0  0  0  0  0  0  0
   -3.0065    2.1867   -1.7773 H   0  0  0  0  0  0  0  0  0  0  0  0
   -3.8251    1.7906    1.2057 H   0  0  0  0  0  0  0  0  0  0  0  0
   -2.5902    2.9086    0.6153 H   0  0  0  0  0  0  0  0  0  0  0  0
    1.6438    1.2986   -0.3415 H   0  0  0  0  0  0  0  0  0  0  0  0
    3.0939   -2.0170   -0.4677 H   0  0  0  0  0  0  0  0  0  0  0  0
    5.3637   -2.4500   -1.3323 H   0  0  0  0  0  0  0  0  0  0  0  0
    6.9098   -0.5615   -1.7975 H   0  0  0  0  0  0  0  0  0  0  0  0
    6.1819    1.7709   -1.3336 H   0  0  0  0  0  0  0  0  0  0  0  0
    3.2086    2.4168    0.3297 H   0  0  0  0  0  0  0  0  0  0  0  0
   -0.2289   -3.1400    0.7652 H   0  0  0  0  0  0  0  0  0  0  0  0
   -2.4108   -4.2970    1.1886 H   0  0  0  0  0  0  0  0  0  0  0  0
   -4.5174   -2.9933    1.2786 H   0  0  0  0  0  0  0  0  0  0  0  0
   -4.5073   -0.5342    0.9549 H   0  0  0  0  0  0  0  0  0  0  0  0
  1  2  2  3
  2  3  1  0
  3  4  1  0
  4  5  1  0
  5  6  2  0
  5  7  1  0
  7  8  2  3
  8  9  1  0
  9 10  1  0
 10 11  2  0
 11 12  1  0
 12 13  2  0
 13 14  1  0
 14 15  2  0
 15 16  1  0
  7 17  1  0
 17 18  2  0
 18 19  1  0
 19 20  2  0
 20 21  1  0
 21 22  2  0
 22  4  1  0
 15 10  1  0
 22 17  1  0
  1 23  1  0
  1 24  1  0
  2 25  1  0
  3 26  1  0
  3 27  1  0
  9 28  1  0
 11 29  1  0
 12 30  1  0
 13 31  1  0
 14 32  1  0
 16 33  1  0
 18 34  1  0
 19 35  1  0
 20 36  1  0
 21 37  1  0
M  END
$$$$
