
     RDKit          3D

 61 63  0  0  0  0  0  0  0  0999 V2000
    1.0766    4.1659    1.6970 C   0  0  0  0  0  0  0  0  0  0  0  0
    0.4642    2.9761    1.1401 N   0  0  0  0  0  0  0  0  0  0  0  0
   -0.5102    3.1244    0.1830 C   0  0  0  0  0  0  0  0  0  0  0  0
   -0.8833    4.1978   -0.2837 O   0  0  0  0  0  0  0  0  0  0  0  0
   -1.1618    1.8890   -0.2576 C   0  0  0  0  0  0  0  0  0  0  0  0
   -0.7056    0.6824    0.1095 C   0  0  0  0  0  0  0  0  0  0  0  0
   -1.4105   -0.4743   -0.2598 N   0  0  0  0  0  0  0  0  0  0  0  0
   -2.1728   -1.2143    0.7658 C   0  0  0  0  0  0  0  0  0  0  0  0
   -2.7565   -2.5019    0.2012 C   0  0  0  0  0  0  0  0  0  0  0  0
   -3.7074   -2.2463   -0.9695 C   0  0  0  0  0  0  0  0  0  0  0  0
   -3.3269   -1.0154   -1.8109 C   0  0  1  0  0  0  0  0  0  0  0  0
   -4.1499    0.1496   -1.4427 N   0  0  0  0  0  0  0  0  0  0  0  0
   -1.8160   -0.7150   -1.6724 C   0  0  0  0  0  0  0  0  0  0  0  0
    0.4475    0.6246    0.8864 N   0  0  0  0  0  0  0  0  0  0  0  0
    1.1062   -0.6614    1.1419 C   0  0  0  0  0  0  0  0  0  0  0  0
    2.5596   -0.7317    0.6913 C   0  0  0  0  0  0  0  0  0  0  0  0
    3.5635   -0.8293    1.6759 C   0  0  0  0  0  0  0  0  0  0  0  0
    4.9135   -0.9042    1.3302 C   0  0  0  0  0  0  0  0  0  0  0  0
    5.2896   -0.8873   -0.0073 C   0  0  0  0  0  0  0  0  0  0  0  0
    4.3131   -0.7941   -0.9977 C   0  0  0  0  0  0  0  0  0  0  0  0
    2.9504   -0.7170   -0.6607 C   0  0  0  0  0  0  0  0  0  0  0  0
    2.0087   -0.6399   -1.7411 C   0  0  0  0  0  0  0  0  0  0  0  0
    1.3000   -0.5966   -2.6597 N   0  0  0  0  0  0  0  0  0  0  0  0
    0.9887    1.7490    1.5139 C   0  0  0  0  0  0  0  0  0  0  0  0
    1.8906    1.6672    2.3518 O   0  0  0  0  0  0  0  0  0  0  0  0
    2.2595   -1.9698    0.0276 O   0  0  0  0  0  0  0  0  0  0  0  0
    1.9324   -0.8099   -0.1432 C   0  0  0  0  0  0  0  0  0  0  0  0
    2.8403    0.1299   -0.4621 O   0  0  0  0  0  0  0  0  0  0  0  0
    0.5560   -0.2694   -0.0343 C   0  0  0  0  0  0  0  0  0  0  0  0
    0.2695    1.0847   -0.2484 C   0  0  0  0  0  0  0  0  0  0  0  0
   -1.0433    1.5479   -0.1345 C   0  0  0  0  0  0  0  0  0  0  0  0
   -2.0710    0.6631    0.1925 C   0  0  0  0  0  0  0  0  0  0  0  0
   -1.7909   -0.6863    0.4067 C   0  0  0  0  0  0  0  0  0  0  0  0
   -0.4800   -1.1533    0.2939 C   0  0  0  0  0  0  0  0  0  0  0  0
    1.1993    4.0495    2.7786 H   0  0  0  0  0  0  0  0  0  0  0  0
    0.4802    5.0619    1.5047 H   0  0  0  0  0  0  0  0  0  0  0  0
    2.0663    4.2903    1.2457 H   0  0  0  0  0  0  0  0  0  0  0  0
   -2.0406    2.0216   -0.8750 H   0  0  0  0  0  0  0  0  0  0  0  0
   -1.5242   -1.4648    1.6125 H   0  0  0  0  0  0  0  0  0  0  0  0
   -2.9741   -0.5807    1.1646 H   0  0  0  0  0  0  0  0  0  0  0  0
   -1.9370   -3.1484   -0.1390 H   0  0  0  0  0  0  0  0  0  0  0  0
   -3.2827   -3.0559    0.9869 H   0  0  0  0  0  0  0  0  0  0  0  0
   -3.7096   -3.1364   -1.6119 H   0  0  0  0  0  0  0  0  0  0  0  0
   -4.7353   -2.1586   -0.5948 H   0  0  0  0  0  0  0  0  0  0  0  0
   -3.5456   -1.2328   -2.8628 H   0  0  0  0  0  0  0  0  0  0  0  0
   -5.1339   -0.1099   -1.4087 H   0  0  0  0  0  0  0  0  0  0  0  0
   -3.8923    0.4668   -0.5100 H   0  0  0  0  0  0  0  0  0  0  0  0
   -1.5465    0.1312   -2.3160 H   0  0  0  0  0  0  0  0  0  0  0  0
   -1.2492   -1.5781   -2.0426 H   0  0  0  0  0  0  0  0  0  0  0  0
    0.5874   -1.4967    0.6608 H   0  0  0  0  0  0  0  0  0  0  0  0
    1.0390   -0.8464    2.2221 H   0  0  0  0  0  0  0  0  0  0  0  0
    3.2960   -0.8214    2.7321 H   0  0  0  0  0  0  0  0  0  0  0  0
    5.6696   -0.9655    2.1093 H   0  0  0  0  0  0  0  0  0  0  0  0
    6.3407   -0.9414   -0.2794 H   0  0  0  0  0  0  0  0  0  0  0  0
    4.6215   -0.7813   -2.0424 H   0  0  0  0  0  0  0  0  0  0  0  0
    3.6852   -0.3656   -0.4977 H   0  0  0  0  0  0  0  0  0  0  0  0
    1.0600    1.7860   -0.5039 H   0  0  0  0  0  0  0  0  0  0  0  0
   -1.2640    2.5995   -0.3010 H   0  0  0  0  0  0  0  0  0  0  0  0
   -3.0923    1.0260    0.2806 H   0  0  0  0  0  0  0  0  0  0  0  0
   -2.5926   -1.3751    0.6615 H   0  0  0  0  0  0  0  0  0  0  0  0
   -0.2689   -2.2076    0.4624 H   0  0  0  0  0  0  0  0  0  0  0  0
  1  2  1  0
  2  3  1  0
  3  4  2  0
  3  5  1  0
  5  6  2  0
  6  7  1  0
  7  8  1  0
  8  9  1  0
  9 10  1  0
 10 11  1  0
 11 12  1  0
 11 13  1  0
  6 14  1  0
 14 15  1  0
 15 16  1  0
 16 17  2  0
 17 18  1  0
 18 19  2  0
 19 20  1  0
 20 21  2  0
 21 22  1  0
 22 23  3  0
 14 24  1  0
 24 25  2  0
 26 27  2  0
 27 28  1  0
 27 29  1  0
 29 30  2  0
 30 31  1  0
 31 32  2  0
 32 33  1  0
 33 34  2  0
 24  2  1  0
 34 29  1  0
 13  7  1  0
 21 16  1  0
  1 35  1  0
  1 36  1  0
  1 37  1  0
  5 38  1  0
  8 39  1  0
  8 40  1  0
  9 41  1  0
  9 42  1  0
 10 43  1  0
 10 44  1  0
 11 45  1  6
 12 46  1  0
 12 47  1  0
 13 48  1  0
 13 49  1  0
 15 50  1  0
 15 51  1  0
 17 52  1  0
 18 53  1  0
 19 54  1  0
 20 55  1  0
 28 56  1  0
 30 57  1  0
 31 58  1  0
 32 59  1  0
 33 60  1  0
 34 61  1  0
M  END
$$$$
