
     RDKit          3D

 51 53  0  0  0  0  0  0  0  0999 V2000
   -5.1780    1.8700   -2.3486 C   0  0  0  0  0  0  0  0  0  0  0  0
   -3.7948    1.2463   -2.2457 C   0  0  0  0  0  0  0  0  0  0  0  0
   -3.5527    0.6352   -0.8884 C   0  0  0  0  0  0  0  0  0  0  0  0
   -3.8921   -0.7025   -0.6421 C   0  0  0  0  0  0  0  0  0  0  0  0
   -3.6746   -1.2676    0.6153 C   0  0  0  0  0  0  0  0  0  0  0  0
   -3.1052   -0.4939    1.6305 C   0  0  0  0  0  0  0  0  0  0  0  0
   -2.8258   -1.2095    3.2345 S   0  0  0  0  0  6  0  0  0  0  0  0
   -3.5260   -2.4768    3.2715 O   0  0  0  0  0  0  0  0  0  0  0  0
   -3.0907   -0.1835    4.2198 O   0  0  0  0  0  0  0  0  0  0  0  0
   -1.1729   -1.5435    3.2433 N   0  0  0  0  0  0  0  0  0  0  0  0
   -0.6428   -2.7029    2.4893 C   0  0  0  0  0  0  0  0  0  0  0  0
   -0.1544   -2.3145    1.1025 C   0  0  0  0  0  0  0  0  0  0  0  0
    0.5751   -1.0654    1.1516 N   0  0  0  0  0  0  0  0  0  0  0  0
    1.3124   -0.6649    0.1018 N   0  0  0  0  0  0  0  0  0  0  0  0
    1.7667    0.5528    0.4738 C   0  0  0  0  0  0  0  0  0  0  0  0
    2.6217    1.3732   -0.4012 C   0  0  0  0  0  0  0  0  0  0  0  0
    3.0259    2.4846   -0.0765 O   0  0  0  0  0  0  0  0  0  0  0  0
    2.8888    0.7674   -1.6080 N   0  0  0  0  0  0  0  0  0  0  0  0
    3.8062    1.3080   -2.5895 C   0  0  0  0  0  0  0  0  0  0  0  0
    5.0362    0.4173   -2.7805 C   0  0  0  0  0  0  0  0  0  0  0  0
    5.8371    0.4277   -1.5980 O   0  0  0  0  0  0  0  0  0  0  0  0
    6.9912   -0.3883   -1.7351 C   0  0  0  0  0  0  0  0  0  0  0  0
    1.3037    0.8921    1.7731 C   0  0  0  0  0  0  0  0  0  0  0  0
    0.5331   -0.1732    2.1825 C   0  0  0  0  0  0  0  0  0  0  0  0
   -0.2240   -0.4342    3.4321 C   0  0  0  0  0  0  0  0  0  0  0  0
   -2.8028    0.8519    1.4115 C   0  0  0  0  0  0  0  0  0  0  0  0
   -3.0184    1.4099    0.1509 C   0  0  0  0  0  0  0  0  0  0  0  0
   -5.3108    2.6661   -1.6082 H   0  0  0  0  0  0  0  0  0  0  0  0
   -5.3242    2.3037   -3.3426 H   0  0  0  0  0  0  0  0  0  0  0  0
   -5.9633    1.1243   -2.1849 H   0  0  0  0  0  0  0  0  0  0  0  0
   -3.6751    0.4800   -3.0213 H   0  0  0  0  0  0  0  0  0  0  0  0
   -3.0294    2.0052   -2.4495 H   0  0  0  0  0  0  0  0  0  0  0  0
   -4.3333   -1.3094   -1.4304 H   0  0  0  0  0  0  0  0  0  0  0  0
   -3.9522   -2.3044    0.7911 H   0  0  0  0  0  0  0  0  0  0  0  0
    0.1907   -3.1172    3.0723 H   0  0  0  0  0  0  0  0  0  0  0  0
   -1.3811   -3.5076    2.4189 H   0  0  0  0  0  0  0  0  0  0  0  0
   -0.9843   -2.1676    0.4063 H   0  0  0  0  0  0  0  0  0  0  0  0
    0.5098   -3.0848    0.6962 H   0  0  0  0  0  0  0  0  0  0  0  0
    2.5024   -0.1667   -1.7119 H   0  0  0  0  0  0  0  0  0  0  0  0
    4.1144    2.3150   -2.2901 H   0  0  0  0  0  0  0  0  0  0  0  0
    3.2521    1.3765   -3.5307 H   0  0  0  0  0  0  0  0  0  0  0  0
    4.7274   -0.6110   -3.0025 H   0  0  0  0  0  0  0  0  0  0  0  0
    5.6305    0.7993   -3.6182 H   0  0  0  0  0  0  0  0  0  0  0  0
    6.7057   -1.4290   -1.9160 H   0  0  0  0  0  0  0  0  0  0  0  0
    7.6235   -0.0238   -2.5502 H   0  0  0  0  0  0  0  0  0  0  0  0
    7.5605   -0.3396   -0.8033 H   0  0  0  0  0  0  0  0  0  0  0  0
    1.5153    1.8033    2.3167 H   0  0  0  0  0  0  0  0  0  0  0  0
    0.4733   -0.7144    4.2306 H   0  0  0  0  0  0  0  0  0  0  0  0
   -0.7223    0.4811    3.7649 H   0  0  0  0  0  0  0  0  0  0  0  0
   -2.4022    1.4723    2.2093 H   0  0  0  0  0  0  0  0  0  0  0  0
   -2.7708    2.4565   -0.0168 H   0  0  0  0  0  0  0  0  0  0  0  0
  1  2  1  0
  2  3  1  0
  3  4  2  0
  4  5  1  0
  5  6  2  0
  6  7  1  0
  7  8  2  0
  7  9  2  0
  7 10  1  0
 10 11  1  0
 11 12  1  0
 12 13  1  0
 13 14  1  0
 14 15  2  0
 15 16  1  0
 16 17  2  0
 16 18  1  0
 18 19  1  0
 19 20  1  0
 20 21  1  0
 21 22  1  0
 15 23  1  0
 23 24  2  0
 24 25  1  0
  6 26  1  0
 26 27  2  0
 27  3  1  0
 25 10  1  0
 24 13  1  0
  1 28  1  0
  1 29  1  0
  1 30  1  0
  2 31  1  0
  2 32  1  0
  4 33  1  0
  5 34  1  0
 11 35  1  0
 11 36  1  0
 12 37  1  0
 12 38  1  0
 18 39  1  0
 19 40  1  0
 19 41  1  0
 20 42  1  0
 20 43  1  0
 22 44  1  0
 22 45  1  0
 22 46  1  0
 23 47  1  0
 25 48  1  0
 25 49  1  0
 26 50  1  0
 27 51  1  0
M  END
$$$$
