
     RDKit          3D

 43 44  0  0  0  0  0  0  0  0999 V2000
   -6.1967    1.1878   -2.4208 C   0  0  0  0  0  0  0  0  0  0  0  0
   -6.5861    0.8485   -1.0945 O   0  0  0  0  0  0  0  0  0  0  0  0
   -5.6268    0.2786   -0.2971 C   0  0  0  0  0  0  0  0  0  0  0  0
   -4.3119   -0.0135   -0.6663 C   0  0  0  0  0  0  0  0  0  0  0  0
   -3.4250   -0.5959    0.2574 C   0  0  0  0  0  0  0  0  0  0  0  0
   -2.0416   -0.9437   -0.1031 C   0  0  0  0  0  0  0  0  0  0  0  0
   -1.2562   -0.1467   -0.8424 C   0  0  0  0  0  0  0  0  0  0  0  0
    0.1520   -0.4553   -1.2227 C   0  0  0  0  0  0  0  0  0  0  0  0
    0.7649    0.3926   -1.8696 O   0  0  0  0  0  0  0  0  0  0  0  0
    0.7725   -1.7564   -0.7831 C   0  0  0  0  0  0  0  0  0  0  0  0
    2.1272   -2.0300   -1.3857 C   0  0  0  0  0  0  0  0  0  0  0  0
    2.2661   -2.8807   -2.2673 O   0  0  0  0  0  0  0  0  0  0  0  0
    3.3427   -1.3169   -0.9019 C   0  0  0  0  0  0  0  0  0  0  0  0
    3.3652   -0.4083    0.0843 C   0  0  0  0  0  0  0  0  0  0  0  0
    4.5980    0.2602    0.5239 C   0  0  0  0  0  0  0  0  0  0  0  0
    5.5414    0.7527   -0.3880 C   0  0  0  0  0  0  0  0  0  0  0  0
    6.6895    1.4069    0.0651 C   0  0  0  0  0  0  0  0  0  0  0  0
    6.8919    1.5797    1.4283 C   0  0  0  0  0  0  0  0  0  0  0  0
    8.0255    2.2234    1.8257 O   0  0  0  0  0  0  0  0  0  0  0  0
    5.9612    1.1133    2.3500 C   0  0  0  0  0  0  0  0  0  0  0  0
    4.8121    0.4592    1.8952 C   0  0  0  0  0  0  0  0  0  0  0  0
   -3.8810   -0.9076    1.5465 C   0  0  0  0  0  0  0  0  0  0  0  0
   -5.1927   -0.6190    1.9216 C   0  0  0  0  0  0  0  0  0  0  0  0
   -6.0474   -0.0295    1.0009 C   0  0  0  0  0  0  0  0  0  0  0  0
   -7.3295    0.2431    1.3933 O   0  0  0  0  0  0  0  0  0  0  0  0
   -5.3914    1.9297   -2.4182 H   0  0  0  0  0  0  0  0  0  0  0  0
   -7.0619    1.6371   -2.9178 H   0  0  0  0  0  0  0  0  0  0  0  0
   -5.9127    0.2955   -2.9883 H   0  0  0  0  0  0  0  0  0  0  0  0
   -3.9612    0.1932   -1.6719 H   0  0  0  0  0  0  0  0  0  0  0  0
   -1.6903   -1.8922    0.2934 H   0  0  0  0  0  0  0  0  0  0  0  0
   -1.6025    0.8149   -1.2118 H   0  0  0  0  0  0  0  0  0  0  0  0
    0.8491   -1.7877    0.3084 H   0  0  0  0  0  0  0  0  0  0  0  0
    0.1172   -2.5794   -1.0932 H   0  0  0  0  0  0  0  0  0  0  0  0
    4.2493   -1.6102   -1.4244 H   0  0  0  0  0  0  0  0  0  0  0  0
    2.4695   -0.1164    0.6228 H   0  0  0  0  0  0  0  0  0  0  0  0
    5.3896    0.6457   -1.4597 H   0  0  0  0  0  0  0  0  0  0  0  0
    7.4190    1.7853   -0.6455 H   0  0  0  0  0  0  0  0  0  0  0  0
    8.0319    2.2733    2.7954 H   0  0  0  0  0  0  0  0  0  0  0  0
    6.1084    1.2486    3.4166 H   0  0  0  0  0  0  0  0  0  0  0  0
    4.0894    0.0987    2.6236 H   0  0  0  0  0  0  0  0  0  0  0  0
   -3.2184   -1.3699    2.2747 H   0  0  0  0  0  0  0  0  0  0  0  0
   -5.5467   -0.8521    2.9213 H   0  0  0  0  0  0  0  0  0  0  0  0
   -7.7537    0.6436    0.6094 H   0  0  0  0  0  0  0  0  0  0  0  0
  1  2  1  0
  2  3  1  0
  3  4  2  0
  4  5  1  0
  5  6  1  0
  6  7  2  0
  7  8  1  0
  8  9  2  0
  8 10  1  0
 10 11  1  0
 11 12  2  0
 11 13  1  0
 13 14  2  0
 14 15  1  0
 15 16  2  0
 16 17  1  0
 17 18  2  0
 18 19  1  0
 18 20  1  0
 20 21  2  0
  5 22  2  0
 22 23  1  0
 23 24  2  0
 24 25  1  0
 24  3  1  0
 21 15  1  0
  1 26  1  0
  1 27  1  0
  1 28  1  0
  4 29  1  0
  6 30  1  0
  7 31  1  0
 10 32  1  0
 10 33  1  0
 13 34  1  0
 14 35  1  0
 16 36  1  0
 17 37  1  0
 19 38  1  0
 20 39  1  0
 21 40  1  0
 22 41  1  0
 23 42  1  0
 25 43  1  0
M  END
$$$$
