
     RDKit          3D

 74 79  0  0  0  0  0  0  0  0999 V2000
   13.5553   -1.6223    3.0282 C   0  0  0  0  0  0  0  0  0  0  0  0
   13.5506   -0.5792    2.0625 O   0  0  0  0  0  0  0  0  0  0  0  0
   12.3918   -0.5945    1.2252 C   0  0  0  0  0  0  0  0  0  0  0  0
   11.2027    0.1127    1.8943 C   0  0  0  0  0  0  0  0  0  0  0  0
   10.0186    0.1006    1.0310 N   0  0  0  0  0  0  0  0  0  0  0  0
    8.9026    0.8104    1.6593 C   0  0  0  0  0  0  0  0  0  0  0  0
    7.6779    0.8122    0.7828 C   0  0  0  0  0  0  0  0  0  0  0  0
    7.7335    1.1531   -0.5710 C   0  0  0  0  0  0  0  0  0  0  0  0
    6.5662    1.1689   -1.3336 C   0  0  0  0  0  0  0  0  0  0  0  0
    5.3567    0.8505   -0.7223 C   0  0  0  0  0  0  0  0  0  0  0  0
    4.0877    0.8548   -1.4676 C   0  0  0  0  0  0  0  0  0  0  0  0
    3.7604    1.5382   -2.6248 C   0  0  0  0  0  0  0  0  0  0  0  0
    2.4353    1.2806   -3.0794 C   0  0  0  0  0  0  0  0  0  0  0  0
    1.8834    1.8205   -4.2002 N   0  0  0  0  0  0  0  0  0  0  0  0
    0.6238    1.4345   -4.4722 C   0  0  0  0  0  0  0  0  0  0  0  0
   -0.1252    0.5567   -3.7115 C   0  0  0  0  0  0  0  0  0  0  0  0
    0.4316    0.0295   -2.5450 C   0  0  0  0  0  0  0  0  0  0  0  0
   -0.2135   -0.8832   -1.7352 O   0  0  0  0  0  0  0  0  0  0  0  0
   -1.5795   -0.8043   -1.6231 C   0  0  0  0  0  0  0  0  0  0  0  0
   -2.3041   -1.9697   -1.8599 C   0  0  0  0  0  0  0  0  0  0  0  0
   -3.6976   -1.9568   -1.7479 C   0  0  0  0  0  0  0  0  0  0  0  0
   -4.3777   -0.7843   -1.3872 C   0  0  0  0  0  0  0  0  0  0  0  0
   -5.7839   -0.8518   -1.3339 N   0  0  0  0  0  0  0  0  0  0  0  0
   -6.6611    0.1642   -1.0205 C   0  0  0  0  0  0  0  0  0  0  0  0
   -6.3982    1.3048   -0.6689 O   0  0  0  0  0  0  0  0  0  0  0  0
   -8.1012   -0.2345   -1.1313 C   0  0  0  0  0  0  0  0  0  0  0  0
   -8.7107   -0.8139    0.1098 C   0  0  0  0  0  0  0  0  0  0  0  0
   -8.8633   -2.0251    0.1800 O   0  0  0  0  0  0  0  0  0  0  0  0
   -9.0208    0.1422    1.0534 N   0  0  0  0  0  0  0  0  0  0  0  0
   -9.6805   -0.0473    2.2824 C   0  0  0  0  0  0  0  0  0  0  0  0
  -10.1923   -1.2762    2.7116 C   0  0  0  0  0  0  0  0  0  0  0  0
  -10.8607   -1.3732    3.9371 C   0  0  0  0  0  0  0  0  0  0  0  0
  -11.0126   -0.2437    4.7303 C   0  0  0  0  0  0  0  0  0  0  0  0
  -11.6586   -0.3378    5.9002 F   0  0  0  0  0  0  0  0  0  0  0  0
  -10.5063    0.9840    4.3240 C   0  0  0  0  0  0  0  0  0  0  0  0
   -9.8422    1.0819    3.0986 C   0  0  0  0  0  0  0  0  0  0  0  0
   -8.6124   -0.7329   -2.4852 C   0  0  0  0  0  0  0  0  0  0  0  0
   -9.0062    0.6307   -2.0139 C   0  0  0  0  0  0  0  0  0  0  0  0
   -3.6404    0.3703   -1.1167 C   0  0  0  0  0  0  0  0  0  0  0  0
   -2.2499    0.3513   -1.2239 C   0  0  0  0  0  0  0  0  0  0  0  0
   -1.5681    1.4717   -0.9447 F   0  0  0  0  0  0  0  0  0  0  0  0
    1.7559    0.3959   -2.2460 C   0  0  0  0  0  0  0  0  0  0  0  0
    2.7564   -0.0941   -0.9364 S   0  0  0  0  0  0  0  0  0  0  0  0
    5.2759    0.5348    0.5915 N   0  0  0  0  0  0  0  0  0  0  0  0
    6.4234    0.5272    1.3075 C   0  0  0  0  0  0  0  0  0  0  0  0
   12.7149   -1.5223    3.7202 H   0  0  0  0  0  0  0  0  0  0  0  0
   14.4828   -1.5493    3.6026 H   0  0  0  0  0  0  0  0  0  0  0  0
   13.5287   -2.5998    2.5376 H   0  0  0  0  0  0  0  0  0  0  0  0
   12.6590   -0.0551    0.3105 H   0  0  0  0  0  0  0  0  0  0  0  0
   12.1445   -1.6226    0.9365 H   0  0  0  0  0  0  0  0  0  0  0  0
   11.5001    1.1451    2.1227 H   0  0  0  0  0  0  0  0  0  0  0  0
   10.9743   -0.3675    2.8535 H   0  0  0  0  0  0  0  0  0  0  0  0
    9.7356   -0.8618    0.8480 H   0  0  0  0  0  0  0  0  0  0  0  0
    8.6657    0.3365    2.6188 H   0  0  0  0  0  0  0  0  0  0  0  0
    9.1746    1.8531    1.8625 H   0  0  0  0  0  0  0  0  0  0  0  0
    8.6867    1.4011   -1.0344 H   0  0  0  0  0  0  0  0  0  0  0  0
    6.6196    1.4173   -2.3876 H   0  0  0  0  0  0  0  0  0  0  0  0
    4.4338    2.2086   -3.1417 H   0  0  0  0  0  0  0  0  0  0  0  0
    0.2038    1.8688   -5.3775 H   0  0  0  0  0  0  0  0  0  0  0  0
   -1.1253    0.2927   -4.0358 H   0  0  0  0  0  0  0  0  0  0  0  0
   -1.7870   -2.8836   -2.1392 H   0  0  0  0  0  0  0  0  0  0  0  0
   -4.2409   -2.8769   -1.9493 H   0  0  0  0  0  0  0  0  0  0  0  0
   -6.2033   -1.7519   -1.5404 H   0  0  0  0  0  0  0  0  0  0  0  0
   -8.7312    1.0912    0.8383 H   0  0  0  0  0  0  0  0  0  0  0  0
  -10.0975   -2.1761    2.1128 H   0  0  0  0  0  0  0  0  0  0  0  0
  -11.2675   -2.3231    4.2715 H   0  0  0  0  0  0  0  0  0  0  0  0
  -10.6331    1.8549    4.9591 H   0  0  0  0  0  0  0  0  0  0  0  0
   -9.4527    2.0510    2.7938 H   0  0  0  0  0  0  0  0  0  0  0  0
   -9.3702   -1.5098   -2.4883 H   0  0  0  0  0  0  0  0  0  0  0  0
   -7.9228   -0.7928   -3.3200 H   0  0  0  0  0  0  0  0  0  0  0  0
  -10.0367    0.7816   -1.7097 H   0  0  0  0  0  0  0  0  0  0  0  0
   -8.5662    1.4897   -2.5110 H   0  0  0  0  0  0  0  0  0  0  0  0
   -4.1041    1.3037   -0.8173 H   0  0  0  0  0  0  0  0  0  0  0  0
    6.2916    0.2749    2.3566 H   0  0  0  0  0  0  0  0  0  0  0  0
  1  2  1  0
  2  3  1  0
  3  4  1  0
  4  5  1  0
  5  6  1  0
  6  7  1  0
  7  8  2  0
  8  9  1  0
  9 10  2  0
 10 11  1  0
 11 12  2  0
 12 13  1  0
 13 14  2  0
 14 15  1  0
 15 16  2  0
 16 17  1  0
 17 18  1  0
 18 19  1  0
 19 20  2  0
 20 21  1  0
 21 22  2  0
 22 23  1  0
 23 24  1  0
 24 25  2  0
 24 26  1  0
 26 27  1  0
 27 28  2  0
 27 29  1  0
 29 30  1  0
 30 31  2  0
 31 32  1  0
 32 33  2  0
 33 34  1  0
 33 35  1  0
 35 36  2  0
 26 37  1  0
 37 38  1  0
 22 39  1  0
 39 40  2  0
 40 41  1  0
 17 42  2  0
 42 43  1  0
 10 44  1  0
 44 45  2  0
 45  7  1  0
 43 11  1  0
 42 13  1  0
 40 19  1  0
 38 26  1  0
 36 30  1  0
  1 46  1  0
  1 47  1  0
  1 48  1  0
  3 49  1  0
  3 50  1  0
  4 51  1  0
  4 52  1  0
  5 53  1  0
  6 54  1  0
  6 55  1  0
  8 56  1  0
  9 57  1  0
 12 58  1  0
 15 59  1  0
 16 60  1  0
 20 61  1  0
 21 62  1  0
 23 63  1  0
 29 64  1  0
 31 65  1  0
 32 66  1  0
 35 67  1  0
 36 68  1  0
 37 69  1  0
 37 70  1  0
 38 71  1  0
 38 72  1  0
 39 73  1  0
 45 74  1  0
M  END
$$$$
