
     RDKit          3D

 25 26  0  0  0  0  0  0  0  0999 V2000
   -3.6855    1.9180   -0.3397 C   0  0  0  0  0  0  0  0  0  0  0  0
   -2.2817    1.6927   -0.3251 O   0  0  0  0  0  0  0  0  0  0  0  0
   -1.8503    0.4119   -0.1140 C   0  0  0  0  0  0  0  0  0  0  0  0
   -2.6740   -0.6960    0.0889 C   0  0  0  0  0  0  0  0  0  0  0  0
   -2.1050   -1.9572    0.2943 C   0  0  0  0  0  0  0  0  0  0  0  0
   -3.2320   -3.4528    0.5684 Br  0  0  0  0  0  0  0  0  0  0  0  0
   -0.7202   -2.1327    0.3007 C   0  0  0  0  0  0  0  0  0  0  0  0
    0.1121   -1.0320    0.0990 C   0  0  0  0  0  0  0  0  0  0  0  0
    1.5607   -1.1560    0.0956 C   0  0  0  0  0  0  0  0  0  0  0  0
    2.3469   -0.0840   -0.1005 C   0  0  0  0  0  0  0  0  0  0  0  0
    3.8189   -0.3290   -0.0836 C   0  0  0  0  0  0  0  0  0  0  0  0
    4.6257    0.7453   -0.2805 N   0  0  0  0  0  0  0  0  0  0  0  0
    4.3060   -1.4409    0.0977 O   0  0  0  0  0  0  0  0  0  0  0  0
    1.7560    1.2553   -0.3189 C   0  0  0  0  0  0  0  0  0  0  0  0
    2.4496    2.2532   -0.5008 O   0  0  0  0  0  0  0  0  0  0  0  0
    0.3693    1.3439   -0.3105 O   0  0  0  0  0  0  0  0  0  0  0  0
   -0.4615    0.2205   -0.1049 C   0  0  0  0  0  0  0  0  0  0  0  0
   -3.8512    2.9847   -0.5188 H   0  0  0  0  0  0  0  0  0  0  0  0
   -4.1651    1.3649   -1.1540 H   0  0  0  0  0  0  0  0  0  0  0  0
   -4.1349    1.6686    0.6271 H   0  0  0  0  0  0  0  0  0  0  0  0
   -3.7550   -0.6047    0.0916 H   0  0  0  0  0  0  0  0  0  0  0  0
   -0.2974   -3.1216    0.4622 H   0  0  0  0  0  0  0  0  0  0  0  0
    1.9827   -2.1451    0.2571 H   0  0  0  0  0  0  0  0  0  0  0  0
    4.2588    1.6830   -0.4342 H   0  0  0  0  0  0  0  0  0  0  0  0
    5.6272    0.6101   -0.2744 H   0  0  0  0  0  0  0  0  0  0  0  0
  1  2  1  0
  2  3  1  0
  3  4  2  0
  4  5  1  0
  5  6  1  0
  5  7  2  0
  7  8  1  0
  8  9  1  0
  9 10  2  0
 10 11  1  0
 11 12  1  0
 11 13  2  0
 10 14  1  0
 14 15  2  0
 14 16  1  0
 16 17  1  0
 17  3  1  0
 17  8  2  0
  1 18  1  0
  1 19  1  0
  1 20  1  0
  4 21  1  0
  7 22  1  0
  9 23  1  0
 12 24  1  0
 12 25  1  0
M  END
$$$$
