
     RDKit          3D

 68 72  0  0  0  0  0  0  0  0999 V2000
   -3.7700   -4.6186   -2.4831 C   0  0  0  0  0  0  0  0  0  0  0  0
   -4.4490   -3.3607   -2.2694 N   0  0  0  0  0  0  0  0  0  0  0  0
   -3.6772   -2.4018   -1.6239 C   0  0  0  0  0  0  0  0  0  0  0  0
   -4.3434   -1.5920   -0.8047 N   0  0  0  0  0  0  0  0  0  0  0  0
   -3.6269   -0.6495   -0.1648 C   0  0  0  0  0  0  0  0  0  0  0  0
   -4.4007    0.2429    0.7231 C   0  0  0  0  0  0  0  0  0  0  0  0
   -3.8951    0.6598    1.9698 C   0  0  0  0  0  0  0  0  0  0  0  0
   -4.6204    1.5069    2.8244 C   0  0  0  0  0  0  0  0  0  0  0  0
   -5.8925    1.9501    2.4231 C   0  0  0  0  0  0  0  0  0  0  0  0
   -6.9174    2.7744    2.9597 C   0  0  0  0  0  0  0  0  0  0  0  0
   -6.8644    3.3772    4.1578 N   0  0  0  0  0  0  0  0  0  0  0  0
   -7.9631    2.8770    2.1460 N   0  0  0  0  0  0  0  0  0  0  0  0
   -7.6159    2.1269    1.0861 N   0  0  0  0  0  0  0  0  0  0  0  0
   -6.3860    1.5362    1.1934 C   0  0  0  0  0  0  0  0  0  0  0  0
   -5.6792    0.6902    0.3303 C   0  0  0  0  0  0  0  0  0  0  0  0
   -2.2606   -0.5204   -0.3438 C   0  0  0  0  0  0  0  0  0  0  0  0
   -1.6261   -1.4107   -1.1881 C   0  0  0  0  0  0  0  0  0  0  0  0
   -0.2499   -1.3411   -1.4485 N   0  0  0  0  0  0  0  0  0  0  0  0
    0.6673   -0.8885   -0.3862 C   0  0  0  0  0  0  0  0  0  0  0  0
    1.9735   -0.3648   -1.0000 C   0  0  1  0  0  0  0  0  0  0  0  0
    2.9298    0.0632    0.1051 C   0  0  0  0  0  0  0  0  0  0  0  0
    2.6766   -0.0719    1.2978 O   0  0  0  0  0  0  0  0  0  0  0  0
    4.0971    0.6375   -0.3578 N   0  0  0  0  0  0  0  0  0  0  0  0
    5.0688    1.2347    0.5485 C   0  0  0  0  0  0  0  0  0  0  0  0
    6.4766    1.1799   -0.0659 C   0  0  0  0  0  0  0  0  0  0  0  0
    7.4188    2.2666    0.4579 C   0  0  0  0  0  0  0  0  0  0  0  0
    7.0481    2.7166    1.8639 C   0  0  0  0  0  0  0  0  0  0  0  0
    5.6337    3.2960    1.9190 C   0  0  0  0  0  0  0  0  0  0  0  0
    4.6744    2.6707    0.9037 C   0  0  0  0  0  0  0  0  0  0  0  0
    2.6072   -1.4134   -1.9185 C   0  0  0  0  0  0  0  0  0  0  0  0
    1.6047   -1.8745   -2.9734 C   0  0  0  0  0  0  0  0  0  0  0  0
    0.2826   -2.3751   -2.3664 C   0  0  1  0  0  0  0  0  0  0  0  0
    0.4658   -3.7327   -1.6760 C   0  0  0  0  0  0  0  0  0  0  0  0
   -2.3570   -2.3392   -1.8305 N   0  0  0  0  0  0  0  0  0  0  0  0
   -3.4033   -5.0453   -1.5425 H   0  0  0  0  0  0  0  0  0  0  0  0
   -2.9354   -4.5139   -3.1850 H   0  0  0  0  0  0  0  0  0  0  0  0
   -4.4725   -5.3355   -2.9204 H   0  0  0  0  0  0  0  0  0  0  0  0
   -5.3106   -3.4168   -1.7371 H   0  0  0  0  0  0  0  0  0  0  0  0
   -2.9206    0.3123    2.3091 H   0  0  0  0  0  0  0  0  0  0  0  0
   -4.2029    1.8126    3.7789 H   0  0  0  0  0  0  0  0  0  0  0  0
   -6.2933    2.9702    4.8871 H   0  0  0  0  0  0  0  0  0  0  0  0
   -7.7535    3.7253    4.5006 H   0  0  0  0  0  0  0  0  0  0  0  0
   -8.2685    2.0553    0.3147 H   0  0  0  0  0  0  0  0  0  0  0  0
   -6.1011    0.3870   -0.6244 H   0  0  0  0  0  0  0  0  0  0  0  0
   -1.7346    0.2891    0.1404 H   0  0  0  0  0  0  0  0  0  0  0  0
    0.2457   -0.0720    0.2069 H   0  0  0  0  0  0  0  0  0  0  0  0
    0.8582   -1.7107    0.3144 H   0  0  0  0  0  0  0  0  0  0  0  0
    1.7403    0.5315   -1.5917 H   0  0  0  0  0  0  0  0  0  0  0  0
    4.1299    0.9214   -1.3290 H   0  0  0  0  0  0  0  0  0  0  0  0
    5.0694    0.6412    1.4725 H   0  0  0  0  0  0  0  0  0  0  0  0
    6.4334    1.2591   -1.1598 H   0  0  0  0  0  0  0  0  0  0  0  0
    6.9062    0.1912    0.1407 H   0  0  0  0  0  0  0  0  0  0  0  0
    8.4513    1.8992    0.4363 H   0  0  0  0  0  0  0  0  0  0  0  0
    7.3821    3.1323   -0.2161 H   0  0  0  0  0  0  0  0  0  0  0  0
    7.7651    3.4619    2.2261 H   0  0  0  0  0  0  0  0  0  0  0  0
    7.1172    1.8597    2.5462 H   0  0  0  0  0  0  0  0  0  0  0  0
    5.2383    3.1630    2.9337 H   0  0  0  0  0  0  0  0  0  0  0  0
    5.6699    4.3791    1.7458 H   0  0  0  0  0  0  0  0  0  0  0  0
    4.6677    3.2801   -0.0104 H   0  0  0  0  0  0  0  0  0  0  0  0
    3.6518    2.7118    1.2984 H   0  0  0  0  0  0  0  0  0  0  0  0
    3.4887   -1.0029   -2.4244 H   0  0  0  0  0  0  0  0  0  0  0  0
    2.9644   -2.2675   -1.3307 H   0  0  0  0  0  0  0  0  0  0  0  0
    2.0571   -2.6554   -3.5958 H   0  0  0  0  0  0  0  0  0  0  0  0
    1.3886   -1.0287   -3.6400 H   0  0  0  0  0  0  0  0  0  0  0  0
   -0.3961   -2.5133   -3.2188 H   0  0  0  0  0  0  0  0  0  0  0  0
    0.8497   -4.4716   -2.3870 H   0  0  0  0  0  0  0  0  0  0  0  0
   -0.4802   -4.1174   -1.2829 H   0  0  0  0  0  0  0  0  0  0  0  0
    1.1674   -3.6846   -0.8382 H   0  0  0  0  0  0  0  0  0  0  0  0
  1  2  1  0
  2  3  1  0
  3  4  2  0
  4  5  1  0
  5  6  1  0
  6  7  2  0
  7  8  1  0
  8  9  2  0
  9 10  1  0
 10 11  1  0
 10 12  2  0
 12 13  1  0
 13 14  1  0
 14 15  2  0
  5 16  2  0
 16 17  1  0
 17 18  1  0
 18 19  1  0
 19 20  1  0
 20 21  1  0
 21 22  2  0
 21 23  1  0
 23 24  1  0
 24 25  1  0
 25 26  1  0
 26 27  1  0
 27 28  1  0
 28 29  1  0
 20 30  1  0
 30 31  1  0
 31 32  1  0
 32 33  1  0
 17 34  2  0
 34  3  1  0
 15  6  1  0
 32 18  1  0
 14  9  1  0
 29 24  1  0
  1 35  1  0
  1 36  1  0
  1 37  1  0
  2 38  1  0
  7 39  1  0
  8 40  1  0
 11 41  1  0
 11 42  1  0
 13 43  1  0
 15 44  1  0
 16 45  1  0
 19 46  1  0
 19 47  1  0
 20 48  1  6
 23 49  1  0
 24 50  1  0
 25 51  1  0
 25 52  1  0
 26 53  1  0
 26 54  1  0
 27 55  1  0
 27 56  1  0
 28 57  1  0
 28 58  1  0
 29 59  1  0
 29 60  1  0
 30 61  1  0
 30 62  1  0
 31 63  1  0
 31 64  1  0
 32 65  1  6
 33 66  1  0
 33 67  1  0
 33 68  1  0
M  END
$$$$
