
     RDKit          3D

 37 38  0  0  0  0  0  0  0  0999 V2000
    0.1260    1.5295    1.0442 O   0  0  0  0  0  0  0  0  0  0  0  0
    0.1844    0.8286    0.0443 C   0  0  0  0  0  0  0  0  0  0  0  0
    1.2023    0.8631   -0.8734 N   0  0  0  0  0  0  0  0  0  0  0  0
    2.3661    1.6926   -0.6532 C   0  0  0  0  0  0  0  0  0  0  0  0
    3.4850    0.9049   -0.0173 C   0  0  0  0  0  0  0  0  0  0  0  0
    4.5136    0.3607   -0.8007 C   0  0  0  0  0  0  0  0  0  0  0  0
    5.5351   -0.3854   -0.2074 C   0  0  0  0  0  0  0  0  0  0  0  0
    5.5295   -0.5967    1.1701 C   0  0  0  0  0  0  0  0  0  0  0  0
    6.7874   -1.5182    1.8976 Cl  0  0  0  0  0  0  0  0  0  0  0  0
    4.5108   -0.0700    1.9600 C   0  0  0  0  0  0  0  0  0  0  0  0
    3.4903    0.6766    1.3673 C   0  0  0  0  0  0  0  0  0  0  0  0
   -0.7644   -0.0981   -0.3127 N   0  0  0  0  0  0  0  0  0  0  0  0
   -1.9887   -0.2557    0.4661 C   0  0  0  0  0  0  0  0  0  0  0  0
   -3.0007    0.8651    0.1573 C   0  0  0  0  0  0  0  0  0  0  0  0
   -3.9956    0.4507   -0.9213 C   0  0  0  0  0  0  0  0  0  0  0  0
   -4.8139   -0.7719   -0.5008 C   0  0  0  0  0  0  0  0  0  0  0  0
   -4.0714   -1.7016    0.4606 C   0  0  0  0  0  0  0  0  0  0  0  0
   -2.5666   -1.6614    0.2302 C   0  0  0  0  0  0  0  0  0  0  0  0
    1.3633   -0.0074   -1.3564 H   0  0  0  0  0  0  0  0  0  0  0  0
    2.1147    2.5636   -0.0372 H   0  0  0  0  0  0  0  0  0  0  0  0
    2.6803    2.0697   -1.6328 H   0  0  0  0  0  0  0  0  0  0  0  0
    4.5282    0.5161   -1.8773 H   0  0  0  0  0  0  0  0  0  0  0  0
    6.3295   -0.7986   -0.8231 H   0  0  0  0  0  0  0  0  0  0  0  0
    4.5004   -0.2373    3.0336 H   0  0  0  0  0  0  0  0  0  0  0  0
    2.6908    1.0782    1.9896 H   0  0  0  0  0  0  0  0  0  0  0  0
   -0.8399   -0.2501   -1.3076 H   0  0  0  0  0  0  0  0  0  0  0  0
   -1.7098   -0.1644    1.5240 H   0  0  0  0  0  0  0  0  0  0  0  0
   -2.4936    1.7898   -0.1413 H   0  0  0  0  0  0  0  0  0  0  0  0
   -3.5609    1.0998    1.0720 H   0  0  0  0  0  0  0  0  0  0  0  0
   -3.4514    0.2250   -1.8471 H   0  0  0  0  0  0  0  0  0  0  0  0
   -4.6719    1.2814   -1.1529 H   0  0  0  0  0  0  0  0  0  0  0  0
   -5.1064   -1.3250   -1.4016 H   0  0  0  0  0  0  0  0  0  0  0  0
   -5.7477   -0.4486   -0.0250 H   0  0  0  0  0  0  0  0  0  0  0  0
   -4.2858   -1.4045    1.4949 H   0  0  0  0  0  0  0  0  0  0  0  0
   -4.4470   -2.7247    0.3462 H   0  0  0  0  0  0  0  0  0  0  0  0
   -2.3576   -1.9991   -0.7938 H   0  0  0  0  0  0  0  0  0  0  0  0
   -2.0646   -2.3768    0.8929 H   0  0  0  0  0  0  0  0  0  0  0  0
  1  2  2  0
  2  3  1  0
  3  4  1  0
  4  5  1  0
  5  6  2  0
  6  7  1  0
  7  8  2  0
  8  9  1  0
  8 10  1  0
 10 11  2  0
  2 12  1  0
 12 13  1  0
 13 14  1  0
 14 15  1  0
 15 16  1  0
 16 17  1  0
 17 18  1  0
 11  5  1  0
 18 13  1  0
  3 19  1  0
  4 20  1  0
  4 21  1  0
  6 22  1  0
  7 23  1  0
 10 24  1  0
 11 25  1  0
 12 26  1  0
 13 27  1  0
 14 28  1  0
 14 29  1  0
 15 30  1  0
 15 31  1  0
 16 32  1  0
 16 33  1  0
 17 34  1  0
 17 35  1  0
 18 36  1  0
 18 37  1  0
M  END
$$$$
