
     RDKit          3D

 35 37  0  0  0  0  0  0  0  0999 V2000
   -2.8519   -2.6782    0.3127 C   0  0  0  0  0  0  0  0  0  0  0  0
   -2.1541   -2.3336   -0.9966 C   0  0  0  0  0  0  0  0  0  0  0  0
   -0.9176   -1.4429   -0.8055 C   0  0  0  0  0  0  0  0  0  0  0  0
   -1.1035    0.0109   -0.3918 C   0  0  0  0  0  0  0  0  0  0  0  0
   -2.3720    0.6210   -0.4804 C   0  0  0  0  0  0  0  0  0  0  0  0
   -2.5078    1.9377   -0.1000 C   0  0  0  0  0  0  0  0  0  0  0  0
   -1.4419    2.6700    0.3477 C   0  0  0  0  0  0  0  0  0  0  0  0
   -0.1761    2.1317    0.4318 C   0  0  0  0  0  0  0  0  0  0  0  0
    0.0142    0.7938    0.0507 C   0  0  0  0  0  0  0  0  0  0  0  0
    1.2953    0.1949    0.0746 N   0  0  0  0  0  0  0  0  0  0  0  0
    2.5054    0.7335    0.4780 C   0  0  0  0  0  0  0  0  0  0  0  0
    2.6791    1.8649    0.9164 O   0  0  0  0  0  0  0  0  0  0  0  0
    3.6034   -0.2080    0.3319 C   0  0  0  0  0  0  0  0  0  0  0  0
    4.9514   -0.0857    0.6116 C   0  0  0  0  0  0  0  0  0  0  0  0
    5.5530   -1.3211    0.2733 C   0  0  0  0  0  0  0  0  0  0  0  0
    4.5402   -2.1252   -0.1925 C   0  0  0  0  0  0  0  0  0  0  0  0
    3.3537   -1.4648   -0.1629 O   0  0  0  0  0  0  0  0  0  0  0  0
   -1.7873    3.9455    0.6707 O   0  0  0  0  0  0  0  0  0  0  0  0
   -3.1983    3.9276    0.3754 C   0  0  0  0  0  0  0  0  0  0  0  0
   -3.6631    2.6544   -0.1192 O   0  0  0  0  0  0  0  0  0  0  0  0
   -3.2437   -1.7896    0.8147 H   0  0  0  0  0  0  0  0  0  0  0  0
   -3.6925   -3.3533    0.1228 H   0  0  0  0  0  0  0  0  0  0  0  0
   -2.1648   -3.1829    0.9997 H   0  0  0  0  0  0  0  0  0  0  0  0
   -2.8642   -1.8858   -1.6997 H   0  0  0  0  0  0  0  0  0  0  0  0
   -1.8250   -3.2745   -1.4559 H   0  0  0  0  0  0  0  0  0  0  0  0
   -0.2850   -1.9421   -0.0609 H   0  0  0  0  0  0  0  0  0  0  0  0
   -0.3659   -1.4347   -1.7546 H   0  0  0  0  0  0  0  0  0  0  0  0
   -3.2504    0.0943   -0.8343 H   0  0  0  0  0  0  0  0  0  0  0  0
    0.6277    2.7681    0.7794 H   0  0  0  0  0  0  0  0  0  0  0  0
    1.3742   -0.7588   -0.2558 H   0  0  0  0  0  0  0  0  0  0  0  0
    5.4293    0.7984    1.0126 H   0  0  0  0  0  0  0  0  0  0  0  0
    6.5962   -1.5920    0.3585 H   0  0  0  0  0  0  0  0  0  0  0  0
    4.5025   -3.1404   -0.5635 H   0  0  0  0  0  0  0  0  0  0  0  0
   -3.4090    4.6947   -0.3787 H   0  0  0  0  0  0  0  0  0  0  0  0
   -3.7517    4.1719    1.2896 H   0  0  0  0  0  0  0  0  0  0  0  0
  1  2  1  0
  2  3  1  0
  3  4  1  0
  4  5  2  0
  5  6  1  0
  6  7  2  0
  7  8  1  0
  8  9  2  0
  9 10  1  0
 10 11  1  0
 11 12  2  0
 11 13  1  0
 13 14  2  0
 14 15  1  0
 15 16  2  0
 16 17  1  0
  7 18  1  0
 18 19  1  0
 19 20  1  0
  9  4  1  0
 17 13  1  0
 20  6  1  0
  1 21  1  0
  1 22  1  0
  1 23  1  0
  2 24  1  0
  2 25  1  0
  3 26  1  0
  3 27  1  0
  5 28  1  0
  8 29  1  0
 10 30  1  0
 14 31  1  0
 15 32  1  0
 16 33  1  0
 19 34  1  0
 19 35  1  0
M  END
$$$$
