
     RDKit          3D

 51 53  0  0  0  0  0  0  0  0999 V2000
   -5.9093   -0.8576    1.3845 C   0  0  0  0  0  0  0  0  0  0  0  0
   -6.2644   -0.2849    0.0130 C   0  0  0  0  0  0  0  0  0  0  0  0
   -7.5852   -0.8824   -0.4757 C   0  0  0  0  0  0  0  0  0  0  0  0
   -5.1564   -0.5448   -1.0175 C   0  0  0  0  0  0  0  0  0  0  0  0
   -3.9404    0.1793   -0.7017 N   0  0  0  0  0  0  0  0  0  0  0  0
   -2.7998   -0.4459   -0.2430 C   0  0  0  0  0  0  0  0  0  0  0  0
   -2.7372   -1.6530   -0.0446 O   0  0  0  0  0  0  0  0  0  0  0  0
   -1.6476    0.5175    0.0505 C   0  0  0  0  0  0  0  0  0  0  0  0
   -0.4471   -0.2168    0.6604 C   0  0  0  0  0  0  0  0  0  0  0  0
    0.3931   -0.9511   -0.3909 C   0  0  0  0  0  0  0  0  0  0  0  0
    0.6169   -0.1775   -1.6164 N   0  0  0  0  0  0  0  0  0  0  0  0
    1.9303   -0.4189   -2.2411 C   0  0  0  0  0  0  0  0  0  0  0  0
    3.0855    0.1968   -1.5098 C   0  0  0  0  0  0  0  0  0  0  0  0
    3.5332    1.4332   -1.7785 N   0  0  0  0  0  0  0  0  0  0  0  0
    4.5870    1.5933   -0.8777 O   0  0  0  0  0  0  0  0  0  0  0  0
    4.6771    0.4301   -0.1653 C   0  0  0  0  0  0  0  0  0  0  0  0
    5.7351    0.3435    0.8345 C   0  0  0  0  0  0  0  0  0  0  0  0
    6.0450   -0.9033    1.4083 C   0  0  0  0  0  0  0  0  0  0  0  0
    7.0569   -1.0174    2.3638 C   0  0  0  0  0  0  0  0  0  0  0  0
    7.7609    0.1155    2.7530 C   0  0  0  0  0  0  0  0  0  0  0  0
    8.7279    0.0071    3.6752 F   0  0  0  0  0  0  0  0  0  0  0  0
    7.4708    1.3612    2.2054 C   0  0  0  0  0  0  0  0  0  0  0  0
    6.4606    1.4759    1.2472 C   0  0  0  0  0  0  0  0  0  0  0  0
    3.7821   -0.4631   -0.5249 N   0  0  0  0  0  0  0  0  0  0  0  0
    0.2439    1.2272   -1.5236 C   0  0  0  0  0  0  0  0  0  0  0  0
   -1.2471    1.3268   -1.1971 C   0  0  0  0  0  0  0  0  0  0  0  0
   -5.0173   -0.3747    1.7984 H   0  0  0  0  0  0  0  0  0  0  0  0
   -6.7268   -0.6970    2.0927 H   0  0  0  0  0  0  0  0  0  0  0  0
   -5.7180   -1.9328    1.3282 H   0  0  0  0  0  0  0  0  0  0  0  0
   -6.4011    0.7978    0.1226 H   0  0  0  0  0  0  0  0  0  0  0  0
   -8.3915   -0.6796    0.2359 H   0  0  0  0  0  0  0  0  0  0  0  0
   -7.5076   -1.9674   -0.6002 H   0  0  0  0  0  0  0  0  0  0  0  0
   -7.8761   -0.4501   -1.4382 H   0  0  0  0  0  0  0  0  0  0  0  0
   -4.9490   -1.6174   -1.1020 H   0  0  0  0  0  0  0  0  0  0  0  0
   -5.4727   -0.1902   -2.0056 H   0  0  0  0  0  0  0  0  0  0  0  0
   -3.9259    1.1800   -0.8581 H   0  0  0  0  0  0  0  0  0  0  0  0
   -2.0309    1.2101    0.8129 H   0  0  0  0  0  0  0  0  0  0  0  0
   -0.7675   -0.9251    1.4324 H   0  0  0  0  0  0  0  0  0  0  0  0
    0.1906    0.5165    1.1707 H   0  0  0  0  0  0  0  0  0  0  0  0
   -0.1067   -1.8847   -0.6720 H   0  0  0  0  0  0  0  0  0  0  0  0
    1.3327   -1.2443    0.0913 H   0  0  0  0  0  0  0  0  0  0  0  0
    1.9087   -0.0371   -3.2703 H   0  0  0  0  0  0  0  0  0  0  0  0
    2.0974   -1.4991   -2.3350 H   0  0  0  0  0  0  0  0  0  0  0  0
    5.4956   -1.7963    1.1076 H   0  0  0  0  0  0  0  0  0  0  0  0
    7.2973   -1.9809    2.8043 H   0  0  0  0  0  0  0  0  0  0  0  0
    8.0313    2.2346    2.5285 H   0  0  0  0  0  0  0  0  0  0  0  0
    6.2415    2.4607    0.8365 H   0  0  0  0  0  0  0  0  0  0  0  0
    0.8323    1.7590   -0.7664 H   0  0  0  0  0  0  0  0  0  0  0  0
    0.4136    1.7351   -2.4812 H   0  0  0  0  0  0  0  0  0  0  0  0
   -1.5052    2.3825   -1.0435 H   0  0  0  0  0  0  0  0  0  0  0  0
   -1.8165    1.0025   -2.0777 H   0  0  0  0  0  0  0  0  0  0  0  0
  1  2  1  0
  2  3  1  0
  2  4  1  0
  4  5  1  0
  5  6  1  0
  6  7  2  0
  6  8  1  0
  8  9  1  0
  9 10  1  0
 10 11  1  0
 11 12  1  0
 12 13  1  0
 13 14  2  0
 14 15  1  0
 15 16  1  0
 16 17  1  0
 17 18  2  0
 18 19  1  0
 19 20  2  0
 20 21  1  0
 20 22  1  0
 22 23  2  0
 16 24  2  0
 11 25  1  0
 25 26  1  0
 26  8  1  0
 24 13  1  0
 23 17  1  0
  1 27  1  0
  1 28  1  0
  1 29  1  0
  2 30  1  0
  3 31  1  0
  3 32  1  0
  3 33  1  0
  4 34  1  0
  4 35  1  0
  5 36  1  0
  8 37  1  0
  9 38  1  0
  9 39  1  0
 10 40  1  0
 10 41  1  0
 12 42  1  0
 12 43  1  0
 18 44  1  0
 19 45  1  0
 22 46  1  0
 23 47  1  0
 25 48  1  0
 25 49  1  0
 26 50  1  0
 26 51  1  0
M  END
$$$$
