
     RDKit          3D

 40 41  0  0  0  0  0  0  0  0999 V2000
    4.1034    1.1175   -1.7982 C   0  0  0  0  0  0  0  0  0  0  0  0
    4.5180    0.3161   -0.5930 C   0  0  0  0  0  0  0  0  0  0  0  0
    5.8885    0.0554   -0.4099 C   0  0  0  0  0  0  0  0  0  0  0  0
    6.3367   -0.6787    0.6854 C   0  0  0  0  0  0  0  0  0  0  0  0
    5.4204   -1.1624    1.6102 C   0  0  0  0  0  0  0  0  0  0  0  0
    4.0558   -0.9121    1.4427 C   0  0  0  0  0  0  0  0  0  0  0  0
    3.5863   -0.1725    0.3508 C   0  0  0  0  0  0  0  0  0  0  0  0
    2.2096    0.0906    0.1503 N   0  0  0  0  0  0  0  0  0  0  0  0
    1.1566   -0.2213    0.9902 C   0  0  0  0  0  0  0  0  0  0  0  0
    1.2124   -0.7222    2.1059 O   0  0  0  0  0  0  0  0  0  0  0  0
   -0.1868    0.1410    0.4589 C   0  0  0  0  0  0  0  0  0  0  0  0
   -1.1409    0.6551    1.3478 C   0  0  0  0  0  0  0  0  0  0  0  0
   -2.4132    1.0009    0.8887 C   0  0  0  0  0  0  0  0  0  0  0  0
   -2.7368    0.8015   -0.4571 C   0  0  0  0  0  0  0  0  0  0  0  0
   -4.3524    1.2679   -1.0538 S   0  0  0  0  0  6  0  0  0  0  0  0
   -4.8536    2.2998   -0.1712 O   0  0  0  0  0  0  0  0  0  0  0  0
   -4.2295    1.4986   -2.4780 O   0  0  0  0  0  0  0  0  0  0  0  0
   -5.2743   -0.1407   -0.8168 N   0  0  0  0  0  0  0  0  0  0  0  0
   -5.5817   -0.5150    0.5742 C   0  0  0  0  0  0  0  0  0  0  0  0
   -4.9643   -1.2967   -1.6744 C   0  0  0  0  0  0  0  0  0  0  0  0
   -1.7889    0.2937   -1.3531 C   0  0  0  0  0  0  0  0  0  0  0  0
   -0.5149   -0.0469   -0.8918 C   0  0  0  0  0  0  0  0  0  0  0  0
    3.6000    2.0386   -1.4871 H   0  0  0  0  0  0  0  0  0  0  0  0
    4.9655    1.4062   -2.4091 H   0  0  0  0  0  0  0  0  0  0  0  0
    3.4349    0.5285   -2.4345 H   0  0  0  0  0  0  0  0  0  0  0  0
    6.6205    0.4264   -1.1245 H   0  0  0  0  0  0  0  0  0  0  0  0
    7.3979   -0.8727    0.8163 H   0  0  0  0  0  0  0  0  0  0  0  0
    5.7609   -1.7376    2.4674 H   0  0  0  0  0  0  0  0  0  0  0  0
    3.3806   -1.3175    2.1895 H   0  0  0  0  0  0  0  0  0  0  0  0
    1.9816    0.6319   -0.6711 H   0  0  0  0  0  0  0  0  0  0  0  0
   -0.8875    0.7945    2.3979 H   0  0  0  0  0  0  0  0  0  0  0  0
   -3.1397    1.4218    1.5809 H   0  0  0  0  0  0  0  0  0  0  0  0
   -4.7213   -0.9904    1.0532 H   0  0  0  0  0  0  0  0  0  0  0  0
   -6.4188   -1.2208    0.5875 H   0  0  0  0  0  0  0  0  0  0  0  0
   -5.8921    0.3541    1.1603 H   0  0  0  0  0  0  0  0  0  0  0  0
   -4.8434   -0.9950   -2.7183 H   0  0  0  0  0  0  0  0  0  0  0  0
   -5.7951   -2.0095   -1.6452 H   0  0  0  0  0  0  0  0  0  0  0  0
   -4.0589   -1.8071   -1.3346 H   0  0  0  0  0  0  0  0  0  0  0  0
   -2.0369    0.1574   -2.4042 H   0  0  0  0  0  0  0  0  0  0  0  0
    0.2014   -0.4781   -1.5871 H   0  0  0  0  0  0  0  0  0  0  0  0
  1  2  1  0
  2  3  2  0
  3  4  1  0
  4  5  2  0
  5  6  1  0
  6  7  2  0
  7  8  1  0
  8  9  1  0
  9 10  2  0
  9 11  1  0
 11 12  2  0
 12 13  1  0
 13 14  2  0
 14 15  1  0
 15 16  2  0
 15 17  2  0
 15 18  1  0
 18 19  1  0
 18 20  1  0
 14 21  1  0
 21 22  2  0
  7  2  1  0
 22 11  1  0
  1 23  1  0
  1 24  1  0
  1 25  1  0
  3 26  1  0
  4 27  1  0
  5 28  1  0
  6 29  1  0
  8 30  1  0
 12 31  1  0
 13 32  1  0
 19 33  1  0
 19 34  1  0
 19 35  1  0
 20 36  1  0
 20 37  1  0
 20 38  1  0
 21 39  1  0
 22 40  1  0
M  END
$$$$
