
     RDKit          3D

 46 46  0  0  0  0  0  0  0  0999 V2000
   -5.4327    0.9541   -1.7923 C   0  0  0  0  0  0  0  0  0  0  0  0
   -5.2215    1.0271   -0.3501 N   0  0  0  0  0  0  0  0  0  0  0  0
   -6.0848    0.0834    0.3566 C   0  0  0  0  0  0  0  0  0  0  0  0
   -3.8070    0.8798    0.0315 C   0  0  0  0  0  0  0  0  0  0  0  0
   -3.1040   -0.4419   -0.3410 C   0  0  0  0  0  0  0  0  0  0  0  0
   -1.7051   -0.4457    0.0551 N   0  0  0  0  0  0  0  0  0  0  0  0
   -1.3227   -0.7335    1.3433 C   0  0  0  0  0  0  0  0  0  0  0  0
   -2.1281   -1.0129    2.2278 O   0  0  0  0  0  0  0  0  0  0  0  0
    0.1708   -0.6529    1.6359 C   0  0  0  0  0  0  0  0  0  0  0  0
    0.9847   -1.6142    0.7661 C   0  0  0  0  0  0  0  0  0  0  0  0
    2.4430   -1.1860    0.7093 C   0  0  0  0  0  0  0  0  0  0  0  0
    2.5887    0.1550    0.0905 N   0  0  0  0  0  0  0  0  0  0  0  0
    3.3101    0.2295   -1.4437 S   0  0  0  0  0  6  0  0  0  0  0  0
    3.1011    1.5635   -1.9596 O   0  0  0  0  0  0  0  0  0  0  0  0
    2.8885   -0.9328   -2.1896 O   0  0  0  0  0  0  0  0  0  0  0  0
    4.9351    0.0915   -1.0430 N   0  0  0  0  0  0  0  0  0  0  0  0
    5.5171    1.1900   -0.2573 C   0  0  0  0  0  0  0  0  0  0  0  0
    5.4845   -1.2264   -0.7136 C   0  0  0  0  0  0  0  0  0  0  0  0
    1.4324    1.0727    0.2615 C   0  0  0  0  0  0  0  0  0  0  0  0
    0.6839    0.7911    1.5576 C   0  0  0  0  0  0  0  0  0  0  0  0
   -5.2397   -0.0452   -2.1973 H   0  0  0  0  0  0  0  0  0  0  0  0
   -6.4657    1.2236   -2.0386 H   0  0  0  0  0  0  0  0  0  0  0  0
   -4.7901    1.6702   -2.3154 H   0  0  0  0  0  0  0  0  0  0  0  0
   -5.9438    0.1639    1.4402 H   0  0  0  0  0  0  0  0  0  0  0  0
   -7.1381    0.3135    0.1611 H   0  0  0  0  0  0  0  0  0  0  0  0
   -5.9052   -0.9555    0.0593 H   0  0  0  0  0  0  0  0  0  0  0  0
   -3.2438    1.7105   -0.4154 H   0  0  0  0  0  0  0  0  0  0  0  0
   -3.7203    1.0427    1.1141 H   0  0  0  0  0  0  0  0  0  0  0  0
   -3.5994   -1.2943    0.1356 H   0  0  0  0  0  0  0  0  0  0  0  0
   -3.1173   -0.5995   -1.4240 H   0  0  0  0  0  0  0  0  0  0  0  0
   -1.0168   -0.2416   -0.6556 H   0  0  0  0  0  0  0  0  0  0  0  0
    0.2820   -0.9743    2.6816 H   0  0  0  0  0  0  0  0  0  0  0  0
    0.5882   -1.6784   -0.2538 H   0  0  0  0  0  0  0  0  0  0  0  0
    0.9105   -2.6267    1.1817 H   0  0  0  0  0  0  0  0  0  0  0  0
    3.0098   -1.9468    0.1663 H   0  0  0  0  0  0  0  0  0  0  0  0
    2.8735   -1.1443    1.7171 H   0  0  0  0  0  0  0  0  0  0  0  0
    6.6101    1.1297   -0.2862 H   0  0  0  0  0  0  0  0  0  0  0  0
    5.2445    2.1644   -0.6723 H   0  0  0  0  0  0  0  0  0  0  0  0
    5.1949    1.1358    0.7868 H   0  0  0  0  0  0  0  0  0  0  0  0
    5.0355   -2.0160   -1.3215 H   0  0  0  0  0  0  0  0  0  0  0  0
    6.5580   -1.2375   -0.9295 H   0  0  0  0  0  0  0  0  0  0  0  0
    5.3451   -1.4581    0.3458 H   0  0  0  0  0  0  0  0  0  0  0  0
    0.7534    0.9860   -0.5930 H   0  0  0  0  0  0  0  0  0  0  0  0
    1.8063    2.1024    0.2942 H   0  0  0  0  0  0  0  0  0  0  0  0
    1.3700    0.9635    2.3977 H   0  0  0  0  0  0  0  0  0  0  0  0
   -0.1356    1.5100    1.6759 H   0  0  0  0  0  0  0  0  0  0  0  0
  1  2  1  0
  2  3  1  0
  2  4  1  0
  4  5  1  0
  5  6  1  0
  6  7  1  0
  7  8  2  0
  7  9  1  0
  9 10  1  0
 10 11  1  0
 11 12  1  0
 12 13  1  0
 13 14  2  0
 13 15  2  0
 13 16  1  0
 16 17  1  0
 16 18  1  0
 12 19  1  0
 19 20  1  0
 20  9  1  0
  1 21  1  0
  1 22  1  0
  1 23  1  0
  3 24  1  0
  3 25  1  0
  3 26  1  0
  4 27  1  0
  4 28  1  0
  5 29  1  0
  5 30  1  0
  6 31  1  0
  9 32  1  0
 10 33  1  0
 10 34  1  0
 11 35  1  0
 11 36  1  0
 17 37  1  0
 17 38  1  0
 17 39  1  0
 18 40  1  0
 18 41  1  0
 18 42  1  0
 19 43  1  0
 19 44  1  0
 20 45  1  0
 20 46  1  0
M  END
$$$$
