
     RDKit          3D

 45 47  0  0  0  0  0  0  0  0999 V2000
    4.6703    1.6050    0.2945 O   0  0  0  0  0  0  0  0  0  0  0  0
    4.4636    0.4309   -0.0008 C   0  0  0  0  0  0  0  0  0  0  0  0
    5.4473   -0.5460   -0.0977 N   0  0  0  0  0  0  0  0  0  0  0  0
    6.8339   -0.4184    0.1047 C   0  0  0  0  0  0  0  0  0  0  0  0
    7.6044   -1.5833   -0.0175 C   0  0  0  0  0  0  0  0  0  0  0  0
    8.9885   -1.5474    0.1713 C   0  0  0  0  0  0  0  0  0  0  0  0
    9.6165   -0.3444    0.4835 C   0  0  0  0  0  0  0  0  0  0  0  0
    8.8600    0.8190    0.6016 C   0  0  0  0  0  0  0  0  0  0  0  0
    7.4740    0.7827    0.4144 C   0  0  0  0  0  0  0  0  0  0  0  0
    3.1367   -0.1011   -0.2853 C   0  0  0  0  0  0  0  0  0  0  0  0
    2.9269   -1.3587   -0.6284 N   0  0  0  0  0  0  0  0  0  0  0  0
    1.5865   -1.6182   -0.8317 N   0  0  0  0  0  0  0  0  0  0  0  0
    0.8359   -0.5509   -0.6307 C   0  0  0  0  0  0  0  0  0  0  0  0
   -0.6512   -0.5122   -0.7724 C   0  0  0  0  0  0  0  0  0  0  0  0
   -1.2023   -0.3761    0.5393 O   0  0  0  0  0  0  0  0  0  0  0  0
   -2.6114   -0.5498    0.5697 C   0  0  0  0  0  0  0  0  0  0  0  0
   -3.4763    0.5713   -0.0451 C   0  0  0  0  0  0  0  0  0  0  0  0
   -2.9731    1.4568   -0.7398 O   0  0  0  0  0  0  0  0  0  0  0  0
   -4.8452    0.5273    0.2135 N   0  0  0  0  0  0  0  0  0  0  0  0
   -5.6798    1.6291   -0.2701 C   0  0  0  0  0  0  0  0  0  0  0  0
   -6.8616    1.8906    0.6562 C   0  0  0  0  0  0  0  0  0  0  0  0
   -7.7432    0.6535    0.8280 C   0  0  0  0  0  0  0  0  0  0  0  0
   -6.9810   -0.6566    0.6321 C   0  0  0  0  0  0  0  0  0  0  0  0
   -5.5051   -0.5250    0.9896 C   0  0  0  0  0  0  0  0  0  0  0  0
    1.7254    0.8603   -0.2031 S   0  0  0  0  0  0  0  0  0  0  0  0
    5.1023   -1.4718   -0.3372 H   0  0  0  0  0  0  0  0  0  0  0  0
    7.1385   -2.5362   -0.2579 H   0  0  0  0  0  0  0  0  0  0  0  0
    9.5738   -2.4580    0.0761 H   0  0  0  0  0  0  0  0  0  0  0  0
   10.6926   -0.3121    0.6320 H   0  0  0  0  0  0  0  0  0  0  0  0
    9.3449    1.7612    0.8439 H   0  0  0  0  0  0  0  0  0  0  0  0
    6.9272    1.7147    0.5182 H   0  0  0  0  0  0  0  0  0  0  0  0
   -0.9957   -1.4482   -1.2258 H   0  0  0  0  0  0  0  0  0  0  0  0
   -0.9460    0.3211   -1.4145 H   0  0  0  0  0  0  0  0  0  0  0  0
   -2.8768   -0.6273    1.6290 H   0  0  0  0  0  0  0  0  0  0  0  0
   -2.8700   -1.4992    0.0869 H   0  0  0  0  0  0  0  0  0  0  0  0
   -6.0296    1.3569   -1.2738 H   0  0  0  0  0  0  0  0  0  0  0  0
   -5.0813    2.5423   -0.3670 H   0  0  0  0  0  0  0  0  0  0  0  0
   -6.4811    2.1924    1.6410 H   0  0  0  0  0  0  0  0  0  0  0  0
   -7.4630    2.7271    0.2820 H   0  0  0  0  0  0  0  0  0  0  0  0
   -8.5757    0.6864    0.1146 H   0  0  0  0  0  0  0  0  0  0  0  0
   -8.1951    0.6768    1.8275 H   0  0  0  0  0  0  0  0  0  0  0  0
   -7.4487   -1.4522    1.2237 H   0  0  0  0  0  0  0  0  0  0  0  0
   -7.0644   -0.9594   -0.4205 H   0  0  0  0  0  0  0  0  0  0  0  0
   -5.0045   -1.4825    0.8186 H   0  0  0  0  0  0  0  0  0  0  0  0
   -5.3871   -0.2707    2.0498 H   0  0  0  0  0  0  0  0  0  0  0  0
  1  2  2  0
  2  3  1  0
  3  4  1  0
  4  5  2  0
  5  6  1  0
  6  7  2  0
  7  8  1  0
  8  9  2  0
  2 10  1  0
 10 11  2  0
 11 12  1  0
 12 13  2  0
 13 14  1  0
 14 15  1  0
 15 16  1  0
 16 17  1  0
 17 18  2  0
 17 19  1  0
 19 20  1  0
 20 21  1  0
 21 22  1  0
 22 23  1  0
 23 24  1  0
 13 25  1  0
  9  4  1  0
 25 10  1  0
 24 19  1  0
  3 26  1  0
  5 27  1  0
  6 28  1  0
  7 29  1  0
  8 30  1  0
  9 31  1  0
 14 32  1  0
 14 33  1  0
 16 34  1  0
 16 35  1  0
 20 36  1  0
 20 37  1  0
 21 38  1  0
 21 39  1  0
 22 40  1  0
 22 41  1  0
 23 42  1  0
 23 43  1  0
 24 44  1  0
 24 45  1  0
M  END
$$$$
