
     RDKit          3D

 47 50  0  0  0  0  0  0  0  0999 V2000
   -0.0974   -3.5938   -0.6772 C   0  0  0  0  0  0  0  0  0  0  0  0
    0.5897   -2.4065   -0.0817 C   0  0  0  0  0  0  0  0  0  0  0  0
    2.2682   -2.4924    0.2521 S   0  0  0  0  0  0  0  0  0  0  0  0
    2.2990   -0.9034    0.8664 C   0  0  0  0  0  0  0  0  0  0  0  0
    3.8726   -0.3101    1.4338 S   0  0  0  0  0  6  0  0  0  0  0  0
    3.7003    1.1153    1.6212 O   0  0  0  0  0  0  0  0  0  0  0  0
    4.2437   -1.1761    2.5319 O   0  0  0  0  0  0  0  0  0  0  0  0
    5.0054   -0.5209    0.1793 N   0  0  0  0  0  0  0  0  0  0  0  0
    4.7505    0.2854   -1.0577 C   0  0  0  0  0  0  0  0  0  0  0  0
    5.7310    1.4569   -1.1612 C   0  0  0  0  0  0  0  0  0  0  0  0
    7.1002    1.0344   -1.2446 O   0  0  0  0  0  0  0  0  0  0  0  0
    7.3604   -0.1914   -0.5448 C   0  0  0  0  0  0  0  0  0  0  0  0
    6.4246   -0.4154    0.6461 C   0  0  0  0  0  0  0  0  0  0  0  0
    1.0514   -0.3157    0.8121 C   0  0  0  0  0  0  0  0  0  0  0  0
    0.0537   -1.1757    0.2634 C   0  0  0  0  0  0  0  0  0  0  0  0
   -1.2961   -0.8949    0.0712 N   0  0  0  0  0  0  0  0  0  0  0  0
   -1.9275    0.2961    0.3612 C   0  0  0  0  0  0  0  0  0  0  0  0
   -1.3748    1.2945    0.8178 O   0  0  0  0  0  0  0  0  0  0  0  0
   -3.4031    0.3183    0.0719 C   0  0  0  0  0  0  0  0  0  0  0  0
   -4.0618    1.4530    0.3644 C   0  0  0  0  0  0  0  0  0  0  0  0
   -5.4896    1.5710    0.1213 C   0  0  0  0  0  0  0  0  0  0  0  0
   -6.2007    2.7360    0.4153 C   0  0  0  0  0  0  0  0  0  0  0  0
   -7.5749    2.7986    0.1626 C   0  0  0  0  0  0  0  0  0  0  0  0
   -8.2420    1.6996   -0.3834 C   0  0  0  0  0  0  0  0  0  0  0  0
   -7.5375    0.5341   -0.6788 C   0  0  0  0  0  0  0  0  0  0  0  0
   -6.1697    0.4871   -0.4216 C   0  0  0  0  0  0  0  0  0  0  0  0
   -5.4905   -0.7030   -0.7313 O   0  0  0  0  0  0  0  0  0  0  0  0
   -4.1259   -0.8365   -0.5070 C   0  0  0  0  0  0  0  0  0  0  0  0
   -3.5422   -1.8830   -0.7838 O   0  0  0  0  0  0  0  0  0  0  0  0
   -0.8948   -3.9412   -0.0119 H   0  0  0  0  0  0  0  0  0  0  0  0
    0.5852   -4.4328   -0.8467 H   0  0  0  0  0  0  0  0  0  0  0  0
   -0.5440   -3.3271   -1.6409 H   0  0  0  0  0  0  0  0  0  0  0  0
    4.8766   -0.3898   -1.9125 H   0  0  0  0  0  0  0  0  0  0  0  0
    3.7206    0.6538   -1.0902 H   0  0  0  0  0  0  0  0  0  0  0  0
    5.5181    2.0484   -2.0572 H   0  0  0  0  0  0  0  0  0  0  0  0
    5.6362    2.1250   -0.2977 H   0  0  0  0  0  0  0  0  0  0  0  0
    7.2724   -1.0130   -1.2653 H   0  0  0  0  0  0  0  0  0  0  0  0
    8.4015   -0.1613   -0.2082 H   0  0  0  0  0  0  0  0  0  0  0  0
    6.6970   -1.3442    1.1576 H   0  0  0  0  0  0  0  0  0  0  0  0
    6.5235    0.4222    1.3466 H   0  0  0  0  0  0  0  0  0  0  0  0
    0.8883    0.6963    1.1637 H   0  0  0  0  0  0  0  0  0  0  0  0
   -1.8584   -1.6508   -0.3210 H   0  0  0  0  0  0  0  0  0  0  0  0
   -3.5531    2.3142    0.7906 H   0  0  0  0  0  0  0  0  0  0  0  0
   -5.6997    3.6025    0.8412 H   0  0  0  0  0  0  0  0  0  0  0  0
   -8.1268    3.7074    0.3928 H   0  0  0  0  0  0  0  0  0  0  0  0
   -9.3106    1.7537   -0.5775 H   0  0  0  0  0  0  0  0  0  0  0  0
   -8.0491   -0.3248   -1.1033 H   0  0  0  0  0  0  0  0  0  0  0  0
  1  2  1  0
  2  3  1  0
  3  4  1  0
  4  5  1  0
  5  6  2  0
  5  7  2  0
  5  8  1  0
  8  9  1  0
  9 10  1  0
 10 11  1  0
 11 12  1  0
 12 13  1  0
  4 14  2  0
 14 15  1  0
 15 16  1  0
 16 17  1  0
 17 18  2  0
 17 19  1  0
 19 20  2  0
 20 21  1  0
 21 22  2  0
 22 23  1  0
 23 24  2  0
 24 25  1  0
 25 26  2  0
 26 27  1  0
 27 28  1  0
 28 29  2  0
 15  2  2  0
 28 19  1  0
 13  8  1  0
 26 21  1  0
  1 30  1  0
  1 31  1  0
  1 32  1  0
  9 33  1  0
  9 34  1  0
 10 35  1  0
 10 36  1  0
 12 37  1  0
 12 38  1  0
 13 39  1  0
 13 40  1  0
 14 41  1  0
 16 42  1  0
 20 43  1  0
 22 44  1  0
 23 45  1  0
 24 46  1  0
 25 47  1  0
M  END
$$$$
