
     RDKit          3D

 64 67  0  0  0  0  0  0  0  0999 V2000
    0.7627    0.0000    0.0000 Br  0  0  0  0  0  0  0  0  0  0  0  0
   -1.9861    2.1577   -2.6557 N   0  0  0  0  0  0  0  0  0  0  0  0
   -2.6927    1.0067   -2.2326 C   0  0  0  0  0  0  0  0  0  0  0  0
   -3.5719    0.5992   -3.0344 O   0  0  0  0  0  0  0  0  0  0  0  0
   -2.4514    0.2882   -0.9416 C   0  0  0  0  0  0  0  0  0  0  0  0
   -2.7597    1.2341    0.1584 C   0  0  0  0  0  0  0  0  0  0  0  0
   -3.5965    0.8532    1.2156 C   0  0  0  0  0  0  0  0  0  0  0  0
   -3.8974    1.6821    2.2567 C   0  0  0  0  0  0  0  0  0  0  0  0
   -3.3723    2.9574    2.3030 C   0  0  0  0  0  0  0  0  0  0  0  0
   -2.5531    3.3583    1.2878 C   0  0  0  0  0  0  0  0  0  0  0  0
   -2.2632    2.5068    0.2488 C   0  0  0  0  0  0  0  0  0  0  0  0
   -3.4322   -0.7890   -0.9116 C   0  0  0  0  0  0  0  0  0  0  0  0
   -3.2364   -2.1232   -0.7270 C   0  0  0  0  0  0  0  0  0  0  0  0
   -4.2810   -3.0563   -0.7236 C   0  0  0  0  0  0  0  0  0  0  0  0
   -5.5637   -2.6358   -0.9116 C   0  0  0  0  0  0  0  0  0  0  0  0
   -5.7890   -1.2986   -1.0993 C   0  0  0  0  0  0  0  0  0  0  0  0
   -4.7703   -0.3971   -1.1013 C   0  0  0  0  0  0  0  0  0  0  0  0
   -1.0075   -0.0665   -0.9481 C   0  0  2  0  0  0  0  0  0  0  0  0
   -0.5272   -0.9281   -2.0331 C   0  0  0  0  0  0  0  0  0  0  0  0
    0.5609   -1.7654   -1.3795 C   0  0  0  0  0  0  0  0  0  0  0  0
    0.8879   -1.0804   -0.1604 N   0  0  0  0  0  0  0  0  0  0  0  0
    1.5252   -1.8016    0.8529 C   0  0  0  0  0  0  0  0  0  0  0  0
    2.9215   -2.2534    0.6460 C   0  0  0  0  0  0  0  0  0  0  0  0
    3.8991   -1.1844    0.4202 C   0  0  0  0  0  0  0  0  0  0  0  0
    4.1887   -0.7620   -0.8475 C   0  0  0  0  0  0  0  0  0  0  0  0
    5.1189    0.2613   -1.0804 C   0  0  0  0  0  0  0  0  0  0  0  0
    5.7467    0.8438    0.0048 C   0  0  0  0  0  0  0  0  0  0  0  0
    5.4702    0.4340    1.2893 C   0  0  0  0  0  0  0  0  0  0  0  0
    4.5327   -0.5931    1.4782 C   0  0  0  0  0  0  0  0  0  0  0  0
    6.2933    1.2404    2.2017 C   0  0  0  0  0  0  0  0  0  0  0  0
    6.6743    2.4326    1.3526 C   0  0  0  0  0  0  0  0  0  0  0  0
    6.7045    1.8720    0.0601 O   0  0  0  0  0  0  0  0  0  0  0  0
   -0.3949   -0.5332    0.3083 C   0  0  0  0  0  0  0  0  0  0  0  0
   -0.7627    0.0000    0.0000 H   0  0  0  0  0  0  0  0  0  0  0  0
   -0.9627    2.1364   -2.8644 H   0  0  0  0  0  0  0  0  0  0  0  0
   -2.4672    3.0821   -2.7768 H   0  0  0  0  0  0  0  0  0  0  0  0
   -4.0279   -0.1296    1.2239 H   0  0  0  0  0  0  0  0  0  0  0  0
   -4.5519    1.3615    3.0673 H   0  0  0  0  0  0  0  0  0  0  0  0
   -3.6150    3.6324    3.1468 H   0  0  0  0  0  0  0  0  0  0  0  0
   -2.1328    4.3396    1.2977 H   0  0  0  0  0  0  0  0  0  0  0  0
   -1.5995    2.8733   -0.5240 H   0  0  0  0  0  0  0  0  0  0  0  0
   -2.2502   -2.5124   -0.5721 H   0  0  0  0  0  0  0  0  0  0  0  0
   -4.0609   -4.1014   -0.5723 H   0  0  0  0  0  0  0  0  0  0  0  0
   -6.3764   -3.3460   -0.9121 H   0  0  0  0  0  0  0  0  0  0  0  0
   -6.8236   -0.9504   -1.2514 H   0  0  0  0  0  0  0  0  0  0  0  0
   -5.0382    0.6448   -1.2524 H   0  0  0  0  0  0  0  0  0  0  0  0
   -0.4711    0.9385   -1.1311 H   0  0  0  0  0  0  0  0  0  0  0  0
   -0.0712   -0.3380   -2.8942 H   0  0  0  0  0  0  0  0  0  0  0  0
   -1.2402   -1.6389   -2.4876 H   0  0  0  0  0  0  0  0  0  0  0  0
    0.2486   -2.8145   -1.2405 H   0  0  0  0  0  0  0  0  0  0  0  0
    1.4429   -1.7657   -2.0457 H   0  0  0  0  0  0  0  0  0  0  0  0
    1.5082   -1.1758    1.7893 H   0  0  0  0  0  0  0  0  0  0  0  0
    0.9180   -2.7007    1.1216 H   0  0  0  0  0  0  0  0  0  0  0  0
    3.0106   -3.0810   -0.1075 H   0  0  0  0  0  0  0  0  0  0  0  0
    3.2294   -2.7724    1.6048 H   0  0  0  0  0  0  0  0  0  0  0  0
    3.7257   -1.1879   -1.7315 H   0  0  0  0  0  0  0  0  0  0  0  0
    5.3538    0.5998   -2.0674 H   0  0  0  0  0  0  0  0  0  0  0  0
    4.3498   -0.8815    2.5179 H   0  0  0  0  0  0  0  0  0  0  0  0
    7.2314    0.7170    2.4836 H   0  0  0  0  0  0  0  0  0  0  0  0
    5.7326    1.5632    3.1062 H   0  0  0  0  0  0  0  0  0  0  0  0
    7.6721    2.8287    1.6573 H   0  0  0  0  0  0  0  0  0  0  0  0
    5.9315    3.2500    1.4517 H   0  0  0  0  0  0  0  0  0  0  0  0
   -0.8706   -1.3174    0.8781 H   0  0  0  0  0  0  0  0  0  0  0  0
   -0.1729    0.2868    1.0377 H   0  0  0  0  0  0  0  0  0  0  0  0
  2  3  1  0
  3  4  2  0
  3  5  1  0
  5  6  1  0
  6  7  2  0
  7  8  1  0
  8  9  2  0
  9 10  1  0
 10 11  2  0
  5 12  1  0
 12 13  2  0
 13 14  1  0
 14 15  2  0
 15 16  1  0
 16 17  2  0
  5 18  1  0
 18 19  1  0
 19 20  1  0
 20 21  1  0
 21 22  1  0
 22 23  1  0
 23 24  1  0
 24 25  2  0
 25 26  1  0
 26 27  2  0
 27 28  1  0
 28 29  2  0
 28 30  1  0
 30 31  1  0
 31 32  1  0
 21 33  1  0
 11  6  1  0
 17 12  1  0
 33 18  1  0
 29 24  1  0
 32 27  1  0
  1 34  1  0
  2 35  1  0
  2 36  1  0
  7 37  1  0
  8 38  1  0
  9 39  1  0
 10 40  1  0
 11 41  1  0
 13 42  1  0
 14 43  1  0
 15 44  1  0
 16 45  1  0
 17 46  1  0
 18 47  1  6
 19 48  1  0
 19 49  1  0
 20 50  1  0
 20 51  1  0
 22 52  1  0
 22 53  1  0
 23 54  1  0
 23 55  1  0
 25 56  1  0
 26 57  1  0
 29 58  1  0
 30 59  1  0
 30 60  1  0
 31 61  1  0
 31 62  1  0
 33 63  1  0
 33 64  1  0
M  END
$$$$
