
     RDKit          3D

 43 45  0  0  0  0  0  0  0  0999 V2000
   -1.7601    1.6132    1.1116 C   0  0  0  0  0  0  0  0  0  0  0  0
   -2.9884    0.7739    0.8905 C   0  0  0  0  0  0  0  0  0  0  0  0
   -4.2330    1.4305    0.8584 C   0  0  0  0  0  0  0  0  0  0  0  0
   -5.4269    0.7132    0.7385 C   0  0  0  0  0  0  0  0  0  0  0  0
   -6.6832    1.4041    0.7188 C   0  0  0  0  0  0  0  0  0  0  0  0
   -7.6995    1.9640    0.7008 N   0  0  0  0  0  0  0  0  0  0  0  0
   -5.3914   -0.6796    0.6615 C   0  0  0  0  0  0  0  0  0  0  0  0
   -4.1655   -1.3608    0.6686 C   0  0  0  0  0  0  0  0  0  0  0  0
   -4.1569   -2.8663    0.6317 C   0  0  0  0  0  0  0  0  0  0  0  0
   -2.9599   -0.6266    0.7355 C   0  0  0  0  0  0  0  0  0  0  0  0
   -1.8074   -1.3882    0.7170 O   0  0  0  0  0  0  0  0  0  0  0  0
   -0.7619   -0.9908   -0.0857 C   0  0  0  0  0  0  0  0  0  0  0  0
    0.3743   -0.7746    0.6111 N   0  0  0  0  0  0  0  0  0  0  0  0
    1.4618   -0.4033   -0.0717 C   0  0  0  0  0  0  0  0  0  0  0  0
    2.5929   -0.1740    0.7057 N   0  0  0  0  0  0  0  0  0  0  0  0
    3.9074    0.2049    0.4161 C   0  0  0  0  0  0  0  0  0  0  0  0
    4.8159    0.3389    1.4798 C   0  0  0  0  0  0  0  0  0  0  0  0
    6.1453    0.7205    1.2625 C   0  0  0  0  0  0  0  0  0  0  0  0
    6.5944    0.9793   -0.0327 C   0  0  0  0  0  0  0  0  0  0  0  0
    7.9539    1.3705   -0.2625 C   0  0  0  0  0  0  0  0  0  0  0  0
    9.0558    1.6874   -0.4434 N   0  0  0  0  0  0  0  0  0  0  0  0
    5.7065    0.8542   -1.1013 C   0  0  0  0  0  0  0  0  0  0  0  0
    4.3775    0.4717   -0.8744 C   0  0  0  0  0  0  0  0  0  0  0  0
    1.4688   -0.2551   -1.3992 N   0  0  0  0  0  0  0  0  0  0  0  0
    0.3452   -0.5122   -2.0839 C   0  0  0  0  0  0  0  0  0  0  0  0
    0.4394   -0.3685   -3.4804 N   0  0  0  0  0  0  0  0  0  0  0  0
   -0.8300   -0.9069   -1.4629 C   0  0  0  0  0  0  0  0  0  0  0  0
   -2.3626   -1.3285   -2.4921 Br  0  0  0  0  0  0  0  0  0  0  0  0
   -2.0212    2.5975    1.5168 H   0  0  0  0  0  0  0  0  0  0  0  0
   -1.0991    1.1461    1.8476 H   0  0  0  0  0  0  0  0  0  0  0  0
   -1.2281    1.7752    0.1700 H   0  0  0  0  0  0  0  0  0  0  0  0
   -4.2725    2.5162    0.9504 H   0  0  0  0  0  0  0  0  0  0  0  0
   -6.3237   -1.2397    0.5988 H   0  0  0  0  0  0  0  0  0  0  0  0
   -3.7677   -3.2604    1.5760 H   0  0  0  0  0  0  0  0  0  0  0  0
   -3.5408   -3.2338   -0.1939 H   0  0  0  0  0  0  0  0  0  0  0  0
   -5.1652   -3.2698    0.4903 H   0  0  0  0  0  0  0  0  0  0  0  0
    2.3716   -0.3641    1.6725 H   0  0  0  0  0  0  0  0  0  0  0  0
    4.4939    0.1448    2.5009 H   0  0  0  0  0  0  0  0  0  0  0  0
    6.8202    0.8127    2.1113 H   0  0  0  0  0  0  0  0  0  0  0  0
    6.0329    1.0515   -2.1208 H   0  0  0  0  0  0  0  0  0  0  0  0
    3.7223    0.3884   -1.7376 H   0  0  0  0  0  0  0  0  0  0  0  0
   -0.2559    0.3009   -3.8016 H   0  0  0  0  0  0  0  0  0  0  0  0
    0.2213   -1.2563   -3.9270 H   0  0  0  0  0  0  0  0  0  0  0  0
  1  2  1  0
  2  3  2  0
  3  4  1  0
  4  5  1  0
  5  6  3  0
  4  7  2  0
  7  8  1  0
  8  9  1  0
  8 10  2  0
 10 11  1  0
 11 12  1  0
 12 13  2  0
 13 14  1  0
 14 15  1  0
 15 16  1  0
 16 17  2  0
 17 18  1  0
 18 19  2  0
 19 20  1  0
 20 21  3  0
 19 22  1  0
 22 23  2  0
 14 24  2  0
 24 25  1  0
 25 26  1  0
 25 27  2  0
 27 28  1  0
 10  2  1  0
 27 12  1  0
 23 16  1  0
  1 29  1  0
  1 30  1  0
  1 31  1  0
  3 32  1  0
  7 33  1  0
  9 34  1  0
  9 35  1  0
  9 36  1  0
 15 37  1  0
 17 38  1  0
 18 39  1  0
 22 40  1  0
 23 41  1  0
 26 42  1  0
 26 43  1  0
M  END
$$$$
