
     RDKit          3D

 55 57  0  0  0  0  0  0  0  0999 V2000
   -6.3043   -0.7516   -3.6139 C   0  0  0  0  0  0  0  0  0  0  0  0
   -5.9001    0.3277   -2.6224 C   0  0  0  0  0  0  0  0  0  0  0  0
   -5.5241   -0.2675   -1.2664 C   0  0  0  0  0  0  0  0  0  0  0  0
   -5.0821    0.8231   -0.2858 C   0  0  0  0  0  0  0  0  0  0  0  0
   -4.7161    0.2768    1.0238 N   0  0  0  0  0  0  0  0  0  0  0  0
   -5.8223   -0.0315    1.9216 C   0  0  0  0  0  0  0  0  0  0  0  0
   -3.4660   -0.2519    1.3431 C   0  0  0  0  0  0  0  0  0  0  0  0
   -3.2848   -0.8986    2.3778 O   0  0  0  0  0  0  0  0  0  0  0  0
   -2.2927    0.0567    0.4061 C   0  0  0  0  0  0  0  0  0  0  0  0
   -1.1378   -0.9412    0.6139 C   0  0  0  0  0  0  0  0  0  0  0  0
    0.1939   -0.3821    0.1252 C   0  0  0  0  0  0  0  0  0  0  0  0
    0.5063    0.8681    0.8055 N   0  0  0  0  0  0  0  0  0  0  0  0
    1.7795    1.1699    1.1488 C   0  0  0  0  0  0  0  0  0  0  0  0
    2.2386    2.1059    1.9536 N   0  0  0  0  0  0  0  0  0  0  0  0
    3.6134    1.9914    1.9633 N   0  0  0  0  0  0  0  0  0  0  0  0
    3.9042    0.9997    1.1459 C   0  0  0  0  0  0  0  0  0  0  0  0
    5.1987    0.4415    0.7764 C   0  0  0  0  0  0  0  0  0  0  0  0
    5.3242   -0.5870   -0.1676 C   0  0  0  0  0  0  0  0  0  0  0  0
    6.5815   -1.1065   -0.5078 C   0  0  0  0  0  0  0  0  0  0  0  0
    7.7342   -0.6032    0.0942 C   0  0  0  0  0  0  0  0  0  0  0  0
    9.0143   -1.0172   -0.1432 O   0  0  0  0  0  0  0  0  0  0  0  0
    9.1912   -2.0251   -1.1309 C   0  0  0  0  0  0  0  0  0  0  0  0
    7.6177    0.4188    1.0379 C   0  0  0  0  0  0  0  0  0  0  0  0
    6.3645    0.9397    1.3747 C   0  0  0  0  0  0  0  0  0  0  0  0
    2.7889    0.4319    0.5899 O   0  0  0  0  0  0  0  0  0  0  0  0
   -0.5697    1.6059    1.4553 C   0  0  0  0  0  0  0  0  0  0  0  0
   -1.8383    1.5127    0.6097 C   0  0  0  0  0  0  0  0  0  0  0  0
   -7.1439   -1.3423   -3.2341 H   0  0  0  0  0  0  0  0  0  0  0  0
   -5.4707   -1.4294   -3.8156 H   0  0  0  0  0  0  0  0  0  0  0  0
   -6.6095   -0.2993   -4.5625 H   0  0  0  0  0  0  0  0  0  0  0  0
   -6.7316    1.0324   -2.4990 H   0  0  0  0  0  0  0  0  0  0  0  0
   -5.0548    0.8928   -3.0313 H   0  0  0  0  0  0  0  0  0  0  0  0
   -6.3845   -0.8090   -0.8551 H   0  0  0  0  0  0  0  0  0  0  0  0
   -4.7218   -1.0046   -1.3934 H   0  0  0  0  0  0  0  0  0  0  0  0
   -5.8864    1.5533   -0.1369 H   0  0  0  0  0  0  0  0  0  0  0  0
   -4.2389    1.3776   -0.7070 H   0  0  0  0  0  0  0  0  0  0  0  0
   -6.3351   -0.9258    1.5569 H   0  0  0  0  0  0  0  0  0  0  0  0
   -6.5187    0.8125    1.9429 H   0  0  0  0  0  0  0  0  0  0  0  0
   -5.4744   -0.2172    2.9423 H   0  0  0  0  0  0  0  0  0  0  0  0
   -2.6324   -0.0678   -0.6271 H   0  0  0  0  0  0  0  0  0  0  0  0
   -1.0277   -1.2090    1.6713 H   0  0  0  0  0  0  0  0  0  0  0  0
   -1.3652   -1.8754    0.0879 H   0  0  0  0  0  0  0  0  0  0  0  0
    0.9626   -1.1452    0.2986 H   0  0  0  0  0  0  0  0  0  0  0  0
    0.1516   -0.2023   -0.9553 H   0  0  0  0  0  0  0  0  0  0  0  0
    4.4428   -1.0000   -0.6537 H   0  0  0  0  0  0  0  0  0  0  0  0
    6.6214   -1.9036   -1.2437 H   0  0  0  0  0  0  0  0  0  0  0  0
    8.8467   -1.6821   -2.1122 H   0  0  0  0  0  0  0  0  0  0  0  0
   10.2632   -2.2312   -1.2090 H   0  0  0  0  0  0  0  0  0  0  0  0
    8.6937   -2.9572   -0.8396 H   0  0  0  0  0  0  0  0  0  0  0  0
    8.5095    0.8172    1.5141 H   0  0  0  0  0  0  0  0  0  0  0  0
    6.3060    1.7393    2.1116 H   0  0  0  0  0  0  0  0  0  0  0  0
   -0.7481    1.2098    2.4629 H   0  0  0  0  0  0  0  0  0  0  0  0
   -0.3067    2.6661    1.5604 H   0  0  0  0  0  0  0  0  0  0  0  0
   -2.6223    2.1231    1.0720 H   0  0  0  0  0  0  0  0  0  0  0  0
   -1.6378    1.9570   -0.3741 H   0  0  0  0  0  0  0  0  0  0  0  0
  1  2  1  0
  2  3  1  0
  3  4  1  0
  4  5  1  0
  5  6  1  0
  5  7  1  0
  7  8  2  0
  7  9  1  0
  9 10  1  0
 10 11  1  0
 11 12  1  0
 12 13  1  0
 13 14  2  0
 14 15  1  0
 15 16  2  0
 16 17  1  0
 17 18  2  0
 18 19  1  0
 19 20  2  0
 20 21  1  0
 21 22  1  0
 20 23  1  0
 23 24  2  0
 16 25  1  0
 12 26  1  0
 26 27  1  0
 27  9  1  0
 25 13  1  0
 24 17  1  0
  1 28  1  0
  1 29  1  0
  1 30  1  0
  2 31  1  0
  2 32  1  0
  3 33  1  0
  3 34  1  0
  4 35  1  0
  4 36  1  0
  6 37  1  0
  6 38  1  0
  6 39  1  0
  9 40  1  0
 10 41  1  0
 10 42  1  0
 11 43  1  0
 11 44  1  0
 18 45  1  0
 19 46  1  0
 22 47  1  0
 22 48  1  0
 22 49  1  0
 23 50  1  0
 24 51  1  0
 26 52  1  0
 26 53  1  0
 27 54  1  0
 27 55  1  0
M  END
$$$$
