
     RDKit          3D

 46 49  0  0  0  0  0  0  0  0999 V2000
   -4.5829   -2.1732    0.7939 C   0  0  0  0  0  0  0  0  0  0  0  0
   -3.2719   -1.8006    0.2884 N   0  0  0  0  0  0  0  0  0  0  0  0
   -3.2108   -1.4177   -1.1240 C   0  0  0  0  0  0  0  0  0  0  0  0
   -3.7942   -0.0506   -1.4087 C   0  0  0  0  0  0  0  0  0  0  0  0
   -4.6176    0.1445   -2.5287 C   0  0  0  0  0  0  0  0  0  0  0  0
   -5.1457    1.4058   -2.8144 C   0  0  0  0  0  0  0  0  0  0  0  0
   -4.8482    2.4895   -1.9894 C   0  0  0  0  0  0  0  0  0  0  0  0
   -4.0199    2.3137   -0.8822 C   0  0  0  0  0  0  0  0  0  0  0  0
   -3.4918    1.0535   -0.5981 C   0  0  0  0  0  0  0  0  0  0  0  0
   -2.1566   -2.1629    1.0606 C   0  0  0  0  0  0  0  0  0  0  0  0
   -2.2937   -2.8682    2.0648 O   0  0  0  0  0  0  0  0  0  0  0  0
   -0.7993   -1.6942    0.6919 C   0  0  0  0  0  0  0  0  0  0  0  0
    0.4281   -2.2505    1.2111 C   0  0  0  0  0  0  0  0  0  0  0  0
    1.4157   -1.4987    0.6431 C   0  0  0  0  0  0  0  0  0  0  0  0
    0.7862   -0.5709   -0.1045 N   0  0  0  0  0  0  0  0  0  0  0  0
   -0.5367   -0.6492   -0.1324 N   0  0  0  0  0  0  0  0  0  0  0  0
    1.6569    0.3167   -0.8493 C   0  0  0  0  0  0  0  0  0  0  0  0
    3.0307    0.0291   -0.1918 C   0  0  1  0  0  0  0  0  0  0  0  0
    3.2897    1.0901    0.7424 O   0  0  0  0  0  0  0  0  0  0  0  0
    4.5814    1.3284    1.1208 C   0  0  0  0  0  0  0  0  0  0  0  0
    5.6868    0.5357    0.8335 C   0  0  0  0  0  0  0  0  0  0  0  0
    6.9218    0.9380    1.3210 C   0  0  0  0  0  0  0  0  0  0  0  0
    7.1179    2.0529    2.0570 N   0  0  0  0  0  0  0  0  0  0  0  0
    6.0274    2.8000    2.3252 C   0  0  0  0  0  0  0  0  0  0  0  0
    4.7552    2.4800    1.8857 C   0  0  0  0  0  0  0  0  0  0  0  0
    2.8780   -1.3393    0.5553 C   0  0  0  0  0  0  0  0  0  0  0  0
   -4.5873   -2.2215    1.8848 H   0  0  0  0  0  0  0  0  0  0  0  0
   -4.8475   -3.1559    0.3944 H   0  0  0  0  0  0  0  0  0  0  0  0
   -5.3290   -1.4382    0.4827 H   0  0  0  0  0  0  0  0  0  0  0  0
   -2.2053   -1.4862   -1.5410 H   0  0  0  0  0  0  0  0  0  0  0  0
   -3.7893   -2.1785   -1.6652 H   0  0  0  0  0  0  0  0  0  0  0  0
   -4.8554   -0.6864   -3.1905 H   0  0  0  0  0  0  0  0  0  0  0  0
   -5.7860    1.5433   -3.6814 H   0  0  0  0  0  0  0  0  0  0  0  0
   -5.2576    3.4710   -2.2106 H   0  0  0  0  0  0  0  0  0  0  0  0
   -3.7796    3.1569   -0.2397 H   0  0  0  0  0  0  0  0  0  0  0  0
   -2.8346    0.9364    0.2638 H   0  0  0  0  0  0  0  0  0  0  0  0
    0.5217   -3.0813    1.8966 H   0  0  0  0  0  0  0  0  0  0  0  0
    1.6224   -0.0078   -1.8935 H   0  0  0  0  0  0  0  0  0  0  0  0
    1.3068    1.3448   -0.7272 H   0  0  0  0  0  0  0  0  0  0  0  0
    3.8035    0.0082   -0.9695 H   0  0  0  0  0  0  0  0  0  0  0  0
    5.6281   -0.3814    0.2637 H   0  0  0  0  0  0  0  0  0  0  0  0
    7.8163    0.3512    1.1287 H   0  0  0  0  0  0  0  0  0  0  0  0
    6.2079    3.6914    2.9185 H   0  0  0  0  0  0  0  0  0  0  0  0
    3.9124    3.1157    2.1349 H   0  0  0  0  0  0  0  0  0  0  0  0
    3.3453   -1.3355    1.5442 H   0  0  0  0  0  0  0  0  0  0  0  0
    3.3008   -2.1484   -0.0501 H   0  0  0  0  0  0  0  0  0  0  0  0
  1  2  1  0
  2  3  1  0
  3  4  1  0
  4  5  2  0
  5  6  1  0
  6  7  2  0
  7  8  1  0
  8  9  2  0
  2 10  1  0
 10 11  2  0
 10 12  1  0
 12 13  1  0
 13 14  2  0
 14 15  1  0
 15 16  1  0
 15 17  1  0
 17 18  1  0
 18 19  1  0
 19 20  1  0
 20 21  2  0
 21 22  1  0
 22 23  2  0
 23 24  1  0
 24 25  2  0
 18 26  1  0
  9  4  1  0
 16 12  2  0
 25 20  1  0
 26 14  1  0
  1 27  1  0
  1 28  1  0
  1 29  1  0
  3 30  1  0
  3 31  1  0
  5 32  1  0
  6 33  1  0
  7 34  1  0
  8 35  1  0
  9 36  1  0
 13 37  1  0
 17 38  1  0
 17 39  1  0
 18 40  1  6
 21 41  1  0
 22 42  1  0
 24 43  1  0
 25 44  1  0
 26 45  1  0
 26 46  1  0
M  END
$$$$
