
     RDKit          3D

 33 35  0  0  0  0  0  0  0  0999 V2000
    6.6526    0.7513    0.0727 C   0  0  0  0  0  0  0  0  0  0  0  0
    5.7610   -0.1263   -0.6028 O   0  0  0  0  0  0  0  0  0  0  0  0
    4.4264    0.0465   -0.3649 C   0  0  0  0  0  0  0  0  0  0  0  0
    3.5891   -0.8345   -1.0470 C   0  0  0  0  0  0  0  0  0  0  0  0
    2.1980   -0.7684   -0.8949 C   0  0  0  0  0  0  0  0  0  0  0  0
    1.6079    0.1797   -0.0572 C   0  0  0  0  0  0  0  0  0  0  0  0
    0.2295    0.3012    0.1406 N   0  0  0  0  0  0  0  0  0  0  0  0
   -0.8847   -0.3740   -0.3493 C   0  0  0  0  0  0  0  0  0  0  0  0
   -0.7777   -1.3932   -1.2132 N   0  0  0  0  0  0  0  0  0  0  0  0
   -1.9132   -1.9808   -1.6280 C   0  0  0  0  0  0  0  0  0  0  0  0
   -3.1586   -1.5911   -1.2141 C   0  0  0  0  0  0  0  0  0  0  0  0
   -3.1813   -0.5390   -0.3284 C   0  0  0  0  0  0  0  0  0  0  0  0
   -4.4214    0.0022    0.2124 C   0  0  0  0  0  0  0  0  0  0  0  0
   -4.7127    1.0266    1.0934 C   0  0  0  0  0  0  0  0  0  0  0  0
   -6.1217    1.0659    1.2244 C   0  0  0  0  0  0  0  0  0  0  0  0
   -6.6069    0.0651    0.4171 C   0  0  0  0  0  0  0  0  0  0  0  0
   -5.5873   -0.5855   -0.2004 O   0  0  0  0  0  0  0  0  0  0  0  0
   -2.0615    0.0768    0.1112 N   0  0  0  0  0  0  0  0  0  0  0  0
    2.4640    1.0606    0.6235 C   0  0  0  0  0  0  0  0  0  0  0  0
    3.8569    0.9986    0.4747 C   0  0  0  0  0  0  0  0  0  0  0  0
    7.6720    0.4844   -0.2224 H   0  0  0  0  0  0  0  0  0  0  0  0
    6.5781    0.6310    1.1585 H   0  0  0  0  0  0  0  0  0  0  0  0
    6.4821    1.7918   -0.2230 H   0  0  0  0  0  0  0  0  0  0  0  0
    4.0178   -1.5846   -1.7071 H   0  0  0  0  0  0  0  0  0  0  0  0
    1.5943   -1.4792   -1.4502 H   0  0  0  0  0  0  0  0  0  0  0  0
   -0.0811    1.0253    0.7706 H   0  0  0  0  0  0  0  0  0  0  0  0
   -1.7826   -2.8016   -2.3268 H   0  0  0  0  0  0  0  0  0  0  0  0
   -4.0553   -2.0825   -1.5646 H   0  0  0  0  0  0  0  0  0  0  0  0
   -3.9849    1.6630    1.5776 H   0  0  0  0  0  0  0  0  0  0  0  0
   -6.7099    1.7397    1.8313 H   0  0  0  0  0  0  0  0  0  0  0  0
   -7.5998   -0.2941    0.1842 H   0  0  0  0  0  0  0  0  0  0  0  0
    2.0506    1.8165    1.2873 H   0  0  0  0  0  0  0  0  0  0  0  0
    4.4605    1.7086    1.0293 H   0  0  0  0  0  0  0  0  0  0  0  0
  1  2  1  0
  2  3  1  0
  3  4  2  0
  4  5  1  0
  5  6  2  0
  6  7  1  0
  7  8  1  0
  8  9  2  0
  9 10  1  0
 10 11  2  0
 11 12  1  0
 12 13  1  0
 13 14  2  0
 14 15  1  0
 15 16  2  0
 16 17  1  0
 12 18  2  0
  6 19  1  0
 19 20  2  0
 20  3  1  0
 18  8  1  0
 17 13  1  0
  1 21  1  0
  1 22  1  0
  1 23  1  0
  4 24  1  0
  5 25  1  0
  7 26  1  0
 10 27  1  0
 11 28  1  0
 14 29  1  0
 15 30  1  0
 16 31  1  0
 19 32  1  0
 20 33  1  0
M  END
$$$$
