
     RDKit          3D

 24 24  0  0  0  0  0  0  0  0999 V2000
   -2.0169    1.2891   -1.1686 C   0  0  0  0  0  0  0  0  0  0  0  0
   -1.6820   -0.0156   -0.4335 C   0  0  0  0  0  0  0  0  0  0  0  0
   -2.4071   -0.0864    0.9169 C   0  0  0  0  0  0  0  0  0  0  0  0
   -0.1485   -0.2465   -0.2979 C   0  0  0  0  0  0  0  0  0  0  0  0
    0.3217   -1.3538   -0.9115 C   0  0  0  0  0  0  0  0  0  0  0  0
    1.5327   -1.9088   -1.0299 C   0  0  0  0  0  0  0  0  0  0  0  0
    2.7054   -1.4847   -0.5617 C   0  0  0  0  0  0  0  0  0  0  0  0
    2.9220   -0.2037    0.2128 C   0  0  0  0  0  0  0  0  0  0  0  0
    4.0908    0.0600    0.4377 O   0  0  0  0  0  0  0  0  0  0  0  0
    1.8458    0.7686    0.7116 C   0  0  0  0  0  0  0  0  0  0  0  0
    2.3098    1.8161    1.5040 O   0  0  0  0  0  0  0  0  0  0  0  0
    0.5421    0.6655    0.4197 C   0  0  0  0  0  0  0  0  0  0  0  0
   -3.0929    1.3497   -1.3658 H   0  0  0  0  0  0  0  0  0  0  0  0
   -1.4987    1.3387   -2.1325 H   0  0  0  0  0  0  0  0  0  0  0  0
   -1.7405    2.1747   -0.5871 H   0  0  0  0  0  0  0  0  0  0  0  0
   -2.1181   -0.8176   -1.0455 H   0  0  0  0  0  0  0  0  0  0  0  0
   -3.4922   -0.0549    0.7688 H   0  0  0  0  0  0  0  0  0  0  0  0
   -2.1697   -1.0194    1.4396 H   0  0  0  0  0  0  0  0  0  0  0  0
   -2.1418    0.7488    1.5734 H   0  0  0  0  0  0  0  0  0  0  0  0
   -0.4364   -1.9538   -1.4268 H   0  0  0  0  0  0  0  0  0  0  0  0
    1.5724   -2.8453   -1.5918 H   0  0  0  0  0  0  0  0  0  0  0  0
    3.5948   -2.0767   -0.7562 H   0  0  0  0  0  0  0  0  0  0  0  0
    1.5712    2.3892    1.7597 H   0  0  0  0  0  0  0  0  0  0  0  0
   -0.0639    1.4668    0.8434 H   0  0  0  0  0  0  0  0  0  0  0  0
  1  2  1  0
  2  3  1  0
  2  4  1  0
  4  5  2  0
  5  6  1  0
  6  7  2  0
  7  8  1  0
  8  9  2  0
  8 10  1  0
 10 11  1  0
 10 12  2  0
 12  4  1  0
  1 13  1  0
  1 14  1  0
  1 15  1  0
  2 16  1  0
  3 17  1  0
  3 18  1  0
  3 19  1  0
  5 20  1  0
  6 21  1  0
  7 22  1  0
 11 23  1  0
 12 24  1  0
M  END
$$$$
