
     RDKit          3D

 33 36  0  0  0  0  0  0  0  0999 V2000
    0.0224   -0.8605    2.2838 O   0  0  0  0  0  0  0  0  0  0  0  0
   -0.1166   -0.7500    1.0727 C   0  0  0  0  0  0  0  0  0  0  0  0
   -1.4693   -0.8905    0.4290 C   0  0  0  0  0  0  0  0  0  0  0  0
   -2.4673    0.2058    0.8526 C   0  0  0  0  0  0  0  0  0  0  0  0
   -3.8285   -0.1107    0.2041 C   0  0  0  0  0  0  0  0  0  0  0  0
   -3.5807    0.1982   -1.2840 C   0  0  0  0  0  0  0  0  0  0  0  0
   -2.1075    0.6486   -1.3006 C   0  0  0  0  0  0  0  0  0  0  0  0
   -2.0204    1.4123    0.0229 C   0  0  0  0  0  0  0  0  0  0  0  0
   -1.2286   -0.5906   -1.0417 C   0  0  0  0  0  0  0  0  0  0  0  0
    0.2475   -0.3171   -1.1399 C   0  0  0  0  0  0  0  0  0  0  0  0
    0.7667   -0.0374   -2.2126 O   0  0  0  0  0  0  0  0  0  0  0  0
    0.8276   -0.4488    0.1083 N   0  0  0  0  0  0  0  0  0  0  0  0
    2.2258   -0.2598    0.3796 C   0  0  0  0  0  0  0  0  0  0  0  0
    3.0940    0.3169   -0.5673 C   0  0  0  0  0  0  0  0  0  0  0  0
    4.4615    0.5008   -0.3077 C   0  0  0  0  0  0  0  0  0  0  0  0
    4.9957    0.1075    0.9118 C   0  0  0  0  0  0  0  0  0  0  0  0
    6.6711    0.3331    1.2237 Cl  0  0  0  0  0  0  0  0  0  0  0  0
    4.1606   -0.4651    1.8604 C   0  0  0  0  0  0  0  0  0  0  0  0
    4.6470   -0.8642    3.0453 F   0  0  0  0  0  0  0  0  0  0  0  0
    2.7983   -0.6472    1.6031 C   0  0  0  0  0  0  0  0  0  0  0  0
   -1.8473   -1.9044    0.5958 H   0  0  0  0  0  0  0  0  0  0  0  0
   -2.5183    0.3817    1.9292 H   0  0  0  0  0  0  0  0  0  0  0  0
   -4.1398   -1.1480    0.3629 H   0  0  0  0  0  0  0  0  0  0  0  0
   -4.6116    0.5462    0.5992 H   0  0  0  0  0  0  0  0  0  0  0  0
   -4.2405    1.0081   -1.6151 H   0  0  0  0  0  0  0  0  0  0  0  0
   -3.7627   -0.6731   -1.9210 H   0  0  0  0  0  0  0  0  0  0  0  0
   -1.8290    1.2262   -2.1846 H   0  0  0  0  0  0  0  0  0  0  0  0
   -1.0139    1.7667    0.2635 H   0  0  0  0  0  0  0  0  0  0  0  0
   -2.7173    2.2558    0.0800 H   0  0  0  0  0  0  0  0  0  0  0  0
   -1.4819   -1.4384   -1.6871 H   0  0  0  0  0  0  0  0  0  0  0  0
    2.7419    0.6657   -1.5345 H   0  0  0  0  0  0  0  0  0  0  0  0
    5.0940    0.9545   -1.0672 H   0  0  0  0  0  0  0  0  0  0  0  0
    2.2271   -1.1223    2.3937 H   0  0  0  0  0  0  0  0  0  0  0  0
  1  2  2  0
  2  3  1  0
  3  4  1  0
  4  5  1  0
  5  6  1  0
  6  7  1  0
  7  8  1  0
  7  9  1  0
  9 10  1  0
 10 11  2  0
 10 12  1  0
 12 13  1  0
 13 14  2  0
 14 15  1  0
 15 16  2  0
 16 17  1  0
 16 18  1  0
 18 19  1  0
 18 20  2  0
 12  2  1  0
 20 13  1  0
  9  3  1  0
  8  4  1  0
  3 21  1  0
  4 22  1  0
  5 23  1  0
  5 24  1  0
  6 25  1  0
  6 26  1  0
  7 27  1  0
  8 28  1  0
  8 29  1  0
  9 30  1  0
 14 31  1  0
 15 32  1  0
 20 33  1  0
M  END
$$$$
