
     RDKit          3D

 42 44  0  0  0  0  0  0  0  0999 V2000
    6.5165   -1.7847    0.8843 C   0  0  0  0  0  0  0  0  0  0  0  0
    5.0515   -1.3477    0.8365 C   0  0  0  0  0  0  0  0  0  0  0  0
    4.7723   -0.3438    1.9568 C   0  0  0  0  0  0  0  0  0  0  0  0
    4.7222   -0.7718   -0.5489 C   0  0  0  0  0  0  0  0  0  0  0  0
    3.3073   -0.5517   -0.7294 N   0  0  0  0  0  0  0  0  0  0  0  0
    2.7060    0.6847   -0.6485 C   0  0  0  0  0  0  0  0  0  0  0  0
    3.3120    1.7325   -0.4483 O   0  0  0  0  0  0  0  0  0  0  0  0
    1.2450    0.6248   -0.8221 C   0  0  0  0  0  0  0  0  0  0  0  0
    0.3325    1.7335   -0.7923 C   0  0  0  0  0  0  0  0  0  0  0  0
   -0.8907    1.1657   -1.0036 C   0  0  0  0  0  0  0  0  0  0  0  0
   -0.6728   -0.1614   -1.1159 N   0  0  0  0  0  0  0  0  0  0  0  0
    0.5952   -0.5504   -1.0448 N   0  0  0  0  0  0  0  0  0  0  0  0
   -1.8544   -0.9569   -1.3866 C   0  0  0  0  0  0  0  0  0  0  0  0
   -2.9879    0.0594   -1.0939 C   0  0  1  0  0  0  0  0  0  0  0  0
   -3.4776   -0.2125    0.2297 O   0  0  0  0  0  0  0  0  0  0  0  0
   -4.7095    0.2594    0.5751 C   0  0  0  0  0  0  0  0  0  0  0  0
   -5.1536   -0.1104    1.8430 C   0  0  0  0  0  0  0  0  0  0  0  0
   -6.3972    0.3191    2.2999 C   0  0  0  0  0  0  0  0  0  0  0  0
   -7.1622    1.1140    1.4643 C   0  0  0  0  0  0  0  0  0  0  0  0
   -6.7682    1.4974    0.2314 N   0  0  0  0  0  0  0  0  0  0  0  0
   -5.5514    1.0641   -0.1819 C   0  0  0  0  0  0  0  0  0  0  0  0
   -2.3238    1.4762   -1.1557 C   0  0  0  0  0  0  0  0  0  0  0  0
    7.1900   -0.9367    0.7196 H   0  0  0  0  0  0  0  0  0  0  0  0
    6.7237   -2.5368    0.1157 H   0  0  0  0  0  0  0  0  0  0  0  0
    6.7596   -2.2269    1.8563 H   0  0  0  0  0  0  0  0  0  0  0  0
    4.4266   -2.2331    1.0111 H   0  0  0  0  0  0  0  0  0  0  0  0
    3.7088   -0.0901    2.0059 H   0  0  0  0  0  0  0  0  0  0  0  0
    5.3378    0.5827    1.8104 H   0  0  0  0  0  0  0  0  0  0  0  0
    5.0533   -0.7607    2.9300 H   0  0  0  0  0  0  0  0  0  0  0  0
    5.0207   -1.4805   -1.3294 H   0  0  0  0  0  0  0  0  0  0  0  0
    5.2684    0.1625   -0.7209 H   0  0  0  0  0  0  0  0  0  0  0  0
    2.6706   -1.3317   -0.8745 H   0  0  0  0  0  0  0  0  0  0  0  0
    0.5790    2.7759   -0.6443 H   0  0  0  0  0  0  0  0  0  0  0  0
   -1.8128   -1.2379   -2.4429 H   0  0  0  0  0  0  0  0  0  0  0  0
   -1.8547   -1.8293   -0.7289 H   0  0  0  0  0  0  0  0  0  0  0  0
   -3.7885   -0.0724   -1.8307 H   0  0  0  0  0  0  0  0  0  0  0  0
   -4.5290   -0.7336    2.4777 H   0  0  0  0  0  0  0  0  0  0  0  0
   -6.7575    0.0406    3.2837 H   0  0  0  0  0  0  0  0  0  0  0  0
   -8.1390    1.4753    1.7735 H   0  0  0  0  0  0  0  0  0  0  0  0
   -5.2896    1.4156   -1.1731 H   0  0  0  0  0  0  0  0  0  0  0  0
   -2.6784    2.1452   -0.3671 H   0  0  0  0  0  0  0  0  0  0  0  0
   -2.5002    1.9324   -2.1355 H   0  0  0  0  0  0  0  0  0  0  0  0
  1  2  1  0
  2  3  1  0
  2  4  1  0
  4  5  1  0
  5  6  1  0
  6  7  2  0
  6  8  1  0
  8  9  1  0
  9 10  2  0
 10 11  1  0
 11 12  1  0
 11 13  1  0
 13 14  1  0
 14 15  1  0
 15 16  1  0
 16 17  2  0
 17 18  1  0
 18 19  2  0
 19 20  1  0
 20 21  2  0
 14 22  1  0
 12  8  2  0
 21 16  1  0
 22 10  1  0
  1 23  1  0
  1 24  1  0
  1 25  1  0
  2 26  1  0
  3 27  1  0
  3 28  1  0
  3 29  1  0
  4 30  1  0
  4 31  1  0
  5 32  1  0
  9 33  1  0
 13 34  1  0
 13 35  1  0
 14 36  1  6
 17 37  1  0
 18 38  1  0
 19 39  1  0
 21 40  1  0
 22 41  1  0
 22 42  1  0
M  END
$$$$
