
     RDKit          3D

 66 70  0  0  0  0  0  0  0  0999 V2000
    8.2003    3.1842    1.8111 C   0  0  0  0  0  0  0  0  0  0  0  0
    7.0915    2.2961    1.3452 C   0  0  0  0  0  0  0  0  0  0  0  0
    5.8586    2.2358    1.8883 N   0  0  0  0  0  0  0  0  0  0  0  0
    5.1297    1.3075    1.1877 C   0  0  0  0  0  0  0  0  0  0  0  0
    6.0045    0.8269    0.2024 C   0  0  0  0  0  0  0  0  0  0  0  0
    7.1819    1.4368    0.3160 N   0  0  0  0  0  0  0  0  0  0  0  0
    5.6448   -0.1730   -0.7865 C   0  0  0  0  0  0  0  0  0  0  0  0
    6.7644   -0.5817   -1.4460 C   0  0  0  0  0  0  0  0  0  0  0  0
    6.5861   -1.5193   -2.4734 C   0  0  0  0  0  0  0  0  0  0  0  0
    5.3540   -1.9969   -2.7959 C   0  0  0  0  0  0  0  0  0  0  0  0
    4.2149   -1.5650   -2.1062 C   0  0  0  0  0  0  0  0  0  0  0  0
    4.3722   -0.6532   -1.1009 C   0  0  0  0  0  0  0  0  0  0  0  0
    3.1204   -0.3208   -0.4901 N   0  0  0  0  0  0  0  0  0  0  0  0
    2.1536   -1.3229   -0.5198 C   0  0  0  0  0  0  0  0  0  0  0  0
    2.5648   -2.5437   -0.4931 O   0  0  0  0  0  0  0  0  0  0  0  0
    0.6994   -1.1443   -0.5813 C   0  0  0  0  0  0  0  0  0  0  0  0
    0.0712    0.0268   -0.8493 C   0  0  0  0  0  0  0  0  0  0  0  0
   -1.3127    0.1121   -0.8319 C   0  0  0  0  0  0  0  0  0  0  0  0
   -2.1387   -0.9736   -0.5467 C   0  0  0  0  0  0  0  0  0  0  0  0
   -3.5397   -0.7655   -0.5416 N   0  0  0  0  0  0  0  0  0  0  0  0
   -4.5309   -1.7492   -0.5211 C   0  0  0  0  0  0  0  0  0  0  0  0
   -4.1510   -2.9810   -0.5283 O   0  0  0  0  0  0  0  0  0  0  0  0
   -5.9637   -1.4705   -0.4978 C   0  0  0  0  0  0  0  0  0  0  0  0
   -6.7857   -2.3734   -1.1644 C   0  0  0  0  0  0  0  0  0  0  0  0
   -8.1327   -2.1946   -1.2854 C   0  0  0  0  0  0  0  0  0  0  0  0
   -8.6999   -1.0738   -0.7237 C   0  0  0  0  0  0  0  0  0  0  0  0
   -7.9097   -0.1505   -0.0488 C   0  0  0  0  0  0  0  0  0  0  0  0
   -6.5261   -0.3686    0.0568 C   0  0  0  0  0  0  0  0  0  0  0  0
   -5.8128    0.6200    0.8564 C   0  0  0  0  0  0  0  0  0  0  0  0
   -5.0502    0.1784    1.9300 C   0  0  0  0  0  0  0  0  0  0  0  0
   -4.3753    1.0862    2.7014 C   0  0  0  0  0  0  0  0  0  0  0  0
   -4.4609    2.4458    2.4008 C   0  0  0  0  0  0  0  0  0  0  0  0
   -5.2173    2.8946    1.3345 C   0  0  0  0  0  0  0  0  0  0  0  0
   -5.8801    1.9723    0.5811 C   0  0  0  0  0  0  0  0  0  0  0  0
   -1.5025   -2.1412   -0.2815 C   0  0  0  0  0  0  0  0  0  0  0  0
   -0.1232   -2.2413   -0.2943 C   0  0  0  0  0  0  0  0  0  0  0  0
    2.8236    0.9220    0.2490 C   0  0  0  0  0  0  0  0  0  0  0  0
    3.7416    0.9416    1.4719 C   0  0  0  0  0  0  0  0  0  0  0  0
    0.6895    0.0000    0.0000 Cl  0  0  0  0  0  0  0  0  0  0  0  0
    7.8156    3.8613    2.6009 H   0  0  0  0  0  0  0  0  0  0  0  0
    8.5554    3.8347    0.9651 H   0  0  0  0  0  0  0  0  0  0  0  0
    9.0368    2.5973    2.2376 H   0  0  0  0  0  0  0  0  0  0  0  0
    8.0051    1.3094   -0.2445 H   0  0  0  0  0  0  0  0  0  0  0  0
    7.7522   -0.2832   -1.2784 H   0  0  0  0  0  0  0  0  0  0  0  0
    7.4424   -1.8882   -3.0421 H   0  0  0  0  0  0  0  0  0  0  0  0
    5.1829   -2.7166   -3.5790 H   0  0  0  0  0  0  0  0  0  0  0  0
    3.2441   -1.9378   -2.3972 H   0  0  0  0  0  0  0  0  0  0  0  0
    0.6648    0.9152   -1.1236 H   0  0  0  0  0  0  0  0  0  0  0  0
   -1.7598    1.0650   -1.0508 H   0  0  0  0  0  0  0  0  0  0  0  0
   -3.8981    0.2489   -0.5853 H   0  0  0  0  0  0  0  0  0  0  0  0
   -6.3537   -3.2664   -1.6145 H   0  0  0  0  0  0  0  0  0  0  0  0
   -8.8034   -2.8847   -1.8021 H   0  0  0  0  0  0  0  0  0  0  0  0
   -9.7602   -0.8882   -0.7939 H   0  0  0  0  0  0  0  0  0  0  0  0
   -8.3616    0.7166    0.3833 H   0  0  0  0  0  0  0  0  0  0  0  0
   -5.0017   -0.8777    2.1405 H   0  0  0  0  0  0  0  0  0  0  0  0
   -3.7723    0.7459    3.5486 H   0  0  0  0  0  0  0  0  0  0  0  0
   -3.9405    3.1773    2.9919 H   0  0  0  0  0  0  0  0  0  0  0  0
   -5.2609    3.9751    1.1286 H   0  0  0  0  0  0  0  0  0  0  0  0
   -6.4749    2.3068   -0.2554 H   0  0  0  0  0  0  0  0  0  0  0  0
   -2.0301   -3.0490   -0.0388 H   0  0  0  0  0  0  0  0  0  0  0  0
    0.3521   -3.1942   -0.0769 H   0  0  0  0  0  0  0  0  0  0  0  0
    1.8132    0.8022    0.7052 H   0  0  0  0  0  0  0  0  0  0  0  0
    2.9927    1.7923   -0.3516 H   0  0  0  0  0  0  0  0  0  0  0  0
    3.3440    1.5786    2.2718 H   0  0  0  0  0  0  0  0  0  0  0  0
    3.7518   -0.1235    1.8358 H   0  0  0  0  0  0  0  0  0  0  0  0
   -0.6895    0.0000    0.0000 H   0  0  0  0  0  0  0  0  0  0  0  0
  1  2  1  0
  2  3  2  0
  3  4  1  0
  4  5  2  0
  5  6  1  0
  5  7  1  0
  7  8  2  0
  8  9  1  0
  9 10  2  0
 10 11  1  0
 11 12  2  0
 12 13  1  0
 13 14  1  0
 14 15  2  0
 14 16  1  0
 16 17  2  0
 17 18  1  0
 18 19  2  0
 19 20  1  0
 20 21  1  0
 21 22  2  0
 21 23  1  0
 23 24  2  0
 24 25  1  0
 25 26  2  0
 26 27  1  0
 27 28  2  0
 28 29  1  0
 29 30  2  0
 30 31  1  0
 31 32  2  0
 32 33  1  0
 33 34  2  0
 19 35  1  0
 35 36  2  0
 13 37  1  0
 37 38  1  0
  6  2  1  0
 12  7  1  0
 36 16  1  0
 38  4  1  0
 28 23  1  0
 34 29  1  0
  1 40  1  0
  1 41  1  0
  1 42  1  0
  6 43  1  0
  8 44  1  0
  9 45  1  0
 10 46  1  0
 11 47  1  0
 17 48  1  0
 18 49  1  0
 20 50  1  0
 24 51  1  0
 25 52  1  0
 26 53  1  0
 27 54  1  0
 30 55  1  0
 31 56  1  0
 32 57  1  0
 33 58  1  0
 34 59  1  0
 35 60  1  0
 36 61  1  0
 37 62  1  0
 37 63  1  0
 38 64  1  0
 38 65  1  0
 39 66  1  0
M  END
$$$$
