
     RDKit          3D

 51 53  0  0  0  0  0  0  0  0999 V2000
    0.0010   -4.3825   -1.0443 C   0  0  0  0  0  0  0  0  0  0  0  0
   -0.5066   -3.0740   -1.2967 O   0  0  0  0  0  0  0  0  0  0  0  0
   -1.4231   -2.6341   -0.3750 C   0  0  0  0  0  0  0  0  0  0  0  0
   -2.4314   -3.4526    0.1377 C   0  0  0  0  0  0  0  0  0  0  0  0
   -3.3516   -2.9240    1.0379 C   0  0  0  0  0  0  0  0  0  0  0  0
   -4.3165   -3.7167    1.5243 F   0  0  0  0  0  0  0  0  0  0  0  0
   -3.2923   -1.5881    1.4196 C   0  0  0  0  0  0  0  0  0  0  0  0
   -4.2020   -1.1000    2.2776 F   0  0  0  0  0  0  0  0  0  0  0  0
   -2.3013   -0.7422    0.9113 C   0  0  0  0  0  0  0  0  0  0  0  0
   -2.2963    0.6427    1.2368 N   0  0  0  0  0  0  0  0  0  0  0  0
   -2.8900    1.6759    0.4566 C   0  0  0  0  0  0  0  0  0  0  0  0
   -3.1663    1.5409   -0.9091 C   0  0  0  0  0  0  0  0  0  0  0  0
   -3.6772    2.6192   -1.6428 C   0  0  0  0  0  0  0  0  0  0  0  0
   -3.8980    3.8485   -1.0200 C   0  0  0  0  0  0  0  0  0  0  0  0
   -4.6530    5.4421   -2.1176 I   0  0  0  0  0  0  0  0  0  0  0  0
   -3.6096    4.0131    0.3304 C   0  0  0  0  0  0  0  0  0  0  0  0
   -3.1034    2.9334    1.0479 C   0  0  0  0  0  0  0  0  0  0  0  0
   -2.8245    3.0996    2.3505 F   0  0  0  0  0  0  0  0  0  0  0  0
   -1.3685   -1.2768   -0.0010 C   0  0  0  0  0  0  0  0  0  0  0  0
   -0.2813   -0.4324   -0.4496 N   0  0  0  0  0  0  0  0  0  0  0  0
    1.1524   -0.6132    0.4580 S   0  0  0  0  0  6  0  0  0  0  0  0
    1.2771   -1.9705    0.9398 O   0  0  0  0  0  0  0  0  0  0  0  0
    1.1761    0.5124    1.3717 O   0  0  0  0  0  0  0  0  0  0  0  0
    2.5648   -0.3368   -0.6553 C   0  0  0  0  0  0  0  0  0  0  0  0
    3.8999   -0.4767    0.0154 C   0  0  0  0  0  0  0  0  0  0  0  0
    4.3084    0.6319    0.9966 C   0  0  2  0  0  0  0  0  0  0  0  0
    3.6710    0.4835    2.2694 O   0  0  0  0  0  0  0  0  0  0  0  0
    4.1121    2.0645    0.4926 C   0  0  0  0  0  0  0  0  0  0  0  0
    4.6619    2.9811    1.4395 O   0  0  0  0  0  0  0  0  0  0  0  0
    2.3237    0.5741   -1.8346 C   0  0  0  0  0  0  0  0  0  0  0  0
    2.3558   -0.9174   -2.0377 C   0  0  0  0  0  0  0  0  0  0  0  0
    0.2174   -4.5423    0.0178 H   0  0  0  0  0  0  0  0  0  0  0  0
   -0.6948   -5.1405   -1.4172 H   0  0  0  0  0  0  0  0  0  0  0  0
    0.9392   -4.4877   -1.5975 H   0  0  0  0  0  0  0  0  0  0  0  0
   -2.5313   -4.4918   -0.1548 H   0  0  0  0  0  0  0  0  0  0  0  0
   -2.5979    0.7758    2.2089 H   0  0  0  0  0  0  0  0  0  0  0  0
   -3.0006    0.6006   -1.4277 H   0  0  0  0  0  0  0  0  0  0  0  0
   -3.8944    2.4829   -2.7002 H   0  0  0  0  0  0  0  0  0  0  0  0
   -3.7646    4.9586    0.8400 H   0  0  0  0  0  0  0  0  0  0  0  0
   -0.5535    0.5495   -0.3339 H   0  0  0  0  0  0  0  0  0  0  0  0
    3.9369   -1.4438    0.5317 H   0  0  0  0  0  0  0  0  0  0  0  0
    4.6721   -0.5181   -0.7645 H   0  0  0  0  0  0  0  0  0  0  0  0
    5.3750    0.4957    1.2139 H   0  0  0  0  0  0  0  0  0  0  0  0
    2.7205    0.7113    2.1766 H   0  0  0  0  0  0  0  0  0  0  0  0
    3.0531    2.3157    0.3882 H   0  0  0  0  0  0  0  0  0  0  0  0
    4.6159    2.2235   -0.4648 H   0  0  0  0  0  0  0  0  0  0  0  0
    4.4383    2.6221    2.3214 H   0  0  0  0  0  0  0  0  0  0  0  0
    3.1534    1.1442   -2.2380 H   0  0  0  0  0  0  0  0  0  0  0  0
    1.3708    1.0806   -1.9352 H   0  0  0  0  0  0  0  0  0  0  0  0
    3.2088   -1.3417   -2.5563 H   0  0  0  0  0  0  0  0  0  0  0  0
    1.4243   -1.4194   -2.2759 H   0  0  0  0  0  0  0  0  0  0  0  0
  1  2  1  0
  2  3  1  0
  3  4  2  0
  4  5  1  0
  5  6  1  0
  5  7  2  0
  7  8  1  0
  7  9  1  0
  9 10  1  0
 10 11  1  0
 11 12  2  0
 12 13  1  0
 13 14  2  0
 14 15  1  0
 14 16  1  0
 16 17  2  0
 17 18  1  0
  9 19  2  0
 19 20  1  0
 20 21  1  0
 21 22  2  0
 21 23  2  0
 21 24  1  0
 24 25  1  0
 25 26  1  0
 26 27  1  0
 26 28  1  0
 28 29  1  0
 24 30  1  0
 30 31  1  0
 19  3  1  0
 31 24  1  0
 17 11  1  0
  1 32  1  0
  1 33  1  0
  1 34  1  0
  4 35  1  0
 10 36  1  0
 12 37  1  0
 13 38  1  0
 16 39  1  0
 20 40  1  0
 25 41  1  0
 25 42  1  0
 26 43  1  1
 27 44  1  0
 28 45  1  0
 28 46  1  0
 29 47  1  0
 30 48  1  0
 30 49  1  0
 31 50  1  0
 31 51  1  0
M  END
$$$$
