
     RDKit          3D

 53 57  0  0  0  0  0  0  0  0999 V2000
   -2.8348    2.0158   -1.1025 C   0  0  0  0  0  0  0  0  0  0  0  0
   -2.4641    2.9133    0.0826 C   0  0  2  0  0  0  0  0  0  0  0  0
   -2.2507    4.3601   -0.4501 C   0  0  0  0  0  0  0  0  0  0  0  0
   -1.9730    5.3222    0.5776 O   0  0  0  0  0  0  0  0  0  0  0  0
   -1.1249    4.8068    1.6174 C   0  0  0  0  0  0  0  0  0  0  0  0
   -0.3306    3.5566    1.2069 C   0  0  0  0  0  0  0  0  0  0  0  0
   -1.2774    2.4744    0.8808 N   0  0  0  0  0  0  0  0  0  0  0  0
   -0.6656    1.2531    0.6100 C   0  0  0  0  0  0  0  0  0  0  0  0
   -1.3281    0.0789    0.9049 C   0  0  0  0  0  0  0  0  0  0  0  0
   -0.7062   -1.1245    0.6168 C   0  0  0  0  0  0  0  0  0  0  0  0
   -1.3900   -2.4332    0.9069 C   0  0  0  0  0  0  0  0  0  0  0  0
   -2.9108   -2.7749   -0.0712 S   0  0  0  0  0  6  0  0  0  0  0  0
   -2.8813   -4.4797   -0.5402 C   0  0  0  0  0  0  0  0  0  0  0  0
   -2.8167   -1.9968   -1.2932 O   0  0  0  0  0  0  0  0  0  0  0  0
   -4.0338   -2.5816    0.8303 O   0  0  0  0  0  0  0  0  0  0  0  0
   -1.4994   -2.9194    2.3453 C   0  0  0  0  0  0  0  0  0  0  0  0
   -0.6088   -3.6416    1.3813 C   0  0  0  0  0  0  0  0  0  0  0  0
    0.5355   -1.1440    0.0849 N   0  0  0  0  0  0  0  0  0  0  0  0
    1.1300    0.0372   -0.1612 C   0  0  0  0  0  0  0  0  0  0  0  0
    2.4519    0.0507   -0.8082 C   0  0  0  0  0  0  0  0  0  0  0  0
    2.8601    1.1452   -1.6115 C   0  0  0  0  0  0  0  0  0  0  0  0
    4.1018    1.1849   -2.2434 C   0  0  0  0  0  0  0  0  0  0  0  0
    5.0016    0.1315   -2.1058 C   0  0  0  0  0  0  0  0  0  0  0  0
    4.6149   -0.9512   -1.3092 C   0  0  0  0  0  0  0  0  0  0  0  0
    5.3107   -2.1019   -1.0091 N   0  0  0  0  0  0  0  0  0  0  0  0
    4.5774   -2.8985   -0.1752 C   0  0  0  0  0  0  0  0  0  0  0  0
    3.3844   -2.2566    0.0644 C   0  0  0  0  0  0  0  0  0  0  0  0
    3.3768   -1.0208   -0.6575 C   0  0  0  0  0  0  0  0  0  0  0  0
    0.5704    1.2343    0.0953 N   0  0  0  0  0  0  0  0  0  0  0  0
   -1.9911    1.8723   -1.7870 H   0  0  0  0  0  0  0  0  0  0  0  0
   -3.1860    1.0324   -0.7742 H   0  0  0  0  0  0  0  0  0  0  0  0
   -3.6558    2.4595   -1.6763 H   0  0  0  0  0  0  0  0  0  0  0  0
   -3.3113    2.9362    0.7824 H   0  0  0  0  0  0  0  0  0  0  0  0
   -1.4228    4.3875   -1.1729 H   0  0  0  0  0  0  0  0  0  0  0  0
   -3.1445    4.7122   -0.9785 H   0  0  0  0  0  0  0  0  0  0  0  0
   -1.7656    4.5862    2.4802 H   0  0  0  0  0  0  0  0  0  0  0  0
   -0.4424    5.6095    1.9115 H   0  0  0  0  0  0  0  0  0  0  0  0
    0.3123    3.2546    2.0420 H   0  0  0  0  0  0  0  0  0  0  0  0
    0.3032    3.7928    0.3431 H   0  0  0  0  0  0  0  0  0  0  0  0
   -2.3159    0.1029    1.3504 H   0  0  0  0  0  0  0  0  0  0  0  0
   -3.0022   -5.1021    0.3474 H   0  0  0  0  0  0  0  0  0  0  0  0
   -1.9424   -4.6928   -1.0531 H   0  0  0  0  0  0  0  0  0  0  0  0
   -3.7151   -4.6578   -1.2214 H   0  0  0  0  0  0  0  0  0  0  0  0
   -1.0234   -2.3333    3.1259 H   0  0  0  0  0  0  0  0  0  0  0  0
   -2.4062   -3.4150    2.6752 H   0  0  0  0  0  0  0  0  0  0  0  0
   -0.8834   -4.6497    1.1054 H   0  0  0  0  0  0  0  0  0  0  0  0
    0.4659   -3.5330    1.5114 H   0  0  0  0  0  0  0  0  0  0  0  0
    2.1794    1.9862   -1.7485 H   0  0  0  0  0  0  0  0  0  0  0  0
    4.3681    2.0472   -2.8477 H   0  0  0  0  0  0  0  0  0  0  0  0
    5.9694    0.1590   -2.5966 H   0  0  0  0  0  0  0  0  0  0  0  0
    6.2360   -2.3158   -1.3553 H   0  0  0  0  0  0  0  0  0  0  0  0
    4.9632   -3.8449    0.1757 H   0  0  0  0  0  0  0  0  0  0  0  0
    2.5912   -2.6347    0.6938 H   0  0  0  0  0  0  0  0  0  0  0  0
  1  2  1  0
  2  3  1  0
  3  4  1  0
  4  5  1  0
  5  6  1  0
  6  7  1  0
  7  8  1  0
  8  9  2  0
  9 10  1  0
 10 11  1  0
 11 12  1  0
 12 13  1  0
 12 14  2  0
 12 15  2  0
 11 16  1  0
 16 17  1  0
 10 18  2  0
 18 19  1  0
 19 20  1  0
 20 21  2  0
 21 22  1  0
 22 23  2  0
 23 24  1  0
 24 25  1  0
 25 26  1  0
 26 27  2  0
 27 28  1  0
 19 29  2  0
  7  2  1  0
 29  8  1  0
 17 11  1  0
 28 20  1  0
 28 24  2  0
  1 30  1  0
  1 31  1  0
  1 32  1  0
  2 33  1  1
  3 34  1  0
  3 35  1  0
  5 36  1  0
  5 37  1  0
  6 38  1  0
  6 39  1  0
  9 40  1  0
 13 41  1  0
 13 42  1  0
 13 43  1  0
 16 44  1  0
 16 45  1  0
 17 46  1  0
 17 47  1  0
 21 48  1  0
 22 49  1  0
 23 50  1  0
 25 51  1  0
 26 52  1  0
 27 53  1  0
M  END
$$$$
