
     RDKit          3D

 68 72  0  0  0  0  0  0  0  0999 V2000
    3.4673   -2.7707   -0.7529 C   0  0  0  0  0  0  0  0  0  0  0  0
    2.2939   -2.0159   -0.4696 O   0  0  0  0  0  0  0  0  0  0  0  0
    2.5197   -0.6541   -0.3878 C   0  0  0  0  0  0  0  0  0  0  0  0
    3.7408   -0.1898   -0.7462 N   0  0  0  0  0  0  0  0  0  0  0  0
    3.9652    1.1291   -0.6759 C   0  0  0  0  0  0  0  0  0  0  0  0
    5.2093    1.6307   -1.0368 C   0  0  0  0  0  0  0  0  0  0  0  0
    5.4927    2.9996   -0.9886 C   0  0  0  0  0  0  0  0  0  0  0  0
    4.5087    3.8873   -0.5704 C   0  0  0  0  0  0  0  0  0  0  0  0
    4.8746    5.7394   -0.5097 Br  0  0  0  0  0  0  0  0  0  0  0  0
    3.2534    3.4151   -0.2000 C   0  0  0  0  0  0  0  0  0  0  0  0
    2.9789    2.0371   -0.2505 C   0  0  0  0  0  0  0  0  0  0  0  0
    1.7248    1.5242    0.1060 C   0  0  0  0  0  0  0  0  0  0  0  0
    1.4577    0.1521    0.0326 C   0  0  0  0  0  0  0  0  0  0  0  0
    0.1182   -0.4593    0.4542 C   0  0  1  0  0  0  0  0  0  0  0  0
    0.1225   -0.7414    1.9755 C   0  0  0  0  0  0  0  0  0  0  0  0
    0.3541    0.2622    2.9318 C   0  0  0  0  0  0  0  0  0  0  0  0
    0.3422   -0.0293    4.2984 C   0  0  0  0  0  0  0  0  0  0  0  0
    0.1052   -1.3293    4.7346 C   0  0  0  0  0  0  0  0  0  0  0  0
   -0.1112   -2.3410    3.8045 C   0  0  0  0  0  0  0  0  0  0  0  0
   -0.0965   -2.0513    2.4385 C   0  0  0  0  0  0  0  0  0  0  0  0
   -1.2449    0.2092   -0.0667 C   0  0  1  0  0  0  0  0  0  0  0  0
   -1.3261    1.5380    0.4908 O   0  0  0  0  0  0  0  0  0  0  0  0
   -1.4023    0.3624   -1.6153 C   0  0  0  0  0  0  0  0  0  0  0  0
   -0.4378    1.2260   -2.4506 C   0  0  0  0  0  0  0  0  0  0  0  0
   -0.3474    2.6626   -2.1521 N   0  0  0  0  0  0  0  0  0  0  0  0
    0.6295    3.3001   -3.0395 C   0  0  0  0  0  0  0  0  0  0  0  0
   -1.6382    3.3411   -2.2710 C   0  0  0  0  0  0  0  0  0  0  0  0
   -2.5208   -0.5913    0.4121 C   0  0  0  0  0  0  0  0  0  0  0  0
   -3.5016    0.1160    1.1529 C   0  0  0  0  0  0  0  0  0  0  0  0
   -4.6314   -0.5063    1.6694 C   0  0  0  0  0  0  0  0  0  0  0  0
   -4.8321   -1.8580    1.4476 C   0  0  0  0  0  0  0  0  0  0  0  0
   -3.9309   -2.5998    0.6791 C   0  0  0  0  0  0  0  0  0  0  0  0
   -4.2130   -3.9600    0.4642 C   0  0  0  0  0  0  0  0  0  0  0  0
   -3.3828   -4.7568   -0.3146 C   0  0  0  0  0  0  0  0  0  0  0  0
   -2.2625   -4.1946   -0.8975 C   0  0  0  0  0  0  0  0  0  0  0  0
   -1.9689   -2.8420   -0.6865 C   0  0  0  0  0  0  0  0  0  0  0  0
   -2.7692   -1.9879    0.1230 C   0  0  0  0  0  0  0  0  0  0  0  0
    4.2352   -2.6175    0.0135 H   0  0  0  0  0  0  0  0  0  0  0  0
    3.1919   -3.8297   -0.7391 H   0  0  0  0  0  0  0  0  0  0  0  0
    3.8539   -2.5417   -1.7519 H   0  0  0  0  0  0  0  0  0  0  0  0
    5.9791    0.9367   -1.3661 H   0  0  0  0  0  0  0  0  0  0  0  0
    6.4778    3.3534   -1.2802 H   0  0  0  0  0  0  0  0  0  0  0  0
    2.4807    4.1109    0.1193 H   0  0  0  0  0  0  0  0  0  0  0  0
    0.9482    2.2173    0.4194 H   0  0  0  0  0  0  0  0  0  0  0  0
    0.1236   -1.4432   -0.0115 H   0  0  0  0  0  0  0  0  0  0  0  0
    0.5612    1.2861    2.6334 H   0  0  0  0  0  0  0  0  0  0  0  0
    0.5253    0.7602    5.0227 H   0  0  0  0  0  0  0  0  0  0  0  0
    0.0965   -1.5555    5.7972 H   0  0  0  0  0  0  0  0  0  0  0  0
   -0.2909   -3.3593    4.1389 H   0  0  0  0  0  0  0  0  0  0  0  0
   -0.2613   -2.8664    1.7373 H   0  0  0  0  0  0  0  0  0  0  0  0
   -1.3256    1.4343    1.4566 H   0  0  0  0  0  0  0  0  0  0  0  0
   -1.3787   -0.6244   -2.0860 H   0  0  0  0  0  0  0  0  0  0  0  0
   -2.4166    0.7363   -1.8168 H   0  0  0  0  0  0  0  0  0  0  0  0
    0.5581    0.7752   -2.3984 H   0  0  0  0  0  0  0  0  0  0  0  0
   -0.7425    1.1083   -3.5012 H   0  0  0  0  0  0  0  0  0  0  0  0
    0.3207    3.2598   -4.0905 H   0  0  0  0  0  0  0  0  0  0  0  0
    1.6095    2.8186   -2.9541 H   0  0  0  0  0  0  0  0  0  0  0  0
    0.7722    4.3503   -2.7613 H   0  0  0  0  0  0  0  0  0  0  0  0
   -1.5277    4.4129   -2.0690 H   0  0  0  0  0  0  0  0  0  0  0  0
   -2.0740    3.2254   -3.2700 H   0  0  0  0  0  0  0  0  0  0  0  0
   -2.3575    2.9711   -1.5345 H   0  0  0  0  0  0  0  0  0  0  0  0
   -3.4116    1.1843    1.3367 H   0  0  0  0  0  0  0  0  0  0  0  0
   -5.3542    0.0664    2.2442 H   0  0  0  0  0  0  0  0  0  0  0  0
   -5.7200   -2.3258    1.8678 H   0  0  0  0  0  0  0  0  0  0  0  0
   -5.0997   -4.4140    0.9032 H   0  0  0  0  0  0  0  0  0  0  0  0
   -3.6192   -5.8051   -0.4724 H   0  0  0  0  0  0  0  0  0  0  0  0
   -1.6107   -4.7995   -1.5229 H   0  0  0  0  0  0  0  0  0  0  0  0
   -1.0853   -2.4788   -1.1975 H   0  0  0  0  0  0  0  0  0  0  0  0
  1  2  1  0
  2  3  1  0
  3  4  2  0
  4  5  1  0
  5  6  2  0
  6  7  1  0
  7  8  2  0
  8  9  1  0
  8 10  1  0
 10 11  2  0
 11 12  1  0
 12 13  2  0
 13 14  1  0
 14 15  1  0
 15 16  2  0
 16 17  1  0
 17 18  2  0
 18 19  1  0
 19 20  2  0
 14 21  1  0
 21 22  1  1
 21 23  1  0
 23 24  1  0
 24 25  1  0
 25 26  1  0
 25 27  1  0
 21 28  1  0
 28 29  2  0
 29 30  1  0
 30 31  2  0
 31 32  1  0
 32 33  2  0
 33 34  1  0
 34 35  2  0
 35 36  1  0
 36 37  2  0
 13  3  1  0
 20 15  1  0
 37 28  1  0
 11  5  1  0
 37 32  1  0
  1 38  1  0
  1 39  1  0
  1 40  1  0
  6 41  1  0
  7 42  1  0
 10 43  1  0
 12 44  1  0
 14 45  1  6
 16 46  1  0
 17 47  1  0
 18 48  1  0
 19 49  1  0
 20 50  1  0
 22 51  1  0
 23 52  1  0
 23 53  1  0
 24 54  1  0
 24 55  1  0
 26 56  1  0
 26 57  1  0
 26 58  1  0
 27 59  1  0
 27 60  1  0
 27 61  1  0
 29 62  1  0
 30 63  1  0
 31 64  1  0
 33 65  1  0
 34 66  1  0
 35 67  1  0
 36 68  1  0
M  END
$$$$
