
     RDKit          3D

 50 53  0  0  0  0  0  0  0  0999 V2000
    1.9052   -0.5866   -2.3722 O   0  0  0  0  0  0  0  0  0  0  0  0
    1.6438   -0.3421   -1.2063 C   0  0  0  0  0  0  0  0  0  0  0  0
    0.4167   -0.0805   -0.7024 O   0  0  0  0  0  0  0  0  0  0  0  0
   -0.6774   -0.0491   -1.6518 C   0  0  2  0  0  0  0  0  0  0  0  0
   -0.7898    1.3582   -2.2388 C   0  0  0  0  0  0  0  0  0  0  0  0
   -1.4145    2.3148   -1.2551 C   0  0  0  0  0  0  0  0  0  0  0  0
   -1.3420    3.6989   -1.4599 C   0  0  0  0  0  0  0  0  0  0  0  0
   -0.7052    4.1574   -2.5796 O   0  0  0  0  0  0  0  0  0  0  0  0
   -1.8996    4.5984   -0.5512 C   0  0  0  0  0  0  0  0  0  0  0  0
   -2.5431    4.1010    0.5768 C   0  0  0  0  0  0  0  0  0  0  0  0
   -3.0996    4.9322    1.5044 O   0  0  0  0  0  0  0  0  0  0  0  0
   -2.6440    2.7324    0.7954 C   0  0  0  0  0  0  0  0  0  0  0  0
   -2.0954    1.8412   -0.1267 C   0  0  0  0  0  0  0  0  0  0  0  0
   -2.2448    0.5125    0.1707 O   0  0  0  0  0  0  0  0  0  0  0  0
   -1.9964   -0.3775   -0.9310 C   0  0  2  0  0  0  0  0  0  0  0  0
   -2.0158   -1.8165   -0.4336 C   0  0  0  0  0  0  0  0  0  0  0  0
   -2.4851   -2.8397   -1.2757 C   0  0  0  0  0  0  0  0  0  0  0  0
   -2.4861   -4.1715   -0.8516 C   0  0  0  0  0  0  0  0  0  0  0  0
   -2.0139   -4.4911    0.4184 C   0  0  0  0  0  0  0  0  0  0  0  0
   -2.0079   -5.7884    0.8478 O   0  0  0  0  0  0  0  0  0  0  0  0
   -1.5421   -3.4880    1.2632 C   0  0  0  0  0  0  0  0  0  0  0  0
   -1.0803   -3.8210    2.5059 O   0  0  0  0  0  0  0  0  0  0  0  0
   -1.5383   -2.1581    0.8432 C   0  0  0  0  0  0  0  0  0  0  0  0
    2.6590   -0.2947   -0.1218 C   0  0  0  0  0  0  0  0  0  0  0  0
    2.3668    0.2374    1.1451 C   0  0  0  0  0  0  0  0  0  0  0  0
    3.3640    0.2664    2.1135 C   0  0  0  0  0  0  0  0  0  0  0  0
    3.1368    0.7781    3.3629 O   0  0  0  0  0  0  0  0  0  0  0  0
    4.6396   -0.2254    1.8368 C   0  0  0  0  0  0  0  0  0  0  0  0
    5.5948   -0.1803    2.8152 O   0  0  0  0  0  0  0  0  0  0  0  0
    4.9315   -0.7490    0.5807 C   0  0  0  0  0  0  0  0  0  0  0  0
    6.1861   -1.2226    0.3227 O   0  0  0  0  0  0  0  0  0  0  0  0
    3.9455   -0.7839   -0.4036 C   0  0  0  0  0  0  0  0  0  0  0  0
   -0.4968   -0.7775   -2.4527 H   0  0  0  0  0  0  0  0  0  0  0  0
    0.2036    1.7214   -2.5256 H   0  0  0  0  0  0  0  0  0  0  0  0
   -1.4226    1.3317   -3.1343 H   0  0  0  0  0  0  0  0  0  0  0  0
   -0.7196    5.1286   -2.5845 H   0  0  0  0  0  0  0  0  0  0  0  0
   -1.8309    5.6671   -0.7190 H   0  0  0  0  0  0  0  0  0  0  0  0
   -2.9813    5.8534    1.2210 H   0  0  0  0  0  0  0  0  0  0  0  0
   -3.1576    2.3591    1.6769 H   0  0  0  0  0  0  0  0  0  0  0  0
   -2.8402   -0.2637   -1.6274 H   0  0  0  0  0  0  0  0  0  0  0  0
   -2.8544   -2.6069   -2.2727 H   0  0  0  0  0  0  0  0  0  0  0  0
   -2.8555   -4.9413   -1.5219 H   0  0  0  0  0  0  0  0  0  0  0  0
   -2.3592   -6.3565    0.1460 H   0  0  0  0  0  0  0  0  0  0  0  0
   -0.8292   -3.0121    2.9763 H   0  0  0  0  0  0  0  0  0  0  0  0
   -1.1634   -1.3779    1.4998 H   0  0  0  0  0  0  0  0  0  0  0  0
    1.3779    0.6291    1.3633 H   0  0  0  0  0  0  0  0  0  0  0  0
    2.2252    1.1165    3.4005 H   0  0  0  0  0  0  0  0  0  0  0  0
    5.1486    0.2180    3.5865 H   0  0  0  0  0  0  0  0  0  0  0  0
    6.2242   -1.5644   -0.5840 H   0  0  0  0  0  0  0  0  0  0  0  0
    4.1626   -1.1874   -1.3895 H   0  0  0  0  0  0  0  0  0  0  0  0
  1  2  2  0
  2  3  1  0
  3  4  1  0
  4  5  1  0
  5  6  1  0
  6  7  2  0
  7  8  1  0
  7  9  1  0
  9 10  2  0
 10 11  1  0
 10 12  1  0
 12 13  2  0
 13 14  1  0
 14 15  1  0
 15 16  1  0
 16 17  2  0
 17 18  1  0
 18 19  2  0
 19 20  1  0
 19 21  1  0
 21 22  1  0
 21 23  2  0
  2 24  1  0
 24 25  2  0
 25 26  1  0
 26 27  1  0
 26 28  2  0
 28 29  1  0
 28 30  1  0
 30 31  1  0
 30 32  2  0
 15  4  1  0
 23 16  1  0
 32 24  1  0
 13  6  1  0
  4 33  1  6
  5 34  1  0
  5 35  1  0
  8 36  1  0
  9 37  1  0
 11 38  1  0
 12 39  1  0
 15 40  1  6
 17 41  1  0
 18 42  1  0
 20 43  1  0
 22 44  1  0
 23 45  1  0
 25 46  1  0
 27 47  1  0
 29 48  1  0
 31 49  1  0
 32 50  1  0
M  END
$$$$
