
     RDKit          3D

 33 35  0  0  0  0  0  0  0  0999 V2000
    5.4822    0.5948   -0.1521 C   0  0  0  0  0  0  0  0  0  0  0  0
    4.2921    1.5062   -0.0112 C   0  0  0  0  0  0  0  0  0  0  0  0
    4.4491    2.7276    0.0531 O   0  0  0  0  0  0  0  0  0  0  0  0
    2.9120    0.9511    0.0529 C   0  0  0  0  0  0  0  0  0  0  0  0
    1.7451    1.8880    0.1651 C   0  0  0  0  0  0  0  0  0  0  0  0
    0.4854    1.5704    0.2334 N   0  0  0  0  0  0  0  0  0  0  0  0
    0.1997    0.2334    0.1958 C   0  0  0  0  0  0  0  0  0  0  0  0
   -0.9847   -0.4811    0.2271 C   0  0  0  0  0  0  0  0  0  0  0  0
   -2.3068    0.1173    0.3103 C   0  0  0  0  0  0  0  0  0  0  0  0
   -3.3270   -0.3005   -0.5546 C   0  0  0  0  0  0  0  0  0  0  0  0
   -4.6044    0.2590   -0.4669 C   0  0  0  0  0  0  0  0  0  0  0  0
   -4.8726    1.2411    0.4846 C   0  0  0  0  0  0  0  0  0  0  0  0
   -3.8641    1.6678    1.3463 C   0  0  0  0  0  0  0  0  0  0  0  0
   -2.5867    1.1090    1.2594 C   0  0  0  0  0  0  0  0  0  0  0  0
   -0.5909   -1.8464    0.1622 C   0  0  0  0  0  0  0  0  0  0  0  0
   -1.4542   -3.0554    0.1942 C   0  0  0  0  0  0  0  0  0  0  0  0
    0.7380   -1.9861    0.0733 N   0  0  0  0  0  0  0  0  0  0  0  0
    1.2114   -0.7130    0.0944 N   0  0  0  0  0  0  0  0  0  0  0  0
    2.5661   -0.3499    0.0238 C   0  0  0  0  0  0  0  0  0  0  0  0
    3.4883   -1.3828   -0.0732 O   0  0  0  0  0  0  0  0  0  0  0  0
    5.5656   -0.0589    0.7195 H   0  0  0  0  0  0  0  0  0  0  0  0
    6.3925    1.2010   -0.2040 H   0  0  0  0  0  0  0  0  0  0  0  0
    5.4136    0.0192   -1.0783 H   0  0  0  0  0  0  0  0  0  0  0  0
    2.0006    2.9613    0.1920 H   0  0  0  0  0  0  0  0  0  0  0  0
   -3.1356   -1.0518   -1.3164 H   0  0  0  0  0  0  0  0  0  0  0  0
   -5.3879   -0.0673   -1.1459 H   0  0  0  0  0  0  0  0  0  0  0  0
   -5.8650    1.6793    0.5505 H   0  0  0  0  0  0  0  0  0  0  0  0
   -4.0677    2.4390    2.0845 H   0  0  0  0  0  0  0  0  0  0  0  0
   -1.8105    1.4572    1.9376 H   0  0  0  0  0  0  0  0  0  0  0  0
   -1.8721   -3.2498   -0.7984 H   0  0  0  0  0  0  0  0  0  0  0  0
   -2.2797   -2.9281    0.9016 H   0  0  0  0  0  0  0  0  0  0  0  0
   -0.8876   -3.9401    0.5035 H   0  0  0  0  0  0  0  0  0  0  0  0
    2.9557   -2.2113   -0.0717 H   0  0  0  0  0  0  0  0  0  0  0  0
  1  2  1  0
  2  3  2  0
  2  4  1  0
  4  5  1  0
  5  6  2  0
  6  7  1  0
  7  8  2  0
  8  9  1  0
  9 10  2  0
 10 11  1  0
 11 12  2  0
 12 13  1  0
 13 14  2  0
  8 15  1  0
 15 16  1  0
 15 17  2  0
 17 18  1  0
 18 19  1  0
 19 20  1  0
 19  4  2  0
 18  7  1  0
 14  9  1  0
  1 21  1  0
  1 22  1  0
  1 23  1  0
  5 24  1  0
 10 25  1  0
 11 26  1  0
 12 27  1  0
 13 28  1  0
 14 29  1  0
 16 30  1  0
 16 31  1  0
 16 32  1  0
 20 33  1  0
M  END
$$$$
