
     RDKit          3D

 39 42  0  0  0  0  0  0  0  0999 V2000
    7.0965   -0.0293   -0.0939 O   0  0  0  0  0  0  0  0  0  0  0  0
    5.7339   -0.0353   -0.0856 C   0  0  0  0  0  0  0  0  0  0  0  0
    5.0831    1.1496    0.2324 C   0  0  0  0  0  0  0  0  0  0  0  0
    3.6851    1.1935    0.2540 C   0  0  0  0  0  0  0  0  0  0  0  0
    2.9296    0.0493   -0.0451 C   0  0  0  0  0  0  0  0  0  0  0  0
    1.4619    0.0428   -0.0389 C   0  0  0  0  0  0  0  0  0  0  0  0
    0.6934   -1.0215   -0.1743 N   0  0  0  0  0  0  0  0  0  0  0  0
   -0.6106   -0.5804   -0.1196 C   0  0  0  0  0  0  0  0  0  0  0  0
   -1.7313   -1.4996   -0.2369 C   0  0  0  0  0  0  0  0  0  0  0  0
   -2.9032   -1.1581   -0.9287 C   0  0  0  0  0  0  0  0  0  0  0  0
   -3.9591   -2.0686   -1.0238 C   0  0  0  0  0  0  0  0  0  0  0  0
   -3.8393   -3.3230   -0.4378 C   0  0  0  0  0  0  0  0  0  0  0  0
   -4.8524   -4.1941   -0.5309 F   0  0  0  0  0  0  0  0  0  0  0  0
   -2.6818   -3.6883    0.2375 C   0  0  0  0  0  0  0  0  0  0  0  0
   -1.6267   -2.7783    0.3335 C   0  0  0  0  0  0  0  0  0  0  0  0
   -0.6545    0.7906    0.0761 C   0  0  0  0  0  0  0  0  0  0  0  0
   -1.7309    1.7505    0.2876 C   0  0  0  0  0  0  0  0  0  0  0  0
   -2.6867    1.5358    1.2812 C   0  0  0  0  0  0  0  0  0  0  0  0
   -3.6878    2.4776    1.4486 C   0  0  0  0  0  0  0  0  0  0  0  0
   -3.7943    3.5988    0.7047 N   0  0  0  0  0  0  0  0  0  0  0  0
   -2.8613    3.7847   -0.2518 C   0  0  0  0  0  0  0  0  0  0  0  0
   -1.8209    2.9029   -0.4947 C   0  0  0  0  0  0  0  0  0  0  0  0
    0.6731    1.1589    0.1056 N   0  0  0  0  0  0  0  0  0  0  0  0
    3.6143   -1.1369   -0.3597 C   0  0  0  0  0  0  0  0  0  0  0  0
    5.0114   -1.1834   -0.3822 C   0  0  0  0  0  0  0  0  0  0  0  0
    7.4084   -0.9198   -0.3255 H   0  0  0  0  0  0  0  0  0  0  0  0
    5.6630    2.0383    0.4664 H   0  0  0  0  0  0  0  0  0  0  0  0
    3.2138    2.1350    0.5166 H   0  0  0  0  0  0  0  0  0  0  0  0
   -3.0025   -0.1895   -1.4120 H   0  0  0  0  0  0  0  0  0  0  0  0
   -4.8682   -1.8085   -1.5565 H   0  0  0  0  0  0  0  0  0  0  0  0
   -2.6033   -4.6758    0.6800 H   0  0  0  0  0  0  0  0  0  0  0  0
   -0.7157   -3.0671    0.8551 H   0  0  0  0  0  0  0  0  0  0  0  0
   -2.6575    0.6570    1.9172 H   0  0  0  0  0  0  0  0  0  0  0  0
   -4.4530    2.3508    2.2093 H   0  0  0  0  0  0  0  0  0  0  0  0
   -2.9772    4.6904   -0.8405 H   0  0  0  0  0  0  0  0  0  0  0  0
   -1.1148    3.1088   -1.2916 H   0  0  0  0  0  0  0  0  0  0  0  0
    1.0098    2.0982    0.2483 H   0  0  0  0  0  0  0  0  0  0  0  0
    3.0501   -2.0394   -0.5928 H   0  0  0  0  0  0  0  0  0  0  0  0
    5.5058   -2.1169   -0.6310 H   0  0  0  0  0  0  0  0  0  0  0  0
  1  2  1  0
  2  3  2  0
  3  4  1  0
  4  5  2  0
  5  6  1  0
  6  7  2  0
  7  8  1  0
  8  9  1  0
  9 10  2  0
 10 11  1  0
 11 12  2  0
 12 13  1  0
 12 14  1  0
 14 15  2  0
  8 16  2  0
 16 17  1  0
 17 18  2  0
 18 19  1  0
 19 20  2  0
 20 21  1  0
 21 22  2  0
 16 23  1  0
  5 24  1  0
 24 25  2  0
 25  2  1  0
 23  6  1  0
 15  9  1  0
 22 17  1  0
  1 26  1  0
  3 27  1  0
  4 28  1  0
 10 29  1  0
 11 30  1  0
 14 31  1  0
 15 32  1  0
 18 33  1  0
 19 34  1  0
 21 35  1  0
 22 36  1  0
 23 37  1  0
 24 38  1  0
 25 39  1  0
M  END
$$$$
