
     RDKit          3D

 72 76  0  0  0  0  0  0  0  0999 V2000
   -1.8369    6.5241    0.3225 C   0  0  0  0  0  0  0  0  0  0  0  0
   -1.9789    5.0998    0.8257 C   0  0  0  0  0  0  0  0  0  0  0  0
   -2.1683    4.2555   -0.3088 O   0  0  0  0  0  0  0  0  0  0  0  0
   -2.2728    2.9116   -0.0856 C   0  0  0  0  0  0  0  0  0  0  0  0
   -2.3830    2.1360   -1.2428 C   0  0  0  0  0  0  0  0  0  0  0  0
   -2.4706    0.7439   -1.1667 C   0  0  0  0  0  0  0  0  0  0  0  0
   -2.4295    0.1088    0.0780 C   0  0  0  0  0  0  0  0  0  0  0  0
   -2.5218   -1.3102    0.1667 N   0  0  0  0  0  0  0  0  0  0  0  0
   -1.5512   -2.0825    0.8009 C   0  0  0  0  0  0  0  0  0  0  0  0
   -0.1453   -1.4698    1.0955 C   0  0  1  0  0  0  0  0  0  0  0  0
    0.5232   -2.0879    2.3262 C   0  0  0  0  0  0  0  0  0  0  0  0
    0.7161   -1.5223   -0.1239 N   0  0  0  0  0  0  0  0  0  0  0  0
    0.8656   -2.8038   -0.8427 C   0  0  0  0  0  0  0  0  0  0  0  0
    1.8045   -3.7653   -0.1665 C   0  0  0  0  0  0  0  0  0  0  0  0
    1.3573   -4.9880    0.3468 C   0  0  0  0  0  0  0  0  0  0  0  0
    2.2455   -5.8281    1.0131 C   0  0  0  0  0  0  0  0  0  0  0  0
    3.5622   -5.4149    1.1426 C   0  0  0  0  0  0  0  0  0  0  0  0
    4.0405   -4.2595    0.6351 N   0  0  0  0  0  0  0  0  0  0  0  0
    3.1552   -3.4666   -0.0144 C   0  0  0  0  0  0  0  0  0  0  0  0
    1.4834   -0.4462   -0.5976 C   0  0  0  0  0  0  0  0  0  0  0  0
    2.1460   -0.5449   -1.6300 O   0  0  0  0  0  0  0  0  0  0  0  0
    1.4861    0.8348    0.2277 C   0  0  0  0  0  0  0  0  0  0  0  0
    2.3634    1.9437   -0.3094 C   0  0  0  0  0  0  0  0  0  0  0  0
    1.7973    3.1233   -0.8036 C   0  0  0  0  0  0  0  0  0  0  0  0
    2.6057    4.1652   -1.2773 C   0  0  0  0  0  0  0  0  0  0  0  0
    3.9938    4.0436   -1.2548 C   0  0  0  0  0  0  0  0  0  0  0  0
    4.9023    4.9851   -1.6463 O   0  0  0  0  0  0  0  0  0  0  0  0
    4.4061    6.1473   -2.2931 C   0  0  0  0  0  0  0  0  0  0  0  0
    3.7839    5.8273   -3.4451 F   0  0  0  0  0  0  0  0  0  0  0  0
    3.5673    6.8419   -1.4963 F   0  0  0  0  0  0  0  0  0  0  0  0
    5.4458    6.9544   -2.5941 F   0  0  0  0  0  0  0  0  0  0  0  0
    4.5602    2.8616   -0.7728 C   0  0  0  0  0  0  0  0  0  0  0  0
    3.7564    1.8187   -0.3050 C   0  0  0  0  0  0  0  0  0  0  0  0
   -1.7061   -3.3490    1.0379 N   0  0  0  0  0  0  0  0  0  0  0  0
   -2.8683   -3.9817    0.6120 C   0  0  0  0  0  0  0  0  0  0  0  0
   -2.9130   -5.3045    0.8840 N   0  0  0  0  0  0  0  0  0  0  0  0
   -3.9935   -5.9872    0.4394 C   0  0  0  0  0  0  0  0  0  0  0  0
   -5.0347   -5.4104   -0.2717 C   0  0  0  0  0  0  0  0  0  0  0  0
   -4.9667   -4.0472   -0.5442 C   0  0  0  0  0  0  0  0  0  0  0  0
   -3.8573   -3.3289   -0.0956 C   0  0  0  0  0  0  0  0  0  0  0  0
   -3.6919   -1.8942   -0.3379 C   0  0  0  0  0  0  0  0  0  0  0  0
   -4.5933   -1.3037   -0.9327 O   0  0  0  0  0  0  0  0  0  0  0  0
   -2.3572    0.8891    1.2420 C   0  0  0  0  0  0  0  0  0  0  0  0
   -2.2743    2.2843    1.1591 C   0  0  0  0  0  0  0  0  0  0  0  0
   -1.6694    7.2207    1.1462 H   0  0  0  0  0  0  0  0  0  0  0  0
   -1.0030    6.6023   -0.3788 H   0  0  0  0  0  0  0  0  0  0  0  0
   -2.7387    6.8311   -0.2196 H   0  0  0  0  0  0  0  0  0  0  0  0
   -2.8457    5.0414    1.4939 H   0  0  0  0  0  0  0  0  0  0  0  0
   -1.0670    4.8147    1.3628 H   0  0  0  0  0  0  0  0  0  0  0  0
   -2.3996    2.6225   -2.2167 H   0  0  0  0  0  0  0  0  0  0  0  0
   -2.5595    0.1689   -2.0855 H   0  0  0  0  0  0  0  0  0  0  0  0
   -0.2740   -0.4272    1.3627 H   0  0  0  0  0  0  0  0  0  0  0  0
   -0.0665   -1.8632    3.2237 H   0  0  0  0  0  0  0  0  0  0  0  0
    1.5299   -1.6825    2.4746 H   0  0  0  0  0  0  0  0  0  0  0  0
    0.6027   -3.1740    2.2690 H   0  0  0  0  0  0  0  0  0  0  0  0
    1.2385   -2.6294   -1.8579 H   0  0  0  0  0  0  0  0  0  0  0  0
   -0.1204   -3.2540   -0.9878 H   0  0  0  0  0  0  0  0  0  0  0  0
    0.3127   -5.2744    0.2642 H   0  0  0  0  0  0  0  0  0  0  0  0
    1.9054   -6.7569    1.4474 H   0  0  0  0  0  0  0  0  0  0  0  0
    4.2921   -6.0195    1.6771 H   0  0  0  0  0  0  0  0  0  0  0  0
    3.5800   -2.5548   -0.4237 H   0  0  0  0  0  0  0  0  0  0  0  0
    0.4641    1.2068    0.2875 H   0  0  0  0  0  0  0  0  0  0  0  0
    1.8195    0.5978    1.2417 H   0  0  0  0  0  0  0  0  0  0  0  0
    0.7188    3.2539   -0.8191 H   0  0  0  0  0  0  0  0  0  0  0  0
    2.1052    5.0584   -1.6366 H   0  0  0  0  0  0  0  0  0  0  0  0
    5.6395    2.7454   -0.7565 H   0  0  0  0  0  0  0  0  0  0  0  0
    4.2286    0.9046    0.0539 H   0  0  0  0  0  0  0  0  0  0  0  0
   -3.9979   -7.0501    0.6737 H   0  0  0  0  0  0  0  0  0  0  0  0
   -5.8792   -6.0064   -0.6027 H   0  0  0  0  0  0  0  0  0  0  0  0
   -5.7611   -3.5575   -1.1011 H   0  0  0  0  0  0  0  0  0  0  0  0
   -2.3867    0.4283    2.2275 H   0  0  0  0  0  0  0  0  0  0  0  0
   -2.2212    2.8499    2.0844 H   0  0  0  0  0  0  0  0  0  0  0  0
  1  2  1  0
  2  3  1  0
  3  4  1  0
  4  5  2  0
  5  6  1  0
  6  7  2  0
  7  8  1  0
  8  9  1  0
  9 10  1  0
 10 11  1  0
 10 12  1  0
 12 13  1  0
 13 14  1  0
 14 15  2  0
 15 16  1  0
 16 17  2  0
 17 18  1  0
 18 19  2  0
 12 20  1  0
 20 21  2  0
 20 22  1  0
 22 23  1  0
 23 24  2  0
 24 25  1  0
 25 26  2  0
 26 27  1  0
 27 28  1  0
 28 29  1  0
 28 30  1  0
 28 31  1  0
 26 32  1  0
 32 33  2  0
  9 34  2  0
 34 35  1  0
 35 36  2  0
 36 37  1  0
 37 38  2  0
 38 39  1  0
 39 40  2  0
 40 41  1  0
 41 42  2  0
  7 43  1  0
 43 44  2  0
 44  4  1  0
 41  8  1  0
 19 14  1  0
 33 23  1  0
 40 35  1  0
  1 45  1  0
  1 46  1  0
  1 47  1  0
  2 48  1  0
  2 49  1  0
  5 50  1  0
  6 51  1  0
 10 52  1  1
 11 53  1  0
 11 54  1  0
 11 55  1  0
 13 56  1  0
 13 57  1  0
 15 58  1  0
 16 59  1  0
 17 60  1  0
 19 61  1  0
 22 62  1  0
 22 63  1  0
 24 64  1  0
 25 65  1  0
 32 66  1  0
 33 67  1  0
 37 68  1  0
 38 69  1  0
 39 70  1  0
 43 71  1  0
 44 72  1  0
M  END
$$$$
