
     RDKit          3D

 32 32  0  0  0  0  0  0  0  0999 V2000
    5.4039    2.4596    1.5986 C   0  0  0  0  0  0  0  0  0  0  0  0
    4.3221    1.6727    1.2456 O   0  0  0  0  0  0  0  0  0  0  0  0
    3.0653    2.0678    0.9873 C   0  0  0  0  0  0  0  0  0  0  0  0
    2.6400    3.4096    1.0396 C   0  0  0  0  0  0  0  0  0  0  0  0
    1.3825    3.8172    0.7788 C   0  0  0  0  0  0  0  0  0  0  0  0
    0.4677    2.8439    0.4427 C   0  0  0  0  0  0  0  0  0  0  0  0
    0.7974    1.5190    0.3718 C   0  0  0  0  0  0  0  0  0  0  0  0
   -0.2152    0.5284   -0.0439 C   0  0  0  0  0  0  0  0  0  0  0  0
   -1.0053   -0.2676   -0.3621 C   0  0  0  0  0  0  0  0  0  0  0  0
   -2.0103   -1.3119   -0.7686 C   0  0  0  0  0  0  0  0  0  0  0  0
   -2.8959   -0.8626   -1.7039 C   0  0  0  0  0  0  0  0  0  0  0  0
   -3.9606   -1.7177   -2.1890 C   0  0  0  0  0  0  0  0  0  0  0  0
   -3.9534   -2.9489   -1.6187 C   0  0  0  0  0  0  0  0  0  0  0  0
   -3.0414   -3.3697   -0.6697 C   0  0  0  0  0  0  0  0  0  0  0  0
   -3.0886   -4.7878   -0.1914 C   0  0  0  0  0  0  0  0  0  0  0  0
   -2.0794   -2.5171   -0.2691 N   0  0  0  0  0  0  0  0  0  0  0  0
    2.0866    1.1171    0.6372 C   0  0  0  0  0  0  0  0  0  0  0  0
    0.6884    0.0000    0.0000 Cl  0  0  0  0  0  0  0  0  0  0  0  0
    5.9765    2.6640    0.6458 H   0  0  0  0  0  0  0  0  0  0  0  0
    6.1599    1.9778    2.2672 H   0  0  0  0  0  0  0  0  0  0  0  0
    5.1198    3.4469    2.0750 H   0  0  0  0  0  0  0  0  0  0  0  0
    3.4000    4.1737    1.2988 H   0  0  0  0  0  0  0  0  0  0  0  0
    1.1074    4.8838    0.8434 H   0  0  0  0  0  0  0  0  0  0  0  0
   -0.5553    3.1350    0.2110 H   0  0  0  0  0  0  0  0  0  0  0  0
   -2.8372    0.1119   -2.1424 H   0  0  0  0  0  0  0  0  0  0  0  0
   -4.6433   -1.4126   -2.9102 H   0  0  0  0  0  0  0  0  0  0  0  0
   -4.6925   -3.7226   -1.9005 H   0  0  0  0  0  0  0  0  0  0  0  0
   -2.6424   -5.4404   -1.0020 H   0  0  0  0  0  0  0  0  0  0  0  0
   -2.4994   -4.9585    0.7147 H   0  0  0  0  0  0  0  0  0  0  0  0
   -4.1387   -5.0906    0.0264 H   0  0  0  0  0  0  0  0  0  0  0  0
    2.3297    0.0775    0.5875 H   0  0  0  0  0  0  0  0  0  0  0  0
   -0.6884    0.0000    0.0000 H   0  0  0  0  0  0  0  0  0  0  0  0
  1  2  1  0
  2  3  1  0
  3  4  2  0
  4  5  1  0
  5  6  2  0
  6  7  1  0
  7  8  1  0
  8  9  3  0
  9 10  1  0
 10 11  2  0
 11 12  1  0
 12 13  2  0
 13 14  1  0
 14 15  1  0
 14 16  2  0
  7 17  2  0
 17  3  1  0
 16 10  1  0
  1 19  1  0
  1 20  1  0
  1 21  1  0
  4 22  1  0
  5 23  1  0
  6 24  1  0
 11 25  1  0
 12 26  1  0
 13 27  1  0
 15 28  1  0
 15 29  1  0
 15 30  1  0
 17 31  1  0
 18 32  1  0
M  END
$$$$
