
     RDKit          3D

 46 48  0  0  0  0  0  0  0  0999 V2000
    2.4799   -1.4510    2.3209 O   0  0  0  0  0  0  0  0  0  0  0  0
    1.5552   -0.3426    2.2469 S   0  0  0  0  0  6  0  0  0  0  0  0
    1.0014    0.2625    3.4381 O   0  0  0  0  0  0  0  0  0  0  0  0
    0.2654   -0.7751    1.2825 N   0  0  0  0  0  0  0  0  0  0  0  0
    0.4308   -1.3682   -0.0663 C   0  0  0  0  0  0  0  0  0  0  0  0
    0.7045   -2.8686    0.0560 C   0  0  0  0  0  0  0  0  0  0  0  0
   -0.4240   -3.6125    0.7761 C   0  0  0  0  0  0  0  0  0  0  0  0
   -1.8071   -3.0308    0.4827 C   0  0  0  0  0  0  0  0  0  0  0  0
   -1.8283   -2.3190   -0.8623 C   0  0  0  0  0  0  0  0  0  0  0  0
   -0.8805   -1.0844   -0.9144 C   0  0  0  0  0  0  0  0  0  0  0  0
   -1.4895    0.2209   -0.5027 N   0  0  0  0  0  0  0  0  0  0  0  0
   -0.6773    1.3865   -0.9474 C   0  0  0  0  0  0  0  0  0  0  0  0
   -1.2672    2.1414   -2.1498 C   0  0  0  0  0  0  0  0  0  0  0  0
   -2.5756    2.6626   -1.8931 O   0  0  0  0  0  0  0  0  0  0  0  0
   -3.3151    1.8792   -0.9479 C   0  0  0  0  0  0  0  0  0  0  0  0
   -2.8915    0.4013   -0.9449 C   0  0  0  0  0  0  0  0  0  0  0  0
    2.3422    0.9531    1.3152 C   0  0  0  0  0  0  0  0  0  0  0  0
    3.4397    0.6579    0.4992 C   0  0  0  0  0  0  0  0  0  0  0  0
    4.0612    1.6843   -0.2152 C   0  0  0  0  0  0  0  0  0  0  0  0
    3.5944    2.9944   -0.0969 C   0  0  0  0  0  0  0  0  0  0  0  0
    4.3575    4.2542   -0.9851 Cl  0  0  0  0  0  0  0  0  0  0  0  0
    2.5161    3.2920    0.7376 C   0  0  0  0  0  0  0  0  0  0  0  0
    1.8906    2.2700    1.4547 C   0  0  0  0  0  0  0  0  0  0  0  0
   -0.5624   -0.1755    1.3692 H   0  0  0  0  0  0  0  0  0  0  0  0
    1.2697   -0.8845   -0.5757 H   0  0  0  0  0  0  0  0  0  0  0  0
    1.6499   -3.0654    0.5712 H   0  0  0  0  0  0  0  0  0  0  0  0
    0.8252   -3.2871   -0.9518 H   0  0  0  0  0  0  0  0  0  0  0  0
   -0.2545   -3.5997    1.8596 H   0  0  0  0  0  0  0  0  0  0  0  0
   -0.3938   -4.6670    0.4759 H   0  0  0  0  0  0  0  0  0  0  0  0
   -2.0984   -2.3316    1.2755 H   0  0  0  0  0  0  0  0  0  0  0  0
   -2.5488   -3.8378    0.4953 H   0  0  0  0  0  0  0  0  0  0  0  0
   -1.5077   -3.0299   -1.6371 H   0  0  0  0  0  0  0  0  0  0  0  0
   -2.8591   -2.0764   -1.1328 H   0  0  0  0  0  0  0  0  0  0  0  0
   -0.5868   -0.9966   -1.9707 H   0  0  0  0  0  0  0  0  0  0  0  0
    0.3576    1.1101   -1.1712 H   0  0  0  0  0  0  0  0  0  0  0  0
   -0.6412    2.0798   -0.0986 H   0  0  0  0  0  0  0  0  0  0  0  0
   -1.3217    1.4891   -3.0291 H   0  0  0  0  0  0  0  0  0  0  0  0
   -0.6242    2.9876   -2.4128 H   0  0  0  0  0  0  0  0  0  0  0  0
   -4.3748    1.9665   -1.2086 H   0  0  0  0  0  0  0  0  0  0  0  0
   -3.1864    2.3254    0.0453 H   0  0  0  0  0  0  0  0  0  0  0  0
   -3.5560   -0.1490   -0.2704 H   0  0  0  0  0  0  0  0  0  0  0  0
   -3.0202    0.0146   -1.9642 H   0  0  0  0  0  0  0  0  0  0  0  0
    3.8149   -0.3604    0.4185 H   0  0  0  0  0  0  0  0  0  0  0  0
    4.9122    1.4591   -0.8536 H   0  0  0  0  0  0  0  0  0  0  0  0
    2.1649    4.3161    0.8397 H   0  0  0  0  0  0  0  0  0  0  0  0
    1.0588    2.5050    2.1162 H   0  0  0  0  0  0  0  0  0  0  0  0
  1  2  2  0
  2  3  2  0
  2  4  1  0
  4  5  1  0
  5  6  1  0
  6  7  1  0
  7  8  1  0
  8  9  1  0
  9 10  1  0
 10 11  1  0
 11 12  1  0
 12 13  1  0
 13 14  1  0
 14 15  1  0
 15 16  1  0
  2 17  1  0
 17 18  2  0
 18 19  1  0
 19 20  2  0
 20 21  1  0
 20 22  1  0
 22 23  2  0
 10  5  1  0
 16 11  1  0
 23 17  1  0
  4 24  1  0
  5 25  1  0
  6 26  1  0
  6 27  1  0
  7 28  1  0
  7 29  1  0
  8 30  1  0
  8 31  1  0
  9 32  1  0
  9 33  1  0
 10 34  1  0
 12 35  1  0
 12 36  1  0
 13 37  1  0
 13 38  1  0
 15 39  1  0
 15 40  1  0
 16 41  1  0
 16 42  1  0
 18 43  1  0
 19 44  1  0
 22 45  1  0
 23 46  1  0
M  END
$$$$
