
     RDKit          3D

 52 53  0  0  0  0  0  0  0  0999 V2000
   -4.7435   -3.1279   -0.2597 C   0  0  0  0  0  0  0  0  0  0  0  0
   -4.1016   -2.1297   -1.2130 C   0  0  0  0  0  0  0  0  0  0  0  0
   -4.1435   -0.6390   -0.8016 C   0  0  1  0  0  0  0  0  0  0  0  0
   -5.4834   -0.2278   -0.1823 C   0  0  0  0  0  0  0  0  0  0  0  0
   -2.9262   -0.1429    0.0352 C   0  0  1  0  0  0  0  0  0  0  0  0
   -2.6008   -0.9383    1.3155 C   0  0  0  0  0  0  0  0  0  0  0  0
   -3.6641   -0.9058    2.2562 O   0  0  0  0  0  0  0  0  0  0  0  0
   -1.7390   -0.0491   -0.8224 N   0  0  0  0  0  0  0  0  0  0  0  0
   -0.7194    0.8408   -0.5438 C   0  0  0  0  0  0  0  0  0  0  0  0
   -0.7895    1.6780    0.3507 O   0  0  0  0  0  0  0  0  0  0  0  0
    0.4685    0.7318   -1.4703 C   0  0  0  0  0  0  0  0  0  0  0  0
    1.7936    0.9082   -0.7581 C   0  0  0  0  0  0  0  0  0  0  0  0
    2.4181   -0.1811   -0.4280 N   0  0  0  0  0  0  0  0  0  0  0  0
    3.6414   -0.1020    0.1931 N   0  0  0  0  0  0  0  0  0  0  0  0
    4.2477   -1.3733    0.6190 C   0  0  0  0  0  0  0  0  0  0  0  0
    3.6752   -1.8113    1.9666 C   0  0  0  0  0  0  0  0  0  0  0  0
    4.0834   -2.4796   -0.4238 C   0  0  0  0  0  0  0  0  0  0  0  0
    4.2429    1.0995    0.5673 C   0  0  0  0  0  0  0  0  0  0  0  0
    5.3020    1.1787    1.1855 O   0  0  0  0  0  0  0  0  0  0  0  0
    3.5452    2.3384    0.1762 C   0  0  0  0  0  0  0  0  0  0  0  0
    4.1153    3.5871    0.4692 C   0  0  0  0  0  0  0  0  0  0  0  0
    3.4528    4.7603    0.1080 C   0  0  0  0  0  0  0  0  0  0  0  0
    2.2210    4.6870   -0.5390 C   0  0  0  0  0  0  0  0  0  0  0  0
    1.6521    3.4424   -0.8306 C   0  0  0  0  0  0  0  0  0  0  0  0
    2.3203    2.2618   -0.4778 C   0  0  0  0  0  0  0  0  0  0  0  0
   -4.2576   -3.1433    0.7191 H   0  0  0  0  0  0  0  0  0  0  0  0
   -4.6698   -4.1363   -0.6837 H   0  0  0  0  0  0  0  0  0  0  0  0
   -5.8074   -2.9195   -0.1160 H   0  0  0  0  0  0  0  0  0  0  0  0
   -4.6281   -2.2254   -2.1717 H   0  0  0  0  0  0  0  0  0  0  0  0
   -3.0711   -2.4408   -1.4121 H   0  0  0  0  0  0  0  0  0  0  0  0
   -4.0874   -0.0800   -1.7490 H   0  0  0  0  0  0  0  0  0  0  0  0
   -5.5115    0.8526   -0.0022 H   0  0  0  0  0  0  0  0  0  0  0  0
   -5.6792   -0.7279    0.7695 H   0  0  0  0  0  0  0  0  0  0  0  0
   -6.3078   -0.4667   -0.8630 H   0  0  0  0  0  0  0  0  0  0  0  0
   -3.1588    0.8846    0.3506 H   0  0  0  0  0  0  0  0  0  0  0  0
   -1.7115   -0.5321    1.8110 H   0  0  0  0  0  0  0  0  0  0  0  0
   -2.3696   -1.9800    1.0805 H   0  0  0  0  0  0  0  0  0  0  0  0
   -3.6969    0.0011    2.6157 H   0  0  0  0  0  0  0  0  0  0  0  0
   -1.5317   -0.8366   -1.4238 H   0  0  0  0  0  0  0  0  0  0  0  0
    0.3562    1.4617   -2.2778 H   0  0  0  0  0  0  0  0  0  0  0  0
    0.4750   -0.2558   -1.9510 H   0  0  0  0  0  0  0  0  0  0  0  0
    5.3240   -1.2075    0.7499 H   0  0  0  0  0  0  0  0  0  0  0  0
    3.8407   -1.0423    2.7279 H   0  0  0  0  0  0  0  0  0  0  0  0
    4.1490   -2.7378    2.3106 H   0  0  0  0  0  0  0  0  0  0  0  0
    2.5950   -1.9847    1.9024 H   0  0  0  0  0  0  0  0  0  0  0  0
    4.4623   -2.1520   -1.3975 H   0  0  0  0  0  0  0  0  0  0  0  0
    4.6421   -3.3733   -0.1261 H   0  0  0  0  0  0  0  0  0  0  0  0
    3.0338   -2.7694   -0.5506 H   0  0  0  0  0  0  0  0  0  0  0  0
    5.0738    3.6454    0.9825 H   0  0  0  0  0  0  0  0  0  0  0  0
    3.8931    5.7288    0.3377 H   0  0  0  0  0  0  0  0  0  0  0  0
    1.6949    5.6013   -0.8096 H   0  0  0  0  0  0  0  0  0  0  0  0
    0.6801    3.4297   -1.3149 H   0  0  0  0  0  0  0  0  0  0  0  0
  1  2  1  0
  2  3  1  0
  3  4  1  0
  3  5  1  0
  5  6  1  0
  6  7  1  0
  5  8  1  0
  8  9  1  0
  9 10  2  0
  9 11  1  0
 11 12  1  0
 12 13  2  0
 13 14  1  0
 14 15  1  0
 15 16  1  0
 15 17  1  0
 14 18  1  0
 18 19  2  0
 18 20  1  0
 20 21  2  0
 21 22  1  0
 22 23  2  0
 23 24  1  0
 24 25  2  0
 25 12  1  0
 25 20  1  0
  1 26  1  0
  1 27  1  0
  1 28  1  0
  2 29  1  0
  2 30  1  0
  3 31  1  6
  4 32  1  0
  4 33  1  0
  4 34  1  0
  5 35  1  1
  6 36  1  0
  6 37  1  0
  7 38  1  0
  8 39  1  0
 11 40  1  0
 11 41  1  0
 15 42  1  0
 16 43  1  0
 16 44  1  0
 16 45  1  0
 17 46  1  0
 17 47  1  0
 17 48  1  0
 21 49  1  0
 22 50  1  0
 23 51  1  0
 24 52  1  0
M  END
$$$$
