
     RDKit          3D

 48 48  0  0  0  0  0  0  0  0999 V2000
   -1.3245    3.0121   -0.8327 C   0  0  0  0  0  0  0  0  0  0  0  0
   -1.6995    1.6415   -0.4291 C   0  0  0  0  0  0  0  0  0  0  0  0
   -3.0345    1.2951   -0.2233 C   0  0  0  0  0  0  0  0  0  0  0  0
   -3.3245    0.0116    0.1543 C   0  0  0  0  0  0  0  0  0  0  0  0
   -4.6868   -0.4502    0.3904 C   0  0  0  0  0  0  0  0  0  0  0  0
   -5.7796    0.3573    0.2560 C   0  0  0  0  0  0  0  0  0  0  0  0
   -7.0681   -0.1246    0.4908 C   0  0  0  0  0  0  0  0  0  0  0  0
   -7.2884   -1.4224    0.8647 C   0  0  0  0  0  0  0  0  0  0  0  0
   -6.1816   -2.2405    1.0010 C   0  0  0  0  0  0  0  0  0  0  0  0
   -4.9085   -1.7680    0.7699 C   0  0  0  0  0  0  0  0  0  0  0  0
   -2.3012   -0.8611    0.3109 N   0  0  0  0  0  0  0  0  0  0  0  0
   -1.0533   -0.5100    0.1111 N   0  0  0  0  0  0  0  0  0  0  0  0
   -0.6894    0.7271   -0.2606 C   0  0  0  0  0  0  0  0  0  0  0  0
    0.6574    1.0839   -0.4839 N   0  0  0  0  0  0  0  0  0  0  0  0
    1.6826    0.0631   -0.2742 C   0  0  0  0  0  0  0  0  0  0  0  0
    3.0148    0.6861   -0.6228 C   0  0  0  0  0  0  0  0  0  0  0  0
    4.0284   -0.3278   -0.4138 N   0  0  0  0  0  0  0  0  0  0  0  0
    5.3581    0.1257   -0.8043 C   0  0  0  0  0  0  0  0  0  0  0  0
    6.1238   -1.1816   -1.0781 C   0  0  0  0  0  0  0  0  0  0  0  0
    5.7819   -2.1363   -0.1077 O   0  0  0  0  0  0  0  0  0  0  0  0
    5.3904   -1.5627    1.0937 C   0  0  0  0  0  0  0  0  0  0  0  0
    4.0682   -0.7918    0.9658 C   0  0  0  0  0  0  0  0  0  0  0  0
    0.6839    0.0000    0.0000 Cl  0  0  0  0  0  0  0  0  0  0  0  0
    0.6849    0.0000    0.0000 Cl  0  0  0  0  0  0  0  0  0  0  0  0
   -2.2546    3.5978   -1.0357 H   0  0  0  0  0  0  0  0  0  0  0  0
   -0.7779    3.5446   -0.0264 H   0  0  0  0  0  0  0  0  0  0  0  0
   -0.6866    3.0436   -1.7347 H   0  0  0  0  0  0  0  0  0  0  0  0
   -3.8163    2.0475   -0.3662 H   0  0  0  0  0  0  0  0  0  0  0  0
   -5.6513    1.3791   -0.0348 H   0  0  0  0  0  0  0  0  0  0  0  0
   -7.8809    0.5914    0.3583 H   0  0  0  0  0  0  0  0  0  0  0  0
   -8.2911   -1.7601    1.0378 H   0  0  0  0  0  0  0  0  0  0  0  0
   -6.3621   -3.2731    1.2991 H   0  0  0  0  0  0  0  0  0  0  0  0
   -4.0377   -2.4053    0.8766 H   0  0  0  0  0  0  0  0  0  0  0  0
    0.8881    2.0443   -0.7878 H   0  0  0  0  0  0  0  0  0  0  0  0
    1.4626   -0.8117   -0.9471 H   0  0  0  0  0  0  0  0  0  0  0  0
    1.6260   -0.3316    0.7406 H   0  0  0  0  0  0  0  0  0  0  0  0
    3.0064    0.9082   -1.7058 H   0  0  0  0  0  0  0  0  0  0  0  0
    3.2067    1.6058   -0.0421 H   0  0  0  0  0  0  0  0  0  0  0  0
    5.2555    0.7252   -1.7207 H   0  0  0  0  0  0  0  0  0  0  0  0
    5.8798    0.7011   -0.0389 H   0  0  0  0  0  0  0  0  0  0  0  0
    7.2073   -1.0076   -1.0890 H   0  0  0  0  0  0  0  0  0  0  0  0
    5.7149   -1.5789   -2.0346 H   0  0  0  0  0  0  0  0  0  0  0  0
    5.2873   -2.3772    1.8344 H   0  0  0  0  0  0  0  0  0  0  0  0
    6.1787   -0.8349    1.3727 H   0  0  0  0  0  0  0  0  0  0  0  0
    4.0388    0.0345    1.7002 H   0  0  0  0  0  0  0  0  0  0  0  0
    3.2407   -1.4689    1.1550 H   0  0  0  0  0  0  0  0  0  0  0  0
   -0.6839    0.0000    0.0000 H   0  0  0  0  0  0  0  0  0  0  0  0
   -0.6849    0.0000    0.0000 H   0  0  0  0  0  0  0  0  0  0  0  0
  1  2  1  0
  2  3  2  0
  3  4  1  0
  4  5  1  0
  5  6  2  0
  6  7  1  0
  7  8  2  0
  8  9  1  0
  9 10  2  0
  4 11  2  0
 11 12  1  0
 12 13  2  0
 13 14  1  0
 14 15  1  0
 15 16  1  0
 16 17  1  0
 17 18  1  0
 18 19  1  0
 19 20  1  0
 20 21  1  0
 21 22  1  0
 13  2  1  0
 22 17  1  0
 10  5  1  0
  1 25  1  0
  1 26  1  0
  1 27  1  0
  3 28  1  0
  6 29  1  0
  7 30  1  0
  8 31  1  0
  9 32  1  0
 10 33  1  0
 14 34  1  0
 15 35  1  0
 15 36  1  0
 16 37  1  0
 16 38  1  0
 18 39  1  0
 18 40  1  0
 19 41  1  0
 19 42  1  0
 21 43  1  0
 21 44  1  0
 22 45  1  0
 22 46  1  0
 23 47  1  0
 24 48  1  0
M  END
$$$$
