
     RDKit          3D

 52 54  0  0  0  0  0  0  0  0999 V2000
   -3.0387   -3.4014    0.0437 C   0  0  0  0  0  0  0  0  0  0  0  0
   -3.5252   -2.0543   -0.4303 C   0  0  0  0  0  0  0  0  0  0  0  0
   -4.6653   -1.9603   -0.8809 O   0  0  0  0  0  0  0  0  0  0  0  0
   -2.6580   -0.9674   -0.3345 N   0  0  0  0  0  0  0  0  0  0  0  0
   -3.1170    0.3760   -0.7931 C   0  0  0  0  0  0  0  0  0  0  0  0
   -4.2606    0.9590    0.0544 C   0  0  0  0  0  0  0  0  0  0  0  0
   -5.6244    0.9439   -0.6167 C   0  0  0  0  0  0  0  0  0  0  0  0
   -5.5253    1.4076   -1.9595 O   0  0  0  0  0  0  0  0  0  0  0  0
   -4.7798    0.4909   -2.7551 C   0  0  0  0  0  0  0  0  0  0  0  0
   -3.3259    0.4655   -2.3137 C   0  0  0  0  0  0  0  0  0  0  0  0
   -1.2877   -1.0874    0.2038 C   0  0  0  0  0  0  0  0  0  0  0  0
   -1.0311   -0.2671    1.4741 C   0  0  0  0  0  0  0  0  0  0  0  0
    0.4901   -0.2270    1.5494 C   0  0  0  0  0  0  0  0  0  0  0  0
    0.9415   -0.2950    0.1663 N   0  0  0  0  0  0  0  0  0  0  0  0
    2.1941   -0.0167   -0.3491 C   0  0  0  0  0  0  0  0  0  0  0  0
    2.3806   -0.0251   -1.5621 O   0  0  0  0  0  0  0  0  0  0  0  0
    3.1483    0.2466    0.6069 N   0  0  0  0  0  0  0  0  0  0  0  0
    4.4915    0.6528    0.4167 C   0  0  0  0  0  0  0  0  0  0  0  0
    4.9970    1.0061   -0.8429 C   0  0  0  0  0  0  0  0  0  0  0  0
    6.3254    1.4121   -1.0034 C   0  0  0  0  0  0  0  0  0  0  0  0
    7.1675    1.4752    0.0980 C   0  0  0  0  0  0  0  0  0  0  0  0
    6.6743    1.1351    1.3513 C   0  0  0  0  0  0  0  0  0  0  0  0
    7.5066    1.2081    2.4009 F   0  0  0  0  0  0  0  0  0  0  0  0
    5.3456    0.7249    1.5391 C   0  0  0  0  0  0  0  0  0  0  0  0
    4.8885    0.3753    2.9279 C   0  0  0  0  0  0  0  0  0  0  0  0
   -0.1536   -0.6401   -0.7308 C   0  0  0  0  0  0  0  0  0  0  0  0
   -3.8392   -4.1377   -0.0816 H   0  0  0  0  0  0  0  0  0  0  0  0
   -2.1856   -3.7299   -0.5556 H   0  0  0  0  0  0  0  0  0  0  0  0
   -2.7848   -3.3629    1.1062 H   0  0  0  0  0  0  0  0  0  0  0  0
   -2.2680    1.0404   -0.5934 H   0  0  0  0  0  0  0  0  0  0  0  0
   -4.3141    0.4895    1.0433 H   0  0  0  0  0  0  0  0  0  0  0  0
   -4.0137    2.0153    0.2321 H   0  0  0  0  0  0  0  0  0  0  0  0
   -6.2978    1.6233   -0.0828 H   0  0  0  0  0  0  0  0  0  0  0  0
   -6.0974   -0.0419   -0.5921 H   0  0  0  0  0  0  0  0  0  0  0  0
   -4.8371    0.8341   -3.7938 H   0  0  0  0  0  0  0  0  0  0  0  0
   -5.2463   -0.4982   -2.7291 H   0  0  0  0  0  0  0  0  0  0  0  0
   -2.7768   -0.3193   -2.8463 H   0  0  0  0  0  0  0  0  0  0  0  0
   -2.8854    1.4193   -2.6370 H   0  0  0  0  0  0  0  0  0  0  0  0
   -1.0769   -2.1284    0.4646 H   0  0  0  0  0  0  0  0  0  0  0  0
   -1.4820   -0.7163    2.3643 H   0  0  0  0  0  0  0  0  0  0  0  0
   -1.4191    0.7534    1.3886 H   0  0  0  0  0  0  0  0  0  0  0  0
    0.8854   -1.1041    2.0733 H   0  0  0  0  0  0  0  0  0  0  0  0
    0.8572    0.6798    2.0389 H   0  0  0  0  0  0  0  0  0  0  0  0
    2.8854    0.0124    1.5474 H   0  0  0  0  0  0  0  0  0  0  0  0
    4.3744    0.9840   -1.7326 H   0  0  0  0  0  0  0  0  0  0  0  0
    6.6932    1.6788   -1.9910 H   0  0  0  0  0  0  0  0  0  0  0  0
    8.2011    1.7881   -0.0082 H   0  0  0  0  0  0  0  0  0  0  0  0
    4.0649    1.0296    3.2319 H   0  0  0  0  0  0  0  0  0  0  0  0
    4.5609   -0.6687    2.9673 H   0  0  0  0  0  0  0  0  0  0  0  0
    5.6866    0.4936    3.6677 H   0  0  0  0  0  0  0  0  0  0  0  0
    0.1488   -1.4366   -1.4192 H   0  0  0  0  0  0  0  0  0  0  0  0
   -0.3921    0.2481   -1.3236 H   0  0  0  0  0  0  0  0  0  0  0  0
  1  2  1  0
  2  3  2  0
  2  4  1  0
  4  5  1  0
  5  6  1  0
  6  7  1  0
  7  8  1  0
  8  9  1  0
  9 10  1  0
  4 11  1  0
 11 12  1  0
 12 13  1  0
 13 14  1  0
 14 15  1  0
 15 16  2  0
 15 17  1  0
 17 18  1  0
 18 19  2  0
 19 20  1  0
 20 21  2  0
 21 22  1  0
 22 23  1  0
 22 24  2  0
 24 25  1  0
 14 26  1  0
 10  5  1  0
 26 11  1  0
 24 18  1  0
  1 27  1  0
  1 28  1  0
  1 29  1  0
  5 30  1  0
  6 31  1  0
  6 32  1  0
  7 33  1  0
  7 34  1  0
  9 35  1  0
  9 36  1  0
 10 37  1  0
 10 38  1  0
 11 39  1  0
 12 40  1  0
 12 41  1  0
 13 42  1  0
 13 43  1  0
 17 44  1  0
 19 45  1  0
 20 46  1  0
 21 47  1  0
 25 48  1  0
 25 49  1  0
 25 50  1  0
 26 51  1  0
 26 52  1  0
M  END
$$$$
