
     RDKit          3D

 39 41  0  0  0  0  0  0  0  0999 V2000
    0.0705    1.4158    1.7061 O   0  0  0  0  0  0  0  0  0  0  0  0
    0.1708    0.2347    1.4054 C   0  0  0  0  0  0  0  0  0  0  0  0
   -0.8634   -0.6671    1.5685 N   0  0  0  0  0  0  0  0  0  0  0  0
   -2.1619   -0.2204    2.0284 C   0  0  0  0  0  0  0  0  0  0  0  0
   -3.0892    0.0382    0.8670 C   0  0  0  0  0  0  0  0  0  0  0  0
   -3.0257    1.2516    0.1688 C   0  0  0  0  0  0  0  0  0  0  0  0
   -3.8645    1.4890   -0.9223 C   0  0  0  0  0  0  0  0  0  0  0  0
   -4.7866    0.5175   -1.3363 C   0  0  0  0  0  0  0  0  0  0  0  0
   -5.6782    0.7622   -2.5285 C   0  0  0  0  0  0  0  0  0  0  0  0
   -5.1248    0.3133   -3.6889 F   0  0  0  0  0  0  0  0  0  0  0  0
   -5.9575    2.0800   -2.7316 F   0  0  0  0  0  0  0  0  0  0  0  0
   -6.8863    0.1393   -2.4267 F   0  0  0  0  0  0  0  0  0  0  0  0
   -4.8385   -0.7032   -0.6466 C   0  0  0  0  0  0  0  0  0  0  0  0
   -3.9981   -0.9407    0.4443 C   0  0  0  0  0  0  0  0  0  0  0  0
    1.2849   -0.4017    0.8996 N   0  0  0  0  0  0  0  0  0  0  0  0
    2.5133    0.1786    0.4907 C   0  0  0  0  0  0  0  0  0  0  0  0
    2.6412    1.5670    0.3424 C   0  0  0  0  0  0  0  0  0  0  0  0
    3.8408    2.1398   -0.0748 C   0  0  0  0  0  0  0  0  0  0  0  0
    4.9335    1.3313   -0.3583 C   0  0  0  0  0  0  0  0  0  0  0  0
    4.8374   -0.0614   -0.2297 C   0  0  0  0  0  0  0  0  0  0  0  0
    5.9312   -0.8818   -0.5181 C   0  0  0  0  0  0  0  0  0  0  0  0
    5.9326   -2.2291   -0.4240 N   0  0  0  0  0  0  0  0  0  0  0  0
    4.7842   -2.7952   -0.0184 C   0  0  0  0  0  0  0  0  0  0  0  0
    3.6364   -2.0791    0.2944 C   0  0  0  0  0  0  0  0  0  0  0  0
    3.6300   -0.6671    0.1946 C   0  0  0  0  0  0  0  0  0  0  0  0
   -0.8808   -1.4287    0.9081 H   0  0  0  0  0  0  0  0  0  0  0  0
   -2.5669   -1.0167    2.6628 H   0  0  0  0  0  0  0  0  0  0  0  0
   -2.0715    0.6749    2.6538 H   0  0  0  0  0  0  0  0  0  0  0  0
   -2.3133    2.0188    0.4723 H   0  0  0  0  0  0  0  0  0  0  0  0
   -3.7932    2.4399   -1.4490 H   0  0  0  0  0  0  0  0  0  0  0  0
   -5.5395   -1.4767   -0.9579 H   0  0  0  0  0  0  0  0  0  0  0  0
   -4.0609   -1.8952    0.9629 H   0  0  0  0  0  0  0  0  0  0  0  0
    1.2537   -1.4022    0.9847 H   0  0  0  0  0  0  0  0  0  0  0  0
    1.8111    2.2398    0.5362 H   0  0  0  0  0  0  0  0  0  0  0  0
    3.9161    3.2193   -0.1797 H   0  0  0  0  0  0  0  0  0  0  0  0
    5.8619    1.7966   -0.6833 H   0  0  0  0  0  0  0  0  0  0  0  0
    6.8780   -0.4598   -0.8473 H   0  0  0  0  0  0  0  0  0  0  0  0
    4.8036   -3.8791    0.0547 H   0  0  0  0  0  0  0  0  0  0  0  0
    2.7698   -2.6428    0.6143 H   0  0  0  0  0  0  0  0  0  0  0  0
  1  2  2  0
  2  3  1  0
  3  4  1  0
  4  5  1  0
  5  6  2  0
  6  7  1  0
  7  8  2  0
  8  9  1  0
  9 10  1  0
  9 11  1  0
  9 12  1  0
  8 13  1  0
 13 14  2  0
  2 15  1  0
 15 16  1  0
 16 17  2  0
 17 18  1  0
 18 19  2  0
 19 20  1  0
 20 21  2  0
 21 22  1  0
 22 23  2  0
 23 24  1  0
 24 25  2  0
 14  5  1  0
 25 16  1  0
 25 20  1  0
  3 26  1  0
  4 27  1  0
  4 28  1  0
  6 29  1  0
  7 30  1  0
 13 31  1  0
 14 32  1  0
 15 33  1  0
 17 34  1  0
 18 35  1  0
 19 36  1  0
 21 37  1  0
 23 38  1  0
 24 39  1  0
M  END
$$$$
