
     RDKit          3D

 64 68  0  0  0  0  0  0  0  0999 V2000
  -10.7719   -0.7930    0.8339 C   0  0  0  0  0  0  0  0  0  0  0  0
   -9.4149   -0.1610    0.9048 C   0  0  0  0  0  0  0  0  0  0  0  0
   -8.2883   -0.8783    0.5241 C   0  0  0  0  0  0  0  0  0  0  0  0
   -7.0329   -0.2746    0.6229 C   0  0  0  0  0  0  0  0  0  0  0  0
   -6.9049    1.0252    1.1063 C   0  0  0  0  0  0  0  0  0  0  0  0
   -5.6942    1.7076    1.2311 N   0  0  0  0  0  0  0  0  0  0  0  0
   -4.3716    1.3874    0.9447 C   0  0  0  0  0  0  0  0  0  0  0  0
   -3.4765    2.3196    1.3080 N   0  0  0  0  0  0  0  0  0  0  0  0
   -2.1811    2.0589    1.0646 C   0  0  0  0  0  0  0  0  0  0  0  0
   -1.7481    0.9109    0.4513 C   0  0  0  0  0  0  0  0  0  0  0  0
   -2.7237    0.0174    0.0989 C   0  0  0  0  0  0  0  0  0  0  0  0
   -4.0282    0.2367    0.3530 N   0  0  0  0  0  0  0  0  0  0  0  0
   -2.3320   -1.1799   -0.5376 N   0  0  0  0  0  0  0  0  0  0  0  0
   -3.3752   -2.1578   -0.8054 C   0  0  0  0  0  0  0  0  0  0  0  0
   -1.0523   -1.3868   -1.0515 C   0  0  0  0  0  0  0  0  0  0  0  0
   -0.7660   -2.4202   -1.6573 O   0  0  0  0  0  0  0  0  0  0  0  0
   -0.1360   -0.3441   -0.8509 N   0  0  0  0  0  0  0  0  0  0  0  0
    1.1585   -0.3945   -1.4665 C   0  0  0  0  0  0  0  0  0  0  0  0
    2.3131   -0.2567   -0.6694 C   0  0  0  0  0  0  0  0  0  0  0  0
    3.6017   -0.2957   -1.2223 C   0  0  0  0  0  0  0  0  0  0  0  0
    4.6921   -0.1847   -0.3334 N   0  0  0  0  0  0  0  0  0  0  0  0
    6.0309   -0.0763   -0.6631 C   0  0  0  0  0  0  0  0  0  0  0  0
    6.5104    0.0397   -1.7831 O   0  0  0  0  0  0  0  0  0  0  0  0
    6.9556   -0.0452    0.5042 C   0  0  0  0  0  0  0  0  0  0  0  0
    6.7485   -0.8633    1.6215 C   0  0  0  0  0  0  0  0  0  0  0  0
    7.6391   -0.8145    2.6935 C   0  0  0  0  0  0  0  0  0  0  0  0
    8.7359    0.0489    2.6542 C   0  0  0  0  0  0  0  0  0  0  0  0
    8.9630    0.8686    1.5375 C   0  0  0  0  0  0  0  0  0  0  0  0
   10.1649    1.7786    1.4750 C   0  0  0  0  0  0  0  0  0  0  0  0
   11.1604    1.2713    0.6993 F   0  0  0  0  0  0  0  0  0  0  0  0
   10.7242    2.0147    2.6966 F   0  0  0  0  0  0  0  0  0  0  0  0
    9.8697    3.0048    0.9603 F   0  0  0  0  0  0  0  0  0  0  0  0
    8.0691    0.8037    0.4564 C   0  0  0  0  0  0  0  0  0  0  0  0
    3.7375   -0.4687   -2.5951 C   0  0  0  0  0  0  0  0  0  0  0  0
    2.6049   -0.5887   -3.4031 C   0  0  0  0  0  0  0  0  0  0  0  0
    1.3092   -0.5325   -2.8611 C   0  0  0  0  0  0  0  0  0  0  0  0
    0.1549   -0.6035   -3.8257 C   0  0  0  0  0  0  0  0  0  0  0  0
   -0.3246    0.5526    0.2725 C   0  0  0  0  0  0  0  0  0  0  0  0
   -8.1018    1.6539    1.4579 C   0  0  0  0  0  0  0  0  0  0  0  0
   -9.3385    1.1019    1.3769 N   0  0  0  0  0  0  0  0  0  0  0  0
  -10.8836   -1.5319    1.6337 H   0  0  0  0  0  0  0  0  0  0  0  0
  -10.9166   -1.2864   -0.1309 H   0  0  0  0  0  0  0  0  0  0  0  0
  -11.5573   -0.0390    0.9463 H   0  0  0  0  0  0  0  0  0  0  0  0
   -8.3768   -1.8943    0.1521 H   0  0  0  0  0  0  0  0  0  0  0  0
   -6.1657   -0.8490    0.3180 H   0  0  0  0  0  0  0  0  0  0  0  0
   -5.7211    2.6182    1.6682 H   0  0  0  0  0  0  0  0  0  0  0  0
   -1.4885    2.8259    1.4009 H   0  0  0  0  0  0  0  0  0  0  0  0
   -4.0674   -1.7489   -1.5489 H   0  0  0  0  0  0  0  0  0  0  0  0
   -3.9117   -2.3882    0.1209 H   0  0  0  0  0  0  0  0  0  0  0  0
   -2.9658   -3.0934   -1.1966 H   0  0  0  0  0  0  0  0  0  0  0  0
    2.2140   -0.1603    0.4078 H   0  0  0  0  0  0  0  0  0  0  0  0
    4.4572   -0.1104    0.6473 H   0  0  0  0  0  0  0  0  0  0  0  0
    5.9209   -1.5671    1.6549 H   0  0  0  0  0  0  0  0  0  0  0  0
    7.4893   -1.4603    3.5559 H   0  0  0  0  0  0  0  0  0  0  0  0
    9.4241    0.0716    3.4986 H   0  0  0  0  0  0  0  0  0  0  0  0
    8.2377    1.4184   -0.4286 H   0  0  0  0  0  0  0  0  0  0  0  0
    4.7116   -0.5243   -3.0729 H   0  0  0  0  0  0  0  0  0  0  0  0
    2.7425   -0.7162   -4.4759 H   0  0  0  0  0  0  0  0  0  0  0  0
   -0.7254   -0.0764   -3.4479 H   0  0  0  0  0  0  0  0  0  0  0  0
    0.4156   -0.1168   -4.7719 H   0  0  0  0  0  0  0  0  0  0  0  0
   -0.1028   -1.6453   -4.0371 H   0  0  0  0  0  0  0  0  0  0  0  0
    0.0324    0.0538    1.1810 H   0  0  0  0  0  0  0  0  0  0  0  0
    0.2600    1.4645    0.1030 H   0  0  0  0  0  0  0  0  0  0  0  0
   -8.1035    2.6730    1.8359 H   0  0  0  0  0  0  0  0  0  0  0  0
  1  2  1  0
  2  3  2  0
  3  4  1  0
  4  5  2  0
  5  6  1  0
  6  7  1  0
  7  8  2  0
  8  9  1  0
  9 10  2  0
 10 11  1  0
 11 12  2  0
 11 13  1  0
 13 14  1  0
 13 15  1  0
 15 16  2  0
 15 17  1  0
 17 18  1  0
 18 19  2  0
 19 20  1  0
 20 21  1  0
 21 22  1  0
 22 23  2  0
 22 24  1  0
 24 25  2  0
 25 26  1  0
 26 27  2  0
 27 28  1  0
 28 29  1  0
 29 30  1  0
 29 31  1  0
 29 32  1  0
 28 33  2  0
 20 34  2  0
 34 35  1  0
 35 36  2  0
 36 37  1  0
 17 38  1  0
  5 39  1  0
 39 40  2  0
 40  2  1  0
 12  7  1  0
 36 18  1  0
 38 10  1  0
 33 24  1  0
  1 41  1  0
  1 42  1  0
  1 43  1  0
  3 44  1  0
  4 45  1  0
  6 46  1  0
  9 47  1  0
 14 48  1  0
 14 49  1  0
 14 50  1  0
 19 51  1  0
 21 52  1  0
 25 53  1  0
 26 54  1  0
 27 55  1  0
 33 56  1  0
 34 57  1  0
 35 58  1  0
 37 59  1  0
 37 60  1  0
 37 61  1  0
 38 62  1  0
 38 63  1  0
 39 64  1  0
M  END
$$$$
