
     RDKit          3D

 72 75  0  0  0  0  0  0  0  0999 V2000
   -2.9455    5.9338   -1.3584 C   0  0  0  0  0  0  0  0  0  0  0  0
   -1.7770    5.4924   -0.6854 O   0  0  0  0  0  0  0  0  0  0  0  0
   -1.6341    4.1599   -0.3106 C   0  0  0  0  0  0  0  0  0  0  0  0
   -0.4873    3.7701    0.3401 C   0  0  0  0  0  0  0  0  0  0  0  0
   -0.3325    2.4760    0.7117 C   0  0  0  0  0  0  0  0  0  0  0  0
   -1.2907    1.4993    0.4654 C   0  0  0  0  0  0  0  0  0  0  0  0
   -1.0111    0.1030    0.9020 C   0  0  0  0  0  0  0  0  0  0  0  0
   -0.7458   -0.8251   -0.1605 N   0  0  0  0  0  0  0  0  0  0  0  0
   -1.6798   -1.6162   -0.7181 C   0  0  0  0  0  0  0  0  0  0  0  0
   -3.1256   -1.8113   -0.3499 C   0  0  0  0  0  0  0  0  0  0  0  0
   -3.1518   -2.9871    0.6212 C   0  0  0  0  0  0  0  0  0  0  0  0
   -4.5039   -3.3136    1.0785 C   0  0  0  0  0  0  0  0  0  0  0  0
   -5.2510   -4.2236    0.3677 C   0  0  0  0  0  0  0  0  0  0  0  0
   -6.5283   -4.5593    0.7631 C   0  0  0  0  0  0  0  0  0  0  0  0
   -7.0494   -3.9666    1.8877 C   0  0  0  0  0  0  0  0  0  0  0  0
   -6.3197   -3.0406    2.6311 C   0  0  0  0  0  0  0  0  0  0  0  0
   -5.0362   -2.7190    2.2131 C   0  0  0  0  0  0  0  0  0  0  0  0
   -1.0906   -2.3351   -1.7209 N   0  0  0  0  0  0  0  0  0  0  0  0
    0.1712   -1.9961   -1.7754 N   0  0  0  0  0  0  0  0  0  0  0  0
    0.3791   -1.0720   -0.8182 C   0  0  0  0  0  0  0  0  0  0  0  0
    1.7025   -0.4901   -0.5942 C   0  0  1  0  0  0  0  0  0  0  0  0
    2.6440   -1.3878    0.1568 C   0  0  0  0  0  0  0  0  0  0  0  0
    3.9850   -0.7975    0.3830 C   0  0  0  0  0  0  0  0  0  0  0  0
    5.1727   -1.0929   -0.2553 C   0  0  0  0  0  0  0  0  0  0  0  0
    6.1743   -0.3374    0.2454 N   0  0  0  0  0  0  0  0  0  0  0  0
    5.6716    0.4574    1.2085 C   0  0  0  0  0  0  0  0  0  0  0  0
    6.2755    1.4149    2.0309 C   0  0  0  0  0  0  0  0  0  0  0  0
    5.4798    2.0783    2.9417 C   0  0  0  0  0  0  0  0  0  0  0  0
    4.1177    1.8287    3.0654 C   0  0  0  0  0  0  0  0  0  0  0  0
    3.5850    0.8688    2.2204 C   0  0  0  0  0  0  0  0  0  0  0  0
    4.3413    0.1817    1.2962 C   0  0  0  0  0  0  0  0  0  0  0  0
    2.3037   -0.0718   -1.8321 N   0  0  0  0  0  0  0  0  0  0  0  0
    2.9844   -0.9028   -2.7564 C   0  0  0  0  0  0  0  0  0  0  0  0
    3.0783   -2.1236   -2.4970 O   0  0  0  0  0  0  0  0  0  0  0  0
    3.5807   -0.3323   -4.0207 C   0  0  0  0  0  0  0  0  0  0  0  0
    3.3396    1.0755   -4.0774 N   0  0  0  0  0  0  0  0  0  0  0  0
   -2.4287    1.9080   -0.1851 C   0  0  0  0  0  0  0  0  0  0  0  0
   -2.5928    3.2290   -0.5672 C   0  0  0  0  0  0  0  0  0  0  0  0
    0.6849    0.0000    0.0000 Cl  0  0  0  0  0  0  0  0  0  0  0  0
   -3.8699    5.5332   -0.8601 H   0  0  0  0  0  0  0  0  0  0  0  0
   -2.9528    7.0340   -1.3412 H   0  0  0  0  0  0  0  0  0  0  0  0
   -2.9329    5.5124   -2.3787 H   0  0  0  0  0  0  0  0  0  0  0  0
    0.2959    4.4886    0.5599 H   0  0  0  0  0  0  0  0  0  0  0  0
    0.5788    2.2050    1.2295 H   0  0  0  0  0  0  0  0  0  0  0  0
   -1.9273   -0.2348    1.4326 H   0  0  0  0  0  0  0  0  0  0  0  0
   -0.2336    0.1463    1.6762 H   0  0  0  0  0  0  0  0  0  0  0  0
   -3.5388   -0.9711    0.2003 H   0  0  0  0  0  0  0  0  0  0  0  0
   -3.6633   -1.9937   -1.2788 H   0  0  0  0  0  0  0  0  0  0  0  0
   -2.5789   -2.6299    1.5240 H   0  0  0  0  0  0  0  0  0  0  0  0
   -2.6014   -3.8613    0.2347 H   0  0  0  0  0  0  0  0  0  0  0  0
   -4.8222   -4.6725   -0.5070 H   0  0  0  0  0  0  0  0  0  0  0  0
   -7.0864   -5.2914    0.1631 H   0  0  0  0  0  0  0  0  0  0  0  0
   -8.0482   -4.2367    2.1866 H   0  0  0  0  0  0  0  0  0  0  0  0
   -6.7822   -2.6108    3.5024 H   0  0  0  0  0  0  0  0  0  0  0  0
   -4.4701   -2.0011    2.7893 H   0  0  0  0  0  0  0  0  0  0  0  0
    1.5651    0.4512    0.0189 H   0  0  0  0  0  0  0  0  0  0  0  0
    2.7265   -2.3641   -0.2894 H   0  0  0  0  0  0  0  0  0  0  0  0
    2.1923   -1.4364    1.2050 H   0  0  0  0  0  0  0  0  0  0  0  0
    5.3599   -1.8084   -1.0449 H   0  0  0  0  0  0  0  0  0  0  0  0
    7.1829   -0.3212   -0.0209 H   0  0  0  0  0  0  0  0  0  0  0  0
    7.3332    1.6119    1.9380 H   0  0  0  0  0  0  0  0  0  0  0  0
    5.9179    2.8321    3.5998 H   0  0  0  0  0  0  0  0  0  0  0  0
    3.5356    2.3675    3.7876 H   0  0  0  0  0  0  0  0  0  0  0  0
    2.5105    0.6730    2.3190 H   0  0  0  0  0  0  0  0  0  0  0  0
    2.2394    0.9670   -2.1000 H   0  0  0  0  0  0  0  0  0  0  0  0
    3.0496   -0.8655   -4.8644 H   0  0  0  0  0  0  0  0  0  0  0  0
    4.6435   -0.6003   -4.0124 H   0  0  0  0  0  0  0  0  0  0  0  0
    4.2529    1.6009   -4.1170 H   0  0  0  0  0  0  0  0  0  0  0  0
    2.8118    1.3225   -4.9301 H   0  0  0  0  0  0  0  0  0  0  0  0
   -3.1908    1.1897   -0.3972 H   0  0  0  0  0  0  0  0  0  0  0  0
   -3.5020    3.4890   -1.0717 H   0  0  0  0  0  0  0  0  0  0  0  0
   -0.6849    0.0000    0.0000 H   0  0  0  0  0  0  0  0  0  0  0  0
  1  2  1  0
  2  3  1  0
  3  4  2  0
  4  5  1  0
  5  6  2  0
  6  7  1  0
  7  8  1  0
  8  9  1  0
  9 10  1  0
 10 11  1  0
 11 12  1  0
 12 13  2  0
 13 14  1  0
 14 15  2  0
 15 16  1  0
 16 17  2  0
  9 18  2  0
 18 19  1  0
 19 20  2  0
 20 21  1  0
 21 22  1  0
 22 23  1  0
 23 24  2  0
 24 25  1  0
 25 26  1  0
 26 27  2  0
 27 28  1  0
 28 29  2  0
 29 30  1  0
 30 31  2  0
 21 32  1  0
 32 33  1  0
 33 34  2  0
 33 35  1  0
 35 36  1  0
  6 37  1  0
 37 38  2  0
 38  3  1  0
 20  8  1  0
 31 23  1  0
 17 12  1  0
 31 26  1  0
  1 40  1  0
  1 41  1  0
  1 42  1  0
  4 43  1  0
  5 44  1  0
  7 45  1  0
  7 46  1  0
 10 47  1  0
 10 48  1  0
 11 49  1  0
 11 50  1  0
 13 51  1  0
 14 52  1  0
 15 53  1  0
 16 54  1  0
 17 55  1  0
 21 56  1  1
 22 57  1  0
 22 58  1  0
 24 59  1  0
 25 60  1  0
 27 61  1  0
 28 62  1  0
 29 63  1  0
 30 64  1  0
 32 65  1  0
 35 66  1  0
 35 67  1  0
 36 68  1  0
 36 69  1  0
 37 70  1  0
 38 71  1  0
 39 72  1  0
M  END
$$$$
