
     RDKit          3D

 53 54  0  0  0  0  0  0  0  0999 V2000
    4.6032   -2.6910    2.1132 C   0  0  0  0  0  0  0  0  0  0  0  0
    4.1172   -1.3802    1.5101 C   0  0  0  0  0  0  0  0  0  0  0  0
    5.1046   -0.9195    0.5011 C   0  0  0  0  0  0  0  0  0  0  0  0
    2.6998   -1.4663    1.0668 C   0  0  0  0  0  0  0  0  0  0  0  0
    2.1487   -0.2222    0.4555 C   0  0  2  0  0  0  0  0  0  0  0  0
    0.7521   -0.4266    0.0794 N   0  0  0  0  0  0  0  0  0  0  0  0
   -0.2519    0.5167    0.3432 C   0  0  0  0  0  0  0  0  0  0  0  0
    0.1207    1.5849    0.9401 O   0  0  0  0  0  0  0  0  0  0  0  0
   -1.6737    0.3832    0.0021 C   0  0  2  0  0  0  0  0  0  0  0  0
   -2.0145    0.3043   -1.4396 C   0  0  0  0  0  0  0  0  0  0  0  0
   -1.4605   -0.7712   -2.2381 C   0  0  0  0  0  0  0  0  0  0  0  0
   -2.0015   -2.0386   -2.3549 C   0  0  0  0  0  0  0  0  0  0  0  0
   -1.4470   -3.0052   -3.1642 C   0  0  0  0  0  0  0  0  0  0  0  0
   -0.3175   -2.7526   -3.9018 C   0  0  0  0  0  0  0  0  0  0  0  0
    0.2418   -1.4966   -3.8026 C   0  0  0  0  0  0  0  0  0  0  0  0
   -0.3074   -0.5224   -2.9936 C   0  0  0  0  0  0  0  0  0  0  0  0
   -2.4207    1.5553    0.5445 N   0  0  0  0  0  0  0  0  0  0  0  0
   -3.3859    1.3937    1.5548 C   0  0  0  0  0  0  0  0  0  0  0  0
   -3.6382    0.2575    2.0232 O   0  0  0  0  0  0  0  0  0  0  0  0
   -4.1230    2.5380    2.0895 C   0  0  0  0  0  0  0  0  0  0  0  0
   -3.9367    3.8211    1.6427 C   0  0  0  0  0  0  0  0  0  0  0  0
   -4.6261    4.8685    2.1456 N   0  0  0  0  0  0  0  0  0  0  0  0
   -5.5292    4.6592    3.1182 C   0  0  0  0  0  0  0  0  0  0  0  0
   -5.7404    3.3981    3.5865 C   0  0  0  0  0  0  0  0  0  0  0  0
   -5.0438    2.3813    3.0701 N   0  0  0  0  0  0  0  0  0  0  0  0
    2.9104   -0.0164   -0.9492 B   0  0  0  0  0  0  0  0  0  0  0  0
    3.2602    1.3169   -1.4309 O   0  0  0  0  0  0  0  0  0  0  0  0
    2.8712   -1.0925   -1.9504 O   0  0  0  0  0  0  0  0  0  0  0  0
    3.7963   -3.1657    2.7341 H   0  0  0  0  0  0  0  0  0  0  0  0
    4.9733   -3.3518    1.3078 H   0  0  0  0  0  0  0  0  0  0  0  0
    5.4477   -2.5397    2.8188 H   0  0  0  0  0  0  0  0  0  0  0  0
    4.1617   -0.6333    2.3615 H   0  0  0  0  0  0  0  0  0  0  0  0
    6.1270   -1.0752    0.9666 H   0  0  0  0  0  0  0  0  0  0  0  0
    5.0438    0.1963    0.3985 H   0  0  0  0  0  0  0  0  0  0  0  0
    5.1165   -1.4617   -0.4423 H   0  0  0  0  0  0  0  0  0  0  0  0
    2.0332   -1.7226    1.9242 H   0  0  0  0  0  0  0  0  0  0  0  0
    2.5999   -2.3233    0.3426 H   0  0  0  0  0  0  0  0  0  0  0  0
    2.3178    0.7048    1.0177 H   0  0  0  0  0  0  0  0  0  0  0  0
    0.4933   -1.3129   -0.3914 H   0  0  0  0  0  0  0  0  0  0  0  0
   -2.0650   -0.4888    0.5623 H   0  0  0  0  0  0  0  0  0  0  0  0
   -1.8396    1.3214   -1.8757 H   0  0  0  0  0  0  0  0  0  0  0  0
   -3.1443    0.1937   -1.4827 H   0  0  0  0  0  0  0  0  0  0  0  0
   -2.9061   -2.2606   -1.7707 H   0  0  0  0  0  0  0  0  0  0  0  0
   -1.8962   -3.9788   -3.2293 H   0  0  0  0  0  0  0  0  0  0  0  0
    0.1373   -3.5129   -4.5541 H   0  0  0  0  0  0  0  0  0  0  0  0
    1.1348   -1.3291   -4.4005 H   0  0  0  0  0  0  0  0  0  0  0  0
    0.1391    0.4551   -2.9226 H   0  0  0  0  0  0  0  0  0  0  0  0
   -2.1626    2.4692    0.1147 H   0  0  0  0  0  0  0  0  0  0  0  0
   -3.2048    3.9971    0.8523 H   0  0  0  0  0  0  0  0  0  0  0  0
   -6.1111    5.4683    3.5561 H   0  0  0  0  0  0  0  0  0  0  0  0
   -6.4784    3.2311    4.3803 H   0  0  0  0  0  0  0  0  0  0  0  0
    2.5033    1.6747   -1.9714 H   0  0  0  0  0  0  0  0  0  0  0  0
    2.8713   -0.7326   -2.8584 H   0  0  0  0  0  0  0  0  0  0  0  0
  1  2  1  0
  2  3  1  0
  2  4  1  0
  4  5  1  0
  5  6  1  0
  6  7  1  0
  7  8  2  0
  7  9  1  0
  9 10  1  0
 10 11  1  0
 11 12  2  0
 12 13  1  0
 13 14  2  0
 14 15  1  0
 15 16  2  0
  9 17  1  0
 17 18  1  0
 18 19  2  0
 18 20  1  0
 20 21  2  0
 21 22  1  0
 22 23  2  0
 23 24  1  0
 24 25  2  0
  5 26  1  0
 26 27  1  0
 26 28  1  0
 16 11  1  0
 25 20  1  0
  1 29  1  0
  1 30  1  0
  1 31  1  0
  2 32  1  0
  3 33  1  0
  3 34  1  0
  3 35  1  0
  4 36  1  0
  4 37  1  0
  5 38  1  1
  6 39  1  0
  9 40  1  1
 10 41  1  0
 10 42  1  0
 12 43  1  0
 13 44  1  0
 14 45  1  0
 15 46  1  0
 16 47  1  0
 17 48  1  0
 21 49  1  0
 23 50  1  0
 24 51  1  0
 27 52  1  0
 28 53  1  0
M  END
$$$$
