
     RDKit          3D

 55 59  0  0  0  0  0  0  0  0999 V2000
    3.9915    0.3317   -2.4846 O   0  0  0  0  0  0  0  0  0  0  0  0
    4.0342    0.1585   -1.2721 C   0  0  0  0  0  0  0  0  0  0  0  0
    2.9073    0.2071   -0.4725 N   0  0  0  0  0  0  0  0  0  0  0  0
    1.6004    0.3685   -1.0918 C   0  0  0  0  0  0  0  0  0  0  0  0
    0.5035    0.6539   -0.0497 C   0  0  0  0  0  0  0  0  0  0  0  0
   -0.8283    0.8985   -0.6244 N   0  0  0  0  0  0  0  0  0  0  0  0
   -1.3181   -0.2291   -1.4301 C   0  0  0  0  0  0  0  0  0  0  0  0
   -2.8405   -0.3473   -1.4444 C   0  0  0  0  0  0  0  0  0  0  0  0
   -3.3327   -0.5930   -0.0155 C   0  0  0  0  0  0  0  0  0  0  0  0
   -4.7773   -0.6359    0.1041 N   0  0  0  0  0  0  0  0  0  0  0  0
   -5.4923   -1.7736    0.5500 C   0  0  0  0  0  0  0  0  0  0  0  0
   -5.0449   -2.8616    0.8729 O   0  0  0  0  0  0  0  0  0  0  0  0
   -6.8470   -1.4189    0.5608 N   0  0  0  0  0  0  0  0  0  0  0  0
   -6.9736   -0.0999    0.1479 C   0  0  0  0  0  0  0  0  0  0  0  0
   -8.1195    0.6528    0.0214 C   0  0  0  0  0  0  0  0  0  0  0  0
   -7.9623    1.9707   -0.4125 C   0  0  0  0  0  0  0  0  0  0  0  0
   -6.6832    2.4878   -0.7011 C   0  0  0  0  0  0  0  0  0  0  0  0
   -5.5337    1.6985   -0.5621 C   0  0  0  0  0  0  0  0  0  0  0  0
   -5.6999    0.3989   -0.1358 C   0  0  0  0  0  0  0  0  0  0  0  0
   -2.6527    0.3188    1.0190 C   0  0  0  0  0  0  0  0  0  0  0  0
   -1.7855    1.3951    0.3703 C   0  0  0  0  0  0  0  0  0  0  0  0
    5.2530   -0.1537   -0.5584 C   0  0  0  0  0  0  0  0  0  0  0  0
    6.4222   -0.6947   -1.0657 C   0  0  0  0  0  0  0  0  0  0  0  0
    7.3599   -0.8228   -0.0065 C   0  0  0  0  0  0  0  0  0  0  0  0
    8.6768   -1.3097    0.0817 C   0  0  0  0  0  0  0  0  0  0  0  0
    9.3196   -1.2740    1.3187 C   0  0  0  0  0  0  0  0  0  0  0  0
   10.5738   -1.7365    1.4156 F   0  0  0  0  0  0  0  0  0  0  0  0
    8.6950   -0.7698    2.4532 C   0  0  0  0  0  0  0  0  0  0  0  0
    7.3882   -0.2785    2.3869 C   0  0  0  0  0  0  0  0  0  0  0  0
    6.7471   -0.3227    1.1420 C   0  0  0  0  0  0  0  0  0  0  0  0
    5.4862    0.0896    0.7770 N   0  0  0  0  0  0  0  0  0  0  0  0
    2.9451   -0.3502    0.3688 H   0  0  0  0  0  0  0  0  0  0  0  0
    1.6577    1.1887   -1.8175 H   0  0  0  0  0  0  0  0  0  0  0  0
    1.3939   -0.5548   -1.6445 H   0  0  0  0  0  0  0  0  0  0  0  0
    0.4613   -0.1715    0.6736 H   0  0  0  0  0  0  0  0  0  0  0  0
    0.8197    1.5418    0.5138 H   0  0  0  0  0  0  0  0  0  0  0  0
   -0.9124   -1.1790   -1.0575 H   0  0  0  0  0  0  0  0  0  0  0  0
   -0.9600   -0.1092   -2.4586 H   0  0  0  0  0  0  0  0  0  0  0  0
   -3.2796    0.5534   -1.8856 H   0  0  0  0  0  0  0  0  0  0  0  0
   -3.1436   -1.1820   -2.0887 H   0  0  0  0  0  0  0  0  0  0  0  0
   -2.9952   -1.6088    0.2376 H   0  0  0  0  0  0  0  0  0  0  0  0
   -7.5835   -2.0448    0.8406 H   0  0  0  0  0  0  0  0  0  0  0  0
   -9.0985    0.2482    0.2464 H   0  0  0  0  0  0  0  0  0  0  0  0
   -8.8359    2.6085   -0.5310 H   0  0  0  0  0  0  0  0  0  0  0  0
   -6.5883    3.5180   -1.0398 H   0  0  0  0  0  0  0  0  0  0  0  0
   -4.5644    2.1159   -0.7939 H   0  0  0  0  0  0  0  0  0  0  0  0
   -3.3871    0.7922    1.6816 H   0  0  0  0  0  0  0  0  0  0  0  0
   -2.0174   -0.2979    1.6690 H   0  0  0  0  0  0  0  0  0  0  0  0
   -2.4338    2.1203   -0.1337 H   0  0  0  0  0  0  0  0  0  0  0  0
   -1.2817    1.9766    1.1530 H   0  0  0  0  0  0  0  0  0  0  0  0
    6.5740   -0.9760   -2.1010 H   0  0  0  0  0  0  0  0  0  0  0  0
    9.1926   -1.7049   -0.7869 H   0  0  0  0  0  0  0  0  0  0  0  0
    9.2366   -0.7591    3.3946 H   0  0  0  0  0  0  0  0  0  0  0  0
    6.8982    0.1207    3.2688 H   0  0  0  0  0  0  0  0  0  0  0  0
    4.8351    0.5490    1.3966 H   0  0  0  0  0  0  0  0  0  0  0  0
  1  2  2  0
  2  3  1  0
  3  4  1  0
  4  5  1  0
  5  6  1  0
  6  7  1  0
  7  8  1  0
  8  9  1  0
  9 10  1  0
 10 11  1  0
 11 12  2  0
 11 13  1  0
 13 14  1  0
 14 15  2  0
 15 16  1  0
 16 17  2  0
 17 18  1  0
 18 19  2  0
  9 20  1  0
 20 21  1  0
  2 22  1  0
 22 23  2  0
 23 24  1  0
 24 25  2  0
 25 26  1  0
 26 27  1  0
 26 28  2  0
 28 29  1  0
 29 30  2  0
 30 31  1  0
 21  6  1  0
 31 22  1  0
 19 10  1  0
 30 24  1  0
 19 14  1  0
  3 32  1  0
  4 33  1  0
  4 34  1  0
  5 35  1  0
  5 36  1  0
  7 37  1  0
  7 38  1  0
  8 39  1  0
  8 40  1  0
  9 41  1  0
 13 42  1  0
 15 43  1  0
 16 44  1  0
 17 45  1  0
 18 46  1  0
 20 47  1  0
 20 48  1  0
 21 49  1  0
 21 50  1  0
 23 51  1  0
 25 52  1  0
 28 53  1  0
 29 54  1  0
 31 55  1  0
M  END
$$$$
