
     RDKit          3D

 54 57  0  0  0  0  0  0  0  0999 V2000
   -9.9807    0.7202   -1.4366 C   0  0  0  0  0  0  0  0  0  0  0  0
   -8.7828    0.4741   -2.1654 O   0  0  0  0  0  0  0  0  0  0  0  0
   -7.6173    0.4607   -1.4540 C   0  0  0  0  0  0  0  0  0  0  0  0
   -7.4924    0.6173   -0.0747 C   0  0  0  0  0  0  0  0  0  0  0  0
   -6.2265    0.5799    0.5254 C   0  0  0  0  0  0  0  0  0  0  0  0
   -5.0711    0.3789   -0.2402 C   0  0  0  0  0  0  0  0  0  0  0  0
   -3.8410    0.3250    0.4479 N   0  0  0  0  0  0  0  0  0  0  0  0
   -2.5872    0.1254   -0.0955 C   0  0  0  0  0  0  0  0  0  0  0  0
   -2.2966    0.0520   -1.2840 O   0  0  0  0  0  0  0  0  0  0  0  0
   -1.5133    0.0179    0.9436 C   0  0  0  0  0  0  0  0  0  0  0  0
   -1.6714   -0.7653    2.1691 C   0  0  0  0  0  0  0  0  0  0  0  0
   -0.6696   -0.8837    3.0589 C   0  0  0  0  0  0  0  0  0  0  0  0
    0.6096   -0.2076    2.7540 C   0  0  0  0  0  0  0  0  0  0  0  0
    1.6940   -0.2095    3.4647 N   0  0  0  0  0  0  0  0  0  0  0  0
    2.5714    0.5545    2.7146 N   0  0  0  0  0  0  0  0  0  0  0  0
    3.9480    0.7734    3.0856 C   0  0  0  0  0  0  0  0  0  0  0  0
    4.8544   -0.2536    2.4091 C   0  0  0  0  0  0  0  0  0  0  0  0
    5.4433   -1.1065    3.0715 O   0  0  0  0  0  0  0  0  0  0  0  0
    4.9559   -0.0696    1.0414 N   0  0  0  0  0  0  0  0  0  0  0  0
    5.7097   -0.8152    0.1041 C   0  0  0  0  0  0  0  0  0  0  0  0
    6.4552   -1.9456    0.4360 C   0  0  0  0  0  0  0  0  0  0  0  0
    7.1717   -2.6316   -0.5496 C   0  0  0  0  0  0  0  0  0  0  0  0
    7.1474   -2.1925   -1.8698 C   0  0  0  0  0  0  0  0  0  0  0  0
    6.4052   -1.0639   -2.2162 C   0  0  0  0  0  0  0  0  0  0  0  0
    5.6852   -0.3706   -1.2380 C   0  0  0  0  0  0  0  0  0  0  0  0
    4.9262    0.7537   -1.4712 O   0  0  0  0  0  0  0  0  0  0  0  0
    4.9326    1.2861   -2.7928 C   0  0  0  0  0  0  0  0  0  0  0  0
    1.9602    0.9993    1.5360 C   0  0  0  0  0  0  0  0  0  0  0  0
    2.4837    1.6709    0.6577 O   0  0  0  0  0  0  0  0  0  0  0  0
    0.6835    0.4961    1.5920 N   0  0  0  0  0  0  0  0  0  0  0  0
   -0.3325    0.6106    0.6815 C   0  0  0  0  0  0  0  0  0  0  0  0
   -5.2027    0.2252   -1.6188 C   0  0  0  0  0  0  0  0  0  0  0  0
   -6.4666    0.2678   -2.2183 C   0  0  0  0  0  0  0  0  0  0  0  0
  -10.1874   -0.0999   -0.7403 H   0  0  0  0  0  0  0  0  0  0  0  0
   -9.9441    1.6837   -0.9159 H   0  0  0  0  0  0  0  0  0  0  0  0
  -10.8041    0.7639   -2.1544 H   0  0  0  0  0  0  0  0  0  0  0  0
   -8.3581    0.7592    0.5645 H   0  0  0  0  0  0  0  0  0  0  0  0
   -6.1651    0.7034    1.6031 H   0  0  0  0  0  0  0  0  0  0  0  0
   -3.8901    0.4806    1.4485 H   0  0  0  0  0  0  0  0  0  0  0  0
   -2.6079   -1.2909    2.3357 H   0  0  0  0  0  0  0  0  0  0  0  0
   -0.7358   -1.4678    3.9683 H   0  0  0  0  0  0  0  0  0  0  0  0
    4.0467    0.6961    4.1724 H   0  0  0  0  0  0  0  0  0  0  0  0
    4.2537    1.7772    2.7726 H   0  0  0  0  0  0  0  0  0  0  0  0
    4.4250    0.6938    0.6132 H   0  0  0  0  0  0  0  0  0  0  0  0
    6.4906   -2.3243    1.4481 H   0  0  0  0  0  0  0  0  0  0  0  0
    7.7463   -3.5120   -0.2817 H   0  0  0  0  0  0  0  0  0  0  0  0
    7.7062   -2.7319   -2.6327 H   0  0  0  0  0  0  0  0  0  0  0  0
    6.4088   -0.7541   -3.2559 H   0  0  0  0  0  0  0  0  0  0  0  0
    4.4764    0.5832   -3.5004 H   0  0  0  0  0  0  0  0  0  0  0  0
    4.3262    2.1988   -2.7927 H   0  0  0  0  0  0  0  0  0  0  0  0
    5.9472    1.5633   -3.1023 H   0  0  0  0  0  0  0  0  0  0  0  0
   -0.1258    1.1792   -0.2228 H   0  0  0  0  0  0  0  0  0  0  0  0
   -4.3451    0.0781   -2.2641 H   0  0  0  0  0  0  0  0  0  0  0  0
   -6.5487    0.1468   -3.2957 H   0  0  0  0  0  0  0  0  0  0  0  0
  1  2  1  0
  2  3  1  0
  3  4  2  0
  4  5  1  0
  5  6  2  0
  6  7  1  0
  7  8  1  0
  8  9  2  0
  8 10  1  0
 10 11  1  0
 11 12  2  0
 12 13  1  0
 13 14  2  0
 14 15  1  0
 15 16  1  0
 16 17  1  0
 17 18  2  0
 17 19  1  0
 19 20  1  0
 20 21  2  0
 21 22  1  0
 22 23  2  0
 23 24  1  0
 24 25  2  0
 25 26  1  0
 26 27  1  0
 15 28  1  0
 28 29  2  0
 28 30  1  0
 30 31  1  0
  6 32  1  0
 32 33  2  0
 33  3  1  0
 31 10  2  0
 30 13  1  0
 25 20  1  0
  1 34  1  0
  1 35  1  0
  1 36  1  0
  4 37  1  0
  5 38  1  0
  7 39  1  0
 11 40  1  0
 12 41  1  0
 16 42  1  0
 16 43  1  0
 19 44  1  0
 21 45  1  0
 22 46  1  0
 23 47  1  0
 24 48  1  0
 27 49  1  0
 27 50  1  0
 27 51  1  0
 31 52  1  0
 32 53  1  0
 33 54  1  0
M  END
$$$$
