
     RDKit          3D

 28 29  0  0  0  0  0  0  0  0999 V2000
   -2.1330   -2.8276   -0.4738 C   0  0  0  0  0  0  0  0  0  0  0  0
   -1.1051   -2.0200    0.0930 O   0  0  0  0  0  0  0  0  0  0  0  0
   -1.3876   -0.6598    0.0407 C   0  0  0  0  0  0  0  0  0  0  0  0
   -2.5956   -0.2586   -0.4036 N   0  0  0  0  0  0  0  0  0  0  0  0
   -2.8103    1.0661   -0.4236 C   0  0  0  0  0  0  0  0  0  0  0  0
   -4.1466    1.5470   -0.8952 C   0  0  0  0  0  0  0  0  0  0  0  0
   -1.9347    1.9849    0.0016 N   0  0  0  0  0  0  0  0  0  0  0  0
   -0.7414    1.5175    0.4306 C   0  0  0  0  0  0  0  0  0  0  0  0
    0.2513    2.7779    1.0698 Cl  0  0  0  0  0  0  0  0  0  0  0  0
   -0.3814    0.1829    0.4870 C   0  0  0  0  0  0  0  0  0  0  0  0
    0.8693   -0.3233    0.8997 N   0  0  0  0  0  0  0  0  0  0  0  0
    2.0137    0.0134    0.2437 C   0  0  0  0  0  0  0  0  0  0  0  0
    2.1675    0.8250   -0.7611 N   0  0  0  0  0  0  0  0  0  0  0  0
    3.6243    0.7748   -1.0537 C   0  0  0  0  0  0  0  0  0  0  0  0
    4.2723    0.0532    0.1295 C   0  0  0  0  0  0  0  0  0  0  0  0
    3.1287   -0.6037    0.7319 N   0  0  0  0  0  0  0  0  0  0  0  0
   -1.8039   -3.8699   -0.4210 H   0  0  0  0  0  0  0  0  0  0  0  0
   -2.2947   -2.5827   -1.5294 H   0  0  0  0  0  0  0  0  0  0  0  0
   -3.0632   -2.7432    0.0985 H   0  0  0  0  0  0  0  0  0  0  0  0
   -4.0596    2.5364   -1.3546 H   0  0  0  0  0  0  0  0  0  0  0  0
   -4.8355    1.6102   -0.0479 H   0  0  0  0  0  0  0  0  0  0  0  0
   -4.5630    0.8600   -1.6383 H   0  0  0  0  0  0  0  0  0  0  0  0
    0.8142   -1.3282    1.0461 H   0  0  0  0  0  0  0  0  0  0  0  0
    3.7814    0.2231   -1.9871 H   0  0  0  0  0  0  0  0  0  0  0  0
    4.0284    1.7847   -1.1736 H   0  0  0  0  0  0  0  0  0  0  0  0
    5.0394   -0.6595   -0.1845 H   0  0  0  0  0  0  0  0  0  0  0  0
    4.7091    0.7710    0.8320 H   0  0  0  0  0  0  0  0  0  0  0  0
    3.1561   -0.6518    1.7440 H   0  0  0  0  0  0  0  0  0  0  0  0
  1  2  1  0
  2  3  1  0
  3  4  2  0
  4  5  1  0
  5  6  1  0
  5  7  2  0
  7  8  1  0
  8  9  1  0
  8 10  2  0
 10 11  1  0
 11 12  1  0
 12 13  2  0
 13 14  1  0
 14 15  1  0
 15 16  1  0
 10  3  1  0
 16 12  1  0
  1 17  1  0
  1 18  1  0
  1 19  1  0
  6 20  1  0
  6 21  1  0
  6 22  1  0
 11 23  1  0
 14 24  1  0
 14 25  1  0
 15 26  1  0
 15 27  1  0
 16 28  1  0
M  END
$$$$
