
     RDKit          3D

 35 38  0  0  0  0  0  0  0  0999 V2000
    0.3710    2.1533    0.2962 O   0  0  0  0  0  0  0  0  0  0  0  0
   -0.0901    1.0204    0.3252 C   0  0  0  0  0  0  0  0  0  0  0  0
    0.6112   -0.1711    0.3254 N   0  0  0  0  0  0  0  0  0  0  0  0
    2.0085   -0.3398    0.2281 C   0  0  0  0  0  0  0  0  0  0  0  0
    2.4989   -1.6428    0.3228 C   0  0  0  0  0  0  0  0  0  0  0  0
    3.8710   -1.8866    0.2291 C   0  0  0  0  0  0  0  0  0  0  0  0
    4.7742   -0.8526    0.0384 C   0  0  0  0  0  0  0  0  0  0  0  0
    6.0895   -1.1321   -0.0486 N   0  0  0  0  0  0  0  0  0  0  0  0
    6.9136   -0.0788   -0.2348 C   0  0  0  0  0  0  0  0  0  0  0  0
    6.4438    1.2137   -0.3346 C   0  0  0  0  0  0  0  0  0  0  0  0
    5.1292    1.5092   -0.2521 N   0  0  0  0  0  0  0  0  0  0  0  0
    4.2863    0.4735   -0.0622 C   0  0  0  0  0  0  0  0  0  0  0  0
    2.9157    0.7041    0.0346 C   0  0  0  0  0  0  0  0  0  0  0  0
   -1.5716    0.8253    0.4107 C   0  0  0  0  0  0  0  0  0  0  0  0
   -2.1973    0.0399   -0.4760 C   0  0  0  0  0  0  0  0  0  0  0  0
   -3.6435   -0.0852   -0.3877 C   0  0  0  0  0  0  0  0  0  0  0  0
   -4.3503   -0.8992   -1.2806 C   0  0  0  0  0  0  0  0  0  0  0  0
   -5.7399   -1.0070   -1.1838 C   0  0  0  0  0  0  0  0  0  0  0  0
   -6.4307   -0.3036   -0.1981 C   0  0  0  0  0  0  0  0  0  0  0  0
   -5.7329    0.5109    0.6934 C   0  0  0  0  0  0  0  0  0  0  0  0
   -4.3390    0.6205    0.5976 C   0  0  0  0  0  0  0  0  0  0  0  0
   -3.6062    1.4891    1.5508 C   0  0  0  0  0  0  0  0  0  0  0  0
   -4.1994    2.1017    2.4304 O   0  0  0  0  0  0  0  0  0  0  0  0
   -2.2514    1.5581    1.4053 O   0  0  0  0  0  0  0  0  0  0  0  0
    0.0716   -1.0162    0.4643 H   0  0  0  0  0  0  0  0  0  0  0  0
    1.8318   -2.4875    0.4738 H   0  0  0  0  0  0  0  0  0  0  0  0
    4.2456   -2.9044    0.3068 H   0  0  0  0  0  0  0  0  0  0  0  0
    7.9710   -0.3061   -0.3022 H   0  0  0  0  0  0  0  0  0  0  0  0
    7.1121    2.0537   -0.4842 H   0  0  0  0  0  0  0  0  0  0  0  0
    2.5850    1.7351   -0.0502 H   0  0  0  0  0  0  0  0  0  0  0  0
   -1.6698   -0.4766   -1.2709 H   0  0  0  0  0  0  0  0  0  0  0  0
   -3.8329   -1.4539   -2.0604 H   0  0  0  0  0  0  0  0  0  0  0  0
   -6.2858   -1.6392   -1.8808 H   0  0  0  0  0  0  0  0  0  0  0  0
   -7.5128   -0.3868   -0.1249 H   0  0  0  0  0  0  0  0  0  0  0  0
   -6.2766    1.0606    1.4600 H   0  0  0  0  0  0  0  0  0  0  0  0
  1  2  2  0
  2  3  1  0
  3  4  1  0
  4  5  2  0
  5  6  1  0
  6  7  2  0
  7  8  1  0
  8  9  2  0
  9 10  1  0
 10 11  2  0
 11 12  1  0
 12 13  2  0
  2 14  1  0
 14 15  2  0
 15 16  1  0
 16 17  2  0
 17 18  1  0
 18 19  2  0
 19 20  1  0
 20 21  2  0
 21 22  1  0
 22 23  2  0
 22 24  1  0
 13  4  1  0
 24 14  1  0
 12  7  1  0
 21 16  1  0
  3 25  1  0
  5 26  1  0
  6 27  1  0
  9 28  1  0
 10 29  1  0
 13 30  1  0
 15 31  1  0
 17 32  1  0
 18 33  1  0
 19 34  1  0
 20 35  1  0
M  END
$$$$
