
     RDKit          3D

 57 60  0  0  0  0  0  0  0  0999 V2000
    3.6810    2.6963   -0.5222 C   0  0  0  0  0  0  0  0  0  0  0  0
    2.8543    1.5166   -1.0292 C   0  0  2  0  0  0  0  0  0  0  0  0
    1.3544    1.8762   -1.1612 C   0  0  0  0  0  0  0  0  0  0  0  0
    0.6368    0.8953   -0.2392 C   0  0  1  0  0  0  0  0  0  0  0  0
   -0.8634    0.6478   -0.4670 C   0  0  2  0  0  0  0  0  0  0  0  0
   -1.6414    1.9751   -0.4456 C   0  0  0  0  0  0  0  0  0  0  0  0
   -3.1450    1.7676   -0.5675 C   0  0  2  0  0  0  0  0  0  0  0  0
   -3.7420    2.9891   -0.4610 F   0  0  0  0  0  0  0  0  0  0  0  0
   -3.6431    0.8159    0.4890 C   0  0  0  0  0  0  0  0  0  0  0  0
   -4.5872    1.1951    1.3698 C   0  0  0  0  0  0  0  0  0  0  0  0
   -5.0505    0.3045    2.4512 C   0  0  0  0  0  0  0  0  0  0  0  0
   -5.9279    0.6477    3.2329 O   0  0  0  0  0  0  0  0  0  0  0  0
   -4.4143   -1.0223    2.5509 C   0  0  0  0  0  0  0  0  0  0  0  0
   -3.4746   -1.4062    1.6767 C   0  0  0  0  0  0  0  0  0  0  0  0
   -2.9585   -0.5629    0.5105 C   0  0  1  0  0  0  0  0  0  0  0  0
   -3.3776   -1.3173   -0.7729 C   0  0  0  0  0  0  0  0  0  0  0  0
   -1.3960   -0.3259    0.6358 C   0  0  2  0  0  0  0  0  0  0  0  0
   -1.2045    0.3349    1.8397 F   0  0  0  0  0  0  0  0  0  0  0  0
   -0.5232   -1.6137    0.7499 C   0  0  1  0  0  0  0  0  0  0  0  0
   -0.7755   -2.5380   -0.3026 O   0  0  0  0  0  0  0  0  0  0  0  0
    0.9936   -1.3185    0.8206 C   0  0  0  0  0  0  0  0  0  0  0  0
    1.4982   -0.3902   -0.3084 C   0  0  1  0  0  0  0  0  0  0  0  0
    1.4162   -1.1103   -1.6814 C   0  0  0  0  0  0  0  0  0  0  0  0
    2.9244    0.2357   -0.1210 C   0  0  2  0  0  0  0  0  0  0  0  0
    3.1055    0.6640    1.2319 O   0  0  0  0  0  0  0  0  0  0  0  0
    4.1017   -0.6864   -0.5476 C   0  0  0  0  0  0  0  0  0  0  0  0
    4.7479   -0.5127   -1.5841 O   0  0  0  0  0  0  0  0  0  0  0  0
    4.4025   -1.8974    0.3322 C   0  0  0  0  0  0  0  0  0  0  0  0
    4.3575   -1.6218    1.7221 O   0  0  0  0  0  0  0  0  0  0  0  0
    3.6427    3.5236   -1.2390 H   0  0  0  0  0  0  0  0  0  0  0  0
    4.7301    2.4100   -0.3965 H   0  0  0  0  0  0  0  0  0  0  0  0
    3.3085    3.0740    0.4356 H   0  0  0  0  0  0  0  0  0  0  0  0
    3.2125    1.2895   -2.0413 H   0  0  0  0  0  0  0  0  0  0  0  0
    1.0288    1.7460   -2.2002 H   0  0  0  0  0  0  0  0  0  0  0  0
    1.1461    2.9146   -0.8818 H   0  0  0  0  0  0  0  0  0  0  0  0
    0.7270    1.3202    0.7737 H   0  0  0  0  0  0  0  0  0  0  0  0
   -1.0092    0.2010   -1.4554 H   0  0  0  0  0  0  0  0  0  0  0  0
   -1.3142    2.6242   -1.2666 H   0  0  0  0  0  0  0  0  0  0  0  0
   -1.4248    2.5310    0.4765 H   0  0  0  0  0  0  0  0  0  0  0  0
   -3.3967    1.3867   -1.5626 H   0  0  0  0  0  0  0  0  0  0  0  0
   -5.0465    2.1779    1.3472 H   0  0  0  0  0  0  0  0  0  0  0  0
   -4.7584   -1.6600    3.3561 H   0  0  0  0  0  0  0  0  0  0  0  0
   -3.0642   -2.4075    1.7881 H   0  0  0  0  0  0  0  0  0  0  0  0
   -4.4618   -1.2493   -0.9342 H   0  0  0  0  0  0  0  0  0  0  0  0
   -3.1469   -2.3867   -0.7229 H   0  0  0  0  0  0  0  0  0  0  0  0
   -2.8970   -0.9212   -1.6722 H   0  0  0  0  0  0  0  0  0  0  0  0
   -0.7816   -2.1245    1.6849 H   0  0  0  0  0  0  0  0  0  0  0  0
   -0.2953   -3.3606   -0.0978 H   0  0  0  0  0  0  0  0  0  0  0  0
    1.1894   -0.8617    1.7980 H   0  0  0  0  0  0  0  0  0  0  0  0
    1.5456   -2.2640    0.7970 H   0  0  0  0  0  0  0  0  0  0  0  0
    1.9394   -2.0723   -1.6446 H   0  0  0  0  0  0  0  0  0  0  0  0
    0.3928   -1.3160   -1.9999 H   0  0  0  0  0  0  0  0  0  0  0  0
    1.8706   -0.5306   -2.4907 H   0  0  0  0  0  0  0  0  0  0  0  0
    3.2307   -0.1320    1.7878 H   0  0  0  0  0  0  0  0  0  0  0  0
    5.3998   -2.2780    0.0881 H   0  0  0  0  0  0  0  0  0  0  0  0
    3.6786   -2.6833    0.1047 H   0  0  0  0  0  0  0  0  0  0  0  0
    5.2047   -1.1892    1.9480 H   0  0  0  0  0  0  0  0  0  0  0  0
  1  2  1  0
  2  3  1  0
  3  4  1  0
  4  5  1  0
  5  6  1  0
  6  7  1  0
  7  8  1  0
  7  9  1  0
  9 10  2  0
 10 11  1  0
 11 12  2  0
 11 13  1  0
 13 14  2  0
 14 15  1  0
 15 16  1  6
 15 17  1  0
 17 18  1  1
 17 19  1  0
 19 20  1  0
 19 21  1  0
 21 22  1  0
 22 23  1  6
 22 24  1  0
 24 25  1  1
 24 26  1  0
 26 27  2  0
 26 28  1  0
 28 29  1  0
 24  2  1  0
 22  4  1  0
 17  5  1  0
 15  9  1  0
  1 30  1  0
  1 31  1  0
  1 32  1  0
  2 33  1  6
  3 34  1  0
  3 35  1  0
  4 36  1  1
  5 37  1  6
  6 38  1  0
  6 39  1  0
  7 40  1  6
 10 41  1  0
 13 42  1  0
 14 43  1  0
 16 44  1  0
 16 45  1  0
 16 46  1  0
 19 47  1  1
 20 48  1  0
 21 49  1  0
 21 50  1  0
 23 51  1  0
 23 52  1  0
 23 53  1  0
 25 54  1  0
 28 55  1  0
 28 56  1  0
 29 57  1  0
M  END
$$$$
