
     RDKit          3D

 44 46  0  0  0  0  0  0  0  0999 V2000
   -5.2852   -2.6855   -1.3720 C   0  0  0  0  0  0  0  0  0  0  0  0
   -4.6444   -3.0232   -0.0381 C   0  0  0  0  0  0  0  0  0  0  0  0
   -3.2068   -2.9074   -0.0934 N   0  0  0  0  0  0  0  0  0  0  0  0
   -2.5428   -1.7069    0.0690 C   0  0  0  0  0  0  0  0  0  0  0  0
   -3.1249   -0.6576    0.3259 O   0  0  0  0  0  0  0  0  0  0  0  0
   -1.0888   -1.8052   -0.1108 C   0  0  0  0  0  0  0  0  0  0  0  0
   -0.5271   -2.9775   -0.4664 N   0  0  0  0  0  0  0  0  0  0  0  0
    0.8305   -2.7449   -0.5390 O   0  0  0  0  0  0  0  0  0  0  0  0
    1.0964   -1.4441   -0.2392 C   0  0  0  0  0  0  0  0  0  0  0  0
    2.4988   -1.0567   -0.3331 C   0  0  0  0  0  0  0  0  0  0  0  0
    2.8556    0.0673   -1.0964 C   0  0  0  0  0  0  0  0  0  0  0  0
    4.1914    0.4544   -1.1981 C   0  0  0  0  0  0  0  0  0  0  0  0
    4.6063    1.8361   -2.1418 Cl  0  0  0  0  0  0  0  0  0  0  0  0
    5.1829   -0.2750   -0.5408 C   0  0  0  0  0  0  0  0  0  0  0  0
    6.5052    0.0678   -0.6114 O   0  0  0  0  0  0  0  0  0  0  0  0
    4.8525   -1.3892    0.2218 C   0  0  0  0  0  0  0  0  0  0  0  0
    3.5142   -1.7734    0.3245 C   0  0  0  0  0  0  0  0  0  0  0  0
    3.1851   -2.8512    1.1013 O   0  0  0  0  0  0  0  0  0  0  0  0
   -0.0910   -0.7957    0.0424 C   0  0  0  0  0  0  0  0  0  0  0  0
   -0.1875    0.6034    0.4102 C   0  0  0  0  0  0  0  0  0  0  0  0
   -0.9682    1.4832   -0.3464 C   0  0  0  0  0  0  0  0  0  0  0  0
   -1.0434    2.8402   -0.0080 C   0  0  0  0  0  0  0  0  0  0  0  0
   -0.3364    3.3305    1.0897 C   0  0  0  0  0  0  0  0  0  0  0  0
   -0.3205    4.6272    1.5234 O   0  0  0  0  0  0  0  0  0  0  0  0
   -1.1496    5.5475    0.8250 C   0  0  0  0  0  0  0  0  0  0  0  0
    0.4427    2.4524    1.8460 C   0  0  0  0  0  0  0  0  0  0  0  0
    0.5165    1.0971    1.5141 C   0  0  0  0  0  0  0  0  0  0  0  0
   -4.9102   -3.3432   -2.1632 H   0  0  0  0  0  0  0  0  0  0  0  0
   -5.0670   -1.6535   -1.6660 H   0  0  0  0  0  0  0  0  0  0  0  0
   -6.3716   -2.8025   -1.3139 H   0  0  0  0  0  0  0  0  0  0  0  0
   -5.0296   -2.3580    0.7418 H   0  0  0  0  0  0  0  0  0  0  0  0
   -4.8776   -4.0549    0.2430 H   0  0  0  0  0  0  0  0  0  0  0  0
   -2.6405   -3.7058   -0.3653 H   0  0  0  0  0  0  0  0  0  0  0  0
    2.0915    0.6399   -1.6176 H   0  0  0  0  0  0  0  0  0  0  0  0
    6.5688    0.8642   -1.1724 H   0  0  0  0  0  0  0  0  0  0  0  0
    5.6406   -1.9356    0.7301 H   0  0  0  0  0  0  0  0  0  0  0  0
    3.9956   -3.2690    1.4369 H   0  0  0  0  0  0  0  0  0  0  0  0
   -1.5344    1.1245   -1.2035 H   0  0  0  0  0  0  0  0  0  0  0  0
   -1.6668    3.4820   -0.6214 H   0  0  0  0  0  0  0  0  0  0  0  0
   -0.8289    5.6547   -0.2164 H   0  0  0  0  0  0  0  0  0  0  0  0
   -2.2036    5.2568    0.8871 H   0  0  0  0  0  0  0  0  0  0  0  0
   -1.0449    6.5241    1.3073 H   0  0  0  0  0  0  0  0  0  0  0  0
    0.9929    2.8263    2.7061 H   0  0  0  0  0  0  0  0  0  0  0  0
    1.1240    0.4366    2.1291 H   0  0  0  0  0  0  0  0  0  0  0  0
  1  2  1  0
  2  3  1  0
  3  4  1  0
  4  5  2  0
  4  6  1  0
  6  7  2  0
  7  8  1  0
  8  9  1  0
  9 10  1  0
 10 11  2  0
 11 12  1  0
 12 13  1  0
 12 14  2  0
 14 15  1  0
 14 16  1  0
 16 17  2  0
 17 18  1  0
  9 19  2  0
 19 20  1  0
 20 21  2  0
 21 22  1  0
 22 23  2  0
 23 24  1  0
 24 25  1  0
 23 26  1  0
 26 27  2  0
 19  6  1  0
 27 20  1  0
 17 10  1  0
  1 28  1  0
  1 29  1  0
  1 30  1  0
  2 31  1  0
  2 32  1  0
  3 33  1  0
 11 34  1  0
 15 35  1  0
 16 36  1  0
 18 37  1  0
 21 38  1  0
 22 39  1  0
 25 40  1  0
 25 41  1  0
 25 42  1  0
 26 43  1  0
 27 44  1  0
M  END
$$$$
