
     RDKit          3D

 43 45  0  0  0  0  0  0  0  0999 V2000
    8.3330    0.0657    0.7685 C   0  0  0  0  0  0  0  0  0  0  0  0
    6.9765    0.5515    0.3214 C   0  0  0  0  0  0  0  0  0  0  0  0
    6.8334    1.6825   -0.1290 O   0  0  0  0  0  0  0  0  0  0  0  0
    6.0009   -0.4188    0.4623 N   0  0  0  0  0  0  0  0  0  0  0  0
    4.6329   -0.3132    0.1393 C   0  0  0  0  0  0  0  0  0  0  0  0
    4.0389    0.8329   -0.3845 C   0  0  0  0  0  0  0  0  0  0  0  0
    2.6688    0.8526   -0.6780 C   0  0  0  0  0  0  0  0  0  0  0  0
    1.8679   -0.2719   -0.4528 C   0  0  0  0  0  0  0  0  0  0  0  0
    0.4994   -0.1642   -0.7751 N   0  0  0  0  0  0  0  0  0  0  0  0
   -0.4755   -1.1394   -0.6467 C   0  0  0  0  0  0  0  0  0  0  0  0
   -0.3194   -2.2803   -0.2297 O   0  0  0  0  0  0  0  0  0  0  0  0
   -1.8335   -0.6298   -1.0857 C   0  0  0  0  0  0  0  0  0  0  0  0
   -2.8863   -1.7220   -0.9979 C   0  0  0  0  0  0  0  0  0  0  0  0
   -4.4864   -1.1717   -1.5245 S   0  0  0  0  0  6  0  0  0  0  0  0
   -5.4493   -2.2284   -1.2853 O   0  0  0  0  0  0  0  0  0  0  0  0
   -4.3157   -0.6327   -2.8641 O   0  0  0  0  0  0  0  0  0  0  0  0
   -4.9746    0.1801   -0.5112 C   0  0  0  0  0  0  0  0  0  0  0  0
   -5.5980    1.3056   -1.0969 C   0  0  0  0  0  0  0  0  0  0  0  0
   -6.0249    2.4276   -0.3495 C   0  0  0  0  0  0  0  0  0  0  0  0
   -5.8670    2.5226    1.0429 C   0  0  0  0  0  0  0  0  0  0  0  0
   -5.2475    1.4206    1.6796 C   0  0  0  0  0  0  0  0  0  0  0  0
   -4.9992    1.3184    2.9932 N   0  0  0  0  0  0  0  0  0  0  0  0
   -4.2755   -0.1557    3.2256 S   0  0  0  0  0  0  0  0  0  0  0  0
   -4.2114   -0.7135    1.6640 N   0  0  0  0  0  0  0  0  0  0  0  0
   -4.7876    0.2169    0.8876 C   0  0  0  0  0  0  0  0  0  0  0  0
    2.4616   -1.4178    0.0720 C   0  0  0  0  0  0  0  0  0  0  0  0
    3.8321   -1.4375    0.3649 C   0  0  0  0  0  0  0  0  0  0  0  0
    8.8066   -0.4867   -0.0472 H   0  0  0  0  0  0  0  0  0  0  0  0
    8.2479   -0.5780    1.6488 H   0  0  0  0  0  0  0  0  0  0  0  0
    8.9560    0.9241    1.0361 H   0  0  0  0  0  0  0  0  0  0  0  0
    6.2983   -1.3126    0.8330 H   0  0  0  0  0  0  0  0  0  0  0  0
    4.6114    1.7344   -0.5794 H   0  0  0  0  0  0  0  0  0  0  0  0
    2.2475    1.7678   -1.0864 H   0  0  0  0  0  0  0  0  0  0  0  0
    0.2093    0.7292   -1.1535 H   0  0  0  0  0  0  0  0  0  0  0  0
   -1.7498   -0.2657   -2.1163 H   0  0  0  0  0  0  0  0  0  0  0  0
   -2.0985    0.2209   -0.4490 H   0  0  0  0  0  0  0  0  0  0  0  0
   -2.6213   -2.5514   -1.6651 H   0  0  0  0  0  0  0  0  0  0  0  0
   -2.9677   -2.1459    0.0054 H   0  0  0  0  0  0  0  0  0  0  0  0
   -5.7741    1.3153   -2.1752 H   0  0  0  0  0  0  0  0  0  0  0  0
   -6.5040    3.2537   -0.8776 H   0  0  0  0  0  0  0  0  0  0  0  0
   -6.2011    3.3870    1.6049 H   0  0  0  0  0  0  0  0  0  0  0  0
    1.8907   -2.3199    0.2681 H   0  0  0  0  0  0  0  0  0  0  0  0
    4.2551   -2.3524    0.7724 H   0  0  0  0  0  0  0  0  0  0  0  0
  1  2  1  0
  2  3  2  0
  2  4  1  0
  4  5  1  0
  5  6  2  0
  6  7  1  0
  7  8  2  0
  8  9  1  0
  9 10  1  0
 10 11  2  0
 10 12  1  0
 12 13  1  0
 13 14  1  0
 14 15  2  0
 14 16  2  0
 14 17  1  0
 17 18  2  0
 18 19  1  0
 19 20  2  0
 20 21  1  0
 21 22  2  0
 22 23  1  0
 23 24  1  0
 24 25  2  0
  8 26  1  0
 26 27  2  0
 27  5  1  0
 25 17  1  0
 25 21  1  0
  1 28  1  0
  1 29  1  0
  1 30  1  0
  4 31  1  0
  6 32  1  0
  7 33  1  0
  9 34  1  0
 12 35  1  0
 12 36  1  0
 13 37  1  0
 13 38  1  0
 18 39  1  0
 19 40  1  0
 20 41  1  0
 26 42  1  0
 27 43  1  0
M  END
$$$$
