
     RDKit          3D

 48 50  0  0  0  0  0  0  0  0999 V2000
   -8.0038    3.4612    0.8966 C   0  0  0  0  0  0  0  0  0  0  0  0
   -7.0069    2.4550    0.6271 N   0  0  0  0  0  0  0  0  0  0  0  0
   -7.3256    1.3478   -0.1467 C   0  0  0  0  0  0  0  0  0  0  0  0
   -8.4583    1.0899   -0.5350 O   0  0  0  0  0  0  0  0  0  0  0  0
   -6.1725    0.4654   -0.4914 C   0  0  0  0  0  0  0  0  0  0  0  0
   -5.3503   -0.0131    0.5180 C   0  0  0  0  0  0  0  0  0  0  0  0
   -4.2801   -0.8197    0.1483 C   0  0  0  0  0  0  0  0  0  0  0  0
   -3.5050   -1.3222    1.1692 O   0  0  0  0  0  0  0  0  0  0  0  0
   -2.1454   -1.3737    0.9703 C   0  0  0  0  0  0  0  0  0  0  0  0
   -1.4044   -0.2597    0.5661 C   0  0  0  0  0  0  0  0  0  0  0  0
   -0.0144   -0.3536    0.4171 C   0  0  0  0  0  0  0  0  0  0  0  0
    0.6411   -1.5557    0.6866 C   0  0  0  0  0  0  0  0  0  0  0  0
    2.0349   -1.7562    0.5714 N   0  0  0  0  0  0  0  0  0  0  0  0
    2.9948   -0.8437    0.1656 C   0  0  0  0  0  0  0  0  0  0  0  0
    2.7579    0.3052   -0.1813 O   0  0  0  0  0  0  0  0  0  0  0  0
    4.2594   -1.4136    0.2123 N   0  0  0  0  0  0  0  0  0  0  0  0
    5.4907   -0.8177   -0.1319 C   0  0  0  0  0  0  0  0  0  0  0  0
    6.6415   -1.5928    0.0413 C   0  0  0  0  0  0  0  0  0  0  0  0
    7.9002   -1.0780   -0.2768 C   0  0  0  0  0  0  0  0  0  0  0  0
    8.0257    0.2210   -0.7736 C   0  0  0  0  0  0  0  0  0  0  0  0
    9.6152    0.7804   -1.1444 Cl  0  0  0  0  0  0  0  0  0  0  0  0
    6.8913    1.0181   -0.9559 C   0  0  0  0  0  0  0  0  0  0  0  0
    6.9959    2.4225   -1.4886 C   0  0  0  0  0  0  0  0  0  0  0  0
    5.7938    3.0613   -1.5744 F   0  0  0  0  0  0  0  0  0  0  0  0
    7.7740    3.2286   -0.7138 F   0  0  0  0  0  0  0  0  0  0  0  0
    7.5188    2.4758   -2.7445 F   0  0  0  0  0  0  0  0  0  0  0  0
    5.6258    0.4807   -0.6313 C   0  0  0  0  0  0  0  0  0  0  0  0
   -0.1228   -2.6518    1.1142 C   0  0  0  0  0  0  0  0  0  0  0  0
    0.4931   -3.8142    1.3882 F   0  0  0  0  0  0  0  0  0  0  0  0
   -1.5027   -2.5715    1.2665 C   0  0  0  0  0  0  0  0  0  0  0  0
   -4.0839   -1.1471   -1.1912 C   0  0  0  0  0  0  0  0  0  0  0  0
   -4.9587   -0.6162   -2.1232 C   0  0  0  0  0  0  0  0  0  0  0  0
   -5.9924    0.1910   -1.8067 N   0  0  0  0  0  0  0  0  0  0  0  0
   -7.6474    4.0933    1.7150 H   0  0  0  0  0  0  0  0  0  0  0  0
   -8.1444    4.0653   -0.0045 H   0  0  0  0  0  0  0  0  0  0  0  0
   -8.9540    2.9930    1.1728 H   0  0  0  0  0  0  0  0  0  0  0  0
   -6.0340    2.7279    0.6873 H   0  0  0  0  0  0  0  0  0  0  0  0
   -5.5464    0.2152    1.5593 H   0  0  0  0  0  0  0  0  0  0  0  0
   -1.8940    0.6916    0.3709 H   0  0  0  0  0  0  0  0  0  0  0  0
    0.5231    0.5337    0.0956 H   0  0  0  0  0  0  0  0  0  0  0  0
    2.3416   -2.6901    0.8049 H   0  0  0  0  0  0  0  0  0  0  0  0
    4.3106   -2.3573    0.5625 H   0  0  0  0  0  0  0  0  0  0  0  0
    6.5804   -2.6074    0.4261 H   0  0  0  0  0  0  0  0  0  0  0  0
    8.7822   -1.6989   -0.1348 H   0  0  0  0  0  0  0  0  0  0  0  0
    4.7519    1.1103   -0.7834 H   0  0  0  0  0  0  0  0  0  0  0  0
   -2.0614   -3.4359    1.6078 H   0  0  0  0  0  0  0  0  0  0  0  0
   -3.2843   -1.8070   -1.5104 H   0  0  0  0  0  0  0  0  0  0  0  0
   -4.8507   -0.8370   -3.1815 H   0  0  0  0  0  0  0  0  0  0  0  0
  1  2  1  0
  2  3  1  0
  3  4  2  0
  3  5  1  0
  5  6  2  0
  6  7  1  0
  7  8  1  0
  8  9  1  0
  9 10  2  0
 10 11  1  0
 11 12  2  0
 12 13  1  0
 13 14  1  0
 14 15  2  0
 14 16  1  0
 16 17  1  0
 17 18  2  0
 18 19  1  0
 19 20  2  0
 20 21  1  0
 20 22  1  0
 22 23  1  0
 23 24  1  0
 23 25  1  0
 23 26  1  0
 22 27  2  0
 12 28  1  0
 28 29  1  0
 28 30  2  0
  7 31  2  0
 31 32  1  0
 32 33  2  0
 33  5  1  0
 30  9  1  0
 27 17  1  0
  1 34  1  0
  1 35  1  0
  1 36  1  0
  2 37  1  0
  6 38  1  0
 10 39  1  0
 11 40  1  0
 13 41  1  0
 16 42  1  0
 18 43  1  0
 19 44  1  0
 27 45  1  0
 30 46  1  0
 31 47  1  0
 32 48  1  0
M  END
$$$$
