
     RDKit          3D

 37 38  0  0  0  0  0  0  0  0999 V2000
   -2.6469    0.8717   -1.9274 O   0  0  0  0  0  0  0  0  0  0  0  0
   -2.7442   -0.0421   -1.1161 C   0  0  0  0  0  0  0  0  0  0  0  0
   -2.0372   -1.2226   -1.2274 N   0  0  0  0  0  0  0  0  0  0  0  0
   -1.0627   -1.4144   -2.2895 C   0  0  0  0  0  0  0  0  0  0  0  0
    0.2571   -0.7116   -2.0184 C   0  0  0  0  0  0  0  0  0  0  0  0
    1.2044   -1.6137   -0.8147 S   0  0  0  0  0  6  0  0  0  0  0  0
    1.6915   -2.8343   -1.4326 O   0  0  0  0  0  0  0  0  0  0  0  0
    0.4278   -1.6747    0.4148 O   0  0  0  0  0  0  0  0  0  0  0  0
    2.6232   -0.5935   -0.4815 C   0  0  0  0  0  0  0  0  0  0  0  0
    3.3177   -0.7401    0.7079 C   0  0  0  0  0  0  0  0  0  0  0  0
    4.4041    0.1035    0.9208 C   0  0  0  0  0  0  0  0  0  0  0  0
    4.7530    1.0507   -0.0525 C   0  0  0  0  0  0  0  0  0  0  0  0
    5.8995    1.9996    0.1295 C   0  0  0  0  0  0  0  0  0  0  0  0
    6.5599    2.2604   -1.0318 F   0  0  0  0  0  0  0  0  0  0  0  0
    6.8412    1.5416    0.9993 F   0  0  0  0  0  0  0  0  0  0  0  0
    5.4977    3.2064    0.6118 F   0  0  0  0  0  0  0  0  0  0  0  0
    3.9733    1.1192   -1.2026 C   0  0  0  0  0  0  0  0  0  0  0  0
    2.9093    0.3197   -1.4443 N   0  0  0  0  0  0  0  0  0  0  0  0
   -3.6124    0.1063    0.0861 C   0  0  0  0  0  0  0  0  0  0  0  0
   -4.1324   -0.9995    0.7729 C   0  0  0  0  0  0  0  0  0  0  0  0
   -4.9451   -0.8079    1.8951 C   0  0  0  0  0  0  0  0  0  0  0  0
   -5.2440    0.4843    2.3255 C   0  0  0  0  0  0  0  0  0  0  0  0
   -6.2441    0.7144    3.7059 Cl  0  0  0  0  0  0  0  0  0  0  0  0
   -4.7438    1.5899    1.6406 C   0  0  0  0  0  0  0  0  0  0  0  0
   -3.9319    1.4011    0.5189 C   0  0  0  0  0  0  0  0  0  0  0  0
   -1.9252   -1.7927   -0.3945 H   0  0  0  0  0  0  0  0  0  0  0  0
   -1.4965   -1.0191   -3.2150 H   0  0  0  0  0  0  0  0  0  0  0  0
   -0.9305   -2.4938   -2.4159 H   0  0  0  0  0  0  0  0  0  0  0  0
    0.1050    0.3040   -1.6411 H   0  0  0  0  0  0  0  0  0  0  0  0
    0.8543   -0.6765   -2.9350 H   0  0  0  0  0  0  0  0  0  0  0  0
    3.0257   -1.4824    1.4441 H   0  0  0  0  0  0  0  0  0  0  0  0
    4.9778    0.0220    1.8430 H   0  0  0  0  0  0  0  0  0  0  0  0
    4.1886    1.8422   -1.9883 H   0  0  0  0  0  0  0  0  0  0  0  0
   -3.9376   -2.0142    0.4373 H   0  0  0  0  0  0  0  0  0  0  0  0
   -5.3471   -1.6691    2.4232 H   0  0  0  0  0  0  0  0  0  0  0  0
   -4.9821    2.5980    1.9695 H   0  0  0  0  0  0  0  0  0  0  0  0
   -3.5473    2.2671   -0.0171 H   0  0  0  0  0  0  0  0  0  0  0  0
  1  2  2  0
  2  3  1  0
  3  4  1  0
  4  5  1  0
  5  6  1  0
  6  7  2  0
  6  8  2  0
  6  9  1  0
  9 10  2  0
 10 11  1  0
 11 12  2  0
 12 13  1  0
 13 14  1  0
 13 15  1  0
 13 16  1  0
 12 17  1  0
 17 18  2  0
  2 19  1  0
 19 20  2  0
 20 21  1  0
 21 22  2  0
 22 23  1  0
 22 24  1  0
 24 25  2  0
 18  9  1  0
 25 19  1  0
  3 26  1  0
  4 27  1  0
  4 28  1  0
  5 29  1  0
  5 30  1  0
 10 31  1  0
 11 32  1  0
 17 33  1  0
 20 34  1  0
 21 35  1  0
 24 36  1  0
 25 37  1  0
M  END
$$$$
