
     RDKit          3D

 41 43  0  0  0  0  0  0  0  0999 V2000
    7.0849    1.3811   -1.6046 C   0  0  0  0  0  0  0  0  0  0  0  0
    6.4183   -0.2041   -2.0403 S   0  0  0  0  0  6  0  0  0  0  0  0
    6.3566   -0.2934   -3.4861 O   0  0  0  0  0  0  0  0  0  0  0  0
    7.1024   -1.2164   -1.2593 O   0  0  0  0  0  0  0  0  0  0  0  0
    4.7436   -0.1260   -1.4475 C   0  0  0  0  0  0  0  0  0  0  0  0
    3.7438    0.3792   -2.2780 C   0  0  0  0  0  0  0  0  0  0  0  0
    2.4279    0.4188   -1.8145 C   0  0  0  0  0  0  0  0  0  0  0  0
    2.0987   -0.0608   -0.5321 C   0  0  0  0  0  0  0  0  0  0  0  0
    0.6626    0.0414   -0.1451 C   0  0  0  0  0  0  0  0  0  0  0  0
    0.0543    1.0417   -0.5078 O   0  0  0  0  0  0  0  0  0  0  0  0
    0.1462   -1.0298    0.5566 N   0  0  0  0  0  0  0  0  0  0  0  0
   -1.1845   -1.2147    0.9865 C   0  0  0  0  0  0  0  0  0  0  0  0
   -1.4441   -2.3322    1.7856 C   0  0  0  0  0  0  0  0  0  0  0  0
   -2.7358   -2.5876    2.2495 C   0  0  0  0  0  0  0  0  0  0  0  0
   -3.7871   -1.7281    1.9175 C   0  0  0  0  0  0  0  0  0  0  0  0
   -5.3588   -2.1400    2.5162 Cl  0  0  0  0  0  0  0  0  0  0  0  0
   -3.5589   -0.5969    1.1159 C   0  0  0  0  0  0  0  0  0  0  0  0
   -4.6196    0.3410    0.7268 C   0  0  0  0  0  0  0  0  0  0  0  0
   -5.2870    1.1400    1.6546 C   0  0  0  0  0  0  0  0  0  0  0  0
   -6.2642    2.0246    1.2052 C   0  0  0  0  0  0  0  0  0  0  0  0
   -6.5446    2.0941   -0.1536 C   0  0  0  0  0  0  0  0  0  0  0  0
   -5.8324    1.2724   -1.0106 C   0  0  0  0  0  0  0  0  0  0  0  0
   -4.8780    0.4073   -0.6034 N   0  0  0  0  0  0  0  0  0  0  0  0
   -2.2427   -0.3639    0.6549 C   0  0  0  0  0  0  0  0  0  0  0  0
    3.1161   -0.5710    0.2893 C   0  0  0  0  0  0  0  0  0  0  0  0
    2.8409   -1.1384    1.8987 Cl  0  0  0  0  0  0  0  0  0  0  0  0
    4.4377   -0.6109   -0.1727 C   0  0  0  0  0  0  0  0  0  0  0  0
    8.1199    1.4187   -1.9499 H   0  0  0  0  0  0  0  0  0  0  0  0
    7.0506    1.4958   -0.5194 H   0  0  0  0  0  0  0  0  0  0  0  0
    6.5016    2.1619   -2.0959 H   0  0  0  0  0  0  0  0  0  0  0  0
    3.9718    0.7355   -3.2818 H   0  0  0  0  0  0  0  0  0  0  0  0
    1.6468    0.8197   -2.4618 H   0  0  0  0  0  0  0  0  0  0  0  0
    0.8005   -1.7519    0.8356 H   0  0  0  0  0  0  0  0  0  0  0  0
   -0.6482   -3.0200    2.0609 H   0  0  0  0  0  0  0  0  0  0  0  0
   -2.9186   -3.4657    2.8646 H   0  0  0  0  0  0  0  0  0  0  0  0
   -5.0500    1.0806    2.7122 H   0  0  0  0  0  0  0  0  0  0  0  0
   -6.7981    2.6552    1.9104 H   0  0  0  0  0  0  0  0  0  0  0  0
   -7.2995    2.7714   -0.5366 H   0  0  0  0  0  0  0  0  0  0  0  0
   -6.0142    1.2883   -2.0817 H   0  0  0  0  0  0  0  0  0  0  0  0
   -2.0827    0.5011    0.0149 H   0  0  0  0  0  0  0  0  0  0  0  0
    5.2240   -1.0181    0.4616 H   0  0  0  0  0  0  0  0  0  0  0  0
  1  2  1  0
  2  3  2  0
  2  4  2  0
  2  5  1  0
  5  6  2  0
  6  7  1  0
  7  8  2  0
  8  9  1  0
  9 10  2  0
  9 11  1  0
 11 12  1  0
 12 13  2  0
 13 14  1  0
 14 15  2  0
 15 16  1  0
 15 17  1  0
 17 18  1  0
 18 19  2  0
 19 20  1  0
 20 21  2  0
 21 22  1  0
 22 23  2  0
 17 24  2  0
  8 25  1  0
 25 26  1  0
 25 27  2  0
 27  5  1  0
 24 12  1  0
 23 18  1  0
  1 28  1  0
  1 29  1  0
  1 30  1  0
  6 31  1  0
  7 32  1  0
 11 33  1  0
 13 34  1  0
 14 35  1  0
 19 36  1  0
 20 37  1  0
 21 38  1  0
 22 39  1  0
 24 40  1  0
 27 41  1  0
M  END
$$$$
