
     RDKit          3D

 60 64  0  0  0  0  0  0  0  0999 V2000
   -2.9246    1.7718   -0.4765 O   0  0  0  0  0  0  0  0  0  0  0  0
   -2.5250    0.6201   -0.6114 C   0  0  0  0  0  0  0  0  0  0  0  0
   -3.3616   -0.4648   -0.5531 N   0  0  0  0  0  0  0  0  0  0  0  0
   -4.8013   -0.2866   -0.4153 C   0  0  0  0  0  0  0  0  0  0  0  0
   -5.2393    0.1713    0.9803 C   0  0  0  0  0  0  0  0  0  0  0  0
   -6.7477    0.1655    1.0977 C   0  0  0  0  0  0  0  0  0  0  0  0
   -7.4141   -0.9690    1.5744 C   0  0  0  0  0  0  0  0  0  0  0  0
   -8.8018   -0.9856    1.6500 C   0  0  0  0  0  0  0  0  0  0  0  0
   -9.5333    0.1313    1.2542 C   0  0  0  0  0  0  0  0  0  0  0  0
   -8.8810    1.2617    0.7712 C   0  0  0  0  0  0  0  0  0  0  0  0
   -7.4956    1.2786    0.6911 C   0  0  0  0  0  0  0  0  0  0  0  0
   -1.2048    0.3100   -0.8801 N   0  0  0  0  0  0  0  0  0  0  0  0
   -0.6001   -1.0048   -0.6532 C   0  0  0  0  0  0  0  0  0  0  0  0
    0.4392   -1.0462    0.4633 C   0  0  0  0  0  0  0  0  0  0  0  0
    1.5084    0.0391    0.4471 C   0  0  0  0  0  0  0  0  0  0  0  0
    1.9888    0.4022   -0.8900 N   0  0  0  0  0  0  0  0  0  0  0  0
    2.8547   -0.5406   -1.4596 C   0  0  0  0  0  0  0  0  0  0  0  0
    2.3372   -1.3614   -2.4116 N   0  0  0  0  0  0  0  0  0  0  0  0
    3.1075   -2.3507   -2.9142 C   0  0  0  0  0  0  0  0  0  0  0  0
    4.4066   -2.5919   -2.5026 C   0  0  0  0  0  0  0  0  0  0  0  0
    4.9501   -1.7463   -1.5473 C   0  0  0  0  0  0  0  0  0  0  0  0
    4.1859   -0.6908   -1.0163 C   0  0  0  0  0  0  0  0  0  0  0  0
    4.8296    0.1855   -0.0531 C   0  0  0  0  0  0  0  0  0  0  0  0
    5.7904   -0.0909    0.7975 N   0  0  0  0  0  0  0  0  0  0  0  0
    6.0298    1.1266    1.3721 C   0  0  0  0  0  0  0  0  0  0  0  0
    7.1404    1.3529    2.4394 C   0  0  0  0  0  0  0  0  0  0  0  0
    8.5672    1.5588    1.9730 C   0  0  0  0  0  0  0  0  0  0  0  0
    8.1774    0.2777    2.6608 C   0  0  0  0  0  0  0  0  0  0  0  0
    5.2621    2.1236    0.9286 N   0  0  0  0  0  0  0  0  0  0  0  0
    4.4613    1.5021   -0.0347 O   0  0  0  0  0  0  0  0  0  0  0  0
    1.0434    1.0500   -1.8365 C   0  0  0  0  0  0  0  0  0  0  0  0
   -0.3182    1.4310   -1.2318 C   0  0  0  0  0  0  0  0  0  0  0  0
   -3.1008   -1.1766   -1.2277 H   0  0  0  0  0  0  0  0  0  0  0  0
   -5.1406    0.4247   -1.1868 H   0  0  0  0  0  0  0  0  0  0  0  0
   -5.2441   -1.2588   -0.6473 H   0  0  0  0  0  0  0  0  0  0  0  0
   -4.8028   -0.4831    1.7484 H   0  0  0  0  0  0  0  0  0  0  0  0
   -4.8643    1.1765    1.2012 H   0  0  0  0  0  0  0  0  0  0  0  0
   -6.8514   -1.8506    1.8915 H   0  0  0  0  0  0  0  0  0  0  0  0
   -9.3073   -1.8693    2.0239 H   0  0  0  0  0  0  0  0  0  0  0  0
  -10.6065    0.1156    1.3072 H   0  0  0  0  0  0  0  0  0  0  0  0
   -9.4498    2.1315    0.4605 H   0  0  0  0  0  0  0  0  0  0  0  0
   -6.9911    2.1622    0.3092 H   0  0  0  0  0  0  0  0  0  0  0  0
   -1.3628   -1.7412   -0.3915 H   0  0  0  0  0  0  0  0  0  0  0  0
   -0.1813   -1.3441   -1.6009 H   0  0  0  0  0  0  0  0  0  0  0  0
    0.9271   -2.0284    0.4335 H   0  0  0  0  0  0  0  0  0  0  0  0
   -0.0718   -0.9931    1.4312 H   0  0  0  0  0  0  0  0  0  0  0  0
    2.3373   -0.3010    1.0837 H   0  0  0  0  0  0  0  0  0  0  0  0
    1.1370    0.9386    0.9506 H   0  0  0  0  0  0  0  0  0  0  0  0
    2.6254   -2.9719   -3.6657 H   0  0  0  0  0  0  0  0  0  0  0  0
    4.9831   -3.4076   -2.9232 H   0  0  0  0  0  0  0  0  0  0  0  0
    5.9770   -1.9003   -1.2103 H   0  0  0  0  0  0  0  0  0  0  0  0
    6.8112    1.9195    3.3051 H   0  0  0  0  0  0  0  0  0  0  0  0
    8.7819    1.5242    0.9081 H   0  0  0  0  0  0  0  0  0  0  0  0
    9.1689    2.2790    2.5260 H   0  0  0  0  0  0  0  0  0  0  0  0
    8.5272    0.1176    3.6673 H   0  0  0  0  0  0  0  0  0  0  0  0
    8.1287   -0.6291    2.0587 H   0  0  0  0  0  0  0  0  0  0  0  0
    0.8622    0.4487   -2.7448 H   0  0  0  0  0  0  0  0  0  0  0  0
    1.5242    1.9849   -2.1780 H   0  0  0  0  0  0  0  0  0  0  0  0
   -0.1958    2.0554   -0.3417 H   0  0  0  0  0  0  0  0  0  0  0  0
   -0.8524    2.0469   -1.9657 H   0  0  0  0  0  0  0  0  0  0  0  0
  1  2  2  0
  2  3  1  0
  3  4  1  0
  4  5  1  0
  5  6  1  0
  6  7  2  0
  7  8  1  0
  8  9  2  0
  9 10  1  0
 10 11  2  0
  2 12  1  0
 12 13  1  0
 13 14  1  0
 14 15  1  0
 15 16  1  0
 16 17  1  0
 17 18  2  0
 18 19  1  0
 19 20  2  0
 20 21  1  0
 21 22  2  0
 22 23  1  0
 23 24  2  0
 24 25  1  0
 25 26  1  0
 26 27  1  0
 27 28  1  0
 25 29  2  0
 29 30  1  0
 16 31  1  0
 31 32  1  0
 11  6  1  0
 32 12  1  0
 22 17  1  0
 30 23  1  0
 28 26  1  0
  3 33  1  0
  4 34  1  0
  4 35  1  0
  5 36  1  0
  5 37  1  0
  7 38  1  0
  8 39  1  0
  9 40  1  0
 10 41  1  0
 11 42  1  0
 13 43  1  0
 13 44  1  0
 14 45  1  0
 14 46  1  0
 15 47  1  0
 15 48  1  0
 19 49  1  0
 20 50  1  0
 21 51  1  0
 26 52  1  0
 27 53  1  0
 27 54  1  0
 28 55  1  0
 28 56  1  0
 31 57  1  0
 31 58  1  0
 32 59  1  0
 32 60  1  0
M  END
$$$$
