
     RDKit          3D

 40 41  0  0  0  0  0  0  0  0999 V2000
    4.7786   -2.2797   -0.7778 C   0  0  0  0  0  0  0  0  0  0  0  0
    4.4269   -0.9292   -0.7600 O   0  0  0  0  0  0  0  0  0  0  0  0
    3.1146   -0.5659   -0.4802 C   0  0  0  0  0  0  0  0  0  0  0  0
    2.1559   -1.5246   -0.2198 C   0  0  0  0  0  0  0  0  0  0  0  0
    0.8488   -1.1616    0.0589 C   0  0  0  0  0  0  0  0  0  0  0  0
    0.4702    0.1605    0.0840 C   0  0  0  0  0  0  0  0  0  0  0  0
    1.4119    1.1393   -0.1734 C   0  0  0  0  0  0  0  0  0  0  0  0
    2.7144    0.7553   -0.4501 C   0  0  0  0  0  0  0  0  0  0  0  0
    0.9670    2.5420   -0.1346 C   0  0  0  0  0  0  0  0  0  0  0  0
   -0.3459    2.7565   -0.6374 N   0  0  0  0  0  0  0  0  0  0  0  0
   -0.9476    3.9744   -0.1532 C   0  0  0  0  0  0  0  0  0  0  0  0
   -1.2299    1.6559   -0.6798 C   0  0  0  0  0  0  0  0  0  0  0  0
   -0.9201    0.6220    0.3744 C   0  0  0  0  0  0  0  0  0  0  0  0
   -1.8865   -0.4659    0.4429 C   0  0  0  0  0  0  0  0  0  0  0  0
   -2.6095   -0.9322   -0.6511 C   0  0  0  0  0  0  0  0  0  0  0  0
   -3.5153   -1.9852   -0.4802 C   0  0  0  0  0  0  0  0  0  0  0  0
   -3.7090   -2.5742    0.7525 C   0  0  0  0  0  0  0  0  0  0  0  0
   -4.8523   -3.9003    0.9581 Cl  0  0  0  0  0  0  0  0  0  0  0  0
   -2.9979   -2.1150    1.8266 C   0  0  0  0  0  0  0  0  0  0  0  0
   -3.2263   -2.8448    3.3961 Cl  0  0  0  0  0  0  0  0  0  0  0  0
   -2.1049   -1.0778    1.6613 C   0  0  0  0  0  0  0  0  0  0  0  0
    0.6868    0.0000    0.0000 Cl  0  0  0  0  0  0  0  0  0  0  0  0
    4.1553   -2.8808   -1.5022 H   0  0  0  0  0  0  0  0  0  0  0  0
    5.8261   -2.3679   -1.1179 H   0  0  0  0  0  0  0  0  0  0  0  0
    4.6233   -2.7622    0.2312 H   0  0  0  0  0  0  0  0  0  0  0  0
    2.3993   -2.5975   -0.2257 H   0  0  0  0  0  0  0  0  0  0  0  0
    0.0762   -1.8902    0.2667 H   0  0  0  0  0  0  0  0  0  0  0  0
    3.4509    1.5410   -0.6524 H   0  0  0  0  0  0  0  0  0  0  0  0
    1.7147    3.2282   -0.6309 H   0  0  0  0  0  0  0  0  0  0  0  0
    0.9585    2.8404    0.9550 H   0  0  0  0  0  0  0  0  0  0  0  0
   -0.9889    3.9512    0.9501 H   0  0  0  0  0  0  0  0  0  0  0  0
   -0.3022    4.8147   -0.4720 H   0  0  0  0  0  0  0  0  0  0  0  0
   -1.9369    4.1144   -0.5846 H   0  0  0  0  0  0  0  0  0  0  0  0
   -2.2653    2.0142   -0.4847 H   0  0  0  0  0  0  0  0  0  0  0  0
   -1.2557    1.1653   -1.6698 H   0  0  0  0  0  0  0  0  0  0  0  0
   -0.9105    1.1429    1.3541 H   0  0  0  0  0  0  0  0  0  0  0  0
   -2.4590   -0.4774   -1.5999 H   0  0  0  0  0  0  0  0  0  0  0  0
   -4.0813   -2.3559   -1.3178 H   0  0  0  0  0  0  0  0  0  0  0  0
   -1.5473   -0.7299    2.5436 H   0  0  0  0  0  0  0  0  0  0  0  0
   -0.6868    0.0000    0.0000 H   0  0  0  0  0  0  0  0  0  0  0  0
  1  2  1  0
  2  3  1  0
  3  4  2  0
  4  5  1  0
  5  6  2  0
  6  7  1  0
  7  8  2  0
  7  9  1  0
  9 10  1  0
 10 11  1  0
 10 12  1  0
 12 13  1  0
 13 14  1  0
 14 15  2  0
 15 16  1  0
 16 17  2  0
 17 18  1  0
 17 19  1  0
 19 20  1  0
 19 21  2  0
  8  3  1  0
 21 14  1  0
 13  6  1  0
  1 23  1  0
  1 24  1  0
  1 25  1  0
  4 26  1  0
  5 27  1  0
  8 28  1  0
  9 29  1  0
  9 30  1  0
 11 31  1  0
 11 32  1  0
 11 33  1  0
 12 34  1  0
 12 35  1  0
 13 36  1  0
 15 37  1  0
 16 38  1  0
 21 39  1  0
 22 40  1  0
M  END
$$$$
