
     RDKit          3D

 51 53  0  0  0  0  0  0  0  0999 V2000
   -6.3048    1.1068   -0.9483 C   0  0  0  0  0  0  0  0  0  0  0  0
   -6.2620    0.2334    0.1759 O   0  0  0  0  0  0  0  0  0  0  0  0
   -5.0791   -0.4264    0.3911 C   0  0  0  0  0  0  0  0  0  0  0  0
   -3.9464   -0.3735   -0.4225 C   0  0  0  0  0  0  0  0  0  0  0  0
   -2.7848   -1.0906   -0.0818 C   0  0  0  0  0  0  0  0  0  0  0  0
   -1.5493   -1.0082   -0.9501 C   0  0  0  0  0  0  0  0  0  0  0  0
   -0.6729    0.2355   -0.7714 C   0  0  1  0  0  0  0  0  0  0  0  0
   -1.3068    1.5150   -1.2601 C   0  0  0  0  0  0  0  0  0  0  0  0
   -2.0368    1.6343   -2.2308 O   0  0  0  0  0  0  0  0  0  0  0  0
   -0.9027    2.5611   -0.4763 O   0  0  0  0  0  0  0  0  0  0  0  0
    0.0357    2.0830    0.4922 C   0  0  0  0  0  0  0  0  0  0  0  0
   -0.3082    0.6170    0.6599 C   0  0  2  0  0  0  0  0  0  0  0  0
    0.7460   -0.2391    1.3684 C   0  0  0  0  0  0  0  0  0  0  0  0
    2.1002   -0.3248    0.7078 C   0  0  0  0  0  0  0  0  0  0  0  0
    2.3762   -1.3319   -0.2219 C   0  0  0  0  0  0  0  0  0  0  0  0
    3.6266   -1.4070   -0.8409 C   0  0  0  0  0  0  0  0  0  0  0  0
    4.6258   -0.4785   -0.5355 C   0  0  0  0  0  0  0  0  0  0  0  0
    5.8792   -0.4742   -1.0953 O   0  0  0  0  0  0  0  0  0  0  0  0
    6.1754   -1.4744   -2.0588 C   0  0  0  0  0  0  0  0  0  0  0  0
    4.3657    0.5328    0.4098 C   0  0  0  0  0  0  0  0  0  0  0  0
    5.3980    1.4030    0.6599 O   0  0  0  0  0  0  0  0  0  0  0  0
    5.1858    2.4264    1.6207 C   0  0  0  0  0  0  0  0  0  0  0  0
    3.1086    0.5985    1.0249 C   0  0  0  0  0  0  0  0  0  0  0  0
   -2.7843   -1.8834    1.0767 C   0  0  0  0  0  0  0  0  0  0  0  0
   -3.9143   -1.9466    1.8903 C   0  0  0  0  0  0  0  0  0  0  0  0
   -5.0439   -1.2188    1.5425 C   0  0  0  0  0  0  0  0  0  0  0  0
   -6.1387   -1.2941    2.3603 O   0  0  0  0  0  0  0  0  0  0  0  0
   -7.2899    1.5831   -0.9623 H   0  0  0  0  0  0  0  0  0  0  0  0
   -5.5533    1.8989   -0.8637 H   0  0  0  0  0  0  0  0  0  0  0  0
   -6.1917    0.5492   -1.8838 H   0  0  0  0  0  0  0  0  0  0  0  0
   -3.9460    0.2154   -1.3350 H   0  0  0  0  0  0  0  0  0  0  0  0
   -1.8643   -1.0906   -1.9990 H   0  0  0  0  0  0  0  0  0  0  0  0
   -0.9347   -1.8989   -0.7662 H   0  0  0  0  0  0  0  0  0  0  0  0
    0.2284    0.1136   -1.3852 H   0  0  0  0  0  0  0  0  0  0  0  0
   -0.0927    2.6399    1.4253 H   0  0  0  0  0  0  0  0  0  0  0  0
    1.0410    2.2687    0.1041 H   0  0  0  0  0  0  0  0  0  0  0  0
   -1.2144    0.5852    1.2803 H   0  0  0  0  0  0  0  0  0  0  0  0
    0.8809    0.1397    2.3906 H   0  0  0  0  0  0  0  0  0  0  0  0
    0.3578   -1.2579    1.4945 H   0  0  0  0  0  0  0  0  0  0  0  0
    1.6221   -2.0745   -0.4735 H   0  0  0  0  0  0  0  0  0  0  0  0
    3.7901   -2.2060   -1.5563 H   0  0  0  0  0  0  0  0  0  0  0  0
    6.1218   -2.4754   -1.6182 H   0  0  0  0  0  0  0  0  0  0  0  0
    7.2032   -1.3167   -2.3996 H   0  0  0  0  0  0  0  0  0  0  0  0
    5.5196   -1.3895   -2.9315 H   0  0  0  0  0  0  0  0  0  0  0  0
    4.3854    3.1039    1.3057 H   0  0  0  0  0  0  0  0  0  0  0  0
    6.1069    3.0126    1.6944 H   0  0  0  0  0  0  0  0  0  0  0  0
    4.9813    2.0037    2.6099 H   0  0  0  0  0  0  0  0  0  0  0  0
    2.8923    1.3655    1.7618 H   0  0  0  0  0  0  0  0  0  0  0  0
   -1.9056   -2.4604    1.3548 H   0  0  0  0  0  0  0  0  0  0  0  0
   -3.9177   -2.5586    2.7872 H   0  0  0  0  0  0  0  0  0  0  0  0
   -6.8086   -0.7265    1.9311 H   0  0  0  0  0  0  0  0  0  0  0  0
  1  2  1  0
  2  3  1  0
  3  4  2  0
  4  5  1  0
  5  6  1  0
  6  7  1  0
  7  8  1  0
  8  9  2  0
  8 10  1  0
 10 11  1  0
 11 12  1  0
 12 13  1  0
 13 14  1  0
 14 15  2  0
 15 16  1  0
 16 17  2  0
 17 18  1  0
 18 19  1  0
 17 20  1  0
 20 21  1  0
 21 22  1  0
 20 23  2  0
  5 24  2  0
 24 25  1  0
 25 26  2  0
 26 27  1  0
 26  3  1  0
 12  7  1  0
 23 14  1  0
  1 28  1  0
  1 29  1  0
  1 30  1  0
  4 31  1  0
  6 32  1  0
  6 33  1  0
  7 34  1  6
 11 35  1  0
 11 36  1  0
 12 37  1  1
 13 38  1  0
 13 39  1  0
 15 40  1  0
 16 41  1  0
 19 42  1  0
 19 43  1  0
 19 44  1  0
 22 45  1  0
 22 46  1  0
 22 47  1  0
 23 48  1  0
 24 49  1  0
 25 50  1  0
 27 51  1  0
M  END
$$$$
