
     RDKit          3D

 28 30  0  0  0  0  0  0  0  0999 V2000
   -0.3291    1.9918   -1.5450 C   0  0  0  0  0  0  0  0  0  0  0  0
    0.2621    0.5913   -1.5149 C   0  0  0  0  0  0  0  0  0  0  0  0
   -0.0127   -0.1164   -0.2791 N   0  0  0  0  0  0  0  0  0  0  0  0
    0.8777   -0.4856    0.7126 C   0  0  0  0  0  0  0  0  0  0  0  0
    2.3785   -0.0468    0.9478 C   0  0  0  0  0  0  0  0  0  0  0  0
    3.1559   -0.7609    1.7728 N   0  0  0  0  0  0  0  0  0  0  0  0
    4.4131   -0.1890    1.6854 O   0  0  0  0  0  0  0  0  0  0  0  0
    4.4007    0.9224    0.8569 N   0  0  0  0  0  0  0  0  0  0  0  0
    3.1400    1.0367    0.4446 C   0  0  0  0  0  0  0  0  0  0  0  0
    2.7102    2.1074   -0.2682 N   0  0  0  0  0  0  0  0  0  0  0  0
    0.3106   -1.3655    1.5229 N   0  0  0  0  0  0  0  0  0  0  0  0
   -0.9787   -1.5153    1.1016 C   0  0  0  0  0  0  0  0  0  0  0  0
   -2.0031   -2.3105    1.6354 C   0  0  0  0  0  0  0  0  0  0  0  0
   -3.2532   -2.3112    1.0072 C   0  0  0  0  0  0  0  0  0  0  0  0
   -3.4752   -1.5399   -0.1338 C   0  0  0  0  0  0  0  0  0  0  0  0
   -2.4616   -0.7435   -0.6803 C   0  0  0  0  0  0  0  0  0  0  0  0
   -1.2202   -0.7460   -0.0280 C   0  0  0  0  0  0  0  0  0  0  0  0
   -1.4223    1.9585   -1.5893 H   0  0  0  0  0  0  0  0  0  0  0  0
   -0.0639    2.5701   -0.6561 H   0  0  0  0  0  0  0  0  0  0  0  0
    0.0215    2.5313   -2.4303 H   0  0  0  0  0  0  0  0  0  0  0  0
    1.3387    0.5984   -1.6888 H   0  0  0  0  0  0  0  0  0  0  0  0
   -0.1614   -0.0043   -2.3331 H   0  0  0  0  0  0  0  0  0  0  0  0
    1.8977    2.5800    0.1184 H   0  0  0  0  0  0  0  0  0  0  0  0
    3.4445    2.8015   -0.4043 H   0  0  0  0  0  0  0  0  0  0  0  0
   -1.8170   -2.9136    2.5173 H   0  0  0  0  0  0  0  0  0  0  0  0
   -4.0549   -2.9245    1.4116 H   0  0  0  0  0  0  0  0  0  0  0  0
   -4.4533   -1.5610   -0.6104 H   0  0  0  0  0  0  0  0  0  0  0  0
   -2.6446   -0.1555   -1.5728 H   0  0  0  0  0  0  0  0  0  0  0  0
  1  2  1  0
  2  3  1  0
  3  4  1  0
  4  5  1  0
  5  6  2  0
  6  7  1  0
  7  8  1  0
  8  9  2  0
  9 10  1  0
  4 11  2  0
 11 12  1  0
 12 13  2  0
 13 14  1  0
 14 15  2  0
 15 16  1  0
 16 17  2  0
 17  3  1  0
  9  5  1  0
 17 12  1  0
  1 18  1  0
  1 19  1  0
  1 20  1  0
  2 21  1  0
  2 22  1  0
 10 23  1  0
 10 24  1  0
 13 25  1  0
 14 26  1  0
 15 27  1  0
 16 28  1  0
M  END
$$$$
