
     RDKit          3D

 69 72  0  0  0  0  0  0  0  0999 V2000
   11.1077    0.4422   -2.1593 C   0  0  0  0  0  0  0  0  0  0  0  0
   10.2910   -0.2333   -1.0637 C   0  0  0  0  0  0  0  0  0  0  0  0
    8.8670   -0.2900   -1.4034 N   0  0  0  0  0  0  0  0  0  0  0  0
    8.1736   -1.3227   -0.6064 C   0  0  0  0  0  0  0  0  0  0  0  0
    6.6333   -1.2047   -0.6527 C   0  0  0  0  0  0  0  0  0  0  0  0
    6.1908    0.0884   -0.1083 N   0  0  0  0  0  0  0  0  0  0  0  0
    4.9090    0.2654    0.3803 C   0  0  0  0  0  0  0  0  0  0  0  0
    4.5831    1.3073    1.2584 C   0  0  0  0  0  0  0  0  0  0  0  0
    3.2799    1.4876    1.7518 C   0  0  0  0  0  0  0  0  0  0  0  0
    2.2346    0.6452    1.3625 C   0  0  0  0  0  0  0  0  0  0  0  0
    0.9510    0.8273    1.9233 N   0  0  0  0  0  0  0  0  0  0  0  0
   -0.3022    0.4319    1.3927 C   0  0  0  0  0  0  0  0  0  0  0  0
   -1.4029    0.4833    2.2352 C   0  0  0  0  0  0  0  0  0  0  0  0
   -2.6350    0.0980    1.7303 C   0  0  0  0  0  0  0  0  0  0  0  0
   -3.8079    0.0963    2.5562 N   0  0  0  0  0  0  0  0  0  0  0  0
   -3.6452    0.2351    3.9976 C   0  0  0  0  0  0  0  0  0  0  0  0
   -5.1230   -0.0591    2.0856 C   0  0  0  0  0  0  0  0  0  0  0  0
   -6.0776   -0.1952    2.8522 O   0  0  0  0  0  0  0  0  0  0  0  0
   -5.2697   -0.0402    0.7153 N   0  0  0  0  0  0  0  0  0  0  0  0
   -6.5190   -0.1557    0.0476 C   0  0  0  0  0  0  0  0  0  0  0  0
   -6.6294   -1.1043   -0.9892 C   0  0  0  0  0  0  0  0  0  0  0  0
   -5.2476   -2.0824   -1.4102 Cl  0  0  0  0  0  0  0  0  0  0  0  0
   -7.8457   -1.3021   -1.6689 C   0  0  0  0  0  0  0  0  0  0  0  0
   -7.8598   -2.2715   -2.6396 O   0  0  0  0  0  0  0  0  0  0  0  0
   -9.1147   -2.6462   -3.1912 C   0  0  0  0  0  0  0  0  0  0  0  0
   -8.9484   -0.5098   -1.3377 C   0  0  0  0  0  0  0  0  0  0  0  0
   -8.8384    0.4928   -0.3656 C   0  0  0  0  0  0  0  0  0  0  0  0
   -9.8866    1.3156   -0.0283 O   0  0  0  0  0  0  0  0  0  0  0  0
  -10.8287    1.6030   -1.0554 C   0  0  0  0  0  0  0  0  0  0  0  0
   -7.6254    0.6698    0.3310 C   0  0  0  0  0  0  0  0  0  0  0  0
   -7.4786    2.0501    1.3857 Cl  0  0  0  0  0  0  0  0  0  0  0  0
   -2.7500   -0.3144    0.4538 N   0  0  0  0  0  0  0  0  0  0  0  0
   -1.6337   -0.3396   -0.2844 C   0  0  0  0  0  0  0  0  0  0  0  0
   -0.4150    0.0091    0.1273 N   0  0  0  0  0  0  0  0  0  0  0  0
    2.5538   -0.4182    0.5200 C   0  0  0  0  0  0  0  0  0  0  0  0
    3.8588   -0.5954    0.0338 C   0  0  0  0  0  0  0  0  0  0  0  0
    7.1794    1.1765   -0.1223 C   0  0  0  0  0  0  0  0  0  0  0  0
    8.1800    1.0168   -1.2960 C   0  0  0  0  0  0  0  0  0  0  0  0
   10.8476    1.4976   -2.2765 H   0  0  0  0  0  0  0  0  0  0  0  0
   12.1740    0.3900   -1.9166 H   0  0  0  0  0  0  0  0  0  0  0  0
   10.9602   -0.0571   -3.1232 H   0  0  0  0  0  0  0  0  0  0  0  0
   10.4520    0.2718   -0.1040 H   0  0  0  0  0  0  0  0  0  0  0  0
   10.6843   -1.2527   -0.9589 H   0  0  0  0  0  0  0  0  0  0  0  0
    8.4913   -1.2669    0.4442 H   0  0  0  0  0  0  0  0  0  0  0  0
    8.4610   -2.3118   -0.9810 H   0  0  0  0  0  0  0  0  0  0  0  0
    6.2813   -1.3132   -1.6857 H   0  0  0  0  0  0  0  0  0  0  0  0
    6.2235   -2.0317   -0.0611 H   0  0  0  0  0  0  0  0  0  0  0  0
    5.3500    1.9927    1.6074 H   0  0  0  0  0  0  0  0  0  0  0  0
    3.1016    2.3040    2.4467 H   0  0  0  0  0  0  0  0  0  0  0  0
    0.8655    1.7371    2.3636 H   0  0  0  0  0  0  0  0  0  0  0  0
   -1.2706    0.8203    3.2539 H   0  0  0  0  0  0  0  0  0  0  0  0
   -3.3498    1.2633    4.2298 H   0  0  0  0  0  0  0  0  0  0  0  0
   -2.8890   -0.4721    4.3541 H   0  0  0  0  0  0  0  0  0  0  0  0
   -4.5662    0.0164    4.5483 H   0  0  0  0  0  0  0  0  0  0  0  0
   -4.4779   -0.4871    0.2537 H   0  0  0  0  0  0  0  0  0  0  0  0
   -9.5431   -1.8300   -3.7808 H   0  0  0  0  0  0  0  0  0  0  0  0
   -9.8076   -2.9794   -2.4116 H   0  0  0  0  0  0  0  0  0  0  0  0
   -8.9438   -3.4901   -3.8663 H   0  0  0  0  0  0  0  0  0  0  0  0
   -9.8956   -0.6593   -1.8402 H   0  0  0  0  0  0  0  0  0  0  0  0
  -11.5148    0.7624   -1.1984 H   0  0  0  0  0  0  0  0  0  0  0  0
  -10.3329    1.8714   -1.9951 H   0  0  0  0  0  0  0  0  0  0  0  0
  -11.4222    2.4642   -0.7332 H   0  0  0  0  0  0  0  0  0  0  0  0
   -1.7285   -0.6716   -1.3120 H   0  0  0  0  0  0  0  0  0  0  0  0
    1.7950   -1.1364    0.2223 H   0  0  0  0  0  0  0  0  0  0  0  0
    4.0249   -1.4262   -0.6457 H   0  0  0  0  0  0  0  0  0  0  0  0
    7.7214    1.1870    0.8323 H   0  0  0  0  0  0  0  0  0  0  0  0
    6.6912    2.1512   -0.2458 H   0  0  0  0  0  0  0  0  0  0  0  0
    7.6188    1.1487   -2.2313 H   0  0  0  0  0  0  0  0  0  0  0  0
    8.8903    1.8506   -1.2572 H   0  0  0  0  0  0  0  0  0  0  0  0
  1  2  1  0
  2  3  1  0
  3  4  1  0
  4  5  1  0
  5  6  1  0
  6  7  1  0
  7  8  2  0
  8  9  1  0
  9 10  2  0
 10 11  1  0
 11 12  1  0
 12 13  2  0
 13 14  1  0
 14 15  1  0
 15 16  1  0
 15 17  1  0
 17 18  2  0
 17 19  1  0
 19 20  1  0
 20 21  2  0
 21 22  1  0
 21 23  1  0
 23 24  1  0
 24 25  1  0
 23 26  2  0
 26 27  1  0
 27 28  1  0
 28 29  1  0
 27 30  2  0
 30 31  1  0
 14 32  2  0
 32 33  1  0
 33 34  2  0
 10 35  1  0
 35 36  2  0
  6 37  1  0
 37 38  1  0
 38  3  1  0
 36  7  1  0
 34 12  1  0
 30 20  1  0
  1 39  1  0
  1 40  1  0
  1 41  1  0
  2 42  1  0
  2 43  1  0
  4 44  1  0
  4 45  1  0
  5 46  1  0
  5 47  1  0
  8 48  1  0
  9 49  1  0
 11 50  1  0
 13 51  1  0
 16 52  1  0
 16 53  1  0
 16 54  1  0
 19 55  1  0
 25 56  1  0
 25 57  1  0
 25 58  1  0
 26 59  1  0
 29 60  1  0
 29 61  1  0
 29 62  1  0
 33 63  1  0
 35 64  1  0
 36 65  1  0
 37 66  1  0
 37 67  1  0
 38 68  1  0
 38 69  1  0
M  END
$$$$
