
     RDKit          3D

 52 55  0  0  0  0  0  0  0  0999 V2000
   -4.6499    2.7770   -0.2422 C   0  0  0  0  0  0  0  0  0  0  0  0
   -5.5125    1.6774    0.2502 C   0  0  0  0  0  0  0  0  0  0  0  0
   -6.8349    1.7142    0.0379 N   0  0  0  0  0  0  0  0  0  0  0  0
   -7.3473    0.5734    0.6297 O   0  0  0  0  0  0  0  0  0  0  0  0
   -6.3350   -0.1491    1.1838 C   0  0  0  0  0  0  0  0  0  0  0  0
   -6.7206   -1.4010    1.8613 C   0  0  0  0  0  0  0  0  0  0  0  0
   -5.1526    0.5084    0.9531 C   0  0  0  0  0  0  0  0  0  0  0  0
   -3.5771    0.0420    1.3902 S   0  0  0  0  0  6  0  0  0  0  0  0
   -3.6941   -1.2793    1.9636 O   0  0  0  0  0  0  0  0  0  0  0  0
   -3.0555    1.1627    2.1369 O   0  0  0  0  0  0  0  0  0  0  0  0
   -2.6516   -0.1032   -0.0232 N   0  0  0  0  0  0  0  0  0  0  0  0
   -3.1225   -1.1253   -1.0209 C   0  0  0  0  0  0  0  0  0  0  0  0
   -1.8545   -1.7416   -1.5901 C   0  0  0  0  0  0  0  0  0  0  0  0
   -1.3774   -0.9970   -2.6143 F   0  0  0  0  0  0  0  0  0  0  0  0
   -2.0481   -2.9924   -2.0432 F   0  0  0  0  0  0  0  0  0  0  0  0
   -0.8923   -1.7057   -0.4333 C   0  0  0  0  0  0  0  0  0  0  0  0
   -1.1747   -0.3455    0.2136 C   0  0  1  0  0  0  0  0  0  0  0  0
   -0.3889    0.8346   -0.3795 C   0  0  0  0  0  0  0  0  0  0  0  0
    1.0440    0.6838   -0.2789 N   0  0  0  0  0  0  0  0  0  0  0  0
    1.9632    0.7432   -1.2772 C   0  0  0  0  0  0  0  0  0  0  0  0
    3.1733    0.5136   -0.6470 C   0  0  0  0  0  0  0  0  0  0  0  0
    4.4838    0.4916   -1.2985 C   0  0  0  0  0  0  0  0  0  0  0  0
    4.5831    0.7555   -2.4986 O   0  0  0  0  0  0  0  0  0  0  0  0
    5.6068    0.1754   -0.5494 N   0  0  0  0  0  0  0  0  0  0  0  0
    5.6727   -0.2399    0.8450 C   0  0  0  0  0  0  0  0  0  0  0  0
    7.1141   -0.6950    1.0408 C   0  0  0  0  0  0  0  0  0  0  0  0
    7.8824    0.1508    0.0352 C   0  0  0  0  0  0  0  0  0  0  0  0
    6.9287    0.2130   -1.1477 C   0  0  0  0  0  0  0  0  0  0  0  0
    2.9263    0.3296    0.6939 N   0  0  0  0  0  0  0  0  0  0  0  0
    1.6216    0.4328    0.9050 N   0  0  0  0  0  0  0  0  0  0  0  0
   -5.2306    3.5315   -0.7832 H   0  0  0  0  0  0  0  0  0  0  0  0
   -4.1496    3.2766    0.5930 H   0  0  0  0  0  0  0  0  0  0  0  0
   -3.8865    2.3924   -0.9254 H   0  0  0  0  0  0  0  0  0  0  0  0
   -6.3724   -1.4014    2.8987 H   0  0  0  0  0  0  0  0  0  0  0  0
   -6.2877   -2.2644    1.3470 H   0  0  0  0  0  0  0  0  0  0  0  0
   -7.8079   -1.5282    1.8735 H   0  0  0  0  0  0  0  0  0  0  0  0
   -3.7376   -1.8972   -0.5485 H   0  0  0  0  0  0  0  0  0  0  0  0
   -3.7071   -0.6263   -1.7991 H   0  0  0  0  0  0  0  0  0  0  0  0
    0.1461   -1.8328   -0.7496 H   0  0  0  0  0  0  0  0  0  0  0  0
   -1.1281   -2.5143    0.2694 H   0  0  0  0  0  0  0  0  0  0  0  0
   -0.9563   -0.4191    1.2859 H   0  0  0  0  0  0  0  0  0  0  0  0
   -0.6454    1.7621    0.1470 H   0  0  0  0  0  0  0  0  0  0  0  0
   -0.6382    0.9910   -1.4350 H   0  0  0  0  0  0  0  0  0  0  0  0
    1.7153    0.9366   -2.3113 H   0  0  0  0  0  0  0  0  0  0  0  0
    5.4440    0.6278    1.4724 H   0  0  0  0  0  0  0  0  0  0  0  0
    4.9656   -1.0480    1.0501 H   0  0  0  0  0  0  0  0  0  0  0  0
    7.4619   -0.5617    2.0688 H   0  0  0  0  0  0  0  0  0  0  0  0
    7.2104   -1.7562    0.7808 H   0  0  0  0  0  0  0  0  0  0  0  0
    8.8549   -0.2734   -0.2284 H   0  0  0  0  0  0  0  0  0  0  0  0
    8.0429    1.1563    0.4426 H   0  0  0  0  0  0  0  0  0  0  0  0
    7.0643    1.1134   -1.7544 H   0  0  0  0  0  0  0  0  0  0  0  0
    7.0315   -0.6685   -1.7904 H   0  0  0  0  0  0  0  0  0  0  0  0
  1  2  1  0
  2  3  2  0
  3  4  1  0
  4  5  1  0
  5  6  1  0
  5  7  2  0
  7  8  1  0
  8  9  2  0
  8 10  2  0
  8 11  1  0
 11 12  1  0
 12 13  1  0
 13 14  1  0
 13 15  1  0
 13 16  1  0
 16 17  1  0
 17 18  1  0
 18 19  1  0
 19 20  1  0
 20 21  2  0
 21 22  1  0
 22 23  2  0
 22 24  1  0
 24 25  1  0
 25 26  1  0
 26 27  1  0
 27 28  1  0
 21 29  1  0
 29 30  2  0
  7  2  1  0
 17 11  1  0
 30 19  1  0
 28 24  1  0
  1 31  1  0
  1 32  1  0
  1 33  1  0
  6 34  1  0
  6 35  1  0
  6 36  1  0
 12 37  1  0
 12 38  1  0
 16 39  1  0
 16 40  1  0
 17 41  1  1
 18 42  1  0
 18 43  1  0
 20 44  1  0
 25 45  1  0
 25 46  1  0
 26 47  1  0
 26 48  1  0
 27 49  1  0
 27 50  1  0
 28 51  1  0
 28 52  1  0
M  END
$$$$
