
     RDKit          3D

 35 36  0  0  0  0  0  0  0  0999 V2000
    4.3947    2.5497   -1.2835 C   0  0  0  0  0  0  0  0  0  0  0  0
    3.0506    2.1541   -1.0404 O   0  0  0  0  0  0  0  0  0  0  0  0
    2.8628    0.9445   -0.4293 C   0  0  0  0  0  0  0  0  0  0  0  0
    3.8624    0.0860    0.0087 C   0  0  0  0  0  0  0  0  0  0  0  0
    3.5205   -1.1239    0.6163 C   0  0  0  0  0  0  0  0  0  0  0  0
    2.1785   -1.4937    0.7990 C   0  0  0  0  0  0  0  0  0  0  0  0
    1.8687   -2.7180    1.4036 C   0  0  0  0  0  0  0  0  0  0  0  0
    0.5463   -3.1065    1.5839 C   0  0  0  0  0  0  0  0  0  0  0  0
   -0.4880   -2.2715    1.1703 C   0  0  0  0  0  0  0  0  0  0  0  0
   -0.2211   -1.0267    0.5732 C   0  0  0  0  0  0  0  0  0  0  0  0
   -1.3536   -0.1125    0.1262 C   0  0  0  0  0  0  0  0  0  0  0  0
   -2.7797   -0.4949    0.5437 C   0  0  0  0  0  0  0  0  0  0  0  0
   -3.7486    0.5215    0.1717 N   0  0  0  0  0  0  0  0  0  0  0  0
   -4.2639    0.5957   -1.1017 C   0  0  0  0  0  0  0  0  0  0  0  0
   -5.1958    1.7564   -1.3235 C   0  0  0  0  0  0  0  0  0  0  0  0
   -3.9876   -0.1975   -1.9950 O   0  0  0  0  0  0  0  0  0  0  0  0
    1.1382   -0.6325    0.3691 C   0  0  0  0  0  0  0  0  0  0  0  0
    1.5225    0.5823   -0.2485 C   0  0  0  0  0  0  0  0  0  0  0  0
    4.9441    2.6766   -0.3448 H   0  0  0  0  0  0  0  0  0  0  0  0
    4.3712    3.5200   -1.7888 H   0  0  0  0  0  0  0  0  0  0  0  0
    4.9018    1.8411   -1.9467 H   0  0  0  0  0  0  0  0  0  0  0  0
    4.9147    0.3208   -0.1066 H   0  0  0  0  0  0  0  0  0  0  0  0
    4.3204   -1.7834    0.9471 H   0  0  0  0  0  0  0  0  0  0  0  0
    2.6601   -3.3873    1.7340 H   0  0  0  0  0  0  0  0  0  0  0  0
    0.3201   -4.0647    2.0446 H   0  0  0  0  0  0  0  0  0  0  0  0
   -1.5050   -2.6224    1.3228 H   0  0  0  0  0  0  0  0  0  0  0  0
   -1.1602    0.8891    0.5325 H   0  0  0  0  0  0  0  0  0  0  0  0
   -1.3152   -0.0350   -0.9679 H   0  0  0  0  0  0  0  0  0  0  0  0
   -3.0766   -1.4426    0.0802 H   0  0  0  0  0  0  0  0  0  0  0  0
   -2.8491   -0.6069    1.6312 H   0  0  0  0  0  0  0  0  0  0  0  0
   -3.9149    1.2825    0.8173 H   0  0  0  0  0  0  0  0  0  0  0  0
   -5.5158    2.2038   -0.3784 H   0  0  0  0  0  0  0  0  0  0  0  0
   -6.0856    1.4044   -1.8529 H   0  0  0  0  0  0  0  0  0  0  0  0
   -4.6856    2.5152   -1.9224 H   0  0  0  0  0  0  0  0  0  0  0  0
    0.7688    1.2764   -0.6127 H   0  0  0  0  0  0  0  0  0  0  0  0
  1  2  1  0
  2  3  1  0
  3  4  2  0
  4  5  1  0
  5  6  2  0
  6  7  1  0
  7  8  2  0
  8  9  1  0
  9 10  2  0
 10 11  1  0
 11 12  1  0
 12 13  1  0
 13 14  1  0
 14 15  1  0
 14 16  2  0
 10 17  1  0
 17 18  2  0
 18  3  1  0
 17  6  1  0
  1 19  1  0
  1 20  1  0
  1 21  1  0
  4 22  1  0
  5 23  1  0
  7 24  1  0
  8 25  1  0
  9 26  1  0
 11 27  1  0
 11 28  1  0
 12 29  1  0
 12 30  1  0
 13 31  1  0
 15 32  1  0
 15 33  1  0
 15 34  1  0
 18 35  1  0
M  END
$$$$
