
     RDKit          3D

 68 71  0  0  0  0  0  0  0  0999 V2000
    4.0531   -0.7552    1.5469 C   0  0  0  0  0  0  0  0  0  0  0  0
    4.0141   -0.1760    0.1295 C   0  0  2  0  0  0  0  0  0  0  0  0
    5.1834    0.8209   -0.1008 C   0  0  0  0  0  0  0  0  0  0  0  0
    6.5923    0.3127    0.1853 C   0  0  0  0  0  0  0  0  0  0  0  0
    6.9922   -0.8079   -0.7255 C   0  0  0  0  0  0  0  0  0  0  0  0
    6.9670   -1.9960   -0.4641 O   0  0  0  0  0  0  0  0  0  0  0  0
    7.4029   -0.3731   -1.9329 O   0  0  0  0  0  0  0  0  0  0  0  0
    2.6676    0.5431   -0.1794 C   0  0  1  0  0  0  0  0  0  0  0  0
    2.5855    0.9922   -1.6652 C   0  0  0  0  0  0  0  0  0  0  0  0
    1.0984    1.1147   -2.0142 C   0  0  0  0  0  0  0  0  0  0  0  0
    0.3770    0.8000   -0.7074 C   0  0  1  0  0  0  0  0  0  0  0  0
   -1.0825    0.3500   -0.8070 C   0  0  2  0  0  0  0  0  0  0  0  0
   -1.9226    1.4461   -1.4969 C   0  0  0  0  0  0  0  0  0  0  0  0
   -3.3902    1.4668   -1.0623 C   0  0  0  0  0  0  0  0  0  0  0  0
   -3.8766    0.0510   -0.7488 C   0  0  2  0  0  0  0  0  0  0  0  0
   -5.4146   -0.0403   -0.6882 C   0  0  0  0  0  0  0  0  0  0  0  0
   -6.0233    0.4011    0.6369 C   0  0  2  0  0  0  0  0  0  0  0  0
   -5.8600    1.8066    0.8005 O   0  0  0  0  0  0  0  0  0  0  0  0
   -5.3848   -0.3454    1.7999 C   0  0  0  0  0  0  0  0  0  0  0  0
   -3.8738   -0.1629    1.8335 C   0  0  0  0  0  0  0  0  0  0  0  0
   -3.1383   -0.5290    0.5110 C   0  0  1  0  0  0  0  0  0  0  0  0
   -3.1354   -2.0699    0.3608 C   0  0  0  0  0  0  0  0  0  0  0  0
   -1.6578    0.0481    0.5997 C   0  0  1  0  0  0  0  0  0  0  0  0
   -0.7024   -0.7572    1.5276 C   0  0  0  0  0  0  0  0  0  0  0  0
    0.7728   -0.3099    1.4759 C   0  0  2  0  0  0  0  0  0  0  0  0
    0.8798    0.9455    2.1580 O   0  0  0  0  0  0  0  0  0  0  0  0
    1.3031   -0.1976    0.0292 C   0  0  2  0  0  0  0  0  0  0  0  0
    1.3281   -1.6012   -0.6283 C   0  0  0  0  0  0  0  0  0  0  0  0
    3.8033    0.0011    2.3012 H   0  0  0  0  0  0  0  0  0  0  0  0
    5.0367   -1.1690    1.7968 H   0  0  0  0  0  0  0  0  0  0  0  0
    3.3588   -1.5953    1.6499 H   0  0  0  0  0  0  0  0  0  0  0  0
    4.1429   -1.0077   -0.5743 H   0  0  0  0  0  0  0  0  0  0  0  0
    5.0166    1.7157    0.5103 H   0  0  0  0  0  0  0  0  0  0  0  0
    5.1621    1.1507   -1.1450 H   0  0  0  0  0  0  0  0  0  0  0  0
    7.3184    1.1252    0.0478 H   0  0  0  0  0  0  0  0  0  0  0  0
    6.7212   -0.0056    1.2221 H   0  0  0  0  0  0  0  0  0  0  0  0
    7.6348   -1.1912   -2.4156 H   0  0  0  0  0  0  0  0  0  0  0  0
    2.6492    1.4589    0.4314 H   0  0  0  0  0  0  0  0  0  0  0  0
    3.0976    1.9436   -1.8236 H   0  0  0  0  0  0  0  0  0  0  0  0
    3.0482    0.2550   -2.3274 H   0  0  0  0  0  0  0  0  0  0  0  0
    0.8665    2.1256   -2.3666 H   0  0  0  0  0  0  0  0  0  0  0  0
    0.8277    0.4175   -2.8145 H   0  0  0  0  0  0  0  0  0  0  0  0
    0.3828    1.7453   -0.1368 H   0  0  0  0  0  0  0  0  0  0  0  0
   -1.1350   -0.5599   -1.4158 H   0  0  0  0  0  0  0  0  0  0  0  0
   -1.5058    2.4394   -1.2929 H   0  0  0  0  0  0  0  0  0  0  0  0
   -1.8597    1.3063   -2.5813 H   0  0  0  0  0  0  0  0  0  0  0  0
   -3.9861    1.9355   -1.8566 H   0  0  0  0  0  0  0  0  0  0  0  0
   -3.4964    2.1059   -0.1768 H   0  0  0  0  0  0  0  0  0  0  0  0
   -3.5916   -0.5592   -1.6186 H   0  0  0  0  0  0  0  0  0  0  0  0
   -5.7042   -1.0828   -0.8710 H   0  0  0  0  0  0  0  0  0  0  0  0
   -5.8495    0.5445   -1.5071 H   0  0  0  0  0  0  0  0  0  0  0  0
   -7.0965    0.1984    0.6232 H   0  0  0  0  0  0  0  0  0  0  0  0
   -6.1669    2.0372    1.6903 H   0  0  0  0  0  0  0  0  0  0  0  0
   -5.6299   -1.4119    1.7295 H   0  0  0  0  0  0  0  0  0  0  0  0
   -5.8104    0.0152    2.7483 H   0  0  0  0  0  0  0  0  0  0  0  0
   -3.4761   -0.7724    2.6462 H   0  0  0  0  0  0  0  0  0  0  0  0
   -3.6567    0.8720    2.1047 H   0  0  0  0  0  0  0  0  0  0  0  0
   -2.8164   -2.5802    1.2737 H   0  0  0  0  0  0  0  0  0  0  0  0
   -4.1306   -2.4573    0.1266 H   0  0  0  0  0  0  0  0  0  0  0  0
   -2.4658   -2.3801   -0.4482 H   0  0  0  0  0  0  0  0  0  0  0  0
   -1.7351    1.0359    1.0831 H   0  0  0  0  0  0  0  0  0  0  0  0
   -0.7577   -1.8372    1.3434 H   0  0  0  0  0  0  0  0  0  0  0  0
   -1.0505   -0.6133    2.5659 H   0  0  0  0  0  0  0  0  0  0  0  0
    1.3684   -1.0231    2.0534 H   0  0  0  0  0  0  0  0  0  0  0  0
    0.7186    0.7561    3.1007 H   0  0  0  0  0  0  0  0  0  0  0  0
    2.0595   -2.2488   -0.1330 H   0  0  0  0  0  0  0  0  0  0  0  0
    0.3589   -2.1057   -0.5697 H   0  0  0  0  0  0  0  0  0  0  0  0
    1.5939   -1.5618   -1.6880 H   0  0  0  0  0  0  0  0  0  0  0  0
  1  2  1  0
  2  3  1  0
  3  4  1  0
  4  5  1  0
  5  6  2  0
  5  7  1  0
  2  8  1  0
  8  9  1  0
  9 10  1  0
 10 11  1  0
 11 12  1  0
 12 13  1  0
 13 14  1  0
 14 15  1  0
 15 16  1  0
 16 17  1  0
 17 18  1  0
 17 19  1  0
 19 20  1  0
 20 21  1  0
 21 22  1  6
 21 23  1  0
 23 24  1  0
 24 25  1  0
 25 26  1  0
 25 27  1  0
 27 28  1  6
 27  8  1  0
 27 11  1  0
 23 12  1  0
 21 15  1  0
  1 29  1  0
  1 30  1  0
  1 31  1  0
  2 32  1  6
  3 33  1  0
  3 34  1  0
  4 35  1  0
  4 36  1  0
  7 37  1  0
  8 38  1  1
  9 39  1  0
  9 40  1  0
 10 41  1  0
 10 42  1  0
 11 43  1  1
 12 44  1  6
 13 45  1  0
 13 46  1  0
 14 47  1  0
 14 48  1  0
 15 49  1  6
 16 50  1  0
 16 51  1  0
 17 52  1  6
 18 53  1  0
 19 54  1  0
 19 55  1  0
 20 56  1  0
 20 57  1  0
 22 58  1  0
 22 59  1  0
 22 60  1  0
 23 61  1  1
 24 62  1  0
 24 63  1  0
 25 64  1  1
 26 65  1  0
 28 66  1  0
 28 67  1  0
 28 68  1  0
M  END
$$$$
