
     RDKit          3D

 53 55  0  0  0  0  0  0  0  0999 V2000
    0.6908    0.0000    0.0000 Cl  0  0  0  0  0  0  0  0  0  0  0  0
    0.6864    0.0000    0.0000 Cl  0  0  0  0  0  0  0  0  0  0  0  0
   -5.7275   -0.9612   -0.5743 N   0  0  0  0  0  0  0  0  0  0  0  0
   -4.6855   -1.9042   -0.3608 C   0  0  0  0  0  0  0  0  0  0  0  0
   -5.0154   -3.2210   -0.3101 N   0  0  0  0  0  0  0  0  0  0  0  0
   -4.0914   -4.1709   -0.1540 C   0  0  0  0  0  0  0  0  0  0  0  0
   -2.7974   -3.8434   -0.0424 N   0  0  0  0  0  0  0  0  0  0  0  0
   -2.3965   -2.5673   -0.0828 C   0  0  0  0  0  0  0  0  0  0  0  0
   -1.0983   -2.2451    0.0122 N   0  0  0  0  0  0  0  0  0  0  0  0
   -0.6709   -0.9743   -0.0415 C   0  0  0  0  0  0  0  0  0  0  0  0
    0.7768   -0.6878    0.0681 C   0  0  0  0  0  0  0  0  0  0  0  0
    1.2602    0.5911    0.0188 C   0  0  0  0  0  0  0  0  0  0  0  0
    2.6325    0.8456    0.1239 C   0  0  0  0  0  0  0  0  0  0  0  0
    3.5211   -0.2040    0.2802 C   0  0  0  0  0  0  0  0  0  0  0  0
    4.9071    0.0475    0.3862 N   0  0  0  0  0  0  0  0  0  0  0  0
    5.3966    1.3975    0.3150 C   0  0  0  0  0  0  0  0  0  0  0  0
    6.8743    1.4839    0.1235 C   0  0  0  0  0  0  0  0  0  0  0  0
    7.6315    0.5990    0.8378 O   0  0  0  0  0  0  0  0  0  0  0  0
    6.9699   -0.4347    1.4415 C   0  0  0  0  0  0  0  0  0  0  0  0
    5.8556   -1.0217    0.5673 C   0  0  0  0  0  0  0  0  0  0  0  0
    3.0027   -1.4500    0.3240 N   0  0  0  0  0  0  0  0  0  0  0  0
    1.6831   -1.7087    0.2239 C   0  0  0  0  0  0  0  0  0  0  0  0
   -1.5897    0.0109   -0.1958 C   0  0  0  0  0  0  0  0  0  0  0  0
   -2.9648   -0.2455   -0.3014 C   0  0  0  0  0  0  0  0  0  0  0  0
   -3.8734    0.8639   -0.3834 C   0  0  0  0  0  0  0  0  0  0  0  0
   -4.6970    1.1915    0.6457 C   0  0  0  0  0  0  0  0  0  0  0  0
   -5.5316    2.2743    0.5553 C   0  0  0  0  0  0  0  0  0  0  0  0
   -5.5261    3.0307   -0.5962 C   0  0  0  0  0  0  0  0  0  0  0  0
   -4.7070    2.7351   -1.6653 C   0  0  0  0  0  0  0  0  0  0  0  0
   -4.7061    3.7953   -3.2672 Br  0  0  0  0  0  0  0  0  0  0  0  0
   -3.8869    1.6356   -1.5230 C   0  0  0  0  0  0  0  0  0  0  0  0
   -3.3674   -1.5533   -0.2461 C   0  0  0  0  0  0  0  0  0  0  0  0
   -0.6908    0.0000    0.0000 H   0  0  0  0  0  0  0  0  0  0  0  0
   -0.6864    0.0000    0.0000 H   0  0  0  0  0  0  0  0  0  0  0  0
   -6.4755   -0.8385    0.1451 H   0  0  0  0  0  0  0  0  0  0  0  0
   -5.7767   -0.4099   -1.4427 H   0  0  0  0  0  0  0  0  0  0  0  0
   -4.3742   -5.2333   -0.1145 H   0  0  0  0  0  0  0  0  0  0  0  0
    0.6322    1.4540   -0.1005 H   0  0  0  0  0  0  0  0  0  0  0  0
    3.0068    1.8561    0.0847 H   0  0  0  0  0  0  0  0  0  0  0  0
    4.9314    1.9091   -0.5728 H   0  0  0  0  0  0  0  0  0  0  0  0
    5.0516    1.9692    1.1989 H   0  0  0  0  0  0  0  0  0  0  0  0
    7.0821    1.3581   -0.9632 H   0  0  0  0  0  0  0  0  0  0  0  0
    7.1837    2.5202    0.4499 H   0  0  0  0  0  0  0  0  0  0  0  0
    6.4936   -0.1722    2.4036 H   0  0  0  0  0  0  0  0  0  0  0  0
    7.7369   -1.2258    1.6758 H   0  0  0  0  0  0  0  0  0  0  0  0
    5.4350   -1.8811    1.1067 H   0  0  0  0  0  0  0  0  0  0  0  0
    6.2760   -1.3903   -0.3871 H   0  0  0  0  0  0  0  0  0  0  0  0
    1.2776   -2.7150    0.2605 H   0  0  0  0  0  0  0  0  0  0  0  0
   -1.3107    1.0441   -0.2456 H   0  0  0  0  0  0  0  0  0  0  0  0
   -4.7123    0.5977    1.5702 H   0  0  0  0  0  0  0  0  0  0  0  0
   -6.2073    2.5521    1.3861 H   0  0  0  0  0  0  0  0  0  0  0  0
   -6.1880    3.8852   -0.6615 H   0  0  0  0  0  0  0  0  0  0  0  0
   -3.2408    1.4116   -2.3803 H   0  0  0  0  0  0  0  0  0  0  0  0
  3  4  1  0
  4  5  2  0
  5  6  1  0
  6  7  2  0
  7  8  1  0
  8  9  2  0
  9 10  1  0
 10 11  1  0
 11 12  2  0
 12 13  1  0
 13 14  2  0
 14 15  1  0
 15 16  1  0
 16 17  1  0
 17 18  1  0
 18 19  1  0
 19 20  1  0
 14 21  1  0
 21 22  2  0
 10 23  2  0
 23 24  1  0
 24 25  1  0
 25 26  2  0
 26 27  1  0
 27 28  2  0
 28 29  1  0
 29 30  1  0
 29 31  2  0
 24 32  2  0
 32  4  1  0
 32  8  1  0
 22 11  1  0
 31 25  1  0
 20 15  1  0
  1 33  1  0
  2 34  1  0
  3 35  1  0
  3 36  1  0
  6 37  1  0
 12 38  1  0
 13 39  1  0
 16 40  1  0
 16 41  1  0
 17 42  1  0
 17 43  1  0
 19 44  1  0
 19 45  1  0
 20 46  1  0
 20 47  1  0
 22 48  1  0
 23 49  1  0
 26 50  1  0
 27 51  1  0
 28 52  1  0
 31 53  1  0
M  END
$$$$
