
     RDKit          3D

 41 44  0  0  0  0  0  0  0  0999 V2000
    0.4792   -1.8791   -1.7330 O   0  0  0  0  0  0  0  0  0  0  0  0
    0.1492   -1.2985   -0.7027 C   0  0  0  0  0  0  0  0  0  0  0  0
   -1.2806   -1.2354   -0.2054 C   0  0  0  0  0  0  0  0  0  0  0  0
   -2.2821   -1.4709   -1.3386 C   0  0  1  0  0  0  0  0  0  0  0  0
   -3.5669   -1.9578   -0.8650 N   0  0  0  0  0  0  0  0  0  0  0  0
   -4.3939   -1.3820    0.0494 C   0  0  0  0  0  0  0  0  0  0  0  0
   -5.2085   -2.1001    0.6253 O   0  0  0  0  0  0  0  0  0  0  0  0
   -4.3318    0.0701    0.3452 C   0  0  0  0  0  0  0  0  0  0  0  0
   -4.9631    0.4622    1.5453 C   0  0  0  0  0  0  0  0  0  0  0  0
   -5.1010    1.8058    1.8901 C   0  0  0  0  0  0  0  0  0  0  0  0
   -4.6283    2.7831    1.0279 C   0  0  0  0  0  0  0  0  0  0  0  0
   -4.0044    2.4111   -0.1638 C   0  0  0  0  0  0  0  0  0  0  0  0
   -3.8236    1.0576   -0.5106 C   0  0  0  0  0  0  0  0  0  0  0  0
   -3.1390    0.8567   -1.7194 N   0  0  0  0  0  0  0  0  0  0  0  0
   -2.4594   -0.2229   -2.1947 C   0  0  0  0  0  0  0  0  0  0  0  0
   -1.8602   -0.0925   -3.2656 O   0  0  0  0  0  0  0  0  0  0  0  0
    1.0394   -0.6851    0.1515 N   0  0  0  0  0  0  0  0  0  0  0  0
    2.3815   -0.6327   -0.1221 C   0  0  0  0  0  0  0  0  0  0  0  0
    3.2860   -0.0725    0.6407 N   0  0  0  0  0  0  0  0  0  0  0  0
    4.4582   -0.2770   -0.0522 C   0  0  0  0  0  0  0  0  0  0  0  0
    5.8488    0.2227    0.4689 C   0  0  0  0  0  0  0  0  0  0  0  0
    7.0386    0.0335   -0.2016 C   0  0  0  0  0  0  0  0  0  0  0  0
    8.1450    0.5919    0.5044 C   0  0  0  0  0  0  0  0  0  0  0  0
    7.7550    1.1850    1.6854 C   0  0  0  0  0  0  0  0  0  0  0  0
    6.0649    1.0661    1.9355 S   0  0  0  0  0  0  0  0  0  0  0  0
    4.3134   -0.9391   -1.2105 N   0  0  0  0  0  0  0  0  0  0  0  0
    2.9871   -1.1516   -1.2330 N   0  0  0  0  0  0  0  0  0  0  0  0
   -1.4418   -0.2711    0.2877 H   0  0  0  0  0  0  0  0  0  0  0  0
   -1.3821   -2.0176    0.5575 H   0  0  0  0  0  0  0  0  0  0  0  0
   -1.9302   -2.2630   -2.0109 H   0  0  0  0  0  0  0  0  0  0  0  0
   -3.7259   -2.9574   -0.9316 H   0  0  0  0  0  0  0  0  0  0  0  0
   -5.3795   -0.2909    2.2149 H   0  0  0  0  0  0  0  0  0  0  0  0
   -5.5973    2.0828    2.8171 H   0  0  0  0  0  0  0  0  0  0  0  0
   -4.7456    3.8350    1.2778 H   0  0  0  0  0  0  0  0  0  0  0  0
   -3.6386    3.2040   -0.8145 H   0  0  0  0  0  0  0  0  0  0  0  0
   -3.0206    1.6589   -2.3297 H   0  0  0  0  0  0  0  0  0  0  0  0
    0.7518   -0.2473    1.0173 H   0  0  0  0  0  0  0  0  0  0  0  0
    7.1101   -0.4812   -1.1527 H   0  0  0  0  0  0  0  0  0  0  0  0
    9.1722    0.5593    0.1625 H   0  0  0  0  0  0  0  0  0  0  0  0
    8.3781    1.6831    2.4155 H   0  0  0  0  0  0  0  0  0  0  0  0
    2.5457   -1.6434   -2.0054 H   0  0  0  0  0  0  0  0  0  0  0  0
  1  2  2  0
  2  3  1  0
  3  4  1  0
  4  5  1  0
  5  6  1  0
  6  7  2  0
  6  8  1  0
  8  9  2  0
  9 10  1  0
 10 11  2  0
 11 12  1  0
 12 13  2  0
 13 14  1  0
 14 15  1  0
 15 16  2  0
  2 17  1  0
 17 18  1  0
 18 19  2  0
 19 20  1  0
 20 21  1  0
 21 22  2  0
 22 23  1  0
 23 24  2  0
 24 25  1  0
 20 26  2  0
 26 27  1  0
 15  4  1  0
 27 18  1  0
 13  8  1  0
 25 21  1  0
  3 28  1  0
  3 29  1  0
  4 30  1  6
  5 31  1  0
  9 32  1  0
 10 33  1  0
 11 34  1  0
 12 35  1  0
 14 36  1  0
 17 37  1  0
 22 38  1  0
 23 39  1  0
 24 40  1  0
 27 41  1  0
M  END
$$$$
