
     RDKit          3D

 38 39  0  0  0  0  0  0  0  0999 V2000
   -4.3171    0.6647    0.0289 C   0  0  0  0  0  0  0  0  0  0  0  0
   -3.2478    1.2125   -0.9231 C   0  0  0  0  0  0  0  0  0  0  0  0
   -3.8861    2.0589   -2.0278 C   0  0  0  0  0  0  0  0  0  0  0  0
   -2.3871    0.1081   -1.5164 C   0  0  0  0  0  0  0  0  0  0  0  0
   -2.9726   -0.9608   -2.2182 C   0  0  0  0  0  0  0  0  0  0  0  0
   -2.1853   -1.9641   -2.7923 C   0  0  0  0  0  0  0  0  0  0  0  0
   -0.7967   -1.9097   -2.6904 C   0  0  0  0  0  0  0  0  0  0  0  0
   -0.1963   -0.8548   -2.0094 C   0  0  0  0  0  0  0  0  0  0  0  0
   -0.9870    0.1317   -1.4082 C   0  0  0  0  0  0  0  0  0  0  0  0
   -0.3750    1.1713   -0.7569 O   0  0  0  0  0  0  0  0  0  0  0  0
    0.1393    0.7619    0.5057 C   0  0  0  0  0  0  0  0  0  0  0  0
    1.6584    0.5297    0.5406 C   0  0  0  0  0  0  0  0  0  0  0  0
    2.3838    0.7616   -0.4214 O   0  0  0  0  0  0  0  0  0  0  0  0
    2.0766    0.0397    1.7732 N   0  0  0  0  0  0  0  0  0  0  0  0
    3.3955   -0.2827    2.1621 C   0  0  0  0  0  0  0  0  0  0  0  0
    4.5168   -0.1579    1.3468 C   0  0  0  0  0  0  0  0  0  0  0  0
    5.7763   -0.5057    1.8388 C   0  0  0  0  0  0  0  0  0  0  0  0
    5.8752   -0.9703    3.1389 C   0  0  0  0  0  0  0  0  0  0  0  0
    4.8170   -1.1081    3.9638 N   0  0  0  0  0  0  0  0  0  0  0  0
    3.6099   -0.7625    3.4554 C   0  0  0  0  0  0  0  0  0  0  0  0
   -5.0617    0.0498   -0.4934 H   0  0  0  0  0  0  0  0  0  0  0  0
   -3.8652    0.0494    0.8147 H   0  0  0  0  0  0  0  0  0  0  0  0
   -4.8508    1.4864    0.5127 H   0  0  0  0  0  0  0  0  0  0  0  0
   -2.6199    1.8844   -0.3258 H   0  0  0  0  0  0  0  0  0  0  0  0
   -4.5767    1.4736   -2.6463 H   0  0  0  0  0  0  0  0  0  0  0  0
   -3.1205    2.4758   -2.6900 H   0  0  0  0  0  0  0  0  0  0  0  0
   -4.4492    2.8940   -1.5968 H   0  0  0  0  0  0  0  0  0  0  0  0
   -4.0550   -1.0175   -2.3356 H   0  0  0  0  0  0  0  0  0  0  0  0
   -2.6578   -2.7799   -3.3335 H   0  0  0  0  0  0  0  0  0  0  0  0
   -0.1800   -2.6772   -3.1571 H   0  0  0  0  0  0  0  0  0  0  0  0
    0.8897   -0.7924   -1.9706 H   0  0  0  0  0  0  0  0  0  0  0  0
   -0.3723   -0.1313    0.8909 H   0  0  0  0  0  0  0  0  0  0  0  0
   -0.0708    1.5769    1.2086 H   0  0  0  0  0  0  0  0  0  0  0  0
    1.3618   -0.1039    2.4769 H   0  0  0  0  0  0  0  0  0  0  0  0
    4.4519    0.2048    0.3255 H   0  0  0  0  0  0  0  0  0  0  0  0
    6.6569   -0.4146    1.2133 H   0  0  0  0  0  0  0  0  0  0  0  0
    6.8341   -1.2517    3.5611 H   0  0  0  0  0  0  0  0  0  0  0  0
    2.7879   -0.8902    4.1543 H   0  0  0  0  0  0  0  0  0  0  0  0
  1  2  1  0
  2  3  1  0
  2  4  1  0
  4  5  2  0
  5  6  1  0
  6  7  2  0
  7  8  1  0
  8  9  2  0
  9 10  1  0
 10 11  1  0
 11 12  1  0
 12 13  2  0
 12 14  1  0
 14 15  1  0
 15 16  2  0
 16 17  1  0
 17 18  2  0
 18 19  1  0
 19 20  2  0
  9  4  1  0
 20 15  1  0
  1 21  1  0
  1 22  1  0
  1 23  1  0
  2 24  1  0
  3 25  1  0
  3 26  1  0
  3 27  1  0
  5 28  1  0
  6 29  1  0
  7 30  1  0
  8 31  1  0
 11 32  1  0
 11 33  1  0
 14 34  1  0
 16 35  1  0
 17 36  1  0
 18 37  1  0
 20 38  1  0
M  END
$$$$
