
     RDKit          3D

 53 56  0  0  0  0  0  0  0  0999 V2000
    6.6284   -0.9768   -1.8399 C   0  0  0  0  0  0  0  0  0  0  0  0
    5.4733   -0.1693   -1.6602 O   0  0  0  0  0  0  0  0  0  0  0  0
    4.5838   -0.5542   -0.6948 C   0  0  0  0  0  0  0  0  0  0  0  0
    4.6253   -1.7595    0.0036 C   0  0  0  0  0  0  0  0  0  0  0  0
    3.6459   -2.0439    0.9585 C   0  0  0  0  0  0  0  0  0  0  0  0
    2.6342   -1.1170    1.1918 C   0  0  0  0  0  0  0  0  0  0  0  0
    1.5402   -1.4093    2.1995 C   0  0  0  0  0  0  0  0  0  0  0  0
    0.2233   -1.2768    1.6092 N   0  0  0  0  0  0  0  0  0  0  0  0
   -0.4799   -0.1032    1.7213 C   0  0  0  0  0  0  0  0  0  0  0  0
   -0.2436    0.7486    2.5742 O   0  0  0  0  0  0  0  0  0  0  0  0
   -1.6267    0.1134    0.8038 C   0  0  0  0  0  0  0  0  0  0  0  0
   -2.7479    0.7555    1.3636 C   0  0  0  0  0  0  0  0  0  0  0  0
   -3.8614    1.0890    0.5855 C   0  0  0  0  0  0  0  0  0  0  0  0
   -5.0405    1.7515    1.1553 C   0  0  0  0  0  0  0  0  0  0  0  0
   -4.9294    2.8796    1.9747 C   0  0  0  0  0  0  0  0  0  0  0  0
   -5.9757    3.5395    2.5303 N   0  0  0  0  0  0  0  0  0  0  0  0
   -7.2087    3.0529    2.2620 C   0  0  0  0  0  0  0  0  0  0  0  0
   -7.4364    1.9434    1.4658 C   0  0  0  0  0  0  0  0  0  0  0  0
   -9.0312    1.3819    1.1717 Cl  0  0  0  0  0  0  0  0  0  0  0  0
   -6.3415    1.2879    0.9074 C   0  0  0  0  0  0  0  0  0  0  0  0
   -3.7758    0.7643   -0.7639 C   0  0  0  0  0  0  0  0  0  0  0  0
   -2.7130    0.1609   -1.3476 N   0  0  0  0  0  0  0  0  0  0  0  0
   -1.6427   -0.1728   -0.5629 C   0  0  0  0  0  0  0  0  0  0  0  0
   -0.5470   -0.8106   -1.3115 C   0  0  0  0  0  0  0  0  0  0  0  0
    0.0983   -0.1487   -2.3543 C   0  0  0  0  0  0  0  0  0  0  0  0
    1.1011   -0.8077   -3.0605 C   0  0  0  0  0  0  0  0  0  0  0  0
    1.4200   -2.1153   -2.7263 C   0  0  0  0  0  0  0  0  0  0  0  0
    0.7280   -2.7108   -1.6869 C   0  0  0  0  0  0  0  0  0  0  0  0
   -0.2379   -2.0939   -0.9651 N   0  0  0  0  0  0  0  0  0  0  0  0
    2.5812    0.0660    0.5331 N   0  0  0  0  0  0  0  0  0  0  0  0
    3.5429    0.3256   -0.3841 C   0  0  0  0  0  0  0  0  0  0  0  0
    3.4908    1.5244   -1.0741 O   0  0  0  0  0  0  0  0  0  0  0  0
    2.5627    2.4462   -0.5141 C   0  0  0  0  0  0  0  0  0  0  0  0
    6.3609   -1.9661   -2.2279 H   0  0  0  0  0  0  0  0  0  0  0  0
    7.2642   -0.4892   -2.5844 H   0  0  0  0  0  0  0  0  0  0  0  0
    7.2042   -1.0587   -0.9118 H   0  0  0  0  0  0  0  0  0  0  0  0
    5.3991   -2.4989   -0.1735 H   0  0  0  0  0  0  0  0  0  0  0  0
    3.6760   -2.9842    1.5004 H   0  0  0  0  0  0  0  0  0  0  0  0
    1.6158   -2.4407    2.5589 H   0  0  0  0  0  0  0  0  0  0  0  0
    1.6539   -0.7388    3.0576 H   0  0  0  0  0  0  0  0  0  0  0  0
    0.0311   -1.8720    0.8062 H   0  0  0  0  0  0  0  0  0  0  0  0
   -2.7385    0.9884    2.4286 H   0  0  0  0  0  0  0  0  0  0  0  0
   -3.9582    3.3108    2.2115 H   0  0  0  0  0  0  0  0  0  0  0  0
   -8.0282    3.5983    2.7209 H   0  0  0  0  0  0  0  0  0  0  0  0
   -6.5051    0.4062    0.2918 H   0  0  0  0  0  0  0  0  0  0  0  0
   -4.5835    0.9995   -1.4536 H   0  0  0  0  0  0  0  0  0  0  0  0
   -0.1733    0.8696   -2.6125 H   0  0  0  0  0  0  0  0  0  0  0  0
    1.6270   -0.3014   -3.8656 H   0  0  0  0  0  0  0  0  0  0  0  0
    2.1939   -2.6546   -3.2608 H   0  0  0  0  0  0  0  0  0  0  0  0
    0.9438   -3.7339   -1.3933 H   0  0  0  0  0  0  0  0  0  0  0  0
    1.5327    2.0872   -0.6124 H   0  0  0  0  0  0  0  0  0  0  0  0
    2.8020    2.6674    0.5319 H   0  0  0  0  0  0  0  0  0  0  0  0
    2.6419    3.3808   -1.0772 H   0  0  0  0  0  0  0  0  0  0  0  0
  1  2  1  0
  2  3  1  0
  3  4  2  0
  4  5  1  0
  5  6  2  0
  6  7  1  0
  7  8  1  0
  8  9  1  0
  9 10  2  0
  9 11  1  0
 11 12  2  0
 12 13  1  0
 13 14  1  0
 14 15  2  0
 15 16  1  0
 16 17  2  0
 17 18  1  0
 18 19  1  0
 18 20  2  0
 13 21  2  0
 21 22  1  0
 22 23  2  0
 23 24  1  0
 24 25  2  0
 25 26  1  0
 26 27  2  0
 27 28  1  0
 28 29  2  0
  6 30  1  0
 30 31  2  0
 31 32  1  0
 32 33  1  0
 31  3  1  0
 23 11  1  0
 29 24  1  0
 20 14  1  0
  1 34  1  0
  1 35  1  0
  1 36  1  0
  4 37  1  0
  5 38  1  0
  7 39  1  0
  7 40  1  0
  8 41  1  0
 12 42  1  0
 15 43  1  0
 17 44  1  0
 20 45  1  0
 21 46  1  0
 25 47  1  0
 26 48  1  0
 27 49  1  0
 28 50  1  0
 33 51  1  0
 33 52  1  0
 33 53  1  0
M  END
$$$$
