
     RDKit          3D

 47 50  0  0  0  0  0  0  0  0999 V2000
    7.6361   -0.1150    1.1134 C   0  0  0  0  0  0  0  0  0  0  0  0
    6.7145   -1.1987    0.8054 N   0  0  0  0  0  0  0  0  0  0  0  0
    7.3090   -2.5178    0.6541 C   0  0  0  0  0  0  0  0  0  0  0  0
    5.3985   -1.0053    0.3662 C   0  0  0  0  0  0  0  0  0  0  0  0
    4.7005   -1.9542    0.0061 O   0  0  0  0  0  0  0  0  0  0  0  0
    4.8733    0.4185    0.4072 C   0  0  0  0  0  0  0  0  0  0  0  0
    3.5999    0.5947   -0.2742 N   0  0  0  0  0  0  0  0  0  0  0  0
    2.3850    0.0864    0.0986 C   0  0  0  0  0  0  0  0  0  0  0  0
    1.4520    0.6081   -0.7739 C   0  0  0  0  0  0  0  0  0  0  0  0
    0.0296    0.3035   -0.7719 C   0  0  0  0  0  0  0  0  0  0  0  0
   -0.6193   -0.1460    0.3856 C   0  0  0  0  0  0  0  0  0  0  0  0
   -1.9903   -0.4280    0.3750 C   0  0  0  0  0  0  0  0  0  0  0  0
   -2.7465   -0.2655   -0.7930 C   0  0  0  0  0  0  0  0  0  0  0  0
   -4.1836   -0.5631   -0.8046 C   0  0  0  0  0  0  0  0  0  0  0  0
   -4.6148   -1.8355   -1.1875 C   0  0  0  0  0  0  0  0  0  0  0  0
   -5.9046   -2.2338   -1.2380 N   0  0  0  0  0  0  0  0  0  0  0  0
   -6.8260   -1.3114   -0.8893 C   0  0  0  0  0  0  0  0  0  0  0  0
   -6.5340   -0.0049   -0.4925 C   0  0  0  0  0  0  0  0  0  0  0  0
   -7.5502    0.9055   -0.1484 C   0  0  0  0  0  0  0  0  0  0  0  0
   -7.2370    2.2055    0.2437 C   0  0  0  0  0  0  0  0  0  0  0  0
   -5.9083    2.6090    0.2958 C   0  0  0  0  0  0  0  0  0  0  0  0
   -4.8914    1.7127   -0.0443 C   0  0  0  0  0  0  0  0  0  0  0  0
   -5.1765    0.3860   -0.4460 C   0  0  0  0  0  0  0  0  0  0  0  0
   -2.0977    0.1821   -1.9511 C   0  0  0  0  0  0  0  0  0  0  0  0
   -0.7267    0.4644   -1.9402 C   0  0  0  0  0  0  0  0  0  0  0  0
    2.2158    1.4532   -1.6134 C   0  0  0  0  0  0  0  0  0  0  0  0
    3.5131    1.4726   -1.2957 N   0  0  0  0  0  0  0  0  0  0  0  0
    7.1163    0.7302    1.5692 H   0  0  0  0  0  0  0  0  0  0  0  0
    8.3974   -0.4670    1.8153 H   0  0  0  0  0  0  0  0  0  0  0  0
    8.1095    0.2104    0.1834 H   0  0  0  0  0  0  0  0  0  0  0  0
    6.5565   -3.2947    0.5013 H   0  0  0  0  0  0  0  0  0  0  0  0
    7.8782   -2.7567    1.5575 H   0  0  0  0  0  0  0  0  0  0  0  0
    7.9838   -2.5007   -0.2071 H   0  0  0  0  0  0  0  0  0  0  0  0
    5.5879    1.0947   -0.0737 H   0  0  0  0  0  0  0  0  0  0  0  0
    4.7207    0.7223    1.4482 H   0  0  0  0  0  0  0  0  0  0  0  0
    2.3052   -0.6187    0.9144 H   0  0  0  0  0  0  0  0  0  0  0  0
   -0.0725   -0.2754    1.3159 H   0  0  0  0  0  0  0  0  0  0  0  0
   -2.4669   -0.7742    1.2902 H   0  0  0  0  0  0  0  0  0  0  0  0
   -3.8979   -2.5997   -1.4777 H   0  0  0  0  0  0  0  0  0  0  0  0
   -7.8526   -1.6662   -0.9412 H   0  0  0  0  0  0  0  0  0  0  0  0
   -8.5951    0.6048   -0.1857 H   0  0  0  0  0  0  0  0  0  0  0  0
   -8.0293    2.9019    0.5063 H   0  0  0  0  0  0  0  0  0  0  0  0
   -5.6574    3.6209    0.6022 H   0  0  0  0  0  0  0  0  0  0  0  0
   -3.8624    2.0641    0.0069 H   0  0  0  0  0  0  0  0  0  0  0  0
   -2.6583    0.3149   -2.8750 H   0  0  0  0  0  0  0  0  0  0  0  0
   -0.2607    0.7988   -2.8639 H   0  0  0  0  0  0  0  0  0  0  0  0
    1.8772    2.0672   -2.4373 H   0  0  0  0  0  0  0  0  0  0  0  0
  1  2  1  0
  2  3  1  0
  2  4  1  0
  4  5  2  0
  4  6  1  0
  6  7  1  0
  7  8  1  0
  8  9  2  0
  9 10  1  0
 10 11  2  0
 11 12  1  0
 12 13  2  0
 13 14  1  0
 14 15  2  0
 15 16  1  0
 16 17  2  0
 17 18  1  0
 18 19  2  0
 19 20  1  0
 20 21  2  0
 21 22  1  0
 22 23  2  0
 13 24  1  0
 24 25  2  0
  9 26  1  0
 26 27  2  0
 27  7  1  0
 25 10  1  0
 23 14  1  0
 23 18  1  0
  1 28  1  0
  1 29  1  0
  1 30  1  0
  3 31  1  0
  3 32  1  0
  3 33  1  0
  6 34  1  0
  6 35  1  0
  8 36  1  0
 11 37  1  0
 12 38  1  0
 15 39  1  0
 17 40  1  0
 19 41  1  0
 20 42  1  0
 21 43  1  0
 22 44  1  0
 24 45  1  0
 25 46  1  0
 26 47  1  0
M  END
$$$$
