
     RDKit          3D

 26 26  0  0  0  0  0  0  0  0999 V2000
   -0.9882   -2.5341   -0.0629 N   0  0  0  0  0  0  0  0  0  0  0  0
   -1.3860   -1.2158   -0.5575 C   0  0  0  0  0  0  0  0  0  0  0  0
   -0.7499   -0.0530    0.2487 C   0  0  2  0  0  0  0  0  0  0  0  0
   -1.2823    1.3101   -0.2321 C   0  0  0  0  0  0  0  0  0  0  0  0
   -2.7192    1.5289    0.1544 C   0  0  0  0  0  0  0  0  0  0  0  0
   -3.3909    0.8632    0.9227 O   0  0  0  0  0  0  0  0  0  0  0  0
   -3.2421    2.6138   -0.4496 O   0  0  0  0  0  0  0  0  0  0  0  0
    0.7758   -0.0503    0.1866 C   0  0  0  0  0  0  0  0  0  0  0  0
    1.5186   -0.1129    1.3770 C   0  0  0  0  0  0  0  0  0  0  0  0
    2.9153   -0.0965    1.3481 C   0  0  0  0  0  0  0  0  0  0  0  0
    3.5810   -0.0153    0.1283 C   0  0  0  0  0  0  0  0  0  0  0  0
    5.3013    0.0067    0.0920 Cl  0  0  0  0  0  0  0  0  0  0  0  0
    2.8627    0.0500   -1.0625 C   0  0  0  0  0  0  0  0  0  0  0  0
    1.4658    0.0337   -1.0338 C   0  0  0  0  0  0  0  0  0  0  0  0
   -1.5013   -3.2563   -0.5663 H   0  0  0  0  0  0  0  0  0  0  0  0
   -1.2520   -2.6261    0.9175 H   0  0  0  0  0  0  0  0  0  0  0  0
   -2.4783   -1.1551   -0.5073 H   0  0  0  0  0  0  0  0  0  0  0  0
   -1.1154   -1.1465   -1.6169 H   0  0  0  0  0  0  0  0  0  0  0  0
   -1.0466   -0.1852    1.2991 H   0  0  0  0  0  0  0  0  0  0  0  0
   -1.1983    1.3898   -1.3226 H   0  0  0  0  0  0  0  0  0  0  0  0
   -0.7038    2.1259    0.2191 H   0  0  0  0  0  0  0  0  0  0  0  0
   -4.1597    2.6659   -0.1082 H   0  0  0  0  0  0  0  0  0  0  0  0
    1.0141   -0.1816    2.3385 H   0  0  0  0  0  0  0  0  0  0  0  0
    3.4741   -0.1503    2.2782 H   0  0  0  0  0  0  0  0  0  0  0  0
    3.3812    0.1100   -2.0153 H   0  0  0  0  0  0  0  0  0  0  0  0
    0.9242    0.0812   -1.9754 H   0  0  0  0  0  0  0  0  0  0  0  0
  1  2  1  0
  2  3  1  0
  3  4  1  0
  4  5  1  0
  5  6  2  0
  5  7  1  0
  3  8  1  0
  8  9  2  0
  9 10  1  0
 10 11  2  0
 11 12  1  0
 11 13  1  0
 13 14  2  0
 14  8  1  0
  1 15  1  0
  1 16  1  0
  2 17  1  0
  2 18  1  0
  3 19  1  1
  4 20  1  0
  4 21  1  0
  7 22  1  0
  9 23  1  0
 10 24  1  0
 13 25  1  0
 14 26  1  0
M  END
$$$$
