
     RDKit          3D

 42 44  0  0  0  0  0  0  0  0999 V2000
    7.5338   -1.4441   -0.8854 C   0  0  0  0  0  0  0  0  0  0  0  0
    6.6757   -1.8150    0.1872 O   0  0  0  0  0  0  0  0  0  0  0  0
    5.4322   -1.1987   -0.0199 N   0  0  0  0  0  0  0  0  0  0  0  0
    4.6342   -1.5156    0.9425 C   0  0  0  0  0  0  0  0  0  0  0  0
    3.3341   -1.1700    1.1856 N   0  0  0  0  0  0  0  0  0  0  0  0
    2.5917   -0.3752    0.4006 C   0  0  0  0  0  0  0  0  0  0  0  0
    3.0541    0.1891   -0.7472 N   0  0  0  0  0  0  0  0  0  0  0  0
    2.0398    0.8792   -1.2110 C   0  0  0  0  0  0  0  0  0  0  0  0
    1.9517    1.6399   -2.3420 N   0  0  0  0  0  0  0  0  0  0  0  0
    0.8060    2.2075   -2.5522 C   0  0  0  0  0  0  0  0  0  0  0  0
   -0.3983    2.1050   -1.6864 C   0  0  0  0  0  0  0  0  0  0  0  0
   -0.2711    1.3548   -0.5740 C   0  0  0  0  0  0  0  0  0  0  0  0
   -1.3831    1.1092    0.4229 C   0  0  0  0  0  0  0  0  0  0  0  0
   -1.2310    2.0353    1.6317 C   0  0  0  0  0  0  0  0  0  0  0  0
   -2.6504    1.4026   -0.2084 O   0  0  0  0  0  0  0  0  0  0  0  0
   -3.5928    0.4452    0.0627 C   0  0  0  0  0  0  0  0  0  0  0  0
   -4.5059    0.7043    1.0872 C   0  0  0  0  0  0  0  0  0  0  0  0
   -5.4950   -0.2305    1.3903 C   0  0  0  0  0  0  0  0  0  0  0  0
   -5.5730   -1.4115    0.6564 C   0  0  0  0  0  0  0  0  0  0  0  0
   -6.7874   -2.5710    1.0331 Cl  0  0  0  0  0  0  0  0  0  0  0  0
   -4.6797   -1.6587   -0.3878 C   0  0  0  0  0  0  0  0  0  0  0  0
   -3.6882   -0.7198   -0.7125 C   0  0  0  0  0  0  0  0  0  0  0  0
   -2.7480   -0.9957   -1.8493 C   0  0  0  0  0  0  0  0  0  0  0  0
    0.9605    0.7295   -0.3345 N   0  0  0  0  0  0  0  0  0  0  0  0
    1.3229   -0.0752    0.6921 N   0  0  0  0  0  0  0  0  0  0  0  0
    7.6739   -0.3588   -0.9011 H   0  0  0  0  0  0  0  0  0  0  0  0
    7.1191   -1.7857   -1.8388 H   0  0  0  0  0  0  0  0  0  0  0  0
    8.5048   -1.9223   -0.7321 H   0  0  0  0  0  0  0  0  0  0  0  0
    5.0032   -2.1807    1.7457 H   0  0  0  0  0  0  0  0  0  0  0  0
    2.8933   -1.5384    2.0140 H   0  0  0  0  0  0  0  0  0  0  0  0
    0.6807    2.8331   -3.4522 H   0  0  0  0  0  0  0  0  0  0  0  0
   -1.3003    2.6246   -1.9815 H   0  0  0  0  0  0  0  0  0  0  0  0
   -1.3508    0.0633    0.7589 H   0  0  0  0  0  0  0  0  0  0  0  0
   -2.0199    1.8432    2.3662 H   0  0  0  0  0  0  0  0  0  0  0  0
   -1.3280    3.0869    1.3376 H   0  0  0  0  0  0  0  0  0  0  0  0
   -0.2666    1.9016    2.1316 H   0  0  0  0  0  0  0  0  0  0  0  0
   -4.4489    1.6322    1.6495 H   0  0  0  0  0  0  0  0  0  0  0  0
   -6.1994   -0.0318    2.1934 H   0  0  0  0  0  0  0  0  0  0  0  0
   -4.7640   -2.5822   -0.9566 H   0  0  0  0  0  0  0  0  0  0  0  0
   -3.1424   -1.7751   -2.5100 H   0  0  0  0  0  0  0  0  0  0  0  0
   -1.7796   -1.3311   -1.4663 H   0  0  0  0  0  0  0  0  0  0  0  0
   -2.6078   -0.0996   -2.4620 H   0  0  0  0  0  0  0  0  0  0  0  0
  1  2  1  0
  2  3  1  0
  3  4  2  0
  4  5  1  0
  5  6  1  0
  6  7  1  0
  7  8  2  0
  8  9  1  0
  9 10  2  0
 10 11  1  0
 11 12  2  0
 12 13  1  0
 13 14  1  0
 13 15  1  0
 15 16  1  0
 16 17  2  0
 17 18  1  0
 18 19  2  0
 19 20  1  0
 19 21  1  0
 21 22  2  0
 22 23  1  0
 12 24  1  0
 24 25  1  0
 25  6  2  0
 24  8  1  0
 22 16  1  0
  1 26  1  0
  1 27  1  0
  1 28  1  0
  4 29  1  0
  5 30  1  0
 10 31  1  0
 11 32  1  0
 13 33  1  0
 14 34  1  0
 14 35  1  0
 14 36  1  0
 17 37  1  0
 18 38  1  0
 21 39  1  0
 23 40  1  0
 23 41  1  0
 23 42  1  0
M  END
$$$$
