
     RDKit          3D

 66 70  0  0  0  0  0  0  0  0999 V2000
   11.1391   -0.3903   -0.8404 C   0  0  0  0  0  0  0  0  0  0  0  0
   10.2297    0.5993   -0.3658 O   0  0  0  0  0  0  0  0  0  0  0  0
    8.9246    0.1527   -0.3178 C   0  0  0  0  0  0  0  0  0  0  0  0
    7.9851    1.0500    0.1689 C   0  0  0  0  0  0  0  0  0  0  0  0
    6.6511    0.6469    0.2490 C   0  0  0  0  0  0  0  0  0  0  0  0
    6.3048   -0.6435   -0.1566 C   0  0  0  0  0  0  0  0  0  0  0  0
    4.9256   -1.1830   -0.1118 C   0  0  0  0  0  0  0  0  0  0  0  0
    4.6087   -2.0969   -0.8645 O   0  0  0  0  0  0  0  0  0  0  0  0
    4.0625   -0.6300    0.8140 N   0  0  0  0  0  0  0  0  0  0  0  0
    2.6793   -1.0852    0.9274 C   0  0  0  0  0  0  0  0  0  0  0  0
    1.8217   -0.4695   -0.1863 C   0  0  0  0  0  0  0  0  0  0  0  0
    0.3379   -0.5803    0.1447 C   0  0  0  0  0  0  0  0  0  0  0  0
   -0.0016    0.0718    1.4131 N   0  0  0  0  0  0  0  0  0  0  0  0
   -1.0803    0.9418    1.4969 C   0  0  0  0  0  0  0  0  0  0  0  0
   -0.9789    2.0296    2.0667 O   0  0  0  0  0  0  0  0  0  0  0  0
   -2.2830    0.5260    0.9431 N   0  0  0  0  0  0  0  0  0  0  0  0
   -2.6244   -0.9402    0.6326 C   0  0  0  0  0  0  0  0  0  0  0  0
   -4.1505   -1.3784    0.7567 C   0  0  1  0  0  0  0  0  0  0  0  0
   -4.8289   -0.2464    1.4649 C   0  0  0  0  0  0  0  0  0  0  0  0
   -4.5814    0.8432    0.4066 C   0  0  2  0  0  0  0  0  0  0  0  0
   -3.3624    1.5892    0.8316 C   0  0  0  0  0  0  0  0  0  0  0  0
   -5.8164    0.9137   -0.4399 C   0  0  1  0  0  0  0  0  0  0  0  0
   -5.7442    1.8923   -1.6069 C   0  0  0  0  0  0  0  0  0  0  0  0
   -6.9365    1.7230   -2.5560 C   0  0  0  0  0  0  0  0  0  0  0  0
   -7.7442    0.4444   -2.3304 C   0  0  0  0  0  0  0  0  0  0  0  0
   -6.8662   -0.7424   -1.9936 C   0  0  0  0  0  0  0  0  0  0  0  0
   -6.9777   -1.8239   -2.5639 O   0  0  0  0  0  0  0  0  0  0  0  0
   -5.9589   -0.4984   -0.9719 N   0  0  0  0  0  0  0  0  0  0  0  0
   -4.9543   -1.5832   -0.6016 C   0  0  0  0  0  0  0  0  0  0  0  0
    1.1126    0.3374    2.3191 C   0  0  0  0  0  0  0  0  0  0  0  0
    2.1129   -0.8106    2.3284 C   0  0  0  0  0  0  0  0  0  0  0  0
    7.3163   -1.4601   -0.6519 C   0  0  0  0  0  0  0  0  0  0  0  0
    8.6206   -1.0936   -0.7345 N   0  0  0  0  0  0  0  0  0  0  0  0
   10.9240   -0.6577   -1.8805 H   0  0  0  0  0  0  0  0  0  0  0  0
   12.1449    0.0402   -0.8088 H   0  0  0  0  0  0  0  0  0  0  0  0
   11.1380   -1.2769   -0.1959 H   0  0  0  0  0  0  0  0  0  0  0  0
    8.2896    2.0468    0.4712 H   0  0  0  0  0  0  0  0  0  0  0  0
    5.9092    1.3576    0.5986 H   0  0  0  0  0  0  0  0  0  0  0  0
    4.3722    0.1229    1.4128 H   0  0  0  0  0  0  0  0  0  0  0  0
    2.6951   -2.1741    0.7870 H   0  0  0  0  0  0  0  0  0  0  0  0
    2.0301   -0.9680   -1.1406 H   0  0  0  0  0  0  0  0  0  0  0  0
    2.0849    0.5881   -0.3254 H   0  0  0  0  0  0  0  0  0  0  0  0
   -0.2433   -0.1378   -0.6711 H   0  0  0  0  0  0  0  0  0  0  0  0
    0.0670   -1.6377    0.2373 H   0  0  0  0  0  0  0  0  0  0  0  0
   -2.2651   -1.1580   -0.3763 H   0  0  0  0  0  0  0  0  0  0  0  0
   -2.0481   -1.5509    1.3358 H   0  0  0  0  0  0  0  0  0  0  0  0
   -4.1913   -2.3171    1.3230 H   0  0  0  0  0  0  0  0  0  0  0  0
   -5.8892   -0.4520    1.6577 H   0  0  0  0  0  0  0  0  0  0  0  0
   -4.3775   -0.0304    2.4410 H   0  0  0  0  0  0  0  0  0  0  0  0
   -4.0129    0.4745   -0.4693 H   0  0  0  0  0  0  0  0  0  0  0  0
   -3.0279    2.3279    0.0954 H   0  0  0  0  0  0  0  0  0  0  0  0
   -3.4871    2.0917    1.7955 H   0  0  0  0  0  0  0  0  0  0  0  0
   -6.7070    1.1312    0.1646 H   0  0  0  0  0  0  0  0  0  0  0  0
   -4.8235    1.7259   -2.1826 H   0  0  0  0  0  0  0  0  0  0  0  0
   -5.6972    2.9240   -1.2392 H   0  0  0  0  0  0  0  0  0  0  0  0
   -6.5650    1.7428   -3.5888 H   0  0  0  0  0  0  0  0  0  0  0  0
   -7.6089    2.5852   -2.4606 H   0  0  0  0  0  0  0  0  0  0  0  0
   -8.3287    0.2154   -3.2278 H   0  0  0  0  0  0  0  0  0  0  0  0
   -8.4553    0.5779   -1.5069 H   0  0  0  0  0  0  0  0  0  0  0  0
   -5.5215   -2.5204   -0.5380 H   0  0  0  0  0  0  0  0  0  0  0  0
   -4.2646   -1.6874   -1.4483 H   0  0  0  0  0  0  0  0  0  0  0  0
    1.5957    1.2748    2.0133 H   0  0  0  0  0  0  0  0  0  0  0  0
    0.7110    0.4926    3.3280 H   0  0  0  0  0  0  0  0  0  0  0  0
    2.9097   -0.6120    3.0546 H   0  0  0  0  0  0  0  0  0  0  0  0
    1.5947   -1.7147    2.6753 H   0  0  0  0  0  0  0  0  0  0  0  0
    7.1051   -2.4683   -1.0007 H   0  0  0  0  0  0  0  0  0  0  0  0
  1  2  1  0
  2  3  1  0
  3  4  2  0
  4  5  1  0
  5  6  2  0
  6  7  1  0
  7  8  2  0
  7  9  1  0
  9 10  1  0
 10 11  1  0
 11 12  1  0
 12 13  1  0
 13 14  1  0
 14 15  2  0
 14 16  1  0
 16 17  1  0
 17 18  1  0
 18 19  1  0
 19 20  1  0
 20 21  1  0
 20 22  1  0
 22 23  1  0
 23 24  1  0
 24 25  1  0
 25 26  1  0
 26 27  2  0
 26 28  1  0
 28 29  1  0
 13 30  1  0
 30 31  1  0
  6 32  1  0
 32 33  2  0
 33  3  1  0
 31 10  1  0
 21 16  1  0
 28 22  1  0
 29 18  1  0
  1 34  1  0
  1 35  1  0
  1 36  1  0
  4 37  1  0
  5 38  1  0
  9 39  1  0
 10 40  1  0
 11 41  1  0
 11 42  1  0
 12 43  1  0
 12 44  1  0
 17 45  1  0
 17 46  1  0
 18 47  1  1
 19 48  1  0
 19 49  1  0
 20 50  1  6
 21 51  1  0
 21 52  1  0
 22 53  1  1
 23 54  1  0
 23 55  1  0
 24 56  1  0
 24 57  1  0
 25 58  1  0
 25 59  1  0
 29 60  1  0
 29 61  1  0
 30 62  1  0
 30 63  1  0
 31 64  1  0
 31 65  1  0
 32 66  1  0
M  END
$$$$
