
     RDKit          3D

 34 33  0  0  0  0  0  0  0  0999 V2000
    3.9232    1.4276    0.4116 C   0  0  0  0  0  0  0  0  0  0  0  0
    2.7882    0.5743    0.0923 N   0  0  0  0  0  0  0  0  0  0  0  0
    2.6348   -0.4985    1.0789 C   0  0  0  0  0  0  0  0  0  0  0  0
    1.4897   -1.4601    0.7145 C   0  0  0  0  0  0  0  0  0  0  0  0
    0.1388   -0.7952    0.6845 C   0  0  0  0  0  0  0  0  0  0  0  0
   -0.6932   -0.8477   -0.3681 C   0  0  0  0  0  0  0  0  0  0  0  0
   -2.0048   -0.1926   -0.4069 C   0  0  0  0  0  0  0  0  0  0  0  0
   -3.0724   -0.8149   -1.0581 C   0  0  0  0  0  0  0  0  0  0  0  0
   -4.3128   -0.1823   -1.1223 C   0  0  0  0  0  0  0  0  0  0  0  0
   -4.4452    1.0669   -0.5393 C   0  0  0  0  0  0  0  0  0  0  0  0
   -3.4383    1.7126    0.0845 N   0  0  0  0  0  0  0  0  0  0  0  0
   -2.2435    1.0716    0.1291 C   0  0  0  0  0  0  0  0  0  0  0  0
    1.1091   -0.1159   -1.2781 O   0  0  0  0  0  0  0  0  0  0  0  0
    0.7386   -0.0835   -0.1210 C   0  0  0  0  0  0  0  0  0  0  0  0
    1.5984   -0.1926    0.9013 O   0  0  0  0  0  0  0  0  0  0  0  0
   -0.7386    0.0835    0.3498 C   0  0  0  0  0  0  0  0  0  0  0  0
   -1.1091    0.1159    1.5068 O   0  0  0  0  0  0  0  0  0  0  0  0
   -1.5984    0.1926   -0.6726 O   0  0  0  0  0  0  0  0  0  0  0  0
    3.7998    1.9008    1.3911 H   0  0  0  0  0  0  0  0  0  0  0  0
    4.8632    0.8665    0.4005 H   0  0  0  0  0  0  0  0  0  0  0  0
    3.9994    2.2266   -0.3323 H   0  0  0  0  0  0  0  0  0  0  0  0
    2.9092    0.1740   -0.8371 H   0  0  0  0  0  0  0  0  0  0  0  0
    3.5619   -1.0813    1.1440 H   0  0  0  0  0  0  0  0  0  0  0  0
    2.4437   -0.0670    2.0692 H   0  0  0  0  0  0  0  0  0  0  0  0
    1.7088   -1.9419   -0.2467 H   0  0  0  0  0  0  0  0  0  0  0  0
    1.4569   -2.2592    1.4653 H   0  0  0  0  0  0  0  0  0  0  0  0
   -0.1431   -0.2563    1.5867 H   0  0  0  0  0  0  0  0  0  0  0  0
   -0.4152   -1.4072   -1.2579 H   0  0  0  0  0  0  0  0  0  0  0  0
   -2.9497   -1.7956   -1.5100 H   0  0  0  0  0  0  0  0  0  0  0  0
   -5.1550   -0.6536   -1.6160 H   0  0  0  0  0  0  0  0  0  0  0  0
   -5.3921    1.5985   -0.5626 H   0  0  0  0  0  0  0  0  0  0  0  0
   -1.4525    1.6340    0.6187 H   0  0  0  0  0  0  0  0  0  0  0  0
    2.4742   -0.2903    0.4757 H   0  0  0  0  0  0  0  0  0  0  0  0
   -2.4742    0.2903   -0.2470 H   0  0  0  0  0  0  0  0  0  0  0  0
  1  2  1  0
  2  3  1  0
  3  4  1  0
  4  5  1  0
  5  6  2  0
  6  7  1  0
  7  8  2  0
  8  9  1  0
  9 10  2  0
 10 11  1  0
 11 12  2  0
 13 14  2  0
 14 15  1  0
 14 16  1  0
 16 17  2  0
 16 18  1  0
 12  7  1  0
  1 19  1  0
  1 20  1  0
  1 21  1  0
  2 22  1  0
  3 23  1  0
  3 24  1  0
  4 25  1  0
  4 26  1  0
  5 27  1  0
  6 28  1  0
  8 29  1  0
  9 30  1  0
 10 31  1  0
 12 32  1  0
 15 33  1  0
 18 34  1  0
M  END
$$$$
