
     RDKit          3D

 50 50  0  0  0  0  0  0  0  0999 V2000
   -6.9270    1.4700    0.9340 C   0  0  0  0  0  0  0  0  0  0  0  0
   -5.6429    1.2388    0.1817 C   0  0  0  0  0  0  0  0  0  0  0  0
   -5.8103    1.2081   -1.3173 C   0  0  0  0  0  0  0  0  0  0  0  0
   -4.3737    1.8441    0.7325 C   0  0  0  0  0  0  0  0  0  0  0  0
   -4.5893    0.3519    0.8391 C   0  0  2  0  0  0  0  0  0  0  0  0
   -3.8415   -0.6511    0.0291 C   0  0  0  0  0  0  0  0  0  0  0  0
   -4.4109   -1.6779   -0.3121 O   0  0  0  0  0  0  0  0  0  0  0  0
   -2.5224   -0.3226   -0.1997 N   0  0  0  0  0  0  0  0  0  0  0  0
   -1.6290   -1.0637   -0.9430 C   0  0  0  0  0  0  0  0  0  0  0  0
   -0.3187   -0.7719   -1.0329 C   0  0  0  0  0  0  0  0  0  0  0  0
    0.4197    0.3752   -0.4024 C   0  0  0  0  0  0  0  0  0  0  0  0
    1.2838   -0.0422    0.7917 C   0  0  0  0  0  0  0  0  0  0  0  0
    2.4050   -1.0451    0.4879 C   0  0  0  0  0  0  0  0  0  0  0  0
    3.3901   -0.6512   -0.6146 C   0  0  0  0  0  0  0  0  0  0  0  0
    4.1993    0.9726   -0.4079 S   0  0  0  0  0  0  0  0  0  0  0  0
    5.0815    0.7450    1.1813 C   0  0  0  0  0  0  0  0  0  0  0  0
    6.1285   -0.3789    1.2156 C   0  0  2  0  0  0  0  0  0  0  0  0
    6.6886   -0.5451    2.5813 N   0  0  0  0  0  0  0  0  0  0  0  0
    7.2742   -0.0523    0.2580 C   0  0  0  0  0  0  0  0  0  0  0  0
    8.1320    0.8022    0.4296 O   0  0  0  0  0  0  0  0  0  0  0  0
    7.2744   -0.8142   -0.8533 O   0  0  0  0  0  0  0  0  0  0  0  0
   -2.0792   -2.2382   -1.7423 C   0  0  0  0  0  0  0  0  0  0  0  0
   -1.6966   -3.3883   -1.6166 O   0  0  0  0  0  0  0  0  0  0  0  0
   -2.9280   -1.8593   -2.7159 O   0  0  0  0  0  0  0  0  0  0  0  0
   -6.8021    1.3457    2.0132 H   0  0  0  0  0  0  0  0  0  0  0  0
   -7.6931    0.7609    0.6066 H   0  0  0  0  0  0  0  0  0  0  0  0
   -7.2968    2.4841    0.7505 H   0  0  0  0  0  0  0  0  0  0  0  0
   -6.3335    2.1085   -1.6592 H   0  0  0  0  0  0  0  0  0  0  0  0
   -6.4017    0.3363   -1.6153 H   0  0  0  0  0  0  0  0  0  0  0  0
   -4.8501    1.1636   -1.8439 H   0  0  0  0  0  0  0  0  0  0  0  0
   -4.4363    2.4293    1.6444 H   0  0  0  0  0  0  0  0  0  0  0  0
   -3.6573    2.2397    0.0215 H   0  0  0  0  0  0  0  0  0  0  0  0
   -4.8353   -0.0329    1.8244 H   0  0  0  0  0  0  0  0  0  0  0  0
   -2.1773    0.5021    0.2667 H   0  0  0  0  0  0  0  0  0  0  0  0
    0.3019   -1.4193   -1.6545 H   0  0  0  0  0  0  0  0  0  0  0  0
    1.0367    0.8518   -1.1721 H   0  0  0  0  0  0  0  0  0  0  0  0
   -0.2727    1.1557   -0.0711 H   0  0  0  0  0  0  0  0  0  0  0  0
    1.7155    0.8592    1.2407 H   0  0  0  0  0  0  0  0  0  0  0  0
    0.6368   -0.4767    1.5639 H   0  0  0  0  0  0  0  0  0  0  0  0
    1.9558   -2.0072    0.2125 H   0  0  0  0  0  0  0  0  0  0  0  0
    2.9558   -1.2407    1.4160 H   0  0  0  0  0  0  0  0  0  0  0  0
    2.8688   -0.6240   -1.5773 H   0  0  0  0  0  0  0  0  0  0  0  0
    4.1613   -1.4206   -0.7188 H   0  0  0  0  0  0  0  0  0  0  0  0
    4.3281    0.5936    1.9624 H   0  0  0  0  0  0  0  0  0  0  0  0
    5.5628    1.7064    1.4010 H   0  0  0  0  0  0  0  0  0  0  0  0
    5.6890   -1.3443    0.9432 H   0  0  0  0  0  0  0  0  0  0  0  0
    5.9399   -0.5417    3.2719 H   0  0  0  0  0  0  0  0  0  0  0  0
    7.2828    0.2625    2.7895 H   0  0  0  0  0  0  0  0  0  0  0  0
    8.0496   -0.4901   -1.3584 H   0  0  0  0  0  0  0  0  0  0  0  0
   -3.2362   -2.7077   -3.0928 H   0  0  0  0  0  0  0  0  0  0  0  0
  1  2  1  0
  2  3  1  0
  2  4  1  0
  4  5  1  0
  5  6  1  0
  6  7  2  0
  6  8  1  0
  8  9  1  0
  9 10  2  0
 10 11  1  0
 11 12  1  0
 12 13  1  0
 13 14  1  0
 14 15  1  0
 15 16  1  0
 16 17  1  0
 17 18  1  0
 17 19  1  0
 19 20  2  0
 19 21  1  0
  9 22  1  0
 22 23  2  0
 22 24  1  0
  5  2  1  0
  1 25  1  0
  1 26  1  0
  1 27  1  0
  3 28  1  0
  3 29  1  0
  3 30  1  0
  4 31  1  0
  4 32  1  0
  5 33  1  1
  8 34  1  0
 10 35  1  0
 11 36  1  0
 11 37  1  0
 12 38  1  0
 12 39  1  0
 13 40  1  0
 13 41  1  0
 14 42  1  0
 14 43  1  0
 16 44  1  0
 16 45  1  0
 17 46  1  6
 18 47  1  0
 18 48  1  0
 21 49  1  0
 24 50  1  0
M  END
$$$$
