
     RDKit          3D

 33 35  0  0  0  0  0  0  0  0999 V2000
    4.8775    1.6797    0.3090 C   0  0  0  0  0  0  0  0  0  0  0  0
    3.4659    1.6564    0.1441 O   0  0  0  0  0  0  0  0  0  0  0  0
    2.8640    0.4262    0.1127 C   0  0  0  0  0  0  0  0  0  0  0  0
    3.5097   -0.8014    0.2463 C   0  0  0  0  0  0  0  0  0  0  0  0
    2.7950   -2.0049    0.1915 C   0  0  0  0  0  0  0  0  0  0  0  0
    1.4101   -1.9359    0.0044 C   0  0  0  0  0  0  0  0  0  0  0  0
    0.4807   -2.9452   -0.0976 N   0  0  0  0  0  0  0  0  0  0  0  0
   -0.7703   -2.4219   -0.2818 C   0  0  0  0  0  0  0  0  0  0  0  0
   -0.6603   -1.0468   -0.2892 C   0  0  0  0  0  0  0  0  0  0  0  0
   -1.7743   -0.1626   -0.4388 C   0  0  0  0  0  0  0  0  0  0  0  0
   -2.7045   -0.2762   -1.4046 C   0  0  0  0  0  0  0  0  0  0  0  0
   -3.8898    0.6338   -1.5202 C   0  0  0  0  0  0  0  0  0  0  0  0
   -3.8254    1.8159   -0.6594 N   0  0  0  0  0  0  0  0  0  0  0  0
   -3.3436    1.4647    0.6783 C   0  0  0  0  0  0  0  0  0  0  0  0
   -1.9154    0.8997    0.6250 C   0  0  0  0  0  0  0  0  0  0  0  0
    0.7235   -0.7262   -0.1207 C   0  0  0  0  0  0  0  0  0  0  0  0
    1.4750    0.4680   -0.0734 C   0  0  0  0  0  0  0  0  0  0  0  0
    5.1696    1.2478    1.2718 H   0  0  0  0  0  0  0  0  0  0  0  0
    5.1974    2.7262    0.3035 H   0  0  0  0  0  0  0  0  0  0  0  0
    5.3810    1.1738   -0.5215 H   0  0  0  0  0  0  0  0  0  0  0  0
    4.5833   -0.8640    0.3919 H   0  0  0  0  0  0  0  0  0  0  0  0
    3.3067   -2.9570    0.2888 H   0  0  0  0  0  0  0  0  0  0  0  0
    0.6975   -3.9305   -0.0463 H   0  0  0  0  0  0  0  0  0  0  0  0
   -1.6301   -3.0709   -0.3792 H   0  0  0  0  0  0  0  0  0  0  0  0
   -2.6211   -1.0593   -2.1528 H   0  0  0  0  0  0  0  0  0  0  0  0
   -3.9772    0.9726   -2.5581 H   0  0  0  0  0  0  0  0  0  0  0  0
   -4.7947    0.0582   -1.2911 H   0  0  0  0  0  0  0  0  0  0  0  0
   -4.7533    2.2291   -0.5929 H   0  0  0  0  0  0  0  0  0  0  0  0
   -4.0246    0.7432    1.1480 H   0  0  0  0  0  0  0  0  0  0  0  0
   -3.3484    2.3615    1.3078 H   0  0  0  0  0  0  0  0  0  0  0  0
   -1.6675    0.4970    1.6149 H   0  0  0  0  0  0  0  0  0  0  0  0
   -1.2193    1.7205    0.4163 H   0  0  0  0  0  0  0  0  0  0  0  0
    0.9828    1.4284   -0.1914 H   0  0  0  0  0  0  0  0  0  0  0  0
  1  2  1  0
  2  3  1  0
  3  4  2  0
  4  5  1  0
  5  6  2  0
  6  7  1  0
  7  8  1  0
  8  9  2  0
  9 10  1  0
 10 11  2  0
 11 12  1  0
 12 13  1  0
 13 14  1  0
 14 15  1  0
  9 16  1  0
 16 17  2  0
 17  3  1  0
 16  6  1  0
 15 10  1  0
  1 18  1  0
  1 19  1  0
  1 20  1  0
  4 21  1  0
  5 22  1  0
  7 23  1  0
  8 24  1  0
 11 25  1  0
 12 26  1  0
 12 27  1  0
 13 28  1  0
 14 29  1  0
 14 30  1  0
 15 31  1  0
 15 32  1  0
 17 33  1  0
M  END
$$$$
