
     RDKit          3D

 49 49  0  0  0  0  0  0  0  0999 V2000
   -5.2472   -2.7403   -0.5203 C   0  0  0  0  0  0  0  0  0  0  0  0
   -6.0194   -1.8228    0.2475 O   0  0  0  0  0  0  0  0  0  0  0  0
   -5.6684   -0.5007    0.1504 C   0  0  0  0  0  0  0  0  0  0  0  0
   -4.6464    0.0247   -0.6398 C   0  0  0  0  0  0  0  0  0  0  0  0
   -4.3863    1.4088   -0.6470 C   0  0  0  0  0  0  0  0  0  0  0  0
   -3.2572    1.9571   -1.4827 C   0  0  0  0  0  0  0  0  0  0  0  0
   -1.9922    1.7974   -0.8017 N   0  0  0  0  0  0  0  0  0  0  0  0
   -1.1732    0.7148   -1.0399 C   0  0  0  0  0  0  0  0  0  0  0  0
   -1.3950   -0.1264   -1.9036 O   0  0  0  0  0  0  0  0  0  0  0  0
    0.0377    0.6854   -0.1246 C   0  0  0  0  0  0  0  0  0  0  0  0
    0.9144   -0.5423   -0.3669 C   0  0  0  0  0  0  0  0  0  0  0  0
    2.0746   -0.6666    0.6248 C   0  0  0  0  0  0  0  0  0  0  0  0
    3.1064    0.4555    0.4929 C   0  0  0  0  0  0  0  0  0  0  0  0
    4.2619    0.2394    1.4287 C   0  0  0  0  0  0  0  0  0  0  0  0
    5.5084   -0.1506    1.1149 C   0  0  0  0  0  0  0  0  0  0  0  0
    6.0448   -0.5058   -0.2510 C   0  0  0  0  0  0  0  0  0  0  0  0
    7.1163    0.4995   -0.6717 C   0  0  0  0  0  0  0  0  0  0  0  0
    6.6160   -1.9244   -0.2364 C   0  0  0  0  0  0  0  0  0  0  0  0
   -5.1598    2.2597    0.1573 C   0  0  0  0  0  0  0  0  0  0  0  0
   -6.1852    1.7412    0.9465 C   0  0  0  0  0  0  0  0  0  0  0  0
   -6.4280    0.3738    0.9348 C   0  0  0  0  0  0  0  0  0  0  0  0
   -7.4389   -0.1095    1.7212 O   0  0  0  0  0  0  0  0  0  0  0  0
   -4.1969   -2.7285   -0.2109 H   0  0  0  0  0  0  0  0  0  0  0  0
   -5.6384   -3.7446   -0.3309 H   0  0  0  0  0  0  0  0  0  0  0  0
   -5.3485   -2.5407   -1.5922 H   0  0  0  0  0  0  0  0  0  0  0  0
   -4.0258   -0.6158   -1.2613 H   0  0  0  0  0  0  0  0  0  0  0  0
   -3.2354    1.4656   -2.4619 H   0  0  0  0  0  0  0  0  0  0  0  0
   -3.3977    3.0289   -1.6604 H   0  0  0  0  0  0  0  0  0  0  0  0
   -1.8466    2.3387    0.0395 H   0  0  0  0  0  0  0  0  0  0  0  0
   -0.3169    0.6897    0.9127 H   0  0  0  0  0  0  0  0  0  0  0  0
    0.6088    1.6036   -0.2994 H   0  0  0  0  0  0  0  0  0  0  0  0
    0.2977   -1.4468   -0.2878 H   0  0  0  0  0  0  0  0  0  0  0  0
    1.3044   -0.5247   -1.3923 H   0  0  0  0  0  0  0  0  0  0  0  0
    2.5673   -1.6324    0.4524 H   0  0  0  0  0  0  0  0  0  0  0  0
    1.6795   -0.6951    1.6483 H   0  0  0  0  0  0  0  0  0  0  0  0
    2.6519    1.4202    0.7459 H   0  0  0  0  0  0  0  0  0  0  0  0
    3.4371    0.5400   -0.5467 H   0  0  0  0  0  0  0  0  0  0  0  0
    4.0477    0.4388    2.4787 H   0  0  0  0  0  0  0  0  0  0  0  0
    6.2238   -0.2371    1.9337 H   0  0  0  0  0  0  0  0  0  0  0  0
    5.2483   -0.4837   -1.0014 H   0  0  0  0  0  0  0  0  0  0  0  0
    7.5023    0.2591   -1.6683 H   0  0  0  0  0  0  0  0  0  0  0  0
    7.9628    0.5024    0.0244 H   0  0  0  0  0  0  0  0  0  0  0  0
    6.7072    1.5153   -0.7090 H   0  0  0  0  0  0  0  0  0  0  0  0
    7.4469   -2.0183    0.4721 H   0  0  0  0  0  0  0  0  0  0  0  0
    5.8478   -2.6528    0.0464 H   0  0  0  0  0  0  0  0  0  0  0  0
    6.9886   -2.2013   -1.2286 H   0  0  0  0  0  0  0  0  0  0  0  0
   -4.9708    3.3306    0.1728 H   0  0  0  0  0  0  0  0  0  0  0  0
   -6.7904    2.3947    1.5676 H   0  0  0  0  0  0  0  0  0  0  0  0
   -7.4382   -1.0736    1.5615 H   0  0  0  0  0  0  0  0  0  0  0  0
  1  2  1  0
  2  3  1  0
  3  4  2  0
  4  5  1  0
  5  6  1  0
  6  7  1  0
  7  8  1  0
  8  9  2  0
  8 10  1  0
 10 11  1  0
 11 12  1  0
 12 13  1  0
 13 14  1  0
 14 15  2  0
 15 16  1  0
 16 17  1  0
 16 18  1  0
  5 19  2  0
 19 20  1  0
 20 21  2  0
 21 22  1  0
 21  3  1  0
  1 23  1  0
  1 24  1  0
  1 25  1  0
  4 26  1  0
  6 27  1  0
  6 28  1  0
  7 29  1  0
 10 30  1  0
 10 31  1  0
 11 32  1  0
 11 33  1  0
 12 34  1  0
 12 35  1  0
 13 36  1  0
 13 37  1  0
 14 38  1  0
 15 39  1  0
 16 40  1  0
 17 41  1  0
 17 42  1  0
 17 43  1  0
 18 44  1  0
 18 45  1  0
 18 46  1  0
 19 47  1  0
 20 48  1  0
 22 49  1  0
M  END
$$$$
