
     RDKit          3D

 44 45  0  0  0  0  0  0  0  0999 V2000
    5.0965    2.8970   -0.6942 Cl  0  0  0  0  0  0  0  0  0  0  0  0
    3.9889    1.6020   -0.4587 C   0  0  0  0  0  0  0  0  0  0  0  0
    3.5721    1.2751    0.8279 C   0  0  0  0  0  0  0  0  0  0  0  0
    2.6676    0.2290    1.0157 C   0  0  0  0  0  0  0  0  0  0  0  0
    2.1656   -0.4995   -0.0801 C   0  0  0  0  0  0  0  0  0  0  0  0
    1.1665   -1.5982    0.1916 C   0  0  0  0  0  0  0  0  0  0  0  0
   -0.0108   -1.0909    0.8258 O   0  0  0  0  0  0  0  0  0  0  0  0
   -0.9741   -0.5217   -0.0744 C   0  0  0  0  0  0  0  0  0  0  0  0
   -2.3902   -0.8037    0.4596 C   0  0  0  0  0  0  0  0  0  0  0  0
   -2.8034   -2.1675    0.1684 N   0  0  0  0  0  0  0  0  0  0  0  0
   -2.5635   -3.2709    0.9385 C   0  0  0  0  0  0  0  0  0  0  0  0
   -3.1171   -4.3173    0.2381 C   0  0  0  0  0  0  0  0  0  0  0  0
   -3.6895   -3.8735   -0.9272 N   0  0  0  0  0  0  0  0  0  0  0  0
   -3.4964   -2.5732   -0.9360 C   0  0  0  0  0  0  0  0  0  0  0  0
   -0.7386    0.9740   -0.2493 C   0  0  0  0  0  0  0  0  0  0  0  0
   -0.6353    1.4729   -1.5647 C   0  0  0  0  0  0  0  0  0  0  0  0
   -0.3907    2.8257   -1.8068 C   0  0  0  0  0  0  0  0  0  0  0  0
   -0.2538    3.7044   -0.7383 C   0  0  0  0  0  0  0  0  0  0  0  0
    0.0544    5.3706   -1.0355 Cl  0  0  0  0  0  0  0  0  0  0  0  0
   -0.3648    3.2423    0.5695 C   0  0  0  0  0  0  0  0  0  0  0  0
   -0.6091    1.8869    0.8151 C   0  0  0  0  0  0  0  0  0  0  0  0
   -0.7440    1.4168    2.4726 Cl  0  0  0  0  0  0  0  0  0  0  0  0
    2.6081   -0.1575   -1.3678 C   0  0  0  0  0  0  0  0  0  0  0  0
    2.0485   -0.9810   -2.7800 Cl  0  0  0  0  0  0  0  0  0  0  0  0
    3.5150    0.8902   -1.5566 C   0  0  0  0  0  0  0  0  0  0  0  0
   -0.4341    1.1556    0.2287 O   0  0  0  0  0  0  0  0  0  0  0  0
   -0.4149   -0.0518    0.0157 N   0  0  0  0  0  4  0  0  0  0  0  0
   -1.3024   -0.8905   -0.0777 O   0  0  0  0  0  1  0  0  0  0  0  0
    0.8675   -0.5396   -0.1476 O   0  0  0  0  0  0  0  0  0  0  0  0
    3.9406    1.8300    1.6871 H   0  0  0  0  0  0  0  0  0  0  0  0
    2.3358   -0.0126    2.0254 H   0  0  0  0  0  0  0  0  0  0  0  0
    0.9009   -2.1976   -0.6841 H   0  0  0  0  0  0  0  0  0  0  0  0
    1.6288   -2.3002    0.8967 H   0  0  0  0  0  0  0  0  0  0  0  0
   -0.8788   -1.0143   -1.0521 H   0  0  0  0  0  0  0  0  0  0  0  0
   -2.4586   -0.6854    1.5453 H   0  0  0  0  0  0  0  0  0  0  0  0
   -3.1349   -0.1459   -0.0047 H   0  0  0  0  0  0  0  0  0  0  0  0
   -2.0292   -3.2243    1.8777 H   0  0  0  0  0  0  0  0  0  0  0  0
   -3.1337   -5.3653    0.5102 H   0  0  0  0  0  0  0  0  0  0  0  0
   -3.8297   -1.8953   -1.7110 H   0  0  0  0  0  0  0  0  0  0  0  0
   -0.7303    0.8050   -2.4211 H   0  0  0  0  0  0  0  0  0  0  0  0
   -0.3008    3.1826   -2.8302 H   0  0  0  0  0  0  0  0  0  0  0  0
   -0.2605    3.9384    1.3981 H   0  0  0  0  0  0  0  0  0  0  0  0
    3.8486    1.1532   -2.5575 H   0  0  0  0  0  0  0  0  0  0  0  0
    1.2839    0.3264   -0.0192 H   0  0  0  0  0  0  0  0  0  0  0  0
  1  2  1  0
  2  3  2  0
  3  4  1  0
  4  5  2  0
  5  6  1  0
  6  7  1  0
  7  8  1  0
  8  9  1  0
  9 10  1  0
 10 11  1  0
 11 12  2  0
 12 13  1  0
 13 14  2  0
  8 15  1  0
 15 16  2  0
 16 17  1  0
 17 18  2  0
 18 19  1  0
 18 20  1  0
 20 21  2  0
 21 22  1  0
  5 23  1  0
 23 24  1  0
 23 25  2  0
 26 27  2  0
 27 28  1  0
 27 29  1  0
 25  2  1  0
 14 10  1  0
 21 15  1  0
  3 30  1  0
  4 31  1  0
  6 32  1  0
  6 33  1  0
  8 34  1  0
  9 35  1  0
  9 36  1  0
 11 37  1  0
 12 38  1  0
 14 39  1  0
 16 40  1  0
 17 41  1  0
 20 42  1  0
 25 43  1  0
 29 44  1  0
M  CHG  2  27   1  28  -1
M  END
$$$$
