
     RDKit          3D

 68 71  0  0  0  0  0  0  0  0999 V2000
  -10.0778   -1.1731   -1.7484 C   0  0  0  0  0  0  0  0  0  0  0  0
   -9.2813   -1.6695   -0.6770 O   0  0  0  0  0  0  0  0  0  0  0  0
   -8.1306   -0.9361   -0.4780 C   0  0  0  0  0  0  0  0  0  0  0  0
   -7.3181   -1.3456    0.5640 C   0  0  0  0  0  0  0  0  0  0  0  0
   -6.1299   -0.6513    0.7955 C   0  0  0  0  0  0  0  0  0  0  0  0
   -5.7620    0.4221   -0.0268 C   0  0  0  0  0  0  0  0  0  0  0  0
   -4.4804    1.2381    0.1383 C   0  0  2  0  0  0  0  0  0  0  0  0
   -4.9115    2.5678    0.4697 O   0  0  0  0  0  0  0  0  0  0  0  0
   -3.6666    1.3389   -1.1745 C   0  0  0  0  0  0  0  0  0  0  0  0
   -2.9034    0.0485   -1.4973 C   0  0  0  0  0  0  0  0  0  0  0  0
   -1.9070   -0.3351   -0.3735 C   0  0  1  0  0  0  0  0  0  0  0  0
   -0.8212    0.6740   -0.2903 N   0  0  0  0  0  0  0  0  0  0  0  0
    0.1415    0.5531   -1.4052 C   0  0  0  0  0  0  0  0  0  0  0  0
    1.1533   -0.5098   -0.9873 C   0  0  0  0  0  0  0  0  0  0  0  0
    1.0992   -0.5353    0.5418 C   0  0  1  0  0  0  0  0  0  0  0  0
    2.4125   -0.3301    1.1270 N   0  0  0  0  0  0  0  0  0  0  0  0
    2.5776   -0.1958    2.4917 C   0  0  0  0  0  0  0  0  0  0  0  0
    1.6377   -0.1734    3.2836 O   0  0  0  0  0  0  0  0  0  0  0  0
    4.0347   -0.1758    2.9787 C   0  0  0  0  0  0  0  0  0  0  0  0
    5.0182    0.2627    1.9942 N   0  0  0  0  0  0  0  0  0  0  0  0
    5.5712   -0.6311    1.1022 C   0  0  0  0  0  0  0  0  0  0  0  0
    5.1422   -1.7723    0.9611 O   0  0  0  0  0  0  0  0  0  0  0  0
    6.7321   -0.1570    0.3060 C   0  0  0  0  0  0  0  0  0  0  0  0
    6.8712    1.1816   -0.0773 C   0  0  0  0  0  0  0  0  0  0  0  0
    7.9835    1.5785   -0.8224 C   0  0  0  0  0  0  0  0  0  0  0  0
    8.9546    0.6428   -1.1871 C   0  0  0  0  0  0  0  0  0  0  0  0
    8.8172   -0.7075   -0.8314 C   0  0  0  0  0  0  0  0  0  0  0  0
    9.8830   -1.7133   -1.2005 C   0  0  0  0  0  0  0  0  0  0  0  0
   10.8691   -1.7779   -0.2613 F   0  0  0  0  0  0  0  0  0  0  0  0
    9.4046   -2.9813   -1.3352 F   0  0  0  0  0  0  0  0  0  0  0  0
   10.5037   -1.4238   -2.3785 F   0  0  0  0  0  0  0  0  0  0  0  0
    7.6958   -1.0985   -0.0809 C   0  0  0  0  0  0  0  0  0  0  0  0
    0.0663    0.5519    0.8857 C   0  0  0  0  0  0  0  0  0  0  0  0
   -2.7413   -0.4859    0.9192 C   0  0  0  0  0  0  0  0  0  0  0  0
   -3.5313    0.7826    1.2716 C   0  0  0  0  0  0  0  0  0  0  0  0
   -6.6800    0.7577   -1.0284 C   0  0  0  0  0  0  0  0  0  0  0  0
   -7.8413    0.1052   -1.2791 N   0  0  0  0  0  0  0  0  0  0  0  0
   -9.5527   -1.2517   -2.7091 H   0  0  0  0  0  0  0  0  0  0  0  0
  -10.9846   -1.7884   -1.8095 H   0  0  0  0  0  0  0  0  0  0  0  0
  -10.3982   -0.1410   -1.5573 H   0  0  0  0  0  0  0  0  0  0  0  0
   -7.6048   -2.1864    1.1854 H   0  0  0  0  0  0  0  0  0  0  0  0
   -5.5136   -0.9737    1.6293 H   0  0  0  0  0  0  0  0  0  0  0  0
   -5.4799    2.4987    1.2572 H   0  0  0  0  0  0  0  0  0  0  0  0
   -2.9566    2.1740   -1.0966 H   0  0  0  0  0  0  0  0  0  0  0  0
   -4.3019    1.6060   -2.0263 H   0  0  0  0  0  0  0  0  0  0  0  0
   -2.3991    0.1639   -2.4622 H   0  0  0  0  0  0  0  0  0  0  0  0
   -3.6186   -0.7741   -1.6388 H   0  0  0  0  0  0  0  0  0  0  0  0
   -1.4864   -1.3221   -0.6038 H   0  0  0  0  0  0  0  0  0  0  0  0
   -0.3032    0.3246   -2.3775 H   0  0  0  0  0  0  0  0  0  0  0  0
    0.6522    1.5189   -1.5191 H   0  0  0  0  0  0  0  0  0  0  0  0
    2.1476   -0.2810   -1.3834 H   0  0  0  0  0  0  0  0  0  0  0  0
    0.8576   -1.4890   -1.3805 H   0  0  0  0  0  0  0  0  0  0  0  0
    0.7368   -1.5128    0.8841 H   0  0  0  0  0  0  0  0  0  0  0  0
    3.1896   -0.8087    0.6804 H   0  0  0  0  0  0  0  0  0  0  0  0
    4.1014    0.5217    3.8203 H   0  0  0  0  0  0  0  0  0  0  0  0
    4.2917   -1.1819    3.3294 H   0  0  0  0  0  0  0  0  0  0  0  0
    5.4774    1.1466    2.1640 H   0  0  0  0  0  0  0  0  0  0  0  0
    6.1135    1.9219    0.1700 H   0  0  0  0  0  0  0  0  0  0  0  0
    8.0935    2.6190   -1.1238 H   0  0  0  0  0  0  0  0  0  0  0  0
    9.8230    0.9685   -1.7601 H   0  0  0  0  0  0  0  0  0  0  0  0
    7.5758   -2.1429    0.2099 H   0  0  0  0  0  0  0  0  0  0  0  0
    0.5680    1.5218    1.0280 H   0  0  0  0  0  0  0  0  0  0  0  0
   -0.4471    0.3558    1.8318 H   0  0  0  0  0  0  0  0  0  0  0  0
   -2.1224   -0.7896    1.7697 H   0  0  0  0  0  0  0  0  0  0  0  0
   -3.4299   -1.3283    0.7744 H   0  0  0  0  0  0  0  0  0  0  0  0
   -2.8259    1.5950    1.4975 H   0  0  0  0  0  0  0  0  0  0  0  0
   -4.0819    0.6370    2.2091 H   0  0  0  0  0  0  0  0  0  0  0  0
   -6.5061    1.6113   -1.6823 H   0  0  0  0  0  0  0  0  0  0  0  0
  1  2  1  0
  2  3  1  0
  3  4  2  0
  4  5  1  0
  5  6  2  0
  6  7  1  0
  7  8  1  1
  7  9  1  0
  9 10  1  0
 10 11  1  0
 11 12  1  0
 12 13  1  0
 13 14  1  0
 14 15  1  0
 15 16  1  0
 16 17  1  0
 17 18  2  0
 17 19  1  0
 19 20  1  0
 20 21  1  0
 21 22  2  0
 21 23  1  0
 23 24  2  0
 24 25  1  0
 25 26  2  0
 26 27  1  0
 27 28  1  0
 28 29  1  0
 28 30  1  0
 28 31  1  0
 27 32  2  0
 15 33  1  0
 11 34  1  0
 34 35  1  0
  6 36  1  0
 36 37  2  0
 37  3  1  0
 35  7  1  0
 33 12  1  0
 32 23  1  0
  1 38  1  0
  1 39  1  0
  1 40  1  0
  4 41  1  0
  5 42  1  0
  8 43  1  0
  9 44  1  0
  9 45  1  0
 10 46  1  0
 10 47  1  0
 11 48  1  6
 13 49  1  0
 13 50  1  0
 14 51  1  0
 14 52  1  0
 15 53  1  6
 16 54  1  0
 19 55  1  0
 19 56  1  0
 20 57  1  0
 24 58  1  0
 25 59  1  0
 26 60  1  0
 32 61  1  0
 33 62  1  0
 33 63  1  0
 34 64  1  0
 34 65  1  0
 35 66  1  0
 35 67  1  0
 36 68  1  0
M  END
$$$$
