
     RDKit          3D

 72 76  0  0  0  0  0  0  0  0999 V2000
   -5.0640   -4.7960   -1.3894 C   0  0  0  0  0  0  0  0  0  0  0  0
   -4.8432   -3.4730   -1.8648 O   0  0  0  0  0  0  0  0  0  0  0  0
   -4.2744   -2.5846   -0.9913 C   0  0  0  0  0  0  0  0  0  0  0  0
   -4.1441   -1.2850   -1.4928 C   0  0  0  0  0  0  0  0  0  0  0  0
   -3.5786   -0.2535   -0.7299 C   0  0  0  0  0  0  0  0  0  0  0  0
   -3.4244    1.0162   -1.3188 N   0  0  0  0  0  0  0  0  0  0  0  0
   -3.1399    2.2697   -0.7503 C   0  0  0  0  0  0  0  0  0  0  0  0
   -3.2450    2.4281    0.5920 N   0  0  0  0  0  0  0  0  0  0  0  0
   -2.9508    3.6265    1.1277 C   0  0  0  0  0  0  0  0  0  0  0  0
   -3.0401    3.8061    2.5029 C   0  0  0  0  0  0  0  0  0  0  0  0
   -2.7387    5.0325    3.0964 C   0  0  0  0  0  0  0  0  0  0  0  0
   -2.3484    6.1001    2.2995 C   0  0  0  0  0  0  0  0  0  0  0  0
   -2.2582    5.9303    0.9176 C   0  0  0  0  0  0  0  0  0  0  0  0
   -2.5475    4.7102    0.3191 C   0  0  0  0  0  0  0  0  0  0  0  0
   -2.4337    4.5807   -1.0123 N   0  0  0  0  0  0  0  0  0  0  0  0
   -2.6978    3.3581   -1.5289 C   0  0  0  0  0  0  0  0  0  0  0  0
   -2.5502    3.4481   -2.9316 N   0  0  0  0  0  0  0  0  0  0  0  0
   -2.0986    2.2018   -3.9210 S   0  0  0  0  0  6  0  0  0  0  0  0
   -3.1939    1.2507   -3.9464 O   0  0  0  0  0  0  0  0  0  0  0  0
   -1.6176    2.8083   -5.1448 O   0  0  0  0  0  0  0  0  0  0  0  0
   -0.6989    1.4436   -3.1420 C   0  0  0  0  0  0  0  0  0  0  0  0
    0.3587    2.2309   -2.6841 C   0  0  0  0  0  0  0  0  0  0  0  0
    1.4502    1.6216   -2.0524 C   0  0  0  0  0  0  0  0  0  0  0  0
    1.4939    0.2338   -1.8845 C   0  0  0  0  0  0  0  0  0  0  0  0
    2.5656   -0.4515   -1.2755 N   0  0  0  0  0  0  0  0  0  0  0  0
    3.6384    0.1026   -0.6037 C   0  0  0  0  0  0  0  0  0  0  0  0
    3.7959    1.2838   -0.3213 O   0  0  0  0  0  0  0  0  0  0  0  0
    4.6580   -0.8820   -0.1445 C   0  0  0  0  0  0  0  0  0  0  0  0
    5.0321   -1.9656   -0.9466 C   0  0  0  0  0  0  0  0  0  0  0  0
    5.9985   -2.8625   -0.4899 C   0  0  0  0  0  0  0  0  0  0  0  0
    6.5998   -2.6836    0.7657 C   0  0  0  0  0  0  0  0  0  0  0  0
    7.6445   -3.6617    1.2362 C   0  0  0  0  0  0  0  0  0  0  0  0
    6.2315   -1.5847    1.5666 C   0  0  0  0  0  0  0  0  0  0  0  0
    6.8795   -1.4869    2.7705 O   0  0  0  0  0  0  0  0  0  0  0  0
    6.5133   -0.4094    3.6254 C   0  0  0  0  0  0  0  0  0  0  0  0
    5.2654   -0.6864    1.1031 C   0  0  0  0  0  0  0  0  0  0  0  0
    0.4311   -0.5439   -2.3669 C   0  0  0  0  0  0  0  0  0  0  0  0
   -0.6642    0.0564   -2.9926 C   0  0  0  0  0  0  0  0  0  0  0  0
   -3.1091   -0.5762    0.5455 C   0  0  0  0  0  0  0  0  0  0  0  0
   -3.2415   -1.8677    1.0696 C   0  0  0  0  0  0  0  0  0  0  0  0
   -2.7421   -2.0189    2.3371 O   0  0  0  0  0  0  0  0  0  0  0  0
   -3.0277   -3.2424    3.0007 C   0  0  0  0  0  0  0  0  0  0  0  0
   -3.8238   -2.8743    0.2968 C   0  0  0  0  0  0  0  0  0  0  0  0
   -5.7383   -4.7999   -0.5266 H   0  0  0  0  0  0  0  0  0  0  0  0
   -5.5474   -5.3627   -2.1906 H   0  0  0  0  0  0  0  0  0  0  0  0
   -4.1164   -5.2943   -1.1551 H   0  0  0  0  0  0  0  0  0  0  0  0
   -4.4933   -1.0818   -2.5034 H   0  0  0  0  0  0  0  0  0  0  0  0
   -3.8956    1.0995   -2.2228 H   0  0  0  0  0  0  0  0  0  0  0  0
   -3.3479    2.9658    3.1226 H   0  0  0  0  0  0  0  0  0  0  0  0
   -2.8079    5.1508    4.1735 H   0  0  0  0  0  0  0  0  0  0  0  0
   -2.1115    7.0629    2.7469 H   0  0  0  0  0  0  0  0  0  0  0  0
   -1.9501    6.7677    0.2955 H   0  0  0  0  0  0  0  0  0  0  0  0
   -2.2227    4.3665   -3.2244 H   0  0  0  0  0  0  0  0  0  0  0  0
    0.3548    3.3111   -2.8118 H   0  0  0  0  0  0  0  0  0  0  0  0
    2.2617    2.2599   -1.7112 H   0  0  0  0  0  0  0  0  0  0  0  0
    2.4880   -1.4610   -1.2591 H   0  0  0  0  0  0  0  0  0  0  0  0
    4.6062   -2.1074   -1.9368 H   0  0  0  0  0  0  0  0  0  0  0  0
    6.2910   -3.6977   -1.1238 H   0  0  0  0  0  0  0  0  0  0  0  0
    8.6065   -3.1540    1.3604 H   0  0  0  0  0  0  0  0  0  0  0  0
    7.7884   -4.4765    0.5171 H   0  0  0  0  0  0  0  0  0  0  0  0
    7.3427   -4.1100    2.1899 H   0  0  0  0  0  0  0  0  0  0  0  0
    5.4665   -0.4942    3.9314 H   0  0  0  0  0  0  0  0  0  0  0  0
    6.7134    0.5575    3.1523 H   0  0  0  0  0  0  0  0  0  0  0  0
    7.1336   -0.4716    4.5277 H   0  0  0  0  0  0  0  0  0  0  0  0
    4.9629    0.1741    1.6897 H   0  0  0  0  0  0  0  0  0  0  0  0
    0.4331   -1.6253   -2.2511 H   0  0  0  0  0  0  0  0  0  0  0  0
   -1.4850   -0.5633   -3.3476 H   0  0  0  0  0  0  0  0  0  0  0  0
   -2.6194    0.1749    1.1590 H   0  0  0  0  0  0  0  0  0  0  0  0
   -2.5107   -4.0806    2.5226 H   0  0  0  0  0  0  0  0  0  0  0  0
   -4.1061   -3.4199    3.0602 H   0  0  0  0  0  0  0  0  0  0  0  0
   -2.6469   -3.1628    4.0228 H   0  0  0  0  0  0  0  0  0  0  0  0
   -3.9098   -3.8778    0.6907 H   0  0  0  0  0  0  0  0  0  0  0  0
  1  2  1  0
  2  3  1  0
  3  4  2  0
  4  5  1  0
  5  6  1  0
  6  7  1  0
  7  8  2  0
  8  9  1  0
  9 10  2  0
 10 11  1  0
 11 12  2  0
 12 13  1  0
 13 14  2  0
 14 15  1  0
 15 16  2  0
 16 17  1  0
 17 18  1  0
 18 19  2  0
 18 20  2  0
 18 21  1  0
 21 22  2  0
 22 23  1  0
 23 24  2  0
 24 25  1  0
 25 26  1  0
 26 27  2  0
 26 28  1  0
 28 29  2  0
 29 30  1  0
 30 31  2  0
 31 32  1  0
 31 33  1  0
 33 34  1  0
 34 35  1  0
 33 36  2  0
 24 37  1  0
 37 38  2  0
  5 39  2  0
 39 40  1  0
 40 41  1  0
 41 42  1  0
 40 43  2  0
 43  3  1  0
 16  7  1  0
 38 21  1  0
 14  9  1  0
 36 28  1  0
  1 44  1  0
  1 45  1  0
  1 46  1  0
  4 47  1  0
  6 48  1  0
 10 49  1  0
 11 50  1  0
 12 51  1  0
 13 52  1  0
 17 53  1  0
 22 54  1  0
 23 55  1  0
 25 56  1  0
 29 57  1  0
 30 58  1  0
 32 59  1  0
 32 60  1  0
 32 61  1  0
 35 62  1  0
 35 63  1  0
 35 64  1  0
 36 65  1  0
 37 66  1  0
 38 67  1  0
 39 68  1  0
 42 69  1  0
 42 70  1  0
 42 71  1  0
 43 72  1  0
M  END
$$$$
