
     RDKit          3D

 38 40  0  0  0  0  0  0  0  0999 V2000
    0.4503   -1.6710   -1.5396 C   0  0  0  0  0  0  0  0  0  0  0  0
    0.1259   -0.4892   -0.6881 C   0  0  0  0  0  0  0  0  0  0  0  0
   -1.0422    0.2619   -0.6224 C   0  0  0  0  0  0  0  0  0  0  0  0
   -2.2932    0.0594   -1.4182 C   0  0  0  0  0  0  0  0  0  0  0  0
   -3.0805   -1.0513   -0.9044 N   0  0  0  0  0  0  0  0  0  0  0  0
   -3.3952   -2.2016   -1.5774 C   0  0  0  0  0  0  0  0  0  0  0  0
   -4.2058   -2.9048   -0.7171 C   0  0  0  0  0  0  0  0  0  0  0  0
   -4.3968   -2.2115    0.4486 N   0  0  0  0  0  0  0  0  0  0  0  0
   -3.7044   -1.1017    0.3109 C   0  0  0  0  0  0  0  0  0  0  0  0
   -0.8319    1.2905    0.3539 C   0  0  0  0  0  0  0  0  0  0  0  0
   -1.6290    2.3485    0.8467 C   0  0  0  0  0  0  0  0  0  0  0  0
   -1.1233    3.2021    1.8327 C   0  0  0  0  0  0  0  0  0  0  0  0
    0.1604    3.0182    2.3318 C   0  0  0  0  0  0  0  0  0  0  0  0
    0.9699    1.9804    1.8623 C   0  0  0  0  0  0  0  0  0  0  0  0
    0.4529    1.1252    0.8723 C   0  0  0  0  0  0  0  0  0  0  0  0
    1.0101    0.0330    0.2335 N   0  0  0  0  0  0  0  0  0  0  0  0
    2.3442   -0.4825    0.5135 C   0  0  0  0  0  0  0  0  0  0  0  0
    3.4080    0.2372   -0.2925 C   0  0  0  0  0  0  0  0  0  0  0  0
    4.7452   -0.3466    0.0321 C   0  0  0  0  0  0  0  0  0  0  0  0
    5.0902   -1.5028   -0.1541 O   0  0  0  0  0  0  0  0  0  0  0  0
    5.5845    0.5465    0.5860 O   0  0  0  0  0  0  0  0  0  0  0  0
    0.4773   -2.5837   -0.9339 H   0  0  0  0  0  0  0  0  0  0  0  0
    1.4210   -1.5495   -2.0332 H   0  0  0  0  0  0  0  0  0  0  0  0
   -0.2960   -1.8111   -2.3245 H   0  0  0  0  0  0  0  0  0  0  0  0
   -2.9399    0.9429   -1.3979 H   0  0  0  0  0  0  0  0  0  0  0  0
   -2.0544   -0.1469   -2.4667 H   0  0  0  0  0  0  0  0  0  0  0  0
   -3.0330   -2.4197   -2.5723 H   0  0  0  0  0  0  0  0  0  0  0  0
   -4.6643   -3.8708   -0.8759 H   0  0  0  0  0  0  0  0  0  0  0  0
   -3.6211   -0.3155    1.0514 H   0  0  0  0  0  0  0  0  0  0  0  0
   -2.6351    2.5078    0.4700 H   0  0  0  0  0  0  0  0  0  0  0  0
   -1.7409    4.0145    2.2123 H   0  0  0  0  0  0  0  0  0  0  0  0
    0.5407    3.6892    3.1006 H   0  0  0  0  0  0  0  0  0  0  0  0
    1.9700    1.8497    2.2631 H   0  0  0  0  0  0  0  0  0  0  0  0
    2.5257   -0.3793    1.5895 H   0  0  0  0  0  0  0  0  0  0  0  0
    2.3445   -1.5591    0.3116 H   0  0  0  0  0  0  0  0  0  0  0  0
    3.4096    1.3083   -0.0722 H   0  0  0  0  0  0  0  0  0  0  0  0
    3.2425    0.1384   -1.3688 H   0  0  0  0  0  0  0  0  0  0  0  0
    6.4137    0.0450    0.7366 H   0  0  0  0  0  0  0  0  0  0  0  0
  1  2  1  0
  2  3  2  0
  3  4  1  0
  4  5  1  0
  5  6  1  0
  6  7  2  0
  7  8  1  0
  8  9  2  0
  3 10  1  0
 10 11  2  0
 11 12  1  0
 12 13  2  0
 13 14  1  0
 14 15  2  0
 15 16  1  0
 16 17  1  0
 17 18  1  0
 18 19  1  0
 19 20  2  0
 19 21  1  0
 16  2  1  0
  9  5  1  0
 15 10  1  0
  1 22  1  0
  1 23  1  0
  1 24  1  0
  4 25  1  0
  4 26  1  0
  6 27  1  0
  7 28  1  0
  9 29  1  0
 11 30  1  0
 12 31  1  0
 13 32  1  0
 14 33  1  0
 17 34  1  0
 17 35  1  0
 18 36  1  0
 18 37  1  0
 21 38  1  0
M  END
$$$$
