
     RDKit          3D

 58 61  0  0  0  0  0  0  0  0999 V2000
   -0.2056   -3.9709    2.2575 C   0  0  0  0  0  0  0  0  0  0  0  0
   -0.1996   -2.6604    1.7017 O   0  0  0  0  0  0  0  0  0  0  0  0
   -1.1027   -2.4029    0.6959 C   0  0  0  0  0  0  0  0  0  0  0  0
   -2.0053   -3.3324    0.1708 C   0  0  0  0  0  0  0  0  0  0  0  0
   -2.8870   -3.0026   -0.8514 C   0  0  0  0  0  0  0  0  0  0  0  0
   -3.7155   -3.9498   -1.2964 N   0  0  0  0  0  0  0  0  0  0  0  0
   -4.5576   -3.6000   -2.2738 C   0  0  0  0  0  0  0  0  0  0  0  0
   -4.6416   -2.3986   -2.8493 N   0  0  0  0  0  0  0  0  0  0  0  0
   -3.7978   -1.4492   -2.4066 C   0  0  0  0  0  0  0  0  0  0  0  0
   -3.8407   -0.1539   -2.9891 N   0  0  0  0  0  0  0  0  0  0  0  0
   -4.8035    0.4018   -3.8596 C   0  0  0  0  0  0  0  0  0  0  0  0
   -4.4346    1.4944   -4.6647 C   0  0  0  0  0  0  0  0  0  0  0  0
   -5.3613    2.1188   -5.5039 C   0  0  0  0  0  0  0  0  0  0  0  0
   -6.6756    1.6703   -5.5276 C   0  0  0  0  0  0  0  0  0  0  0  0
   -7.5515    2.2828   -6.3379 F   0  0  0  0  0  0  0  0  0  0  0  0
   -7.0729    0.6149   -4.7133 C   0  0  0  0  0  0  0  0  0  0  0  0
   -8.7084    0.0732   -4.7180 Cl  0  0  0  0  0  0  0  0  0  0  0  0
   -6.1443   -0.0070   -3.8744 C   0  0  0  0  0  0  0  0  0  0  0  0
   -2.8742   -1.7016   -1.3700 C   0  0  0  0  0  0  0  0  0  0  0  0
   -1.9676   -0.7510   -0.8342 C   0  0  0  0  0  0  0  0  0  0  0  0
   -1.0798   -1.0957    0.1833 C   0  0  0  0  0  0  0  0  0  0  0  0
   -0.1395   -0.2007    0.7395 N   0  0  0  0  0  0  0  0  0  0  0  0
    0.1028    1.1035    0.3864 C   0  0  0  0  0  0  0  0  0  0  0  0
   -0.4922    1.7624   -0.4587 O   0  0  0  0  0  0  0  0  0  0  0  0
    1.1766    1.7693    1.1752 C   0  0  0  0  0  0  0  0  0  0  0  0
    2.2577    1.1607    1.6917 C   0  0  0  0  0  0  0  0  0  0  0  0
    3.3324    1.8885    2.4516 C   0  0  0  0  0  0  0  0  0  0  0  0
    4.6257    1.8173    1.7627 N   0  0  0  0  0  0  0  0  0  0  0  0
    5.2991    0.5138    1.8833 C   0  0  0  0  0  0  0  0  0  0  0  0
    5.8817    0.2307    3.2715 C   0  0  0  0  0  0  0  0  0  0  0  0
    6.7919    1.3628    3.7351 C   0  0  0  0  0  0  0  0  0  0  0  0
    6.0969    2.7127    3.5957 C   0  0  0  0  0  0  0  0  0  0  0  0
    5.5317    2.8977    2.1856 C   0  0  0  0  0  0  0  0  0  0  0  0
   -1.1706   -4.1981    2.7224 H   0  0  0  0  0  0  0  0  0  0  0  0
    0.0599   -4.7196    1.5040 H   0  0  0  0  0  0  0  0  0  0  0  0
    0.5570   -4.0034    3.0415 H   0  0  0  0  0  0  0  0  0  0  0  0
   -2.0479   -4.3508    0.5446 H   0  0  0  0  0  0  0  0  0  0  0  0
   -5.2369   -4.3648   -2.6346 H   0  0  0  0  0  0  0  0  0  0  0  0
   -2.8983    0.1419   -3.2257 H   0  0  0  0  0  0  0  0  0  0  0  0
   -3.4138    1.8708   -4.6467 H   0  0  0  0  0  0  0  0  0  0  0  0
   -5.0668    2.9543   -6.1312 H   0  0  0  0  0  0  0  0  0  0  0  0
   -6.4800   -0.8094   -3.2240 H   0  0  0  0  0  0  0  0  0  0  0  0
   -1.9847    0.2628   -1.2193 H   0  0  0  0  0  0  0  0  0  0  0  0
    0.3999   -0.6037    1.4975 H   0  0  0  0  0  0  0  0  0  0  0  0
    1.0573    2.8468    1.2424 H   0  0  0  0  0  0  0  0  0  0  0  0
    2.4052    0.0940    1.5613 H   0  0  0  0  0  0  0  0  0  0  0  0
    3.0276    2.9388    2.5531 H   0  0  0  0  0  0  0  0  0  0  0  0
    3.3826    1.4909    3.4714 H   0  0  0  0  0  0  0  0  0  0  0  0
    4.6312   -0.3048    1.5938 H   0  0  0  0  0  0  0  0  0  0  0  0
    6.1155    0.4852    1.1490 H   0  0  0  0  0  0  0  0  0  0  0  0
    6.4500   -0.7064    3.2455 H   0  0  0  0  0  0  0  0  0  0  0  0
    5.0747    0.0861    3.9991 H   0  0  0  0  0  0  0  0  0  0  0  0
    7.7077    1.3622    3.1309 H   0  0  0  0  0  0  0  0  0  0  0  0
    7.0948    1.2004    4.7753 H   0  0  0  0  0  0  0  0  0  0  0  0
    6.8102    3.5158    3.8138 H   0  0  0  0  0  0  0  0  0  0  0  0
    5.2935    2.7931    4.3379 H   0  0  0  0  0  0  0  0  0  0  0  0
    6.3647    2.9493    1.4719 H   0  0  0  0  0  0  0  0  0  0  0  0
    5.0293    3.8699    2.1109 H   0  0  0  0  0  0  0  0  0  0  0  0
  1  2  1  0
  2  3  1  0
  3  4  2  0
  4  5  1  0
  5  6  2  0
  6  7  1  0
  7  8  2  0
  8  9  1  0
  9 10  1  0
 10 11  1  0
 11 12  2  0
 12 13  1  0
 13 14  2  0
 14 15  1  0
 14 16  1  0
 16 17  1  0
 16 18  2  0
  9 19  2  0
 19 20  1  0
 20 21  2  0
 21 22  1  0
 22 23  1  0
 23 24  2  0
 23 25  1  0
 25 26  2  0
 26 27  1  0
 27 28  1  0
 28 29  1  0
 29 30  1  0
 30 31  1  0
 31 32  1  0
 32 33  1  0
 21  3  1  0
 33 28  1  0
 19  5  1  0
 18 11  1  0
  1 34  1  0
  1 35  1  0
  1 36  1  0
  4 37  1  0
  7 38  1  0
 10 39  1  0
 12 40  1  0
 13 41  1  0
 18 42  1  0
 20 43  1  0
 22 44  1  0
 25 45  1  0
 26 46  1  0
 27 47  1  0
 27 48  1  0
 29 49  1  0
 29 50  1  0
 30 51  1  0
 30 52  1  0
 31 53  1  0
 31 54  1  0
 32 55  1  0
 32 56  1  0
 33 57  1  0
 33 58  1  0
M  END
$$$$
