
     RDKit          3D

 47 50  0  0  0  0  0  0  0  0999 V2000
    6.8053   -0.4784    1.7705 C   0  0  0  0  0  0  0  0  0  0  0  0
    5.8686   -0.2019    0.7386 O   0  0  0  0  0  0  0  0  0  0  0  0
    4.5382   -0.3732    1.0250 C   0  0  0  0  0  0  0  0  0  0  0  0
    4.0530   -0.9301    2.2120 C   0  0  0  0  0  0  0  0  0  0  0  0
    2.6793   -1.0313    2.4341 C   0  0  0  0  0  0  0  0  0  0  0  0
    1.7793   -0.5773    1.4708 C   0  0  0  0  0  0  0  0  0  0  0  0
    2.2355   -0.0292    0.2605 C   0  0  0  0  0  0  0  0  0  0  0  0
    1.2447    0.4244   -0.7094 C   0  0  0  0  0  0  0  0  0  0  0  0
    1.3769    0.3351   -2.0429 N   0  0  0  0  0  0  0  0  0  0  0  0
    0.1772    0.8400   -2.5357 O   0  0  0  0  0  0  0  0  0  0  0  0
   -0.5790    1.1686   -1.4516 C   0  0  0  0  0  0  0  0  0  0  0  0
   -1.9278    1.7341   -1.7151 C   0  0  0  0  0  0  0  0  0  0  0  0
   -2.9237    0.6709   -1.8161 N   0  0  0  0  0  0  0  0  0  0  0  0
   -3.2157    0.1730   -3.0781 C   0  0  0  0  0  0  0  0  0  0  0  0
   -2.7194    0.6169   -4.1136 O   0  0  0  0  0  0  0  0  0  0  0  0
   -4.1386   -1.0382   -3.0962 C   0  0  0  0  0  0  0  0  0  0  0  0
   -5.1097   -1.1524   -2.0752 O   0  0  0  0  0  0  0  0  0  0  0  0
   -4.6437   -0.7616   -0.8495 C   0  0  0  0  0  0  0  0  0  0  0  0
   -5.3444   -1.2721    0.2447 C   0  0  0  0  0  0  0  0  0  0  0  0
   -4.9749   -0.9190    1.5401 C   0  0  0  0  0  0  0  0  0  0  0  0
   -3.9150   -0.0337    1.7480 C   0  0  0  0  0  0  0  0  0  0  0  0
   -3.4838    0.3229    3.1411 C   0  0  0  0  0  0  0  0  0  0  0  0
   -3.2195    0.4804    0.6401 C   0  0  0  0  0  0  0  0  0  0  0  0
   -3.5775    0.1314   -0.6714 C   0  0  0  0  0  0  0  0  0  0  0  0
    0.0213    0.9265   -0.3070 N   0  0  0  0  0  0  0  0  0  0  0  0
    3.6227    0.0557    0.0404 C   0  0  0  0  0  0  0  0  0  0  0  0
    4.0881    0.6661   -1.1030 O   0  0  0  0  0  0  0  0  0  0  0  0
    4.6058   -0.2985   -2.0208 C   0  0  0  0  0  0  0  0  0  0  0  0
    7.8006   -0.2204    1.3961 H   0  0  0  0  0  0  0  0  0  0  0  0
    6.8108   -1.5444    2.0200 H   0  0  0  0  0  0  0  0  0  0  0  0
    6.6140    0.1357    2.6567 H   0  0  0  0  0  0  0  0  0  0  0  0
    4.7189   -1.2886    2.9900 H   0  0  0  0  0  0  0  0  0  0  0  0
    2.3088   -1.4589    3.3628 H   0  0  0  0  0  0  0  0  0  0  0  0
    0.7109   -0.6578    1.6661 H   0  0  0  0  0  0  0  0  0  0  0  0
   -2.2159    2.4469   -0.9353 H   0  0  0  0  0  0  0  0  0  0  0  0
   -1.9024    2.3114   -2.6470 H   0  0  0  0  0  0  0  0  0  0  0  0
   -3.5132   -1.9394   -3.0936 H   0  0  0  0  0  0  0  0  0  0  0  0
   -4.6817   -1.0188   -4.0476 H   0  0  0  0  0  0  0  0  0  0  0  0
   -6.1774   -1.9521    0.0848 H   0  0  0  0  0  0  0  0  0  0  0  0
   -5.5209   -1.3370    2.3829 H   0  0  0  0  0  0  0  0  0  0  0  0
   -4.3192    0.2401    3.8443 H   0  0  0  0  0  0  0  0  0  0  0  0
   -3.1248    1.3565    3.1842 H   0  0  0  0  0  0  0  0  0  0  0  0
   -2.6814   -0.3464    3.4665 H   0  0  0  0  0  0  0  0  0  0  0  0
   -2.3867    1.1486    0.8399 H   0  0  0  0  0  0  0  0  0  0  0  0
    4.5930    0.1511   -3.0183 H   0  0  0  0  0  0  0  0  0  0  0  0
    3.9994   -1.2112   -2.0540 H   0  0  0  0  0  0  0  0  0  0  0  0
    5.6440   -0.5443   -1.7786 H   0  0  0  0  0  0  0  0  0  0  0  0
  1  2  1  0
  2  3  1  0
  3  4  2  0
  4  5  1  0
  5  6  2  0
  6  7  1  0
  7  8  1  0
  8  9  2  0
  9 10  1  0
 10 11  1  0
 11 12  1  0
 12 13  1  0
 13 14  1  0
 14 15  2  0
 14 16  1  0
 16 17  1  0
 17 18  1  0
 18 19  2  0
 19 20  1  0
 20 21  2  0
 21 22  1  0
 21 23  1  0
 23 24  2  0
 11 25  2  0
  7 26  2  0
 26 27  1  0
 27 28  1  0
 26  3  1  0
 25  8  1  0
 24 13  1  0
 24 18  1  0
  1 29  1  0
  1 30  1  0
  1 31  1  0
  4 32  1  0
  5 33  1  0
  6 34  1  0
 12 35  1  0
 12 36  1  0
 16 37  1  0
 16 38  1  0
 19 39  1  0
 20 40  1  0
 22 41  1  0
 22 42  1  0
 22 43  1  0
 23 44  1  0
 28 45  1  0
 28 46  1  0
 28 47  1  0
M  END
$$$$
