
     RDKit          3D

 47 50  0  0  0  0  0  0  0  0999 V2000
    0.6068    1.7365   -0.8795 O   0  0  0  0  0  0  0  0  0  0  0  0
    0.9521    0.6462   -0.4389 C   0  0  0  0  0  0  0  0  0  0  0  0
   -0.0541   -0.3581    0.0859 C   0  0  0  0  0  0  0  0  0  0  0  0
   -1.4783    0.1368   -0.0915 C   0  0  2  0  0  0  0  0  0  0  0  0
   -1.8778    1.1234    0.8813 N   0  0  0  0  0  0  0  0  0  0  0  0
   -3.0452    0.7705    1.5208 C   0  0  0  0  0  0  0  0  0  0  0  0
   -3.6528    1.5025    2.2835 O   0  0  0  0  0  0  0  0  0  0  0  0
   -3.3704   -0.4974    1.1485 N   0  0  0  0  0  0  0  0  0  0  0  0
   -4.5330   -1.2127    1.6171 C   0  0  0  0  0  0  0  0  0  0  0  0
   -5.7281   -0.9827    0.7221 C   0  0  0  0  0  0  0  0  0  0  0  0
   -6.5753    0.1143    0.9356 C   0  0  0  0  0  0  0  0  0  0  0  0
   -7.6661    0.3398    0.0948 C   0  0  0  0  0  0  0  0  0  0  0  0
   -7.9165   -0.5229   -0.9706 C   0  0  0  0  0  0  0  0  0  0  0  0
   -7.0739   -1.6090   -1.2002 C   0  0  0  0  0  0  0  0  0  0  0  0
   -5.9823   -1.8366   -0.3609 C   0  0  0  0  0  0  0  0  0  0  0  0
   -2.4883   -0.9666    0.2171 C   0  0  0  0  0  0  0  0  0  0  0  0
   -2.4935   -2.0748   -0.3026 O   0  0  0  0  0  0  0  0  0  0  0  0
    2.2483    0.1687   -0.3361 N   0  0  0  0  0  0  0  0  0  0  0  0
    3.4398    0.8218   -0.7171 C   0  0  0  0  0  0  0  0  0  0  0  0
    3.4874    2.0978   -1.2789 C   0  0  0  0  0  0  0  0  0  0  0  0
    4.7128    2.6720   -1.6281 C   0  0  0  0  0  0  0  0  0  0  0  0
    5.9018    1.9738   -1.4181 C   0  0  0  0  0  0  0  0  0  0  0  0
    5.8787    0.6922   -0.8561 C   0  0  0  0  0  0  0  0  0  0  0  0
    7.1131   -0.0533   -0.6291 C   0  0  0  0  0  0  0  0  0  0  0  0
    7.1182   -1.3182   -0.0749 N   0  0  0  0  0  0  0  0  0  0  0  0
    8.3897   -1.6354   -0.0388 C   0  0  0  0  0  0  0  0  0  0  0  0
    9.1226   -0.6136   -0.5461 N   0  0  0  0  0  0  0  0  0  0  0  0
    8.3402    0.4051   -0.9293 N   0  0  0  0  0  0  0  0  0  0  0  0
    4.6402    0.1273   -0.5100 C   0  0  0  0  0  0  0  0  0  0  0  0
    0.0893   -1.2942   -0.4679 H   0  0  0  0  0  0  0  0  0  0  0  0
    0.1635   -0.5546    1.1430 H   0  0  0  0  0  0  0  0  0  0  0  0
   -1.6836    0.5318   -1.0923 H   0  0  0  0  0  0  0  0  0  0  0  0
   -1.5726    2.0904    0.8702 H   0  0  0  0  0  0  0  0  0  0  0  0
   -4.7694   -0.8918    2.6387 H   0  0  0  0  0  0  0  0  0  0  0  0
   -4.3020   -2.2838    1.6578 H   0  0  0  0  0  0  0  0  0  0  0  0
   -6.3841    0.8051    1.7556 H   0  0  0  0  0  0  0  0  0  0  0  0
   -8.3170    1.1928    0.2689 H   0  0  0  0  0  0  0  0  0  0  0  0
   -8.7649   -0.3448   -1.6261 H   0  0  0  0  0  0  0  0  0  0  0  0
   -7.2634   -2.2768   -2.0365 H   0  0  0  0  0  0  0  0  0  0  0  0
   -5.3250   -2.6813   -0.5613 H   0  0  0  0  0  0  0  0  0  0  0  0
    2.3662   -0.7577    0.0575 H   0  0  0  0  0  0  0  0  0  0  0  0
    2.5884    2.6779   -1.4609 H   0  0  0  0  0  0  0  0  0  0  0  0
    4.7377    3.6672   -2.0653 H   0  0  0  0  0  0  0  0  0  0  0  0
    6.8470    2.4361   -1.6960 H   0  0  0  0  0  0  0  0  0  0  0  0
    8.8206   -2.5551    0.3294 H   0  0  0  0  0  0  0  0  0  0  0  0
   10.1271   -0.5392   -0.6601 H   0  0  0  0  0  0  0  0  0  0  0  0
    4.6259   -0.8694   -0.0733 H   0  0  0  0  0  0  0  0  0  0  0  0
  1  2  2  0
  2  3  1  0
  3  4  1  0
  4  5  1  0
  5  6  1  0
  6  7  2  0
  6  8  1  0
  8  9  1  0
  9 10  1  0
 10 11  2  0
 11 12  1  0
 12 13  2  0
 13 14  1  0
 14 15  2  0
  8 16  1  0
 16 17  2  0
  2 18  1  0
 18 19  1  0
 19 20  2  0
 20 21  1  0
 21 22  2  0
 22 23  1  0
 23 24  1  0
 24 25  1  0
 25 26  2  0
 26 27  1  0
 27 28  1  0
 23 29  2  0
 16  4  1  0
 29 19  1  0
 15 10  1  0
 28 24  2  0
  3 30  1  0
  3 31  1  0
  4 32  1  6
  5 33  1  0
  9 34  1  0
  9 35  1  0
 11 36  1  0
 12 37  1  0
 13 38  1  0
 14 39  1  0
 15 40  1  0
 18 41  1  0
 20 42  1  0
 21 43  1  0
 22 44  1  0
 26 45  1  0
 27 46  1  0
 29 47  1  0
M  END
$$$$
