
     RDKit          3D

 63 67  0  0  0  0  0  0  0  0999 V2000
   -4.5675   -2.7417   -0.7945 O   0  0  0  0  0  0  0  0  0  0  0  0
   -5.2342   -1.9178   -0.1900 C   0  0  0  0  0  0  0  0  0  0  0  0
   -6.5960   -2.0495    0.1185 N   0  0  0  0  0  0  0  0  0  0  0  0
   -7.0254   -0.9041    0.7748 C   0  0  0  0  0  0  0  0  0  0  0  0
   -8.2842   -0.5959    1.2376 C   0  0  0  0  0  0  0  0  0  0  0  0
   -8.4400    0.6490    1.8514 C   0  0  0  0  0  0  0  0  0  0  0  0
   -7.3506    1.5348    1.9825 C   0  0  0  0  0  0  0  0  0  0  0  0
   -6.0789    1.1956    1.5032 C   0  0  0  0  0  0  0  0  0  0  0  0
   -5.9393   -0.0364    0.9012 C   0  0  0  0  0  0  0  0  0  0  0  0
   -4.8230   -0.6663    0.3221 N   0  0  0  0  0  0  0  0  0  0  0  0
   -3.4974   -0.0857    0.1886 C   0  0  0  0  0  0  0  0  0  0  0  0
   -2.4065   -0.9865    0.7734 C   0  0  0  0  0  0  0  0  0  0  0  0
   -1.0402   -0.2929    0.7137 C   0  0  0  0  0  0  0  0  0  0  0  0
   -0.8995    0.6223   -0.4272 N   0  0  0  0  0  0  0  0  0  0  0  0
    0.4971    0.9574   -0.7288 C   0  0  0  0  0  0  0  0  0  0  0  0
    1.3327   -0.1544   -1.3829 C   0  0  0  0  0  0  0  0  0  0  0  0
    2.7807    0.2638   -1.6934 C   0  0  0  0  0  0  0  0  0  0  0  0
    3.6432    0.6417   -0.4611 C   0  0  0  0  0  0  0  0  0  0  0  0
    5.0278    1.1675   -0.8465 C   0  0  0  0  0  0  0  0  0  0  0  0
    5.5303    2.3163   -0.2052 C   0  0  0  0  0  0  0  0  0  0  0  0
    6.7960    2.8148   -0.5204 C   0  0  0  0  0  0  0  0  0  0  0  0
    7.5687    2.1651   -1.4720 C   0  0  0  0  0  0  0  0  0  0  0  0
    8.7830    2.6427   -1.7741 F   0  0  0  0  0  0  0  0  0  0  0  0
    7.1029    1.0248   -2.1118 C   0  0  0  0  0  0  0  0  0  0  0  0
    5.8370    0.5241   -1.7988 C   0  0  0  0  0  0  0  0  0  0  0  0
    3.7373   -0.4578    0.5926 C   0  0  0  0  0  0  0  0  0  0  0  0
    3.4931   -0.1450    1.9424 C   0  0  0  0  0  0  0  0  0  0  0  0
    3.5703   -1.1305    2.9275 C   0  0  0  0  0  0  0  0  0  0  0  0
    3.8977   -2.4320    2.5711 C   0  0  0  0  0  0  0  0  0  0  0  0
    3.9696   -3.3778    3.5169 F   0  0  0  0  0  0  0  0  0  0  0  0
    4.1542   -2.7660    1.2478 C   0  0  0  0  0  0  0  0  0  0  0  0
    4.0778   -1.7814    0.2606 C   0  0  0  0  0  0  0  0  0  0  0  0
   -1.6797    0.1973   -1.5857 C   0  0  0  0  0  0  0  0  0  0  0  0
   -3.1766    0.2814   -1.2709 C   0  0  0  0  0  0  0  0  0  0  0  0
   -7.1496   -2.8488   -0.1392 H   0  0  0  0  0  0  0  0  0  0  0  0
   -9.1201   -1.2764    1.1305 H   0  0  0  0  0  0  0  0  0  0  0  0
   -9.4165    0.9440    2.2313 H   0  0  0  0  0  0  0  0  0  0  0  0
   -7.5059    2.4982    2.4632 H   0  0  0  0  0  0  0  0  0  0  0  0
   -5.2525    1.8871    1.6086 H   0  0  0  0  0  0  0  0  0  0  0  0
   -3.4799    0.8429    0.7734 H   0  0  0  0  0  0  0  0  0  0  0  0
   -2.3520   -1.9288    0.2149 H   0  0  0  0  0  0  0  0  0  0  0  0
   -2.6398   -1.2539    1.8109 H   0  0  0  0  0  0  0  0  0  0  0  0
   -0.2735   -1.0756    0.7157 H   0  0  0  0  0  0  0  0  0  0  0  0
   -0.8989    0.2902    1.6318 H   0  0  0  0  0  0  0  0  0  0  0  0
    0.5027    1.8354   -1.3863 H   0  0  0  0  0  0  0  0  0  0  0  0
    0.9704    1.2933    0.2000 H   0  0  0  0  0  0  0  0  0  0  0  0
    0.8727   -0.4470   -2.3348 H   0  0  0  0  0  0  0  0  0  0  0  0
    1.3389   -1.0538   -0.7604 H   0  0  0  0  0  0  0  0  0  0  0  0
    3.2413   -0.5590   -2.2533 H   0  0  0  0  0  0  0  0  0  0  0  0
    2.7555    1.1172   -2.3840 H   0  0  0  0  0  0  0  0  0  0  0  0
    3.1247    1.4926    0.0004 H   0  0  0  0  0  0  0  0  0  0  0  0
    4.9358    2.8280    0.5494 H   0  0  0  0  0  0  0  0  0  0  0  0
    7.1869    3.6996   -0.0304 H   0  0  0  0  0  0  0  0  0  0  0  0
    7.7318    0.5317   -2.8465 H   0  0  0  0  0  0  0  0  0  0  0  0
    5.4976   -0.3772   -2.3017 H   0  0  0  0  0  0  0  0  0  0  0  0
    3.2412    0.8707    2.2385 H   0  0  0  0  0  0  0  0  0  0  0  0
    3.3801   -0.8883    3.9683 H   0  0  0  0  0  0  0  0  0  0  0  0
    4.4139   -3.7892    0.9929 H   0  0  0  0  0  0  0  0  0  0  0  0
    4.2881   -2.0609   -0.7688 H   0  0  0  0  0  0  0  0  0  0  0  0
   -1.4789    0.8427   -2.4497 H   0  0  0  0  0  0  0  0  0  0  0  0
   -1.4203   -0.8267   -1.8840 H   0  0  0  0  0  0  0  0  0  0  0  0
   -3.7136   -0.3648   -1.9757 H   0  0  0  0  0  0  0  0  0  0  0  0
   -3.5408    1.3001   -1.4597 H   0  0  0  0  0  0  0  0  0  0  0  0
  1  2  2  0
  2  3  1  0
  3  4  1  0
  4  5  2  0
  5  6  1  0
  6  7  2  0
  7  8  1  0
  8  9  2  0
  9 10  1  0
 10 11  1  0
 11 12  1  0
 12 13  1  0
 13 14  1  0
 14 15  1  0
 15 16  1  0
 16 17  1  0
 17 18  1  0
 18 19  1  0
 19 20  2  0
 20 21  1  0
 21 22  2  0
 22 23  1  0
 22 24  1  0
 24 25  2  0
 18 26  1  0
 26 27  2  0
 27 28  1  0
 28 29  2  0
 29 30  1  0
 29 31  1  0
 31 32  2  0
 14 33  1  0
 33 34  1  0
 10  2  1  0
 34 11  1  0
  9  4  1  0
 25 19  1  0
 32 26  1  0
  3 35  1  0
  5 36  1  0
  6 37  1  0
  7 38  1  0
  8 39  1  0
 11 40  1  0
 12 41  1  0
 12 42  1  0
 13 43  1  0
 13 44  1  0
 15 45  1  0
 15 46  1  0
 16 47  1  0
 16 48  1  0
 17 49  1  0
 17 50  1  0
 18 51  1  0
 20 52  1  0
 21 53  1  0
 24 54  1  0
 25 55  1  0
 27 56  1  0
 28 57  1  0
 31 58  1  0
 32 59  1  0
 33 60  1  0
 33 61  1  0
 34 62  1  0
 34 63  1  0
M  END
$$$$
