
     RDKit          3D

 37 40  0  0  0  0  0  0  0  0999 V2000
    7.5765   -0.2862    1.5081 C   0  0  0  0  0  0  0  0  0  0  0  0
    6.2894   -0.0571    0.8231 C   0  0  0  0  0  0  0  0  0  0  0  0
    6.0709    0.4169   -0.3884 N   0  0  0  0  0  0  0  0  0  0  0  0
    4.7035    0.4136   -0.4936 C   0  0  0  0  0  0  0  0  0  0  0  0
    3.8545    0.7980   -1.5350 C   0  0  0  0  0  0  0  0  0  0  0  0
    2.4652    0.6752   -1.3422 C   0  0  0  0  0  0  0  0  0  0  0  0
    1.9260    0.1845   -0.1427 C   0  0  0  0  0  0  0  0  0  0  0  0
    0.5409    0.0408    0.0914 N   0  0  0  0  0  0  0  0  0  0  0  0
   -0.5096    0.4141   -0.7332 C   0  0  0  0  0  0  0  0  0  0  0  0
   -0.3930    0.9848   -1.8094 O   0  0  0  0  0  0  0  0  0  0  0  0
   -1.7176    0.0545   -0.1663 N   0  0  0  0  0  0  0  0  0  0  0  0
   -3.0280    0.2845   -0.6583 C   0  0  0  0  0  0  0  0  0  0  0  0
   -3.3017    1.0192   -1.8087 C   0  0  0  0  0  0  0  0  0  0  0  0
   -4.6224    1.1738   -2.1811 C   0  0  0  0  0  0  0  0  0  0  0  0
   -5.6602    0.6563   -1.4933 N   0  0  0  0  0  0  0  0  0  0  0  0
   -5.3775   -0.0489   -0.3816 C   0  0  0  0  0  0  0  0  0  0  0  0
   -6.4123   -0.5989    0.3582 C   0  0  0  0  0  0  0  0  0  0  0  0
   -6.1594   -1.3341    1.5138 C   0  0  0  0  0  0  0  0  0  0  0  0
   -4.8455   -1.4993    1.9022 C   0  0  0  0  0  0  0  0  0  0  0  0
   -3.7983   -0.9869    1.2222 N   0  0  0  0  0  0  0  0  0  0  0  0
   -4.0694   -0.2724    0.0948 C   0  0  0  0  0  0  0  0  0  0  0  0
    2.7780   -0.2067    0.9048 C   0  0  0  0  0  0  0  0  0  0  0  0
    4.1429   -0.0697    0.6751 C   0  0  0  0  0  0  0  0  0  0  0  0
    5.1602   -0.3766    1.5316 O   0  0  0  0  0  0  0  0  0  0  0  0
    8.4133   -0.0016    0.8634 H   0  0  0  0  0  0  0  0  0  0  0  0
    7.6330    0.3075    2.4253 H   0  0  0  0  0  0  0  0  0  0  0  0
    7.6885   -1.3427    1.7691 H   0  0  0  0  0  0  0  0  0  0  0  0
    4.2581    1.1792   -2.4665 H   0  0  0  0  0  0  0  0  0  0  0  0
    1.8267    0.9747   -2.1689 H   0  0  0  0  0  0  0  0  0  0  0  0
    0.2798   -0.3204    0.9963 H   0  0  0  0  0  0  0  0  0  0  0  0
   -1.7123   -0.5144    0.6735 H   0  0  0  0  0  0  0  0  0  0  0  0
   -2.5285    1.4722   -2.4160 H   0  0  0  0  0  0  0  0  0  0  0  0
   -4.8883    1.7376   -3.0714 H   0  0  0  0  0  0  0  0  0  0  0  0
   -7.4363   -0.4500    0.0249 H   0  0  0  0  0  0  0  0  0  0  0  0
   -6.9710   -1.7636    2.0904 H   0  0  0  0  0  0  0  0  0  0  0  0
   -4.5923   -2.0640    2.7953 H   0  0  0  0  0  0  0  0  0  0  0  0
    2.4162   -0.5940    1.8481 H   0  0  0  0  0  0  0  0  0  0  0  0
  1  2  1  0
  2  3  2  0
  3  4  1  0
  4  5  2  0
  5  6  1  0
  6  7  2  0
  7  8  1  0
  8  9  1  0
  9 10  2  0
  9 11  1  0
 11 12  1  0
 12 13  2  0
 13 14  1  0
 14 15  2  0
 15 16  1  0
 16 17  2  0
 17 18  1  0
 18 19  2  0
 19 20  1  0
 20 21  2  0
  7 22  1  0
 22 23  2  0
 23 24  1  0
 24  2  1  0
 23  4  1  0
 21 12  1  0
 21 16  1  0
  1 25  1  0
  1 26  1  0
  1 27  1  0
  5 28  1  0
  6 29  1  0
  8 30  1  0
 11 31  1  0
 13 32  1  0
 14 33  1  0
 17 34  1  0
 18 35  1  0
 19 36  1  0
 22 37  1  0
M  END
$$$$
