
     RDKit          3D

 39 38  0  0  0  0  0  0  0  0999 V2000
    3.1701    2.7973    0.9504 C   0  0  0  0  0  0  0  0  0  0  0  0
    2.6564    1.7331    0.0471 C   0  0  0  0  0  0  0  0  0  0  0  0
    1.6591    0.9206    0.6725 O   0  0  0  0  0  0  0  0  0  0  0  0
    1.1198   -0.1357   -0.0664 C   0  0  0  0  0  0  0  0  0  0  0  0
    0.0324   -0.1376   -0.8171 C   0  0  0  0  0  0  0  0  0  0  0  0
   -0.8895    1.1351   -0.8286 C   0  0  0  0  0  0  0  0  0  0  0  0
   -1.9715    0.5546   -0.1406 N   0  0  0  0  0  0  0  0  0  0  0  0
   -3.2519    0.5586    0.1903 C   0  0  0  0  0  0  0  0  0  0  0  0
   -3.9793    1.7171    0.8157 C   0  0  0  0  0  0  0  0  0  0  0  0
   -4.2302   -0.4119   -0.4651 C   0  0  0  0  0  0  0  0  0  0  0  0
   -0.4677   -1.1996   -1.5618 C   0  0  0  0  0  0  0  0  0  0  0  0
    0.2448   -2.3721   -1.5012 C   0  0  0  0  0  0  0  0  0  0  0  0
   -0.3150   -3.9115   -2.4874 Br  0  0  0  0  0  0  0  0  0  0  0  0
    1.3976   -2.4330   -0.7095 C   0  0  0  0  0  0  0  0  0  0  0  0
    1.8650   -1.3621    0.0152 C   0  0  0  0  0  0  0  0  0  0  0  0
    2.9699   -1.3600    0.8366 O   0  0  0  0  0  0  0  0  0  0  0  0
    3.7207   -2.5019    1.0630 C   0  0  0  0  0  0  0  0  0  0  0  0
    0.6877    0.0000    0.0000 Cl  0  0  0  0  0  0  0  0  0  0  0  0
    3.2863    2.4874    2.0186 H   0  0  0  0  0  0  0  0  0  0  0  0
    4.2592    3.0296    0.6424 H   0  0  0  0  0  0  0  0  0  0  0  0
    2.6550    3.7747    0.8430 H   0  0  0  0  0  0  0  0  0  0  0  0
    3.5391    1.0752   -0.2136 H   0  0  0  0  0  0  0  0  0  0  0  0
    2.3261    2.2217   -0.8783 H   0  0  0  0  0  0  0  0  0  0  0  0
   -1.0733    1.3851   -1.8960 H   0  0  0  0  0  0  0  0  0  0  0  0
   -0.3297    1.9112   -0.3255 H   0  0  0  0  0  0  0  0  0  0  0  0
   -1.4504   -0.0263    0.7007 H   0  0  0  0  0  0  0  0  0  0  0  0
   -3.1777   -0.1013    1.2847 H   0  0  0  0  0  0  0  0  0  0  0  0
   -5.0826    1.4143    0.7996 H   0  0  0  0  0  0  0  0  0  0  0  0
   -3.8895    2.6576    0.2325 H   0  0  0  0  0  0  0  0  0  0  0  0
   -3.7720    1.8335    1.8883 H   0  0  0  0  0  0  0  0  0  0  0  0
   -4.5402   -1.2221    0.2773 H   0  0  0  0  0  0  0  0  0  0  0  0
   -5.1521    0.0334   -0.7991 H   0  0  0  0  0  0  0  0  0  0  0  0
   -3.7637   -0.9844   -1.2977 H   0  0  0  0  0  0  0  0  0  0  0  0
   -1.3124   -1.1022   -2.1504 H   0  0  0  0  0  0  0  0  0  0  0  0
    1.9303   -3.3821   -0.6722 H   0  0  0  0  0  0  0  0  0  0  0  0
    4.6692   -2.2742    1.6325 H   0  0  0  0  0  0  0  0  0  0  0  0
    3.9963   -3.0916    0.1695 H   0  0  0  0  0  0  0  0  0  0  0  0
    3.1514   -3.2305    1.7305 H   0  0  0  0  0  0  0  0  0  0  0  0
   -0.6877    0.0000    0.0000 H   0  0  0  0  0  0  0  0  0  0  0  0
  1  2  1  0
  2  3  1  0
  3  4  1  0
  4  5  2  0
  5  6  1  0
  6  7  1  0
  7  8  1  0
  8  9  1  0
  8 10  1  0
  5 11  1  0
 11 12  2  0
 12 13  1  0
 12 14  1  0
 14 15  2  0
 15 16  1  0
 16 17  1  0
 15  4  1  0
  1 19  1  0
  1 20  1  0
  1 21  1  0
  2 22  1  0
  2 23  1  0
  6 24  1  0
  6 25  1  0
  7 26  1  0
  8 27  1  0
  9 28  1  0
  9 29  1  0
  9 30  1  0
 10 31  1  0
 10 32  1  0
 10 33  1  0
 11 34  1  0
 14 35  1  0
 17 36  1  0
 17 37  1  0
 17 38  1  0
 18 39  1  0
M  END
$$$$
