
     RDKit          3D

 29 29  0  0  0  0  0  0  0  0999 V2000
    4.0224    0.8531    0.1974 C   0  0  0  0  0  0  0  0  0  0  0  0
    2.8097    0.1107   -0.2050 C   0  0  0  0  0  0  0  0  0  0  0  0
    2.8864   -1.0342   -0.7440 O   0  0  0  0  0  0  0  0  0  0  0  0
    1.5219    0.6020   -0.0265 O   0  0  0  0  0  0  0  0  0  0  0  0
    0.3821   -0.1312   -0.4215 C   0  0  0  0  0  0  0  0  0  0  0  0
   -0.5063    0.6392   -1.3631 C   0  0  0  0  0  0  0  0  0  0  0  0
   -1.8695    0.1365   -1.1643 N   0  0  0  0  0  0  0  0  0  0  0  0
   -1.8543   -1.2993   -0.9002 C   0  0  0  0  0  0  0  0  0  0  0  0
   -1.3466   -1.5616    0.5230 C   0  0  0  0  0  0  0  0  0  0  0  0
   -0.4126   -0.4095    0.8495 C   0  0  0  0  0  0  0  0  0  0  0  0
   -1.2809    0.8024    1.1062 C   0  0  0  0  0  0  0  0  0  0  0  0
   -2.3637    0.8045    0.0496 C   0  0  0  0  0  0  0  0  0  0  0  0
    0.6900    0.0000    0.0000 Cl  0  0  0  0  0  0  0  0  0  0  0  0
    4.1076    0.9800    1.2899 H   0  0  0  0  0  0  0  0  0  0  0  0
    4.9031    0.2636   -0.1285 H   0  0  0  0  0  0  0  0  0  0  0  0
    4.0342    1.8857   -0.2314 H   0  0  0  0  0  0  0  0  0  0  0  0
    0.6056   -1.1003   -0.8711 H   0  0  0  0  0  0  0  0  0  0  0  0
   -0.2268    0.4627   -2.4237 H   0  0  0  0  0  0  0  0  0  0  0  0
   -0.4665    1.7103   -1.1295 H   0  0  0  0  0  0  0  0  0  0  0  0
   -1.1801   -1.8405   -1.5855 H   0  0  0  0  0  0  0  0  0  0  0  0
   -2.8979   -1.6452   -0.9614 H   0  0  0  0  0  0  0  0  0  0  0  0
   -2.1907   -1.6075    1.2404 H   0  0  0  0  0  0  0  0  0  0  0  0
   -0.7518   -2.4863    0.5798 H   0  0  0  0  0  0  0  0  0  0  0  0
    0.2806   -0.6237    1.6593 H   0  0  0  0  0  0  0  0  0  0  0  0
   -0.6233    1.6935    1.0112 H   0  0  0  0  0  0  0  0  0  0  0  0
   -1.6919    0.7233    2.1259 H   0  0  0  0  0  0  0  0  0  0  0  0
   -3.2455    0.2390    0.4268 H   0  0  0  0  0  0  0  0  0  0  0  0
   -2.6452    1.8330   -0.2635 H   0  0  0  0  0  0  0  0  0  0  0  0
   -0.6900    0.0000    0.0000 H   0  0  0  0  0  0  0  0  0  0  0  0
  1  2  1  0
  2  3  2  0
  2  4  1  0
  4  5  1  0
  5  6  1  0
  6  7  1  0
  7  8  1  0
  8  9  1  0
  9 10  1  0
 10 11  1  0
 11 12  1  0
 10  5  1  0
 12  7  1  0
  1 14  1  0
  1 15  1  0
  1 16  1  0
  5 17  1  0
  6 18  1  0
  6 19  1  0
  8 20  1  0
  8 21  1  0
  9 22  1  0
  9 23  1  0
 10 24  1  0
 11 25  1  0
 11 26  1  0
 12 27  1  0
 12 28  1  0
 13 29  1  0
M  END
$$$$
