
     RDKit          3D

 48 51  0  0  0  0  0  0  0  0999 V2000
    3.8005    1.1752    2.2978 O   0  0  0  0  0  0  0  0  0  0  0  0
    3.4364    0.6669    1.2445 C   0  0  0  0  0  0  0  0  0  0  0  0
    4.1227   -0.2718    0.4951 N   0  0  0  0  0  0  0  0  0  0  0  0
    5.4116   -0.7878    0.7429 C   0  0  0  0  0  0  0  0  0  0  0  0
    5.8681   -1.8047   -0.1079 C   0  0  0  0  0  0  0  0  0  0  0  0
    7.1372   -2.3658    0.0666 C   0  0  0  0  0  0  0  0  0  0  0  0
    7.9587   -1.9092    1.0929 C   0  0  0  0  0  0  0  0  0  0  0  0
    9.5217   -2.5937    1.3086 Cl  0  0  0  0  0  0  0  0  0  0  0  0
    7.5193   -0.8997    1.9436 C   0  0  0  0  0  0  0  0  0  0  0  0
    6.2483   -0.3398    1.7671 C   0  0  0  0  0  0  0  0  0  0  0  0
    2.1042    1.0484    0.6966 C   0  0  0  0  0  0  0  0  0  0  0  0
    1.8884    1.1871   -0.6805 C   0  0  0  0  0  0  0  0  0  0  0  0
    0.6255    1.5513   -1.1580 C   0  0  0  0  0  0  0  0  0  0  0  0
   -0.4333    1.7840   -0.2680 C   0  0  0  0  0  0  0  0  0  0  0  0
   -1.7950    2.2081   -0.7840 C   0  0  0  0  0  0  0  0  0  0  0  0
   -2.9061    1.4200   -0.2280 N   0  0  0  0  0  0  0  0  0  0  0  0
   -4.1971    2.0307   -0.5818 C   0  0  0  0  0  0  0  0  0  0  0  0
   -5.3462    1.3408    0.1655 C   0  0  0  0  0  0  0  0  0  0  0  0
   -5.2884   -0.1604    0.0539 C   0  0  0  0  0  0  0  0  0  0  0  0
   -6.4072   -0.9364    0.3881 C   0  0  0  0  0  0  0  0  0  0  0  0
   -6.3440   -2.3277    0.3240 C   0  0  0  0  0  0  0  0  0  0  0  0
   -5.1624   -2.9538   -0.0663 C   0  0  0  0  0  0  0  0  0  0  0  0
   -4.0407   -2.1886   -0.3900 C   0  0  0  0  0  0  0  0  0  0  0  0
   -4.0883   -0.7878   -0.3221 C   0  0  0  0  0  0  0  0  0  0  0  0
   -2.8706    0.0257   -0.7144 C   0  0  0  0  0  0  0  0  0  0  0  0
   -0.1986    1.6684    1.1106 C   0  0  0  0  0  0  0  0  0  0  0  0
    1.0611    1.3042    1.5908 C   0  0  0  0  0  0  0  0  0  0  0  0
    3.6219   -0.6921   -0.2769 H   0  0  0  0  0  0  0  0  0  0  0  0
    5.2452   -2.1759   -0.9176 H   0  0  0  0  0  0  0  0  0  0  0  0
    7.4755   -3.1550   -0.5997 H   0  0  0  0  0  0  0  0  0  0  0  0
    8.1555   -0.5381    2.7475 H   0  0  0  0  0  0  0  0  0  0  0  0
    5.9440    0.4496    2.4476 H   0  0  0  0  0  0  0  0  0  0  0  0
    2.6985    1.0497   -1.3907 H   0  0  0  0  0  0  0  0  0  0  0  0
    0.4772    1.6656   -2.2297 H   0  0  0  0  0  0  0  0  0  0  0  0
   -1.9107    3.2634   -0.5018 H   0  0  0  0  0  0  0  0  0  0  0  0
   -1.8140    2.1767   -1.8815 H   0  0  0  0  0  0  0  0  0  0  0  0
   -4.3676    1.9785   -1.6660 H   0  0  0  0  0  0  0  0  0  0  0  0
   -4.2076    3.0923   -0.3057 H   0  0  0  0  0  0  0  0  0  0  0  0
   -5.3022    1.6055    1.2292 H   0  0  0  0  0  0  0  0  0  0  0  0
   -6.2979    1.7086   -0.2353 H   0  0  0  0  0  0  0  0  0  0  0  0
   -7.3298   -0.4594    0.7060 H   0  0  0  0  0  0  0  0  0  0  0  0
   -7.2148   -2.9244    0.5855 H   0  0  0  0  0  0  0  0  0  0  0  0
   -5.1125   -4.0391   -0.1121 H   0  0  0  0  0  0  0  0  0  0  0  0
   -3.1234   -2.6915   -0.6884 H   0  0  0  0  0  0  0  0  0  0  0  0
   -1.9868   -0.4759   -0.3020 H   0  0  0  0  0  0  0  0  0  0  0  0
   -2.7955   -0.0007   -1.8101 H   0  0  0  0  0  0  0  0  0  0  0  0
   -1.0055    1.8596    1.8168 H   0  0  0  0  0  0  0  0  0  0  0  0
    1.2248    1.2192    2.6632 H   0  0  0  0  0  0  0  0  0  0  0  0
  1  2  2  0
  2  3  1  0
  3  4  1  0
  4  5  2  0
  5  6  1  0
  6  7  2  0
  7  8  1  0
  7  9  1  0
  9 10  2  0
  2 11  1  0
 11 12  2  0
 12 13  1  0
 13 14  2  0
 14 15  1  0
 15 16  1  0
 16 17  1  0
 17 18  1  0
 18 19  1  0
 19 20  2  0
 20 21  1  0
 21 22  2  0
 22 23  1  0
 23 24  2  0
 24 25  1  0
 14 26  1  0
 26 27  2  0
 10  4  1  0
 27 11  1  0
 25 16  1  0
 24 19  1  0
  3 28  1  0
  5 29  1  0
  6 30  1  0
  9 31  1  0
 10 32  1  0
 12 33  1  0
 13 34  1  0
 15 35  1  0
 15 36  1  0
 17 37  1  0
 17 38  1  0
 18 39  1  0
 18 40  1  0
 20 41  1  0
 21 42  1  0
 22 43  1  0
 23 44  1  0
 25 45  1  0
 25 46  1  0
 26 47  1  0
 27 48  1  0
M  END
$$$$
