
     RDKit          3D

 56 59  0  0  0  0  0  0  0  0999 V2000
   -7.2727    0.3205    3.2533 C   0  0  0  0  0  0  0  0  0  0  0  0
   -6.2199    0.9544    2.5371 O   0  0  0  0  0  0  0  0  0  0  0  0
   -5.6933    0.2741    1.4748 C   0  0  0  0  0  0  0  0  0  0  0  0
   -6.0592   -1.0065    1.0582 C   0  0  0  0  0  0  0  0  0  0  0  0
   -5.4364   -1.5906   -0.0503 C   0  0  0  0  0  0  0  0  0  0  0  0
   -4.4537   -0.8934   -0.7567 C   0  0  0  0  0  0  0  0  0  0  0  0
   -3.8263   -1.5071   -1.8045 O   0  0  0  0  0  0  0  0  0  0  0  0
   -4.6837   -1.5811   -2.9455 C   0  0  0  0  0  0  0  0  0  0  0  0
   -4.0690    0.3752   -0.3257 C   0  0  0  0  0  0  0  0  0  0  0  0
   -2.8103    1.2794   -1.1788 S   0  0  0  0  0  6  0  0  0  0  0  0
   -3.1835    1.3544   -2.5758 O   0  0  0  0  0  0  0  0  0  0  0  0
   -2.5264    2.4902   -0.4330 O   0  0  0  0  0  0  0  0  0  0  0  0
   -1.4208    0.2939   -1.0280 N   0  0  0  0  0  0  0  0  0  0  0  0
   -0.9669    0.0097    0.3593 C   0  0  0  0  0  0  0  0  0  0  0  0
    0.4926    0.3794    0.5706 C   0  0  0  0  0  0  0  0  0  0  0  0
    1.3871   -0.3641   -0.4280 C   0  0  0  0  0  0  0  0  0  0  0  0
    2.7749    0.1291   -0.3595 N   0  0  0  0  0  0  0  0  0  0  0  0
    3.1091    1.3690   -0.8558 C   0  0  0  0  0  0  0  0  0  0  0  0
    4.2780    1.9110   -0.7959 N   0  0  0  0  0  0  0  0  0  0  0  0
    5.2979    1.1860   -0.1673 C   0  0  0  0  0  0  0  0  0  0  0  0
    6.5806    1.7329   -0.1134 C   0  0  0  0  0  0  0  0  0  0  0  0
    7.6238    1.0444    0.5146 C   0  0  0  0  0  0  0  0  0  0  0  0
    7.4005   -0.2112    1.0928 C   0  0  0  0  0  0  0  0  0  0  0  0
    8.5112   -0.9308    1.7991 C   0  0  0  0  0  0  0  0  0  0  0  0
    6.1118   -0.7561    1.0531 C   0  0  0  0  0  0  0  0  0  0  0  0
    5.0756   -0.0577    0.4194 C   0  0  0  0  0  0  0  0  0  0  0  0
    3.7097   -0.6121    0.3586 C   0  0  0  0  0  0  0  0  0  0  0  0
    3.4567   -1.6652    0.9387 O   0  0  0  0  0  0  0  0  0  0  0  0
    0.8065   -0.3573   -1.8534 C   0  0  0  0  0  0  0  0  0  0  0  0
   -0.3539    0.6187   -2.0024 C   0  0  0  0  0  0  0  0  0  0  0  0
   -4.6953    0.9623    0.7811 C   0  0  0  0  0  0  0  0  0  0  0  0
   -8.1346    0.1318    2.6046 H   0  0  0  0  0  0  0  0  0  0  0  0
   -7.5953    1.0023    4.0461 H   0  0  0  0  0  0  0  0  0  0  0  0
   -6.9251   -0.6029    3.7283 H   0  0  0  0  0  0  0  0  0  0  0  0
   -6.8192   -1.5818    1.5771 H   0  0  0  0  0  0  0  0  0  0  0  0
   -5.7140   -2.5978   -0.3512 H   0  0  0  0  0  0  0  0  0  0  0  0
   -5.1770   -0.6239   -3.1486 H   0  0  0  0  0  0  0  0  0  0  0  0
   -5.4290   -2.3725   -2.8168 H   0  0  0  0  0  0  0  0  0  0  0  0
   -4.0656   -1.8355   -3.8116 H   0  0  0  0  0  0  0  0  0  0  0  0
   -1.1165   -1.0608    0.5440 H   0  0  0  0  0  0  0  0  0  0  0  0
   -1.5727    0.5437    1.0985 H   0  0  0  0  0  0  0  0  0  0  0  0
    0.7954    0.1311    1.5952 H   0  0  0  0  0  0  0  0  0  0  0  0
    0.6140    1.4655    0.4716 H   0  0  0  0  0  0  0  0  0  0  0  0
    1.3995   -1.4181   -0.1204 H   0  0  0  0  0  0  0  0  0  0  0  0
    2.2859    1.9132   -1.3417 H   0  0  0  0  0  0  0  0  0  0  0  0
    6.7659    2.7064   -0.5599 H   0  0  0  0  0  0  0  0  0  0  0  0
    8.6122    1.4984    0.5496 H   0  0  0  0  0  0  0  0  0  0  0  0
    8.3528   -2.0144    1.7784 H   0  0  0  0  0  0  0  0  0  0  0  0
    9.4728   -0.7338    1.3137 H   0  0  0  0  0  0  0  0  0  0  0  0
    8.5655   -0.6021    2.8416 H   0  0  0  0  0  0  0  0  0  0  0  0
    5.9091   -1.7215    1.5127 H   0  0  0  0  0  0  0  0  0  0  0  0
    1.5757   -0.1476   -2.6055 H   0  0  0  0  0  0  0  0  0  0  0  0
    0.4350   -1.3668   -2.0778 H   0  0  0  0  0  0  0  0  0  0  0  0
   -0.7494    0.5237   -3.0196 H   0  0  0  0  0  0  0  0  0  0  0  0
   -0.0166    1.6519   -1.8660 H   0  0  0  0  0  0  0  0  0  0  0  0
   -4.4134    1.9601    1.1125 H   0  0  0  0  0  0  0  0  0  0  0  0
  1  2  1  0
  2  3  1  0
  3  4  2  0
  4  5  1  0
  5  6  2  0
  6  7  1  0
  7  8  1  0
  6  9  1  0
  9 10  1  0
 10 11  2  0
 10 12  2  0
 10 13  1  0
 13 14  1  0
 14 15  1  0
 15 16  1  0
 16 17  1  0
 17 18  1  0
 18 19  2  0
 19 20  1  0
 20 21  2  0
 21 22  1  0
 22 23  2  0
 23 24  1  0
 23 25  1  0
 25 26  2  0
 26 27  1  0
 27 28  2  0
 16 29  1  0
 29 30  1  0
  9 31  2  0
 31  3  1  0
 30 13  1  0
 27 17  1  0
 26 20  1  0
  1 32  1  0
  1 33  1  0
  1 34  1  0
  4 35  1  0
  5 36  1  0
  8 37  1  0
  8 38  1  0
  8 39  1  0
 14 40  1  0
 14 41  1  0
 15 42  1  0
 15 43  1  0
 16 44  1  0
 18 45  1  0
 21 46  1  0
 22 47  1  0
 24 48  1  0
 24 49  1  0
 24 50  1  0
 25 51  1  0
 29 52  1  0
 29 53  1  0
 30 54  1  0
 30 55  1  0
 31 56  1  0
M  END
$$$$
