
     RDKit          3D

 47 51  0  0  0  0  0  0  0  0999 V2000
    3.9891   -0.5354    2.5517 O   0  0  0  0  0  0  0  0  0  0  0  0
    3.1840   -1.1834    1.8892 C   0  0  0  0  0  0  0  0  0  0  0  0
    2.1745   -2.0971    2.5842 C   0  0  0  0  0  0  0  0  0  0  0  0
    0.8675   -1.4591    2.6117 N   0  0  0  0  0  0  0  0  0  0  0  0
    0.5217   -0.6538    3.6660 C   0  0  0  0  0  0  0  0  0  0  0  0
   -0.6034   -0.0318    3.7686 N   0  0  0  0  0  0  0  0  0  0  0  0
   -1.4986   -0.2045    2.7443 C   0  0  0  0  0  0  0  0  0  0  0  0
   -1.2985   -0.9422    1.6410 C   0  0  0  0  0  0  0  0  0  0  0  0
   -2.3209   -1.0349    0.6524 C   0  0  0  0  0  0  0  0  0  0  0  0
   -3.1957   -0.0859    0.3626 N   0  0  0  0  0  0  0  0  0  0  0  0
   -4.0825   -0.4836   -0.6293 C   0  0  0  0  0  0  0  0  0  0  0  0
   -5.1200    0.4246   -1.1174 C   0  0  0  0  0  0  0  0  0  0  0  0
   -5.8429    0.1781   -2.2945 C   0  0  0  0  0  0  0  0  0  0  0  0
   -6.8283    1.0714   -2.7285 C   0  0  0  0  0  0  0  0  0  0  0  0
   -7.1020    2.2230   -1.9945 C   0  0  0  0  0  0  0  0  0  0  0  0
   -6.3896    2.4858   -0.8279 C   0  0  0  0  0  0  0  0  0  0  0  0
   -5.4051    1.5937   -0.3945 C   0  0  0  0  0  0  0  0  0  0  0  0
   -3.8978   -1.7793   -1.0630 C   0  0  0  0  0  0  0  0  0  0  0  0
   -2.5899   -2.5029   -0.2312 S   0  0  0  0  0  0  0  0  0  0  0  0
    0.0373   -1.5801    1.5115 C   0  0  0  0  0  0  0  0  0  0  0  0
    0.4139   -2.1359    0.4788 O   0  0  0  0  0  0  0  0  0  0  0  0
    3.0422   -1.1706    0.5122 N   0  0  0  0  0  0  0  0  0  0  0  0
    3.8074   -0.4516   -0.4272 C   0  0  0  0  0  0  0  0  0  0  0  0
    3.3933   -0.5331   -1.7764 C   0  0  0  0  0  0  0  0  0  0  0  0
    4.0854    0.1398   -2.7894 C   0  0  0  0  0  0  0  0  0  0  0  0
    5.1848    0.8818   -2.4245 C   0  0  0  0  0  0  0  0  0  0  0  0
    5.5954    0.9643   -1.1157 C   0  0  0  0  0  0  0  0  0  0  0  0
    4.9312    0.3112   -0.0955 C   0  0  0  0  0  0  0  0  0  0  0  0
    6.7016    1.7439   -0.9701 O   0  0  0  0  0  0  0  0  0  0  0  0
    6.9327    2.1473   -2.3351 C   0  0  0  0  0  0  0  0  0  0  0  0
    5.9767    1.5978   -3.2657 O   0  0  0  0  0  0  0  0  0  0  0  0
    2.5208   -2.2881    3.6060 H   0  0  0  0  0  0  0  0  0  0  0  0
    2.1238   -3.0566    2.0575 H   0  0  0  0  0  0  0  0  0  0  0  0
    1.2847   -0.5631    4.4565 H   0  0  0  0  0  0  0  0  0  0  0  0
   -2.4456    0.3159    2.8859 H   0  0  0  0  0  0  0  0  0  0  0  0
   -5.6496   -0.7009   -2.9023 H   0  0  0  0  0  0  0  0  0  0  0  0
   -7.3792    0.8685   -3.6435 H   0  0  0  0  0  0  0  0  0  0  0  0
   -7.8667    2.9172   -2.3334 H   0  0  0  0  0  0  0  0  0  0  0  0
   -6.5955    3.3852   -0.2532 H   0  0  0  0  0  0  0  0  0  0  0  0
   -4.8579    1.8192    0.5192 H   0  0  0  0  0  0  0  0  0  0  0  0
   -4.4510   -2.3430   -1.7990 H   0  0  0  0  0  0  0  0  0  0  0  0
    2.2408   -1.6819    0.1369 H   0  0  0  0  0  0  0  0  0  0  0  0
    2.5196   -1.1217   -2.0496 H   0  0  0  0  0  0  0  0  0  0  0  0
    3.7679    0.0809   -3.8240 H   0  0  0  0  0  0  0  0  0  0  0  0
    5.3008    0.4081    0.9174 H   0  0  0  0  0  0  0  0  0  0  0  0
    6.8871    3.2411   -2.3904 H   0  0  0  0  0  0  0  0  0  0  0  0
    7.9366    1.8221   -2.6315 H   0  0  0  0  0  0  0  0  0  0  0  0
  1  2  2  0
  2  3  1  0
  3  4  1  0
  4  5  1  0
  5  6  2  0
  6  7  1  0
  7  8  2  0
  8  9  1  0
  9 10  2  0
 10 11  1  0
 11 12  1  0
 12 13  2  0
 13 14  1  0
 14 15  2  0
 15 16  1  0
 16 17  2  0
 11 18  2  0
 18 19  1  0
  8 20  1  0
 20 21  2  0
  2 22  1  0
 22 23  1  0
 23 24  2  0
 24 25  1  0
 25 26  2  0
 26 27  1  0
 27 28  2  0
 27 29  1  0
 29 30  1  0
 30 31  1  0
 20  4  1  0
 28 23  1  0
 19  9  1  0
 31 26  1  0
 17 12  1  0
  3 32  1  0
  3 33  1  0
  5 34  1  0
  7 35  1  0
 13 36  1  0
 14 37  1  0
 15 38  1  0
 16 39  1  0
 17 40  1  0
 18 41  1  0
 22 42  1  0
 24 43  1  0
 25 44  1  0
 28 45  1  0
 30 46  1  0
 30 47  1  0
M  END
$$$$
