
     RDKit          3D

 48 50  0  0  0  0  0  0  0  0999 V2000
   -5.2323    2.1821   -2.9108 C   0  0  0  0  0  0  0  0  0  0  0  0
   -4.1663    1.3612   -2.3043 C   0  0  0  0  0  0  0  0  0  0  0  0
   -3.7707    0.1903   -2.8157 N   0  0  0  0  0  0  0  0  0  0  0  0
   -2.8274   -0.1824   -1.9389 N   0  0  0  0  0  0  0  0  0  0  0  0
   -2.6543    0.7578   -0.9611 C   0  0  0  0  0  0  0  0  0  0  0  0
   -1.6520    0.6427    0.1333 C   0  0  2  0  0  0  0  0  0  0  0  0
   -0.2959    1.1970   -0.3261 C   0  0  0  0  0  0  0  0  0  0  0  0
    0.7148    0.3804    0.4729 C   0  0  2  0  0  0  0  0  0  0  0  0
    2.0383    0.4200   -0.1208 N   0  0  0  0  0  0  0  0  0  0  0  0
    3.0892   -0.2597    0.4657 C   0  0  0  0  0  0  0  0  0  0  0  0
    2.9403   -1.0166    1.4168 O   0  0  0  0  0  0  0  0  0  0  0  0
    4.4199    0.0033   -0.2191 C   0  0  0  0  0  0  0  0  0  0  0  0
    5.6213   -0.6079    0.5178 C   0  0  0  0  0  0  0  0  0  0  0  0
    5.9472    0.1719    1.7943 C   0  0  0  0  0  0  0  0  0  0  0  0
    6.8454   -0.6286   -0.4000 C   0  0  0  0  0  0  0  0  0  0  0  0
    0.0596   -1.0082    0.4954 C   0  0  0  0  0  0  0  0  0  0  0  0
   -1.3739   -0.7425    0.5136 N   0  0  0  0  0  0  0  0  0  0  0  0
   -2.2393   -1.7198    0.9822 C   0  0  0  0  0  0  0  0  0  0  0  0
   -1.8598   -2.8813    1.1171 O   0  0  0  0  0  0  0  0  0  0  0  0
   -3.6331   -1.3638    1.2446 C   0  0  0  0  0  0  0  0  0  0  0  0
   -4.1444   -0.2416    1.9799 C   0  0  0  0  0  0  0  0  0  0  0  0
   -5.5212   -0.2175    2.0309 C   0  0  0  0  0  0  0  0  0  0  0  0
   -6.2141   -1.5600    1.2365 S   0  0  0  0  0  0  0  0  0  0  0  0
   -4.6738   -2.1816    0.8353 C   0  0  0  0  0  0  0  0  0  0  0  0
   -3.4881    1.7540   -1.1793 N   0  0  0  0  0  0  0  0  0  0  0  0
   -5.8063    2.6993   -2.1349 H   0  0  0  0  0  0  0  0  0  0  0  0
   -4.7981    2.9342   -3.5772 H   0  0  0  0  0  0  0  0  0  0  0  0
   -5.9274    1.5658   -3.4905 H   0  0  0  0  0  0  0  0  0  0  0  0
   -2.3550   -1.0725   -2.0559 H   0  0  0  0  0  0  0  0  0  0  0  0
   -1.9806    1.1854    1.0245 H   0  0  0  0  0  0  0  0  0  0  0  0
   -0.2047    2.2729   -0.1412 H   0  0  0  0  0  0  0  0  0  0  0  0
   -0.1391    1.0425   -1.4029 H   0  0  0  0  0  0  0  0  0  0  0  0
    0.7844    0.7734    1.4957 H   0  0  0  0  0  0  0  0  0  0  0  0
    2.2756    1.2048   -0.7162 H   0  0  0  0  0  0  0  0  0  0  0  0
    4.5554    1.0859   -0.3321 H   0  0  0  0  0  0  0  0  0  0  0  0
    4.3441   -0.4301   -1.2245 H   0  0  0  0  0  0  0  0  0  0  0  0
    5.3921   -1.6440    0.7964 H   0  0  0  0  0  0  0  0  0  0  0  0
    6.1977    1.2145    1.5694 H   0  0  0  0  0  0  0  0  0  0  0  0
    6.8030   -0.2746    2.3125 H   0  0  0  0  0  0  0  0  0  0  0  0
    5.1029    0.1710    2.4904 H   0  0  0  0  0  0  0  0  0  0  0  0
    6.6490   -1.2262   -1.2966 H   0  0  0  0  0  0  0  0  0  0  0  0
    7.1203    0.3826   -0.7197 H   0  0  0  0  0  0  0  0  0  0  0  0
    7.7080   -1.0693    0.1111 H   0  0  0  0  0  0  0  0  0  0  0  0
    0.3583   -1.6004    1.3661 H   0  0  0  0  0  0  0  0  0  0  0  0
    0.2821   -1.5809   -0.4125 H   0  0  0  0  0  0  0  0  0  0  0  0
   -3.5380    0.5153    2.4604 H   0  0  0  0  0  0  0  0  0  0  0  0
   -6.1541    0.5196    2.5062 H   0  0  0  0  0  0  0  0  0  0  0  0
   -4.5988   -3.1181    0.2979 H   0  0  0  0  0  0  0  0  0  0  0  0
  1  2  1  0
  2  3  2  0
  3  4  1  0
  4  5  1  0
  5  6  1  0
  6  7  1  0
  7  8  1  0
  8  9  1  0
  9 10  1  0
 10 11  2  0
 10 12  1  0
 12 13  1  0
 13 14  1  0
 13 15  1  0
  8 16  1  0
 16 17  1  0
 17 18  1  0
 18 19  2  0
 18 20  1  0
 20 21  1  0
 21 22  2  0
 22 23  1  0
 23 24  1  0
  5 25  2  0
 25  2  1  0
 17  6  1  0
 24 20  2  0
  1 26  1  0
  1 27  1  0
  1 28  1  0
  4 29  1  0
  6 30  1  1
  7 31  1  0
  7 32  1  0
  8 33  1  1
  9 34  1  0
 12 35  1  0
 12 36  1  0
 13 37  1  0
 14 38  1  0
 14 39  1  0
 14 40  1  0
 15 41  1  0
 15 42  1  0
 15 43  1  0
 16 44  1  0
 16 45  1  0
 21 46  1  0
 22 47  1  0
 24 48  1  0
M  END
$$$$
