
     RDKit          3D

 30 31  0  0  0  0  0  0  0  0999 V2000
   -4.4518   -2.0726   -0.1762 C   0  0  0  0  0  0  0  0  0  0  0  0
   -3.6243   -0.8720    0.0528 C   0  0  0  0  0  0  0  0  0  0  0  0
   -3.7508    0.2285    0.8685 C   0  0  0  0  0  0  0  0  0  0  0  0
   -2.6096    1.0335    0.6281 C   0  0  0  0  0  0  0  0  0  0  0  0
   -1.8458    0.3779   -0.3215 C   0  0  0  0  0  0  0  0  0  0  0  0
   -0.5866    0.6813   -0.9757 C   0  0  0  0  0  0  0  0  0  0  0  0
   -0.0555   -0.0717   -1.7954 O   0  0  0  0  0  0  0  0  0  0  0  0
    0.0787    1.9808   -0.6580 C   0  0  0  0  0  0  0  0  0  0  0  0
    1.1231    1.8071    0.7447 S   0  0  0  0  0  6  0  0  0  0  0  0
    1.8849    3.0385    0.8631 O   0  0  0  0  0  0  0  0  0  0  0  0
    0.3165    1.3577    1.8642 O   0  0  0  0  0  0  0  0  0  0  0  0
    2.2778    0.5212    0.3459 C   0  0  0  0  0  0  0  0  0  0  0  0
    2.0728   -0.7727    0.8327 C   0  0  0  0  0  0  0  0  0  0  0  0
    2.9962   -1.7723    0.5273 C   0  0  0  0  0  0  0  0  0  0  0  0
    4.1200   -1.4746   -0.2454 C   0  0  0  0  0  0  0  0  0  0  0  0
    4.3295   -0.1756   -0.7115 C   0  0  0  0  0  0  0  0  0  0  0  0
    3.4107    0.8301   -0.4128 C   0  0  0  0  0  0  0  0  0  0  0  0
   -2.4756   -0.7874   -0.6701 O   0  0  0  0  0  0  0  0  0  0  0  0
   -3.8888   -2.9781    0.0699 H   0  0  0  0  0  0  0  0  0  0  0  0
   -5.3533   -2.0524    0.4438 H   0  0  0  0  0  0  0  0  0  0  0  0
   -4.7601   -2.1307   -1.2246 H   0  0  0  0  0  0  0  0  0  0  0  0
   -4.5611    0.4238    1.5576 H   0  0  0  0  0  0  0  0  0  0  0  0
   -2.3758    1.9717    1.1130 H   0  0  0  0  0  0  0  0  0  0  0  0
   -0.6492    2.7721   -0.4617 H   0  0  0  0  0  0  0  0  0  0  0  0
    0.6913    2.2996   -1.5073 H   0  0  0  0  0  0  0  0  0  0  0  0
    1.2052   -1.0152    1.4422 H   0  0  0  0  0  0  0  0  0  0  0  0
    2.8414   -2.7848    0.8924 H   0  0  0  0  0  0  0  0  0  0  0  0
    4.8374   -2.2573   -0.4810 H   0  0  0  0  0  0  0  0  0  0  0  0
    5.2124    0.0515   -1.3042 H   0  0  0  0  0  0  0  0  0  0  0  0
    3.5905    1.8424   -0.7669 H   0  0  0  0  0  0  0  0  0  0  0  0
  1  2  1  0
  2  3  2  0
  3  4  1  0
  4  5  2  0
  5  6  1  0
  6  7  2  0
  6  8  1  0
  8  9  1  0
  9 10  2  0
  9 11  2  0
  9 12  1  0
 12 13  2  0
 13 14  1  0
 14 15  2  0
 15 16  1  0
 16 17  2  0
  5 18  1  0
 18  2  1  0
 17 12  1  0
  1 19  1  0
  1 20  1  0
  1 21  1  0
  3 22  1  0
  4 23  1  0
  8 24  1  0
  8 25  1  0
 13 26  1  0
 14 27  1  0
 15 28  1  0
 16 29  1  0
 17 30  1  0
M  END
$$$$
