
     RDKit          3D

 38 39  0  0  0  0  0  0  0  0999 V2000
   -4.4025   -2.0880   -1.1444 C   0  0  0  0  0  0  0  0  0  0  0  0
   -3.2026   -2.6829   -0.6700 O   0  0  0  0  0  0  0  0  0  0  0  0
   -2.1978   -1.8545   -0.2455 C   0  0  0  0  0  0  0  0  0  0  0  0
   -2.3037   -0.4595   -0.1745 C   0  0  0  0  0  0  0  0  0  0  0  0
   -1.2333    0.3444    0.2734 C   0  0  0  0  0  0  0  0  0  0  0  0
   -1.3910    1.8585    0.3431 C   0  0  0  0  0  0  0  0  0  0  0  0
   -2.4704    2.2626    1.3515 C   0  0  0  0  0  0  0  0  0  0  0  0
   -1.6783    2.4610   -1.0356 C   0  0  0  0  0  0  0  0  0  0  0  0
   -0.0325   -0.2858    0.6459 C   0  0  0  0  0  0  0  0  0  0  0  0
    0.9907    0.5120    1.1200 O   0  0  0  0  0  0  0  0  0  0  0  0
    2.2719    0.1655    0.7961 C   0  0  0  0  0  0  0  0  0  0  0  0
    3.1730   -0.0731    1.8068 C   0  0  0  0  0  0  0  0  0  0  0  0
    4.4648   -0.3888    1.5936 N   0  0  0  0  0  0  0  0  0  0  0  0
    4.8480   -0.4653    0.3166 C   0  0  0  0  0  0  0  0  0  0  0  0
    6.1650   -0.7881    0.0704 N   0  0  0  0  0  0  0  0  0  0  0  0
    4.0675   -0.2028   -0.7375 N   0  0  0  0  0  0  0  0  0  0  0  0
    2.7877    0.1201   -0.4882 C   0  0  0  0  0  0  0  0  0  0  0  0
    2.0037    0.3768   -1.6143 N   0  0  0  0  0  0  0  0  0  0  0  0
    0.0776   -1.6805    0.6025 C   0  0  0  0  0  0  0  0  0  0  0  0
   -0.9958   -2.4552    0.1526 C   0  0  0  0  0  0  0  0  0  0  0  0
   -0.7278   -4.5398    0.1097 I   0  0  0  0  0  0  0  0  0  0  0  0
   -4.9149   -1.5439   -0.3443 H   0  0  0  0  0  0  0  0  0  0  0  0
   -4.2102   -1.4401   -2.0059 H   0  0  0  0  0  0  0  0  0  0  0  0
   -5.0659   -2.8927   -1.4758 H   0  0  0  0  0  0  0  0  0  0  0  0
   -3.2269    0.0338   -0.4620 H   0  0  0  0  0  0  0  0  0  0  0  0
   -0.4544    2.3113    0.6888 H   0  0  0  0  0  0  0  0  0  0  0  0
   -3.4653    1.9177    1.0501 H   0  0  0  0  0  0  0  0  0  0  0  0
   -2.5141    3.3526    1.4514 H   0  0  0  0  0  0  0  0  0  0  0  0
   -2.2570    1.8437    2.3412 H   0  0  0  0  0  0  0  0  0  0  0  0
   -0.9042    2.1754   -1.7565 H   0  0  0  0  0  0  0  0  0  0  0  0
   -1.6966    3.5549   -0.9798 H   0  0  0  0  0  0  0  0  0  0  0  0
   -2.6443    2.1349   -1.4356 H   0  0  0  0  0  0  0  0  0  0  0  0
    2.8729   -0.0228    2.8488 H   0  0  0  0  0  0  0  0  0  0  0  0
    6.7332   -0.5614    0.8740 H   0  0  0  0  0  0  0  0  0  0  0  0
    6.4520   -0.4248   -0.8267 H   0  0  0  0  0  0  0  0  0  0  0  0
    2.6045    0.3521   -2.4331 H   0  0  0  0  0  0  0  0  0  0  0  0
    1.4821    1.2407   -1.5274 H   0  0  0  0  0  0  0  0  0  0  0  0
    0.9949   -2.1679    0.9206 H   0  0  0  0  0  0  0  0  0  0  0  0
  1  2  1  0
  2  3  1  0
  3  4  2  0
  4  5  1  0
  5  6  1  0
  6  7  1  0
  6  8  1  0
  5  9  2  0
  9 10  1  0
 10 11  1  0
 11 12  2  0
 12 13  1  0
 13 14  2  0
 14 15  1  0
 14 16  1  0
 16 17  2  0
 17 18  1  0
  9 19  1  0
 19 20  2  0
 20 21  1  0
 20  3  1  0
 17 11  1  0
  1 22  1  0
  1 23  1  0
  1 24  1  0
  4 25  1  0
  6 26  1  0
  7 27  1  0
  7 28  1  0
  7 29  1  0
  8 30  1  0
  8 31  1  0
  8 32  1  0
 12 33  1  0
 15 34  1  0
 15 35  1  0
 18 36  1  0
 18 37  1  0
 19 38  1  0
M  END
$$$$
