
     RDKit          3D

 36 38  0  0  0  0  0  0  0  0999 V2000
   -2.7097    3.4451    1.7054 C   0  0  0  0  0  0  0  0  0  0  0  0
   -2.3102    2.2483    0.9283 C   0  0  0  0  0  0  0  0  0  0  0  0
   -1.3801    1.3801    1.4364 N   0  0  0  0  0  0  0  0  0  0  0  0
   -1.2249    0.4339    0.5306 C   0  0  0  0  0  0  0  0  0  0  0  0
   -0.3866   -0.7303    0.5018 C   0  0  0  0  0  0  0  0  0  0  0  0
    0.3935   -0.8682    1.6242 O   0  0  0  0  0  0  0  0  0  0  0  0
    1.2624   -1.9934    1.7499 C   0  0  0  0  0  0  0  0  0  0  0  0
    2.5368   -1.8685    0.9449 C   0  0  0  0  0  0  0  0  0  0  0  0
    3.1580   -3.0173    0.4327 C   0  0  0  0  0  0  0  0  0  0  0  0
    4.3483   -2.9175   -0.2901 C   0  0  0  0  0  0  0  0  0  0  0  0
    4.9358   -1.6714   -0.4992 C   0  0  0  0  0  0  0  0  0  0  0  0
    4.3375   -0.5247    0.0187 C   0  0  0  0  0  0  0  0  0  0  0  0
    3.1483   -0.6226    0.7425 C   0  0  0  0  0  0  0  0  0  0  0  0
   -0.4292   -1.5444   -0.5778 C   0  0  0  0  0  0  0  0  0  0  0  0
   -1.3003   -1.2727   -1.7099 C   0  0  0  0  0  0  0  0  0  0  0  0
   -2.0848   -0.1842   -1.6828 C   0  0  0  0  0  0  0  0  0  0  0  0
   -2.0473    0.6605   -0.5721 N   0  0  0  0  0  0  0  0  0  0  0  0
   -2.7534    1.8226   -0.3125 C   0  0  0  0  0  0  0  0  0  0  0  0
   -3.7652    2.4151   -1.2321 C   0  0  0  0  0  0  0  0  0  0  0  0
   -3.1275    3.1050   -2.3639 C   0  0  0  0  0  0  0  0  0  0  0  0
   -2.6442    3.6351   -3.2768 N   0  0  0  0  0  0  0  0  0  0  0  0
   -2.5777    4.3525    1.1081 H   0  0  0  0  0  0  0  0  0  0  0  0
   -3.7603    3.3732    2.0029 H   0  0  0  0  0  0  0  0  0  0  0  0
   -2.1044    3.5445    2.6118 H   0  0  0  0  0  0  0  0  0  0  0  0
    1.5473   -2.0553    2.8070 H   0  0  0  0  0  0  0  0  0  0  0  0
    0.7207   -2.9198    1.5219 H   0  0  0  0  0  0  0  0  0  0  0  0
    2.7192   -3.9995    0.5937 H   0  0  0  0  0  0  0  0  0  0  0  0
    4.8204   -3.8125   -0.6870 H   0  0  0  0  0  0  0  0  0  0  0  0
    5.8627   -1.5933   -1.0612 H   0  0  0  0  0  0  0  0  0  0  0  0
    4.7965    0.4481   -0.1380 H   0  0  0  0  0  0  0  0  0  0  0  0
    2.6950    0.2820    1.1455 H   0  0  0  0  0  0  0  0  0  0  0  0
    0.1919   -2.4284   -0.6621 H   0  0  0  0  0  0  0  0  0  0  0  0
   -1.2885   -1.9523   -2.5557 H   0  0  0  0  0  0  0  0  0  0  0  0
   -2.7454    0.0692   -2.5013 H   0  0  0  0  0  0  0  0  0  0  0  0
   -4.3937    3.1265   -0.6836 H   0  0  0  0  0  0  0  0  0  0  0  0
   -4.4409    1.6345   -1.6003 H   0  0  0  0  0  0  0  0  0  0  0  0
  1  2  1  0
  2  3  1  0
  3  4  2  0
  4  5  1  0
  5  6  1  0
  6  7  1  0
  7  8  1  0
  8  9  2  0
  9 10  1  0
 10 11  2  0
 11 12  1  0
 12 13  2  0
  5 14  2  0
 14 15  1  0
 15 16  2  0
 16 17  1  0
 17 18  1  0
 18 19  1  0
 19 20  1  0
 20 21  3  0
 18  2  2  0
 17  4  1  0
 13  8  1  0
  1 22  1  0
  1 23  1  0
  1 24  1  0
  7 25  1  0
  7 26  1  0
  9 27  1  0
 10 28  1  0
 11 29  1  0
 12 30  1  0
 13 31  1  0
 14 32  1  0
 15 33  1  0
 16 34  1  0
 19 35  1  0
 19 36  1  0
M  END
$$$$
