
     RDKit          3D

 41 45  0  0  0  0  0  0  0  0999 V2000
   -5.7449   -2.3433    1.6849 C   0  0  0  0  0  0  0  0  0  0  0  0
   -4.6430   -1.4820    1.3294 N   0  0  0  0  0  0  0  0  0  0  0  0
   -4.3199   -1.0256    0.0820 C   0  0  0  0  0  0  0  0  0  0  0  0
   -3.1903   -0.2390    0.2267 C   0  0  0  0  0  0  0  0  0  0  0  0
   -2.4255    0.4832   -0.7724 C   0  0  0  0  0  0  0  0  0  0  0  0
   -2.9708    0.4792   -2.1583 C   0  0  0  0  0  0  0  0  0  0  0  0
   -2.2694    1.1392   -3.0903 C   0  0  0  0  0  0  0  0  0  0  0  0
   -1.0749    1.7901   -2.7212 C   0  0  0  0  0  0  0  0  0  0  0  0
   -0.1945    2.4830   -3.4069 N   0  0  0  0  0  0  0  0  0  0  0  0
    0.7912    2.8824   -2.5349 N   0  0  0  0  0  0  0  0  0  0  0  0
    0.4863    2.4268   -1.3300 C   0  0  0  0  0  0  0  0  0  0  0  0
    1.2571    2.5794   -0.0655 C   0  0  0  0  0  0  0  0  0  0  0  0
    2.0935    3.6617   -0.1694 F   0  0  0  0  0  0  0  0  0  0  0  0
    0.4176    2.9183    0.9632 F   0  0  0  0  0  0  0  0  0  0  0  0
    2.0617    1.3249    0.2513 C   0  0  0  0  0  0  0  0  0  0  0  0
    1.6216    0.4053    1.2099 C   0  0  0  0  0  0  0  0  0  0  0  0
    2.3619   -0.7529    1.4727 C   0  0  0  0  0  0  0  0  0  0  0  0
    3.5456   -1.0327    0.8045 C   0  0  0  0  0  0  0  0  0  0  0  0
    4.2179   -2.1612    1.0918 N   0  0  0  0  0  0  0  0  0  0  0  0
    5.3677   -2.4012    0.4237 C   0  0  0  0  0  0  0  0  0  0  0  0
    5.8919   -1.5581   -0.5375 C   0  0  0  0  0  0  0  0  0  0  0  0
    5.1937   -0.3941   -0.8336 C   0  0  0  0  0  0  0  0  0  0  0  0
    3.9981   -0.1092   -0.1614 C   0  0  0  0  0  0  0  0  0  0  0  0
    3.2588    1.0568   -0.4309 C   0  0  0  0  0  0  0  0  0  0  0  0
   -0.6888    1.7231   -1.3968 N   0  0  0  0  0  0  0  0  0  0  0  0
   -1.3360    1.0731   -0.3853 N   0  0  0  0  0  0  0  0  0  0  0  0
   -2.9288   -0.3004    1.6199 C   0  0  0  0  0  0  0  0  0  0  0  0
   -3.8084   -1.0507    2.2864 N   0  0  0  0  0  0  0  0  0  0  0  0
   -6.3153   -2.5933    0.7870 H   0  0  0  0  0  0  0  0  0  0  0  0
   -5.3397   -3.2529    2.1352 H   0  0  0  0  0  0  0  0  0  0  0  0
   -6.3821   -1.8118    2.3961 H   0  0  0  0  0  0  0  0  0  0  0  0
   -4.9131   -1.3056   -0.7764 H   0  0  0  0  0  0  0  0  0  0  0  0
   -3.8933   -0.0287   -2.3985 H   0  0  0  0  0  0  0  0  0  0  0  0
   -2.5948    1.1878   -4.1234 H   0  0  0  0  0  0  0  0  0  0  0  0
    0.6985    0.5803    1.7607 H   0  0  0  0  0  0  0  0  0  0  0  0
    2.0049   -1.4575    2.2209 H   0  0  0  0  0  0  0  0  0  0  0  0
    5.8732   -3.3240    0.6940 H   0  0  0  0  0  0  0  0  0  0  0  0
    6.8197   -1.8003   -1.0429 H   0  0  0  0  0  0  0  0  0  0  0  0
    5.5842    0.2863   -1.5862 H   0  0  0  0  0  0  0  0  0  0  0  0
    3.6159    1.7645   -1.1798 H   0  0  0  0  0  0  0  0  0  0  0  0
   -2.1277    0.1791    2.1693 H   0  0  0  0  0  0  0  0  0  0  0  0
  1  2  1  0
  2  3  1  0
  3  4  2  0
  4  5  1  0
  5  6  1  0
  6  7  2  0
  7  8  1  0
  8  9  2  0
  9 10  1  0
 10 11  2  0
 11 12  1  0
 12 13  1  0
 12 14  1  0
 12 15  1  0
 15 16  2  0
 16 17  1  0
 17 18  2  0
 18 19  1  0
 19 20  2  0
 20 21  1  0
 21 22  2  0
 22 23  1  0
 23 24  2  0
 11 25  1  0
 25 26  1  0
  4 27  1  0
 27 28  2  0
 28  2  1  0
 26  5  2  0
 25  8  1  0
 24 15  1  0
 23 18  1  0
  1 29  1  0
  1 30  1  0
  1 31  1  0
  3 32  1  0
  6 33  1  0
  7 34  1  0
 16 35  1  0
 17 36  1  0
 20 37  1  0
 21 38  1  0
 22 39  1  0
 24 40  1  0
 27 41  1  0
M  END
$$$$
