
     RDKit          3D

 32 32  0  0  0  0  0  0  0  0999 V2000
   -0.8010    2.8496    0.9832 C   0  0  0  0  0  0  0  0  0  0  0  0
   -0.1301    2.3525   -0.1761 O   0  0  0  0  0  0  0  0  0  0  0  0
   -0.9273    1.4455   -0.8337 C   0  0  0  0  0  0  0  0  0  0  0  0
   -1.5213    1.8704   -2.0232 C   0  0  0  0  0  0  0  0  0  0  0  0
   -2.3093    0.9863   -2.7562 C   0  0  0  0  0  0  0  0  0  0  0  0
   -2.4885   -0.3205   -2.3048 C   0  0  0  0  0  0  0  0  0  0  0  0
   -1.8717   -0.7530   -1.1252 C   0  0  0  0  0  0  0  0  0  0  0  0
   -1.0723    0.1223   -0.3866 C   0  0  0  0  0  0  0  0  0  0  0  0
   -0.4131   -0.2076    0.7649 O   0  0  0  0  0  0  0  0  0  0  0  0
   -0.2520   -1.5932    1.0649 C   0  0  0  0  0  0  0  0  0  0  0  0
    0.7343   -1.7491    2.2336 C   0  0  0  0  0  0  0  0  0  0  0  0
    0.6271   -3.0682    2.7867 O   0  0  0  0  0  0  0  0  0  0  0  0
    2.2023   -1.4729    1.8651 C   0  0  0  0  0  0  0  0  0  0  0  0
    2.3737   -0.2175    1.2004 O   0  0  0  0  0  0  0  0  0  0  0  0
    2.5660   -0.2884   -0.1362 C   0  0  0  0  0  0  0  0  0  0  0  0
    2.5858    0.9535   -0.6695 N   0  0  0  0  0  0  0  0  0  0  0  0
    2.6634   -1.3078   -0.8008 O   0  0  0  0  0  0  0  0  0  0  0  0
   -0.2181    3.6927    1.3671 H   0  0  0  0  0  0  0  0  0  0  0  0
   -0.8524    2.0930    1.7721 H   0  0  0  0  0  0  0  0  0  0  0  0
   -1.8049    3.2170    0.7410 H   0  0  0  0  0  0  0  0  0  0  0  0
   -1.3718    2.8877   -2.3731 H   0  0  0  0  0  0  0  0  0  0  0  0
   -2.7820    1.3142   -3.6786 H   0  0  0  0  0  0  0  0  0  0  0  0
   -3.1063   -1.0102   -2.8755 H   0  0  0  0  0  0  0  0  0  0  0  0
   -2.0367   -1.7783   -0.8104 H   0  0  0  0  0  0  0  0  0  0  0  0
   -1.2206   -2.0158    1.3595 H   0  0  0  0  0  0  0  0  0  0  0  0
    0.1181   -2.1532    0.1968 H   0  0  0  0  0  0  0  0  0  0  0  0
    0.4445   -1.0397    3.0184 H   0  0  0  0  0  0  0  0  0  0  0  0
    0.9073   -3.7034    2.1033 H   0  0  0  0  0  0  0  0  0  0  0  0
    2.6221   -2.3122    1.2964 H   0  0  0  0  0  0  0  0  0  0  0  0
    2.7951   -1.4351    2.7868 H   0  0  0  0  0  0  0  0  0  0  0  0
    2.4503    0.9866   -1.6692 H   0  0  0  0  0  0  0  0  0  0  0  0
    2.0894    1.6546   -0.1329 H   0  0  0  0  0  0  0  0  0  0  0  0
  1  2  1  0
  2  3  1  0
  3  4  2  0
  4  5  1  0
  5  6  2  0
  6  7  1  0
  7  8  2  0
  8  9  1  0
  9 10  1  0
 10 11  1  0
 11 12  1  0
 11 13  1  0
 13 14  1  0
 14 15  1  0
 15 16  1  0
 15 17  2  0
  8  3  1  0
  1 18  1  0
  1 19  1  0
  1 20  1  0
  4 21  1  0
  5 22  1  0
  6 23  1  0
  7 24  1  0
 10 25  1  0
 10 26  1  0
 11 27  1  0
 12 28  1  0
 13 29  1  0
 13 30  1  0
 16 31  1  0
 16 32  1  0
M  END
$$$$
