
     RDKit          3D

 50 52  0  0  0  0  0  0  0  0999 V2000
   -6.9737    0.5528   -2.4658 C   0  0  0  0  0  0  0  0  0  0  0  0
   -5.5041    0.2701   -2.2018 C   0  0  0  0  0  0  0  0  0  0  0  0
   -5.1324    0.5541   -0.7463 C   0  0  0  0  0  0  0  0  0  0  0  0
   -3.7182    0.2904   -0.4888 N   0  0  0  0  0  0  0  0  0  0  0  0
   -2.7855    1.2979   -0.6973 C   0  0  0  0  0  0  0  0  0  0  0  0
   -3.0852    2.4271   -1.0788 O   0  0  0  0  0  0  0  0  0  0  0  0
   -1.3498    0.9845   -0.4411 C   0  0  0  0  0  0  0  0  0  0  0  0
   -0.4045    2.0065   -0.6245 C   0  0  0  0  0  0  0  0  0  0  0  0
    0.9507    1.7664   -0.3978 C   0  0  0  0  0  0  0  0  0  0  0  0
    1.3668    0.5011    0.0233 C   0  0  0  0  0  0  0  0  0  0  0  0
    2.8016    0.1865    0.2687 C   0  0  0  0  0  0  0  0  0  0  0  0
    3.2108   -0.9523    0.0764 O   0  0  0  0  0  0  0  0  0  0  0  0
    3.5890    1.2182    0.7338 N   0  0  0  0  0  0  0  0  0  0  0  0
    5.0260    1.0568    0.9394 C   0  0  0  0  0  0  0  0  0  0  0  0
    5.4905    2.0085    2.0400 C   0  0  0  0  0  0  0  0  0  0  0  0
    5.7683    1.2827   -0.3885 C   0  0  0  0  0  0  0  0  0  0  0  0
    7.2614    1.0018   -0.3065 C   0  0  0  0  0  0  0  0  0  0  0  0
    0.4251   -0.5305    0.1919 C   0  0  0  0  0  0  0  0  0  0  0  0
   -0.9353   -0.2948   -0.0355 C   0  0  0  0  0  0  0  0  0  0  0  0
   -1.9475   -1.2711    0.1143 N   0  0  0  0  0  0  0  0  0  0  0  0
   -1.9735   -2.6077    0.4706 C   0  0  0  0  0  0  0  0  0  0  0  0
   -0.6280   -3.6223    0.8632 S   0  0  0  0  0  0  0  0  0  0  0  0
   -1.4452   -4.8968    1.8787 C   0  0  0  0  0  0  0  0  0  0  0  0
   -1.8498   -4.3963    3.1997 C   0  0  0  0  0  0  0  0  0  0  0  0
   -2.1495   -4.0022    4.2504 N   0  0  0  0  0  0  0  0  0  0  0  0
   -3.2095   -3.0558    0.4533 N   0  0  0  0  0  0  0  0  0  0  0  0
   -4.0287   -2.0275    0.0897 N   0  0  0  0  0  0  0  0  0  0  0  0
   -3.2801   -0.9662   -0.1097 C   0  0  0  0  0  0  0  0  0  0  0  0
   -7.2181    0.3437   -3.5120 H   0  0  0  0  0  0  0  0  0  0  0  0
   -7.6128   -0.0740   -1.8357 H   0  0  0  0  0  0  0  0  0  0  0  0
   -7.2137    1.6016   -2.2639 H   0  0  0  0  0  0  0  0  0  0  0  0
   -5.2877   -0.7765   -2.4466 H   0  0  0  0  0  0  0  0  0  0  0  0
   -4.8910    0.8836   -2.8725 H   0  0  0  0  0  0  0  0  0  0  0  0
   -5.3455    1.6035   -0.5093 H   0  0  0  0  0  0  0  0  0  0  0  0
   -5.7396   -0.0532   -0.0643 H   0  0  0  0  0  0  0  0  0  0  0  0
   -0.7220    2.9952   -0.9552 H   0  0  0  0  0  0  0  0  0  0  0  0
    1.6629    2.5656   -0.5835 H   0  0  0  0  0  0  0  0  0  0  0  0
    3.1882    2.1313    0.8955 H   0  0  0  0  0  0  0  0  0  0  0  0
    5.2024    0.0269    1.2736 H   0  0  0  0  0  0  0  0  0  0  0  0
    4.8975    1.8641    2.9502 H   0  0  0  0  0  0  0  0  0  0  0  0
    5.3746    3.0545    1.7351 H   0  0  0  0  0  0  0  0  0  0  0  0
    6.5396    1.8403    2.3005 H   0  0  0  0  0  0  0  0  0  0  0  0
    5.6112    2.3116   -0.7362 H   0  0  0  0  0  0  0  0  0  0  0  0
    5.3396    0.6310   -1.1603 H   0  0  0  0  0  0  0  0  0  0  0  0
    7.7700    1.7171    0.3461 H   0  0  0  0  0  0  0  0  0  0  0  0
    7.4512   -0.0085    0.0692 H   0  0  0  0  0  0  0  0  0  0  0  0
    7.7132    1.0837   -1.3005 H   0  0  0  0  0  0  0  0  0  0  0  0
    0.8134   -1.4921    0.5045 H   0  0  0  0  0  0  0  0  0  0  0  0
   -2.2987   -5.3206    1.3399 H   0  0  0  0  0  0  0  0  0  0  0  0
   -0.7244   -5.7107    2.0108 H   0  0  0  0  0  0  0  0  0  0  0  0
  1  2  1  0
  2  3  1  0
  3  4  1  0
  4  5  1  0
  5  6  2  0
  5  7  1  0
  7  8  2  0
  8  9  1  0
  9 10  2  0
 10 11  1  0
 11 12  2  0
 11 13  1  0
 13 14  1  0
 14 15  1  0
 14 16  1  0
 16 17  1  0
 10 18  1  0
 18 19  2  0
 19 20  1  0
 20 21  1  0
 21 22  1  0
 22 23  1  0
 23 24  1  0
 24 25  3  0
 21 26  2  0
 26 27  1  0
 27 28  2  0
 28  4  1  0
 19  7  1  0
 28 20  1  0
  1 29  1  0
  1 30  1  0
  1 31  1  0
  2 32  1  0
  2 33  1  0
  3 34  1  0
  3 35  1  0
  8 36  1  0
  9 37  1  0
 13 38  1  0
 14 39  1  0
 15 40  1  0
 15 41  1  0
 15 42  1  0
 16 43  1  0
 16 44  1  0
 17 45  1  0
 17 46  1  0
 17 47  1  0
 18 48  1  0
 23 49  1  0
 23 50  1  0
M  END
$$$$
