
     RDKit          3D

 60 64  0  0  0  0  0  0  0  0999 V2000
    5.8740   -3.3645    0.5729 C   0  0  0  0  0  0  0  0  0  0  0  0
    5.0631   -2.1728    0.2280 C   0  0  0  0  0  0  0  0  0  0  0  0
    3.8148   -2.1317   -0.4176 C   0  0  0  0  0  0  0  0  0  0  0  0
    3.4525   -0.8007   -0.4531 C   0  0  0  0  0  0  0  0  0  0  0  0
    2.2600   -0.2275   -0.8337 N   0  0  0  0  0  0  0  0  0  0  0  0
    1.4173    0.2689    0.2888 C   0  0  0  0  0  0  0  0  0  0  0  0
   -0.0089    0.6259   -0.1871 C   0  0  0  0  0  0  0  0  0  0  0  0
   -0.7611   -0.4900   -0.8104 N   0  0  0  0  0  0  0  0  0  0  0  0
   -1.7214   -1.1272    0.1072 C   0  0  2  0  0  0  0  0  0  0  0  0
   -2.4934   -2.3247   -0.4614 C   0  0  0  0  0  0  0  0  0  0  0  0
   -3.6014   -2.4948    0.4847 N   0  0  0  0  0  0  0  0  0  0  0  0
   -4.0598   -1.1190    0.8056 C   0  0  2  0  0  0  0  0  0  0  0  0
   -5.3005   -0.7586   -0.0470 C   0  0  0  0  0  0  0  0  0  0  0  0
   -5.6824   -1.5001   -0.9579 O   0  0  0  0  0  0  0  0  0  0  0  0
   -5.9657    0.4174    0.2482 N   0  0  0  0  0  0  0  0  0  0  0  0
   -5.8228    1.1907    1.4733 C   0  0  0  0  0  0  0  0  0  0  0  0
   -6.4280    2.5638    1.2409 C   0  0  0  0  0  0  0  0  0  0  0  0
   -7.8669    2.2363    0.2007 S   0  0  0  0  0  0  0  0  0  0  0  0
   -7.1859    0.7014   -0.4772 C   0  0  0  0  0  0  0  0  0  0  0  0
   -2.8729   -0.1975    0.5116 C   0  0  0  0  0  0  0  0  0  0  0  0
    0.1716   -1.4808   -1.4032 C   0  0  0  0  0  0  0  0  0  0  0  0
    1.4845   -0.8599   -1.9268 C   0  0  0  0  0  0  0  0  0  0  0  0
    4.5631   -0.0940    0.0457 N   0  0  0  0  0  0  0  0  0  0  0  0
    4.8419    1.3086    0.0437 C   0  0  0  0  0  0  0  0  0  0  0  0
    5.9064    1.7968    0.8203 C   0  0  0  0  0  0  0  0  0  0  0  0
    6.2089    3.1607    0.8328 C   0  0  0  0  0  0  0  0  0  0  0  0
    5.4617    4.0479    0.0620 C   0  0  0  0  0  0  0  0  0  0  0  0
    4.4176    3.5717   -0.7281 C   0  0  0  0  0  0  0  0  0  0  0  0
    4.1103    2.2075   -0.7427 C   0  0  0  0  0  0  0  0  0  0  0  0
    5.4878   -0.9554    0.5674 N   0  0  0  0  0  0  0  0  0  0  0  0
    6.8571   -3.3114    0.0934 H   0  0  0  0  0  0  0  0  0  0  0  0
    6.0193   -3.4309    1.6562 H   0  0  0  0  0  0  0  0  0  0  0  0
    5.3845   -4.2854    0.2399 H   0  0  0  0  0  0  0  0  0  0  0  0
    3.2224   -2.9729   -0.7448 H   0  0  0  0  0  0  0  0  0  0  0  0
    1.8742    1.1604    0.7318 H   0  0  0  0  0  0  0  0  0  0  0  0
    1.3520   -0.4935    1.0768 H   0  0  0  0  0  0  0  0  0  0  0  0
    0.0725    1.4173   -0.9441 H   0  0  0  0  0  0  0  0  0  0  0  0
   -0.5598    1.0762    0.6454 H   0  0  0  0  0  0  0  0  0  0  0  0
   -1.1961   -1.4551    1.0169 H   0  0  0  0  0  0  0  0  0  0  0  0
   -2.8775   -2.1135   -1.4674 H   0  0  0  0  0  0  0  0  0  0  0  0
   -1.8836   -3.2320   -0.5058 H   0  0  0  0  0  0  0  0  0  0  0  0
   -4.3669   -2.9829    0.0058 H   0  0  0  0  0  0  0  0  0  0  0  0
   -4.3427   -1.0954    1.8629 H   0  0  0  0  0  0  0  0  0  0  0  0
   -6.3566    0.6519    2.2664 H   0  0  0  0  0  0  0  0  0  0  0  0
   -4.7772    1.2713    1.7774 H   0  0  0  0  0  0  0  0  0  0  0  0
   -5.7370    3.2063    0.6862 H   0  0  0  0  0  0  0  0  0  0  0  0
   -6.7025    3.0601    2.1752 H   0  0  0  0  0  0  0  0  0  0  0  0
   -6.9638    0.8052   -1.5436 H   0  0  0  0  0  0  0  0  0  0  0  0
   -7.8985   -0.1172   -0.3342 H   0  0  0  0  0  0  0  0  0  0  0  0
   -3.1085    0.5072   -0.2959 H   0  0  0  0  0  0  0  0  0  0  0  0
   -2.6001    0.3860    1.3979 H   0  0  0  0  0  0  0  0  0  0  0  0
    0.4343   -2.2488   -0.6631 H   0  0  0  0  0  0  0  0  0  0  0  0
   -0.3332   -1.9832   -2.2362 H   0  0  0  0  0  0  0  0  0  0  0  0
    2.0698   -1.6213   -2.4561 H   0  0  0  0  0  0  0  0  0  0  0  0
    1.2528   -0.0868   -2.6704 H   0  0  0  0  0  0  0  0  0  0  0  0
    6.5068    1.1234    1.4295 H   0  0  0  0  0  0  0  0  0  0  0  0
    7.0312    3.5262    1.4423 H   0  0  0  0  0  0  0  0  0  0  0  0
    5.7006    5.1081    0.0682 H   0  0  0  0  0  0  0  0  0  0  0  0
    3.8466    4.2605   -1.3455 H   0  0  0  0  0  0  0  0  0  0  0  0
    3.3157    1.8719   -1.4016 H   0  0  0  0  0  0  0  0  0  0  0  0
  1  2  1  0
  2  3  1  0
  3  4  2  0
  4  5  1  0
  5  6  1  0
  6  7  1  0
  7  8  1  0
  8  9  1  0
  9 10  1  0
 10 11  1  0
 11 12  1  0
 12 13  1  0
 13 14  2  0
 13 15  1  0
 15 16  1  0
 16 17  1  0
 17 18  1  0
 18 19  1  0
 12 20  1  0
  8 21  1  0
 21 22  1  0
  4 23  1  0
 23 24  1  0
 24 25  2  0
 25 26  1  0
 26 27  2  0
 27 28  1  0
 28 29  2  0
 23 30  1  0
 30  2  2  0
 22  5  1  0
 29 24  1  0
 20  9  1  0
 19 15  1  0
  1 31  1  0
  1 32  1  0
  1 33  1  0
  3 34  1  0
  6 35  1  0
  6 36  1  0
  7 37  1  0
  7 38  1  0
  9 39  1  1
 10 40  1  0
 10 41  1  0
 11 42  1  0
 12 43  1  1
 16 44  1  0
 16 45  1  0
 17 46  1  0
 17 47  1  0
 19 48  1  0
 19 49  1  0
 20 50  1  0
 20 51  1  0
 21 52  1  0
 21 53  1  0
 22 54  1  0
 22 55  1  0
 25 56  1  0
 26 57  1  0
 27 58  1  0
 28 59  1  0
 29 60  1  0
M  END
$$$$
