
     RDKit          3D

 21 22  0  0  0  0  0  0  0  0999 V2000
   -3.3177   -0.9797   -0.2074 C   0  0  0  0  0  0  0  0  0  0  0  0
   -1.9996   -0.2537   -0.0344 C   0  0  0  0  0  0  0  0  0  0  0  0
   -2.0725    0.9869    0.3007 N   0  0  0  0  0  0  0  0  0  0  0  0
   -0.7330    1.8641    0.5140 S   0  0  0  0  0  6  0  0  0  0  0  0
   -0.6383    2.2281    1.9147 O   0  0  0  0  0  0  0  0  0  0  0  0
   -0.6795    2.8824   -0.5174 O   0  0  0  0  0  0  0  0  0  0  0  0
    0.6540    0.8210    0.2098 C   0  0  0  0  0  0  0  0  0  0  0  0
    1.9432    1.3501    0.3303 C   0  0  0  0  0  0  0  0  0  0  0  0
    3.0296    0.5200    0.0886 C   0  0  0  0  0  0  0  0  0  0  0  0
    4.6282    1.1359    0.2272 Cl  0  0  0  0  0  0  0  0  0  0  0  0
    2.8294   -0.8137   -0.2669 C   0  0  0  0  0  0  0  0  0  0  0  0
    1.5297   -1.3224   -0.3817 C   0  0  0  0  0  0  0  0  0  0  0  0
    0.4202   -0.5035   -0.1426 C   0  0  0  0  0  0  0  0  0  0  0  0
   -0.8740   -1.0057   -0.2558 N   0  0  0  0  0  0  0  0  0  0  0  0
   -3.3619   -1.8217    0.4895 H   0  0  0  0  0  0  0  0  0  0  0  0
   -4.1613   -0.3113   -0.0133 H   0  0  0  0  0  0  0  0  0  0  0  0
   -3.3910   -1.3589   -1.2308 H   0  0  0  0  0  0  0  0  0  0  0  0
    2.0864    2.3917    0.6081 H   0  0  0  0  0  0  0  0  0  0  0  0
    3.6810   -1.4634   -0.4561 H   0  0  0  0  0  0  0  0  0  0  0  0
    1.4010   -2.3659   -0.6603 H   0  0  0  0  0  0  0  0  0  0  0  0
   -0.9740   -1.9803   -0.5163 H   0  0  0  0  0  0  0  0  0  0  0  0
  1  2  1  0
  2  3  2  0
  3  4  1  0
  4  5  2  0
  4  6  2  0
  4  7  1  0
  7  8  2  0
  8  9  1  0
  9 10  1  0
  9 11  2  0
 11 12  1  0
 12 13  2  0
 13 14  1  0
 14  2  1  0
 13  7  1  0
  1 15  1  0
  1 16  1  0
  1 17  1  0
  8 18  1  0
 11 19  1  0
 12 20  1  0
 14 21  1  0
M  END
$$$$
