
     RDKit          3D

 42 44  0  0  0  0  0  0  0  0999 V2000
   -5.4711    0.4932   -0.1480 C   0  0  0  0  0  0  0  0  0  0  0  0
   -4.2119   -0.2810   -0.4978 C   0  0  0  0  0  0  0  0  0  0  0  0
   -3.2183    0.6064   -1.1383 N   0  0  0  0  0  0  0  0  0  0  0  0
   -2.5970    1.6702   -0.3078 C   0  0  0  0  0  0  0  0  0  0  0  0
   -2.1703    1.2077    1.0761 C   0  0  0  0  0  0  0  0  0  0  0  0
   -2.3295   -0.0112   -2.4487 S   0  0  0  0  0  6  0  0  0  0  0  0
   -1.5872    1.0693   -3.0628 O   0  0  0  0  0  0  0  0  0  0  0  0
   -3.2093   -0.8437   -3.2432 O   0  0  0  0  0  0  0  0  0  0  0  0
   -1.1525   -1.0893   -1.6604 C   0  0  0  0  0  0  0  0  0  0  0  0
   -1.3972   -2.4598   -1.6061 C   0  0  0  0  0  0  0  0  0  0  0  0
   -0.4425   -3.2920   -1.0341 C   0  0  0  0  0  0  0  0  0  0  0  0
    0.7447   -2.7532   -0.5206 C   0  0  0  0  0  0  0  0  0  0  0  0
    1.0086   -1.3711   -0.5626 C   0  0  0  0  0  0  0  0  0  0  0  0
    2.2100   -0.8192   -0.0197 N   0  0  0  0  0  0  0  0  0  0  0  0
    3.5730   -1.8143    0.3667 S   0  0  0  0  0  0  0  0  0  0  0  0
    4.5250   -0.4129    0.8504 C   0  0  0  0  0  0  0  0  0  0  0  0
    5.8384   -0.3886    1.2955 C   0  0  0  0  0  0  0  0  0  0  0  0
    6.4100    0.8422    1.6353 C   0  0  0  0  0  0  0  0  0  0  0  0
    5.6684    2.0285    1.5262 C   0  0  0  0  0  0  0  0  0  0  0  0
    4.3467    1.9952    1.0775 C   0  0  0  0  0  0  0  0  0  0  0  0
    3.7960    0.7633    0.7441 C   0  0  0  0  0  0  0  0  0  0  0  0
    2.4228    0.5401    0.2536 C   0  0  0  0  0  0  0  0  0  0  0  0
    1.6460    1.4812    0.1648 O   0  0  0  0  0  0  0  0  0  0  0  0
    0.0440   -0.5520   -1.1654 C   0  0  0  0  0  0  0  0  0  0  0  0
   -5.2744    1.2677    0.6027 H   0  0  0  0  0  0  0  0  0  0  0  0
   -5.8900    0.9825   -1.0341 H   0  0  0  0  0  0  0  0  0  0  0  0
   -6.2293   -0.1837    0.2583 H   0  0  0  0  0  0  0  0  0  0  0  0
   -3.7941   -0.7586    0.3877 H   0  0  0  0  0  0  0  0  0  0  0  0
   -4.5044   -1.0890   -1.1738 H   0  0  0  0  0  0  0  0  0  0  0  0
   -3.3151    2.4937   -0.2147 H   0  0  0  0  0  0  0  0  0  0  0  0
   -1.7289    2.0991   -0.8180 H   0  0  0  0  0  0  0  0  0  0  0  0
   -1.5796    0.2899    1.0423 H   0  0  0  0  0  0  0  0  0  0  0  0
   -1.5704    1.9836    1.5625 H   0  0  0  0  0  0  0  0  0  0  0  0
   -3.0369    1.0239    1.7177 H   0  0  0  0  0  0  0  0  0  0  0  0
   -2.3115   -2.8829   -2.0156 H   0  0  0  0  0  0  0  0  0  0  0  0
   -0.6142   -4.3652   -0.9870 H   0  0  0  0  0  0  0  0  0  0  0  0
    1.4468   -3.4502   -0.0702 H   0  0  0  0  0  0  0  0  0  0  0  0
    6.4181   -1.3031    1.3808 H   0  0  0  0  0  0  0  0  0  0  0  0
    7.4400    0.8814    1.9866 H   0  0  0  0  0  0  0  0  0  0  0  0
    6.1265    2.9792    1.7929 H   0  0  0  0  0  0  0  0  0  0  0  0
    3.7624    2.9071    0.9866 H   0  0  0  0  0  0  0  0  0  0  0  0
    0.2084    0.5156   -1.2835 H   0  0  0  0  0  0  0  0  0  0  0  0
  1  2  1  0
  2  3  1  0
  3  4  1  0
  4  5  1  0
  3  6  1  0
  6  7  2  0
  6  8  2  0
  6  9  1  0
  9 10  2  0
 10 11  1  0
 11 12  2  0
 12 13  1  0
 13 14  1  0
 14 15  1  0
 15 16  1  0
 16 17  2  0
 17 18  1  0
 18 19  2  0
 19 20  1  0
 20 21  2  0
 21 22  1  0
 22 23  2  0
 13 24  2  0
 24  9  1  0
 22 14  1  0
 21 16  1  0
  1 25  1  0
  1 26  1  0
  1 27  1  0
  2 28  1  0
  2 29  1  0
  4 30  1  0
  4 31  1  0
  5 32  1  0
  5 33  1  0
  5 34  1  0
 10 35  1  0
 11 36  1  0
 12 37  1  0
 17 38  1  0
 18 39  1  0
 19 40  1  0
 20 41  1  0
 24 42  1  0
M  END
$$$$
