
     RDKit          3D

 39 41  0  0  0  0  0  0  0  0999 V2000
    1.0381    0.0445    1.7183 O   0  0  0  0  0  0  0  0  0  0  0  0
    1.2541   -0.6119    0.7035 C   0  0  0  0  0  0  0  0  0  0  0  0
    2.4120   -0.5751   -0.0465 N   0  0  0  0  0  0  0  0  0  0  0  0
    3.2417    0.5442    0.2238 O   0  0  0  0  0  0  0  0  0  0  0  0
    4.3334    0.1159    1.0507 C   0  0  0  0  0  0  0  0  0  0  0  0
    5.3560    1.2451    1.1563 C   0  0  0  0  0  0  0  0  0  0  0  0
    4.8909    2.2634    2.0373 O   0  0  0  0  0  0  0  0  0  0  0  0
    0.1994   -1.5081    0.1309 C   0  0  0  0  0  0  0  0  0  0  0  0
    0.5479   -2.8049   -0.4547 C   0  0  0  0  0  0  0  0  0  0  0  0
   -0.3853   -3.6244   -0.9708 C   0  0  0  0  0  0  0  0  0  0  0  0
   -1.7451   -3.2322   -0.9228 C   0  0  0  0  0  0  0  0  0  0  0  0
   -2.9443   -3.7796   -1.3156 C   0  0  0  0  0  0  0  0  0  0  0  0
   -3.9888   -2.9613   -0.9766 N   0  0  0  0  0  0  0  0  0  0  0  0
   -3.4366   -1.9311   -0.3713 C   0  0  0  0  0  0  0  0  0  0  0  0
   -2.0609   -2.0120   -0.3357 N   0  0  0  0  0  0  0  0  0  0  0  0
   -1.0994   -1.1090    0.1814 C   0  0  0  0  0  0  0  0  0  0  0  0
   -1.5516    0.0836    0.7501 N   0  0  0  0  0  0  0  0  0  0  0  0
   -1.9614    1.2262    0.0004 C   0  0  0  0  0  0  0  0  0  0  0  0
   -2.2649    1.1919   -1.3663 C   0  0  0  0  0  0  0  0  0  0  0  0
   -2.7244    2.3397   -2.0258 C   0  0  0  0  0  0  0  0  0  0  0  0
   -2.8999    3.5304   -1.3202 C   0  0  0  0  0  0  0  0  0  0  0  0
   -3.5817    5.2261   -2.3071 I   0  0  0  0  0  0  0  0  0  0  0  0
   -2.6257    3.5850    0.0415 C   0  0  0  0  0  0  0  0  0  0  0  0
   -2.1708    2.4375    0.6851 C   0  0  0  0  0  0  0  0  0  0  0  0
   -1.9194    2.5000    2.0022 F   0  0  0  0  0  0  0  0  0  0  0  0
    2.3524   -0.8114   -1.0306 H   0  0  0  0  0  0  0  0  0  0  0  0
    4.8077   -0.7577    0.5887 H   0  0  0  0  0  0  0  0  0  0  0  0
    3.9479   -0.1502    2.0410 H   0  0  0  0  0  0  0  0  0  0  0  0
    5.5360    1.6976    0.1759 H   0  0  0  0  0  0  0  0  0  0  0  0
    6.2979    0.8630    1.5609 H   0  0  0  0  0  0  0  0  0  0  0  0
    5.5031    3.0144    1.9627 H   0  0  0  0  0  0  0  0  0  0  0  0
    1.5883   -3.1172   -0.4434 H   0  0  0  0  0  0  0  0  0  0  0  0
   -0.1171   -4.5889   -1.3921 H   0  0  0  0  0  0  0  0  0  0  0  0
   -3.1144   -4.7249   -1.8146 H   0  0  0  0  0  0  0  0  0  0  0  0
   -3.9705   -1.0933    0.0572 H   0  0  0  0  0  0  0  0  0  0  0  0
   -0.8934    0.4233    1.4732 H   0  0  0  0  0  0  0  0  0  0  0  0
   -2.1465    0.2840   -1.9500 H   0  0  0  0  0  0  0  0  0  0  0  0
   -2.9456    2.2839   -3.0895 H   0  0  0  0  0  0  0  0  0  0  0  0
   -2.7594    4.4936    0.6191 H   0  0  0  0  0  0  0  0  0  0  0  0
  1  2  2  0
  2  3  1  0
  3  4  1  0
  4  5  1  0
  5  6  1  0
  6  7  1  0
  2  8  1  0
  8  9  1  0
  9 10  2  0
 10 11  1  0
 11 12  2  0
 12 13  1  0
 13 14  2  0
 14 15  1  0
 15 16  1  0
 16 17  1  0
 17 18  1  0
 18 19  2  0
 19 20  1  0
 20 21  2  0
 21 22  1  0
 21 23  1  0
 23 24  2  0
 24 25  1  0
 16  8  2  0
 24 18  1  0
 15 11  1  0
  3 26  1  0
  5 27  1  0
  5 28  1  0
  6 29  1  0
  6 30  1  0
  7 31  1  0
  9 32  1  0
 10 33  1  0
 12 34  1  0
 14 35  1  0
 17 36  1  0
 19 37  1  0
 20 38  1  0
 23 39  1  0
M  END
$$$$
