
     RDKit          3D

 46 49  0  0  0  0  0  0  0  0999 V2000
   -3.2252   -2.8831   -0.3007 O   0  0  0  0  0  0  0  0  0  0  0  0
   -2.7114   -1.9556    0.3170 C   0  0  0  0  0  0  0  0  0  0  0  0
   -3.4084   -1.0871    1.1246 N   0  0  0  0  0  0  0  0  0  0  0  0
   -4.8447   -1.0637    1.1883 C   0  0  0  0  0  0  0  0  0  0  0  0
   -5.4079    0.0014    0.2839 C   0  0  0  0  0  0  0  0  0  0  0  0
   -5.6039   -0.2605   -1.0800 C   0  0  0  0  0  0  0  0  0  0  0  0
   -6.1063    0.7286   -1.9264 C   0  0  0  0  0  0  0  0  0  0  0  0
   -6.4119    1.9905   -1.4202 C   0  0  0  0  0  0  0  0  0  0  0  0
   -6.2117    2.2659   -0.0685 C   0  0  0  0  0  0  0  0  0  0  0  0
   -5.7083    1.2779    0.7798 C   0  0  0  0  0  0  0  0  0  0  0  0
   -1.2714   -1.6562    0.2569 C   0  0  0  0  0  0  0  0  0  0  0  0
   -0.2820   -2.3645   -0.4771 C   0  0  0  0  0  0  0  0  0  0  0  0
    0.9042   -1.7107   -0.2277 C   0  0  0  0  0  0  0  0  0  0  0  0
    0.5787   -0.6844    0.6101 N   0  0  0  0  0  0  0  0  0  0  0  0
   -0.7249   -0.6174    0.9275 N   0  0  0  0  0  0  0  0  0  0  0  0
    1.5128    0.3073    1.1013 C   0  0  0  0  0  0  0  0  0  0  0  0
    2.9358   -0.2142    0.9677 C   0  0  0  0  0  0  0  0  0  0  0  0
    3.1577   -0.8219   -0.3537 N   0  0  0  0  0  0  0  0  0  0  0  0
    4.4051   -0.8073   -0.9839 C   0  0  0  0  0  0  0  0  0  0  0  0
    4.7997   -1.7106   -1.7163 O   0  0  0  0  0  0  0  0  0  0  0  0
    5.2845    0.3610   -0.7997 C   0  0  0  0  0  0  0  0  0  0  0  0
    4.8202    1.6694   -0.9485 C   0  0  0  0  0  0  0  0  0  0  0  0
    5.7128    2.7262   -0.7865 C   0  0  0  0  0  0  0  0  0  0  0  0
    7.0363    2.4316   -0.4920 C   0  0  0  0  0  0  0  0  0  0  0  0
    7.5162    1.1744   -0.3610 N   0  0  0  0  0  0  0  0  0  0  0  0
    6.6317    0.1621   -0.5378 C   0  0  0  0  0  0  0  0  0  0  0  0
    2.2977   -1.9592   -0.6804 C   0  0  0  0  0  0  0  0  0  0  0  0
   -2.8704   -0.2980    1.4696 H   0  0  0  0  0  0  0  0  0  0  0  0
   -5.2587   -2.0434    0.9237 H   0  0  0  0  0  0  0  0  0  0  0  0
   -5.1229   -0.8654    2.2292 H   0  0  0  0  0  0  0  0  0  0  0  0
   -5.3595   -1.2402   -1.4881 H   0  0  0  0  0  0  0  0  0  0  0  0
   -6.2556    0.5138   -2.9813 H   0  0  0  0  0  0  0  0  0  0  0  0
   -6.8028    2.7602   -2.0803 H   0  0  0  0  0  0  0  0  0  0  0  0
   -6.4459    3.2517    0.3245 H   0  0  0  0  0  0  0  0  0  0  0  0
   -5.5524    1.5104    1.8307 H   0  0  0  0  0  0  0  0  0  0  0  0
   -0.4364   -3.2353   -1.1004 H   0  0  0  0  0  0  0  0  0  0  0  0
    1.2701    0.5313    2.1446 H   0  0  0  0  0  0  0  0  0  0  0  0
    1.3633    1.2045    0.4908 H   0  0  0  0  0  0  0  0  0  0  0  0
    3.1291   -0.9998    1.7101 H   0  0  0  0  0  0  0  0  0  0  0  0
    3.6480    0.5860    1.1790 H   0  0  0  0  0  0  0  0  0  0  0  0
    3.7833    1.8650   -1.2058 H   0  0  0  0  0  0  0  0  0  0  0  0
    5.3894    3.7555   -0.8978 H   0  0  0  0  0  0  0  0  0  0  0  0
    7.7699    3.2223   -0.3579 H   0  0  0  0  0  0  0  0  0  0  0  0
    7.0499   -0.8379   -0.4557 H   0  0  0  0  0  0  0  0  0  0  0  0
    2.7048   -2.8468   -0.1816 H   0  0  0  0  0  0  0  0  0  0  0  0
    2.3216   -2.1338   -1.7621 H   0  0  0  0  0  0  0  0  0  0  0  0
  1  2  2  0
  2  3  1  0
  3  4  1  0
  4  5  1  0
  5  6  2  0
  6  7  1  0
  7  8  2  0
  8  9  1  0
  9 10  2  0
  2 11  1  0
 11 12  1  0
 12 13  2  0
 13 14  1  0
 14 15  1  0
 14 16  1  0
 16 17  1  0
 17 18  1  0
 18 19  1  0
 19 20  2  0
 19 21  1  0
 21 22  2  0
 22 23  1  0
 23 24  2  0
 24 25  1  0
 25 26  2  0
 18 27  1  0
 10  5  1  0
 15 11  2  0
 26 21  1  0
 27 13  1  0
  3 28  1  0
  4 29  1  0
  4 30  1  0
  6 31  1  0
  7 32  1  0
  8 33  1  0
  9 34  1  0
 10 35  1  0
 12 36  1  0
 16 37  1  0
 16 38  1  0
 17 39  1  0
 17 40  1  0
 22 41  1  0
 23 42  1  0
 24 43  1  0
 26 44  1  0
 27 45  1  0
 27 46  1  0
M  END
$$$$
