
     RDKit          3D

 39 42  0  0  0  0  0  0  0  0999 V2000
    4.7919   -2.9352   -0.9096 C   0  0  0  0  0  0  0  0  0  0  0  0
    4.4905   -1.5711   -1.1749 O   0  0  0  0  0  0  0  0  0  0  0  0
    3.2384   -1.1343   -0.8456 C   0  0  0  0  0  0  0  0  0  0  0  0
    2.2030   -1.9183   -0.3415 C   0  0  0  0  0  0  0  0  0  0  0  0
    0.9263   -1.3896   -0.0303 C   0  0  0  0  0  0  0  0  0  0  0  0
    0.7072   -0.0137   -0.2017 C   0  0  0  0  0  0  0  0  0  0  0  0
    1.7478    0.7690   -0.7469 C   0  0  0  0  0  0  0  0  0  0  0  0
    2.9849    0.2130   -1.0553 C   0  0  0  0  0  0  0  0  0  0  0  0
    3.9360    1.0124   -1.5614 F   0  0  0  0  0  0  0  0  0  0  0  0
   -0.5587    0.7087    0.1527 C   0  0  0  0  0  0  0  0  0  0  0  0
   -0.4586    2.1605    0.5066 C   0  0  0  0  0  0  0  0  0  0  0  0
   -1.1082    3.0780   -0.3325 C   0  0  0  0  0  0  0  0  0  0  0  0
   -1.0454    4.4433   -0.0541 C   0  0  0  0  0  0  0  0  0  0  0  0
   -0.3472    4.8940    1.0658 C   0  0  0  0  0  0  0  0  0  0  0  0
    0.2805    3.9802    1.9161 C   0  0  0  0  0  0  0  0  0  0  0  0
    0.2219    2.6099    1.6452 C   0  0  0  0  0  0  0  0  0  0  0  0
    0.9809    1.5345    2.7622 Cl  0  0  0  0  0  0  0  0  0  0  0  0
   -1.7738    0.2613    0.1742 N   0  0  0  0  0  0  0  0  0  0  0  0
   -2.0765   -1.0445    0.0143 C   0  0  0  0  0  0  0  0  0  0  0  0
   -3.3080   -1.5827   -0.1341 C   0  0  0  0  0  0  0  0  0  0  0  0
   -4.5844   -0.8352   -0.3180 C   0  0  0  0  0  0  0  0  0  0  0  0
   -3.3218   -2.9736    0.0383 N   0  0  0  0  0  0  0  0  0  0  0  0
   -2.0901   -3.3449    0.5274 N   0  0  0  0  0  0  0  0  0  0  0  0
   -1.2490   -2.2492    0.3436 C   0  0  0  0  0  0  0  0  0  0  0  0
    0.0317   -2.3804    0.3888 N   0  0  0  0  0  0  0  0  0  0  0  0
    4.6941   -3.1623    0.1572 H   0  0  0  0  0  0  0  0  0  0  0  0
    5.8347   -3.1082   -1.1924 H   0  0  0  0  0  0  0  0  0  0  0  0
    4.1680   -3.6007   -1.5152 H   0  0  0  0  0  0  0  0  0  0  0  0
    2.3418   -2.9850   -0.1834 H   0  0  0  0  0  0  0  0  0  0  0  0
    1.6293    1.8288   -0.9512 H   0  0  0  0  0  0  0  0  0  0  0  0
   -1.6640    2.7266   -1.1992 H   0  0  0  0  0  0  0  0  0  0  0  0
   -1.5468    5.1547   -0.7064 H   0  0  0  0  0  0  0  0  0  0  0  0
   -0.3017    5.9585    1.2854 H   0  0  0  0  0  0  0  0  0  0  0  0
    0.8066    4.3440    2.7957 H   0  0  0  0  0  0  0  0  0  0  0  0
   -4.4255    0.2461   -0.3780 H   0  0  0  0  0  0  0  0  0  0  0  0
   -5.0762   -1.1513   -1.2436 H   0  0  0  0  0  0  0  0  0  0  0  0
   -5.2651   -1.0286    0.5173 H   0  0  0  0  0  0  0  0  0  0  0  0
   -4.1338   -3.2935    0.5714 H   0  0  0  0  0  0  0  0  0  0  0  0
   -1.6807   -4.2215    0.2133 H   0  0  0  0  0  0  0  0  0  0  0  0
  1  2  1  0
  2  3  1  0
  3  4  2  0
  4  5  1  0
  5  6  2  0
  6  7  1  0
  7  8  2  0
  8  9  1  0
  6 10  1  0
 10 11  1  0
 11 12  2  0
 12 13  1  0
 13 14  2  0
 14 15  1  0
 15 16  2  0
 16 17  1  0
 10 18  2  0
 18 19  1  0
 19 20  2  0
 20 21  1  0
 20 22  1  0
 22 23  1  0
 23 24  1  0
 24 25  2  0
  8  3  1  0
 16 11  1  0
 24 19  1  0
 25  5  1  0
  1 26  1  0
  1 27  1  0
  1 28  1  0
  4 29  1  0
  7 30  1  0
 12 31  1  0
 13 32  1  0
 14 33  1  0
 15 34  1  0
 21 35  1  0
 21 36  1  0
 21 37  1  0
 22 38  1  0
 23 39  1  0
M  END
$$$$
