
     RDKit          3D

 29 30  0  0  0  0  0  0  0  0999 V2000
   -5.4583   -0.4684    0.3043 C   0  0  0  0  0  0  0  0  0  0  0  0
   -3.9705   -0.3745    0.1619 C   0  0  0  0  0  0  0  0  0  0  0  0
   -3.2492   -1.3350   -0.5507 C   0  0  0  0  0  0  0  0  0  0  0  0
   -1.8563   -1.2404   -0.6470 C   0  0  0  0  0  0  0  0  0  0  0  0
   -1.1591   -0.1930   -0.0276 C   0  0  0  0  0  0  0  0  0  0  0  0
    0.2440   -0.1804   -0.1804 N   0  0  0  0  0  0  0  0  0  0  0  0
    1.1427    0.7391    0.3303 C   0  0  0  0  0  0  0  0  0  0  0  0
    0.8523    1.7149    1.0152 O   0  0  0  0  0  0  0  0  0  0  0  0
    2.5870    0.5118    0.0122 C   0  0  0  0  0  0  0  0  0  0  0  0
    3.5323    1.4228    0.5118 C   0  0  0  0  0  0  0  0  0  0  0  0
    4.8947    1.2572    0.2444 C   0  0  0  0  0  0  0  0  0  0  0  0
    5.3296    0.1797   -0.5253 C   0  0  0  0  0  0  0  0  0  0  0  0
    4.4022   -0.7312   -1.0269 C   0  0  0  0  0  0  0  0  0  0  0  0
    3.0441   -0.5613   -0.7571 C   0  0  0  0  0  0  0  0  0  0  0  0
    2.1889   -1.4648   -1.2621 F   0  0  0  0  0  0  0  0  0  0  0  0
   -1.8786    0.7576    0.6938 C   0  0  0  0  0  0  0  0  0  0  0  0
   -3.2664    0.6574    0.7854 C   0  0  0  0  0  0  0  0  0  0  0  0
   -3.9350    1.5800    1.4935 F   0  0  0  0  0  0  0  0  0  0  0  0
   -5.8905   -1.1091   -0.4716 H   0  0  0  0  0  0  0  0  0  0  0  0
   -5.9195    0.5196    0.2035 H   0  0  0  0  0  0  0  0  0  0  0  0
   -5.7159   -0.8857    1.2826 H   0  0  0  0  0  0  0  0  0  0  0  0
   -3.7623   -2.1621   -1.0361 H   0  0  0  0  0  0  0  0  0  0  0  0
   -1.3244   -2.0017   -1.2132 H   0  0  0  0  0  0  0  0  0  0  0  0
    0.6282   -0.9397   -0.7328 H   0  0  0  0  0  0  0  0  0  0  0  0
    3.2104    2.2708    1.1152 H   0  0  0  0  0  0  0  0  0  0  0  0
    5.6140    1.9718    0.6389 H   0  0  0  0  0  0  0  0  0  0  0  0
    6.3893    0.0512   -0.7331 H   0  0  0  0  0  0  0  0  0  0  0  0
    4.7285   -1.5749   -1.6279 H   0  0  0  0  0  0  0  0  0  0  0  0
   -1.4021    1.5881    1.2008 H   0  0  0  0  0  0  0  0  0  0  0  0
  1  2  1  0
  2  3  2  0
  3  4  1  0
  4  5  2  0
  5  6  1  0
  6  7  1  0
  7  8  2  0
  7  9  1  0
  9 10  2  0
 10 11  1  0
 11 12  2  0
 12 13  1  0
 13 14  2  0
 14 15  1  0
  5 16  1  0
 16 17  2  0
 17 18  1  0
 17  2  1  0
 14  9  1  0
  1 19  1  0
  1 20  1  0
  1 21  1  0
  3 22  1  0
  4 23  1  0
  6 24  1  0
 10 25  1  0
 11 26  1  0
 12 27  1  0
 13 28  1  0
 16 29  1  0
M  END
$$$$
