
     RDKit          3D

 56 59  0  0  0  0  0  0  0  0999 V2000
    5.6134   -1.2202   -0.2264 O   0  0  0  0  0  0  0  0  0  0  0  0
    5.7594   -0.0151   -0.0744 C   0  0  0  0  0  0  0  0  0  0  0  0
    6.9824    0.6385   -0.0031 N   0  0  0  0  0  0  0  0  0  0  0  0
    8.2668    0.0560    0.0287 C   0  0  0  0  0  0  0  0  0  0  0  0
    8.4994   -1.3116    0.1849 C   0  0  0  0  0  0  0  0  0  0  0  0
    9.8061   -1.8096    0.2193 C   0  0  0  0  0  0  0  0  0  0  0  0
   10.8909   -0.9442    0.1031 C   0  0  0  0  0  0  0  0  0  0  0  0
   10.6708    0.4222   -0.0454 C   0  0  0  0  0  0  0  0  0  0  0  0
    9.3652    0.9197   -0.0798 C   0  0  0  0  0  0  0  0  0  0  0  0
    4.7247    0.9024    0.0548 N   0  0  0  0  0  0  0  0  0  0  0  0
    3.3415    0.6582   -0.0707 C   0  0  0  0  0  0  0  0  0  0  0  0
    2.4719    1.6943    0.2858 C   0  0  0  0  0  0  0  0  0  0  0  0
    1.0848    1.5322    0.1831 C   0  0  0  0  0  0  0  0  0  0  0  0
    0.5295    0.3328   -0.2852 C   0  0  0  0  0  0  0  0  0  0  0  0
   -0.9277    0.1586   -0.3920 C   0  0  0  0  0  0  0  0  0  0  0  0
   -1.7668    0.3860    0.7107 C   0  0  0  0  0  0  0  0  0  0  0  0
   -3.1549    0.2192    0.6167 C   0  0  0  0  0  0  0  0  0  0  0  0
   -3.7363   -0.1773   -0.5914 C   0  0  0  0  0  0  0  0  0  0  0  0
   -5.2114   -0.3736   -0.7589 C   0  0  0  0  0  0  0  0  0  0  0  0
   -5.6222   -0.9217   -1.7809 O   0  0  0  0  0  0  0  0  0  0  0  0
   -6.1631    0.0895    0.3441 C   0  0  2  0  0  0  0  0  0  0  0  0
   -6.3382   -1.0122    1.3924 C   0  0  0  0  0  0  0  0  0  0  0  0
   -7.5252   -1.8185    0.8913 C   0  0  0  0  0  0  0  0  0  0  0  0
   -8.4811   -0.7644    0.3562 C   0  0  0  0  0  0  0  0  0  0  0  0
   -7.5873    0.3532   -0.1953 C   0  0  1  0  0  0  0  0  0  0  0  0
   -8.1014    1.7100    0.2191 C   0  0  0  0  0  0  0  0  0  0  0  0
   -8.6187    2.5359   -0.5145 O   0  0  0  0  0  0  0  0  0  0  0  0
   -7.9733    1.9629    1.5360 O   0  0  0  0  0  0  0  0  0  0  0  0
   -2.9083   -0.4123   -1.6960 C   0  0  0  0  0  0  0  0  0  0  0  0
   -1.5226   -0.2454   -1.5964 C   0  0  0  0  0  0  0  0  0  0  0  0
    1.4113   -0.6950   -0.6497 C   0  0  0  0  0  0  0  0  0  0  0  0
    2.7999   -0.5348   -0.5457 C   0  0  0  0  0  0  0  0  0  0  0  0
    6.9564    1.6361   -0.1435 H   0  0  0  0  0  0  0  0  0  0  0  0
    7.6840   -2.0205    0.2900 H   0  0  0  0  0  0  0  0  0  0  0  0
    9.9710   -2.8777    0.3387 H   0  0  0  0  0  0  0  0  0  0  0  0
   11.9044   -1.3355    0.1298 H   0  0  0  0  0  0  0  0  0  0  0  0
   11.5146    1.1013   -0.1347 H   0  0  0  0  0  0  0  0  0  0  0  0
    9.2231    1.9905   -0.1964 H   0  0  0  0  0  0  0  0  0  0  0  0
    4.9815    1.8012    0.4313 H   0  0  0  0  0  0  0  0  0  0  0  0
    2.8551    2.6435    0.6505 H   0  0  0  0  0  0  0  0  0  0  0  0
    0.4375    2.3612    0.4620 H   0  0  0  0  0  0  0  0  0  0  0  0
   -1.3376    0.6811    1.6671 H   0  0  0  0  0  0  0  0  0  0  0  0
   -3.7473    0.3924    1.5096 H   0  0  0  0  0  0  0  0  0  0  0  0
   -5.7449    0.9991    0.7877 H   0  0  0  0  0  0  0  0  0  0  0  0
   -5.4548   -1.6450    1.5210 H   0  0  0  0  0  0  0  0  0  0  0  0
   -6.5790   -0.5644    2.3642 H   0  0  0  0  0  0  0  0  0  0  0  0
   -7.2149   -2.4925    0.0841 H   0  0  0  0  0  0  0  0  0  0  0  0
   -7.9784   -2.4244    1.6812 H   0  0  0  0  0  0  0  0  0  0  0  0
   -9.1296   -1.1807   -0.4222 H   0  0  0  0  0  0  0  0  0  0  0  0
   -9.1337   -0.4061    1.1612 H   0  0  0  0  0  0  0  0  0  0  0  0
   -7.6131    0.3413   -1.2912 H   0  0  0  0  0  0  0  0  0  0  0  0
   -8.3834    2.8480    1.6418 H   0  0  0  0  0  0  0  0  0  0  0  0
   -3.3359   -0.7262   -2.6471 H   0  0  0  0  0  0  0  0  0  0  0  0
   -0.9088   -0.4267   -2.4773 H   0  0  0  0  0  0  0  0  0  0  0  0
    1.0253   -1.6461   -1.0126 H   0  0  0  0  0  0  0  0  0  0  0  0
    3.4288   -1.3657   -0.8508 H   0  0  0  0  0  0  0  0  0  0  0  0
  1  2  2  0
  2  3  1  0
  3  4  1  0
  4  5  2  0
  5  6  1  0
  6  7  2  0
  7  8  1  0
  8  9  2  0
  2 10  1  0
 10 11  1  0
 11 12  2  0
 12 13  1  0
 13 14  2  0
 14 15  1  0
 15 16  2  0
 16 17  1  0
 17 18  2  0
 18 19  1  0
 19 20  2  0
 19 21  1  0
 21 22  1  0
 22 23  1  0
 23 24  1  0
 24 25  1  0
 25 26  1  0
 26 27  2  0
 26 28  1  0
 18 29  1  0
 29 30  2  0
 14 31  1  0
 31 32  2  0
  9  4  1  0
 32 11  1  0
 30 15  1  0
 25 21  1  0
  3 33  1  0
  5 34  1  0
  6 35  1  0
  7 36  1  0
  8 37  1  0
  9 38  1  0
 10 39  1  0
 12 40  1  0
 13 41  1  0
 16 42  1  0
 17 43  1  0
 21 44  1  1
 22 45  1  0
 22 46  1  0
 23 47  1  0
 23 48  1  0
 24 49  1  0
 24 50  1  0
 25 51  1  6
 28 52  1  0
 29 53  1  0
 30 54  1  0
 31 55  1  0
 32 56  1  0
M  END
$$$$
