
     RDKit          3D

 53 56  0  0  0  0  0  0  0  0999 V2000
    5.4401    2.4720   -0.7345 O   0  0  0  0  0  0  0  0  0  0  0  0
    4.9624    1.4155   -0.3309 C   0  0  0  0  0  0  0  0  0  0  0  0
    5.6598    0.2402   -0.1901 N   0  0  0  0  0  0  0  0  0  0  0  0
    6.9652    0.0243   -0.6546 C   0  0  0  0  0  0  0  0  0  0  0  0
    7.6215   -1.1193   -0.2166 C   0  0  0  0  0  0  0  0  0  0  0  0
    8.9115   -1.3810   -0.6715 C   0  0  0  0  0  0  0  0  0  0  0  0
    9.4838   -0.4915   -1.5542 C   0  0  0  0  0  0  0  0  0  0  0  0
    8.8344    0.6044   -1.9792 N   0  0  0  0  0  0  0  0  0  0  0  0
    7.5633    0.8596   -1.5220 N   0  0  0  0  0  0  0  0  0  0  0  0
    3.6277    1.3301    0.0703 N   0  0  0  0  0  0  0  0  0  0  0  0
    2.8913    0.0729    0.2554 C   0  0  0  0  0  0  0  0  0  0  0  0
    1.3769    0.2155    0.0549 C   0  0  0  0  0  0  0  0  0  0  0  0
    0.7965    1.3202    0.9129 C   0  0  0  0  0  0  0  0  0  0  0  0
   -0.4338    1.3020    1.4605 C   0  0  0  0  0  0  0  0  0  0  0  0
   -1.4001    0.2159    1.2947 C   0  0  0  0  0  0  0  0  0  0  0  0
   -1.4952   -0.7896    2.2640 C   0  0  0  0  0  0  0  0  0  0  0  0
   -2.4027   -1.8390    2.1032 C   0  0  0  0  0  0  0  0  0  0  0  0
   -3.2229   -1.8838    0.9760 C   0  0  0  0  0  0  0  0  0  0  0  0
   -3.1446   -0.8673    0.0213 C   0  0  0  0  0  0  0  0  0  0  0  0
   -3.8954   -0.9054   -1.1281 O   0  0  0  0  0  0  0  0  0  0  0  0
   -5.2753   -0.8052   -0.9870 C   0  0  0  0  0  0  0  0  0  0  0  0
   -6.0247   -1.1071   -2.1145 C   0  0  0  0  0  0  0  0  0  0  0  0
   -7.4115   -1.0037   -2.0355 C   0  0  0  0  0  0  0  0  0  0  0  0
   -8.0073   -0.5868   -0.8406 C   0  0  0  0  0  0  0  0  0  0  0  0
   -9.4918   -0.4764   -0.6786 C   0  0  0  0  0  0  0  0  0  0  0  0
  -10.0351   -1.5920   -0.1190 F   0  0  0  0  0  0  0  0  0  0  0  0
  -10.1475   -0.2931   -1.8589 F   0  0  0  0  0  0  0  0  0  0  0  0
   -9.8660    0.5618    0.1191 F   0  0  0  0  0  0  0  0  0  0  0  0
   -7.1693   -0.3050    0.2297 C   0  0  0  0  0  0  0  0  0  0  0  0
   -5.8216   -0.4029    0.1825 N   0  0  0  0  0  0  0  0  0  0  0  0
   -2.2224    0.1696    0.1647 C   0  0  0  0  0  0  0  0  0  0  0  0
    1.7155    2.5043    1.1365 C   0  0  0  0  0  0  0  0  0  0  0  0
    2.8433    2.5676    0.1013 C   0  0  0  0  0  0  0  0  0  0  0  0
    5.2933   -0.4218    0.4688 H   0  0  0  0  0  0  0  0  0  0  0  0
    7.1526   -1.8064    0.4797 H   0  0  0  0  0  0  0  0  0  0  0  0
    9.4546   -2.2591   -0.3417 H   0  0  0  0  0  0  0  0  0  0  0  0
   10.4838   -0.6292   -1.9482 H   0  0  0  0  0  0  0  0  0  0  0  0
    3.1050   -0.2732    1.2748 H   0  0  0  0  0  0  0  0  0  0  0  0
    3.2780   -0.6800   -0.4410 H   0  0  0  0  0  0  0  0  0  0  0  0
    1.1763    0.4560   -0.9968 H   0  0  0  0  0  0  0  0  0  0  0  0
    0.9081   -0.7518    0.2630 H   0  0  0  0  0  0  0  0  0  0  0  0
   -0.7832    2.1313    2.0725 H   0  0  0  0  0  0  0  0  0  0  0  0
   -0.8600   -0.7627    3.1464 H   0  0  0  0  0  0  0  0  0  0  0  0
   -2.4707   -2.6202    2.8560 H   0  0  0  0  0  0  0  0  0  0  0  0
   -3.9265   -2.7013    0.8495 H   0  0  0  0  0  0  0  0  0  0  0  0
   -5.5378   -1.4174   -3.0327 H   0  0  0  0  0  0  0  0  0  0  0  0
   -8.0217   -1.2430   -2.9046 H   0  0  0  0  0  0  0  0  0  0  0  0
   -7.5646    0.0190    1.1906 H   0  0  0  0  0  0  0  0  0  0  0  0
   -2.1554    0.9395   -0.5987 H   0  0  0  0  0  0  0  0  0  0  0  0
    2.1597    2.4108    2.1352 H   0  0  0  0  0  0  0  0  0  0  0  0
    1.1486    3.4414    1.1084 H   0  0  0  0  0  0  0  0  0  0  0  0
    2.4381    2.7227   -0.9061 H   0  0  0  0  0  0  0  0  0  0  0  0
    3.4956    3.4187    0.3258 H   0  0  0  0  0  0  0  0  0  0  0  0
  1  2  2  0
  2  3  1  0
  3  4  1  0
  4  5  2  0
  5  6  1  0
  6  7  2  0
  7  8  1  0
  8  9  2  0
  2 10  1  0
 10 11  1  0
 11 12  1  0
 12 13  1  0
 13 14  2  3
 14 15  1  0
 15 16  2  0
 16 17  1  0
 17 18  2  0
 18 19  1  0
 19 20  1  0
 20 21  1  0
 21 22  2  0
 22 23  1  0
 23 24  2  0
 24 25  1  0
 25 26  1  0
 25 27  1  0
 25 28  1  0
 24 29  1  0
 29 30  2  0
 19 31  2  0
 13 32  1  0
 32 33  1  0
  9  4  1  0
 33 10  1  0
 31 15  1  0
 30 21  1  0
  3 34  1  0
  5 35  1  0
  6 36  1  0
  7 37  1  0
 11 38  1  0
 11 39  1  0
 12 40  1  0
 12 41  1  0
 14 42  1  0
 16 43  1  0
 17 44  1  0
 18 45  1  0
 22 46  1  0
 23 47  1  0
 29 48  1  0
 31 49  1  0
 32 50  1  0
 32 51  1  0
 33 52  1  0
 33 53  1  0
M  END
$$$$
