
     RDKit          3D

 38 41  0  0  0  0  0  0  0  0999 V2000
   -4.0884    2.9917   -0.9243 C   0  0  0  0  0  0  0  0  0  0  0  0
   -4.5205    1.8700   -1.6257 C   0  0  0  0  0  0  0  0  0  0  0  0
   -3.8266    0.6618   -1.5087 C   0  0  0  0  0  0  0  0  0  0  0  0
   -2.6764    0.5600   -0.7104 C   0  0  0  0  0  0  0  0  0  0  0  0
   -2.0453   -0.6970   -0.5714 N   0  0  0  0  0  0  0  0  0  0  0  0
   -0.6866   -0.9681   -0.2498 C   0  0  0  0  0  0  0  0  0  0  0  0
    0.2158    0.0252   -0.3198 N   0  0  0  0  0  0  0  0  0  0  0  0
    1.4957   -0.2666   -0.0449 C   0  0  0  0  0  0  0  0  0  0  0  0
    2.4830    0.8300   -0.1272 C   0  0  0  0  0  0  0  0  0  0  0  0
    2.1105    2.1256   -0.5381 C   0  0  0  0  0  0  0  0  0  0  0  0
    3.0421    3.1661   -0.6164 C   0  0  0  0  0  0  0  0  0  0  0  0
    4.3734    2.9352   -0.2846 C   0  0  0  0  0  0  0  0  0  0  0  0
    4.7729    1.6666    0.1241 C   0  0  0  0  0  0  0  0  0  0  0  0
    3.8381    0.6285    0.2009 C   0  0  0  0  0  0  0  0  0  0  0  0
    1.9379   -1.4886    0.2952 N   0  0  0  0  0  0  0  0  0  0  0  0
    1.0380   -2.4710    0.3752 C   0  0  0  0  0  0  0  0  0  0  0  0
    1.4741   -3.7409    0.7339 C   0  0  0  0  0  0  0  0  0  0  0  0
    0.5950   -4.8210    0.8496 C   0  0  0  0  0  0  0  0  0  0  0  0
   -0.7584   -4.6352    0.6072 C   0  0  0  0  0  0  0  0  0  0  0  0
   -1.2192   -3.3717    0.2440 C   0  0  0  0  0  0  0  0  0  0  0  0
   -0.3236   -2.2774    0.1154 C   0  0  0  0  0  0  0  0  0  0  0  0
   -2.2811    1.6898    0.0160 C   0  0  0  0  0  0  0  0  0  0  0  0
   -2.9718    2.9002   -0.0983 C   0  0  0  0  0  0  0  0  0  0  0  0
   -4.6263    3.9318   -1.0112 H   0  0  0  0  0  0  0  0  0  0  0  0
   -5.4007    1.9315   -2.2600 H   0  0  0  0  0  0  0  0  0  0  0  0
   -4.1945   -0.2020   -2.0559 H   0  0  0  0  0  0  0  0  0  0  0  0
   -2.3411   -1.3416   -1.2967 H   0  0  0  0  0  0  0  0  0  0  0  0
    1.0751    2.3337   -0.8063 H   0  0  0  0  0  0  0  0  0  0  0  0
    2.7229    4.1540   -0.9378 H   0  0  0  0  0  0  0  0  0  0  0  0
    5.0983    3.7424   -0.3451 H   0  0  0  0  0  0  0  0  0  0  0  0
    5.8114    1.4795    0.3844 H   0  0  0  0  0  0  0  0  0  0  0  0
    4.1782   -0.3542    0.5243 H   0  0  0  0  0  0  0  0  0  0  0  0
    2.5327   -3.8950    0.9337 H   0  0  0  0  0  0  0  0  0  0  0  0
    0.9724   -5.7994    1.1360 H   0  0  0  0  0  0  0  0  0  0  0  0
   -1.4530   -5.4655    0.7064 H   0  0  0  0  0  0  0  0  0  0  0  0
   -2.2854   -3.2351    0.0780 H   0  0  0  0  0  0  0  0  0  0  0  0
   -1.4302    1.6406    0.6902 H   0  0  0  0  0  0  0  0  0  0  0  0
   -2.6383    3.7662    0.4672 H   0  0  0  0  0  0  0  0  0  0  0  0
  1  2  2  0
  2  3  1  0
  3  4  2  0
  4  5  1  0
  5  6  1  0
  6  7  2  0
  7  8  1  0
  8  9  1  0
  9 10  2  0
 10 11  1  0
 11 12  2  0
 12 13  1  0
 13 14  2  0
  8 15  2  0
 15 16  1  0
 16 17  2  0
 17 18  1  0
 18 19  2  0
 19 20  1  0
 20 21  2  0
  4 22  1  0
 22 23  2  0
 23  1  1  0
 21  6  1  0
 14  9  1  0
 21 16  1  0
  1 24  1  0
  2 25  1  0
  3 26  1  0
  5 27  1  0
 10 28  1  0
 11 29  1  0
 12 30  1  0
 13 31  1  0
 14 32  1  0
 17 33  1  0
 18 34  1  0
 19 35  1  0
 20 36  1  0
 22 37  1  0
 23 38  1  0
M  END
$$$$
