
     RDKit          3D

 57 60  0  0  0  0  0  0  0  0999 V2000
    7.5387    0.8725    1.5113 C   0  0  0  0  0  0  0  0  0  0  0  0
    6.9491    0.1671    0.4264 O   0  0  0  0  0  0  0  0  0  0  0  0
    6.2890    1.0598   -0.4797 C   0  0  0  0  0  0  0  0  0  0  0  0
    5.6362    0.2544   -1.6096 C   0  0  0  0  0  0  0  0  0  0  0  0
    4.4672   -0.5194   -1.1601 N   0  0  0  0  0  0  0  0  0  0  0  0
    4.7505   -1.7849   -0.5035 C   0  0  0  0  0  0  0  0  0  0  0  0
    3.8577   -2.8907   -1.0261 C   0  0  0  0  0  0  0  0  0  0  0  0
    2.5759   -2.9574   -0.2287 C   0  0  0  0  0  0  0  0  0  0  0  0
    1.7711   -1.7573   -0.1868 N   0  0  0  0  0  0  0  0  0  0  0  0
    0.5174   -1.9248    0.2945 N   0  0  0  0  0  0  0  0  0  0  0  0
   -0.0332   -0.7115    0.2489 C   0  0  0  0  0  0  0  0  0  0  0  0
   -1.4521   -0.4995    0.6951 C   0  0  0  0  0  0  0  0  0  0  0  0
   -1.5269    0.3408    1.9840 C   0  0  0  0  0  0  0  0  0  0  0  0
   -2.7711    1.2274    2.0349 C   0  0  0  0  0  0  0  0  0  0  0  0
   -3.9685    0.5594    1.3632 C   0  0  0  0  0  0  0  0  0  0  0  0
   -3.7456    0.2143   -0.0501 N   0  0  0  0  0  0  0  0  0  0  0  0
   -4.4593    1.1074   -0.9788 C   0  0  0  0  0  0  0  0  0  0  0  0
   -5.9546    0.9047   -0.9713 C   0  0  0  0  0  0  0  0  0  0  0  0
   -6.5211   -0.3762   -1.0120 C   0  0  0  0  0  0  0  0  0  0  0  0
   -7.9038   -0.5000   -1.0323 C   0  0  0  0  0  0  0  0  0  0  0  0
   -8.7540    0.5508   -1.0270 N   0  0  0  0  0  0  0  0  0  0  0  0
   -8.1865    1.7797   -1.0020 C   0  0  0  0  0  0  0  0  0  0  0  0
   -6.8184    1.9972   -0.9785 C   0  0  0  0  0  0  0  0  0  0  0  0
   -6.3416    3.2496   -0.9640 F   0  0  0  0  0  0  0  0  0  0  0  0
   -2.3175    0.1269   -0.4152 C   0  0  0  0  0  0  0  0  0  0  0  0
    0.8875    0.2295   -0.2444 C   0  0  0  0  0  0  0  0  0  0  0  0
    2.0661   -0.4584   -0.5129 C   0  0  0  0  0  0  0  0  0  0  0  0
    3.2593    0.1721   -1.0483 C   0  0  0  0  0  0  0  0  0  0  0  0
    3.2107    1.3516   -1.4099 O   0  0  0  0  0  0  0  0  0  0  0  0
    6.7714    1.3964    2.0895 H   0  0  0  0  0  0  0  0  0  0  0  0
    8.2869    1.5822    1.1457 H   0  0  0  0  0  0  0  0  0  0  0  0
    8.0333    0.1481    2.1639 H   0  0  0  0  0  0  0  0  0  0  0  0
    5.5416    1.6490    0.0634 H   0  0  0  0  0  0  0  0  0  0  0  0
    7.0355    1.7384   -0.9079 H   0  0  0  0  0  0  0  0  0  0  0  0
    6.3547   -0.4402   -2.0598 H   0  0  0  0  0  0  0  0  0  0  0  0
    5.3192    0.9438   -2.4007 H   0  0  0  0  0  0  0  0  0  0  0  0
    4.6628   -1.6487    0.5807 H   0  0  0  0  0  0  0  0  0  0  0  0
    5.7883   -2.0652   -0.7172 H   0  0  0  0  0  0  0  0  0  0  0  0
    3.6469   -2.7589   -2.0944 H   0  0  0  0  0  0  0  0  0  0  0  0
    4.3733   -3.8524   -0.9157 H   0  0  0  0  0  0  0  0  0  0  0  0
    1.9443   -3.7527   -0.6441 H   0  0  0  0  0  0  0  0  0  0  0  0
    2.7912   -3.2202    0.8147 H   0  0  0  0  0  0  0  0  0  0  0  0
   -1.8832   -1.4869    0.9207 H   0  0  0  0  0  0  0  0  0  0  0  0
   -0.6427    0.9773    2.1133 H   0  0  0  0  0  0  0  0  0  0  0  0
   -1.5289   -0.3414    2.8443 H   0  0  0  0  0  0  0  0  0  0  0  0
   -2.5613    2.1842    1.5398 H   0  0  0  0  0  0  0  0  0  0  0  0
   -3.0083    1.4634    3.0787 H   0  0  0  0  0  0  0  0  0  0  0  0
   -4.8533    1.1925    1.5000 H   0  0  0  0  0  0  0  0  0  0  0  0
   -4.1904   -0.3735    1.8972 H   0  0  0  0  0  0  0  0  0  0  0  0
   -4.1335    0.9111   -2.0094 H   0  0  0  0  0  0  0  0  0  0  0  0
   -4.2025    2.1524   -0.7625 H   0  0  0  0  0  0  0  0  0  0  0  0
   -5.8937   -1.2627   -1.0200 H   0  0  0  0  0  0  0  0  0  0  0  0
   -8.3756   -1.4786   -1.0557 H   0  0  0  0  0  0  0  0  0  0  0  0
   -8.8773    2.6162   -1.0039 H   0  0  0  0  0  0  0  0  0  0  0  0
   -1.9255    1.1249   -0.6586 H   0  0  0  0  0  0  0  0  0  0  0  0
   -2.2299   -0.4751   -1.3291 H   0  0  0  0  0  0  0  0  0  0  0  0
    0.7347    1.2911   -0.3917 H   0  0  0  0  0  0  0  0  0  0  0  0
  1  2  1  0
  2  3  1  0
  3  4  1  0
  4  5  1  0
  5  6  1  0
  6  7  1  0
  7  8  1  0
  8  9  1  0
  9 10  1  0
 10 11  2  0
 11 12  1  0
 12 13  1  0
 13 14  1  0
 14 15  1  0
 15 16  1  0
 16 17  1  0
 17 18  1  0
 18 19  2  0
 19 20  1  0
 20 21  2  0
 21 22  1  0
 22 23  2  0
 23 24  1  0
 16 25  1  0
 11 26  1  0
 26 27  2  0
 27 28  1  0
 28 29  2  0
 28  5  1  0
 27  9  1  0
 25 12  1  0
 23 18  1  0
  1 30  1  0
  1 31  1  0
  1 32  1  0
  3 33  1  0
  3 34  1  0
  4 35  1  0
  4 36  1  0
  6 37  1  0
  6 38  1  0
  7 39  1  0
  7 40  1  0
  8 41  1  0
  8 42  1  0
 12 43  1  0
 13 44  1  0
 13 45  1  0
 14 46  1  0
 14 47  1  0
 15 48  1  0
 15 49  1  0
 17 50  1  0
 17 51  1  0
 19 52  1  0
 20 53  1  0
 22 54  1  0
 25 55  1  0
 25 56  1  0
 26 57  1  0
M  END
$$$$
