
     RDKit          3D

 75 80  0  0  0  0  0  0  0  0999 V2000
    9.2619    0.3230   -4.0219 C   0  0  0  0  0  0  0  0  0  0  0  0
    9.8183    1.1239   -2.9883 O   0  0  0  0  0  0  0  0  0  0  0  0
    9.3297    0.7928   -1.6861 C   0  0  0  0  0  0  0  0  0  0  0  0
    7.8477    1.1616   -1.4604 C   0  0  0  0  0  0  0  0  0  0  0  0
    6.8699    0.1714   -1.9593 N   0  0  0  0  0  0  0  0  0  0  0  0
    6.9897   -1.1285   -1.2639 C   0  0  0  0  0  0  0  0  0  0  0  0
    5.6697   -1.9316   -1.2312 C   0  0  0  0  0  0  0  0  0  0  0  0
    4.5626   -1.2422   -0.5381 N   0  0  0  0  0  0  0  0  0  0  0  0
    4.4331   -1.6916    0.8562 C   0  0  0  0  0  0  0  0  0  0  0  0
    3.2009   -1.1524    1.5519 C   0  0  0  0  0  0  0  0  0  0  0  0
    1.9205   -1.4631    1.0771 C   0  0  0  0  0  0  0  0  0  0  0  0
    0.7778   -0.9729    1.7216 C   0  0  0  0  0  0  0  0  0  0  0  0
    0.8866   -0.1562    2.8530 C   0  0  0  0  0  0  0  0  0  0  0  0
   -0.2943    0.3754    3.5452 C   0  0  0  0  0  0  0  0  0  0  0  0
   -0.1896    0.8917    4.7985 N   0  0  0  0  0  0  0  0  0  0  0  0
   -1.4357    1.2888    5.1417 N   0  0  0  0  0  0  0  0  0  0  0  0
   -2.3157    1.0514    4.1566 C   0  0  0  0  0  0  0  0  0  0  0  0
   -1.6306    0.4709    3.1197 C   0  0  0  0  0  0  0  0  0  0  0  0
   -2.5604    0.2178    2.0428 C   0  0  0  0  0  0  0  0  0  0  0  0
   -2.3723   -0.2761    0.9439 O   0  0  0  0  0  0  0  0  0  0  0  0
   -3.8874    0.7077    2.5533 C   0  0  0  0  0  0  0  0  0  0  0  0
   -5.1185    0.6955    1.9188 C   0  0  0  0  0  0  0  0  0  0  0  0
   -5.2095    0.1638    0.6164 N   0  0  0  0  0  0  0  0  0  0  0  0
   -6.3414    0.0225   -0.1631 C   0  0  0  0  0  0  0  0  0  0  0  0
   -7.4805    0.3245    0.1748 O   0  0  0  0  0  0  0  0  0  0  0  0
   -6.0207   -0.5308   -1.4058 N   0  0  0  0  0  0  0  0  0  0  0  0
   -6.9686   -0.7572   -2.4268 N   0  0  0  0  0  0  0  0  0  0  0  0
   -8.0563   -1.6829   -2.0516 C   0  0  0  0  0  0  0  0  0  0  0  0
   -9.4486   -1.0338   -2.0782 C   0  0  0  0  0  0  0  0  0  0  0  0
   -9.7663   -0.4550   -3.3511 O   0  0  0  0  0  0  0  0  0  0  0  0
   -8.6434    0.1736   -3.9832 C   0  0  0  0  0  0  0  0  0  0  0  0
   -7.4805    0.4849   -3.0304 C   0  0  0  0  0  0  0  0  0  0  0  0
   -6.1865    1.2291    2.6476 C   0  0  0  0  0  0  0  0  0  0  0  0
   -6.0043    1.7434    3.9560 C   0  0  0  0  0  0  0  0  0  0  0  0
   -4.7515    1.7426    4.5795 C   0  0  0  0  0  0  0  0  0  0  0  0
   -3.7028    1.2197    3.8625 C   0  0  0  0  0  0  0  0  0  0  0  0
    2.1733    0.1459    3.3278 C   0  0  0  0  0  0  0  0  0  0  0  0
    3.3167   -0.3448    2.6880 C   0  0  0  0  0  0  0  0  0  0  0  0
    4.7124    0.2281   -0.6249 C   0  0  0  0  0  0  0  0  0  0  0  0
    5.4849    0.6887   -1.8809 C   0  0  0  0  0  0  0  0  0  0  0  0
    9.8492    0.4872   -4.9300 H   0  0  0  0  0  0  0  0  0  0  0  0
    8.2326    0.6248   -4.2319 H   0  0  0  0  0  0  0  0  0  0  0  0
    9.3104   -0.7400   -3.7684 H   0  0  0  0  0  0  0  0  0  0  0  0
    9.5510   -0.2552   -1.4572 H   0  0  0  0  0  0  0  0  0  0  0  0
    9.9289    1.3891   -0.9883 H   0  0  0  0  0  0  0  0  0  0  0  0
    7.6836    1.3214   -0.3868 H   0  0  0  0  0  0  0  0  0  0  0  0
    7.6722    2.1199   -1.9656 H   0  0  0  0  0  0  0  0  0  0  0  0
    7.3270   -0.9906   -0.2278 H   0  0  0  0  0  0  0  0  0  0  0  0
    7.7495   -1.7305   -1.7745 H   0  0  0  0  0  0  0  0  0  0  0  0
    5.8542   -2.9249   -0.8032 H   0  0  0  0  0  0  0  0  0  0  0  0
    5.3497   -2.1189   -2.2647 H   0  0  0  0  0  0  0  0  0  0  0  0
    4.3507   -2.7866    0.8869 H   0  0  0  0  0  0  0  0  0  0  0  0
    5.3353   -1.4378    1.4291 H   0  0  0  0  0  0  0  0  0  0  0  0
    1.8080   -2.0873    0.1924 H   0  0  0  0  0  0  0  0  0  0  0  0
   -0.1890   -1.2547    1.3180 H   0  0  0  0  0  0  0  0  0  0  0  0
   -1.5786    1.7070    6.0554 H   0  0  0  0  0  0  0  0  0  0  0  0
   -4.3405   -0.1917    0.2263 H   0  0  0  0  0  0  0  0  0  0  0  0
   -5.0468   -0.6670   -1.6509 H   0  0  0  0  0  0  0  0  0  0  0  0
   -8.0444   -2.4931   -2.7914 H   0  0  0  0  0  0  0  0  0  0  0  0
   -7.8826   -2.1525   -1.0762 H   0  0  0  0  0  0  0  0  0  0  0  0
  -10.2134   -1.7884   -1.8653 H   0  0  0  0  0  0  0  0  0  0  0  0
   -9.5456   -0.2561   -1.3129 H   0  0  0  0  0  0  0  0  0  0  0  0
   -8.3085   -0.4838   -4.7946 H   0  0  0  0  0  0  0  0  0  0  0  0
   -9.0048    1.0975   -4.4468 H   0  0  0  0  0  0  0  0  0  0  0  0
   -7.8303    1.1849   -2.2622 H   0  0  0  0  0  0  0  0  0  0  0  0
   -6.6755    0.9777   -3.5874 H   0  0  0  0  0  0  0  0  0  0  0  0
   -7.1908    1.2664    2.2317 H   0  0  0  0  0  0  0  0  0  0  0  0
   -6.8671    2.1481    4.4842 H   0  0  0  0  0  0  0  0  0  0  0  0
   -4.6295    2.1393    5.5808 H   0  0  0  0  0  0  0  0  0  0  0  0
    2.2961    0.7734    4.2092 H   0  0  0  0  0  0  0  0  0  0  0  0
    4.2949   -0.0866    3.0862 H   0  0  0  0  0  0  0  0  0  0  0  0
    3.7155    0.6847   -0.6396 H   0  0  0  0  0  0  0  0  0  0  0  0
    5.2380    0.6246    0.2547 H   0  0  0  0  0  0  0  0  0  0  0  0
    5.4624    1.7835   -1.9452 H   0  0  0  0  0  0  0  0  0  0  0  0
    4.9477    0.3365   -2.7716 H   0  0  0  0  0  0  0  0  0  0  0  0
  1  2  1  0
  2  3  1  0
  3  4  1  0
  4  5  1  0
  5  6  1  0
  6  7  1  0
  7  8  1  0
  8  9  1  0
  9 10  1  0
 10 11  2  0
 11 12  1  0
 12 13  2  0
 13 14  1  0
 14 15  2  0
 15 16  1  0
 16 17  1  0
 17 18  2  0
 18 19  1  0
 19 20  2  0
 19 21  1  0
 21 22  2  0
 22 23  1  0
 23 24  1  0
 24 25  2  0
 24 26  1  0
 26 27  1  0
 27 28  1  0
 28 29  1  0
 29 30  1  0
 30 31  1  0
 31 32  1  0
 22 33  1  0
 33 34  2  0
 34 35  1  0
 35 36  2  0
 13 37  1  0
 37 38  2  0
  8 39  1  0
 39 40  1  0
 40  5  1  0
 38 10  1  0
 18 14  1  0
 36 21  1  0
 36 17  1  0
 32 27  1  0
  1 41  1  0
  1 42  1  0
  1 43  1  0
  3 44  1  0
  3 45  1  0
  4 46  1  0
  4 47  1  0
  6 48  1  0
  6 49  1  0
  7 50  1  0
  7 51  1  0
  9 52  1  0
  9 53  1  0
 11 54  1  0
 12 55  1  0
 16 56  1  0
 23 57  1  0
 26 58  1  0
 28 59  1  0
 28 60  1  0
 29 61  1  0
 29 62  1  0
 31 63  1  0
 31 64  1  0
 32 65  1  0
 32 66  1  0
 33 67  1  0
 34 68  1  0
 35 69  1  0
 37 70  1  0
 38 71  1  0
 39 72  1  0
 39 73  1  0
 40 74  1  0
 40 75  1  0
M  END
$$$$
