
     RDKit          3D

 58 58  0  0  0  0  0  0  0  0999 V2000
   -8.0085    1.0188   -0.3618 C   0  0  0  0  0  0  0  0  0  0  0  0
   -7.5455   -0.3142   -0.0185 N   0  0  0  0  0  0  0  0  0  0  0  0
   -6.9125   -0.9735   -1.1229 C   0  0  0  0  0  0  0  0  0  0  0  0
   -5.4982   -0.5013   -1.3398 C   0  0  0  0  0  0  0  0  0  0  0  0
   -4.7376   -0.5896   -0.1117 N   0  0  0  0  0  0  0  0  0  0  0  0
   -3.3362   -0.3663   -0.1626 C   0  0  0  0  0  0  0  0  0  0  0  0
   -2.5032   -0.4928    0.9229 C   0  0  0  0  0  0  0  0  0  0  0  0
   -1.1265   -0.2544    0.8136 C   0  0  0  0  0  0  0  0  0  0  0  0
   -0.5415    0.1141   -0.3711 C   0  0  0  0  0  0  0  0  0  0  0  0
    0.9043    0.3651   -0.5166 C   0  0  0  0  0  0  0  0  0  0  0  0
    1.3459    1.0384   -1.4708 O   0  0  0  0  0  0  0  0  0  0  0  0
    1.7877   -0.1622    0.4308 N   0  0  0  0  0  0  0  0  0  0  0  0
    3.2073   -0.0196    0.4474 C   0  0  0  0  0  0  0  0  0  0  0  0
    3.9216   -0.4944    1.5581 C   0  0  0  0  0  0  0  0  0  0  0  0
    5.2894   -0.4057    1.6595 C   0  0  0  0  0  0  0  0  0  0  0  0
    6.0435    0.1648    0.6562 C   0  0  0  0  0  0  0  0  0  0  0  0
    7.5242    0.2676    0.7537 C   0  0  2  0  0  0  0  0  0  0  0  0
    8.2361    1.4697    0.1761 C   0  0  0  0  0  0  0  0  0  0  0  0
    8.3335    0.1290   -0.4808 C   0  0  1  0  0  0  0  0  0  0  0  0
    9.6659   -0.4864   -0.3559 N   0  0  0  0  0  0  0  0  0  0  0  0
    5.3591    0.6353   -0.4403 C   0  0  0  0  0  0  0  0  0  0  0  0
    3.9626    0.5439   -0.5419 C   0  0  0  0  0  0  0  0  0  0  0  0
   -1.3779    0.2420   -1.4667 C   0  0  0  0  0  0  0  0  0  0  0  0
   -2.7204    0.0107   -1.3642 C   0  0  0  0  0  0  0  0  0  0  0  0
   -5.4167   -0.8944    1.1073 C   0  0  0  0  0  0  0  0  0  0  0  0
   -6.8069   -0.3461    1.1980 C   0  0  0  0  0  0  0  0  0  0  0  0
    0.6871    0.0000    0.0000 Cl  0  0  0  0  0  0  0  0  0  0  0  0
    0.6893    0.0000    0.0000 Cl  0  0  0  0  0  0  0  0  0  0  0  0
    0.6880    0.0000    0.0000 Cl  0  0  0  0  0  0  0  0  0  0  0  0
   -7.2162    1.6190   -0.8527 H   0  0  0  0  0  0  0  0  0  0  0  0
   -8.8470    0.9059   -1.0692 H   0  0  0  0  0  0  0  0  0  0  0  0
   -8.3847    1.4846    0.5634 H   0  0  0  0  0  0  0  0  0  0  0  0
   -6.9382   -2.0715   -1.0534 H   0  0  0  0  0  0  0  0  0  0  0  0
   -7.4900   -0.7143   -2.0488 H   0  0  0  0  0  0  0  0  0  0  0  0
   -5.4691    0.5282   -1.7335 H   0  0  0  0  0  0  0  0  0  0  0  0
   -5.0252   -1.2053   -2.0572 H   0  0  0  0  0  0  0  0  0  0  0  0
   -2.9105   -0.7846    1.8843 H   0  0  0  0  0  0  0  0  0  0  0  0
   -0.5211   -0.3638    1.7085 H   0  0  0  0  0  0  0  0  0  0  0  0
    1.3323   -0.7343    1.2092 H   0  0  0  0  0  0  0  0  0  0  0  0
    3.3415   -0.9464    2.3570 H   0  0  0  0  0  0  0  0  0  0  0  0
    5.8347   -0.7747    2.5207 H   0  0  0  0  0  0  0  0  0  0  0  0
    7.9665   -0.1244    1.6832 H   0  0  0  0  0  0  0  0  0  0  0  0
    7.5337    2.2150   -0.2786 H   0  0  0  0  0  0  0  0  0  0  0  0
    9.1118    1.8970    0.7068 H   0  0  0  0  0  0  0  0  0  0  0  0
    7.7891   -0.0861   -1.4040 H   0  0  0  0  0  0  0  0  0  0  0  0
   10.3220    0.2107   -0.8141 H   0  0  0  0  0  0  0  0  0  0  0  0
    9.9524   -0.4693    0.6603 H   0  0  0  0  0  0  0  0  0  0  0  0
    5.9341    1.0908   -1.2476 H   0  0  0  0  0  0  0  0  0  0  0  0
    3.5120    0.9314   -1.4316 H   0  0  0  0  0  0  0  0  0  0  0  0
   -0.9322    0.5298   -2.4011 H   0  0  0  0  0  0  0  0  0  0  0  0
   -3.3958    0.1093   -2.2294 H   0  0  0  0  0  0  0  0  0  0  0  0
   -4.8897   -0.5748    2.0317 H   0  0  0  0  0  0  0  0  0  0  0  0
   -5.4951   -2.0071    1.1917 H   0  0  0  0  0  0  0  0  0  0  0  0
   -7.3783   -1.0116    1.9128 H   0  0  0  0  0  0  0  0  0  0  0  0
   -6.7866    0.6478    1.7330 H   0  0  0  0  0  0  0  0  0  0  0  0
   -0.6871    0.0000    0.0000 H   0  0  0  0  0  0  0  0  0  0  0  0
   -0.6893    0.0000    0.0000 H   0  0  0  0  0  0  0  0  0  0  0  0
   -0.6880    0.0000    0.0000 H   0  0  0  0  0  0  0  0  0  0  0  0
  1  2  1  0
  2  3  1  0
  3  4  1  0
  4  5  1  0
  5  6  1  0
  6  7  2  0
  7  8  1  0
  8  9  2  0
  9 10  1  0
 10 11  2  0
 10 12  1  0
 12 13  1  0
 13 14  2  0
 14 15  1  0
 15 16  2  0
 16 17  1  0
 17 18  1  0
 18 19  1  0
 19 20  1  0
 16 21  1  0
 21 22  2  0
  9 23  1  0
 23 24  2  0
  5 25  1  0
 25 26  1  0
 26  2  1  0
 24  6  1  0
 22 13  1  0
 19 17  1  0
  1 30  1  0
  1 31  1  0
  1 32  1  0
  3 33  1  0
  3 34  1  0
  4 35  1  0
  4 36  1  0
  7 37  1  0
  8 38  1  0
 12 39  1  0
 14 40  1  0
 15 41  1  0
 17 42  1  1
 18 43  1  0
 18 44  1  0
 19 45  1  6
 20 46  1  0
 20 47  1  0
 21 48  1  0
 22 49  1  0
 23 50  1  0
 24 51  1  0
 25 52  1  0
 25 53  1  0
 26 54  1  0
 26 55  1  0
 27 56  1  0
 28 57  1  0
 29 58  1  0
M  END
$$$$
