
     RDKit          3D

 50 53  0  0  0  0  0  0  0  0999 V2000
   -2.8155   -2.4447   -1.5466 C   0  0  0  0  0  0  0  0  0  0  0  0
   -2.0786   -2.2980   -0.2786 N   0  0  0  0  0  0  0  0  0  0  0  0
   -1.0090   -3.3106   -0.2465 C   0  0  0  0  0  0  0  0  0  0  0  0
   -0.1872   -3.2427    1.0361 C   0  0  0  0  0  0  0  0  0  0  0  0
    0.4030   -1.8544    1.2668 C   0  0  1  0  0  0  0  0  0  0  0  0
    1.5288   -1.5963    0.3683 N   0  0  0  0  0  0  0  0  0  0  0  0
    2.4874   -0.6547    0.7040 C   0  0  0  0  0  0  0  0  0  0  0  0
    2.4808   -0.0578    1.7712 O   0  0  0  0  0  0  0  0  0  0  0  0
    3.4141   -0.5283   -0.3085 N   0  0  0  0  0  0  0  0  0  0  0  0
    4.4808    0.3887   -0.3818 C   0  0  0  0  0  0  0  0  0  0  0  0
    4.6526    1.4527    0.5066 C   0  0  0  0  0  0  0  0  0  0  0  0
    5.7342    2.3310    0.3649 C   0  0  0  0  0  0  0  0  0  0  0  0
    6.6532    2.1554   -0.6718 C   0  0  0  0  0  0  0  0  0  0  0  0
    7.7608    3.0538   -0.8170 C   0  0  0  0  0  0  0  0  0  0  0  0
    8.6602    3.7767   -0.9416 N   0  0  0  0  0  0  0  0  0  0  0  0
    6.4832    1.0980   -1.5688 C   0  0  0  0  0  0  0  0  0  0  0  0
    5.4013    0.2222   -1.4245 C   0  0  0  0  0  0  0  0  0  0  0  0
   -0.6884   -0.7895    1.1508 C   0  0  0  0  0  0  0  0  0  0  0  0
   -1.5163   -0.9268   -0.1429 C   0  0  2  0  0  0  0  0  0  0  0  0
   -2.5906    0.1309   -0.1327 C   0  0  0  0  0  0  0  0  0  0  0  0
   -2.6114    1.2457   -0.8370 N   0  0  0  0  0  0  0  0  0  0  0  0
   -3.7821    1.8770   -0.4915 C   0  0  0  0  0  0  0  0  0  0  0  0
   -4.3070    3.0990   -0.9359 C   0  0  0  0  0  0  0  0  0  0  0  0
   -5.5405    3.5255   -0.4268 C   0  0  0  0  0  0  0  0  0  0  0  0
   -6.2368    2.7506    0.5045 C   0  0  0  0  0  0  0  0  0  0  0  0
   -5.7288    1.5280    0.9598 C   0  0  0  0  0  0  0  0  0  0  0  0
   -4.4970    1.1291    0.4374 C   0  0  0  0  0  0  0  0  0  0  0  0
   -3.7181    0.0229    0.6475 N   0  0  0  0  0  0  0  0  0  0  0  0
   -3.1978   -3.4672   -1.6480 H   0  0  0  0  0  0  0  0  0  0  0  0
   -3.6947   -1.7939   -1.5832 H   0  0  0  0  0  0  0  0  0  0  0  0
   -2.1857   -2.2272   -2.4171 H   0  0  0  0  0  0  0  0  0  0  0  0
   -0.3466   -3.2057   -1.1159 H   0  0  0  0  0  0  0  0  0  0  0  0
   -1.4540   -4.3119   -0.3050 H   0  0  0  0  0  0  0  0  0  0  0  0
   -0.8329   -3.5031    1.8852 H   0  0  0  0  0  0  0  0  0  0  0  0
    0.6092   -3.9959    1.0013 H   0  0  0  0  0  0  0  0  0  0  0  0
    0.8038   -1.8240    2.2881 H   0  0  0  0  0  0  0  0  0  0  0  0
    1.3481   -1.6697   -0.6217 H   0  0  0  0  0  0  0  0  0  0  0  0
    3.4075   -1.2700   -0.9918 H   0  0  0  0  0  0  0  0  0  0  0  0
    3.9559    1.6322    1.3208 H   0  0  0  0  0  0  0  0  0  0  0  0
    5.8456    3.1510    1.0724 H   0  0  0  0  0  0  0  0  0  0  0  0
    7.1881    0.9475   -2.3843 H   0  0  0  0  0  0  0  0  0  0  0  0
    5.2933   -0.5914   -2.1375 H   0  0  0  0  0  0  0  0  0  0  0  0
   -1.3511   -0.8824    2.0232 H   0  0  0  0  0  0  0  0  0  0  0  0
   -0.2510    0.2158    1.2073 H   0  0  0  0  0  0  0  0  0  0  0  0
   -0.8582   -0.7212   -0.9991 H   0  0  0  0  0  0  0  0  0  0  0  0
   -3.7609    3.6942   -1.6587 H   0  0  0  0  0  0  0  0  0  0  0  0
   -5.9582    4.4718   -0.7622 H   0  0  0  0  0  0  0  0  0  0  0  0
   -7.1931    3.1049    0.8846 H   0  0  0  0  0  0  0  0  0  0  0  0
   -6.2691    0.9275    1.6831 H   0  0  0  0  0  0  0  0  0  0  0  0
   -3.9314   -0.7646    1.2427 H   0  0  0  0  0  0  0  0  0  0  0  0
  1  2  1  0
  2  3  1  0
  3  4  1  0
  4  5  1  0
  5  6  1  0
  6  7  1  0
  7  8  2  0
  7  9  1  0
  9 10  1  0
 10 11  2  0
 11 12  1  0
 12 13  2  0
 13 14  1  0
 14 15  3  0
 13 16  1  0
 16 17  2  0
  5 18  1  0
 18 19  1  0
 19 20  1  0
 20 21  2  0
 21 22  1  0
 22 23  2  0
 23 24  1  0
 24 25  2  0
 25 26  1  0
 26 27  2  0
 27 28  1  0
 19  2  1  0
 28 20  1  0
 17 10  1  0
 27 22  1  0
  1 29  1  0
  1 30  1  0
  1 31  1  0
  3 32  1  0
  3 33  1  0
  4 34  1  0
  4 35  1  0
  5 36  1  1
  6 37  1  0
  9 38  1  0
 11 39  1  0
 12 40  1  0
 16 41  1  0
 17 42  1  0
 18 43  1  0
 18 44  1  0
 19 45  1  6
 23 46  1  0
 24 47  1  0
 25 48  1  0
 26 49  1  0
 28 50  1  0
M  END
$$$$
