
     RDKit          3D

 58 61  0  0  0  0  0  0  0  0999 V2000
    8.4813   -1.1119   -1.5747 C   0  0  0  0  0  0  0  0  0  0  0  0
    6.8684   -1.6796   -2.1760 S   0  0  0  0  0  0  0  0  0  0  0  0
    5.8205   -0.4483   -1.4244 C   0  0  0  0  0  0  0  0  0  0  0  0
    5.0331    0.3688   -2.2397 C   0  0  0  0  0  0  0  0  0  0  0  0
    4.1972    1.3375   -1.6765 C   0  0  0  0  0  0  0  0  0  0  0  0
    4.1365    1.4998   -0.2866 C   0  0  0  0  0  0  0  0  0  0  0  0
    3.2149    2.5175    0.3338 C   0  0  0  0  0  0  0  0  0  0  0  0
    1.9599    1.8997    0.6974 N   0  0  0  0  0  0  0  0  0  0  0  0
    1.6937    1.5033    1.9857 C   0  0  0  0  0  0  0  0  0  0  0  0
    2.4440    1.7415    2.9289 O   0  0  0  0  0  0  0  0  0  0  0  0
    0.4085    0.7082    2.1801 C   0  0  0  0  0  0  0  0  0  0  0  0
   -0.8251    1.5044    1.7389 C   0  0  0  0  0  0  0  0  0  0  0  0
   -2.0349    0.5879    1.5868 C   0  0  0  0  0  0  0  0  0  0  0  0
   -1.7778   -0.4630    0.5793 N   0  0  0  0  0  0  0  0  0  0  0  0
   -2.7159   -1.5182    0.6670 C   0  0  0  0  0  0  0  0  0  0  0  0
   -2.3622   -2.8199    1.0154 C   0  0  0  0  0  0  0  0  0  0  0  0
   -3.2142   -3.8544    1.1650 N   0  0  0  0  0  0  0  0  0  0  0  0
   -4.4983   -3.5571    0.9623 C   0  0  0  0  0  0  0  0  0  0  0  0
   -4.9885   -2.3613    0.6172 N   0  0  0  0  0  0  0  0  0  0  0  0
   -4.1086   -1.3472    0.4525 C   0  0  0  0  0  0  0  0  0  0  0  0
   -4.6155   -0.1038    0.0128 N   0  0  0  0  0  0  0  0  0  0  0  0
   -4.1227    0.2377   -1.3352 C   0  0  0  0  0  0  0  0  0  0  0  0
   -5.2879    0.9739   -1.9903 C   0  0  0  0  0  0  0  0  0  0  0  0
   -6.4932    0.2721   -1.3936 C   0  0  0  0  0  0  0  0  0  0  0  0
   -6.0735    0.0834    0.0597 C   0  0  0  0  0  0  0  0  0  0  0  0
   -0.3781   -0.7708    0.2679 C   0  0  0  0  0  0  0  0  0  0  0  0
    0.5019   -0.6728    1.5092 C   0  0  0  0  0  0  0  0  0  0  0  0
    4.9101    0.6618    0.5282 C   0  0  0  0  0  0  0  0  0  0  0  0
    5.7449   -0.3055   -0.0370 C   0  0  0  0  0  0  0  0  0  0  0  0
    8.6536   -0.0723   -1.8674 H   0  0  0  0  0  0  0  0  0  0  0  0
    8.5469   -1.1991   -0.4871 H   0  0  0  0  0  0  0  0  0  0  0  0
    9.2664   -1.7314   -2.0167 H   0  0  0  0  0  0  0  0  0  0  0  0
    5.0659    0.2590   -3.3212 H   0  0  0  0  0  0  0  0  0  0  0  0
    3.5957    1.9624   -2.3330 H   0  0  0  0  0  0  0  0  0  0  0  0
    3.6904    2.9841    1.2033 H   0  0  0  0  0  0  0  0  0  0  0  0
    2.9909    3.3165   -0.3814 H   0  0  0  0  0  0  0  0  0  0  0  0
    1.3765    1.5746   -0.0584 H   0  0  0  0  0  0  0  0  0  0  0  0
    0.3261    0.5368    3.2630 H   0  0  0  0  0  0  0  0  0  0  0  0
   -0.6514    2.0285    0.7912 H   0  0  0  0  0  0  0  0  0  0  0  0
   -1.0393    2.2850    2.4794 H   0  0  0  0  0  0  0  0  0  0  0  0
   -2.8885    1.2072    1.2941 H   0  0  0  0  0  0  0  0  0  0  0  0
   -2.2653    0.1395    2.5630 H   0  0  0  0  0  0  0  0  0  0  0  0
   -1.3327   -3.0876    1.2281 H   0  0  0  0  0  0  0  0  0  0  0  0
   -5.2151   -4.3614    1.0856 H   0  0  0  0  0  0  0  0  0  0  0  0
   -3.2366    0.8792   -1.2943 H   0  0  0  0  0  0  0  0  0  0  0  0
   -3.8856   -0.6569   -1.9267 H   0  0  0  0  0  0  0  0  0  0  0  0
   -5.2808    2.0311   -1.6976 H   0  0  0  0  0  0  0  0  0  0  0  0
   -5.2586    0.9176   -3.0819 H   0  0  0  0  0  0  0  0  0  0  0  0
   -6.6419   -0.7016   -1.8751 H   0  0  0  0  0  0  0  0  0  0  0  0
   -7.4142    0.8527   -1.4913 H   0  0  0  0  0  0  0  0  0  0  0  0
   -6.2708    1.0063    0.6189 H   0  0  0  0  0  0  0  0  0  0  0  0
   -6.6493   -0.7086    0.5483 H   0  0  0  0  0  0  0  0  0  0  0  0
   -0.2606   -1.7481   -0.2139 H   0  0  0  0  0  0  0  0  0  0  0  0
   -0.0363   -0.0484   -0.4824 H   0  0  0  0  0  0  0  0  0  0  0  0
    1.5375   -0.9204    1.2474 H   0  0  0  0  0  0  0  0  0  0  0  0
    0.1794   -1.4311    2.2339 H   0  0  0  0  0  0  0  0  0  0  0  0
    4.8566    0.7541    1.6127 H   0  0  0  0  0  0  0  0  0  0  0  0
    6.3227   -0.9511    0.6200 H   0  0  0  0  0  0  0  0  0  0  0  0
  1  2  1  0
  2  3  1  0
  3  4  2  0
  4  5  1  0
  5  6  2  0
  6  7  1  0
  7  8  1  0
  8  9  1  0
  9 10  2  0
  9 11  1  0
 11 12  1  0
 12 13  1  0
 13 14  1  0
 14 15  1  0
 15 16  2  0
 16 17  1  0
 17 18  2  0
 18 19  1  0
 19 20  2  0
 20 21  1  0
 21 22  1  0
 22 23  1  0
 23 24  1  0
 24 25  1  0
 14 26  1  0
 26 27  1  0
  6 28  1  0
 28 29  2  0
 29  3  1  0
 27 11  1  0
 20 15  1  0
 25 21  1  0
  1 30  1  0
  1 31  1  0
  1 32  1  0
  4 33  1  0
  5 34  1  0
  7 35  1  0
  7 36  1  0
  8 37  1  0
 11 38  1  0
 12 39  1  0
 12 40  1  0
 13 41  1  0
 13 42  1  0
 16 43  1  0
 18 44  1  0
 22 45  1  0
 22 46  1  0
 23 47  1  0
 23 48  1  0
 24 49  1  0
 24 50  1  0
 25 51  1  0
 25 52  1  0
 26 53  1  0
 26 54  1  0
 27 55  1  0
 27 56  1  0
 28 57  1  0
 29 58  1  0
M  END
$$$$
