
     RDKit          3D

 48 49  0  0  0  0  0  0  0  0999 V2000
   -3.9600    0.0436   -1.8325 C   0  0  0  0  0  0  0  0  0  0  0  0
   -2.5387   -0.2695   -1.7501 N   0  0  0  0  0  0  0  0  0  0  0  0
   -2.2303   -1.1886   -2.8042 C   0  0  0  0  0  0  0  0  0  0  0  0
   -2.0896   -0.6147   -0.4510 C   0  0  1  0  0  0  0  0  0  0  0  0
   -0.6582   -0.1999   -0.1526 C   0  0  0  0  0  0  0  0  0  0  0  0
    0.3505   -0.8060   -1.0425 C   0  0  0  0  0  0  0  0  0  0  0  0
    1.6153   -0.4154   -0.7849 O   0  0  0  0  0  0  0  0  0  0  0  0
    2.4828   -0.4929    0.2219 C   0  0  0  0  0  0  0  0  0  0  0  0
    2.2513   -1.1023    1.4297 C   0  0  0  0  0  0  0  0  0  0  0  0
    3.2566   -1.1100    2.4039 C   0  0  0  0  0  0  0  0  0  0  0  0
    4.4539   -0.5088    2.1276 C   0  0  0  0  0  0  0  0  0  0  0  0
    4.7011    0.1023    0.9248 C   0  0  0  0  0  0  0  0  0  0  0  0
    5.9345    0.7097    0.6593 C   0  0  0  0  0  0  0  0  0  0  0  0
    6.1603    1.3215   -0.5778 C   0  0  0  0  0  0  0  0  0  0  0  0
    5.1956    1.3462   -1.5506 C   0  0  0  0  0  0  0  0  0  0  0  0
    3.9878    0.7342   -1.2438 C   0  0  0  0  0  0  0  0  0  0  0  0
    3.7423    0.1231   -0.0305 C   0  0  0  0  0  0  0  0  0  0  0  0
   -2.9079    0.0737    0.5565 C   0  0  0  0  0  0  0  0  0  0  0  0
   -3.1519    1.4110    0.4494 C   0  0  0  0  0  0  0  0  0  0  0  0
   -3.9291    2.0783    1.3964 C   0  0  0  0  0  0  0  0  0  0  0  0
   -4.4550    1.3700    2.4560 C   0  0  0  0  0  0  0  0  0  0  0  0
   -4.2178    0.0174    2.5783 C   0  0  0  0  0  0  0  0  0  0  0  0
   -3.4365   -0.6178    1.6128 C   0  0  0  0  0  0  0  0  0  0  0  0
    0.6884    0.0000    0.0000 Cl  0  0  0  0  0  0  0  0  0  0  0  0
   -4.5375   -0.2364   -0.9483 H   0  0  0  0  0  0  0  0  0  0  0  0
   -4.4544   -0.5157   -2.6855 H   0  0  0  0  0  0  0  0  0  0  0  0
   -4.0637    1.1160   -2.1401 H   0  0  0  0  0  0  0  0  0  0  0  0
   -1.6966   -2.1084   -2.4722 H   0  0  0  0  0  0  0  0  0  0  0  0
   -1.6793   -0.6603   -3.6449 H   0  0  0  0  0  0  0  0  0  0  0  0
   -3.1502   -1.5804   -3.3419 H   0  0  0  0  0  0  0  0  0  0  0  0
   -2.2169   -1.7113   -0.3001 H   0  0  0  0  0  0  0  0  0  0  0  0
   -0.6621    0.9137   -0.1556 H   0  0  0  0  0  0  0  0  0  0  0  0
   -0.4914   -0.4900    0.8908 H   0  0  0  0  0  0  0  0  0  0  0  0
    0.1507   -0.5930   -2.1369 H   0  0  0  0  0  0  0  0  0  0  0  0
    0.2104   -1.9415   -1.0078 H   0  0  0  0  0  0  0  0  0  0  0  0
    1.3161   -1.5918    1.6439 H   0  0  0  0  0  0  0  0  0  0  0  0
    3.0335   -1.6034    3.3428 H   0  0  0  0  0  0  0  0  0  0  0  0
    5.2143   -0.5234    2.8802 H   0  0  0  0  0  0  0  0  0  0  0  0
    6.6960    0.7037    1.3997 H   0  0  0  0  0  0  0  0  0  0  0  0
    7.1160    1.7825   -0.7806 H   0  0  0  0  0  0  0  0  0  0  0  0
    5.3526    1.8176   -2.5329 H   0  0  0  0  0  0  0  0  0  0  0  0
    3.2060    0.7370   -1.9943 H   0  0  0  0  0  0  0  0  0  0  0  0
   -2.7673    2.0323   -0.3538 H   0  0  0  0  0  0  0  0  0  0  0  0
   -4.1315    3.1278    1.3366 H   0  0  0  0  0  0  0  0  0  0  0  0
   -5.0710    1.8784    3.2182 H   0  0  0  0  0  0  0  0  0  0  0  0
   -4.6433   -0.5017    3.4128 H   0  0  0  0  0  0  0  0  0  0  0  0
   -3.2873   -1.6985    1.7739 H   0  0  0  0  0  0  0  0  0  0  0  0
   -0.6884    0.0000    0.0000 H   0  0  0  0  0  0  0  0  0  0  0  0
  1  2  1  0
  2  3  1  0
  2  4  1  0
  4  5  1  0
  5  6  1  0
  6  7  1  0
  7  8  1  0
  8  9  2  0
  9 10  1  0
 10 11  2  0
 11 12  1  0
 12 13  2  0
 13 14  1  0
 14 15  2  0
 15 16  1  0
 16 17  2  0
  4 18  1  0
 18 19  2  0
 19 20  1  0
 20 21  2  0
 21 22  1  0
 22 23  2  0
 17  8  1  0
 23 18  1  0
 17 12  1  0
  1 25  1  0
  1 26  1  0
  1 27  1  0
  3 28  1  0
  3 29  1  0
  3 30  1  0
  4 31  1  1
  5 32  1  0
  5 33  1  0
  6 34  1  0
  6 35  1  0
  9 36  1  0
 10 37  1  0
 11 38  1  0
 13 39  1  0
 14 40  1  0
 15 41  1  0
 16 42  1  0
 19 43  1  0
 20 44  1  0
 21 45  1  0
 22 46  1  0
 23 47  1  0
 24 48  1  0
M  END
$$$$
