
     RDKit          3D

 86 91  0  0  0  0  0  0  0  0999 V2000
   10.5279    3.4522    0.4553 C   0  0  0  0  0  0  0  0  0  0  0  0
   10.0994    2.7523   -0.7035 O   0  0  0  0  0  0  0  0  0  0  0  0
    8.8065    2.2909   -0.7288 C   0  0  0  0  0  0  0  0  0  0  0  0
    7.8942    2.4361    0.3216 C   0  0  0  0  0  0  0  0  0  0  0  0
    6.5894    1.9331    0.2113 C   0  0  0  0  0  0  0  0  0  0  0  0
    6.1971    1.2543   -0.9530 C   0  0  0  0  0  0  0  0  0  0  0  0
    7.1096    1.1206   -2.0110 C   0  0  0  0  0  0  0  0  0  0  0  0
    8.4089    1.6314   -1.9081 C   0  0  0  0  0  0  0  0  0  0  0  0
    9.3605    1.5352   -2.8939 O   0  0  0  0  0  0  0  0  0  0  0  0
    8.9742    0.9537   -4.1298 C   0  0  0  0  0  0  0  0  0  0  0  0
    4.7839    0.7289   -1.1097 C   0  0  0  0  0  0  0  0  0  0  0  0
    4.0640    0.5007    0.1580 N   0  0  0  0  0  0  0  0  0  0  0  0
    4.5014   -0.7491    0.8068 C   0  0  0  0  0  0  0  0  0  0  0  0
    3.6859   -1.1737    2.0440 C   0  0  0  0  0  0  0  0  0  0  0  0
    2.2513   -1.5454    1.7514 C   0  0  0  0  0  0  0  0  0  0  0  0
    1.9354   -2.7919    1.2011 C   0  0  0  0  0  0  0  0  0  0  0  0
    0.6039   -3.1415    0.9536 C   0  0  0  0  0  0  0  0  0  0  0  0
   -0.4373   -2.2527    1.2480 C   0  0  0  0  0  0  0  0  0  0  0  0
   -1.7543   -2.6975    0.9996 N   0  0  0  0  0  0  0  0  0  0  0  0
   -2.9265   -1.9789    1.1540 C   0  0  0  0  0  0  0  0  0  0  0  0
   -3.0182   -0.7820    1.4118 O   0  0  0  0  0  0  0  0  0  0  0  0
   -4.1905   -2.7457    0.9054 C   0  0  0  0  0  0  0  0  0  0  0  0
   -4.2542   -4.1025    1.2696 C   0  0  0  0  0  0  0  0  0  0  0  0
   -5.4018   -4.8534    1.0074 C   0  0  0  0  0  0  0  0  0  0  0  0
   -5.5478   -6.1810    1.3214 O   0  0  0  0  0  0  0  0  0  0  0  0
   -4.5299   -6.8017    2.0934 C   0  0  0  0  0  0  0  0  0  0  0  0
   -6.4990   -4.2434    0.3724 C   0  0  0  0  0  0  0  0  0  0  0  0
   -7.5802   -5.0570    0.1343 O   0  0  0  0  0  0  0  0  0  0  0  0
   -8.7209   -4.4769   -0.4854 C   0  0  0  0  0  0  0  0  0  0  0  0
   -6.4447   -2.8820    0.0409 C   0  0  0  0  0  0  0  0  0  0  0  0
   -5.3101   -2.1105    0.3220 C   0  0  0  0  0  0  0  0  0  0  0  0
   -5.2504   -0.7152    0.0570 N   0  0  0  0  0  0  0  0  0  0  0  0
   -6.2207    0.0978   -0.4953 C   0  0  0  0  0  0  0  0  0  0  0  0
   -7.3258   -0.2581   -0.8908 O   0  0  0  0  0  0  0  0  0  0  0  0
   -5.8868    1.5435   -0.5841 C   0  0  0  0  0  0  0  0  0  0  0  0
   -4.5907    2.0196   -0.7031 C   0  0  0  0  0  0  0  0  0  0  0  0
   -4.2688    3.3356   -0.7899 N   0  0  0  0  0  0  0  0  0  0  0  0
   -5.2693    4.2347   -0.7695 C   0  0  0  0  0  0  0  0  0  0  0  0
   -4.9755    5.5888   -0.8516 C   0  0  0  0  0  0  0  0  0  0  0  0
   -5.9801    6.5612   -0.8391 C   0  0  0  0  0  0  0  0  0  0  0  0
   -7.3134    6.1789   -0.7439 C   0  0  0  0  0  0  0  0  0  0  0  0
   -7.6373    4.8267   -0.6593 C   0  0  0  0  0  0  0  0  0  0  0  0
   -6.6242    3.8517   -0.6697 C   0  0  0  0  0  0  0  0  0  0  0  0
   -6.9187    2.4838   -0.5824 C   0  0  0  0  0  0  0  0  0  0  0  0
   -0.1220   -1.0061    1.7866 C   0  0  0  0  0  0  0  0  0  0  0  0
    1.2106   -0.6545    2.0329 C   0  0  0  0  0  0  0  0  0  0  0  0
    4.1888    1.7025    0.9973 C   0  0  0  0  0  0  0  0  0  0  0  0
    5.6337    2.0652    1.3721 C   0  0  0  0  0  0  0  0  0  0  0  0
   11.5688    3.7520    0.2989 H   0  0  0  0  0  0  0  0  0  0  0  0
    9.9396    4.3632    0.6073 H   0  0  0  0  0  0  0  0  0  0  0  0
   10.4972    2.8078    1.3407 H   0  0  0  0  0  0  0  0  0  0  0  0
    8.1737    2.9348    1.2439 H   0  0  0  0  0  0  0  0  0  0  0  0
    6.7794    0.6094   -2.9094 H   0  0  0  0  0  0  0  0  0  0  0  0
    8.7063   -0.1004   -4.0024 H   0  0  0  0  0  0  0  0  0  0  0  0
    9.8359    0.9982   -4.8032 H   0  0  0  0  0  0  0  0  0  0  0  0
    8.1593    1.5171   -4.5967 H   0  0  0  0  0  0  0  0  0  0  0  0
    4.2209    1.4639   -1.7001 H   0  0  0  0  0  0  0  0  0  0  0  0
    4.7888   -0.1933   -1.7047 H   0  0  0  0  0  0  0  0  0  0  0  0
    5.5570   -0.6930    1.0996 H   0  0  0  0  0  0  0  0  0  0  0  0
    4.4342   -1.5646    0.0743 H   0  0  0  0  0  0  0  0  0  0  0  0
    3.7269   -0.4034    2.8229 H   0  0  0  0  0  0  0  0  0  0  0  0
    4.1730   -2.0494    2.4943 H   0  0  0  0  0  0  0  0  0  0  0  0
    2.7236   -3.5039    0.9675 H   0  0  0  0  0  0  0  0  0  0  0  0
    0.3987   -4.1211    0.5307 H   0  0  0  0  0  0  0  0  0  0  0  0
   -1.8262   -3.6264    0.6058 H   0  0  0  0  0  0  0  0  0  0  0  0
   -3.4106   -4.5540    1.7789 H   0  0  0  0  0  0  0  0  0  0  0  0
   -4.8492   -7.8259    2.3076 H   0  0  0  0  0  0  0  0  0  0  0  0
   -4.3891   -6.2908    3.0517 H   0  0  0  0  0  0  0  0  0  0  0  0
   -3.5914   -6.8556    1.5321 H   0  0  0  0  0  0  0  0  0  0  0  0
   -8.4804   -4.1071   -1.4875 H   0  0  0  0  0  0  0  0  0  0  0  0
   -9.1507   -3.6862    0.1384 H   0  0  0  0  0  0  0  0  0  0  0  0
   -9.4772   -5.2605   -0.5937 H   0  0  0  0  0  0  0  0  0  0  0  0
   -7.3028   -2.4186   -0.4271 H   0  0  0  0  0  0  0  0  0  0  0  0
   -4.4203   -0.2655    0.4501 H   0  0  0  0  0  0  0  0  0  0  0  0
   -3.7306    1.3578   -0.7526 H   0  0  0  0  0  0  0  0  0  0  0  0
   -3.9350    5.8954   -0.9262 H   0  0  0  0  0  0  0  0  0  0  0  0
   -5.7154    7.6132   -0.9038 H   0  0  0  0  0  0  0  0  0  0  0  0
   -8.0988    6.9307   -0.7347 H   0  0  0  0  0  0  0  0  0  0  0  0
   -8.6834    4.5361   -0.5861 H   0  0  0  0  0  0  0  0  0  0  0  0
   -7.9515    2.1482   -0.5095 H   0  0  0  0  0  0  0  0  0  0  0  0
   -0.8877   -0.2793    2.0366 H   0  0  0  0  0  0  0  0  0  0  0  0
    1.4263    0.3262    2.4505 H   0  0  0  0  0  0  0  0  0  0  0  0
    3.7450    2.5462    0.4503 H   0  0  0  0  0  0  0  0  0  0  0  0
    3.5835    1.6156    1.9056 H   0  0  0  0  0  0  0  0  0  0  0  0
    5.9815    1.4094    2.1797 H   0  0  0  0  0  0  0  0  0  0  0  0
    5.6528    3.0951    1.7490 H   0  0  0  0  0  0  0  0  0  0  0  0
  1  2  1  0
  2  3  1  0
  3  4  2  0
  4  5  1  0
  5  6  2  0
  6  7  1  0
  7  8  2  0
  8  9  1  0
  9 10  1  0
  6 11  1  0
 11 12  1  0
 12 13  1  0
 13 14  1  0
 14 15  1  0
 15 16  2  0
 16 17  1  0
 17 18  2  0
 18 19  1  0
 19 20  1  0
 20 21  2  0
 20 22  1  0
 22 23  2  0
 23 24  1  0
 24 25  1  0
 25 26  1  0
 24 27  2  0
 27 28  1  0
 28 29  1  0
 27 30  1  0
 30 31  2  0
 31 32  1  0
 32 33  1  0
 33 34  2  0
 33 35  1  0
 35 36  2  0
 36 37  1  0
 37 38  2  0
 38 39  1  0
 39 40  2  0
 40 41  1  0
 41 42  2  0
 42 43  1  0
 43 44  2  0
 18 45  1  0
 45 46  2  0
 12 47  1  0
 47 48  1  0
  8  3  1  0
 46 15  1  0
 48  5  1  0
 31 22  1  0
 44 35  1  0
 43 38  1  0
  1 49  1  0
  1 50  1  0
  1 51  1  0
  4 52  1  0
  7 53  1  0
 10 54  1  0
 10 55  1  0
 10 56  1  0
 11 57  1  0
 11 58  1  0
 13 59  1  0
 13 60  1  0
 14 61  1  0
 14 62  1  0
 16 63  1  0
 17 64  1  0
 19 65  1  0
 23 66  1  0
 26 67  1  0
 26 68  1  0
 26 69  1  0
 29 70  1  0
 29 71  1  0
 29 72  1  0
 30 73  1  0
 32 74  1  0
 36 75  1  0
 39 76  1  0
 40 77  1  0
 41 78  1  0
 42 79  1  0
 44 80  1  0
 45 81  1  0
 46 82  1  0
 47 83  1  0
 47 84  1  0
 48 85  1  0
 48 86  1  0
M  END
$$$$
