
     RDKit          3D

 52 54  0  0  0  0  0  0  0  0999 V2000
    5.8717    0.7342    1.9305 C   0  0  0  0  0  0  0  0  0  0  0  0
    6.1953    0.9931    0.4672 C   0  0  0  0  0  0  0  0  0  0  0  0
    6.0840   -0.2326   -0.3237 N   0  0  0  0  0  0  0  0  0  0  0  0
    4.7991   -0.6104   -0.7437 C   0  0  0  0  0  0  0  0  0  0  0  0
    3.7444    0.1483   -0.3877 N   0  0  0  0  0  0  0  0  0  0  0  0
    2.5083   -0.2242   -0.7544 C   0  0  0  0  0  0  0  0  0  0  0  0
    1.4871    0.6213   -0.3465 N   0  0  0  0  0  0  0  0  0  0  0  0
    0.0910    0.6325   -0.4955 C   0  0  0  0  0  0  0  0  0  0  0  0
   -0.6120   -0.3332   -1.2246 C   0  0  0  0  0  0  0  0  0  0  0  0
   -1.9987   -0.2696   -1.3278 C   0  0  0  0  0  0  0  0  0  0  0  0
   -2.6377   -1.2090   -2.0403 F   0  0  0  0  0  0  0  0  0  0  0  0
   -2.7067    0.7417   -0.6908 C   0  0  0  0  0  0  0  0  0  0  0  0
   -4.1687    0.8334   -0.8187 C   0  0  0  0  0  0  0  0  0  0  0  0
   -4.6149    1.8045   -1.4249 O   0  0  0  0  0  0  0  0  0  0  0  0
   -4.9632   -0.1281   -0.2088 N   0  0  0  0  0  0  0  0  0  0  0  0
   -6.4203   -0.0030   -0.2933 C   0  0  0  0  0  0  0  0  0  0  0  0
   -7.0756   -0.3722    1.0410 C   0  0  0  0  0  0  0  0  0  0  0  0
   -6.7640   -1.6966    1.5004 O   0  0  0  0  0  0  0  0  0  0  0  0
   -5.5603   -2.2398    0.9430 C   0  0  0  0  0  0  0  0  0  0  0  0
   -4.4804   -1.1829    0.6916 C   0  0  0  0  0  0  0  0  0  0  0  0
   -2.0314    1.7366    0.0210 C   0  0  0  0  0  0  0  0  0  0  0  0
   -0.6385    1.6826    0.1232 C   0  0  0  0  0  0  0  0  0  0  0  0
    0.1309    2.5970    0.8076 O   0  0  0  0  0  0  0  0  0  0  0  0
   -0.5365    3.7306    1.3503 C   0  0  0  0  0  0  0  0  0  0  0  0
    2.2665   -1.3335   -1.4589 N   0  0  0  0  0  0  0  0  0  0  0  0
    3.3281   -2.0858   -1.7948 C   0  0  0  0  0  0  0  0  0  0  0  0
    4.6271   -1.7708   -1.4678 C   0  0  0  0  0  0  0  0  0  0  0  0
    5.7442   -2.6689   -1.8504 C   0  0  0  0  0  0  0  0  0  0  0  0
    6.8370   -2.0003   -2.3219 F   0  0  0  0  0  0  0  0  0  0  0  0
    6.1871   -3.4474   -0.8259 F   0  0  0  0  0  0  0  0  0  0  0  0
    5.4069   -3.5402   -2.8466 F   0  0  0  0  0  0  0  0  0  0  0  0
    6.5119   -0.0556    2.3379 H   0  0  0  0  0  0  0  0  0  0  0  0
    6.0344    1.6422    2.5197 H   0  0  0  0  0  0  0  0  0  0  0  0
    4.8317    0.4243    2.0702 H   0  0  0  0  0  0  0  0  0  0  0  0
    7.2360    1.3333    0.4073 H   0  0  0  0  0  0  0  0  0  0  0  0
    5.5848    1.8072    0.0587 H   0  0  0  0  0  0  0  0  0  0  0  0
    6.7229   -0.2131   -1.1187 H   0  0  0  0  0  0  0  0  0  0  0  0
    1.8566    1.3930    0.1958 H   0  0  0  0  0  0  0  0  0  0  0  0
   -0.1034   -1.1458   -1.7309 H   0  0  0  0  0  0  0  0  0  0  0  0
   -6.7122    1.0087   -0.5911 H   0  0  0  0  0  0  0  0  0  0  0  0
   -6.7466   -0.6954   -1.0780 H   0  0  0  0  0  0  0  0  0  0  0  0
   -6.7551    0.3258    1.8231 H   0  0  0  0  0  0  0  0  0  0  0  0
   -8.1648   -0.2988    0.9624 H   0  0  0  0  0  0  0  0  0  0  0  0
   -5.8235   -2.7495    0.0087 H   0  0  0  0  0  0  0  0  0  0  0  0
   -5.1898   -3.0008    1.6370 H   0  0  0  0  0  0  0  0  0  0  0  0
   -4.2096   -0.6896    1.6324 H   0  0  0  0  0  0  0  0  0  0  0  0
   -3.5862   -1.6565    0.2828 H   0  0  0  0  0  0  0  0  0  0  0  0
   -2.6151    2.5311    0.4740 H   0  0  0  0  0  0  0  0  0  0  0  0
   -1.0343    4.3105    0.5661 H   0  0  0  0  0  0  0  0  0  0  0  0
    0.2198    4.3738    1.8105 H   0  0  0  0  0  0  0  0  0  0  0  0
   -1.2414    3.4333    2.1335 H   0  0  0  0  0  0  0  0  0  0  0  0
    3.0837   -2.9855   -2.3558 H   0  0  0  0  0  0  0  0  0  0  0  0
  1  2  1  0
  2  3  1  0
  3  4  1  0
  4  5  2  0
  5  6  1  0
  6  7  1  0
  7  8  1  0
  8  9  2  0
  9 10  1  0
 10 11  1  0
 10 12  2  0
 12 13  1  0
 13 14  2  0
 13 15  1  0
 15 16  1  0
 16 17  1  0
 17 18  1  0
 18 19  1  0
 19 20  1  0
 12 21  1  0
 21 22  2  0
 22 23  1  0
 23 24  1  0
  6 25  2  0
 25 26  1  0
 26 27  2  0
 27 28  1  0
 28 29  1  0
 28 30  1  0
 28 31  1  0
 27  4  1  0
 22  8  1  0
 20 15  1  0
  1 32  1  0
  1 33  1  0
  1 34  1  0
  2 35  1  0
  2 36  1  0
  3 37  1  0
  7 38  1  0
  9 39  1  0
 16 40  1  0
 16 41  1  0
 17 42  1  0
 17 43  1  0
 19 44  1  0
 19 45  1  0
 20 46  1  0
 20 47  1  0
 21 48  1  0
 24 49  1  0
 24 50  1  0
 24 51  1  0
 26 52  1  0
M  END
$$$$
