
     RDKit          3D

 49 50  0  0  0  0  0  0  0  0999 V2000
    5.8603    2.3588   -0.5065 C   0  0  0  0  0  0  0  0  0  0  0  0
    5.5869    0.9517    0.0300 C   0  0  0  0  0  0  0  0  0  0  0  0
    6.4091   -0.0697   -0.7571 C   0  0  0  0  0  0  0  0  0  0  0  0
    4.0777    0.6562   -0.0249 C   0  0  0  0  0  0  0  0  0  0  0  0
    3.6947   -0.6725    0.6276 C   0  0  0  0  0  0  0  0  0  0  0  0
    2.2537   -0.8353    0.6843 N   0  0  0  0  0  0  0  0  0  0  0  0
    1.5394   -1.3198   -0.3894 C   0  0  0  0  0  0  0  0  0  0  0  0
    2.0757   -1.6721   -1.4366 O   0  0  0  0  0  0  0  0  0  0  0  0
    0.0286   -1.3779   -0.2148 C   0  0  0  0  0  0  0  0  0  0  0  0
   -0.3816   -2.2261    0.9927 C   0  0  0  0  0  0  0  0  0  0  0  0
   -1.8985   -2.2296    1.1580 C   0  0  0  0  0  0  0  0  0  0  0  0
   -2.4631   -0.8138    1.2161 C   0  0  0  0  0  0  0  0  0  0  0  0
   -2.0254    0.0143    0.0635 N   0  0  0  0  0  0  0  0  0  0  0  0
   -2.9404   -0.0692   -1.3737 S   0  0  0  0  0  6  0  0  0  0  0  0
   -3.1002   -1.4646   -1.7195 O   0  0  0  0  0  0  0  0  0  0  0  0
   -2.3978    0.8845   -2.3164 O   0  0  0  0  0  0  0  0  0  0  0  0
   -4.5218    0.5632   -0.8610 C   0  0  0  0  0  0  0  0  0  0  0  0
   -4.6169    1.9024   -0.4620 C   0  0  0  0  0  0  0  0  0  0  0  0
   -5.8524    2.4102   -0.0607 C   0  0  0  0  0  0  0  0  0  0  0  0
   -6.9710    1.5811   -0.0681 C   0  0  0  0  0  0  0  0  0  0  0  0
   -8.1553    2.0715    0.3197 F   0  0  0  0  0  0  0  0  0  0  0  0
   -6.8812    0.2515   -0.4729 C   0  0  0  0  0  0  0  0  0  0  0  0
   -5.6495   -0.2655   -0.8763 C   0  0  0  0  0  0  0  0  0  0  0  0
   -0.5454    0.0323   -0.1139 C   0  0  0  0  0  0  0  0  0  0  0  0
    5.5570    2.4506   -1.5551 H   0  0  0  0  0  0  0  0  0  0  0  0
    5.3121    3.1097    0.0723 H   0  0  0  0  0  0  0  0  0  0  0  0
    6.9263    2.6009   -0.4395 H   0  0  0  0  0  0  0  0  0  0  0  0
    5.9137    0.9222    1.0772 H   0  0  0  0  0  0  0  0  0  0  0  0
    6.0770   -0.1284   -1.7992 H   0  0  0  0  0  0  0  0  0  0  0  0
    7.4702    0.2023   -0.7558 H   0  0  0  0  0  0  0  0  0  0  0  0
    6.3311   -1.0684   -0.3171 H   0  0  0  0  0  0  0  0  0  0  0  0
    3.5366    1.4649    0.4845 H   0  0  0  0  0  0  0  0  0  0  0  0
    3.7321    0.6693   -1.0667 H   0  0  0  0  0  0  0  0  0  0  0  0
    4.0605   -0.7137    1.6588 H   0  0  0  0  0  0  0  0  0  0  0  0
    4.1195   -1.5181    0.0777 H   0  0  0  0  0  0  0  0  0  0  0  0
    1.7765   -0.4980    1.5084 H   0  0  0  0  0  0  0  0  0  0  0  0
   -0.3715   -1.8599   -1.1171 H   0  0  0  0  0  0  0  0  0  0  0  0
   -0.0180   -3.2536    0.8717 H   0  0  0  0  0  0  0  0  0  0  0  0
    0.0734   -1.8437    1.9144 H   0  0  0  0  0  0  0  0  0  0  0  0
   -2.3511   -2.7866    0.3308 H   0  0  0  0  0  0  0  0  0  0  0  0
   -2.1645   -2.7660    2.0761 H   0  0  0  0  0  0  0  0  0  0  0  0
   -3.5543   -0.8476    1.2835 H   0  0  0  0  0  0  0  0  0  0  0  0
   -2.1223   -0.3156    2.1325 H   0  0  0  0  0  0  0  0  0  0  0  0
   -3.7383    2.5440   -0.4684 H   0  0  0  0  0  0  0  0  0  0  0  0
   -5.9530    3.4450    0.2520 H   0  0  0  0  0  0  0  0  0  0  0  0
   -7.7719   -0.3695   -0.4757 H   0  0  0  0  0  0  0  0  0  0  0  0
   -5.5781   -1.3013   -1.2009 H   0  0  0  0  0  0  0  0  0  0  0  0
   -0.2657    0.6300   -0.9885 H   0  0  0  0  0  0  0  0  0  0  0  0
   -0.1230    0.5700    0.7449 H   0  0  0  0  0  0  0  0  0  0  0  0
  1  2  1  0
  2  3  1  0
  2  4  1  0
  4  5  1  0
  5  6  1  0
  6  7  1  0
  7  8  2  0
  7  9  1  0
  9 10  1  0
 10 11  1  0
 11 12  1  0
 12 13  1  0
 13 14  1  0
 14 15  2  0
 14 16  2  0
 14 17  1  0
 17 18  2  0
 18 19  1  0
 19 20  2  0
 20 21  1  0
 20 22  1  0
 22 23  2  0
 13 24  1  0
 24  9  1  0
 23 17  1  0
  1 25  1  0
  1 26  1  0
  1 27  1  0
  2 28  1  0
  3 29  1  0
  3 30  1  0
  3 31  1  0
  4 32  1  0
  4 33  1  0
  5 34  1  0
  5 35  1  0
  6 36  1  0
  9 37  1  0
 10 38  1  0
 10 39  1  0
 11 40  1  0
 11 41  1  0
 12 42  1  0
 12 43  1  0
 18 44  1  0
 19 45  1  0
 22 46  1  0
 23 47  1  0
 24 48  1  0
 24 49  1  0
M  END
$$$$
