
     RDKit          3D

 41 42  0  0  0  0  0  0  0  0999 V2000
    6.0291    0.7075    2.9569 C   0  0  0  0  0  0  0  0  0  0  0  0
    5.8420    0.5484    1.5584 O   0  0  0  0  0  0  0  0  0  0  0  0
    4.5856    0.2143    1.1171 C   0  0  0  0  0  0  0  0  0  0  0  0
    3.4807    0.0199    1.9509 C   0  0  0  0  0  0  0  0  0  0  0  0
    2.2360   -0.3180    1.4103 C   0  0  0  0  0  0  0  0  0  0  0  0
    2.0742   -0.4573    0.0290 C   0  0  0  0  0  0  0  0  0  0  0  0
    0.7894   -0.8374   -0.5730 C   0  0  0  0  0  0  0  0  0  0  0  0
   -0.3977   -0.3650   -0.1613 C   0  0  0  0  0  0  0  0  0  0  0  0
   -1.6489   -0.7962   -0.8497 C   0  0  0  0  0  0  0  0  0  0  0  0
   -1.6135   -1.5668   -1.7997 O   0  0  0  0  0  0  0  0  0  0  0  0
   -2.7656   -0.2256   -0.2791 N   0  0  0  0  0  0  0  0  0  0  0  0
   -4.1267   -0.3887   -0.6488 C   0  0  0  0  0  0  0  0  0  0  0  0
   -4.5158   -1.2072   -1.7168 C   0  0  0  0  0  0  0  0  0  0  0  0
   -5.8636   -1.3509   -2.0621 C   0  0  0  0  0  0  0  0  0  0  0  0
   -6.8474   -0.6789   -1.3461 C   0  0  0  0  0  0  0  0  0  0  0  0
   -6.4857    0.1411   -0.2795 C   0  0  0  0  0  0  0  0  0  0  0  0
   -5.1335    0.2932    0.0769 C   0  0  0  0  0  0  0  0  0  0  0  0
   -4.7711    1.1745    1.2218 C   0  0  0  0  0  0  0  0  0  0  0  0
   -3.6384    1.3766    1.6283 O   0  0  0  0  0  0  0  0  0  0  0  0
   -5.8304    1.7623    1.8054 O   0  0  0  0  0  0  0  0  0  0  0  0
    3.1860   -0.2798   -0.8061 C   0  0  0  0  0  0  0  0  0  0  0  0
    4.4378    0.0603   -0.2756 C   0  0  0  0  0  0  0  0  0  0  0  0
    5.5702    0.2616   -1.0269 O   0  0  0  0  0  0  0  0  0  0  0  0
    5.4656    0.1055   -2.4345 C   0  0  0  0  0  0  0  0  0  0  0  0
    7.0774    0.9719    3.1262 H   0  0  0  0  0  0  0  0  0  0  0  0
    5.4137    1.5245    3.3478 H   0  0  0  0  0  0  0  0  0  0  0  0
    5.8324   -0.2279    3.4910 H   0  0  0  0  0  0  0  0  0  0  0  0
    3.5537    0.1174    3.0287 H   0  0  0  0  0  0  0  0  0  0  0  0
    1.4013   -0.4831    2.0874 H   0  0  0  0  0  0  0  0  0  0  0  0
    0.8433   -1.5257   -1.4154 H   0  0  0  0  0  0  0  0  0  0  0  0
   -0.4782    0.3420    0.6547 H   0  0  0  0  0  0  0  0  0  0  0  0
   -2.6149    0.3976    0.5146 H   0  0  0  0  0  0  0  0  0  0  0  0
   -3.7900   -1.7551   -2.3104 H   0  0  0  0  0  0  0  0  0  0  0  0
   -6.1385   -1.9929   -2.8961 H   0  0  0  0  0  0  0  0  0  0  0  0
   -7.8940   -0.7932   -1.6177 H   0  0  0  0  0  0  0  0  0  0  0  0
   -7.2692    0.6588    0.2693 H   0  0  0  0  0  0  0  0  0  0  0  0
   -5.4487    2.3042    2.5275 H   0  0  0  0  0  0  0  0  0  0  0  0
    3.0505   -0.4039   -1.8759 H   0  0  0  0  0  0  0  0  0  0  0  0
    4.7695    0.8344   -2.8623 H   0  0  0  0  0  0  0  0  0  0  0  0
    5.1808   -0.9182   -2.6988 H   0  0  0  0  0  0  0  0  0  0  0  0
    6.4526    0.2969   -2.8664 H   0  0  0  0  0  0  0  0  0  0  0  0
  1  2  1  0
  2  3  1  0
  3  4  2  0
  4  5  1  0
  5  6  2  0
  6  7  1  0
  7  8  2  0
  8  9  1  0
  9 10  2  0
  9 11  1  0
 11 12  1  0
 12 13  2  0
 13 14  1  0
 14 15  2  0
 15 16  1  0
 16 17  2  0
 17 18  1  0
 18 19  2  0
 18 20  1  0
  6 21  1  0
 21 22  2  0
 22 23  1  0
 23 24  1  0
 22  3  1  0
 17 12  1  0
  1 25  1  0
  1 26  1  0
  1 27  1  0
  4 28  1  0
  5 29  1  0
  7 30  1  0
  8 31  1  0
 11 32  1  0
 13 33  1  0
 14 34  1  0
 15 35  1  0
 16 36  1  0
 20 37  1  0
 21 38  1  0
 24 39  1  0
 24 40  1  0
 24 41  1  0
M  END
$$$$
