
     RDKit          3D

 51 54  0  0  0  0  0  0  0  0999 V2000
    8.4296    0.6143   -0.7422 C   0  0  0  0  0  0  0  0  0  0  0  0
    6.9168    0.6270   -0.5933 C   0  0  0  0  0  0  0  0  0  0  0  0
    6.3829   -0.7593   -0.2640 C   0  0  0  0  0  0  0  0  0  0  0  0
    4.6188   -0.7853    0.0312 S   0  0  0  0  0  6  0  0  0  0  0  0
    4.2960    0.1893    1.0509 O   0  0  0  0  0  0  0  0  0  0  0  0
    4.2086   -2.1672    0.1515 O   0  0  0  0  0  0  0  0  0  0  0  0
    4.0142   -0.2644   -1.4784 N   0  0  0  0  0  0  0  0  0  0  0  0
    2.9990    0.7490   -1.3815 C   0  0  0  0  0  0  0  0  0  0  0  0
    3.3674    2.0959   -1.3969 C   0  0  0  0  0  0  0  0  0  0  0  0
    2.3965    3.0816   -1.2017 C   0  0  0  0  0  0  0  0  0  0  0  0
    1.0719    2.7144   -0.9697 C   0  0  0  0  0  0  0  0  0  0  0  0
    0.1647    3.6769   -0.7569 F   0  0  0  0  0  0  0  0  0  0  0  0
    0.7100    1.3728   -0.9301 C   0  0  0  0  0  0  0  0  0  0  0  0
   -0.6813    1.0024   -0.6786 C   0  0  0  0  0  0  0  0  0  0  0  0
   -1.5032    1.2381   -1.5601 O   0  0  0  0  0  0  0  0  0  0  0  0
   -1.0241    0.3779    0.5967 C   0  0  0  0  0  0  0  0  0  0  0  0
   -0.1750    0.1511    1.6729 C   0  0  0  0  0  0  0  0  0  0  0  0
   -0.8929   -0.4573    2.6722 N   0  0  0  0  0  0  0  0  0  0  0  0
   -2.1892   -0.6194    2.2778 C   0  0  0  0  0  0  0  0  0  0  0  0
   -3.1462   -1.1784    3.0376 N   0  0  0  0  0  0  0  0  0  0  0  0
   -4.3509   -1.2204    2.4124 C   0  0  0  0  0  0  0  0  0  0  0  0
   -4.6463   -0.7617    1.1233 C   0  0  0  0  0  0  0  0  0  0  0  0
   -5.9993   -0.8691    0.5540 C   0  0  0  0  0  0  0  0  0  0  0  0
   -6.6245    0.2415   -0.0410 C   0  0  0  0  0  0  0  0  0  0  0  0
   -7.9106    0.1438   -0.5822 C   0  0  0  0  0  0  0  0  0  0  0  0
   -8.5890   -1.0702   -0.5370 C   0  0  0  0  0  0  0  0  0  0  0  0
  -10.1705   -1.1934   -1.2021 Cl  0  0  0  0  0  0  0  0  0  0  0  0
   -7.9929   -2.1856    0.0439 C   0  0  0  0  0  0  0  0  0  0  0  0
   -6.7067   -2.0843    0.5847 C   0  0  0  0  0  0  0  0  0  0  0  0
   -3.5886   -0.1905    0.3974 C   0  0  0  0  0  0  0  0  0  0  0  0
   -2.3133   -0.1125    0.9909 C   0  0  0  0  0  0  0  0  0  0  0  0
    1.6685    0.3907   -1.1443 C   0  0  0  0  0  0  0  0  0  0  0  0
    1.3346   -0.9089   -1.1250 F   0  0  0  0  0  0  0  0  0  0  0  0
    8.7955    1.6180   -0.9813 H   0  0  0  0  0  0  0  0  0  0  0  0
    8.9122    0.2895    0.1851 H   0  0  0  0  0  0  0  0  0  0  0  0
    8.7390   -0.0608   -1.5466 H   0  0  0  0  0  0  0  0  0  0  0  0
    6.6386    1.3380    0.1928 H   0  0  0  0  0  0  0  0  0  0  0  0
    6.4723    0.9922   -1.5252 H   0  0  0  0  0  0  0  0  0  0  0  0
    6.5878   -1.4682   -1.0732 H   0  0  0  0  0  0  0  0  0  0  0  0
    6.8475   -1.1453    0.6500 H   0  0  0  0  0  0  0  0  0  0  0  0
    3.6556   -1.1098   -1.9394 H   0  0  0  0  0  0  0  0  0  0  0  0
    4.4031    2.3846   -1.5522 H   0  0  0  0  0  0  0  0  0  0  0  0
    2.6664    4.1343   -1.2126 H   0  0  0  0  0  0  0  0  0  0  0  0
    0.8771    0.3593    1.8237 H   0  0  0  0  0  0  0  0  0  0  0  0
   -0.5423   -0.7503    3.5728 H   0  0  0  0  0  0  0  0  0  0  0  0
   -5.1363   -1.6576    3.0274 H   0  0  0  0  0  0  0  0  0  0  0  0
   -6.1134    1.2026   -0.0797 H   0  0  0  0  0  0  0  0  0  0  0  0
   -8.3717    1.0176   -1.0346 H   0  0  0  0  0  0  0  0  0  0  0  0
   -8.5172   -3.1370    0.0758 H   0  0  0  0  0  0  0  0  0  0  0  0
   -6.2529   -2.9740    1.0184 H   0  0  0  0  0  0  0  0  0  0  0  0
   -3.7364    0.1800   -0.6137 H   0  0  0  0  0  0  0  0  0  0  0  0
  1  2  1  0
  2  3  1  0
  3  4  1  0
  4  5  2  0
  4  6  2  0
  4  7  1  0
  7  8  1  0
  8  9  2  0
  9 10  1  0
 10 11  2  0
 11 12  1  0
 11 13  1  0
 13 14  1  0
 14 15  2  0
 14 16  1  0
 16 17  2  0
 17 18  1  0
 18 19  1  0
 19 20  2  0
 20 21  1  0
 21 22  2  0
 22 23  1  0
 23 24  2  0
 24 25  1  0
 25 26  2  0
 26 27  1  0
 26 28  1  0
 28 29  2  0
 22 30  1  0
 30 31  2  0
 13 32  2  0
 32 33  1  0
 32  8  1  0
 31 16  1  0
 31 19  1  0
 29 23  1  0
  1 34  1  0
  1 35  1  0
  1 36  1  0
  2 37  1  0
  2 38  1  0
  3 39  1  0
  3 40  1  0
  7 41  1  0
  9 42  1  0
 10 43  1  0
 17 44  1  0
 18 45  1  0
 21 46  1  0
 24 47  1  0
 25 48  1  0
 28 49  1  0
 29 50  1  0
 30 51  1  0
M  END
$$$$
