
     RDKit          3D

 28 29  0  0  0  0  0  0  0  0999 V2000
    0.5076   -1.6315    1.6791 C   0  0  0  0  0  0  0  0  0  0  0  0
    0.4454   -0.6700    0.4969 C   0  0  0  0  0  0  0  0  0  0  0  0
   -0.5846    0.3039    0.7376 O   0  0  0  0  0  0  0  0  0  0  0  0
   -1.7073    0.0882   -0.0237 C   0  0  0  0  0  0  0  0  0  0  0  0
   -2.8780   -0.3572    0.6055 C   0  0  0  0  0  0  0  0  0  0  0  0
   -2.9363   -0.6512    2.3074 Cl  0  0  0  0  0  0  0  0  0  0  0  0
   -4.0466   -0.5649   -0.1338 C   0  0  0  0  0  0  0  0  0  0  0  0
   -4.0635   -0.3046   -1.5031 C   0  0  0  0  0  0  0  0  0  0  0  0
   -2.9166    0.1819   -2.1294 C   0  0  0  0  0  0  0  0  0  0  0  0
   -1.7459    0.3914   -1.3927 C   0  0  0  0  0  0  0  0  0  0  0  0
   -0.3920    1.0706   -2.2231 Cl  0  0  0  0  0  0  0  0  0  0  0  0
    1.7844    0.0587    0.3872 C   0  0  0  0  0  0  0  0  0  0  0  0
    2.8795   -0.5658    0.0236 N   0  0  0  0  0  0  0  0  0  0  0  0
    3.9323    0.4923    0.0802 C   0  0  0  0  0  0  0  0  0  0  0  0
    3.3257    1.6683    0.8543 C   0  0  0  0  0  0  0  0  0  0  0  0
    1.9230    1.3882    0.7070 N   0  0  0  0  0  0  0  0  0  0  0  0
    1.3511   -2.3240    1.5924 H   0  0  0  0  0  0  0  0  0  0  0  0
   -0.4103   -2.2233    1.7447 H   0  0  0  0  0  0  0  0  0  0  0  0
    0.6084   -1.0856    2.6240 H   0  0  0  0  0  0  0  0  0  0  0  0
    0.2949   -1.2399   -0.4292 H   0  0  0  0  0  0  0  0  0  0  0  0
   -4.9500   -0.9212    0.3559 H   0  0  0  0  0  0  0  0  0  0  0  0
   -4.9734   -0.4624   -2.0775 H   0  0  0  0  0  0  0  0  0  0  0  0
   -2.9433    0.4096   -3.1929 H   0  0  0  0  0  0  0  0  0  0  0  0
    4.8311    0.1124    0.5753 H   0  0  0  0  0  0  0  0  0  0  0  0
    4.1931    0.7847   -0.9432 H   0  0  0  0  0  0  0  0  0  0  0  0
    3.6120    1.6303    1.9104 H   0  0  0  0  0  0  0  0  0  0  0  0
    3.6083    2.6363    0.4328 H   0  0  0  0  0  0  0  0  0  0  0  0
    1.2508    1.7849    1.3541 H   0  0  0  0  0  0  0  0  0  0  0  0
  1  2  1  0
  2  3  1  0
  3  4  1  0
  4  5  2  0
  5  6  1  0
  5  7  1  0
  7  8  2  0
  8  9  1  0
  9 10  2  0
 10 11  1  0
  2 12  1  0
 12 13  2  0
 13 14  1  0
 14 15  1  0
 15 16  1  0
 10  4  1  0
 16 12  1  0
  1 17  1  0
  1 18  1  0
  1 19  1  0
  2 20  1  0
  7 21  1  0
  8 22  1  0
  9 23  1  0
 14 24  1  0
 14 25  1  0
 15 26  1  0
 15 27  1  0
 16 28  1  0
M  END
$$$$
