
     RDKit          3D

 50 53  0  0  0  0  0  0  0  0999 V2000
   -6.4983    0.7505   -2.1764 C   0  0  0  0  0  0  0  0  0  0  0  0
   -5.5299    1.1723   -1.0705 C   0  0  0  0  0  0  0  0  0  0  0  0
   -6.2556    1.9347    0.0389 C   0  0  0  0  0  0  0  0  0  0  0  0
   -4.7376    0.0021   -0.5315 C   0  0  0  0  0  0  0  0  0  0  0  0
   -3.3684   -0.1813   -0.5909 C   0  0  0  0  0  0  0  0  0  0  0  0
   -2.9246   -1.4052    0.0230 C   0  0  0  0  0  0  0  0  0  0  0  0
   -1.6499   -1.9976    0.1976 C   0  0  0  0  0  0  0  0  0  0  0  0
   -0.4625   -1.3879   -0.2185 N   0  0  0  0  0  0  0  0  0  0  0  0
   -0.1952   -0.0540    0.3577 C   0  0  0  0  0  0  0  0  0  0  0  0
    1.1639    0.0307    1.0898 C   0  0  0  0  0  0  0  0  0  0  0  0
    2.2811   -0.4227    0.2492 N   0  0  0  0  0  0  0  0  0  0  0  0
    3.5846   -0.0110    0.3873 C   0  0  0  0  0  0  0  0  0  0  0  0
    4.5511   -0.3927   -0.3852 N   0  0  0  0  0  0  0  0  0  0  0  0
    5.8390    0.1721    0.0599 C   0  0  0  0  0  0  0  0  0  0  0  0
    5.6051    1.4697    0.8346 C   0  0  0  0  0  0  0  0  0  0  0  0
    5.4348    2.6706   -0.1001 C   0  0  0  0  0  0  0  0  0  0  0  0
    6.7042    1.7328    1.8602 C   0  0  0  0  0  0  0  0  0  0  0  0
    4.0291    1.1151    1.6605 S   0  0  0  0  0  0  0  0  0  0  0  0
    1.9651   -1.5015   -0.7080 C   0  0  0  0  0  0  0  0  0  0  0  0
    0.7056   -2.2847   -0.2927 C   0  0  0  0  0  0  0  0  0  0  0  0
   -1.6033   -3.2317    0.7589 N   0  0  0  0  0  0  0  0  0  0  0  0
   -2.7413   -3.8132    1.1689 C   0  0  0  0  0  0  0  0  0  0  0  0
   -3.9800   -3.3263    1.0897 N   0  0  0  0  0  0  0  0  0  0  0  0
   -4.0104   -2.1229    0.4957 C   0  0  0  0  0  0  0  0  0  0  0  0
   -5.4928   -1.3199    0.2565 S   0  0  0  0  0  0  0  0  0  0  0  0
   -6.9756    1.6286   -2.6248 H   0  0  0  0  0  0  0  0  0  0  0  0
   -5.9741    0.2108   -2.9730 H   0  0  0  0  0  0  0  0  0  0  0  0
   -7.2934    0.0988   -1.7980 H   0  0  0  0  0  0  0  0  0  0  0  0
   -4.8137    1.8723   -1.5231 H   0  0  0  0  0  0  0  0  0  0  0  0
   -6.7278    2.8385   -0.3613 H   0  0  0  0  0  0  0  0  0  0  0  0
   -7.0409    1.3300    0.5055 H   0  0  0  0  0  0  0  0  0  0  0  0
   -5.5577    2.2417    0.8259 H   0  0  0  0  0  0  0  0  0  0  0  0
   -2.6999    0.5277   -1.0639 H   0  0  0  0  0  0  0  0  0  0  0  0
   -0.1948    0.6677   -0.4685 H   0  0  0  0  0  0  0  0  0  0  0  0
   -0.9752    0.2608    1.0620 H   0  0  0  0  0  0  0  0  0  0  0  0
    1.2936    1.0747    1.3935 H   0  0  0  0  0  0  0  0  0  0  0  0
    1.1337   -0.5808    1.9997 H   0  0  0  0  0  0  0  0  0  0  0  0
    6.4752    0.3503   -0.8148 H   0  0  0  0  0  0  0  0  0  0  0  0
    6.3508   -0.5829    0.6712 H   0  0  0  0  0  0  0  0  0  0  0  0
    4.6574    2.5045   -0.8549 H   0  0  0  0  0  0  0  0  0  0  0  0
    5.1766    3.5794    0.4560 H   0  0  0  0  0  0  0  0  0  0  0  0
    6.3679    2.8729   -0.6390 H   0  0  0  0  0  0  0  0  0  0  0  0
    7.6684    1.8835    1.3610 H   0  0  0  0  0  0  0  0  0  0  0  0
    6.4964    2.6319    2.4518 H   0  0  0  0  0  0  0  0  0  0  0  0
    6.8265    0.8938    2.5552 H   0  0  0  0  0  0  0  0  0  0  0  0
    2.7959   -2.2138   -0.7754 H   0  0  0  0  0  0  0  0  0  0  0  0
    1.8211   -1.0576   -1.7003 H   0  0  0  0  0  0  0  0  0  0  0  0
    0.5207   -3.0733   -1.0324 H   0  0  0  0  0  0  0  0  0  0  0  0
    0.8943   -2.7621    0.6783 H   0  0  0  0  0  0  0  0  0  0  0  0
   -2.6392   -4.7952    1.6202 H   0  0  0  0  0  0  0  0  0  0  0  0
  1  2  1  0
  2  3  1  0
  2  4  1  0
  4  5  2  0
  5  6  1  0
  6  7  2  0
  7  8  1  0
  8  9  1  0
  9 10  1  0
 10 11  1  0
 11 12  1  0
 12 13  2  0
 13 14  1  0
 14 15  1  0
 15 16  1  0
 15 17  1  0
 15 18  1  0
 11 19  1  0
 19 20  1  0
  7 21  1  0
 21 22  2  0
 22 23  1  0
 23 24  2  0
 24 25  1  0
 25  4  1  0
 24  6  1  0
 20  8  1  0
 18 12  1  0
  1 26  1  0
  1 27  1  0
  1 28  1  0
  2 29  1  0
  3 30  1  0
  3 31  1  0
  3 32  1  0
  5 33  1  0
  9 34  1  0
  9 35  1  0
 10 36  1  0
 10 37  1  0
 14 38  1  0
 14 39  1  0
 16 40  1  0
 16 41  1  0
 16 42  1  0
 17 43  1  0
 17 44  1  0
 17 45  1  0
 19 46  1  0
 19 47  1  0
 20 48  1  0
 20 49  1  0
 22 50  1  0
M  END
$$$$
