
     RDKit          3D

 50 53  0  0  0  0  0  0  0  0999 V2000
    6.0953   -1.1802   -1.9861 N   0  0  0  0  0  0  0  0  0  0  0  0
    5.7851   -0.4542   -0.8301 C   0  0  0  0  0  0  0  0  0  0  0  0
    4.9921    0.6211   -1.0343 N   0  0  0  0  0  0  0  0  0  0  0  0
    4.6782    1.4251    0.0002 C   0  0  0  0  0  0  0  0  0  0  0  0
    3.8533    2.5005   -0.3132 N   0  0  0  0  0  0  0  0  0  0  0  0
    2.5891    2.5717    0.4273 C   0  0  0  0  0  0  0  0  0  0  0  0
    1.6362    1.3972    0.1208 C   0  0  0  0  0  0  0  0  0  0  0  0
    0.3440    1.6219    0.7601 N   0  0  0  0  0  0  0  0  0  0  0  0
   -0.5804    0.6130    0.5314 C   0  0  0  0  0  0  0  0  0  0  0  0
   -0.1996   -0.6630    0.4653 N   0  0  0  0  0  0  0  0  0  0  0  0
   -1.1648   -1.5819    0.2638 C   0  0  0  0  0  0  0  0  0  0  0  0
   -2.5051   -1.2802    0.1167 C   0  0  0  0  0  0  0  0  0  0  0  0
   -3.4486   -2.3266   -0.0387 N   0  0  0  0  0  0  0  0  0  0  0  0
   -4.8000   -2.3141    0.2313 C   0  0  0  0  0  0  0  0  0  0  0  0
   -5.2651   -3.5760   -0.0547 C   0  0  0  0  0  0  0  0  0  0  0  0
   -4.2501   -4.3782   -0.4806 N   0  0  0  0  0  0  0  0  0  0  0  0
   -3.1807   -3.6151   -0.4593 C   0  0  0  0  0  0  0  0  0  0  0  0
   -2.8020    0.0754    0.1571 C   0  0  0  0  0  0  0  0  0  0  0  0
   -4.1076    0.6983   -0.1146 C   0  0  0  0  0  0  0  0  0  0  0  0
   -4.7811    1.3608    0.9315 C   0  0  0  0  0  0  0  0  0  0  0  0
   -6.0157    1.9788    0.7180 C   0  0  0  0  0  0  0  0  0  0  0  0
   -6.5888    1.9560   -0.5502 C   0  0  0  0  0  0  0  0  0  0  0  0
   -8.1087    2.7161   -0.8131 Cl  0  0  0  0  0  0  0  0  0  0  0  0
   -5.9372    1.3294   -1.6082 C   0  0  0  0  0  0  0  0  0  0  0  0
   -4.7011    0.7112   -1.3936 C   0  0  0  0  0  0  0  0  0  0  0  0
   -3.9317   -0.0169   -2.7631 Cl  0  0  0  0  0  0  0  0  0  0  0  0
   -1.8451    1.0131    0.3855 N   0  0  0  0  0  0  0  0  0  0  0  0
    5.1638    1.2090    1.2817 C   0  0  0  0  0  0  0  0  0  0  0  0
    5.9962    0.1186    1.5083 C   0  0  0  0  0  0  0  0  0  0  0  0
    6.3095   -0.7202    0.4349 C   0  0  0  0  0  0  0  0  0  0  0  0
    7.1690   -1.8674    0.6691 N   0  0  0  0  0  4  0  0  0  0  0  0
    8.0067   -1.7773    1.5776 O   0  0  0  0  0  0  0  0  0  0  0  0
    7.0090   -2.8694   -0.0438 O   0  0  0  0  0  1  0  0  0  0  0  0
    6.0035   -2.1822   -1.8099 H   0  0  0  0  0  0  0  0  0  0  0  0
    7.0604   -1.0184   -2.2604 H   0  0  0  0  0  0  0  0  0  0  0  0
    3.6950    2.4120   -1.3191 H   0  0  0  0  0  0  0  0  0  0  0  0
    2.7644    2.6512    1.5072 H   0  0  0  0  0  0  0  0  0  0  0  0
    2.0984    3.5093    0.1375 H   0  0  0  0  0  0  0  0  0  0  0  0
    1.5096    1.3057   -0.9657 H   0  0  0  0  0  0  0  0  0  0  0  0
    2.0896    0.4680    0.4867 H   0  0  0  0  0  0  0  0  0  0  0  0
   -0.1282    2.4782    0.4852 H   0  0  0  0  0  0  0  0  0  0  0  0
   -0.7822   -2.5985    0.2662 H   0  0  0  0  0  0  0  0  0  0  0  0
   -5.3238   -1.4644    0.6374 H   0  0  0  0  0  0  0  0  0  0  0  0
   -6.2772   -3.9485    0.0421 H   0  0  0  0  0  0  0  0  0  0  0  0
   -2.1989   -3.9461   -0.7690 H   0  0  0  0  0  0  0  0  0  0  0  0
   -4.3341    1.3992    1.9252 H   0  0  0  0  0  0  0  0  0  0  0  0
   -6.5179    2.4794    1.5424 H   0  0  0  0  0  0  0  0  0  0  0  0
   -6.3855    1.3277   -2.5988 H   0  0  0  0  0  0  0  0  0  0  0  0
    4.9227    1.8908    2.0903 H   0  0  0  0  0  0  0  0  0  0  0  0
    6.3904   -0.0598    2.5056 H   0  0  0  0  0  0  0  0  0  0  0  0
  1  2  1  0
  2  3  2  0
  3  4  1  0
  4  5  1  0
  5  6  1  0
  6  7  1  0
  7  8  1  0
  8  9  1  0
  9 10  2  0
 10 11  1  0
 11 12  2  0
 12 13  1  0
 13 14  1  0
 14 15  2  0
 15 16  1  0
 16 17  2  0
 12 18  1  0
 18 19  1  0
 19 20  2  0
 20 21  1  0
 21 22  2  0
 22 23  1  0
 22 24  1  0
 24 25  2  0
 25 26  1  0
 18 27  2  0
  4 28  2  0
 28 29  1  0
 29 30  2  0
 30 31  1  0
 31 32  2  0
 31 33  1  0
 30  2  1  0
 27  9  1  0
 17 13  1  0
 25 19  1  0
  1 34  1  0
  1 35  1  0
  5 36  1  0
  6 37  1  0
  6 38  1  0
  7 39  1  0
  7 40  1  0
  8 41  1  0
 11 42  1  0
 14 43  1  0
 15 44  1  0
 17 45  1  0
 20 46  1  0
 21 47  1  0
 24 48  1  0
 28 49  1  0
 29 50  1  0
M  CHG  2  31   1  33  -1
M  END
$$$$
