
     RDKit          3D

 48 52  0  0  0  0  0  0  0  0999 V2000
   -5.4473    2.0315   -0.1131 C   0  0  0  0  0  0  0  0  0  0  0  0
   -4.1405    2.4284   -0.7306 C   0  0  0  0  0  0  0  0  0  0  0  0
   -4.0333    3.6217   -1.4362 C   0  0  0  0  0  0  0  0  0  0  0  0
   -2.8066    3.9584   -1.9966 C   0  0  0  0  0  0  0  0  0  0  0  0
   -1.7261    3.0960   -1.8383 C   0  0  0  0  0  0  0  0  0  0  0  0
   -1.9055    1.9171   -1.1220 C   0  0  0  0  0  0  0  0  0  0  0  0
   -0.7838    0.9984   -0.9333 C   0  0  0  0  0  0  0  0  0  0  0  0
    0.4694    1.2197   -1.4868 N   0  0  0  0  0  0  0  0  0  0  0  0
    1.2212    0.2110   -1.0988 C   0  0  0  0  0  0  0  0  0  0  0  0
    2.6617   -0.0419   -1.4177 C   0  0  0  0  0  0  0  0  0  0  0  0
    3.4297   -0.4915   -0.2522 N   0  0  0  0  0  0  0  0  0  0  0  0
    4.8064   -0.7339   -0.4474 C   0  0  0  0  0  0  0  0  0  0  0  0
    5.3151   -1.3992   -1.5684 C   0  0  0  0  0  0  0  0  0  0  0  0
    6.6839   -1.6777   -1.6783 C   0  0  0  0  0  0  0  0  0  0  0  0
    7.5633   -1.3173   -0.6573 C   0  0  0  0  0  0  0  0  0  0  0  0
    7.0735   -0.6874    0.4824 C   0  0  0  0  0  0  0  0  0  0  0  0
    5.7113   -0.4165    0.5821 C   0  0  0  0  0  0  0  0  0  0  0  0
    5.2539    0.1898    1.6905 F   0  0  0  0  0  0  0  0  0  0  0  0
    0.5034   -0.6564   -0.3145 N   0  0  0  0  0  0  0  0  0  0  0  0
   -0.7757   -0.1720   -0.1893 C   0  0  0  0  0  0  0  0  0  0  0  0
   -1.7154   -0.9106    0.5729 C   0  0  0  0  0  0  0  0  0  0  0  0
   -2.8937   -1.5706    0.0033 C   0  0  0  0  0  0  0  0  0  0  0  0
   -3.7759   -2.2493    0.7608 C   0  0  0  0  0  0  0  0  0  0  0  0
   -3.5706   -2.3361    2.1630 C   0  0  0  0  0  0  0  0  0  0  0  0
   -4.2503   -2.9260    3.1204 N   0  0  0  0  0  0  0  0  0  0  0  0
   -3.5247   -2.6230    4.2325 C   0  0  0  0  0  0  0  0  0  0  0  0
   -2.4297   -1.8882    4.0360 N   0  0  0  0  0  0  0  0  0  0  0  0
   -2.4514   -1.6907    2.6938 N   0  0  0  0  0  0  0  0  0  0  0  0
   -1.5396   -0.9903    1.9080 C   0  0  0  0  0  0  0  0  0  0  0  0
   -3.0995    1.5780   -0.5728 N   0  0  0  0  0  0  0  0  0  0  0  0
   -5.7972    2.8119    0.5700 H   0  0  0  0  0  0  0  0  0  0  0  0
   -5.3418    1.1030    0.4578 H   0  0  0  0  0  0  0  0  0  0  0  0
   -6.1987    1.8706   -0.8925 H   0  0  0  0  0  0  0  0  0  0  0  0
   -4.8870    4.2824   -1.5467 H   0  0  0  0  0  0  0  0  0  0  0  0
   -2.6896    4.8852   -2.5502 H   0  0  0  0  0  0  0  0  0  0  0  0
   -0.7590    3.3434   -2.2639 H   0  0  0  0  0  0  0  0  0  0  0  0
    2.6844   -0.7953   -2.2133 H   0  0  0  0  0  0  0  0  0  0  0  0
    3.1012    0.8813   -1.8144 H   0  0  0  0  0  0  0  0  0  0  0  0
    3.3318    0.1824    0.5128 H   0  0  0  0  0  0  0  0  0  0  0  0
    4.6617   -1.7315   -2.3691 H   0  0  0  0  0  0  0  0  0  0  0  0
    7.0607   -2.1900   -2.5609 H   0  0  0  0  0  0  0  0  0  0  0  0
    8.6237   -1.5387   -0.7463 H   0  0  0  0  0  0  0  0  0  0  0  0
    7.7369   -0.4090    1.2942 H   0  0  0  0  0  0  0  0  0  0  0  0
    0.8808   -1.4961    0.1053 H   0  0  0  0  0  0  0  0  0  0  0  0
   -3.0522   -1.4717   -1.0676 H   0  0  0  0  0  0  0  0  0  0  0  0
   -4.6510   -2.7217    0.3291 H   0  0  0  0  0  0  0  0  0  0  0  0
   -3.8037   -2.9520    5.2255 H   0  0  0  0  0  0  0  0  0  0  0  0
   -0.7244   -0.5256    2.4472 H   0  0  0  0  0  0  0  0  0  0  0  0
  1  2  1  0
  2  3  2  0
  3  4  1  0
  4  5  2  0
  5  6  1  0
  6  7  1  0
  7  8  1  0
  8  9  2  0
  9 10  1  0
 10 11  1  0
 11 12  1  0
 12 13  2  0
 13 14  1  0
 14 15  2  0
 15 16  1  0
 16 17  2  0
 17 18  1  0
  9 19  1  0
 19 20  1  0
 20 21  1  0
 21 22  1  0
 22 23  2  0
 23 24  1  0
 24 25  2  0
 25 26  1  0
 26 27  2  0
 27 28  1  0
 28 29  1  0
  6 30  2  0
 30  2  1  0
 20  7  2  0
 29 21  2  0
 17 12  1  0
 28 24  1  0
  1 31  1  0
  1 32  1  0
  1 33  1  0
  3 34  1  0
  4 35  1  0
  5 36  1  0
 10 37  1  0
 10 38  1  0
 11 39  1  0
 13 40  1  0
 14 41  1  0
 15 42  1  0
 16 43  1  0
 19 44  1  0
 22 45  1  0
 23 46  1  0
 26 47  1  0
 29 48  1  0
M  END
$$$$
