
     RDKit          3D

 29 31  0  0  0  0  0  0  0  0999 V2000
    3.9003    1.8705   -1.2130 C   0  0  0  0  0  0  0  0  0  0  0  0
    4.1160    0.5526   -0.7235 O   0  0  0  0  0  0  0  0  0  0  0  0
    3.0140   -0.1488   -0.3130 C   0  0  0  0  0  0  0  0  0  0  0  0
    3.3011   -1.4459    0.1596 C   0  0  0  0  0  0  0  0  0  0  0  0
    2.2899   -2.2938    0.6162 C   0  0  0  0  0  0  0  0  0  0  0  0
    1.0011   -1.8073    0.5845 C   0  0  0  0  0  0  0  0  0  0  0  0
    0.6901   -0.5262    0.1210 C   0  0  0  0  0  0  0  0  0  0  0  0
    1.6940    0.3182   -0.3333 C   0  0  0  0  0  0  0  0  0  0  0  0
   -0.7750   -0.3836    0.2457 C   0  0  0  0  0  0  0  0  0  0  0  0
   -1.4418    0.7279   -0.1075 C   0  0  0  0  0  0  0  0  0  0  0  0
   -2.8326    0.9966   -0.0414 C   0  0  0  0  0  0  0  0  0  0  0  0
   -3.5765    2.1113   -0.3863 C   0  0  0  0  0  0  0  0  0  0  0  0
   -4.9126    1.9222   -0.1476 N   0  0  0  0  0  0  0  0  0  0  0  0
   -4.9995    0.7072    0.3389 C   0  0  0  0  0  0  0  0  0  0  0  0
   -3.7735    0.1106    0.4215 N   0  0  0  0  0  0  0  0  0  0  0  0
   -1.2750   -1.6896    0.8188 C   0  0  0  0  0  0  0  0  0  0  0  0
   -2.4198   -2.0064    1.0838 O   0  0  0  0  0  0  0  0  0  0  0  0
   -0.1484   -2.4749    0.9875 N   0  0  0  0  0  0  0  0  0  0  0  0
    4.8725    2.2857   -1.4953 H   0  0  0  0  0  0  0  0  0  0  0  0
    3.2695    1.8603   -2.1080 H   0  0  0  0  0  0  0  0  0  0  0  0
    3.4754    2.5150   -0.4363 H   0  0  0  0  0  0  0  0  0  0  0  0
    4.3335   -1.7909    0.1676 H   0  0  0  0  0  0  0  0  0  0  0  0
    2.5204   -3.2890    0.9776 H   0  0  0  0  0  0  0  0  0  0  0  0
    1.4465    1.3091   -0.6909 H   0  0  0  0  0  0  0  0  0  0  0  0
   -0.8592    1.5574   -0.5041 H   0  0  0  0  0  0  0  0  0  0  0  0
   -3.2152    3.0455   -0.7967 H   0  0  0  0  0  0  0  0  0  0  0  0
   -5.9073    0.2064    0.6469 H   0  0  0  0  0  0  0  0  0  0  0  0
   -3.6030   -0.8281    0.7681 H   0  0  0  0  0  0  0  0  0  0  0  0
   -0.1850   -3.4120    1.3590 H   0  0  0  0  0  0  0  0  0  0  0  0
  1  2  1  0
  2  3  1  0
  3  4  2  0
  4  5  1  0
  5  6  2  0
  6  7  1  0
  7  8  2  0
  7  9  1  0
  9 10  2  0
 10 11  1  0
 11 12  2  0
 12 13  1  0
 13 14  2  0
 14 15  1  0
  9 16  1  0
 16 17  2  0
 16 18  1  0
  8  3  1  0
 15 11  1  0
 18  6  1  0
  1 19  1  0
  1 20  1  0
  1 21  1  0
  4 22  1  0
  5 23  1  0
  8 24  1  0
 10 25  1  0
 12 26  1  0
 14 27  1  0
 15 28  1  0
 18 29  1  0
M  END
$$$$
