
     RDKit          3D

 52 53  0  0  0  0  0  0  0  0999 V2000
    8.0527    1.9543    0.9725 C   0  0  0  0  0  0  0  0  0  0  0  0
    7.3107    0.6226    0.9444 C   0  0  0  0  0  0  0  0  0  0  0  0
    7.2321    0.0282    2.3471 C   0  0  0  0  0  0  0  0  0  0  0  0
    5.9961    0.8840    0.4443 O   0  0  0  0  0  0  0  0  0  0  0  0
    5.3865   -0.2555   -0.1616 C   0  0  0  0  0  0  0  0  0  0  0  0
    3.9703    0.1224   -0.5734 C   0  0  0  0  0  0  0  0  0  0  0  0
    3.3081   -1.0041   -1.3574 C   0  0  0  0  0  0  0  0  0  0  0  0
    1.9416   -0.6821   -1.7206 N   0  0  0  0  0  0  0  0  0  0  0  0
    0.9091   -0.8666   -0.8145 C   0  0  0  0  0  0  0  0  0  0  0  0
    1.0923   -1.3778    0.2828 O   0  0  0  0  0  0  0  0  0  0  0  0
   -0.2803   -0.4269   -1.3520 N   0  0  0  0  0  0  0  0  0  0  0  0
   -1.5154   -0.3406   -0.7280 C   0  0  0  0  0  0  0  0  0  0  0  0
   -1.6725   -0.5604    0.9460 S   0  0  0  0  0  0  0  0  0  0  0  0
   -3.3258   -0.1976    0.9073 C   0  0  0  0  0  0  0  0  0  0  0  0
   -3.7875    0.0532   -0.3717 C   0  0  0  0  0  0  0  0  0  0  0  0
   -2.7241   -0.0435   -1.3526 C   0  0  0  0  0  0  0  0  0  0  0  0
   -2.7870    0.1642   -2.7991 C   0  0  0  0  0  0  0  0  0  0  0  0
   -3.9695   -0.1340   -3.4124 N   0  0  0  0  0  0  0  0  0  0  0  0
   -1.8175    0.5056   -3.4729 O   0  0  0  0  0  0  0  0  0  0  0  0
   -5.2206    0.4655   -0.5567 C   0  0  0  0  0  0  0  0  0  0  0  0
   -6.0786    0.1213    0.6927 C   0  0  0  0  0  0  0  0  0  0  0  0
   -7.3631    0.9620    0.6614 C   0  0  0  0  0  0  0  0  0  0  0  0
   -6.4752   -1.3643    0.7250 C   0  0  0  0  0  0  0  0  0  0  0  0
   -5.3891    0.5065    1.8989 O   0  0  0  0  0  0  0  0  0  0  0  0
   -4.1483   -0.1766    2.1539 C   0  0  0  0  0  0  0  0  0  0  0  0
    8.0839    2.3934   -0.0308 H   0  0  0  0  0  0  0  0  0  0  0  0
    7.5399    2.6784    1.6167 H   0  0  0  0  0  0  0  0  0  0  0  0
    9.0786    1.8308    1.3308 H   0  0  0  0  0  0  0  0  0  0  0  0
    7.8430   -0.0617    0.2714 H   0  0  0  0  0  0  0  0  0  0  0  0
    6.7273   -0.9427    2.3373 H   0  0  0  0  0  0  0  0  0  0  0  0
    6.6539    0.6780    3.0150 H   0  0  0  0  0  0  0  0  0  0  0  0
    8.2309   -0.1138    2.7714 H   0  0  0  0  0  0  0  0  0  0  0  0
    5.9728   -0.5465   -1.0414 H   0  0  0  0  0  0  0  0  0  0  0  0
    5.3590   -1.0951    0.5416 H   0  0  0  0  0  0  0  0  0  0  0  0
    3.9885    1.0407   -1.1745 H   0  0  0  0  0  0  0  0  0  0  0  0
    3.3860    0.3711    0.3215 H   0  0  0  0  0  0  0  0  0  0  0  0
    3.8497   -1.1836   -2.2925 H   0  0  0  0  0  0  0  0  0  0  0  0
    3.3147   -1.9342   -0.7779 H   0  0  0  0  0  0  0  0  0  0  0  0
    1.8131    0.0664   -2.3875 H   0  0  0  0  0  0  0  0  0  0  0  0
   -0.2827   -0.2158   -2.3446 H   0  0  0  0  0  0  0  0  0  0  0  0
   -4.5899   -0.8003   -2.9759 H   0  0  0  0  0  0  0  0  0  0  0  0
   -3.9222   -0.1653   -4.4229 H   0  0  0  0  0  0  0  0  0  0  0  0
   -5.6733    0.0075   -1.4389 H   0  0  0  0  0  0  0  0  0  0  0  0
   -5.2168    1.5524   -0.7152 H   0  0  0  0  0  0  0  0  0  0  0  0
   -7.9582    0.7587   -0.2353 H   0  0  0  0  0  0  0  0  0  0  0  0
   -7.9819    0.7601    1.5431 H   0  0  0  0  0  0  0  0  0  0  0  0
   -7.1295    2.0333    0.6874 H   0  0  0  0  0  0  0  0  0  0  0  0
   -7.1155   -1.6231   -0.1254 H   0  0  0  0  0  0  0  0  0  0  0  0
   -7.0129   -1.6008    1.6497 H   0  0  0  0  0  0  0  0  0  0  0  0
   -5.6040   -2.0263    0.6929 H   0  0  0  0  0  0  0  0  0  0  0  0
   -4.3594   -1.1901    2.5115 H   0  0  0  0  0  0  0  0  0  0  0  0
   -3.6400    0.3687    2.9560 H   0  0  0  0  0  0  0  0  0  0  0  0
  1  2  1  0
  2  3  1  0
  2  4  1  0
  4  5  1  0
  5  6  1  0
  6  7  1  0
  7  8  1  0
  8  9  1  0
  9 10  2  0
  9 11  1  0
 11 12  1  0
 12 13  1  0
 13 14  1  0
 14 15  2  0
 15 16  1  0
 16 17  1  0
 17 18  1  0
 17 19  2  0
 15 20  1  0
 20 21  1  0
 21 22  1  0
 21 23  1  0
 21 24  1  0
 24 25  1  0
 16 12  2  0
 25 14  1  0
  1 26  1  0
  1 27  1  0
  1 28  1  0
  2 29  1  0
  3 30  1  0
  3 31  1  0
  3 32  1  0
  5 33  1  0
  5 34  1  0
  6 35  1  0
  6 36  1  0
  7 37  1  0
  7 38  1  0
  8 39  1  0
 11 40  1  0
 18 41  1  0
 18 42  1  0
 20 43  1  0
 20 44  1  0
 22 45  1  0
 22 46  1  0
 22 47  1  0
 23 48  1  0
 23 49  1  0
 23 50  1  0
 25 51  1  0
 25 52  1  0
M  END
$$$$
