
     RDKit          3D

 62 66  0  0  0  0  0  0  0  0999 V2000
    8.0188   -1.2271   -0.7725 C   0  0  0  0  0  0  0  0  0  0  0  0
    7.4025    0.0466   -0.8985 O   0  0  0  0  0  0  0  0  0  0  0  0
    6.0274   -0.0228   -0.9304 C   0  0  0  0  0  0  0  0  0  0  0  0
    5.4111   -1.2066   -0.7748 N   0  0  0  0  0  0  0  0  0  0  0  0
    4.0628   -1.1761   -0.8059 C   0  0  0  0  0  0  0  0  0  0  0  0
    3.3195   -0.0229   -0.9472 C   0  0  0  0  0  0  0  0  0  0  0  0
    1.8674   -0.0694   -0.9616 C   0  0  0  0  0  0  0  0  0  0  0  0
    1.1703   -0.5089   -2.0093 N   0  0  0  0  0  0  0  0  0  0  0  0
   -0.1253   -0.3778   -1.6465 C   0  0  0  0  0  0  0  0  0  0  0  0
   -0.2388    0.0783   -0.3769 C   0  0  0  0  0  0  0  0  0  0  0  0
    1.0198    0.2831    0.0947 N   0  0  0  0  0  0  0  0  0  0  0  0
    1.3425    0.7144    1.4504 C   0  0  0  0  0  0  0  0  0  0  0  0
    1.7965    2.1710    1.5286 C   0  0  0  0  0  0  0  0  0  0  0  0
    2.2977   -0.2260    2.1868 C   0  0  0  0  0  0  0  0  0  0  0  0
   -1.6394    0.2059    0.0781 C   0  0  2  0  0  0  0  0  0  0  0  0
   -1.9487   -0.7176    1.2499 C   0  0  0  0  0  0  0  0  0  0  0  0
   -1.7880   -2.1141    1.1589 C   0  0  0  0  0  0  0  0  0  0  0  0
   -2.0768   -2.9393    2.2490 C   0  0  0  0  0  0  0  0  0  0  0  0
   -2.5330   -2.3793    3.4398 C   0  0  0  0  0  0  0  0  0  0  0  0
   -2.8988   -3.3959    4.7778 Cl  0  0  0  0  0  0  0  0  0  0  0  0
   -2.6932   -1.0013    3.5534 C   0  0  0  0  0  0  0  0  0  0  0  0
   -2.4000   -0.1757    2.4655 C   0  0  0  0  0  0  0  0  0  0  0  0
   -2.3469   -0.2036   -1.1863 N   0  0  0  0  0  0  0  0  0  0  0  0
   -3.7414   -0.2047   -1.3160 C   0  0  0  0  0  0  0  0  0  0  0  0
   -4.3917   -0.8924   -2.2752 C   0  0  0  0  0  0  0  0  0  0  0  0
   -5.8292   -0.9373   -2.3627 C   0  0  0  0  0  0  0  0  0  0  0  0
   -6.5577   -1.8466   -3.6288 Cl  0  0  0  0  0  0  0  0  0  0  0  0
   -6.5751   -0.3078   -1.4513 C   0  0  0  0  0  0  0  0  0  0  0  0
   -5.9912    0.4320   -0.4404 N   0  0  0  0  0  0  0  0  0  0  0  0
   -6.8613    1.1604    0.4712 C   0  0  0  0  0  0  0  0  0  0  0  0
   -4.6074    0.6109   -0.3513 C   0  0  0  0  0  0  0  0  0  0  0  0
   -4.1020    1.4115    0.4359 O   0  0  0  0  0  0  0  0  0  0  0  0
   -1.4335   -0.5908   -2.2126 C   0  0  0  0  0  0  0  0  0  0  0  0
   -1.6645   -0.9950   -3.3411 O   0  0  0  0  0  0  0  0  0  0  0  0
    4.0686    1.1244   -1.1355 C   0  0  0  0  0  0  0  0  0  0  0  0
    3.3828    2.3092   -1.3413 O   0  0  0  0  0  0  0  0  0  0  0  0
    4.2295    3.3995   -1.6953 C   0  0  0  0  0  0  0  0  0  0  0  0
    5.4167    1.1547   -1.1069 N   0  0  0  0  0  0  0  0  0  0  0  0
    7.7438   -1.7132    0.1714 H   0  0  0  0  0  0  0  0  0  0  0  0
    7.7829   -1.8702   -1.6285 H   0  0  0  0  0  0  0  0  0  0  0  0
    9.1014   -1.0730   -0.7614 H   0  0  0  0  0  0  0  0  0  0  0  0
    3.5804   -2.1456   -0.7021 H   0  0  0  0  0  0  0  0  0  0  0  0
    0.3948    0.6657    2.0007 H   0  0  0  0  0  0  0  0  0  0  0  0
    1.1339    2.8236    0.9472 H   0  0  0  0  0  0  0  0  0  0  0  0
    1.7692    2.5162    2.5679 H   0  0  0  0  0  0  0  0  0  0  0  0
    2.8197    2.3061    1.1698 H   0  0  0  0  0  0  0  0  0  0  0  0
    3.3319   -0.1056    1.8503 H   0  0  0  0  0  0  0  0  0  0  0  0
    2.2847   -0.0140    3.2617 H   0  0  0  0  0  0  0  0  0  0  0  0
    2.0121   -1.2750    2.0494 H   0  0  0  0  0  0  0  0  0  0  0  0
   -1.8380    1.2609    0.2887 H   0  0  0  0  0  0  0  0  0  0  0  0
   -1.4408   -2.5744    0.2355 H   0  0  0  0  0  0  0  0  0  0  0  0
   -1.9497   -4.0157    2.1580 H   0  0  0  0  0  0  0  0  0  0  0  0
   -3.0614   -0.5641    4.4791 H   0  0  0  0  0  0  0  0  0  0  0  0
   -2.5488    0.8997    2.5665 H   0  0  0  0  0  0  0  0  0  0  0  0
   -3.8643   -1.5017   -3.0009 H   0  0  0  0  0  0  0  0  0  0  0  0
   -7.6610   -0.3387   -1.4799 H   0  0  0  0  0  0  0  0  0  0  0  0
   -6.3119    1.5199    1.3463 H   0  0  0  0  0  0  0  0  0  0  0  0
   -7.6674    0.5017    0.8150 H   0  0  0  0  0  0  0  0  0  0  0  0
   -7.2870    2.0187   -0.0599 H   0  0  0  0  0  0  0  0  0  0  0  0
    4.8008    3.1848   -2.6045 H   0  0  0  0  0  0  0  0  0  0  0  0
    4.8930    3.6690   -0.8665 H   0  0  0  0  0  0  0  0  0  0  0  0
    3.5918    4.2621   -1.9025 H   0  0  0  0  0  0  0  0  0  0  0  0
  1  2  1  0
  2  3  1  0
  3  4  2  0
  4  5  1  0
  5  6  2  0
  6  7  1  0
  7  8  2  0
  8  9  1  0
  9 10  2  0
 10 11  1  0
 11 12  1  0
 12 13  1  0
 12 14  1  0
 10 15  1  0
 15 16  1  0
 16 17  2  0
 17 18  1  0
 18 19  2  0
 19 20  1  0
 19 21  1  0
 21 22  2  0
 15 23  1  0
 23 24  1  0
 24 25  2  0
 25 26  1  0
 26 27  1  0
 26 28  2  0
 28 29  1  0
 29 30  1  0
 29 31  1  0
 31 32  2  0
 23 33  1  0
 33 34  2  0
  6 35  1  0
 35 36  1  0
 36 37  1  0
 35 38  2  0
 38  3  1  0
 11  7  1  0
 22 16  1  0
 31 24  1  0
 33  9  1  0
  1 39  1  0
  1 40  1  0
  1 41  1  0
  5 42  1  0
 12 43  1  0
 13 44  1  0
 13 45  1  0
 13 46  1  0
 14 47  1  0
 14 48  1  0
 14 49  1  0
 15 50  1  1
 17 51  1  0
 18 52  1  0
 21 53  1  0
 22 54  1  0
 25 55  1  0
 28 56  1  0
 30 57  1  0
 30 58  1  0
 30 59  1  0
 37 60  1  0
 37 61  1  0
 37 62  1  0
M  END
$$$$
