
     RDKit          3D

 50 53  0  0  0  0  0  0  0  0999 V2000
   -4.7743    4.5296   -1.0668 C   0  0  0  0  0  0  0  0  0  0  0  0
   -3.3731    4.3462   -0.5412 C   0  0  0  0  0  0  0  0  0  0  0  0
   -2.6318    5.3093   -0.3563 O   0  0  0  0  0  0  0  0  0  0  0  0
   -2.9819    3.0524   -0.2692 N   0  0  0  0  0  0  0  0  0  0  0  0
   -3.7823    1.8496   -0.4439 C   0  0  0  0  0  0  0  0  0  0  0  0
   -3.0020    0.7676    0.2962 C   0  0  0  0  0  0  0  0  0  0  0  0
   -3.3085   -0.6143   -0.1281 C   0  0  0  0  0  0  0  0  0  0  0  0
   -2.7769   -1.7370    0.2948 N   0  0  0  0  0  0  0  0  0  0  0  0
   -3.4412   -2.6728   -0.4563 C   0  0  0  0  0  0  0  0  0  0  0  0
   -3.1814   -4.1198   -0.3425 C   0  0  0  0  0  0  0  0  0  0  0  0
   -4.3509   -2.1724   -1.3001 N   0  0  0  0  0  0  0  0  0  0  0  0
   -4.2704   -0.7996   -1.0786 O   0  0  0  0  0  0  0  0  0  0  0  0
   -1.5617    1.2390    0.0781 C   0  0  0  0  0  0  0  0  0  0  0  0
   -1.6315    2.7680    0.1911 C   0  0  0  0  0  0  0  0  0  0  0  0
   -0.4271    0.5840    0.8995 C   0  0  0  0  0  0  0  0  0  0  0  0
    0.3582    0.6109   -0.3247 N   0  0  0  0  0  0  0  0  0  0  0  0
    1.5365   -0.0182   -0.6633 C   0  0  0  0  0  0  0  0  0  0  0  0
    1.8149   -0.2426   -1.8369 O   0  0  0  0  0  0  0  0  0  0  0  0
    2.3172   -0.3280    0.4250 N   0  0  0  0  0  0  0  0  0  0  0  0
    3.5975   -0.9259    0.4533 C   0  0  0  0  0  0  0  0  0  0  0  0
    4.3054   -1.2769   -0.6970 C   0  0  0  0  0  0  0  0  0  0  0  0
    5.5797   -1.8497   -0.6032 C   0  0  0  0  0  0  0  0  0  0  0  0
    6.1748   -2.0763    0.6422 C   0  0  0  0  0  0  0  0  0  0  0  0
    7.5270   -2.7170    0.7327 C   0  0  0  0  0  0  0  0  0  0  0  0
    5.4645   -1.7454    1.7999 C   0  0  0  0  0  0  0  0  0  0  0  0
    4.1937   -1.1705    1.7045 C   0  0  0  0  0  0  0  0  0  0  0  0
    3.3689   -0.7736    3.1782 Cl  0  0  0  0  0  0  0  0  0  0  0  0
   -0.8022    0.7724   -1.1939 C   0  0  0  0  0  0  0  0  0  0  0  0
   -4.9037    5.5665   -1.3932 H   0  0  0  0  0  0  0  0  0  0  0  0
   -4.9494    3.8773   -1.9280 H   0  0  0  0  0  0  0  0  0  0  0  0
   -5.5017    4.3175   -0.2760 H   0  0  0  0  0  0  0  0  0  0  0  0
   -3.8496    1.6662   -1.5216 H   0  0  0  0  0  0  0  0  0  0  0  0
   -4.7921    1.9869   -0.0475 H   0  0  0  0  0  0  0  0  0  0  0  0
   -3.2348    0.8479    1.3673 H   0  0  0  0  0  0  0  0  0  0  0  0
   -2.8747   -4.5297   -1.3140 H   0  0  0  0  0  0  0  0  0  0  0  0
   -2.3794   -4.3217    0.3804 H   0  0  0  0  0  0  0  0  0  0  0  0
   -4.0819   -4.6448   -0.0060 H   0  0  0  0  0  0  0  0  0  0  0  0
   -0.8909    3.3036   -0.4112 H   0  0  0  0  0  0  0  0  0  0  0  0
   -1.5612    3.1034    1.2315 H   0  0  0  0  0  0  0  0  0  0  0  0
   -0.6078   -0.4323    1.2616 H   0  0  0  0  0  0  0  0  0  0  0  0
   -0.0104    1.1961    1.7040 H   0  0  0  0  0  0  0  0  0  0  0  0
    1.9397   -0.0793    1.3303 H   0  0  0  0  0  0  0  0  0  0  0  0
    3.8986   -1.1135   -1.6903 H   0  0  0  0  0  0  0  0  0  0  0  0
    6.1048   -2.1134   -1.5205 H   0  0  0  0  0  0  0  0  0  0  0  0
    8.1506   -2.4271   -0.1163 H   0  0  0  0  0  0  0  0  0  0  0  0
    7.4257   -3.8043    0.7430 H   0  0  0  0  0  0  0  0  0  0  0  0
    8.0508   -2.4034    1.6408 H   0  0  0  0  0  0  0  0  0  0  0  0
    5.9016   -1.9317    2.7782 H   0  0  0  0  0  0  0  0  0  0  0  0
   -0.6611    1.5217   -1.9778 H   0  0  0  0  0  0  0  0  0  0  0  0
   -1.1144   -0.1746   -1.6446 H   0  0  0  0  0  0  0  0  0  0  0  0
  1  2  1  0
  2  3  2  0
  2  4  1  0
  4  5  1  0
  5  6  1  0
  6  7  1  0
  7  8  2  0
  8  9  1  0
  9 10  1  0
  9 11  2  0
 11 12  1  0
  6 13  1  0
 13 14  1  0
 13 15  1  0
 15 16  1  0
 16 17  1  0
 17 18  2  0
 17 19  1  0
 19 20  1  0
 20 21  2  0
 21 22  1  0
 22 23  2  0
 23 24  1  0
 23 25  1  0
 25 26  2  0
 26 27  1  0
 16 28  1  0
 14  4  1  0
 26 20  1  0
 12  7  1  0
 28 13  1  0
  1 29  1  0
  1 30  1  0
  1 31  1  0
  5 32  1  0
  5 33  1  0
  6 34  1  0
 10 35  1  0
 10 36  1  0
 10 37  1  0
 14 38  1  0
 14 39  1  0
 15 40  1  0
 15 41  1  0
 19 42  1  0
 21 43  1  0
 22 44  1  0
 24 45  1  0
 24 46  1  0
 24 47  1  0
 25 48  1  0
 28 49  1  0
 28 50  1  0
M  END
$$$$
