
     RDKit          3D

 44 46  0  0  0  0  0  0  0  0999 V2000
   -4.2516    2.0270    2.2878 C   0  0  0  0  0  0  0  0  0  0  0  0
   -3.6955    1.0188    1.4527 O   0  0  0  0  0  0  0  0  0  0  0  0
   -4.4826   -0.0700    1.1614 C   0  0  0  0  0  0  0  0  0  0  0  0
   -5.6786   -0.3588    1.8366 C   0  0  0  0  0  0  0  0  0  0  0  0
   -6.4484   -1.4679    1.4821 C   0  0  0  0  0  0  0  0  0  0  0  0
   -6.0339   -2.2996    0.4506 C   0  0  0  0  0  0  0  0  0  0  0  0
   -4.8416   -2.0267   -0.2200 C   0  0  0  0  0  0  0  0  0  0  0  0
   -4.0341   -0.9209    0.1226 C   0  0  0  0  0  0  0  0  0  0  0  0
   -2.7748   -0.7010   -0.6209 C   0  0  0  0  0  0  0  0  0  0  0  0
   -1.5788   -0.3881    0.0014 C   0  0  0  0  0  0  0  0  0  0  0  0
   -0.4584   -0.2165   -0.7941 C   0  0  0  0  0  0  0  0  0  0  0  0
    0.7587    0.1069   -0.1444 N   0  0  0  0  0  0  0  0  0  0  0  0
    2.0672    0.1402   -0.6729 C   0  0  0  0  0  0  0  0  0  0  0  0
    2.4767   -0.6622   -1.7415 C   0  0  0  0  0  0  0  0  0  0  0  0
    3.8004   -0.6492   -2.1880 C   0  0  0  0  0  0  0  0  0  0  0  0
    4.7458    0.1545   -1.5558 C   0  0  0  0  0  0  0  0  0  0  0  0
    4.3779    0.9470   -0.4629 C   0  0  0  0  0  0  0  0  0  0  0  0
    5.3999    1.8084    0.2325 C   0  0  0  0  0  0  0  0  0  0  0  0
    5.9255    1.0558    1.7821 S   0  0  0  0  0  6  0  0  0  0  0  0
    6.4286   -0.4785    1.3387 N   0  0  0  0  0  0  0  0  0  0  0  0
    4.7940    0.8643    2.6614 O   0  0  0  0  0  0  0  0  0  0  0  0
    7.1232    1.7230    2.2429 O   0  0  0  0  0  0  0  0  0  0  0  0
    3.0401    0.9238   -0.0293 C   0  0  0  0  0  0  0  0  0  0  0  0
   -0.5196   -0.3750   -2.1251 N   0  0  0  0  0  0  0  0  0  0  0  0
   -1.7134   -0.6890   -2.6412 C   0  0  0  0  0  0  0  0  0  0  0  0
   -2.8496   -0.8674   -1.9587 N   0  0  0  0  0  0  0  0  0  0  0  0
   -5.2037    2.3951    1.8911 H   0  0  0  0  0  0  0  0  0  0  0  0
   -4.3612    1.6662    3.3154 H   0  0  0  0  0  0  0  0  0  0  0  0
   -3.5518    2.8681    2.3051 H   0  0  0  0  0  0  0  0  0  0  0  0
   -6.0407    0.2625    2.6491 H   0  0  0  0  0  0  0  0  0  0  0  0
   -7.3747   -1.6784    2.0108 H   0  0  0  0  0  0  0  0  0  0  0  0
   -6.6327   -3.1605    0.1652 H   0  0  0  0  0  0  0  0  0  0  0  0
   -4.5304   -2.6902   -1.0263 H   0  0  0  0  0  0  0  0  0  0  0  0
   -1.5160   -0.2946    1.0780 H   0  0  0  0  0  0  0  0  0  0  0  0
    0.5991    0.8533    0.5235 H   0  0  0  0  0  0  0  0  0  0  0  0
    1.7697   -1.3210   -2.2381 H   0  0  0  0  0  0  0  0  0  0  0  0
    4.0904   -1.2765   -3.0269 H   0  0  0  0  0  0  0  0  0  0  0  0
    5.7725    0.1446   -1.9157 H   0  0  0  0  0  0  0  0  0  0  0  0
    6.2940    1.9562   -0.3818 H   0  0  0  0  0  0  0  0  0  0  0  0
    4.9846    2.7931    0.4700 H   0  0  0  0  0  0  0  0  0  0  0  0
    7.3821   -0.6496    1.6595 H   0  0  0  0  0  0  0  0  0  0  0  0
    5.7514   -1.1796    1.6449 H   0  0  0  0  0  0  0  0  0  0  0  0
    2.7537    1.5252    0.8323 H   0  0  0  0  0  0  0  0  0  0  0  0
   -1.7634   -0.8128   -3.7173 H   0  0  0  0  0  0  0  0  0  0  0  0
  1  2  1  0
  2  3  1  0
  3  4  2  0
  4  5  1  0
  5  6  2  0
  6  7  1  0
  7  8  2  0
  8  9  1  0
  9 10  2  0
 10 11  1  0
 11 12  1  0
 12 13  1  0
 13 14  2  0
 14 15  1  0
 15 16  2  0
 16 17  1  0
 17 18  1  0
 18 19  1  0
 19 20  1  0
 19 21  2  0
 19 22  2  0
 17 23  2  0
 11 24  2  0
 24 25  1  0
 25 26  2  0
  8  3  1  0
 26  9  1  0
 23 13  1  0
  1 27  1  0
  1 28  1  0
  1 29  1  0
  4 30  1  0
  5 31  1  0
  6 32  1  0
  7 33  1  0
 10 34  1  0
 12 35  1  0
 14 36  1  0
 15 37  1  0
 16 38  1  0
 18 39  1  0
 18 40  1  0
 20 41  1  0
 20 42  1  0
 23 43  1  0
 25 44  1  0
M  END
$$$$
