
     RDKit          3D

 44 47  0  0  0  0  0  0  0  0999 V2000
    8.6128   -0.8415    0.1482 C   0  0  0  0  0  0  0  0  0  0  0  0
    7.7123   -1.5987   -0.6506 O   0  0  0  0  0  0  0  0  0  0  0  0
    6.3795   -1.3384   -0.4965 C   0  0  0  0  0  0  0  0  0  0  0  0
    5.5369   -2.0859   -1.3198 C   0  0  0  0  0  0  0  0  0  0  0  0
    4.1470   -1.9222   -1.2682 C   0  0  0  0  0  0  0  0  0  0  0  0
    3.5789   -1.0037   -0.3873 C   0  0  0  0  0  0  0  0  0  0  0  0
    2.1931   -0.7713   -0.2625 N   0  0  0  0  0  0  0  0  0  0  0  0
    1.1614   -1.3710   -0.9726 C   0  0  0  0  0  0  0  0  0  0  0  0
    1.3111   -2.2160   -1.8492 O   0  0  0  0  0  0  0  0  0  0  0  0
   -0.1884   -0.9029   -0.5893 C   0  0  0  0  0  0  0  0  0  0  0  0
   -0.5519   -0.0125    0.4049 C   0  0  0  0  0  0  0  0  0  0  0  0
   -1.9318    0.1154    0.3565 N   0  0  0  0  0  0  0  0  0  0  0  0
   -2.6955    0.9375    1.2461 C   0  0  0  0  0  0  0  0  0  0  0  0
   -2.0042    1.3589    2.3518 N   0  0  0  0  0  0  0  0  0  0  0  0
   -2.6704    2.0283    3.3154 C   0  0  0  0  0  0  0  0  0  0  0  0
   -4.0146    2.3212    3.2419 C   0  0  0  0  0  0  0  0  0  0  0  0
   -4.7024    1.9329    2.0974 C   0  0  0  0  0  0  0  0  0  0  0  0
   -4.0465    1.2513    1.0550 C   0  0  0  0  0  0  0  0  0  0  0  0
   -4.8132    1.0212   -0.1514 C   0  0  0  0  0  0  0  0  0  0  0  0
   -6.0055    0.4922   -0.3074 N   0  0  0  0  0  0  0  0  0  0  0  0
   -6.2049    0.6272   -1.6582 C   0  0  0  0  0  0  0  0  0  0  0  0
   -7.4296    0.1588   -2.3333 C   0  0  0  0  0  0  0  0  0  0  0  0
   -5.2083    1.2306   -2.3178 N   0  0  0  0  0  0  0  0  0  0  0  0
   -4.2798    1.5062   -1.3121 O   0  0  0  0  0  0  0  0  0  0  0  0
   -2.3418   -0.7542   -0.6227 C   0  0  0  0  0  0  0  0  0  0  0  0
   -1.3340   -1.3498   -1.2197 N   0  0  0  0  0  0  0  0  0  0  0  0
    4.4273   -0.2557    0.4401 C   0  0  0  0  0  0  0  0  0  0  0  0
    5.8179   -0.4203    0.3873 C   0  0  0  0  0  0  0  0  0  0  0  0
    8.4571   -1.0398    1.2139 H   0  0  0  0  0  0  0  0  0  0  0  0
    9.6297   -1.1572   -0.1032 H   0  0  0  0  0  0  0  0  0  0  0  0
    8.5316    0.2286   -0.0712 H   0  0  0  0  0  0  0  0  0  0  0  0
    5.9618   -2.8087   -2.0130 H   0  0  0  0  0  0  0  0  0  0  0  0
    3.5438   -2.5339   -1.9321 H   0  0  0  0  0  0  0  0  0  0  0  0
    1.9292   -0.0769    0.4193 H   0  0  0  0  0  0  0  0  0  0  0  0
    0.0193    0.5477    1.1309 H   0  0  0  0  0  0  0  0  0  0  0  0
   -2.0758    2.3236    4.1756 H   0  0  0  0  0  0  0  0  0  0  0  0
   -4.5139    2.8556    4.0429 H   0  0  0  0  0  0  0  0  0  0  0  0
   -5.7583    2.1873    2.0049 H   0  0  0  0  0  0  0  0  0  0  0  0
   -7.1853   -0.4040   -3.2397 H   0  0  0  0  0  0  0  0  0  0  0  0
   -8.0604    1.0087   -2.6117 H   0  0  0  0  0  0  0  0  0  0  0  0
   -8.0096   -0.4958   -1.6754 H   0  0  0  0  0  0  0  0  0  0  0  0
   -3.3751   -0.9641   -0.8590 H   0  0  0  0  0  0  0  0  0  0  0  0
    4.0217    0.4689    1.1417 H   0  0  0  0  0  0  0  0  0  0  0  0
    6.4286    0.1827    1.0505 H   0  0  0  0  0  0  0  0  0  0  0  0
  1  2  1  0
  2  3  1  0
  3  4  2  0
  4  5  1  0
  5  6  2  0
  6  7  1  0
  7  8  1  0
  8  9  2  0
  8 10  1  0
 10 11  2  0
 11 12  1  0
 12 13  1  0
 13 14  2  0
 14 15  1  0
 15 16  2  0
 16 17  1  0
 17 18  2  0
 18 19  1  0
 19 20  2  0
 20 21  1  0
 21 22  1  0
 21 23  2  0
 23 24  1  0
 12 25  1  0
 25 26  2  0
  6 27  1  0
 27 28  2  0
 28  3  1  0
 26 10  1  0
 18 13  1  0
 24 19  1  0
  1 29  1  0
  1 30  1  0
  1 31  1  0
  4 32  1  0
  5 33  1  0
  7 34  1  0
 11 35  1  0
 15 36  1  0
 16 37  1  0
 17 38  1  0
 22 39  1  0
 22 40  1  0
 22 41  1  0
 25 42  1  0
 27 43  1  0
 28 44  1  0
M  END
$$$$
