
     RDKit          3D

 40 42  0  0  0  0  0  0  0  0999 V2000
    0.6852    0.0000    0.0000 Cl  0  0  0  0  0  0  0  0  0  0  0  0
   -3.6221   -0.9037    1.8301 C   0  0  0  0  0  0  0  0  0  0  0  0
   -2.7566   -0.3667    0.8059 N   0  0  0  0  0  0  0  0  0  0  0  0
   -1.4933    0.0940    0.9998 C   0  0  0  0  0  0  0  0  0  0  0  0
   -0.9730    0.5281   -0.1983 C   0  0  0  0  0  0  0  0  0  0  0  0
    0.3418    1.0941   -0.4071 C   0  0  0  0  0  0  0  0  0  0  0  0
    0.6505    1.5044   -1.5488 O   0  0  0  0  0  0  0  0  0  0  0  0
    1.3489    1.2103    0.6767 C   0  0  2  0  0  0  0  0  0  0  0  0
    2.6140    1.8635    0.2142 C   0  0  0  0  0  0  0  0  0  0  0  0
    3.4638    0.9726   -0.6514 C   0  0  0  0  0  0  0  0  0  0  0  0
    3.8196   -0.2200    0.1557 C   0  0  0  0  0  0  0  0  0  0  0  0
    4.9106   -0.9972    0.2448 N   0  0  0  0  0  0  0  0  0  0  0  0
    4.6995   -1.9538    1.1461 C   0  0  0  0  0  0  0  0  0  0  0  0
    3.4645   -1.7764    1.6280 N   0  0  0  0  0  0  0  0  0  0  0  0
    2.9073   -0.7145    1.0308 C   0  0  0  0  0  0  0  0  0  0  0  0
    1.5481   -0.1569    1.2585 C   0  0  0  0  0  0  0  0  0  0  0  0
   -1.9691    0.3147   -1.1330 C   0  0  0  0  0  0  0  0  0  0  0  0
   -1.9713    0.5701   -2.4728 C   0  0  0  0  0  0  0  0  0  0  0  0
   -3.0946    0.2695   -3.2144 C   0  0  0  0  0  0  0  0  0  0  0  0
   -4.2012   -0.2868   -2.5851 C   0  0  0  0  0  0  0  0  0  0  0  0
   -4.2074   -0.5483   -1.2313 C   0  0  0  0  0  0  0  0  0  0  0  0
   -3.0775   -0.2429   -0.5015 C   0  0  0  0  0  0  0  0  0  0  0  0
   -0.6852    0.0000    0.0000 H   0  0  0  0  0  0  0  0  0  0  0  0
   -3.5274   -2.0252    1.8974 H   0  0  0  0  0  0  0  0  0  0  0  0
   -3.3748   -0.5013    2.8438 H   0  0  0  0  0  0  0  0  0  0  0  0
   -4.6562   -0.6229    1.5864 H   0  0  0  0  0  0  0  0  0  0  0  0
   -0.9664    0.1226    1.9523 H   0  0  0  0  0  0  0  0  0  0  0  0
    0.9100    1.8540    1.4647 H   0  0  0  0  0  0  0  0  0  0  0  0
    3.2148    2.1385    1.1051 H   0  0  0  0  0  0  0  0  0  0  0  0
    2.3385    2.8062   -0.2972 H   0  0  0  0  0  0  0  0  0  0  0  0
    4.4063    1.5191   -0.8626 H   0  0  0  0  0  0  0  0  0  0  0  0
    3.0079    0.7179   -1.6130 H   0  0  0  0  0  0  0  0  0  0  0  0
    5.3809   -2.7390    1.4506 H   0  0  0  0  0  0  0  0  0  0  0  0
    3.0326   -2.3941    2.3606 H   0  0  0  0  0  0  0  0  0  0  0  0
    1.3700   -0.1650    2.3533 H   0  0  0  0  0  0  0  0  0  0  0  0
    0.8551   -0.9139    0.8187 H   0  0  0  0  0  0  0  0  0  0  0  0
   -1.1232    0.9967   -2.9566 H   0  0  0  0  0  0  0  0  0  0  0  0
   -3.0913    0.4743   -4.2779 H   0  0  0  0  0  0  0  0  0  0  0  0
   -5.0983   -0.5345   -3.1377 H   0  0  0  0  0  0  0  0  0  0  0  0
   -5.0810   -0.9874   -0.7351 H   0  0  0  0  0  0  0  0  0  0  0  0
  2  3  1  0
  3  4  1  0
  4  5  2  0
  5  6  1  0
  6  7  2  0
  6  8  1  0
  8  9  1  0
  9 10  1  0
 10 11  1  0
 11 12  1  0
 12 13  2  0
 13 14  1  0
 14 15  1  0
 15 16  1  0
  5 17  1  0
 17 18  2  0
 18 19  1  0
 19 20  2  0
 20 21  1  0
 21 22  2  0
 22  3  1  0
 16  8  1  0
 22 17  1  0
 15 11  2  0
  1 23  1  0
  2 24  1  0
  2 25  1  0
  2 26  1  0
  4 27  1  0
  8 28  1  1
  9 29  1  0
  9 30  1  0
 10 31  1  0
 10 32  1  0
 13 33  1  0
 14 34  1  0
 16 35  1  0
 16 36  1  0
 18 37  1  0
 19 38  1  0
 20 39  1  0
 21 40  1  0
M  END
$$$$
