
     RDKit          3D

 35 36  0  0  0  0  0  0  0  0999 V2000
    4.4296    2.8674    0.1632 C   0  0  0  0  0  0  0  0  0  0  0  0
    3.9024    1.8032   -0.6236 O   0  0  0  0  0  0  0  0  0  0  0  0
    2.5918    1.4824   -0.3376 C   0  0  0  0  0  0  0  0  0  0  0  0
    1.9502    2.2470    0.5754 N   0  0  0  0  0  0  0  0  0  0  0  0
    0.6736    1.9348    0.8275 C   0  0  0  0  0  0  0  0  0  0  0  0
   -0.0156    0.9463    0.2584 N   0  0  0  0  0  0  0  0  0  0  0  0
    0.6712    0.2232   -0.6377 C   0  0  0  0  0  0  0  0  0  0  0  0
   -0.0661   -0.8379   -1.2258 N   0  0  0  0  0  0  0  0  0  0  0  0
   -0.4501   -2.1070   -0.1931 S   0  0  0  0  0  6  0  0  0  0  0  0
    0.5829   -2.2433    0.8131 O   0  0  0  0  0  0  0  0  0  0  0  0
   -0.7920   -3.2254   -1.0496 O   0  0  0  0  0  0  0  0  0  0  0  0
   -1.9563   -1.5693    0.5784 C   0  0  0  0  0  0  0  0  0  0  0  0
   -1.9723   -1.2483    1.9368 C   0  0  0  0  0  0  0  0  0  0  0  0
   -3.1711   -0.8526    2.5357 C   0  0  0  0  0  0  0  0  0  0  0  0
   -4.3459   -0.7445    1.7833 C   0  0  0  0  0  0  0  0  0  0  0  0
   -5.5631   -0.4638    2.4152 N   0  0  0  0  0  0  0  0  0  0  0  0
   -4.3271   -1.1391    0.4411 C   0  0  0  0  0  0  0  0  0  0  0  0
   -3.1347   -1.5336   -0.1712 C   0  0  0  0  0  0  0  0  0  0  0  0
    1.9957    0.4257   -1.0025 C   0  0  0  0  0  0  0  0  0  0  0  0
    2.4923   -0.4215   -1.9514 O   0  0  0  0  0  0  0  0  0  0  0  0
    3.8776   -0.3448   -2.2623 C   0  0  0  0  0  0  0  0  0  0  0  0
    3.8998    3.8051   -0.0333 H   0  0  0  0  0  0  0  0  0  0  0  0
    4.4127    2.6204    1.2295 H   0  0  0  0  0  0  0  0  0  0  0  0
    5.4737    3.0089   -0.1276 H   0  0  0  0  0  0  0  0  0  0  0  0
    0.1523    2.5424    1.5594 H   0  0  0  0  0  0  0  0  0  0  0  0
    0.3436   -1.2054   -2.0840 H   0  0  0  0  0  0  0  0  0  0  0  0
   -1.0665   -1.3093    2.5337 H   0  0  0  0  0  0  0  0  0  0  0  0
   -3.1810   -0.6295    3.5997 H   0  0  0  0  0  0  0  0  0  0  0  0
   -6.2729   -0.1017    1.7885 H   0  0  0  0  0  0  0  0  0  0  0  0
   -5.4696    0.0972    3.2563 H   0  0  0  0  0  0  0  0  0  0  0  0
   -5.2463   -1.1442   -0.1399 H   0  0  0  0  0  0  0  0  0  0  0  0
   -3.1345   -1.8237   -1.2190 H   0  0  0  0  0  0  0  0  0  0  0  0
    4.4971   -0.5125   -1.3742 H   0  0  0  0  0  0  0  0  0  0  0  0
    4.1023   -1.1479   -2.9714 H   0  0  0  0  0  0  0  0  0  0  0  0
    4.1162    0.6012   -2.7588 H   0  0  0  0  0  0  0  0  0  0  0  0
  1  2  1  0
  2  3  1  0
  3  4  2  0
  4  5  1  0
  5  6  2  0
  6  7  1  0
  7  8  1  0
  8  9  1  0
  9 10  2  0
  9 11  2  0
  9 12  1  0
 12 13  2  0
 13 14  1  0
 14 15  2  0
 15 16  1  0
 15 17  1  0
 17 18  2  0
  7 19  2  0
 19 20  1  0
 20 21  1  0
 19  3  1  0
 18 12  1  0
  1 22  1  0
  1 23  1  0
  1 24  1  0
  5 25  1  0
  8 26  1  0
 13 27  1  0
 14 28  1  0
 16 29  1  0
 16 30  1  0
 17 31  1  0
 18 32  1  0
 21 33  1  0
 21 34  1  0
 21 35  1  0
M  END
$$$$
