
     RDKit          3D

 58 62  0  0  0  0  0  0  0  0999 V2000
    2.1696    4.8054   -1.3191 C   0  0  0  0  0  0  0  0  0  0  0  0
    2.5728    3.7476   -0.6002 C   0  0  0  0  0  0  0  0  0  0  0  0
    2.0891    3.4263    0.7871 C   0  0  0  0  0  0  0  0  0  0  0  0
    1.2315    2.2450    0.8424 N   0  0  0  0  0  0  0  0  0  0  0  0
    1.4774    1.0610    1.5135 C   0  0  0  0  0  0  0  0  0  0  0  0
    2.7339    0.6498    2.1710 N   0  0  0  0  0  0  0  0  0  0  0  0
    4.0772    0.2683    1.1956 S   0  0  0  0  0  6  0  0  0  0  0  0
    4.4820    1.4502    0.4664 O   0  0  0  0  0  0  0  0  0  0  0  0
    5.0138   -0.4296    2.0504 O   0  0  0  0  0  0  0  0  0  0  0  0
    3.4530   -0.9053    0.0121 C   0  0  0  0  0  0  0  0  0  0  0  0
    3.6331   -2.2734    0.2375 C   0  0  0  0  0  0  0  0  0  0  0  0
    3.2215   -3.1918   -0.7291 C   0  0  0  0  0  0  0  0  0  0  0  0
    2.6297   -2.7438   -1.9112 C   0  0  0  0  0  0  0  0  0  0  0  0
    2.4597   -1.3772   -2.1379 C   0  0  0  0  0  0  0  0  0  0  0  0
    2.8829   -0.4530   -1.1827 C   0  0  0  0  0  0  0  0  0  0  0  0
    0.2795    0.3634    1.5790 C   0  0  0  0  0  0  0  0  0  0  0  0
   -0.0618   -1.0643    2.4579 S   0  0  0  0  0  6  0  0  0  0  0  0
    1.2350   -1.6989    2.6232 O   0  0  0  0  0  0  0  0  0  0  0  0
   -0.8110   -0.6002    3.6084 O   0  0  0  0  0  0  0  0  0  0  0  0
   -1.0827   -2.1075    1.4655 C   0  0  0  0  0  0  0  0  0  0  0  0
   -2.4567   -2.1766    1.7078 C   0  0  0  0  0  0  0  0  0  0  0  0
   -3.2515   -3.0253    0.9346 C   0  0  0  0  0  0  0  0  0  0  0  0
   -2.6764   -3.8250   -0.0622 C   0  0  0  0  0  0  0  0  0  0  0  0
   -3.5339   -4.7164   -0.9123 C   0  0  0  0  0  0  0  0  0  0  0  0
   -1.2957   -3.7502   -0.2898 C   0  0  0  0  0  0  0  0  0  0  0  0
   -0.4973   -2.9022    0.4788 C   0  0  0  0  0  0  0  0  0  0  0  0
   -0.6796    1.0782    0.8411 C   0  0  0  0  0  0  0  0  0  0  0  0
   -1.9811    0.8157    0.5704 N   0  0  0  0  0  0  0  0  0  0  0  0
   -2.6074    1.7557   -0.1549 C   0  0  0  0  0  0  0  0  0  0  0  0
   -3.9382    1.5483   -0.4937 C   0  0  0  0  0  0  0  0  0  0  0  0
   -4.6529    2.4798   -1.2475 C   0  0  0  0  0  0  0  0  0  0  0  0
   -4.0259    3.6439   -1.6694 C   0  0  0  0  0  0  0  0  0  0  0  0
   -2.6900    3.8656   -1.3339 C   0  0  0  0  0  0  0  0  0  0  0  0
   -1.9653    2.9451   -0.5881 C   0  0  0  0  0  0  0  0  0  0  0  0
   -0.6810    3.2183   -0.3082 N   0  0  0  0  0  0  0  0  0  0  0  0
   -0.0722    2.2448    0.3981 C   0  0  0  0  0  0  0  0  0  0  0  0
    2.5756    4.9951   -2.3068 H   0  0  0  0  0  0  0  0  0  0  0  0
    1.4198    5.4951   -0.9444 H   0  0  0  0  0  0  0  0  0  0  0  0
    3.3309    3.0936   -1.0213 H   0  0  0  0  0  0  0  0  0  0  0  0
    2.9368    3.2771    1.4623 H   0  0  0  0  0  0  0  0  0  0  0  0
    1.5032    4.2554    1.2061 H   0  0  0  0  0  0  0  0  0  0  0  0
    2.6386   -0.1017    2.8696 H   0  0  0  0  0  0  0  0  0  0  0  0
    4.1006   -2.6314    1.1524 H   0  0  0  0  0  0  0  0  0  0  0  0
    3.3649   -4.2565   -0.5606 H   0  0  0  0  0  0  0  0  0  0  0  0
    2.3105   -3.4611   -2.6638 H   0  0  0  0  0  0  0  0  0  0  0  0
    2.0131   -1.0318   -3.0678 H   0  0  0  0  0  0  0  0  0  0  0  0
    2.7782    0.6097   -1.3854 H   0  0  0  0  0  0  0  0  0  0  0  0
   -2.9186   -1.5644    2.4802 H   0  0  0  0  0  0  0  0  0  0  0  0
   -4.3235   -3.0608    1.1179 H   0  0  0  0  0  0  0  0  0  0  0  0
   -3.8006   -4.2032   -1.8415 H   0  0  0  0  0  0  0  0  0  0  0  0
   -4.4537   -4.9951   -0.3870 H   0  0  0  0  0  0  0  0  0  0  0  0
   -3.0051   -5.6439   -1.1553 H   0  0  0  0  0  0  0  0  0  0  0  0
   -0.8330   -4.3599   -1.0637 H   0  0  0  0  0  0  0  0  0  0  0  0
    0.5733   -2.8723    0.3051 H   0  0  0  0  0  0  0  0  0  0  0  0
   -4.4306    0.6359   -0.1640 H   0  0  0  0  0  0  0  0  0  0  0  0
   -5.6927    2.2916   -1.5022 H   0  0  0  0  0  0  0  0  0  0  0  0
   -4.5694    4.3788   -2.2575 H   0  0  0  0  0  0  0  0  0  0  0  0
   -2.1994    4.7778   -1.6653 H   0  0  0  0  0  0  0  0  0  0  0  0
  1  2  2  3
  2  3  1  0
  3  4  1  0
  4  5  1  0
  5  6  1  0
  6  7  1  0
  7  8  2  0
  7  9  2  0
  7 10  1  0
 10 11  2  0
 11 12  1  0
 12 13  2  0
 13 14  1  0
 14 15  2  0
  5 16  2  0
 16 17  1  0
 17 18  2  0
 17 19  2  0
 17 20  1  0
 20 21  2  0
 21 22  1  0
 22 23  2  0
 23 24  1  0
 23 25  1  0
 25 26  2  0
 16 27  1  0
 27 28  2  0
 28 29  1  0
 29 30  2  0
 30 31  1  0
 31 32  2  0
 32 33  1  0
 33 34  2  0
 34 35  1  0
 35 36  2  0
 36  4  1  0
 15 10  1  0
 26 20  1  0
 36 27  1  0
 34 29  1  0
  1 37  1  0
  1 38  1  0
  2 39  1  0
  3 40  1  0
  3 41  1  0
  6 42  1  0
 11 43  1  0
 12 44  1  0
 13 45  1  0
 14 46  1  0
 15 47  1  0
 21 48  1  0
 22 49  1  0
 24 50  1  0
 24 51  1  0
 24 52  1  0
 25 53  1  0
 26 54  1  0
 30 55  1  0
 31 56  1  0
 32 57  1  0
 33 58  1  0
M  END
$$$$
