
     RDKit          3D

 59 62  0  0  0  0  0  0  0  0999 V2000
    1.2777    4.9424    2.9846 C   0  0  0  0  0  0  0  0  0  0  0  0
    0.6247    4.1943    2.0858 C   0  0  0  0  0  0  0  0  0  0  0  0
    1.3095    3.0632    1.3959 C   0  0  0  0  0  0  0  0  0  0  0  0
    2.4784    2.7881    1.6341 O   0  0  0  0  0  0  0  0  0  0  0  0
    0.4776    2.4327    0.4989 N   0  0  0  0  0  0  0  0  0  0  0  0
    0.7713    1.3235   -0.3266 C   0  0  0  0  0  0  0  0  0  0  0  0
    1.9770    0.6256   -0.2808 C   0  0  0  0  0  0  0  0  0  0  0  0
    2.2245   -0.4683   -1.1485 C   0  0  0  0  0  0  0  0  0  0  0  0
    3.4163   -1.2233   -1.1851 C   0  0  0  0  0  0  0  0  0  0  0  0
    4.4778   -0.8738   -0.3071 N   0  0  0  0  0  0  0  0  0  0  0  0
    5.6506   -1.5950    0.0060 C   0  0  0  0  0  0  0  0  0  0  0  0
    5.7200   -2.9945   -0.0491 C   0  0  0  0  0  0  0  0  0  0  0  0
    6.8813   -3.6770    0.3264 C   0  0  0  0  0  0  0  0  0  0  0  0
    7.9799   -2.9630    0.7859 C   0  0  0  0  0  0  0  0  0  0  0  0
    9.0844   -3.6346    1.1431 F   0  0  0  0  0  0  0  0  0  0  0  0
    7.9241   -1.5770    0.8840 C   0  0  0  0  0  0  0  0  0  0  0  0
    9.2737   -0.6835    1.4731 Cl  0  0  0  0  0  0  0  0  0  0  0  0
    6.7623   -0.8971    0.5080 C   0  0  0  0  0  0  0  0  0  0  0  0
    3.5686   -2.2650   -2.0227 N   0  0  0  0  0  0  0  0  0  0  0  0
    2.5458   -2.5439   -2.8337 C   0  0  0  0  0  0  0  0  0  0  0  0
    1.3818   -1.8891   -2.8904 N   0  0  0  0  0  0  0  0  0  0  0  0
    1.2284   -0.8642   -2.0494 C   0  0  0  0  0  0  0  0  0  0  0  0
    0.0241   -0.1704   -2.0758 C   0  0  0  0  0  0  0  0  0  0  0  0
   -0.2221    0.9161   -1.2328 C   0  0  0  0  0  0  0  0  0  0  0  0
   -1.3831    1.6512   -1.1970 O   0  0  0  0  0  0  0  0  0  0  0  0
   -2.4404    1.3310   -2.1025 C   0  0  0  0  0  0  0  0  0  0  0  0
   -3.3414    0.2147   -1.5717 C   0  0  0  0  0  0  0  0  0  0  0  0
   -3.9348    0.5640   -0.1998 C   0  0  0  0  0  0  0  0  0  0  0  0
   -4.8147   -0.5026    0.2957 N   0  0  0  0  0  0  0  0  0  0  0  0
   -6.1369   -0.5368   -0.3676 C   0  0  0  0  0  0  0  0  0  0  0  0
   -7.2746    0.0463    0.4877 C   0  0  0  0  0  0  0  0  0  0  0  0
   -7.4360   -0.6175    1.7473 O   0  0  0  0  0  0  0  0  0  0  0  0
   -6.2135   -1.1750    2.2494 C   0  0  0  0  0  0  0  0  0  0  0  0
   -4.9731   -0.4115    1.7642 C   0  0  0  0  0  0  0  0  0  0  0  0
    2.3178    4.7507    3.2360 H   0  0  0  0  0  0  0  0  0  0  0  0
    0.7840    5.7648    3.4908 H   0  0  0  0  0  0  0  0  0  0  0  0
   -0.4117    4.4005    1.8516 H   0  0  0  0  0  0  0  0  0  0  0  0
   -0.4569    2.8013    0.3575 H   0  0  0  0  0  0  0  0  0  0  0  0
    2.7387    0.9030    0.4401 H   0  0  0  0  0  0  0  0  0  0  0  0
    4.6487    0.1258   -0.3657 H   0  0  0  0  0  0  0  0  0  0  0  0
    4.8631   -3.5769   -0.3783 H   0  0  0  0  0  0  0  0  0  0  0  0
    6.9270   -4.7598    0.2693 H   0  0  0  0  0  0  0  0  0  0  0  0
    6.7280    0.1851    0.6065 H   0  0  0  0  0  0  0  0  0  0  0  0
    2.6720   -3.3811   -3.5117 H   0  0  0  0  0  0  0  0  0  0  0  0
   -0.7209   -0.5199   -2.7831 H   0  0  0  0  0  0  0  0  0  0  0  0
   -2.0668    1.1150   -3.1097 H   0  0  0  0  0  0  0  0  0  0  0  0
   -3.0401    2.2435   -2.2058 H   0  0  0  0  0  0  0  0  0  0  0  0
   -2.7700   -0.7159   -1.4778 H   0  0  0  0  0  0  0  0  0  0  0  0
   -4.1317    0.0342   -2.3082 H   0  0  0  0  0  0  0  0  0  0  0  0
   -3.0991    0.6920    0.5003 H   0  0  0  0  0  0  0  0  0  0  0  0
   -4.4672    1.5228   -0.2385 H   0  0  0  0  0  0  0  0  0  0  0  0
   -6.3633   -1.5923   -0.5639 H   0  0  0  0  0  0  0  0  0  0  0  0
   -6.1248   -0.0372   -1.3420 H   0  0  0  0  0  0  0  0  0  0  0  0
   -8.2257   -0.0357   -0.0483 H   0  0  0  0  0  0  0  0  0  0  0  0
   -7.1038    1.1116    0.6825 H   0  0  0  0  0  0  0  0  0  0  0  0
   -6.1676   -2.2287    1.9497 H   0  0  0  0  0  0  0  0  0  0  0  0
   -6.2678   -1.1500    3.3425 H   0  0  0  0  0  0  0  0  0  0  0  0
   -5.0727    0.6382    2.0713 H   0  0  0  0  0  0  0  0  0  0  0  0
   -4.0785   -0.8214    2.2460 H   0  0  0  0  0  0  0  0  0  0  0  0
  1  2  2  3
  2  3  1  0
  3  4  2  0
  3  5  1  0
  5  6  1  0
  6  7  2  0
  7  8  1  0
  8  9  2  0
  9 10  1  0
 10 11  1  0
 11 12  2  0
 12 13  1  0
 13 14  2  0
 14 15  1  0
 14 16  1  0
 16 17  1  0
 16 18  2  0
  9 19  1  0
 19 20  2  0
 20 21  1  0
 21 22  2  0
 22 23  1  0
 23 24  2  0
 24 25  1  0
 25 26  1  0
 26 27  1  0
 27 28  1  0
 28 29  1  0
 29 30  1  0
 30 31  1  0
 31 32  1  0
 32 33  1  0
 33 34  1  0
 24  6  1  0
 34 29  1  0
 22  8  1  0
 18 11  1  0
  1 35  1  0
  1 36  1  0
  2 37  1  0
  5 38  1  0
  7 39  1  0
 10 40  1  0
 12 41  1  0
 13 42  1  0
 18 43  1  0
 20 44  1  0
 23 45  1  0
 26 46  1  0
 26 47  1  0
 27 48  1  0
 27 49  1  0
 28 50  1  0
 28 51  1  0
 30 52  1  0
 30 53  1  0
 31 54  1  0
 31 55  1  0
 33 56  1  0
 33 57  1  0
 34 58  1  0
 34 59  1  0
M  END
$$$$
