
     RDKit          3D

 44 45  0  0  0  0  0  0  0  0999 V2000
    2.3804   -1.1344   -2.7182 C   0  0  0  0  0  0  0  0  0  0  0  0
    1.6914   -0.3467   -1.7247 N   0  0  0  0  0  0  0  0  0  0  0  0
    2.2604    0.6303   -0.9353 C   0  0  0  0  0  0  0  0  0  0  0  0
    3.7000    1.0286   -0.9834 C   0  0  0  0  0  0  0  0  0  0  0  0
    4.5605    0.2337   -0.0007 C   0  0  0  0  0  0  0  0  0  0  0  0
    4.2189    0.5211    1.4599 C   0  0  0  0  0  0  0  0  0  0  0  0
    5.2113   -0.1326    2.3761 C   0  0  0  0  0  0  0  0  0  0  0  0
    6.0643    0.4326    3.0393 O   0  0  0  0  0  0  0  0  0  0  0  0
    5.0928   -1.4735    2.4087 O   0  0  0  0  0  0  0  0  0  0  0  0
    1.3615    1.1631   -0.1326 N   0  0  0  0  0  0  0  0  0  0  0  0
    0.1824    0.5196   -0.4082 C   0  0  0  0  0  0  0  0  0  0  0  0
   -1.0856    0.7041    0.1623 C   0  0  0  0  0  0  0  0  0  0  0  0
   -2.1672   -0.0695   -0.2879 C   0  0  0  0  0  0  0  0  0  0  0  0
   -3.4335    0.1518    0.3096 N   0  0  0  0  0  0  0  0  0  0  0  0
   -3.8786   -1.0447    1.0664 C   0  0  0  0  0  0  0  0  0  0  0  0
   -4.6894   -0.6298    2.2953 C   0  0  0  0  0  0  0  0  0  0  0  0
   -5.2581   -2.0630    3.1878 Cl  0  0  0  0  0  0  0  0  0  0  0  0
   -4.4342    0.6732   -0.6571 C   0  0  0  0  0  0  0  0  0  0  0  0
   -4.0987    2.0915   -1.1256 C   0  0  0  0  0  0  0  0  0  0  0  0
   -5.4035    2.7301   -2.1607 Cl  0  0  0  0  0  0  0  0  0  0  0  0
   -1.9582   -1.0234   -1.2955 C   0  0  0  0  0  0  0  0  0  0  0  0
   -0.6983   -1.2245   -1.8768 C   0  0  0  0  0  0  0  0  0  0  0  0
    0.3555   -0.4324   -1.4074 C   0  0  0  0  0  0  0  0  0  0  0  0
    3.2962   -1.5373   -2.2792 H   0  0  0  0  0  0  0  0  0  0  0  0
    2.6132   -0.4866   -3.5671 H   0  0  0  0  0  0  0  0  0  0  0  0
    1.7509   -1.9637   -3.0466 H   0  0  0  0  0  0  0  0  0  0  0  0
    4.0942    0.8979   -1.9977 H   0  0  0  0  0  0  0  0  0  0  0  0
    3.7806    2.0999   -0.7619 H   0  0  0  0  0  0  0  0  0  0  0  0
    5.6136    0.4870   -0.1787 H   0  0  0  0  0  0  0  0  0  0  0  0
    4.4666   -0.8416   -0.1971 H   0  0  0  0  0  0  0  0  0  0  0  0
    3.2183    0.1651    1.7276 H   0  0  0  0  0  0  0  0  0  0  0  0
    4.2404    1.5993    1.6563 H   0  0  0  0  0  0  0  0  0  0  0  0
    5.7770   -1.7537    3.0521 H   0  0  0  0  0  0  0  0  0  0  0  0
   -1.2177    1.4444    0.9433 H   0  0  0  0  0  0  0  0  0  0  0  0
   -4.4703   -1.7038    0.4175 H   0  0  0  0  0  0  0  0  0  0  0  0
   -3.0139   -1.6262    1.4165 H   0  0  0  0  0  0  0  0  0  0  0  0
   -4.0826   -0.0265    2.9778 H   0  0  0  0  0  0  0  0  0  0  0  0
   -5.5716   -0.0455    2.0193 H   0  0  0  0  0  0  0  0  0  0  0  0
   -4.5463   -0.0022   -1.5151 H   0  0  0  0  0  0  0  0  0  0  0  0
   -5.4119    0.7018   -0.1605 H   0  0  0  0  0  0  0  0  0  0  0  0
   -3.9855    2.7701   -0.2744 H   0  0  0  0  0  0  0  0  0  0  0  0
   -3.1766    2.1186   -1.7132 H   0  0  0  0  0  0  0  0  0  0  0  0
   -2.7872   -1.6353   -1.6438 H   0  0  0  0  0  0  0  0  0  0  0  0
   -0.5614   -1.9670   -2.6549 H   0  0  0  0  0  0  0  0  0  0  0  0
  1  2  1  0
  2  3  1  0
  3  4  1  0
  4  5  1  0
  5  6  1  0
  6  7  1  0
  7  8  2  0
  7  9  1  0
  3 10  2  0
 10 11  1  0
 11 12  2  0
 12 13  1  0
 13 14  1  0
 14 15  1  0
 15 16  1  0
 16 17  1  0
 14 18  1  0
 18 19  1  0
 19 20  1  0
 13 21  2  0
 21 22  1  0
 22 23  2  0
 23  2  1  0
 23 11  1  0
  1 24  1  0
  1 25  1  0
  1 26  1  0
  4 27  1  0
  4 28  1  0
  5 29  1  0
  5 30  1  0
  6 31  1  0
  6 32  1  0
  9 33  1  0
 12 34  1  0
 15 35  1  0
 15 36  1  0
 16 37  1  0
 16 38  1  0
 18 39  1  0
 18 40  1  0
 19 41  1  0
 19 42  1  0
 21 43  1  0
 22 44  1  0
M  END
$$$$
