
     RDKit          3D

 11 10  0  0  0  0  0  0  0  0999 V2000
   -2.0480    0.2233   -0.3118 C   0  0  0  0  0  0  0  0  0  0  0  0
   -1.0023   -0.4802    0.1423 C   0  0  0  0  0  0  0  0  0  0  0  0
    0.3624    0.0863    0.3923 C   0  0  0  0  0  0  0  0  0  0  0  0
    1.3138   -0.6306   -0.4612 N   0  0  0  0  0  0  0  0  0  0  0  0
    2.4095   -0.2147   -0.4084 C   0  0  0  0  0  0  0  0  0  0  0  0
    4.0892    0.4219   -0.3249 S   0  0  0  0  0  0  0  0  0  0  0  0
   -1.9717    1.2818   -0.5396 H   0  0  0  0  0  0  0  0  0  0  0  0
   -3.0090   -0.2557   -0.4735 H   0  0  0  0  0  0  0  0  0  0  0  0
   -1.1311   -1.5404    0.3500 H   0  0  0  0  0  0  0  0  0  0  0  0
    0.3771    1.1645    0.1825 H   0  0  0  0  0  0  0  0  0  0  0  0
    0.6100   -0.0562    1.4523 H   0  0  0  0  0  0  0  0  0  0  0  0
  1  2  2  3
  2  3  1  0
  3  4  1  0
  4  5  2  0
  5  6  2  0
  1  7  1  0
  1  8  1  0
  2  9  1  0
  3 10  1  0
  3 11  1  0
M  END
$$$$
