
     RDKit          3D

 53 56  0  0  0  0  0  0  0  0999 V2000
   -0.6930   -0.1777    0.7220 O   0  0  0  0  0  0  0  0  0  0  0  0
   -0.3669    0.9680    1.0037 C   0  0  0  0  0  0  0  0  0  0  0  0
   -1.3583    1.9912    1.5393 C   0  0  0  0  0  0  0  0  0  0  0  0
   -2.8115    1.5482    1.5217 C   0  0  2  0  0  0  0  0  0  0  0  0
   -3.1446    0.4774    2.4221 N   0  0  0  0  0  0  0  0  0  0  0  0
   -3.8089   -0.5412    1.7681 C   0  0  0  0  0  0  0  0  0  0  0  0
   -4.2905   -1.5059    2.3393 O   0  0  0  0  0  0  0  0  0  0  0  0
   -3.8448   -0.2524    0.4375 N   0  0  0  0  0  0  0  0  0  0  0  0
   -4.4365   -1.1016   -0.5656 C   0  0  0  0  0  0  0  0  0  0  0  0
   -5.8891   -0.7572   -0.7994 C   0  0  0  0  0  0  0  0  0  0  0  0
   -6.8939   -1.3462   -0.0187 C   0  0  0  0  0  0  0  0  0  0  0  0
   -8.2339   -1.0136   -0.2217 C   0  0  0  0  0  0  0  0  0  0  0  0
   -8.5819   -0.0837   -1.1998 C   0  0  0  0  0  0  0  0  0  0  0  0
   -7.5906    0.5180   -1.9731 C   0  0  0  0  0  0  0  0  0  0  0  0
   -6.2499    0.1865   -1.7720 C   0  0  0  0  0  0  0  0  0  0  0  0
   -3.2603    0.9566    0.1879 C   0  0  0  0  0  0  0  0  0  0  0  0
   -3.1343    1.5163   -0.8936 O   0  0  0  0  0  0  0  0  0  0  0  0
    0.9088    1.5048    0.9074 N   0  0  0  0  0  0  0  0  0  0  0  0
    2.0862    0.8501    0.4889 C   0  0  0  0  0  0  0  0  0  0  0  0
    2.1554   -0.5059    0.1647 C   0  0  0  0  0  0  0  0  0  0  0  0
    3.3687   -1.0791   -0.2342 C   0  0  0  0  0  0  0  0  0  0  0  0
    4.5173   -0.2978   -0.3327 C   0  0  0  0  0  0  0  0  0  0  0  0
    5.7379   -0.9384   -0.7090 N   0  0  0  0  0  0  0  0  0  0  0  0
    6.5157   -0.3997   -1.8530 C   0  0  0  0  0  0  0  0  0  0  0  0
    7.9782   -0.3019   -1.4146 C   0  0  0  0  0  0  0  0  0  0  0  0
    8.2163   -1.4418   -0.4383 C   0  0  0  0  0  0  0  0  0  0  0  0
    6.7622   -1.4131    0.5859 S   0  0  0  0  0  6  0  0  0  0  0  0
    6.9048   -0.3158    1.5196 O   0  0  0  0  0  0  0  0  0  0  0  0
    6.4186   -2.7532    1.0002 O   0  0  0  0  0  0  0  0  0  0  0  0
    4.4647    1.0520    0.0104 C   0  0  0  0  0  0  0  0  0  0  0  0
    3.2536    1.6223    0.4156 C   0  0  0  0  0  0  0  0  0  0  0  0
   -1.2614    2.8941    0.9231 H   0  0  0  0  0  0  0  0  0  0  0  0
   -1.0600    2.2447    2.5636 H   0  0  0  0  0  0  0  0  0  0  0  0
   -3.4714    2.3878    1.7670 H   0  0  0  0  0  0  0  0  0  0  0  0
   -3.1268    0.5003    3.4331 H   0  0  0  0  0  0  0  0  0  0  0  0
   -4.3509   -2.1489   -0.2523 H   0  0  0  0  0  0  0  0  0  0  0  0
   -3.8757   -0.9956   -1.5020 H   0  0  0  0  0  0  0  0  0  0  0  0
   -6.6347   -2.0657    0.7569 H   0  0  0  0  0  0  0  0  0  0  0  0
   -9.0051   -1.4790    0.3862 H   0  0  0  0  0  0  0  0  0  0  0  0
   -9.6257    0.1747   -1.3569 H   0  0  0  0  0  0  0  0  0  0  0  0
   -7.8605    1.2480   -2.7316 H   0  0  0  0  0  0  0  0  0  0  0  0
   -5.4845    0.6721   -2.3754 H   0  0  0  0  0  0  0  0  0  0  0  0
    1.0126    2.4843    1.1403 H   0  0  0  0  0  0  0  0  0  0  0  0
    1.2879   -1.1557    0.2236 H   0  0  0  0  0  0  0  0  0  0  0  0
    3.4086   -2.1410   -0.4649 H   0  0  0  0  0  0  0  0  0  0  0  0
    6.1546    0.5734   -2.1989 H   0  0  0  0  0  0  0  0  0  0  0  0
    6.4239   -1.1106   -2.6820 H   0  0  0  0  0  0  0  0  0  0  0  0
    8.1376    0.6569   -0.9054 H   0  0  0  0  0  0  0  0  0  0  0  0
    8.6624   -0.3402   -2.2673 H   0  0  0  0  0  0  0  0  0  0  0  0
    8.2588   -2.4090   -0.9469 H   0  0  0  0  0  0  0  0  0  0  0  0
    9.1054   -1.2957    0.1780 H   0  0  0  0  0  0  0  0  0  0  0  0
    5.3619    1.6636   -0.0104 H   0  0  0  0  0  0  0  0  0  0  0  0
    3.2435    2.6762    0.6808 H   0  0  0  0  0  0  0  0  0  0  0  0
  1  2  2  0
  2  3  1  0
  3  4  1  0
  4  5  1  0
  5  6  1  0
  6  7  2  0
  6  8  1  0
  8  9  1  0
  9 10  1  0
 10 11  2  0
 11 12  1  0
 12 13  2  0
 13 14  1  0
 14 15  2  0
  8 16  1  0
 16 17  2  0
  2 18  1  0
 18 19  1  0
 19 20  2  0
 20 21  1  0
 21 22  2  0
 22 23  1  0
 23 24  1  0
 24 25  1  0
 25 26  1  0
 26 27  1  0
 27 28  2  0
 27 29  2  0
 22 30  1  0
 30 31  2  0
 16  4  1  0
 31 19  1  0
 15 10  1  0
 27 23  1  0
  3 32  1  0
  3 33  1  0
  4 34  1  1
  5 35  1  0
  9 36  1  0
  9 37  1  0
 11 38  1  0
 12 39  1  0
 13 40  1  0
 14 41  1  0
 15 42  1  0
 18 43  1  0
 20 44  1  0
 21 45  1  0
 24 46  1  0
 24 47  1  0
 25 48  1  0
 25 49  1  0
 26 50  1  0
 26 51  1  0
 30 52  1  0
 31 53  1  0
M  END
$$$$
