
     RDKit          3D

 72 76  0  0  0  0  0  0  0  0999 V2000
    5.8051    2.5311   -0.6668 O   0  0  0  0  0  0  0  0  0  0  0  0
    6.2729    1.4001   -0.6482 C   0  0  0  0  0  0  0  0  0  0  0  0
    5.8558    0.3928   -1.4974 N   0  0  0  0  0  0  0  0  0  0  0  0
    4.9799    0.7273   -2.6104 C   0  0  0  0  0  0  0  0  0  0  0  0
    3.5084    1.0697   -2.3131 C   0  0  0  0  0  0  0  0  0  0  0  0
    2.8998    1.8388   -3.0663 O   0  0  0  0  0  0  0  0  0  0  0  0
    2.8381    0.3868   -1.3224 N   0  0  0  0  0  0  0  0  0  0  0  0
    3.3224   -0.7055   -0.4973 C   0  0  0  0  0  0  0  0  0  0  0  0
    2.0614   -1.3485    0.0698 C   0  0  0  0  0  0  0  0  0  0  0  0
    1.1146   -0.1510    0.2167 C   0  0  2  0  0  0  0  0  0  0  0  0
   -0.2722   -0.5168    0.5054 N   0  0  0  0  0  0  0  0  0  0  0  0
   -1.0495   -1.0728   -0.6058 C   0  0  1  0  0  0  0  0  0  0  0  0
   -1.7977   -2.3572   -0.1836 C   0  0  0  0  0  0  0  0  0  0  0  0
   -3.2447   -2.0895    0.2293 C   0  0  0  0  0  0  0  0  0  0  0  0
   -4.0639   -1.4939   -0.9414 C   0  0  1  0  0  0  0  0  0  0  0  0
   -4.5052   -2.5933   -1.7657 O   0  0  0  0  0  0  0  0  0  0  0  0
   -5.2806   -0.7444   -0.3854 C   0  0  0  0  0  0  0  0  0  0  0  0
   -6.5816   -1.1749   -0.6347 C   0  0  0  0  0  0  0  0  0  0  0  0
   -7.6571   -0.4595   -0.1019 C   0  0  0  0  0  0  0  0  0  0  0  0
   -7.4447    0.6823    0.6815 C   0  0  0  0  0  0  0  0  0  0  0  0
   -8.5443    1.4639    1.2605 C   0  0  0  0  0  0  0  0  0  0  0  0
   -9.8076    1.0831    0.9777 N   0  0  0  0  0  0  0  0  0  0  0  0
  -10.7961    1.8212    1.5166 C   0  0  0  0  0  0  0  0  0  0  0  0
  -10.5769    2.9130    2.3205 C   0  0  0  0  0  0  0  0  0  0  0  0
   -9.2585    3.2201    2.5525 C   0  0  0  0  0  0  0  0  0  0  0  0
   -8.2298    2.5189    2.0399 N   0  0  0  0  0  0  0  0  0  0  0  0
   -6.1108    1.0311    0.8731 C   0  0  0  0  0  0  0  0  0  0  0  0
   -5.0414    0.3585    0.3684 N   0  0  0  0  0  0  0  0  0  0  0  0
   -3.2088   -0.5716   -1.8459 C   0  0  0  0  0  0  0  0  0  0  0  0
   -2.0153    0.0225   -1.1009 C   0  0  0  0  0  0  0  0  0  0  0  0
    1.4396    0.6852   -1.0345 C   0  0  0  0  0  0  0  0  0  0  0  0
    7.3728    1.0604    0.2986 C   0  0  0  0  0  0  0  0  0  0  0  0
    8.1675    2.1019    0.7918 C   0  0  0  0  0  0  0  0  0  0  0  0
    9.2085    1.8348    1.6809 C   0  0  0  0  0  0  0  0  0  0  0  0
    9.4592    0.5243    2.0880 C   0  0  0  0  0  0  0  0  0  0  0  0
    8.6698   -0.5336    1.6111 C   0  0  0  0  0  0  0  0  0  0  0  0
    8.9180   -1.9480    2.0766 C   0  0  0  0  0  0  0  0  0  0  0  0
    8.1602   -2.2783    3.1573 F   0  0  0  0  0  0  0  0  0  0  0  0
    8.6263   -2.8723    1.1184 F   0  0  0  0  0  0  0  0  0  0  0  0
   10.2106   -2.1791    2.4347 F   0  0  0  0  0  0  0  0  0  0  0  0
    7.6160   -0.2533    0.7218 C   0  0  0  0  0  0  0  0  0  0  0  0
    6.5010   -0.3674   -1.6570 H   0  0  0  0  0  0  0  0  0  0  0  0
    5.4251    1.5786   -3.1386 H   0  0  0  0  0  0  0  0  0  0  0  0
    4.9801   -0.1347   -3.2864 H   0  0  0  0  0  0  0  0  0  0  0  0
    3.9198   -1.4119   -1.0799 H   0  0  0  0  0  0  0  0  0  0  0  0
    3.9319   -0.2805    0.3072 H   0  0  0  0  0  0  0  0  0  0  0  0
    1.6687   -2.0818   -0.6448 H   0  0  0  0  0  0  0  0  0  0  0  0
    2.2499   -1.8630    1.0171 H   0  0  0  0  0  0  0  0  0  0  0  0
    1.4623    0.4264    1.0853 H   0  0  0  0  0  0  0  0  0  0  0  0
   -0.3018   -1.1259    1.3209 H   0  0  0  0  0  0  0  0  0  0  0  0
   -0.3934   -1.3714   -1.4319 H   0  0  0  0  0  0  0  0  0  0  0  0
   -1.2687   -2.8806    0.6227 H   0  0  0  0  0  0  0  0  0  0  0  0
   -1.7907   -3.0588   -1.0281 H   0  0  0  0  0  0  0  0  0  0  0  0
   -3.2332   -1.4197    1.0981 H   0  0  0  0  0  0  0  0  0  0  0  0
   -3.7002   -3.0307    0.5620 H   0  0  0  0  0  0  0  0  0  0  0  0
   -3.7172   -3.0400   -2.1137 H   0  0  0  0  0  0  0  0  0  0  0  0
   -6.7724   -2.0570   -1.2388 H   0  0  0  0  0  0  0  0  0  0  0  0
   -8.6689   -0.8055   -0.3032 H   0  0  0  0  0  0  0  0  0  0  0  0
  -11.8030    1.4959    1.2713 H   0  0  0  0  0  0  0  0  0  0  0  0
  -11.3869    3.4914    2.7416 H   0  0  0  0  0  0  0  0  0  0  0  0
   -8.9787    4.0651    3.1750 H   0  0  0  0  0  0  0  0  0  0  0  0
   -5.8404    1.9026    1.4665 H   0  0  0  0  0  0  0  0  0  0  0  0
   -3.8199    0.2378   -2.2657 H   0  0  0  0  0  0  0  0  0  0  0  0
   -2.8293   -1.1288   -2.7134 H   0  0  0  0  0  0  0  0  0  0  0  0
   -2.3835    0.6248   -0.2604 H   0  0  0  0  0  0  0  0  0  0  0  0
   -1.4827    0.7177   -1.7598 H   0  0  0  0  0  0  0  0  0  0  0  0
    0.8637    0.3931   -1.9171 H   0  0  0  0  0  0  0  0  0  0  0  0
    1.3013    1.7579   -0.8668 H   0  0  0  0  0  0  0  0  0  0  0  0
    7.9748    3.1282    0.4822 H   0  0  0  0  0  0  0  0  0  0  0  0
    9.8199    2.6515    2.0587 H   0  0  0  0  0  0  0  0  0  0  0  0
   10.2730    0.3312    2.7866 H   0  0  0  0  0  0  0  0  0  0  0  0
    6.9791   -1.0686    0.3861 H   0  0  0  0  0  0  0  0  0  0  0  0
  1  2  2  0
  2  3  1  0
  3  4  1  0
  4  5  1  0
  5  6  2  0
  5  7  1  0
  7  8  1  0
  8  9  1  0
  9 10  1  0
 10 11  1  0
 11 12  1  0
 12 13  1  0
 13 14  1  0
 14 15  1  0
 15 16  1  6
 15 17  1  0
 17 18  2  0
 18 19  1  0
 19 20  2  0
 20 21  1  0
 21 22  2  0
 22 23  1  0
 23 24  2  0
 24 25  1  0
 25 26  2  0
 20 27  1  0
 27 28  2  0
 15 29  1  0
 29 30  1  0
 10 31  1  0
  2 32  1  0
 32 33  2  0
 33 34  1  0
 34 35  2  0
 35 36  1  0
 36 37  1  0
 37 38  1  0
 37 39  1  0
 37 40  1  0
 36 41  2  0
 31  7  1  0
 41 32  1  0
 30 12  1  0
 28 17  1  0
 26 21  1  0
  3 42  1  0
  4 43  1  0
  4 44  1  0
  8 45  1  0
  8 46  1  0
  9 47  1  0
  9 48  1  0
 10 49  1  1
 11 50  1  0
 12 51  1  6
 13 52  1  0
 13 53  1  0
 14 54  1  0
 14 55  1  0
 16 56  1  0
 18 57  1  0
 19 58  1  0
 23 59  1  0
 24 60  1  0
 25 61  1  0
 27 62  1  0
 29 63  1  0
 29 64  1  0
 30 65  1  0
 30 66  1  0
 31 67  1  0
 31 68  1  0
 33 69  1  0
 34 70  1  0
 35 71  1  0
 41 72  1  0
M  END
$$$$
