
     RDKit          3D

 38 40  0  0  0  0  0  0  0  0999 V2000
   -6.4395    0.1181    0.7186 C   0  0  0  0  0  0  0  0  0  0  0  0
   -5.1869   -0.5465    0.6216 O   0  0  0  0  0  0  0  0  0  0  0  0
   -4.0782    0.2226    0.3747 C   0  0  0  0  0  0  0  0  0  0  0  0
   -4.1171    1.5797    0.0479 C   0  0  0  0  0  0  0  0  0  0  0  0
   -2.9334    2.2842   -0.1649 C   0  0  0  0  0  0  0  0  0  0  0  0
   -1.7027    1.6383   -0.0443 C   0  0  0  0  0  0  0  0  0  0  0  0
   -1.6234    0.2721    0.2806 C   0  0  0  0  0  0  0  0  0  0  0  0
   -0.2925   -0.3224    0.4010 C   0  0  0  0  0  0  0  0  0  0  0  0
    0.8834    0.2294    0.1781 N   0  0  0  0  0  0  0  0  0  0  0  0
    1.7608   -0.7980    0.4485 C   0  0  0  0  0  0  0  0  0  0  0  0
    3.1800   -0.5799    0.3161 C   0  0  0  0  0  0  0  0  0  0  0  0
    4.1266   -1.6535    0.5985 C   0  0  0  0  0  0  0  0  0  0  0  0
    5.4495   -1.4792    0.4828 C   0  0  0  0  0  0  0  0  0  0  0  0
    6.0026   -0.1681    0.0572 C   0  0  0  0  0  0  0  0  0  0  0  0
    7.2185   -0.0353   -0.0421 O   0  0  0  0  0  0  0  0  0  0  0  0
    5.0608    0.8244   -0.1992 N   0  0  0  0  0  0  0  0  0  0  0  0
    5.5133    2.1408   -0.6202 C   0  0  0  0  0  0  0  0  0  0  0  0
    3.6960    0.6053   -0.0680 C   0  0  0  0  0  0  0  0  0  0  0  0
    1.1635   -1.9410    0.8183 N   0  0  0  0  0  0  0  0  0  0  0  0
   -0.1933   -1.6257    0.7936 O   0  0  0  0  0  0  0  0  0  0  0  0
   -2.8298   -0.4320    0.4610 C   0  0  0  0  0  0  0  0  0  0  0  0
   -2.7977   -1.7651    0.8049 O   0  0  0  0  0  0  0  0  0  0  0  0
   -3.0789   -2.5861   -0.3305 C   0  0  0  0  0  0  0  0  0  0  0  0
   -6.7360    0.5381   -0.2479 H   0  0  0  0  0  0  0  0  0  0  0  0
   -6.4227    0.8877    1.4974 H   0  0  0  0  0  0  0  0  0  0  0  0
   -7.1909   -0.6253    1.0019 H   0  0  0  0  0  0  0  0  0  0  0  0
   -5.0533    2.1200   -0.0474 H   0  0  0  0  0  0  0  0  0  0  0  0
   -2.9677    3.3418   -0.4166 H   0  0  0  0  0  0  0  0  0  0  0  0
   -0.7917    2.2152   -0.2022 H   0  0  0  0  0  0  0  0  0  0  0  0
    3.7367   -2.6182    0.9119 H   0  0  0  0  0  0  0  0  0  0  0  0
    6.1650   -2.2645    0.6888 H   0  0  0  0  0  0  0  0  0  0  0  0
    5.1690    2.8850    0.1051 H   0  0  0  0  0  0  0  0  0  0  0  0
    6.6032    2.1951   -0.6868 H   0  0  0  0  0  0  0  0  0  0  0  0
    5.0902    2.3652   -1.6045 H   0  0  0  0  0  0  0  0  0  0  0  0
    3.0543    1.4536   -0.2954 H   0  0  0  0  0  0  0  0  0  0  0  0
   -2.4476   -2.3202   -1.1859 H   0  0  0  0  0  0  0  0  0  0  0  0
   -4.1357   -2.5344   -0.6093 H   0  0  0  0  0  0  0  0  0  0  0  0
   -2.8545   -3.6212   -0.0556 H   0  0  0  0  0  0  0  0  0  0  0  0
  1  2  1  0
  2  3  1  0
  3  4  2  0
  4  5  1  0
  5  6  2  0
  6  7  1  0
  7  8  1  0
  8  9  2  0
  9 10  1  0
 10 11  1  0
 11 12  1  0
 12 13  2  0
 13 14  1  0
 14 15  2  0
 14 16  1  0
 16 17  1  0
 16 18  1  0
 10 19  2  0
 19 20  1  0
  7 21  2  0
 21 22  1  0
 22 23  1  0
 21  3  1  0
 20  8  1  0
 18 11  2  0
  1 24  1  0
  1 25  1  0
  1 26  1  0
  4 27  1  0
  5 28  1  0
  6 29  1  0
 12 30  1  0
 13 31  1  0
 17 32  1  0
 17 33  1  0
 17 34  1  0
 18 35  1  0
 23 36  1  0
 23 37  1  0
 23 38  1  0
M  END
$$$$
