
     RDKit          3D

 57 60  0  0  0  0  0  0  0  0999 V2000
    7.5701    2.8242   -0.1765 C   0  0  0  0  0  0  0  0  0  0  0  0
    7.2981    1.4430   -0.3627 O   0  0  0  0  0  0  0  0  0  0  0  0
    6.0430    0.9874   -0.0363 C   0  0  0  0  0  0  0  0  0  0  0  0
    5.0237    1.7990    0.4878 C   0  0  0  0  0  0  0  0  0  0  0  0
    3.7951    1.2255    0.7779 C   0  0  0  0  0  0  0  0  0  0  0  0
    3.5957   -0.1266    0.5534 C   0  0  0  0  0  0  0  0  0  0  0  0
    4.5723   -0.9625    0.0431 C   0  0  0  0  0  0  0  0  0  0  0  0
    5.8154   -0.3995   -0.2582 C   0  0  0  0  0  0  0  0  0  0  0  0
    6.8771   -1.1053   -0.7713 O   0  0  0  0  0  0  0  0  0  0  0  0
    6.6918   -2.4950   -1.0034 C   0  0  0  0  0  0  0  0  0  0  0  0
    2.2329   -0.4637    0.9383 C   0  0  0  0  0  0  0  0  0  0  0  0
    1.7895   -1.5984    0.9080 O   0  0  0  0  0  0  0  0  0  0  0  0
    1.4954    0.7931    1.3687 C   0  0  0  0  0  0  0  0  0  0  0  0
    0.3377    1.1544    0.4259 C   0  0  0  0  0  0  0  0  0  0  0  0
   -0.8443    0.1630    0.4946 C   0  0  0  0  0  0  0  0  0  0  0  0
   -2.1778    0.9040    0.6739 C   0  0  0  0  0  0  0  0  0  0  0  0
   -3.3639   -0.0645    0.6671 C   0  0  0  0  0  0  0  0  0  0  0  0
   -3.3974   -0.8570   -0.5720 N   0  0  0  0  0  0  0  0  0  0  0  0
   -4.5529   -1.7738   -0.5922 C   0  0  0  0  0  0  0  0  0  0  0  0
   -5.8879   -1.0663   -0.7043 C   0  0  0  0  0  0  0  0  0  0  0  0
   -6.1426   -0.1892   -1.7693 C   0  0  0  0  0  0  0  0  0  0  0  0
   -7.3780    0.4496   -1.8838 C   0  0  0  0  0  0  0  0  0  0  0  0
   -8.3742    0.2148   -0.9381 C   0  0  0  0  0  0  0  0  0  0  0  0
   -8.1356   -0.6574    0.1223 C   0  0  0  0  0  0  0  0  0  0  0  0
   -6.8998   -1.2969    0.2387 C   0  0  0  0  0  0  0  0  0  0  0  0
   -2.1513   -1.6232   -0.7316 C   0  0  0  0  0  0  0  0  0  0  0  0
   -0.9345   -0.6976   -0.7741 C   0  0  0  0  0  0  0  0  0  0  0  0
    2.5908    1.8920    1.3632 C   0  0  0  0  0  0  0  0  0  0  0  0
    6.9152    3.4436   -0.7982 H   0  0  0  0  0  0  0  0  0  0  0  0
    8.6008    3.0081   -0.4947 H   0  0  0  0  0  0  0  0  0  0  0  0
    7.4941    3.1026    0.8797 H   0  0  0  0  0  0  0  0  0  0  0  0
    5.1678    2.8567    0.6756 H   0  0  0  0  0  0  0  0  0  0  0  0
    4.3418   -2.0104   -0.1043 H   0  0  0  0  0  0  0  0  0  0  0  0
    7.6273   -2.8941   -1.4071 H   0  0  0  0  0  0  0  0  0  0  0  0
    5.9077   -2.6700   -1.7473 H   0  0  0  0  0  0  0  0  0  0  0  0
    6.4792   -3.0265   -0.0701 H   0  0  0  0  0  0  0  0  0  0  0  0
    1.1299    0.6586    2.3937 H   0  0  0  0  0  0  0  0  0  0  0  0
    0.7097    1.2304   -0.6040 H   0  0  0  0  0  0  0  0  0  0  0  0
   -0.0125    2.1579    0.7008 H   0  0  0  0  0  0  0  0  0  0  0  0
   -0.7187   -0.5016    1.3596 H   0  0  0  0  0  0  0  0  0  0  0  0
   -2.1708    1.4558    1.6216 H   0  0  0  0  0  0  0  0  0  0  0  0
   -2.3074    1.6447   -0.1263 H   0  0  0  0  0  0  0  0  0  0  0  0
   -3.3084   -0.7184    1.5475 H   0  0  0  0  0  0  0  0  0  0  0  0
   -4.2761    0.5349    0.7656 H   0  0  0  0  0  0  0  0  0  0  0  0
   -4.5392   -2.4269    0.2906 H   0  0  0  0  0  0  0  0  0  0  0  0
   -4.4858   -2.4367   -1.4656 H   0  0  0  0  0  0  0  0  0  0  0  0
   -5.3670    0.0026   -2.5083 H   0  0  0  0  0  0  0  0  0  0  0  0
   -7.5607    1.1304   -2.7106 H   0  0  0  0  0  0  0  0  0  0  0  0
   -9.3361    0.7123   -1.0278 H   0  0  0  0  0  0  0  0  0  0  0  0
   -8.9131   -0.8409    0.8591 H   0  0  0  0  0  0  0  0  0  0  0  0
   -6.7309   -1.9752    1.0713 H   0  0  0  0  0  0  0  0  0  0  0  0
   -2.0328   -2.3534    0.0800 H   0  0  0  0  0  0  0  0  0  0  0  0
   -2.1801   -2.1847   -1.6736 H   0  0  0  0  0  0  0  0  0  0  0  0
   -1.0026   -0.0531   -1.6608 H   0  0  0  0  0  0  0  0  0  0  0  0
   -0.0290   -1.3009   -0.8953 H   0  0  0  0  0  0  0  0  0  0  0  0
    2.3025    2.7676    0.7725 H   0  0  0  0  0  0  0  0  0  0  0  0
    2.8070    2.2138    2.3882 H   0  0  0  0  0  0  0  0  0  0  0  0
  1  2  1  0
  2  3  1  0
  3  4  2  0
  4  5  1  0
  5  6  2  0
  6  7  1  0
  7  8  2  0
  8  9  1  0
  9 10  1  0
  6 11  1  0
 11 12  2  0
 11 13  1  0
 13 14  1  0
 14 15  1  0
 15 16  1  0
 16 17  1  0
 17 18  1  0
 18 19  1  0
 19 20  1  0
 20 21  2  0
 21 22  1  0
 22 23  2  0
 23 24  1  0
 24 25  2  0
 18 26  1  0
 26 27  1  0
 13 28  1  0
  8  3  1  0
 27 15  1  0
 28  5  1  0
 25 20  1  0
  1 29  1  0
  1 30  1  0
  1 31  1  0
  4 32  1  0
  7 33  1  0
 10 34  1  0
 10 35  1  0
 10 36  1  0
 13 37  1  0
 14 38  1  0
 14 39  1  0
 15 40  1  0
 16 41  1  0
 16 42  1  0
 17 43  1  0
 17 44  1  0
 19 45  1  0
 19 46  1  0
 21 47  1  0
 22 48  1  0
 23 49  1  0
 24 50  1  0
 25 51  1  0
 26 52  1  0
 26 53  1  0
 27 54  1  0
 27 55  1  0
 28 56  1  0
 28 57  1  0
M  END
$$$$
