
     RDKit          3D

 58 60  0  0  0  0  0  0  0  0999 V2000
   -5.2632   -1.2992    0.1457 C   0  0  0  0  0  0  0  0  0  0  0  0
   -4.5501    0.0188   -0.1346 C   0  0  0  0  0  0  0  0  0  0  0  0
   -3.0628   -0.0365    0.1936 C   0  0  0  0  0  0  0  0  0  0  0  0
   -2.0605   -0.0910   -0.7281 C   0  0  0  0  0  0  0  0  0  0  0  0
   -2.4009   -0.1741   -2.1714 C   0  0  0  0  0  0  0  0  0  0  0  0
   -2.2917    0.9637   -2.9815 C   0  0  0  0  0  0  0  0  0  0  0  0
   -2.6040    0.8912   -4.3400 C   0  0  0  0  0  0  0  0  0  0  0  0
   -3.0188   -0.3171   -4.8880 C   0  0  0  0  0  0  0  0  0  0  0  0
   -3.3139   -0.3419   -6.2190 O   0  0  0  0  0  0  0  0  0  0  0  0
   -3.1255   -1.4598   -4.1012 C   0  0  0  0  0  0  0  0  0  0  0  0
   -2.8132   -1.3874   -2.7416 C   0  0  0  0  0  0  0  0  0  0  0  0
   -0.6297   -0.0622   -0.3167 C   0  0  0  0  0  0  0  0  0  0  0  0
   -0.0527    1.1021    0.2058 C   0  0  0  0  0  0  0  0  0  0  0  0
    1.2956    1.1253    0.5816 C   0  0  0  0  0  0  0  0  0  0  0  0
    2.0849   -0.0140    0.4289 C   0  0  0  0  0  0  0  0  0  0  0  0
    3.4079   -0.1275    0.7549 O   0  0  0  0  0  0  0  0  0  0  0  0
    4.0378    1.0204    1.3307 C   0  0  0  0  0  0  0  0  0  0  0  0
    5.5116    0.6931    1.6407 C   0  0  0  0  0  0  0  0  0  0  0  0
    6.4472    0.9069    0.5134 N   0  0  0  0  0  0  0  0  0  0  0  0
    6.1373    0.0392   -0.6257 C   0  0  0  0  0  0  0  0  0  0  0  0
    7.8231    0.6693    0.9573 C   0  0  0  0  0  0  0  0  0  0  0  0
    1.5158   -1.1718   -0.1062 C   0  0  0  0  0  0  0  0  0  0  0  0
    0.1696   -1.1985   -0.4798 C   0  0  0  0  0  0  0  0  0  0  0  0
   -2.7867    0.0209    1.6525 C   0  0  0  0  0  0  0  0  0  0  0  0
   -2.2921   -1.1028    2.3281 C   0  0  0  0  0  0  0  0  0  0  0  0
   -2.0340   -1.0473    3.6991 C   0  0  0  0  0  0  0  0  0  0  0  0
   -2.2714    0.1298    4.4067 C   0  0  0  0  0  0  0  0  0  0  0  0
   -2.7660    1.2526    3.7452 C   0  0  0  0  0  0  0  0  0  0  0  0
   -3.0232    1.1989    2.3737 C   0  0  0  0  0  0  0  0  0  0  0  0
   -6.3138   -1.2275   -0.1541 H   0  0  0  0  0  0  0  0  0  0  0  0
   -4.8098   -2.1259   -0.4101 H   0  0  0  0  0  0  0  0  0  0  0  0
   -5.2392   -1.5503    1.2110 H   0  0  0  0  0  0  0  0  0  0  0  0
   -4.7233    0.2913   -1.1809 H   0  0  0  0  0  0  0  0  0  0  0  0
   -5.0351    0.8167    0.4415 H   0  0  0  0  0  0  0  0  0  0  0  0
   -1.9638    1.9099   -2.5586 H   0  0  0  0  0  0  0  0  0  0  0  0
   -2.5209    1.7735   -4.9679 H   0  0  0  0  0  0  0  0  0  0  0  0
   -3.5724   -1.2458   -6.4620 H   0  0  0  0  0  0  0  0  0  0  0  0
   -3.4451   -2.4072   -4.5227 H   0  0  0  0  0  0  0  0  0  0  0  0
   -2.8911   -2.2804   -2.1263 H   0  0  0  0  0  0  0  0  0  0  0  0
   -0.6530    2.0002    0.3290 H   0  0  0  0  0  0  0  0  0  0  0  0
    1.6928    2.0489    0.9878 H   0  0  0  0  0  0  0  0  0  0  0  0
    3.5375    1.2630    2.2766 H   0  0  0  0  0  0  0  0  0  0  0  0
    3.9775    1.8834    0.6561 H   0  0  0  0  0  0  0  0  0  0  0  0
    5.8183    1.3665    2.4512 H   0  0  0  0  0  0  0  0  0  0  0  0
    5.5922   -0.3360    2.0144 H   0  0  0  0  0  0  0  0  0  0  0  0
    6.1178   -1.0202   -0.3462 H   0  0  0  0  0  0  0  0  0  0  0  0
    5.1750    0.3051   -1.0738 H   0  0  0  0  0  0  0  0  0  0  0  0
    6.8809    0.1686   -1.4207 H   0  0  0  0  0  0  0  0  0  0  0  0
    8.5308    0.8770    0.1468 H   0  0  0  0  0  0  0  0  0  0  0  0
    7.9770   -0.3622    1.2945 H   0  0  0  0  0  0  0  0  0  0  0  0
    8.0854    1.3445    1.7794 H   0  0  0  0  0  0  0  0  0  0  0  0
    2.1261   -2.0621   -0.2337 H   0  0  0  0  0  0  0  0  0  0  0  0
   -0.2486   -2.1117   -0.8940 H   0  0  0  0  0  0  0  0  0  0  0  0
   -2.1017   -2.0266    1.7877 H   0  0  0  0  0  0  0  0  0  0  0  0
   -1.6451   -1.9225    4.2125 H   0  0  0  0  0  0  0  0  0  0  0  0
   -2.0687    0.1724    5.4736 H   0  0  0  0  0  0  0  0  0  0  0  0
   -2.9492    2.1713    4.2959 H   0  0  0  0  0  0  0  0  0  0  0  0
   -3.4007    2.0847    1.8690 H   0  0  0  0  0  0  0  0  0  0  0  0
  1  2  1  0
  2  3  1  0
  3  4  2  0
  4  5  1  0
  5  6  2  0
  6  7  1  0
  7  8  2  0
  8  9  1  0
  8 10  1  0
 10 11  2  0
  4 12  1  0
 12 13  2  0
 13 14  1  0
 14 15  2  0
 15 16  1  0
 16 17  1  0
 17 18  1  0
 18 19  1  0
 19 20  1  0
 19 21  1  0
 15 22  1  0
 22 23  2  0
  3 24  1  0
 24 25  2  0
 25 26  1  0
 26 27  2  0
 27 28  1  0
 28 29  2  0
 11  5  1  0
 23 12  1  0
 29 24  1  0
  1 30  1  0
  1 31  1  0
  1 32  1  0
  2 33  1  0
  2 34  1  0
  6 35  1  0
  7 36  1  0
  9 37  1  0
 10 38  1  0
 11 39  1  0
 13 40  1  0
 14 41  1  0
 17 42  1  0
 17 43  1  0
 18 44  1  0
 18 45  1  0
 20 46  1  0
 20 47  1  0
 20 48  1  0
 21 49  1  0
 21 50  1  0
 21 51  1  0
 22 52  1  0
 23 53  1  0
 25 54  1  0
 26 55  1  0
 27 56  1  0
 28 57  1  0
 29 58  1  0
M  END
$$$$
