
     RDKit          3D

 35 34  0  0  0  0  0  0  0  0999 V2000
    3.8427    0.3232   -0.8384 C   0  0  0  0  0  0  0  0  0  0  0  0
    2.5920    0.2557    0.0006 C   0  0  0  0  0  0  0  0  0  0  0  0
    2.6699   -0.9424    0.9591 C   0  0  0  0  0  0  0  0  0  0  0  0
    2.5071    1.4679    0.8572 C   0  0  0  0  0  0  0  0  0  0  0  0
    1.4820   -0.0056   -0.8699 N   0  0  0  0  0  0  0  0  0  0  0  0
    0.2101    0.0308   -0.2030 C   0  0  0  0  0  0  0  0  0  0  0  0
   -0.9029   -0.6799   -0.9170 C   0  0  0  0  0  0  0  0  0  0  0  0
   -0.7795   -2.0241   -1.0964 O   0  0  0  0  0  0  0  0  0  0  0  0
   -2.2144   -0.3330   -0.3227 C   0  0  0  0  0  0  0  0  0  0  0  0
   -2.5357    0.9678    0.0249 C   0  0  0  0  0  0  0  0  0  0  0  0
   -3.8084    1.3262    0.4649 C   0  0  0  0  0  0  0  0  0  0  0  0
   -4.8114    0.3724    0.5697 C   0  0  0  0  0  0  0  0  0  0  0  0
   -4.5208   -0.9278    0.2309 C   0  0  0  0  0  0  0  0  0  0  0  0
   -3.2430   -1.2625   -0.2037 C   0  0  0  0  0  0  0  0  0  0  0  0
   -2.8997   -2.9353   -0.5668 Cl  0  0  0  0  0  0  0  0  0  0  0  0
    0.6850    0.0000    0.0000 Cl  0  0  0  0  0  0  0  0  0  0  0  0
    4.3121   -0.6802   -0.9945 H   0  0  0  0  0  0  0  0  0  0  0  0
    3.6310    0.7973   -1.8375 H   0  0  0  0  0  0  0  0  0  0  0  0
    4.6449    0.9698   -0.3704 H   0  0  0  0  0  0  0  0  0  0  0  0
    2.0420   -0.7028    1.8096 H   0  0  0  0  0  0  0  0  0  0  0  0
    2.4101   -1.8967    0.4553 H   0  0  0  0  0  0  0  0  0  0  0  0
    3.7086   -0.9853    1.3133 H   0  0  0  0  0  0  0  0  0  0  0  0
    3.5450    1.9424    0.9506 H   0  0  0  0  0  0  0  0  0  0  0  0
    1.8296    2.2715    0.5239 H   0  0  0  0  0  0  0  0  0  0  0  0
    2.2353    1.2023    1.9288 H   0  0  0  0  0  0  0  0  0  0  0  0
    1.5092    0.5187   -1.7710 H   0  0  0  0  0  0  0  0  0  0  0  0
   -0.0236    1.0649    0.0879 H   0  0  0  0  0  0  0  0  0  0  0  0
    0.3271   -0.5552    0.7696 H   0  0  0  0  0  0  0  0  0  0  0  0
   -0.9406   -0.2660   -2.0108 H   0  0  0  0  0  0  0  0  0  0  0  0
    0.1017   -2.3465   -0.8170 H   0  0  0  0  0  0  0  0  0  0  0  0
   -1.8013    1.7325   -0.0412 H   0  0  0  0  0  0  0  0  0  0  0  0
   -4.0258    2.3624    0.7126 H   0  0  0  0  0  0  0  0  0  0  0  0
   -5.8122    0.6642    0.8920 H   0  0  0  0  0  0  0  0  0  0  0  0
   -5.2808   -1.7268    0.3092 H   0  0  0  0  0  0  0  0  0  0  0  0
   -0.6850    0.0000    0.0000 H   0  0  0  0  0  0  0  0  0  0  0  0
  1  2  1  0
  2  3  1  0
  2  4  1  0
  2  5  1  0
  5  6  1  0
  6  7  1  0
  7  8  1  0
  7  9  1  0
  9 10  2  0
 10 11  1  0
 11 12  2  0
 12 13  1  0
 13 14  2  0
 14 15  1  0
 14  9  1  0
  1 17  1  0
  1 18  1  0
  1 19  1  0
  3 20  1  0
  3 21  1  0
  3 22  1  0
  4 23  1  0
  4 24  1  0
  4 25  1  0
  5 26  1  0
  6 27  1  0
  6 28  1  0
  7 29  1  0
  8 30  1  0
 10 31  1  0
 11 32  1  0
 12 33  1  0
 13 34  1  0
 16 35  1  0
M  END
$$$$
