
     RDKit          3D

 45 48  0  0  0  0  0  0  0  0999 V2000
   -4.6636   -3.0433    0.8629 C   0  0  0  0  0  0  0  0  0  0  0  0
   -3.1928   -3.3601    0.7843 C   0  0  0  0  0  0  0  0  0  0  0  0
   -2.7621   -4.4677    1.1002 O   0  0  0  0  0  0  0  0  0  0  0  0
   -2.3701   -2.3514    0.3331 N   0  0  0  0  0  0  0  0  0  0  0  0
   -2.7780   -1.0052   -0.0513 C   0  0  0  0  0  0  0  0  0  0  0  0
   -1.5506   -0.4211   -0.7436 C   0  0  0  0  0  0  0  0  0  0  0  0
   -1.5500    1.0557   -0.7472 C   0  0  0  0  0  0  0  0  0  0  0  0
   -2.1690    1.9046    0.0429 N   0  0  0  0  0  0  0  0  0  0  0  0
   -1.7673    3.1132   -0.4663 C   0  0  0  0  0  0  0  0  0  0  0  0
   -2.2065    4.3987    0.1061 C   0  0  0  0  0  0  0  0  0  0  0  0
   -0.9619    3.0389   -1.5327 N   0  0  0  0  0  0  0  0  0  0  0  0
   -0.8134    1.6642   -1.7234 O   0  0  0  0  0  0  0  0  0  0  0  0
   -0.4210   -1.1286    0.0158 C   0  0  0  0  0  0  0  0  0  0  0  0
    1.0198   -1.0092   -0.5503 C   0  0  0  0  0  0  0  0  0  0  0  0
    1.2148    0.1389    0.3697 N   0  0  0  0  0  0  0  0  0  0  0  0
    2.5458    0.1159    0.9877 C   0  0  0  0  0  0  0  0  0  0  0  0
    3.6138    0.6336    0.0564 C   0  0  0  0  0  0  0  0  0  0  0  0
    3.4264    1.7969   -0.7038 C   0  0  0  0  0  0  0  0  0  0  0  0
    4.4562    2.2386   -1.5236 C   0  0  0  0  0  0  0  0  0  0  0  0
    5.6522    1.6171   -1.6297 N   0  0  0  0  0  0  0  0  0  0  0  0
    5.8182    0.5031   -0.8790 C   0  0  0  0  0  0  0  0  0  0  0  0
    4.8452   -0.0108   -0.0369 C   0  0  0  0  0  0  0  0  0  0  0  0
    5.0967   -1.1166    0.6772 F   0  0  0  0  0  0  0  0  0  0  0  0
    0.1928   -0.4388    1.2757 C   0  0  0  0  0  0  0  0  0  0  0  0
   -0.9308   -2.5439    0.2649 C   0  0  0  0  0  0  0  0  0  0  0  0
   -5.1888   -3.8761    1.3400 H   0  0  0  0  0  0  0  0  0  0  0  0
   -4.8298   -2.1465    1.4653 H   0  0  0  0  0  0  0  0  0  0  0  0
   -5.0694   -2.9058   -0.1425 H   0  0  0  0  0  0  0  0  0  0  0  0
   -3.0432   -0.4741    0.8706 H   0  0  0  0  0  0  0  0  0  0  0  0
   -3.6567   -1.0321   -0.7034 H   0  0  0  0  0  0  0  0  0  0  0  0
   -1.5459   -0.7761   -1.7842 H   0  0  0  0  0  0  0  0  0  0  0  0
   -2.4471    4.2866    1.1678 H   0  0  0  0  0  0  0  0  0  0  0  0
   -3.1021    4.7574   -0.4115 H   0  0  0  0  0  0  0  0  0  0  0  0
   -1.4253    5.1608    0.0148 H   0  0  0  0  0  0  0  0  0  0  0  0
    1.6498   -1.8882   -0.3589 H   0  0  0  0  0  0  0  0  0  0  0  0
    1.0930   -0.7573   -1.6128 H   0  0  0  0  0  0  0  0  0  0  0  0
    2.5406    0.7708    1.8686 H   0  0  0  0  0  0  0  0  0  0  0  0
    2.8052   -0.8888    1.3477 H   0  0  0  0  0  0  0  0  0  0  0  0
    2.4893    2.3470   -0.6675 H   0  0  0  0  0  0  0  0  0  0  0  0
    4.3404    3.1318   -2.1327 H   0  0  0  0  0  0  0  0  0  0  0  0
    6.7833    0.0164   -0.9695 H   0  0  0  0  0  0  0  0  0  0  0  0
    0.5781   -1.1340    2.0341 H   0  0  0  0  0  0  0  0  0  0  0  0
   -0.4371    0.2969    1.7846 H   0  0  0  0  0  0  0  0  0  0  0  0
   -0.7248   -3.2066   -0.5828 H   0  0  0  0  0  0  0  0  0  0  0  0
   -0.5541   -3.0048    1.1832 H   0  0  0  0  0  0  0  0  0  0  0  0
  1  2  1  0
  2  3  2  0
  2  4  1  0
  4  5  1  0
  5  6  1  0
  6  7  1  0
  7  8  2  0
  8  9  1  0
  9 10  1  0
  9 11  2  0
 11 12  1  0
  6 13  1  0
 13 14  1  0
 14 15  1  0
 15 16  1  0
 16 17  1  0
 17 18  2  0
 18 19  1  0
 19 20  2  0
 20 21  1  0
 21 22  2  0
 22 23  1  0
 15 24  1  0
 13 25  1  0
 25  4  1  0
 12  7  1  0
 24 13  1  0
 22 17  1  0
  1 26  1  0
  1 27  1  0
  1 28  1  0
  5 29  1  0
  5 30  1  0
  6 31  1  0
 10 32  1  0
 10 33  1  0
 10 34  1  0
 14 35  1  0
 14 36  1  0
 16 37  1  0
 16 38  1  0
 18 39  1  0
 19 40  1  0
 21 41  1  0
 24 42  1  0
 24 43  1  0
 25 44  1  0
 25 45  1  0
M  END
$$$$
