
     RDKit          3D

 43 44  0  0  0  0  0  0  0  0999 V2000
   -3.8654    2.6844   -3.1682 N   0  0  0  0  0  0  0  0  0  0  0  0
   -4.0549    2.1105   -2.1782 C   0  0  0  0  0  0  0  0  0  0  0  0
   -4.3229    1.3879   -0.9651 C   0  0  0  0  0  0  0  0  0  0  0  0
   -3.2583    0.8163   -0.2507 C   0  0  0  0  0  0  0  0  0  0  0  0
   -1.9710    1.0223   -0.7048 O   0  0  0  0  0  0  0  0  0  0  0  0
   -1.1658   -0.0898   -0.8098 C   0  0  0  0  0  0  0  0  0  0  0  0
   -1.5444   -1.2109   -1.5506 C   0  0  0  0  0  0  0  0  0  0  0  0
   -0.6701   -2.2903   -1.6572 C   0  0  0  0  0  0  0  0  0  0  0  0
    0.5779   -2.2393   -1.0330 C   0  0  0  0  0  0  0  0  0  0  0  0
    0.9612   -1.1107   -0.3012 C   0  0  0  0  0  0  0  0  0  0  0  0
    2.2148   -1.1729    0.2517 O   0  0  0  0  0  0  0  0  0  0  0  0
    2.7180   -0.1217    1.3921 S   0  0  0  0  0  6  0  0  0  0  0  0
    1.8813   -0.2603    2.5677 O   0  0  0  0  0  0  0  0  0  0  0  0
    2.9627    1.1696    0.7837 O   0  0  0  0  0  0  0  0  0  0  0  0
    4.2883   -0.8981    1.7400 C   0  0  0  0  0  0  0  0  0  0  0  0
    5.2315   -1.0246    0.5434 C   0  0  0  0  0  0  0  0  0  0  0  0
    5.8581    0.2660   -0.0039 C   0  0  0  0  0  0  0  0  0  0  0  0
    6.6839    1.0422    1.0013 C   0  0  0  0  0  0  0  0  0  0  0  0
    7.6486    0.2599    1.5322 F   0  0  0  0  0  0  0  0  0  0  0  0
    5.9262    1.5047    2.0153 F   0  0  0  0  0  0  0  0  0  0  0  0
    7.2841    2.0994    0.4175 F   0  0  0  0  0  0  0  0  0  0  0  0
    0.0911   -0.0257   -0.2028 C   0  0  0  0  0  0  0  0  0  0  0  0
   -3.4945    0.1202    0.9410 C   0  0  0  0  0  0  0  0  0  0  0  0
   -4.7970   -0.0387    1.4071 C   0  0  0  0  0  0  0  0  0  0  0  0
   -5.8638    0.5087    0.6944 C   0  0  0  0  0  0  0  0  0  0  0  0
   -5.6423    1.2297   -0.4947 C   0  0  0  0  0  0  0  0  0  0  0  0
   -6.8092    1.8205   -1.2487 C   0  0  0  0  0  0  0  0  0  0  0  0
   -6.7226    3.1711   -1.3716 F   0  0  0  0  0  0  0  0  0  0  0  0
   -8.0108    1.5807   -0.6517 F   0  0  0  0  0  0  0  0  0  0  0  0
   -6.9201    1.3206   -2.5082 F   0  0  0  0  0  0  0  0  0  0  0  0
   -2.5049   -1.2461   -2.0562 H   0  0  0  0  0  0  0  0  0  0  0  0
   -0.9557   -3.1676   -2.2331 H   0  0  0  0  0  0  0  0  0  0  0  0
    1.2545   -3.0856   -1.1242 H   0  0  0  0  0  0  0  0  0  0  0  0
    4.0466   -1.8992    2.1175 H   0  0  0  0  0  0  0  0  0  0  0  0
    4.7459   -0.3499    2.5677 H   0  0  0  0  0  0  0  0  0  0  0  0
    6.0499   -1.6947    0.8359 H   0  0  0  0  0  0  0  0  0  0  0  0
    4.7128   -1.5273   -0.2815 H   0  0  0  0  0  0  0  0  0  0  0  0
    5.0907    0.9178   -0.4296 H   0  0  0  0  0  0  0  0  0  0  0  0
    6.5122   -0.0090   -0.8409 H   0  0  0  0  0  0  0  0  0  0  0  0
    0.3570    0.8814    0.3327 H   0  0  0  0  0  0  0  0  0  0  0  0
   -2.6674   -0.2911    1.5160 H   0  0  0  0  0  0  0  0  0  0  0  0
   -4.9802   -0.5832    2.3316 H   0  0  0  0  0  0  0  0  0  0  0  0
   -6.8762    0.3757    1.0772 H   0  0  0  0  0  0  0  0  0  0  0  0
  1  2  3  0
  2  3  1  0
  3  4  2  0
  4  5  1  0
  5  6  1  0
  6  7  2  0
  7  8  1  0
  8  9  2  0
  9 10  1  0
 10 11  1  0
 11 12  1  0
 12 13  2  0
 12 14  2  0
 12 15  1  0
 15 16  1  0
 16 17  1  0
 17 18  1  0
 18 19  1  0
 18 20  1  0
 18 21  1  0
 10 22  2  0
  4 23  1  0
 23 24  2  0
 24 25  1  0
 25 26  2  0
 26 27  1  0
 27 28  1  0
 27 29  1  0
 27 30  1  0
 26  3  1  0
 22  6  1  0
  7 31  1  0
  8 32  1  0
  9 33  1  0
 15 34  1  0
 15 35  1  0
 16 36  1  0
 16 37  1  0
 17 38  1  0
 17 39  1  0
 22 40  1  0
 23 41  1  0
 24 42  1  0
 25 43  1  0
M  END
$$$$
