
     RDKit          3D

 65 68  0  0  0  0  0  0  0  0999 V2000
    8.6814   -0.6256   -0.3474 C   0  0  0  0  0  0  0  0  0  0  0  0
    7.9531   -0.1328    0.8228 N   0  0  0  0  0  0  0  0  0  0  0  0
    8.8267    0.7306    1.6212 C   0  0  0  0  0  0  0  0  0  0  0  0
    6.7287    0.5953    0.4460 C   0  0  0  0  0  0  0  0  0  0  0  0
    5.6329   -0.2859   -0.1786 C   0  0  0  0  0  0  0  0  0  0  0  0
    4.4311    0.4823   -0.4723 N   0  0  0  0  0  0  0  0  0  0  0  0
    3.2711   -0.1801   -0.7888 C   0  0  0  0  0  0  0  0  0  0  0  0
    3.1299   -1.3930   -0.7576 O   0  0  0  0  0  0  0  0  0  0  0  0
    2.2851    0.7055   -1.1407 N   0  0  0  0  0  0  0  0  0  0  0  0
    0.9438    0.2386   -1.4456 C   0  0  0  0  0  0  0  0  0  0  0  0
    0.1447   -0.2638   -0.2272 C   0  0  1  0  0  0  0  0  0  0  0  0
   -0.0928    0.8393    0.8219 C   0  0  0  0  0  0  0  0  0  0  0  0
   -1.4637    1.4800    0.6427 C   0  0  0  0  0  0  0  0  0  0  0  0
   -2.5847    0.4237    0.7534 C   0  0  2  0  0  0  0  0  0  0  0  0
   -2.0739   -0.9585    0.3073 C   0  0  2  0  0  0  0  0  0  0  0  0
   -1.1009   -0.7847   -0.7290 O   0  0  0  0  0  0  0  0  0  0  0  0
   -3.1418   -1.9054   -0.1843 C   0  0  0  0  0  0  0  0  0  0  0  0
   -2.7922   -3.2271   -0.5187 C   0  0  0  0  0  0  0  0  0  0  0  0
   -3.7641   -4.1557   -0.9139 C   0  0  0  0  0  0  0  0  0  0  0  0
   -3.3943   -5.5734   -1.2714 C   0  0  0  0  0  0  0  0  0  0  0  0
   -3.6972   -5.8812   -2.5634 F   0  0  0  0  0  0  0  0  0  0  0  0
   -4.0522   -6.4910   -0.5080 F   0  0  0  0  0  0  0  0  0  0  0  0
   -2.0689   -5.8506   -1.1220 F   0  0  0  0  0  0  0  0  0  0  0  0
   -5.1014   -3.7455   -0.9600 C   0  0  0  0  0  0  0  0  0  0  0  0
   -5.4517   -2.4320   -0.6373 C   0  0  0  0  0  0  0  0  0  0  0  0
   -4.4754   -1.4920   -0.2894 C   0  0  0  0  0  0  0  0  0  0  0  0
   -4.8665   -0.1972    0.0795 N   0  0  0  0  0  0  0  0  0  0  0  0
   -3.8217    0.8188   -0.0735 C   0  0  1  0  0  0  0  0  0  0  0  0
   -4.4071    2.1602    0.3488 C   0  0  0  0  0  0  0  0  0  0  0  0
   -4.3396    3.2634   -0.5182 C   0  0  0  0  0  0  0  0  0  0  0  0
   -4.8604    4.5003   -0.1360 C   0  0  0  0  0  0  0  0  0  0  0  0
   -5.4582    4.6508    1.1145 C   0  0  0  0  0  0  0  0  0  0  0  0
   -5.5357    3.5653    1.9850 C   0  0  0  0  0  0  0  0  0  0  0  0
   -5.0138    2.3291    1.6049 C   0  0  0  0  0  0  0  0  0  0  0  0
    8.0925   -1.3647   -0.9005 H   0  0  0  0  0  0  0  0  0  0  0  0
    9.5991   -1.1402   -0.0395 H   0  0  0  0  0  0  0  0  0  0  0  0
    8.9578    0.1842   -1.0327 H   0  0  0  0  0  0  0  0  0  0  0  0
    8.3193    1.0493    2.5381 H   0  0  0  0  0  0  0  0  0  0  0  0
    9.1408    1.6247    1.0698 H   0  0  0  0  0  0  0  0  0  0  0  0
    9.7238    0.1865    1.9372 H   0  0  0  0  0  0  0  0  0  0  0  0
    6.9667    1.4241   -0.2334 H   0  0  0  0  0  0  0  0  0  0  0  0
    6.2958    1.0535    1.3450 H   0  0  0  0  0  0  0  0  0  0  0  0
    5.3686   -1.1070    0.4993 H   0  0  0  0  0  0  0  0  0  0  0  0
    5.9641   -0.7235   -1.1267 H   0  0  0  0  0  0  0  0  0  0  0  0
    4.5662    1.3214   -1.0174 H   0  0  0  0  0  0  0  0  0  0  0  0
    2.3801    1.6329   -0.7533 H   0  0  0  0  0  0  0  0  0  0  0  0
    0.4137    1.0634   -1.9354 H   0  0  0  0  0  0  0  0  0  0  0  0
    1.0218   -0.5668   -2.1863 H   0  0  0  0  0  0  0  0  0  0  0  0
    0.6892   -1.0903    0.2437 H   0  0  0  0  0  0  0  0  0  0  0  0
    0.6934    1.5996    0.8053 H   0  0  0  0  0  0  0  0  0  0  0  0
   -0.0500    0.3889    1.8220 H   0  0  0  0  0  0  0  0  0  0  0  0
   -1.4911    1.9780   -0.3348 H   0  0  0  0  0  0  0  0  0  0  0  0
   -1.6121    2.2602    1.3988 H   0  0  0  0  0  0  0  0  0  0  0  0
   -2.8785    0.3346    1.8098 H   0  0  0  0  0  0  0  0  0  0  0  0
   -1.5891   -1.4490    1.1645 H   0  0  0  0  0  0  0  0  0  0  0  0
   -1.7460   -3.5264   -0.4632 H   0  0  0  0  0  0  0  0  0  0  0  0
   -5.8804   -4.4505   -1.2435 H   0  0  0  0  0  0  0  0  0  0  0  0
   -6.4993   -2.1454   -0.6639 H   0  0  0  0  0  0  0  0  0  0  0  0
   -5.7350    0.0805   -0.3716 H   0  0  0  0  0  0  0  0  0  0  0  0
   -3.5509    0.8785   -1.1376 H   0  0  0  0  0  0  0  0  0  0  0  0
   -3.8754    3.1667   -1.4984 H   0  0  0  0  0  0  0  0  0  0  0  0
   -4.7995    5.3488   -0.8128 H   0  0  0  0  0  0  0  0  0  0  0  0
   -5.8646    5.6142    1.4092 H   0  0  0  0  0  0  0  0  0  0  0  0
   -6.0044    3.6800    2.9594 H   0  0  0  0  0  0  0  0  0  0  0  0
   -5.0866    1.4862    2.2912 H   0  0  0  0  0  0  0  0  0  0  0  0
  1  2  1  0
  2  3  1  0
  2  4  1  0
  4  5  1  0
  5  6  1  0
  6  7  1  0
  7  8  2  0
  7  9  1  0
  9 10  1  0
 10 11  1  0
 11 12  1  0
 12 13  1  0
 13 14  1  0
 14 15  1  0
 15 16  1  0
 15 17  1  0
 17 18  2  0
 18 19  1  0
 19 20  1  0
 20 21  1  0
 20 22  1  0
 20 23  1  0
 19 24  2  0
 24 25  1  0
 25 26  2  0
 26 27  1  0
 27 28  1  0
 28 29  1  0
 29 30  2  0
 30 31  1  0
 31 32  2  0
 32 33  1  0
 33 34  2  0
 16 11  1  0
 26 17  1  0
 34 29  1  0
 28 14  1  0
  1 35  1  0
  1 36  1  0
  1 37  1  0
  3 38  1  0
  3 39  1  0
  3 40  1  0
  4 41  1  0
  4 42  1  0
  5 43  1  0
  5 44  1  0
  6 45  1  0
  9 46  1  0
 10 47  1  0
 10 48  1  0
 11 49  1  1
 12 50  1  0
 12 51  1  0
 13 52  1  0
 13 53  1  0
 14 54  1  1
 15 55  1  1
 18 56  1  0
 24 57  1  0
 25 58  1  0
 27 59  1  0
 28 60  1  6
 30 61  1  0
 31 62  1  0
 32 63  1  0
 33 64  1  0
 34 65  1  0
M  END
$$$$
