
     RDKit          3D

 56 58  0  0  0  0  0  0  0  0999 V2000
    4.9235    0.1805    3.2171 C   0  0  0  0  0  0  0  0  0  0  0  0
    4.3762   -0.1471    1.8393 C   0  0  0  0  0  0  0  0  0  0  0  0
    3.3059    0.7615    1.5607 O   0  0  0  0  0  0  0  0  0  0  0  0
    2.9122    0.6477    0.2500 C   0  0  0  0  0  0  0  0  0  0  0  0
    1.7714   -0.1170   -0.0127 C   0  0  0  0  0  0  0  0  0  0  0  0
    1.2958   -0.2503   -1.3240 C   0  0  0  0  0  0  0  0  0  0  0  0
    0.0510   -1.0699   -1.6588 C   0  0  1  0  0  0  0  0  0  0  0  0
    0.1003   -2.4594   -1.0165 C   0  0  0  0  0  0  0  0  0  0  0  0
   -1.1191   -3.5320   -1.7418 S   0  0  0  0  0  6  0  0  0  0  0  0
   -0.9416   -5.0265   -0.7988 C   0  0  0  0  0  0  0  0  0  0  0  0
   -2.4369   -2.9944   -1.4639 O   0  0  0  0  0  0  0  0  0  0  0  0
   -0.7029   -3.8206   -3.1000 O   0  0  0  0  0  0  0  0  0  0  0  0
   -1.1478   -0.2910   -1.3560 N   0  0  0  0  0  0  0  0  0  0  0  0
   -1.7446    0.5283   -2.2790 C   0  0  0  0  0  0  0  0  0  0  0  0
   -1.4331    0.7330   -3.4369 O   0  0  0  0  0  0  0  0  0  0  0  0
   -2.8617    1.1831   -1.6037 C   0  0  0  0  0  0  0  0  0  0  0  0
   -3.7934    2.0793   -2.0840 C   0  0  0  0  0  0  0  0  0  0  0  0
   -4.7480    2.5458   -1.1776 C   0  0  0  0  0  0  0  0  0  0  0  0
   -4.7468    2.1152    0.1698 C   0  0  0  0  0  0  0  0  0  0  0  0
   -3.7902    1.2076    0.6399 C   0  0  0  0  0  0  0  0  0  0  0  0
   -3.7137    0.7323    1.9652 N   0  0  0  0  0  0  0  0  0  0  0  0
   -4.5415    1.0491    3.0234 C   0  0  0  0  0  0  0  0  0  0  0  0
   -4.1487    0.3371    4.2934 C   0  0  0  0  0  0  0  0  0  0  0  0
   -5.5138    1.7951    2.9930 O   0  0  0  0  0  0  0  0  0  0  0  0
   -2.8595    0.7620   -0.2867 C   0  0  0  0  0  0  0  0  0  0  0  0
   -1.7394   -0.1631   -0.1304 C   0  0  0  0  0  0  0  0  0  0  0  0
   -1.4428   -0.6778    0.9344 O   0  0  0  0  0  0  0  0  0  0  0  0
    1.9683    0.4367   -2.3478 C   0  0  0  0  0  0  0  0  0  0  0  0
    3.0981    1.2198   -2.0762 C   0  0  0  0  0  0  0  0  0  0  0  0
    3.5815    1.3353   -0.7726 C   0  0  0  0  0  0  0  0  0  0  0  0
    4.6635    2.0856   -0.3960 O   0  0  0  0  0  0  0  0  0  0  0  0
    5.3916    2.7427   -1.4238 C   0  0  0  0  0  0  0  0  0  0  0  0
    5.3252    1.1995    3.2365 H   0  0  0  0  0  0  0  0  0  0  0  0
    5.7195   -0.5156    3.4954 H   0  0  0  0  0  0  0  0  0  0  0  0
    4.1314    0.1341    3.9717 H   0  0  0  0  0  0  0  0  0  0  0  0
    3.9926   -1.1748    1.8327 H   0  0  0  0  0  0  0  0  0  0  0  0
    5.1841   -0.0624    1.1024 H   0  0  0  0  0  0  0  0  0  0  0  0
    1.2594   -0.5865    0.8240 H   0  0  0  0  0  0  0  0  0  0  0  0
    0.0568   -1.2208   -2.7473 H   0  0  0  0  0  0  0  0  0  0  0  0
    1.0712   -2.9350   -1.2002 H   0  0  0  0  0  0  0  0  0  0  0  0
   -0.0703   -2.4504    0.0621 H   0  0  0  0  0  0  0  0  0  0  0  0
    0.0795   -5.3960   -0.9114 H   0  0  0  0  0  0  0  0  0  0  0  0
   -1.6499   -5.7610   -1.1881 H   0  0  0  0  0  0  0  0  0  0  0  0
   -1.1632   -4.8119    0.2485 H   0  0  0  0  0  0  0  0  0  0  0  0
   -3.7834    2.4041   -3.1193 H   0  0  0  0  0  0  0  0  0  0  0  0
   -5.5079    3.2530   -1.5077 H   0  0  0  0  0  0  0  0  0  0  0  0
   -5.5165    2.5162    0.8250 H   0  0  0  0  0  0  0  0  0  0  0  0
   -2.9534    0.0761    2.1491 H   0  0  0  0  0  0  0  0  0  0  0  0
   -4.5161    0.9023    5.1551 H   0  0  0  0  0  0  0  0  0  0  0  0
   -4.5905   -0.6629    4.2988 H   0  0  0  0  0  0  0  0  0  0  0  0
   -3.0610    0.2589    4.3782 H   0  0  0  0  0  0  0  0  0  0  0  0
    1.6037    0.3860   -3.3747 H   0  0  0  0  0  0  0  0  0  0  0  0
    3.5645    1.7389   -2.9078 H   0  0  0  0  0  0  0  0  0  0  0  0
    4.7720    3.4860   -1.9355 H   0  0  0  0  0  0  0  0  0  0  0  0
    5.8112    2.0202   -2.1310 H   0  0  0  0  0  0  0  0  0  0  0  0
    6.2274    3.2731   -0.9553 H   0  0  0  0  0  0  0  0  0  0  0  0
  1  2  1  0
  2  3  1  0
  3  4  1  0
  4  5  2  0
  5  6  1  0
  6  7  1  0
  7  8  1  0
  8  9  1  0
  9 10  1  0
  9 11  2  0
  9 12  2  0
  7 13  1  0
 13 14  1  0
 14 15  2  0
 14 16  1  0
 16 17  2  0
 17 18  1  0
 18 19  2  0
 19 20  1  0
 20 21  1  0
 21 22  1  0
 22 23  1  0
 22 24  2  0
 20 25  2  0
 25 26  1  0
 26 27  2  0
  6 28  2  0
 28 29  1  0
 29 30  2  0
 30 31  1  0
 31 32  1  0
 30  4  1  0
 26 13  1  0
 25 16  1  0
  1 33  1  0
  1 34  1  0
  1 35  1  0
  2 36  1  0
  2 37  1  0
  5 38  1  0
  7 39  1  6
  8 40  1  0
  8 41  1  0
 10 42  1  0
 10 43  1  0
 10 44  1  0
 17 45  1  0
 18 46  1  0
 19 47  1  0
 21 48  1  0
 23 49  1  0
 23 50  1  0
 23 51  1  0
 28 52  1  0
 29 53  1  0
 32 54  1  0
 32 55  1  0
 32 56  1  0
M  END
$$$$
