
     RDKit          3D

 34 35  0  0  0  0  0  0  0  0999 V2000
    0.0875    2.0737    0.2962 C   0  0  0  0  0  0  0  0  0  0  0  0
   -0.2839    0.7324    0.8122 N   0  0  0  0  0  0  0  0  0  0  0  0
   -1.6227    0.7369    1.4739 C   0  0  0  0  0  0  0  0  0  0  0  0
   -2.6685   -0.0093    0.6528 C   0  0  0  0  0  0  0  0  0  0  0  0
   -2.9001    0.4772   -0.7629 C   0  0  0  0  0  0  0  0  0  0  0  0
   -3.6769   -0.6806   -1.3580 C   0  0  0  0  0  0  0  0  0  0  0  0
   -3.2383   -1.8692   -0.6833 O   0  0  0  0  0  0  0  0  0  0  0  0
   -2.3897   -1.4823    0.4134 C   0  0  0  0  0  0  0  0  0  0  0  0
    0.9416   -0.0294    1.7444 S   0  0  0  0  0  6  0  0  0  0  0  0
    1.3887    0.9303    2.7320 O   0  0  0  0  0  0  0  0  0  0  0  0
    0.4622   -1.3387    2.1315 O   0  0  0  0  0  0  0  0  0  0  0  0
    2.2421   -0.2749    0.5604 C   0  0  0  0  0  0  0  0  0  0  0  0
    3.4618    0.3923    0.7083 C   0  0  0  0  0  0  0  0  0  0  0  0
    4.4741    0.1859   -0.2310 C   0  0  0  0  0  0  0  0  0  0  0  0
    4.2606   -0.6854   -1.3012 C   0  0  0  0  0  0  0  0  0  0  0  0
    5.6341   -0.9600   -2.5710 Br  0  0  0  0  0  0  0  0  0  0  0  0
    3.0454   -1.3575   -1.4423 C   0  0  0  0  0  0  0  0  0  0  0  0
    2.0300   -1.1550   -0.5063 C   0  0  0  0  0  0  0  0  0  0  0  0
    0.9714    2.0137   -0.3435 H   0  0  0  0  0  0  0  0  0  0  0  0
    0.2720    2.7748    1.1155 H   0  0  0  0  0  0  0  0  0  0  0  0
   -0.7225    2.4758   -0.3207 H   0  0  0  0  0  0  0  0  0  0  0  0
   -1.9571    1.7694    1.6352 H   0  0  0  0  0  0  0  0  0  0  0  0
   -1.5668    0.2874    2.4722 H   0  0  0  0  0  0  0  0  0  0  0  0
   -3.6252    0.0685    1.1895 H   0  0  0  0  0  0  0  0  0  0  0  0
   -3.4450    1.4236   -0.8191 H   0  0  0  0  0  0  0  0  0  0  0  0
   -1.9554    0.5923   -1.3058 H   0  0  0  0  0  0  0  0  0  0  0  0
   -3.5132   -0.7860   -2.4341 H   0  0  0  0  0  0  0  0  0  0  0  0
   -4.7515   -0.5721   -1.1772 H   0  0  0  0  0  0  0  0  0  0  0  0
   -1.3588   -1.6762    0.1044 H   0  0  0  0  0  0  0  0  0  0  0  0
   -2.6189   -2.1020    1.2850 H   0  0  0  0  0  0  0  0  0  0  0  0
    3.6327    1.0657    1.5455 H   0  0  0  0  0  0  0  0  0  0  0  0
    5.4241    0.7028   -0.1188 H   0  0  0  0  0  0  0  0  0  0  0  0
    2.8820   -2.0413   -2.2717 H   0  0  0  0  0  0  0  0  0  0  0  0
    1.0840   -1.6825   -0.6088 H   0  0  0  0  0  0  0  0  0  0  0  0
  1  2  1  0
  2  3  1  0
  3  4  1  0
  4  5  1  0
  5  6  1  0
  6  7  1  0
  7  8  1  0
  2  9  1  0
  9 10  2  0
  9 11  2  0
  9 12  1  0
 12 13  2  0
 13 14  1  0
 14 15  2  0
 15 16  1  0
 15 17  1  0
 17 18  2  0
  8  4  1  0
 18 12  1  0
  1 19  1  0
  1 20  1  0
  1 21  1  0
  3 22  1  0
  3 23  1  0
  4 24  1  0
  5 25  1  0
  5 26  1  0
  6 27  1  0
  6 28  1  0
  8 29  1  0
  8 30  1  0
 13 31  1  0
 14 32  1  0
 17 33  1  0
 18 34  1  0
M  END
$$$$
