
     RDKit          3D

 50 53  0  0  0  0  0  0  0  0999 V2000
   -0.1383   -3.7757   -1.2742 C   0  0  0  0  0  0  0  0  0  0  0  0
    0.0597   -3.7820    0.2557 C   0  0  0  0  0  0  0  0  0  0  0  0
    0.9883   -4.9612    0.6076 C   0  0  0  0  0  0  0  0  0  0  0  0
   -1.2776   -3.9754    0.9805 C   0  0  0  0  0  0  0  0  0  0  0  0
   -2.1906   -2.7772    0.8719 C   0  0  0  0  0  0  0  0  0  0  0  0
   -3.4073   -2.9072    1.0111 O   0  0  0  0  0  0  0  0  0  0  0  0
   -1.5741   -1.4289    0.6447 C   0  0  0  0  0  0  0  0  0  0  0  0
   -2.4204   -0.4065    0.4678 C   0  0  0  0  0  0  0  0  0  0  0  0
   -1.9940    0.8941    0.2251 N   0  0  0  0  0  0  0  0  0  0  0  0
   -2.9660    1.9525    0.0265 C   0  0  0  0  0  0  0  0  0  0  0  0
   -2.7080    3.0546   -0.8036 C   0  0  0  0  0  0  0  0  0  0  0  0
   -3.6623    4.0606   -0.9981 C   0  0  0  0  0  0  0  0  0  0  0  0
   -4.8982    3.9853   -0.3661 C   0  0  0  0  0  0  0  0  0  0  0  0
   -5.1806    2.9038    0.4598 C   0  0  0  0  0  0  0  0  0  0  0  0
   -4.2260    1.8983    0.6519 C   0  0  0  0  0  0  0  0  0  0  0  0
   -0.6138    1.1808    0.1811 C   0  0  0  0  0  0  0  0  0  0  0  0
   -0.1323    2.2978   -0.0264 O   0  0  0  0  0  0  0  0  0  0  0  0
    0.3489    0.0360    0.4274 C   0  0  0  0  0  0  0  0  0  0  0  0
    1.8402    0.3024    0.5214 C   0  0  0  0  0  0  0  0  0  0  0  0
    2.5812   -0.4784    1.1120 O   0  0  0  0  0  0  0  0  0  0  0  0
    2.2676    1.4719   -0.0676 N   0  0  0  0  0  0  0  0  0  0  0  0
    3.5916    1.9456   -0.1709 C   0  0  0  0  0  0  0  0  0  0  0  0
    3.7809    3.2185   -0.7148 C   0  0  0  0  0  0  0  0  0  0  0  0
    5.0680    3.7355   -0.8507 C   0  0  0  0  0  0  0  0  0  0  0  0
    6.1350    2.9565   -0.4393 C   0  0  0  0  0  0  0  0  0  0  0  0
    5.9985    1.7222    0.0863 N   0  0  0  0  0  0  0  0  0  0  0  0
    4.7319    1.2446    0.2112 C   0  0  0  0  0  0  0  0  0  0  0  0
   -0.1377   -1.2199    0.5953 C   0  0  0  0  0  0  0  0  0  0  0  0
    0.7159   -2.4683    0.7409 C   0  0  0  0  0  0  0  0  0  0  0  0
   -0.8014   -2.9728   -1.6100 H   0  0  0  0  0  0  0  0  0  0  0  0
    0.8193   -3.6475   -1.7918 H   0  0  0  0  0  0  0  0  0  0  0  0
   -0.5740   -4.7217   -1.6159 H   0  0  0  0  0  0  0  0  0  0  0  0
    0.5509   -5.9161    0.2948 H   0  0  0  0  0  0  0  0  0  0  0  0
    1.9608   -4.8607    0.1126 H   0  0  0  0  0  0  0  0  0  0  0  0
    1.1694   -5.0170    1.6870 H   0  0  0  0  0  0  0  0  0  0  0  0
   -1.1182   -4.1592    2.0504 H   0  0  0  0  0  0  0  0  0  0  0  0
   -1.8054   -4.8438    0.5674 H   0  0  0  0  0  0  0  0  0  0  0  0
   -3.4927   -0.5832    0.4625 H   0  0  0  0  0  0  0  0  0  0  0  0
   -1.7752    3.1460   -1.3524 H   0  0  0  0  0  0  0  0  0  0  0  0
   -3.4358    4.9002   -1.6508 H   0  0  0  0  0  0  0  0  0  0  0  0
   -5.6377    4.7675   -0.5159 H   0  0  0  0  0  0  0  0  0  0  0  0
   -6.1414    2.8421    0.9650 H   0  0  0  0  0  0  0  0  0  0  0  0
   -4.4831    1.0966    1.3393 H   0  0  0  0  0  0  0  0  0  0  0  0
    1.5394    2.1146   -0.3818 H   0  0  0  0  0  0  0  0  0  0  0  0
    2.9343    3.8213   -1.0324 H   0  0  0  0  0  0  0  0  0  0  0  0
    5.2327    4.7229   -1.2668 H   0  0  0  0  0  0  0  0  0  0  0  0
    7.1572    3.3140   -0.5237 H   0  0  0  0  0  0  0  0  0  0  0  0
    4.6889    0.2479    0.6362 H   0  0  0  0  0  0  0  0  0  0  0  0
    0.9826   -2.5693    1.8021 H   0  0  0  0  0  0  0  0  0  0  0  0
    1.6490   -2.3620    0.1758 H   0  0  0  0  0  0  0  0  0  0  0  0
  1  2  1  0
  2  3  1  0
  2  4  1  0
  4  5  1  0
  5  6  2  0
  5  7  1  0
  7  8  2  0
  8  9  1  0
  9 10  1  0
 10 11  2  0
 11 12  1  0
 12 13  2  0
 13 14  1  0
 14 15  2  0
  9 16  1  0
 16 17  2  0
 16 18  1  0
 18 19  1  0
 19 20  2  0
 19 21  1  0
 21 22  1  0
 22 23  2  0
 23 24  1  0
 24 25  2  0
 25 26  1  0
 26 27  2  0
 18 28  2  0
 28 29  1  0
 29  2  1  0
 28  7  1  0
 15 10  1  0
 27 22  1  0
  1 30  1  0
  1 31  1  0
  1 32  1  0
  3 33  1  0
  3 34  1  0
  3 35  1  0
  4 36  1  0
  4 37  1  0
  8 38  1  0
 11 39  1  0
 12 40  1  0
 13 41  1  0
 14 42  1  0
 15 43  1  0
 21 44  1  0
 23 45  1  0
 24 46  1  0
 25 47  1  0
 27 48  1  0
 29 49  1  0
 29 50  1  0
M  END
$$$$
