
     RDKit          3D

 58 62  0  0  0  0  0  0  0  0999 V2000
    8.6914   -1.6159   -0.2204 C   0  0  0  0  0  0  0  0  0  0  0  0
    7.2892   -1.2730   -0.0596 N   0  0  0  0  0  0  0  0  0  0  0  0
    6.4015   -1.9539   -0.8592 N   0  0  0  0  0  0  0  0  0  0  0  0
    5.1440   -1.6807   -0.7066 C   0  0  0  0  0  0  0  0  0  0  0  0
    4.5271   -0.7086    0.2521 C   0  0  0  0  0  0  0  0  0  0  0  0
    3.1289   -0.5122    0.2667 N   0  0  0  0  0  0  0  0  0  0  0  0
    2.4528    0.3609    1.2471 C   0  0  0  0  0  0  0  0  0  0  0  0
    1.6519    1.4169    0.4932 C   0  0  0  0  0  0  0  0  0  0  0  0
    0.5110    0.7760   -0.3186 C   0  0  0  0  0  0  0  0  0  0  0  0
   -0.8180    0.8867    0.4320 C   0  0  0  0  0  0  0  0  0  0  0  0
   -0.8165    0.9814    1.6623 O   0  0  0  0  0  0  0  0  0  0  0  0
   -1.9965    0.8146   -0.2956 N   0  0  0  0  0  0  0  0  0  0  0  0
   -2.1139    0.7665   -1.7589 C   0  0  0  0  0  0  0  0  0  0  0  0
   -2.7636    2.0443   -2.2765 C   0  0  0  0  0  0  0  0  0  0  0  0
   -3.9620    2.3439   -1.5123 N   0  0  0  0  0  0  0  0  0  0  0  0
   -4.9741    3.1751   -1.9032 C   0  0  0  0  0  0  0  0  0  0  0  0
   -5.8948    3.2217   -0.8789 C   0  0  0  0  0  0  0  0  0  0  0  0
   -5.4147    2.3882    0.1613 C   0  0  0  0  0  0  0  0  0  0  0  0
   -4.2135    1.8389   -0.2566 C   0  0  0  0  0  0  0  0  0  0  0  0
   -3.2752    0.8757    0.4413 C   0  0  0  0  0  0  0  0  0  0  0  0
   -3.8422   -0.5317    0.6379 C   0  0  0  0  0  0  0  0  0  0  0  0
   -3.3474   -1.3234    1.6908 C   0  0  0  0  0  0  0  0  0  0  0  0
   -3.8061   -2.6275    1.8879 C   0  0  0  0  0  0  0  0  0  0  0  0
   -4.7673   -3.1643    1.0345 C   0  0  0  0  0  0  0  0  0  0  0  0
   -5.2710   -2.3977   -0.0139 C   0  0  0  0  0  0  0  0  0  0  0  0
   -4.8101   -1.0936   -0.2142 C   0  0  0  0  0  0  0  0  0  0  0  0
    0.7814   -0.7104   -0.5990 C   0  0  0  0  0  0  0  0  0  0  0  0
    2.2608   -1.0172   -0.8161 C   0  0  0  0  0  0  0  0  0  0  0  0
    5.4500   -0.1145    1.0275 C   0  0  0  0  0  0  0  0  0  0  0  0
    6.9043   -0.3722    0.9186 C   0  0  0  0  0  0  0  0  0  0  0  0
    7.6746    0.2223    1.6762 O   0  0  0  0  0  0  0  0  0  0  0  0
    9.3401   -0.8272    0.1746 H   0  0  0  0  0  0  0  0  0  0  0  0
    8.9104   -1.7589   -1.2832 H   0  0  0  0  0  0  0  0  0  0  0  0
    8.8849   -2.5451    0.3271 H   0  0  0  0  0  0  0  0  0  0  0  0
    4.4459   -2.2374   -1.3538 H   0  0  0  0  0  0  0  0  0  0  0  0
    1.8082   -0.2459    1.8950 H   0  0  0  0  0  0  0  0  0  0  0  0
    3.1537    0.8724    1.9132 H   0  0  0  0  0  0  0  0  0  0  0  0
    2.3255    1.9418   -0.2006 H   0  0  0  0  0  0  0  0  0  0  0  0
    1.2803    2.1792    1.1893 H   0  0  0  0  0  0  0  0  0  0  0  0
    0.4481    1.3487   -1.2492 H   0  0  0  0  0  0  0  0  0  0  0  0
   -1.1531    0.6251   -2.2521 H   0  0  0  0  0  0  0  0  0  0  0  0
   -2.7240   -0.1065   -2.0165 H   0  0  0  0  0  0  0  0  0  0  0  0
   -3.0367    1.9496   -3.3316 H   0  0  0  0  0  0  0  0  0  0  0  0
   -2.0945    2.9029   -2.1492 H   0  0  0  0  0  0  0  0  0  0  0  0
   -4.9605    3.6729   -2.8648 H   0  0  0  0  0  0  0  0  0  0  0  0
   -6.8115    3.7985   -0.8774 H   0  0  0  0  0  0  0  0  0  0  0  0
   -5.8965    2.1980    1.1132 H   0  0  0  0  0  0  0  0  0  0  0  0
   -3.1037    1.3006    1.4392 H   0  0  0  0  0  0  0  0  0  0  0  0
   -2.5926   -0.9214    2.3672 H   0  0  0  0  0  0  0  0  0  0  0  0
   -3.4085   -3.2233    2.7063 H   0  0  0  0  0  0  0  0  0  0  0  0
   -5.1253   -4.1792    1.1882 H   0  0  0  0  0  0  0  0  0  0  0  0
   -6.0247   -2.8139   -0.6788 H   0  0  0  0  0  0  0  0  0  0  0  0
   -5.2251   -0.5194   -1.0391 H   0  0  0  0  0  0  0  0  0  0  0  0
    0.2128   -1.0412   -1.4760 H   0  0  0  0  0  0  0  0  0  0  0  0
    0.4136   -1.3240    0.2361 H   0  0  0  0  0  0  0  0  0  0  0  0
    2.5819   -0.5743   -1.7670 H   0  0  0  0  0  0  0  0  0  0  0  0
    2.3626   -2.1055   -0.8955 H   0  0  0  0  0  0  0  0  0  0  0  0
    5.2068    0.6174    1.7847 H   0  0  0  0  0  0  0  0  0  0  0  0
  1  2  1  0
  2  3  1  0
  3  4  2  0
  4  5  1  0
  5  6  1  0
  6  7  1  0
  7  8  1  0
  8  9  1  0
  9 10  1  0
 10 11  2  0
 10 12  1  0
 12 13  1  0
 13 14  1  0
 14 15  1  0
 15 16  1  0
 16 17  2  0
 17 18  1  0
 18 19  2  0
 19 20  1  0
 20 21  1  0
 21 22  2  0
 22 23  1  0
 23 24  2  0
 24 25  1  0
 25 26  2  0
  9 27  1  0
 27 28  1  0
  5 29  2  0
 29 30  1  0
 30 31  2  0
 30  2  1  0
 28  6  1  0
 20 12  1  0
 26 21  1  0
 19 15  1  0
  1 32  1  0
  1 33  1  0
  1 34  1  0
  4 35  1  0
  7 36  1  0
  7 37  1  0
  8 38  1  0
  8 39  1  0
  9 40  1  0
 13 41  1  0
 13 42  1  0
 14 43  1  0
 14 44  1  0
 16 45  1  0
 17 46  1  0
 18 47  1  0
 20 48  1  0
 22 49  1  0
 23 50  1  0
 24 51  1  0
 25 52  1  0
 26 53  1  0
 27 54  1  0
 27 55  1  0
 28 56  1  0
 28 57  1  0
 29 58  1  0
M  END
$$$$
