
     RDKit          3D

 47 48  0  0  0  0  0  0  0  0999 V2000
    8.8334   -1.1583    0.8596 C   0  0  0  0  0  0  0  0  0  0  0  0
    7.9282   -0.2172    1.6343 C   0  0  0  0  0  0  0  0  0  0  0  0
    6.9191    0.3258    0.7852 O   0  0  0  0  0  0  0  0  0  0  0  0
    5.7674   -0.5062    0.6424 C   0  0  0  0  0  0  0  0  0  0  0  0
    4.7520   -0.2408    1.7547 C   0  0  0  0  0  0  0  0  0  0  0  0
    3.5890   -1.0539    1.6019 O   0  0  0  0  0  0  0  0  0  0  0  0
    2.5565   -0.5845    0.8403 C   0  0  0  0  0  0  0  0  0  0  0  0
    2.5462    0.5924    0.0923 C   0  0  0  0  0  0  0  0  0  0  0  0
    1.4119    0.9443   -0.6493 C   0  0  0  0  0  0  0  0  0  0  0  0
    0.2758    0.1268   -0.6414 C   0  0  0  0  0  0  0  0  0  0  0  0
   -0.9075    0.5430   -1.4480 C   0  0  0  0  0  0  0  0  0  0  0  0
   -0.7108    1.1585   -2.4889 O   0  0  0  0  0  0  0  0  0  0  0  0
   -2.1322    0.2100   -0.8992 N   0  0  0  0  0  0  0  0  0  0  0  0
   -3.4115    0.4381   -1.4509 C   0  0  0  0  0  0  0  0  0  0  0  0
   -3.6283    0.9885   -2.7131 C   0  0  0  0  0  0  0  0  0  0  0  0
   -4.9287    1.1763   -3.1840 C   0  0  0  0  0  0  0  0  0  0  0  0
   -6.0206    0.8114   -2.3963 C   0  0  0  0  0  0  0  0  0  0  0  0
   -5.8246    0.2528   -1.1294 C   0  0  0  0  0  0  0  0  0  0  0  0
   -6.9777   -0.0945   -0.3935 N   0  0  0  0  0  0  0  0  0  0  0  0
   -7.0347   -0.6606    0.8674 C   0  0  0  0  0  0  0  0  0  0  0  0
   -8.4536   -0.8780    1.3315 C   0  0  0  0  0  0  0  0  0  0  0  0
   -6.0875   -0.9541    1.5885 O   0  0  0  0  0  0  0  0  0  0  0  0
   -4.5176    0.0703   -0.6674 C   0  0  0  0  0  0  0  0  0  0  0  0
    0.2917   -1.0648    0.0905 C   0  0  0  0  0  0  0  0  0  0  0  0
    1.4279   -1.4107    0.8281 C   0  0  0  0  0  0  0  0  0  0  0  0
    8.2826   -2.0299    0.4935 H   0  0  0  0  0  0  0  0  0  0  0  0
    9.2515   -0.6538   -0.0177 H   0  0  0  0  0  0  0  0  0  0  0  0
    9.6557   -1.5092    1.4898 H   0  0  0  0  0  0  0  0  0  0  0  0
    7.4910   -0.7155    2.5058 H   0  0  0  0  0  0  0  0  0  0  0  0
    8.5240    0.6247    2.0019 H   0  0  0  0  0  0  0  0  0  0  0  0
    6.0350   -1.5683    0.6018 H   0  0  0  0  0  0  0  0  0  0  0  0
    5.3217   -0.2718   -0.3297 H   0  0  0  0  0  0  0  0  0  0  0  0
    5.1984   -0.5197    2.7161 H   0  0  0  0  0  0  0  0  0  0  0  0
    4.5172    0.8250    1.8617 H   0  0  0  0  0  0  0  0  0  0  0  0
    3.4016    1.2589    0.0498 H   0  0  0  0  0  0  0  0  0  0  0  0
    1.4174    1.8619   -1.2353 H   0  0  0  0  0  0  0  0  0  0  0  0
   -2.1286   -0.1846    0.0331 H   0  0  0  0  0  0  0  0  0  0  0  0
   -2.8053    1.2805   -3.3578 H   0  0  0  0  0  0  0  0  0  0  0  0
   -5.0857    1.6082   -4.1694 H   0  0  0  0  0  0  0  0  0  0  0  0
   -7.0204    0.9700   -2.7912 H   0  0  0  0  0  0  0  0  0  0  0  0
   -7.8627    0.0983   -0.8457 H   0  0  0  0  0  0  0  0  0  0  0  0
   -8.8425    0.0517    1.7549 H   0  0  0  0  0  0  0  0  0  0  0  0
   -9.0909   -1.2010    0.5033 H   0  0  0  0  0  0  0  0  0  0  0  0
   -8.4698   -1.6602    2.0960 H   0  0  0  0  0  0  0  0  0  0  0  0
   -4.3394   -0.3599    0.3120 H   0  0  0  0  0  0  0  0  0  0  0  0
   -0.5523   -1.7487    0.0773 H   0  0  0  0  0  0  0  0  0  0  0  0
    1.4379   -2.3398    1.3944 H   0  0  0  0  0  0  0  0  0  0  0  0
  1  2  1  0
  2  3  1  0
  3  4  1  0
  4  5  1  0
  5  6  1  0
  6  7  1  0
  7  8  2  0
  8  9  1  0
  9 10  2  0
 10 11  1  0
 11 12  2  0
 11 13  1  0
 13 14  1  0
 14 15  2  0
 15 16  1  0
 16 17  2  0
 17 18  1  0
 18 19  1  0
 19 20  1  0
 20 21  1  0
 20 22  2  0
 18 23  2  0
 10 24  1  0
 24 25  2  0
 25  7  1  0
 23 14  1  0
  1 26  1  0
  1 27  1  0
  1 28  1  0
  2 29  1  0
  2 30  1  0
  4 31  1  0
  4 32  1  0
  5 33  1  0
  5 34  1  0
  8 35  1  0
  9 36  1  0
 13 37  1  0
 15 38  1  0
 16 39  1  0
 17 40  1  0
 19 41  1  0
 21 42  1  0
 21 43  1  0
 21 44  1  0
 23 45  1  0
 24 46  1  0
 25 47  1  0
M  END
$$$$
