
     RDKit          3D

 63 68  0  0  0  0  0  0  0  0999 V2000
   -4.5584   -3.8022   -2.2836 N   0  0  0  0  0  0  0  0  0  0  0  0
   -3.7616   -2.9833   -2.4740 C   0  0  0  0  0  0  0  0  0  0  0  0
   -2.7386   -1.9618   -2.7331 C   0  0  0  0  0  0  0  0  0  0  0  0
   -2.0920   -1.4570   -1.4475 C   0  0  0  0  0  0  0  0  0  0  0  0
   -3.0536   -0.7377   -0.5821 N   0  0  0  0  0  0  0  0  0  0  0  0
   -3.5529    0.5039   -0.8590 C   0  0  0  0  0  0  0  0  0  0  0  0
   -4.4546    0.7941    0.1437 C   0  0  0  0  0  0  0  0  0  0  0  0
   -5.2257    2.0094    0.2179 C   0  0  0  0  0  0  0  0  0  0  0  0
   -5.6551    2.5595   -0.9446 N   0  0  0  0  0  0  0  0  0  0  0  0
   -6.3936    3.6821   -0.8685 C   0  0  0  0  0  0  0  0  0  0  0  0
   -6.7536    4.3616    0.2328 N   0  0  0  0  0  0  0  0  0  0  0  0
   -6.2821    3.7847    1.3483 C   0  0  0  0  0  0  0  0  0  0  0  0
   -6.4800    4.2663    2.6127 N   0  0  0  0  0  0  0  0  0  0  0  0
   -5.8374    3.4612    3.5212 C   0  0  0  0  0  0  0  0  0  0  0  0
   -5.2452    2.4303    2.8216 C   0  0  0  0  0  0  0  0  0  0  0  0
   -5.5210    2.6273    1.4365 C   0  0  0  0  0  0  0  0  0  0  0  0
   -4.4275   -0.3508    0.9685 C   0  0  0  0  0  0  0  0  0  0  0  0
   -3.5669   -1.2763    0.5356 N   0  0  0  0  0  0  0  0  0  0  0  0
   -0.7654   -0.6604   -1.6045 C   0  0  0  0  0  0  0  0  0  0  0  0
   -0.0427   -1.9575   -1.4834 N   0  0  0  0  0  0  0  0  0  0  0  0
    1.1722   -1.8291   -0.6524 C   0  0  0  0  0  0  0  0  0  0  0  0
    2.2354   -0.9857   -1.3934 C   0  0  0  0  0  0  0  0  0  0  0  0
    3.6709   -1.4038   -1.0783 C   0  0  0  0  0  0  0  0  0  0  0  0
    3.7982   -1.9285    0.2765 N   0  0  0  0  0  0  0  0  0  0  0  0
    4.8734   -1.6813    1.1277 C   0  0  0  0  0  0  0  0  0  0  0  0
    5.1655   -2.4065    2.0772 O   0  0  0  0  0  0  0  0  0  0  0  0
    5.7243   -0.5022    0.9064 C   0  0  0  0  0  0  0  0  0  0  0  0
    7.1017   -0.6829    0.7895 C   0  0  0  0  0  0  0  0  0  0  0  0
    7.8850    0.4439    0.6330 C   0  0  0  0  0  0  0  0  0  0  0  0
    7.3855    1.7010    0.6001 N   0  0  0  0  0  0  0  0  0  0  0  0
    6.0322    1.8603    0.7487 C   0  0  0  0  0  0  0  0  0  0  0  0
    5.4180    3.2444    0.7408 C   0  0  0  0  0  0  0  0  0  0  0  0
    4.5304    3.4179   -0.2829 F   0  0  0  0  0  0  0  0  0  0  0  0
    6.3297    4.2519    0.6073 F   0  0  0  0  0  0  0  0  0  0  0  0
    4.7273    3.5252    1.8835 F   0  0  0  0  0  0  0  0  0  0  0  0
    5.1806    0.7778    0.9054 C   0  0  0  0  0  0  0  0  0  0  0  0
    3.8609    0.9677    1.0494 F   0  0  0  0  0  0  0  0  0  0  0  0
    2.9547   -3.0759    0.6011 C   0  0  0  0  0  0  0  0  0  0  0  0
    1.7464   -3.2147   -0.3241 C   0  0  0  0  0  0  0  0  0  0  0  0
   -1.1941   -2.4609   -0.6696 C   0  0  0  0  0  0  0  0  0  0  0  0
   -1.9823   -2.3953   -3.4006 H   0  0  0  0  0  0  0  0  0  0  0  0
   -3.1842   -1.1292   -3.2902 H   0  0  0  0  0  0  0  0  0  0  0  0
   -3.2479    1.0707   -1.7274 H   0  0  0  0  0  0  0  0  0  0  0  0
   -6.7470    4.0864   -1.8142 H   0  0  0  0  0  0  0  0  0  0  0  0
   -7.0011    5.1065    2.8190 H   0  0  0  0  0  0  0  0  0  0  0  0
   -5.8627    3.6887    4.5799 H   0  0  0  0  0  0  0  0  0  0  0  0
   -4.6656    1.6311    3.2644 H   0  0  0  0  0  0  0  0  0  0  0  0
   -5.0105   -0.5588    1.8566 H   0  0  0  0  0  0  0  0  0  0  0  0
   -0.6280   -0.1590   -2.5681 H   0  0  0  0  0  0  0  0  0  0  0  0
   -0.5607    0.0675   -0.8079 H   0  0  0  0  0  0  0  0  0  0  0  0
    0.9414   -1.3234    0.2976 H   0  0  0  0  0  0  0  0  0  0  0  0
    2.1015   -1.0363   -2.4815 H   0  0  0  0  0  0  0  0  0  0  0  0
    2.0946    0.0684   -1.1216 H   0  0  0  0  0  0  0  0  0  0  0  0
    3.9818   -2.2102   -1.7551 H   0  0  0  0  0  0  0  0  0  0  0  0
    4.3551   -0.5741   -1.2708 H   0  0  0  0  0  0  0  0  0  0  0  0
    7.5453   -1.6740    0.8321 H   0  0  0  0  0  0  0  0  0  0  0  0
    8.9660    0.3679    0.5345 H   0  0  0  0  0  0  0  0  0  0  0  0
    2.6193   -2.9579    1.6397 H   0  0  0  0  0  0  0  0  0  0  0  0
    3.5656   -3.9868    0.5583 H   0  0  0  0  0  0  0  0  0  0  0  0
    2.0497   -3.7207   -1.2506 H   0  0  0  0  0  0  0  0  0  0  0  0
    1.0054   -3.8633    0.1586 H   0  0  0  0  0  0  0  0  0  0  0  0
   -1.1096   -2.2879    0.4134 H   0  0  0  0  0  0  0  0  0  0  0  0
   -1.4162   -3.5224   -0.8255 H   0  0  0  0  0  0  0  0  0  0  0  0
  1  2  3  0
  2  3  1  0
  3  4  1  0
  4  5  1  0
  5  6  1  0
  6  7  2  0
  7  8  1  0
  8  9  2  0
  9 10  1  0
 10 11  2  0
 11 12  1  0
 12 13  1  0
 13 14  1  0
 14 15  2  0
 15 16  1  0
  7 17  1  0
 17 18  2  0
  4 19  1  0
 19 20  1  0
 20 21  1  0
 21 22  1  0
 22 23  1  0
 23 24  1  0
 24 25  1  0
 25 26  2  0
 25 27  1  0
 27 28  2  0
 28 29  1  0
 29 30  2  0
 30 31  1  0
 31 32  1  0
 32 33  1  0
 32 34  1  0
 32 35  1  0
 31 36  2  0
 36 37  1  0
 24 38  1  0
 38 39  1  0
 20 40  1  0
 40  4  1  0
 18  5  1  0
 39 21  1  0
 16  8  1  0
 36 27  1  0
 16 12  2  0
  3 41  1  0
  3 42  1  0
  6 43  1  0
 10 44  1  0
 13 45  1  0
 14 46  1  0
 15 47  1  0
 17 48  1  0
 19 49  1  0
 19 50  1  0
 21 51  1  0
 22 52  1  0
 22 53  1  0
 23 54  1  0
 23 55  1  0
 28 56  1  0
 29 57  1  0
 38 58  1  0
 38 59  1  0
 39 60  1  0
 39 61  1  0
 40 62  1  0
 40 63  1  0
M  END
$$$$
