
     RDKit          3D

 50 53  0  0  0  0  0  0  0  0999 V2000
   -4.7062    3.8800    1.7875 C   0  0  0  0  0  0  0  0  0  0  0  0
   -3.7665    2.9773    2.5711 C   0  0  0  0  0  0  0  0  0  0  0  0
   -3.0405    2.0286    1.6698 C   0  0  0  0  0  0  0  0  0  0  0  0
   -3.5310    0.8781    1.2680 N   0  0  0  0  0  0  0  0  0  0  0  0
   -2.6182    0.2248    0.4497 C   0  0  0  0  0  0  0  0  0  0  0  0
   -2.9596   -1.0791   -0.1090 C   0  0  0  0  0  0  0  0  0  0  0  0
   -2.0480   -2.1420   -0.1160 C   0  0  0  0  0  0  0  0  0  0  0  0
   -2.4080   -3.3769   -0.6587 C   0  0  0  0  0  0  0  0  0  0  0  0
   -3.6838   -3.5636   -1.1908 C   0  0  0  0  0  0  0  0  0  0  0  0
   -4.6116   -2.5166   -1.1885 C   0  0  0  0  0  0  0  0  0  0  0  0
   -6.0000   -2.7278   -1.7150 C   0  0  0  0  0  0  0  0  0  0  0  0
   -4.2459   -1.2835   -0.6302 C   0  0  0  0  0  0  0  0  0  0  0  0
   -1.4379    0.9191    0.2100 C   0  0  0  0  0  0  0  0  0  0  0  0
   -0.2849    0.6215   -0.6445 C   0  0  0  0  0  0  0  0  0  0  0  0
   -0.4649    0.3550   -2.0005 C   0  0  0  0  0  0  0  0  0  0  0  0
    0.6507    0.0656   -2.7611 C   0  0  0  0  0  0  0  0  0  0  0  0
    1.9041    0.0287   -2.2658 N   0  0  0  0  0  0  0  0  0  0  0  0
    2.0804    0.2816   -0.9597 C   0  0  0  0  0  0  0  0  0  0  0  0
    3.3610    0.2647   -0.3885 N   0  0  0  0  0  0  0  0  0  0  0  0
    4.5230   -0.0975   -1.0403 C   0  0  0  0  0  0  0  0  0  0  0  0
    4.6401   -0.5404   -2.1753 O   0  0  0  0  0  0  0  0  0  0  0  0
    5.7560    0.0323   -0.2124 C   0  0  0  0  0  0  0  0  0  0  0  0
    5.9370    1.1010    0.6764 C   0  0  0  0  0  0  0  0  0  0  0  0
    7.1060    1.1840    1.4362 C   0  0  0  0  0  0  0  0  0  0  0  0
    8.0961    0.2096    1.3051 C   0  0  0  0  0  0  0  0  0  0  0  0
    7.9273   -0.8446    0.4075 C   0  0  0  0  0  0  0  0  0  0  0  0
    6.7617   -0.9313   -0.3550 C   0  0  0  0  0  0  0  0  0  0  0  0
    1.0130    0.5842   -0.1203 C   0  0  0  0  0  0  0  0  0  0  0  0
   -1.4743    2.4052    1.0842 S   0  0  0  0  0  0  0  0  0  0  0  0
   -5.2425    4.5500    2.4669 H   0  0  0  0  0  0  0  0  0  0  0  0
   -4.1573    4.4955    1.0667 H   0  0  0  0  0  0  0  0  0  0  0  0
   -5.4472    3.2943    1.2326 H   0  0  0  0  0  0  0  0  0  0  0  0
   -4.3464    2.3991    3.3004 H   0  0  0  0  0  0  0  0  0  0  0  0
   -3.0610    3.5888    3.1455 H   0  0  0  0  0  0  0  0  0  0  0  0
   -1.0549   -2.0291    0.3106 H   0  0  0  0  0  0  0  0  0  0  0  0
   -1.6946   -4.1973   -0.6593 H   0  0  0  0  0  0  0  0  0  0  0  0
   -3.9522   -4.5348   -1.6008 H   0  0  0  0  0  0  0  0  0  0  0  0
   -6.6574   -3.0702   -0.9100 H   0  0  0  0  0  0  0  0  0  0  0  0
   -6.4043   -1.7997   -2.1326 H   0  0  0  0  0  0  0  0  0  0  0  0
   -6.0048   -3.4733   -2.5171 H   0  0  0  0  0  0  0  0  0  0  0  0
   -4.9692   -0.4697   -0.5987 H   0  0  0  0  0  0  0  0  0  0  0  0
   -1.4471    0.3688   -2.4615 H   0  0  0  0  0  0  0  0  0  0  0  0
    0.5687   -0.1520   -3.8222 H   0  0  0  0  0  0  0  0  0  0  0  0
    3.4183    0.4736    0.5959 H   0  0  0  0  0  0  0  0  0  0  0  0
    5.1960    1.8907    0.7625 H   0  0  0  0  0  0  0  0  0  0  0  0
    7.2531    2.0156    2.1211 H   0  0  0  0  0  0  0  0  0  0  0  0
    9.0082    0.2788    1.8933 H   0  0  0  0  0  0  0  0  0  0  0  0
    8.7053   -1.5957    0.2952 H   0  0  0  0  0  0  0  0  0  0  0  0
    6.6361   -1.7494   -1.0619 H   0  0  0  0  0  0  0  0  0  0  0  0
    1.1785    0.7778    0.9341 H   0  0  0  0  0  0  0  0  0  0  0  0
  1  2  1  0
  2  3  1  0
  3  4  2  0
  4  5  1  0
  5  6  1  0
  6  7  2  0
  7  8  1  0
  8  9  2  0
  9 10  1  0
 10 11  1  0
 10 12  2  0
  5 13  2  0
 13 14  1  0
 14 15  2  0
 15 16  1  0
 16 17  2  0
 17 18  1  0
 18 19  1  0
 19 20  1  0
 20 21  2  0
 20 22  1  0
 22 23  2  0
 23 24  1  0
 24 25  2  0
 25 26  1  0
 26 27  2  0
 18 28  2  0
 13 29  1  0
 29  3  1  0
 12  6  1  0
 28 14  1  0
 27 22  1  0
  1 30  1  0
  1 31  1  0
  1 32  1  0
  2 33  1  0
  2 34  1  0
  7 35  1  0
  8 36  1  0
  9 37  1  0
 11 38  1  0
 11 39  1  0
 11 40  1  0
 12 41  1  0
 15 42  1  0
 16 43  1  0
 19 44  1  0
 23 45  1  0
 24 46  1  0
 25 47  1  0
 26 48  1  0
 27 49  1  0
 28 50  1  0
M  END
$$$$
