
     RDKit          3D

 56 59  0  0  0  0  0  0  0  0999 V2000
   -2.7278    2.8664   -1.3178 C   0  0  0  0  0  0  0  0  0  0  0  0
   -1.9524    1.6453   -1.4339 N   0  0  0  0  0  0  0  0  0  0  0  0
   -2.6832    0.4015   -1.6573 C   0  0  0  0  0  0  0  0  0  0  0  0
   -3.4923   -0.0488   -0.4615 C   0  0  0  0  0  0  0  0  0  0  0  0
   -2.9026   -0.2040    0.7998 C   0  0  0  0  0  0  0  0  0  0  0  0
   -3.6549   -0.6557    1.8823 C   0  0  0  0  0  0  0  0  0  0  0  0
   -5.0024   -0.9709    1.7145 C   0  0  0  0  0  0  0  0  0  0  0  0
   -5.6258   -0.8355    0.4639 C   0  0  0  0  0  0  0  0  0  0  0  0
   -7.0450   -1.1794    0.2824 C   0  0  0  0  0  0  0  0  0  0  0  0
   -7.5303   -2.4482    0.6213 C   0  0  0  0  0  0  0  0  0  0  0  0
   -8.8747   -2.7293    0.4280 C   0  0  0  0  0  0  0  0  0  0  0  0
   -9.7617   -1.8450   -0.0724 N   0  0  0  0  0  0  0  0  0  0  0  0
   -9.2822   -0.6247   -0.3899 C   0  0  0  0  0  0  0  0  0  0  0  0
   -7.9551   -0.2515   -0.2362 C   0  0  0  0  0  0  0  0  0  0  0  0
   -4.8532   -0.3706   -0.6144 C   0  0  0  0  0  0  0  0  0  0  0  0
   -0.5963    1.6787   -1.1352 C   0  0  0  0  0  0  0  0  0  0  0  0
    0.0060    2.7071   -0.8398 O   0  0  0  0  0  0  0  0  0  0  0  0
   -0.0081    0.4170   -1.1997 O   0  0  0  0  0  0  0  0  0  0  0  0
    1.3552    0.3588   -0.8911 C   0  0  0  0  0  0  0  0  0  0  0  0
    2.3055    0.9041   -1.7520 C   0  0  0  0  0  0  0  0  0  0  0  0
    3.6612    0.7769   -1.4388 C   0  0  0  0  0  0  0  0  0  0  0  0
    4.0759    0.0948   -0.2800 C   0  0  0  0  0  0  0  0  0  0  0  0
    5.5034   -0.0283    0.0531 C   0  0  0  0  0  0  0  0  0  0  0  0
    6.3032    1.1124    0.2262 C   0  0  0  0  0  0  0  0  0  0  0  0
    7.6589    1.0021    0.5574 C   0  0  0  0  0  0  0  0  0  0  0  0
    8.2413   -0.2598    0.7150 C   0  0  0  0  0  0  0  0  0  0  0  0
    9.6731   -0.4331    1.0780 C   0  0  0  0  0  0  0  0  0  0  0  0
   10.5243    0.5995    0.7982 N   0  0  0  0  0  0  0  0  0  0  0  0
   10.0910   -1.4699    1.5777 O   0  0  0  0  0  0  0  0  0  0  0  0
    7.4537   -1.4041    0.5559 C   0  0  0  0  0  0  0  0  0  0  0  0
    6.0997   -1.2881    0.2247 C   0  0  0  0  0  0  0  0  0  0  0  0
    3.0909   -0.4627    0.5567 C   0  0  0  0  0  0  0  0  0  0  0  0
    1.7334   -0.3385    0.2520 C   0  0  0  0  0  0  0  0  0  0  0  0
   -3.4531    2.9138   -2.1344 H   0  0  0  0  0  0  0  0  0  0  0  0
   -3.2540    2.8652   -0.3586 H   0  0  0  0  0  0  0  0  0  0  0  0
   -2.0897    3.7521   -1.3663 H   0  0  0  0  0  0  0  0  0  0  0  0
   -2.0082   -0.4108   -1.9414 H   0  0  0  0  0  0  0  0  0  0  0  0
   -3.3354    0.5691   -2.5220 H   0  0  0  0  0  0  0  0  0  0  0  0
   -1.8516    0.0264    0.9515 H   0  0  0  0  0  0  0  0  0  0  0  0
   -3.1899   -0.7651    2.8589 H   0  0  0  0  0  0  0  0  0  0  0  0
   -5.5703   -1.3176    2.5751 H   0  0  0  0  0  0  0  0  0  0  0  0
   -6.8727   -3.2129    1.0216 H   0  0  0  0  0  0  0  0  0  0  0  0
   -9.2835   -3.7052    0.6770 H   0  0  0  0  0  0  0  0  0  0  0  0
  -10.0163    0.0728   -0.7828 H   0  0  0  0  0  0  0  0  0  0  0  0
   -7.6438    0.7528   -0.5043 H   0  0  0  0  0  0  0  0  0  0  0  0
   -5.3193   -0.2757   -1.5960 H   0  0  0  0  0  0  0  0  0  0  0  0
    2.0012    1.4305   -2.6525 H   0  0  0  0  0  0  0  0  0  0  0  0
    4.3999    1.2091   -2.1133 H   0  0  0  0  0  0  0  0  0  0  0  0
    5.8621    2.1035    0.1276 H   0  0  0  0  0  0  0  0  0  0  0  0
    8.2304    1.9103    0.7196 H   0  0  0  0  0  0  0  0  0  0  0  0
   10.2899    1.3140    0.1231 H   0  0  0  0  0  0  0  0  0  0  0  0
   11.5074    0.3992    0.9329 H   0  0  0  0  0  0  0  0  0  0  0  0
    7.8912   -2.3920    0.6901 H   0  0  0  0  0  0  0  0  0  0  0  0
    5.5111   -2.1946    0.0968 H   0  0  0  0  0  0  0  0  0  0  0  0
    3.3805   -0.9882    1.4639 H   0  0  0  0  0  0  0  0  0  0  0  0
    0.9851   -0.7730    0.9067 H   0  0  0  0  0  0  0  0  0  0  0  0
  1  2  1  0
  2  3  1  0
  3  4  1  0
  4  5  2  0
  5  6  1  0
  6  7  2  0
  7  8  1  0
  8  9  1  0
  9 10  2  0
 10 11  1  0
 11 12  2  0
 12 13  1  0
 13 14  2  0
  8 15  2  0
  2 16  1  0
 16 17  2  0
 16 18  1  0
 18 19  1  0
 19 20  2  0
 20 21  1  0
 21 22  2  0
 22 23  1  0
 23 24  2  0
 24 25  1  0
 25 26  2  0
 26 27  1  0
 27 28  1  0
 27 29  2  0
 26 30  1  0
 30 31  2  0
 22 32  1  0
 32 33  2  0
 15  4  1  0
 33 19  1  0
 14  9  1  0
 31 23  1  0
  1 34  1  0
  1 35  1  0
  1 36  1  0
  3 37  1  0
  3 38  1  0
  5 39  1  0
  6 40  1  0
  7 41  1  0
 10 42  1  0
 11 43  1  0
 13 44  1  0
 14 45  1  0
 15 46  1  0
 20 47  1  0
 21 48  1  0
 24 49  1  0
 25 50  1  0
 28 51  1  0
 28 52  1  0
 30 53  1  0
 31 54  1  0
 32 55  1  0
 33 56  1  0
M  END
$$$$
