
     RDKit          3D

 43 44  0  0  0  0  0  0  0  0999 V2000
   -4.4351   -1.9647    0.1746 C   0  0  0  0  0  0  0  0  0  0  0  0
   -3.4609   -0.7780    0.0362 C   0  0  0  0  0  0  0  0  0  0  0  0
   -3.6986    0.1710    1.2187 C   0  0  0  0  0  0  0  0  0  0  0  0
   -3.7455   -0.0731   -1.2949 C   0  0  0  0  0  0  0  0  0  0  0  0
   -2.0289   -1.3302    0.0538 C   0  0  0  0  0  0  0  0  0  0  0  0
   -1.7424   -2.5202   -0.0755 O   0  0  0  0  0  0  0  0  0  0  0  0
   -0.8434   -0.3822    0.3260 C   0  0  0  0  0  0  0  0  0  0  0  0
   -0.9102    0.7627   -0.2787 N   0  0  0  0  0  0  0  0  0  0  0  0
    0.0834    1.7269   -0.1180 C   0  0  0  0  0  0  0  0  0  0  0  0
    1.0755    1.8744   -1.0911 C   0  0  0  0  0  0  0  0  0  0  0  0
    2.0674    2.8473   -0.9503 C   0  0  0  0  0  0  0  0  0  0  0  0
    2.0549    3.6877    0.1600 C   0  0  0  0  0  0  0  0  0  0  0  0
    3.2805    4.8796    0.3446 Cl  0  0  0  0  0  0  0  0  0  0  0  0
    1.0556    3.5683    1.1243 C   0  0  0  0  0  0  0  0  0  0  0  0
    0.0654    2.5935    0.9791 C   0  0  0  0  0  0  0  0  0  0  0  0
    0.1079   -0.9429    1.1792 N   0  0  0  0  0  0  0  0  0  0  0  0
    1.4209   -0.5580    1.2723 N   0  0  0  0  0  0  0  0  0  0  0  0
    2.4299   -1.0249    0.3974 C   0  0  0  0  0  0  0  0  0  0  0  0
    3.7119   -0.4608    0.4773 C   0  0  0  0  0  0  0  0  0  0  0  0
    4.7537   -0.9247   -0.3317 C   0  0  0  0  0  0  0  0  0  0  0  0
    4.5239   -1.9721   -1.2181 C   0  0  0  0  0  0  0  0  0  0  0  0
    5.8020   -2.5444   -2.2167 Cl  0  0  0  0  0  0  0  0  0  0  0  0
    3.2675   -2.5662   -1.2912 C   0  0  0  0  0  0  0  0  0  0  0  0
    2.2296   -2.1020   -0.4764 C   0  0  0  0  0  0  0  0  0  0  0  0
   -4.2511   -2.5218    1.1010 H   0  0  0  0  0  0  0  0  0  0  0  0
   -4.3272   -2.6705   -0.6577 H   0  0  0  0  0  0  0  0  0  0  0  0
   -5.4767   -1.6271    0.1893 H   0  0  0  0  0  0  0  0  0  0  0  0
   -3.4080   -0.3021    2.1631 H   0  0  0  0  0  0  0  0  0  0  0  0
   -3.1251    1.0968    1.1290 H   0  0  0  0  0  0  0  0  0  0  0  0
   -4.7567    0.4511    1.2995 H   0  0  0  0  0  0  0  0  0  0  0  0
   -3.4851   -0.7140   -2.1443 H   0  0  0  0  0  0  0  0  0  0  0  0
   -3.1753    0.8534   -1.4022 H   0  0  0  0  0  0  0  0  0  0  0  0
   -4.8052    0.1916   -1.3844 H   0  0  0  0  0  0  0  0  0  0  0  0
    1.0781    1.2187   -1.9580 H   0  0  0  0  0  0  0  0  0  0  0  0
    2.8380    2.9424   -1.7089 H   0  0  0  0  0  0  0  0  0  0  0  0
    1.0341    4.2355    1.9817 H   0  0  0  0  0  0  0  0  0  0  0  0
   -0.7251    2.5087    1.7205 H   0  0  0  0  0  0  0  0  0  0  0  0
   -0.0438   -1.9459    1.3295 H   0  0  0  0  0  0  0  0  0  0  0  0
    1.5703    0.4138    1.5489 H   0  0  0  0  0  0  0  0  0  0  0  0
    3.9101    0.3526    1.1719 H   0  0  0  0  0  0  0  0  0  0  0  0
    5.7365   -0.4673   -0.2604 H   0  0  0  0  0  0  0  0  0  0  0  0
    3.0870   -3.3956   -1.9707 H   0  0  0  0  0  0  0  0  0  0  0  0
    1.2602   -2.5875   -0.5484 H   0  0  0  0  0  0  0  0  0  0  0  0
  1  2  1  0
  2  3  1  0
  2  4  1  0
  2  5  1  0
  5  6  2  0
  5  7  1  0
  7  8  2  0
  8  9  1  0
  9 10  2  0
 10 11  1  0
 11 12  2  0
 12 13  1  0
 12 14  1  0
 14 15  2  0
  7 16  1  0
 16 17  1  0
 17 18  1  0
 18 19  2  0
 19 20  1  0
 20 21  2  0
 21 22  1  0
 21 23  1  0
 23 24  2  0
 15  9  1  0
 24 18  1  0
  1 25  1  0
  1 26  1  0
  1 27  1  0
  3 28  1  0
  3 29  1  0
  3 30  1  0
  4 31  1  0
  4 32  1  0
  4 33  1  0
 10 34  1  0
 11 35  1  0
 14 36  1  0
 15 37  1  0
 16 38  1  0
 17 39  1  0
 19 40  1  0
 20 41  1  0
 23 42  1  0
 24 43  1  0
M  END
$$$$
