
     RDKit          3D

 74 78  0  0  0  0  0  0  0  0999 V2000
    2.7771   -3.6539    0.7794 C   0  0  0  0  0  0  0  0  0  0  0  0
    1.4974   -3.0496    0.9232 O   0  0  0  0  0  0  0  0  0  0  0  0
    1.3589   -1.7463    0.4996 C   0  0  0  0  0  0  0  0  0  0  0  0
    2.4069   -0.9503    0.0237 C   0  0  0  0  0  0  0  0  0  0  0  0
    2.1554    0.3688   -0.3724 C   0  0  0  0  0  0  0  0  0  0  0  0
    3.2396    1.2560   -0.8725 C   0  0  0  0  0  0  0  0  0  0  0  0
    2.9960    2.1100   -1.7175 O   0  0  0  0  0  0  0  0  0  0  0  0
    4.4833    1.0722   -0.3049 N   0  0  0  0  0  0  0  0  0  0  0  0
    5.6495    1.8425   -0.7302 C   0  0  0  0  0  0  0  0  0  0  0  0
    6.2369    1.2922   -2.0382 C   0  0  0  0  0  0  0  0  0  0  0  0
    7.3270    0.2583   -1.7674 C   0  0  0  0  0  0  0  0  0  0  0  0
    8.4322    0.7575   -0.9364 N   0  0  0  0  0  0  0  0  0  0  0  0
    9.6570    0.9458   -1.7101 C   0  0  0  0  0  0  0  0  0  0  0  0
    8.1071    1.9696   -0.1744 C   0  0  0  0  0  0  0  0  0  0  0  0
    6.6939    1.8959    0.3931 C   0  0  0  0  0  0  0  0  0  0  0  0
    0.8552    0.8757   -0.3205 C   0  0  0  0  0  0  0  0  0  0  0  0
   -0.1897    0.0812    0.1587 C   0  0  0  0  0  0  0  0  0  0  0  0
    0.0402   -1.2321    0.5809 C   0  0  0  0  0  0  0  0  0  0  0  0
   -0.9686   -2.0712    1.0779 N   0  0  0  0  0  0  0  0  0  0  0  0
   -2.3383   -1.9588    1.2634 C   0  0  0  0  0  0  0  0  0  0  0  0
   -2.9297   -3.0402    1.7889 N   0  0  0  0  0  0  0  0  0  0  0  0
   -4.2581   -2.9710    2.0008 C   0  0  0  0  0  0  0  0  0  0  0  0
   -5.0349   -1.8663    1.7159 C   0  0  0  0  0  0  0  0  0  0  0  0
   -4.3449   -0.8090    1.1098 C   0  0  0  0  0  0  0  0  0  0  0  0
   -3.0118   -0.8523    0.9172 N   0  0  0  0  0  0  0  0  0  0  0  0
   -5.0823    0.2871    0.5788 N   0  0  0  0  0  0  0  0  0  0  0  0
   -4.4035    0.9760   -0.5416 C   0  0  0  0  0  0  0  0  0  0  0  0
   -4.1969    0.0621   -1.7571 C   0  0  0  0  0  0  0  0  0  0  0  0
   -3.9372    1.0362   -2.8949 C   0  0  0  0  0  0  0  0  0  0  0  0
   -4.8405    2.2273   -2.6055 C   0  0  0  0  0  0  0  0  0  0  0  0
   -5.2829    2.0814   -1.1507 C   0  0  0  0  0  0  0  0  0  0  0  0
   -5.5390    1.1764    1.6769 C   0  0  0  0  0  0  0  0  0  0  0  0
   -6.2245    0.4989    2.8614 C   0  0  0  0  0  0  0  0  0  0  0  0
   -5.2727    0.0950    3.7620 F   0  0  0  0  0  0  0  0  0  0  0  0
   -6.9468    1.4520    3.5313 F   0  0  0  0  0  0  0  0  0  0  0  0
   -7.1025   -0.6752    2.4062 C   0  0  0  0  0  0  0  0  0  0  0  0
   -8.3352   -0.6229    2.4833 O   0  0  0  0  0  0  0  0  0  0  0  0
   -6.4391   -1.8367    1.9824 N   0  0  0  0  0  0  0  0  0  0  0  0
   -7.1950   -3.0760    1.8936 C   0  0  0  0  0  0  0  0  0  0  0  0
    3.5215   -3.1531    1.4076 H   0  0  0  0  0  0  0  0  0  0  0  0
    3.0902   -3.6742   -0.2702 H   0  0  0  0  0  0  0  0  0  0  0  0
    2.6975   -4.6904    1.1208 H   0  0  0  0  0  0  0  0  0  0  0  0
    3.4109   -1.3462   -0.0658 H   0  0  0  0  0  0  0  0  0  0  0  0
    4.5927    0.4201    0.4583 H   0  0  0  0  0  0  0  0  0  0  0  0
    5.2986    2.8628   -0.9317 H   0  0  0  0  0  0  0  0  0  0  0  0
    6.6723    2.1199   -2.6142 H   0  0  0  0  0  0  0  0  0  0  0  0
    5.4576    0.8524   -2.6717 H   0  0  0  0  0  0  0  0  0  0  0  0
    6.8777   -0.5942   -1.2420 H   0  0  0  0  0  0  0  0  0  0  0  0
    7.6903   -0.1446   -2.7210 H   0  0  0  0  0  0  0  0  0  0  0  0
    9.9751   -0.0005   -2.1634 H   0  0  0  0  0  0  0  0  0  0  0  0
   10.4784    1.2729   -1.0613 H   0  0  0  0  0  0  0  0  0  0  0  0
    9.5292    1.6882   -2.5067 H   0  0  0  0  0  0  0  0  0  0  0  0
    8.8188    2.0743    0.6531 H   0  0  0  0  0  0  0  0  0  0  0  0
    8.1997    2.8702   -0.7961 H   0  0  0  0  0  0  0  0  0  0  0  0
    6.4990    2.7655    1.0328 H   0  0  0  0  0  0  0  0  0  0  0  0
    6.6175    1.0169    1.0477 H   0  0  0  0  0  0  0  0  0  0  0  0
    0.6508    1.8951   -0.6437 H   0  0  0  0  0  0  0  0  0  0  0  0
   -1.1828    0.5155    0.2002 H   0  0  0  0  0  0  0  0  0  0  0  0
   -0.6444   -2.9901    1.3574 H   0  0  0  0  0  0  0  0  0  0  0  0
   -4.6753   -3.8631    2.4567 H   0  0  0  0  0  0  0  0  0  0  0  0
   -3.4516    1.4212   -0.2201 H   0  0  0  0  0  0  0  0  0  0  0  0
   -3.3630   -0.6361   -1.6421 H   0  0  0  0  0  0  0  0  0  0  0  0
   -5.0997   -0.5275   -1.9616 H   0  0  0  0  0  0  0  0  0  0  0  0
   -4.1382    0.5920   -3.8744 H   0  0  0  0  0  0  0  0  0  0  0  0
   -2.8877    1.3536   -2.8808 H   0  0  0  0  0  0  0  0  0  0  0  0
   -5.7154    2.2250   -3.2665 H   0  0  0  0  0  0  0  0  0  0  0  0
   -4.3070    3.1699   -2.7727 H   0  0  0  0  0  0  0  0  0  0  0  0
   -5.1842    3.0270   -0.6069 H   0  0  0  0  0  0  0  0  0  0  0  0
   -6.3437    1.8004   -1.1250 H   0  0  0  0  0  0  0  0  0  0  0  0
   -6.2587    1.8915    1.2620 H   0  0  0  0  0  0  0  0  0  0  0  0
   -4.6901    1.7675    2.0466 H   0  0  0  0  0  0  0  0  0  0  0  0
   -6.8467   -3.6706    1.0430 H   0  0  0  0  0  0  0  0  0  0  0  0
   -7.0666   -3.6364    2.8248 H   0  0  0  0  0  0  0  0  0  0  0  0
   -8.2625   -2.8816    1.7552 H   0  0  0  0  0  0  0  0  0  0  0  0
  1  2  1  0
  2  3  1  0
  3  4  2  0
  4  5  1  0
  5  6  1  0
  6  7  2  0
  6  8  1  0
  8  9  1  0
  9 10  1  0
 10 11  1  0
 11 12  1  0
 12 13  1  0
 12 14  1  0
 14 15  1  0
  5 16  2  0
 16 17  1  0
 17 18  2  0
 18 19  1  0
 19 20  1  0
 20 21  2  0
 21 22  1  0
 22 23  2  0
 23 24  1  0
 24 25  2  0
 24 26  1  0
 26 27  1  0
 27 28  1  0
 28 29  1  0
 29 30  1  0
 30 31  1  0
 26 32  1  0
 32 33  1  0
 33 34  1  0
 33 35  1  0
 33 36  1  0
 36 37  2  0
 36 38  1  0
 38 39  1  0
 18  3  1  0
 25 20  1  0
 31 27  1  0
 15  9  1  0
 38 23  1  0
  1 40  1  0
  1 41  1  0
  1 42  1  0
  4 43  1  0
  8 44  1  0
  9 45  1  0
 10 46  1  0
 10 47  1  0
 11 48  1  0
 11 49  1  0
 13 50  1  0
 13 51  1  0
 13 52  1  0
 14 53  1  0
 14 54  1  0
 15 55  1  0
 15 56  1  0
 16 57  1  0
 17 58  1  0
 19 59  1  0
 22 60  1  0
 27 61  1  0
 28 62  1  0
 28 63  1  0
 29 64  1  0
 29 65  1  0
 30 66  1  0
 30 67  1  0
 31 68  1  0
 31 69  1  0
 32 70  1  0
 32 71  1  0
 39 72  1  0
 39 73  1  0
 39 74  1  0
M  END
$$$$
