
     RDKit          3D

 62 61  0  0  0  0  0  0  0  0999 V2000
    6.1924    4.6045   -1.9928 C   0  0  0  0  0  0  0  0  0  0  0  0
    5.0745    3.6414   -1.6229 C   0  0  0  0  0  0  0  0  0  0  0  0
    5.0150    2.4599   -2.5916 C   0  0  0  0  0  0  0  0  0  0  0  0
    3.8359    1.5172   -2.3338 C   0  0  0  0  0  0  0  0  0  0  0  0
    3.9239    0.7847   -0.9920 C   0  0  0  0  0  0  0  0  0  0  0  0
    2.7967   -0.2421   -0.8485 C   0  0  0  0  0  0  0  0  0  0  0  0
    2.8965   -1.0781    0.4315 C   0  0  0  0  0  0  0  0  0  0  0  0
    2.6715   -0.2629    1.7076 C   0  0  0  0  0  0  0  0  0  0  0  0
    2.7124   -1.1472    2.9232 C   0  0  0  0  0  0  0  0  0  0  0  0
    1.6957   -1.4698    3.7392 C   0  0  0  0  0  0  0  0  0  0  0  0
    0.2648   -1.0228    3.6419 C   0  0  0  0  0  0  0  0  0  0  0  0
   -0.6371   -2.1677    3.1743 C   0  0  0  0  0  0  0  0  0  0  0  0
   -2.0963   -1.7174    3.0771 C   0  0  0  0  0  0  0  0  0  0  0  0
   -3.0554   -2.8436    2.6805 C   0  0  0  0  0  0  0  0  0  0  0  0
   -2.7859   -3.4990    1.3217 C   0  0  0  0  0  0  0  0  0  0  0  0
   -2.7387   -2.5470    0.1233 C   0  0  0  0  0  0  0  0  0  0  0  0
   -4.0444   -1.7857   -0.0980 C   0  0  0  0  0  0  0  0  0  0  0  0
   -4.0026   -0.9250   -1.3485 C   0  0  0  0  0  0  0  0  0  0  0  0
   -3.0270   -0.8410   -2.0844 O   0  0  0  0  0  0  0  0  0  0  0  0
   -5.1807   -0.2344   -1.5551 N   0  0  0  0  0  0  0  0  0  0  0  0
   -5.3971    0.5343   -2.7684 C   0  0  0  0  0  0  0  0  0  0  0  0
   -6.2953    1.7448   -2.5285 C   0  0  0  0  0  0  0  0  0  0  0  0
   -6.5922    2.3861   -3.7618 O   0  0  0  0  0  0  0  0  0  0  0  0
    6.2215    5.4408   -1.2876 H   0  0  0  0  0  0  0  0  0  0  0  0
    6.0424    5.0128   -2.9973 H   0  0  0  0  0  0  0  0  0  0  0  0
    7.1658    4.1042   -1.9668 H   0  0  0  0  0  0  0  0  0  0  0  0
    4.1195    4.1792   -1.6312 H   0  0  0  0  0  0  0  0  0  0  0  0
    5.2419    3.2879   -0.6001 H   0  0  0  0  0  0  0  0  0  0  0  0
    5.9540    1.8949   -2.5446 H   0  0  0  0  0  0  0  0  0  0  0  0
    4.9285    2.8416   -3.6166 H   0  0  0  0  0  0  0  0  0  0  0  0
    3.8081    0.7788   -3.1448 H   0  0  0  0  0  0  0  0  0  0  0  0
    2.8958    2.0799   -2.3872 H   0  0  0  0  0  0  0  0  0  0  0  0
    4.8934    0.2784   -0.9124 H   0  0  0  0  0  0  0  0  0  0  0  0
    3.8647    1.5106   -0.1751 H   0  0  0  0  0  0  0  0  0  0  0  0
    1.8249    0.2655   -0.8835 H   0  0  0  0  0  0  0  0  0  0  0  0
    2.8259   -0.9272   -1.7051 H   0  0  0  0  0  0  0  0  0  0  0  0
    2.1429   -1.8748    0.3765 H   0  0  0  0  0  0  0  0  0  0  0  0
    3.8746   -1.5743    0.4688 H   0  0  0  0  0  0  0  0  0  0  0  0
    1.7265    0.2821    1.6307 H   0  0  0  0  0  0  0  0  0  0  0  0
    3.4570    0.4925    1.8206 H   0  0  0  0  0  0  0  0  0  0  0  0
    3.6910   -1.5710    3.1490 H   0  0  0  0  0  0  0  0  0  0  0  0
    1.9134   -2.1366    4.5736 H   0  0  0  0  0  0  0  0  0  0  0  0
   -0.0547   -0.6785    4.6333 H   0  0  0  0  0  0  0  0  0  0  0  0
    0.1513   -0.1659    2.9714 H   0  0  0  0  0  0  0  0  0  0  0  0
   -0.5603   -3.0119    3.8714 H   0  0  0  0  0  0  0  0  0  0  0  0
   -0.2885   -2.5229    2.1972 H   0  0  0  0  0  0  0  0  0  0  0  0
   -2.1827   -0.8839    2.3705 H   0  0  0  0  0  0  0  0  0  0  0  0
   -2.4153   -1.3275    4.0520 H   0  0  0  0  0  0  0  0  0  0  0  0
   -4.0792   -2.4513    2.6966 H   0  0  0  0  0  0  0  0  0  0  0  0
   -3.0222   -3.6245    3.4507 H   0  0  0  0  0  0  0  0  0  0  0  0
   -3.5630   -4.2532    1.1441 H   0  0  0  0  0  0  0  0  0  0  0  0
   -1.8395   -4.0509    1.3665 H   0  0  0  0  0  0  0  0  0  0  0  0
   -2.5119   -3.1390   -0.7728 H   0  0  0  0  0  0  0  0  0  0  0  0
   -1.9075   -1.8407    0.2325 H   0  0  0  0  0  0  0  0  0  0  0  0
   -4.2521   -1.1272    0.7522 H   0  0  0  0  0  0  0  0  0  0  0  0
   -4.8747   -2.4946   -0.1974 H   0  0  0  0  0  0  0  0  0  0  0  0
   -5.9983   -0.5525   -1.0509 H   0  0  0  0  0  0  0  0  0  0  0  0
   -5.8523   -0.1372   -3.5053 H   0  0  0  0  0  0  0  0  0  0  0  0
   -4.4402    0.8592   -3.1929 H   0  0  0  0  0  0  0  0  0  0  0  0
   -7.2385    1.4409   -2.0622 H   0  0  0  0  0  0  0  0  0  0  0  0
   -5.7993    2.4619   -1.8659 H   0  0  0  0  0  0  0  0  0  0  0  0
   -7.0894    3.1953   -3.5521 H   0  0  0  0  0  0  0  0  0  0  0  0
  1  2  1  0
  2  3  1  0
  3  4  1  0
  4  5  1  0
  5  6  1  0
  6  7  1  0
  7  8  1  0
  8  9  1  0
  9 10  2  0
 10 11  1  0
 11 12  1  0
 12 13  1  0
 13 14  1  0
 14 15  1  0
 15 16  1  0
 16 17  1  0
 17 18  1  0
 18 19  2  0
 18 20  1  0
 20 21  1  0
 21 22  1  0
 22 23  1  0
  1 24  1  0
  1 25  1  0
  1 26  1  0
  2 27  1  0
  2 28  1  0
  3 29  1  0
  3 30  1  0
  4 31  1  0
  4 32  1  0
  5 33  1  0
  5 34  1  0
  6 35  1  0
  6 36  1  0
  7 37  1  0
  7 38  1  0
  8 39  1  0
  8 40  1  0
  9 41  1  0
 10 42  1  0
 11 43  1  0
 11 44  1  0
 12 45  1  0
 12 46  1  0
 13 47  1  0
 13 48  1  0
 14 49  1  0
 14 50  1  0
 15 51  1  0
 15 52  1  0
 16 53  1  0
 16 54  1  0
 17 55  1  0
 17 56  1  0
 20 57  1  0
 21 58  1  0
 21 59  1  0
 22 60  1  0
 22 61  1  0
 23 62  1  0
M  END
$$$$
