
     RDKit          3D

 43 44  0  0  0  0  0  0  0  0999 V2000
   -1.8210    0.5366   -1.3652 C   0  0  0  0  0  0  0  0  0  0  0  0
   -2.9362    0.6477   -0.4087 C   0  0  0  0  0  0  0  0  0  0  0  0
   -3.7533    1.7650   -0.5255 C   0  0  0  0  0  0  0  0  0  0  0  0
   -4.8176    1.9533    0.3240 C   0  0  0  0  0  0  0  0  0  0  0  0
   -5.0428    0.9983    1.2902 C   0  0  0  0  0  0  0  0  0  0  0  0
   -6.1381    1.1780    2.1759 N   0  0  0  0  0  4  0  0  0  0  0  0
   -6.8816    2.1644    2.0934 O   0  0  0  0  0  0  0  0  0  0  0  0
   -6.3967    0.2528    3.1499 O   0  0  0  0  0  1  0  0  0  0  0  0
   -4.2301   -0.1139    1.4072 C   0  0  0  0  0  0  0  0  0  0  0  0
   -3.1504   -0.3155    0.5536 C   0  0  0  0  0  0  0  0  0  0  0  0
   -2.0893   -1.6763    0.6322 S   0  0  0  0  0  6  0  0  0  0  0  0
   -2.1304   -2.5496   -0.5740 O   0  0  0  0  0  0  0  0  0  0  0  0
   -2.4836   -2.5620    1.8082 O   0  0  0  0  0  0  0  0  0  0  0  0
   -0.4483   -1.2253    0.9121 N   0  0  0  0  0  0  0  0  0  0  0  0
   -0.1733   -0.5296    2.1557 C   0  0  0  0  0  0  0  0  0  0  0  0
    0.5807   -1.4941    0.0229 N   0  0  0  0  0  0  0  0  0  0  0  0
    1.6783   -0.8286    0.0159 C   0  0  0  0  0  0  0  0  0  0  0  0
    2.7677   -1.1060   -0.9184 C   0  0  0  0  0  0  0  0  0  0  0  0
    2.8522   -2.0491   -1.9023 C   0  0  0  0  0  0  0  0  0  0  0  0
    4.0406   -1.9287   -2.5030 N   0  0  0  0  0  0  0  0  0  0  0  0
    4.7317   -0.9139   -1.9180 C   0  0  0  0  0  0  0  0  0  0  0  0
    5.9883   -0.3964   -2.1673 C   0  0  0  0  0  0  0  0  0  0  0  0
    6.4662    0.6551   -1.4167 C   0  0  0  0  0  0  0  0  0  0  0  0
    5.6509    1.1547   -0.4289 C   0  0  0  0  0  0  0  0  0  0  0  0
    6.3174    2.6157    0.6122 Br  0  0  0  0  0  0  0  0  0  0  0  0
    4.4113    0.6076   -0.2192 C   0  0  0  0  0  0  0  0  0  0  0  0
    3.9312   -0.4328   -0.9573 N   0  0  0  0  0  0  0  0  0  0  0  0
    0.6914    0.0000    0.0000 Cl  0  0  0  0  0  0  0  0  0  0  0  0
   -2.2025    0.9069   -2.3581 H   0  0  0  0  0  0  0  0  0  0  0  0
   -1.5315   -0.5080   -1.5298 H   0  0  0  0  0  0  0  0  0  0  0  0
   -0.9794    1.2049   -1.1084 H   0  0  0  0  0  0  0  0  0  0  0  0
   -3.5781    2.5232   -1.2892 H   0  0  0  0  0  0  0  0  0  0  0  0
   -5.4748    2.8268    0.2500 H   0  0  0  0  0  0  0  0  0  0  0  0
   -4.3845   -0.8823    2.1594 H   0  0  0  0  0  0  0  0  0  0  0  0
   -0.9682   -0.7280    2.9268 H   0  0  0  0  0  0  0  0  0  0  0  0
    0.8344   -0.7497    2.5503 H   0  0  0  0  0  0  0  0  0  0  0  0
   -0.2569    0.5601    1.9290 H   0  0  0  0  0  0  0  0  0  0  0  0
    1.7669   -0.0361    0.7456 H   0  0  0  0  0  0  0  0  0  0  0  0
    2.0583   -2.7551   -2.1197 H   0  0  0  0  0  0  0  0  0  0  0  0
    6.5668   -0.8426   -2.9589 H   0  0  0  0  0  0  0  0  0  0  0  0
    7.4431    1.0690   -1.5991 H   0  0  0  0  0  0  0  0  0  0  0  0
    3.7826    1.0036    0.5532 H   0  0  0  0  0  0  0  0  0  0  0  0
   -0.6914    0.0000    0.0000 H   0  0  0  0  0  0  0  0  0  0  0  0
  1  2  1  0
  2  3  2  0
  3  4  1  0
  4  5  2  0
  5  6  1  0
  6  7  2  0
  6  8  1  0
  5  9  1  0
  9 10  2  0
 10 11  1  0
 11 12  2  0
 11 13  2  0
 11 14  1  0
 14 15  1  0
 14 16  1  0
 16 17  2  0
 17 18  1  0
 18 19  2  0
 19 20  1  0
 20 21  2  0
 21 22  1  0
 22 23  2  0
 23 24  1  0
 24 25  1  0
 24 26  2  0
 26 27  1  0
 10  2  1  0
 27 18  1  0
 27 21  1  0
  1 29  1  0
  1 30  1  0
  1 31  1  0
  3 32  1  0
  4 33  1  0
  9 34  1  0
 15 35  1  0
 15 36  1  0
 15 37  1  0
 17 38  1  0
 19 39  1  0
 22 40  1  0
 23 41  1  0
 26 42  1  0
 28 43  1  0
M  CHG  2   6   1   8  -1
M  END
$$$$
