
     RDKit          3D

 39 40  0  0  0  0  0  0  0  0999 V2000
   -5.2347    2.0241   -0.3960 C   0  0  0  0  0  0  0  0  0  0  0  0
   -5.0167    0.9043    0.5203 N   0  0  0  0  0  0  0  0  0  0  0  0
   -6.2171    0.1540    0.8906 C   0  0  0  0  0  0  0  0  0  0  0  0
   -3.7741    0.2642    0.5265 C   0  0  0  0  0  0  0  0  0  0  0  0
   -3.5980   -1.0281    1.0400 C   0  0  0  0  0  0  0  0  0  0  0  0
   -2.3453   -1.6554    1.0607 C   0  0  0  0  0  0  0  0  0  0  0  0
   -1.2056   -1.0136    0.5796 C   0  0  0  0  0  0  0  0  0  0  0  0
   -0.0026   -1.7290    0.6498 N   0  0  0  0  0  0  0  0  0  0  0  0
    1.1149   -1.2041    0.2724 C   0  0  0  0  0  0  0  0  0  0  0  0
    2.3140   -2.0657    0.4120 C   0  0  0  0  0  0  0  0  0  0  0  0
    3.5496   -1.6617    0.1057 C   0  0  0  0  0  0  0  0  0  0  0  0
    3.8172   -0.2881   -0.4076 C   0  0  0  0  0  0  0  0  0  0  0  0
    5.0210    0.1363   -0.6775 N   0  0  0  0  0  4  0  0  0  0  0  0
    5.3097    1.5519   -1.0782 C   0  0  0  0  0  0  0  0  0  0  0  0
    6.2253   -0.7534   -0.6052 C   0  0  0  0  0  0  0  0  0  0  0  0
    2.6031    0.5629   -0.5922 C   0  0  0  0  0  0  0  0  0  0  0  0
    1.3630    0.1524   -0.2842 C   0  0  0  0  0  0  0  0  0  0  0  0
    0.0341    1.2157   -0.5585 S   0  0  0  0  0  0  0  0  0  0  0  0
   -1.3398    0.2792    0.0753 C   0  0  0  0  0  0  0  0  0  0  0  0
   -2.6081    0.8969    0.0577 C   0  0  0  0  0  0  0  0  0  0  0  0
    0.0000    0.0000    0.0000 Cl  0  0  0  0  0 15  0  0  0  0  0  0
   -6.2691    2.3831   -0.3513 H   0  0  0  0  0  0  0  0  0  0  0  0
   -5.0342    1.7293   -1.4321 H   0  0  0  0  0  0  0  0  0  0  0  0
   -4.6067    2.8806   -0.1292 H   0  0  0  0  0  0  0  0  0  0  0  0
   -6.1323   -0.2563    1.9028 H   0  0  0  0  0  0  0  0  0  0  0  0
   -7.1007    0.8022    0.9037 H   0  0  0  0  0  0  0  0  0  0  0  0
   -6.4088   -0.6562    0.1786 H   0  0  0  0  0  0  0  0  0  0  0  0
   -4.4343   -1.5944    1.4393 H   0  0  0  0  0  0  0  0  0  0  0  0
   -2.2631   -2.6620    1.4645 H   0  0  0  0  0  0  0  0  0  0  0  0
    2.1278   -3.0655    0.7977 H   0  0  0  0  0  0  0  0  0  0  0  0
    4.3627   -2.3628    0.2612 H   0  0  0  0  0  0  0  0  0  0  0  0
    4.7827    2.2293   -0.4008 H   0  0  0  0  0  0  0  0  0  0  0  0
    4.9880    1.6844   -2.1142 H   0  0  0  0  0  0  0  0  0  0  0  0
    6.3816    1.7483   -0.9898 H   0  0  0  0  0  0  0  0  0  0  0  0
    6.0106   -1.6866   -1.1329 H   0  0  0  0  0  0  0  0  0  0  0  0
    7.0718   -0.2691   -1.0995 H   0  0  0  0  0  0  0  0  0  0  0  0
    6.4566   -0.9285    0.4485 H   0  0  0  0  0  0  0  0  0  0  0  0
    2.7261    1.5573   -1.0113 H   0  0  0  0  0  0  0  0  0  0  0  0
   -2.6684    1.9114   -0.3264 H   0  0  0  0  0  0  0  0  0  0  0  0
  1  2  1  0
  2  3  1  0
  2  4  1  0
  4  5  2  0
  5  6  1  0
  6  7  2  0
  7  8  1  0
  8  9  2  0
  9 10  1  0
 10 11  2  0
 11 12  1  0
 12 13  2  3
 13 14  1  0
 13 15  1  0
 12 16  1  0
 16 17  2  0
 17 18  1  0
 18 19  1  0
 19 20  2  0
 20  4  1  0
 19  7  1  0
 17  9  1  0
  1 22  1  0
  1 23  1  0
  1 24  1  0
  3 25  1  0
  3 26  1  0
  3 27  1  0
  5 28  1  0
  6 29  1  0
 10 30  1  0
 11 31  1  0
 14 32  1  0
 14 33  1  0
 14 34  1  0
 15 35  1  0
 15 36  1  0
 15 37  1  0
 16 38  1  0
 20 39  1  0
M  CHG  2  13   1  21  -1
M  END
$$$$
