
     RDKit          3D

 26 27  0  0  0  0  0  0  0  0999 V2000
   -3.6629   -2.3106    0.5485 O   0  0  0  0  0  0  0  0  0  0  0  0
   -2.6638   -1.7715    0.1075 C   0  0  0  0  0  0  0  0  0  0  0  0
   -1.7281   -2.4906   -0.5446 O   0  0  0  0  0  0  0  0  0  0  0  0
   -2.3873   -0.3190    0.1413 C   0  0  0  0  0  0  0  0  0  0  0  0
   -3.4934    0.5279    0.3093 C   0  0  0  0  0  0  0  0  0  0  0  0
   -3.3109    1.9031    0.3310 C   0  0  0  0  0  0  0  0  0  0  0  0
   -2.0247    2.3811    0.1883 C   0  0  0  0  0  0  0  0  0  0  0  0
   -0.9405    1.5879    0.0386 N   0  0  0  0  0  0  0  0  0  0  0  0
   -1.1047    0.2407    0.0142 C   0  0  0  0  0  0  0  0  0  0  0  0
    0.0308   -0.5990   -0.0704 N   0  0  0  0  0  0  0  0  0  0  0  0
    1.4059   -0.2997   -0.1018 C   0  0  0  0  0  0  0  0  0  0  0  0
    2.2949   -1.2755   -0.5851 C   0  0  0  0  0  0  0  0  0  0  0  0
    3.6767   -1.0571   -0.6006 C   0  0  0  0  0  0  0  0  0  0  0  0
    4.1901    0.1391   -0.1118 C   0  0  0  0  0  0  0  0  0  0  0  0
    5.8880    0.4131   -0.1259 Cl  0  0  0  0  0  0  0  0  0  0  0  0
    3.3342    1.1088    0.3983 C   0  0  0  0  0  0  0  0  0  0  0  0
    1.9525    0.8825    0.4105 C   0  0  0  0  0  0  0  0  0  0  0  0
   -2.0853   -3.4059   -0.5053 H   0  0  0  0  0  0  0  0  0  0  0  0
   -4.4939    0.1145    0.4186 H   0  0  0  0  0  0  0  0  0  0  0  0
   -4.1477    2.5812    0.4554 H   0  0  0  0  0  0  0  0  0  0  0  0
   -1.8176    3.4478    0.1954 H   0  0  0  0  0  0  0  0  0  0  0  0
   -0.2078   -1.4413   -0.5944 H   0  0  0  0  0  0  0  0  0  0  0  0
    1.9156   -2.2224   -0.9619 H   0  0  0  0  0  0  0  0  0  0  0  0
    4.3400   -1.8242   -0.9898 H   0  0  0  0  0  0  0  0  0  0  0  0
    3.7268    2.0406    0.7953 H   0  0  0  0  0  0  0  0  0  0  0  0
    1.3128    1.6484    0.8393 H   0  0  0  0  0  0  0  0  0  0  0  0
  1  2  2  0
  2  3  1  0
  2  4  1  0
  4  5  2  0
  5  6  1  0
  6  7  2  0
  7  8  1  0
  8  9  2  0
  9 10  1  0
 10 11  1  0
 11 12  2  0
 12 13  1  0
 13 14  2  0
 14 15  1  0
 14 16  1  0
 16 17  2  0
  9  4  1  0
 17 11  1  0
  3 18  1  0
  5 19  1  0
  6 20  1  0
  7 21  1  0
 10 22  1  0
 12 23  1  0
 13 24  1  0
 16 25  1  0
 17 26  1  0
M  END
$$$$
