
     RDKit          3D

 60 64  0  0  0  0  0  0  0  0999 V2000
    0.8049   -1.6324    2.5160 C   0  0  0  0  0  0  0  0  0  0  0  0
    1.5593   -0.6249    1.8579 O   0  0  0  0  0  0  0  0  0  0  0  0
    0.9387    0.0822    0.8660 C   0  0  0  0  0  0  0  0  0  0  0  0
   -0.3191   -0.2127    0.3420 C   0  0  0  0  0  0  0  0  0  0  0  0
   -0.8734    0.5794   -0.6951 C   0  0  0  0  0  0  0  0  0  0  0  0
   -2.1112    0.3525   -1.3041 C   0  0  0  0  0  0  0  0  0  0  0  0
   -2.8051   -0.7909   -0.9108 O   0  0  0  0  0  0  0  0  0  0  0  0
   -4.1449   -0.8157   -1.2158 C   0  0  0  0  0  0  0  0  0  0  0  0
   -4.5751   -1.6202   -2.2706 C   0  0  0  0  0  0  0  0  0  0  0  0
   -5.9356   -1.7177   -2.5838 C   0  0  0  0  0  0  0  0  0  0  0  0
   -6.8405   -0.9980   -1.7882 C   0  0  0  0  0  0  0  0  0  0  0  0
   -8.2125   -0.9142   -1.8585 N   0  0  0  0  0  0  0  0  0  0  0  0
   -8.6965   -0.1063   -0.8565 C   0  0  0  0  0  0  0  0  0  0  0  0
  -10.1470    0.1511   -0.6836 C   0  0  0  0  0  0  0  0  0  0  0  0
   -7.6107    0.3519   -0.1391 C   0  0  0  0  0  0  0  0  0  0  0  0
   -6.4347   -0.2035   -0.7143 C   0  0  0  0  0  0  0  0  0  0  0  0
   -5.0616   -0.1169   -0.4235 C   0  0  0  0  0  0  0  0  0  0  0  0
   -4.6336    0.6127    0.6194 F   0  0  0  0  0  0  0  0  0  0  0  0
   -2.6230    1.1129   -2.2929 N   0  0  0  0  0  0  0  0  0  0  0  0
   -1.8677    2.1515   -2.6597 C   0  0  0  0  0  0  0  0  0  0  0  0
   -0.6650    2.4728   -2.1600 N   0  0  0  0  0  0  0  0  0  0  0  0
   -0.1770    1.6868   -1.1900 C   0  0  0  0  0  0  0  0  0  0  0  0
    1.0734    1.9687   -0.6586 C   0  0  0  0  0  0  0  0  0  0  0  0
    1.6505    1.1629    0.3301 C   0  0  0  0  0  0  0  0  0  0  0  0
    2.8887    1.4488    0.8522 O   0  0  0  0  0  0  0  0  0  0  0  0
    3.9428    1.5114   -0.1161 C   0  0  0  0  0  0  0  0  0  0  0  0
    4.4157    0.1297   -0.5651 C   0  0  0  0  0  0  0  0  0  0  0  0
    4.8808   -0.8234    0.5473 C   0  0  0  0  0  0  0  0  0  0  0  0
    6.0977   -0.5313    1.2948 N   0  0  0  0  0  0  0  0  0  0  0  0
    5.9257    0.2950    2.4815 C   0  0  0  0  0  0  0  0  0  0  0  0
    7.3561    0.6378    2.8830 C   0  0  0  0  0  0  0  0  0  0  0  0
    8.2143    0.3019    1.6702 C   0  0  0  0  0  0  0  0  0  0  0  0
    7.2224    0.0167    0.5558 C   0  0  0  0  0  0  0  0  0  0  0  0
    0.5599   -2.4524    1.8321 H   0  0  0  0  0  0  0  0  0  0  0  0
    1.4261   -2.0424    3.3169 H   0  0  0  0  0  0  0  0  0  0  0  0
   -0.0987   -1.2179    2.9733 H   0  0  0  0  0  0  0  0  0  0  0  0
   -0.8987   -1.0546    0.7145 H   0  0  0  0  0  0  0  0  0  0  0  0
   -3.8468   -2.1708   -2.8605 H   0  0  0  0  0  0  0  0  0  0  0  0
   -6.2718   -2.3327   -3.4116 H   0  0  0  0  0  0  0  0  0  0  0  0
   -8.7802   -1.3932   -2.5439 H   0  0  0  0  0  0  0  0  0  0  0  0
  -10.4213    1.1097   -1.1372 H   0  0  0  0  0  0  0  0  0  0  0  0
  -10.4055    0.1894    0.3810 H   0  0  0  0  0  0  0  0  0  0  0  0
  -10.7521   -0.6351   -1.1484 H   0  0  0  0  0  0  0  0  0  0  0  0
   -7.6491    1.0165    0.7158 H   0  0  0  0  0  0  0  0  0  0  0  0
   -2.2591    2.7932   -3.4424 H   0  0  0  0  0  0  0  0  0  0  0  0
    1.5968    2.8472   -1.0210 H   0  0  0  0  0  0  0  0  0  0  0  0
    4.7699    2.0593    0.3462 H   0  0  0  0  0  0  0  0  0  0  0  0
    3.6594    2.1084   -0.9912 H   0  0  0  0  0  0  0  0  0  0  0  0
    5.2070    0.2470   -1.3146 H   0  0  0  0  0  0  0  0  0  0  0  0
    3.5862   -0.3673   -1.0858 H   0  0  0  0  0  0  0  0  0  0  0  0
    5.0496   -1.7956    0.0679 H   0  0  0  0  0  0  0  0  0  0  0  0
    4.0623   -1.0055    1.2487 H   0  0  0  0  0  0  0  0  0  0  0  0
    5.3732    1.2182    2.2797 H   0  0  0  0  0  0  0  0  0  0  0  0
    5.4091   -0.2448    3.2838 H   0  0  0  0  0  0  0  0  0  0  0  0
    7.6805    0.0463    3.7473 H   0  0  0  0  0  0  0  0  0  0  0  0
    7.4415    1.6945    3.1481 H   0  0  0  0  0  0  0  0  0  0  0  0
    8.8208   -0.5872    1.8846 H   0  0  0  0  0  0  0  0  0  0  0  0
    8.8992    1.1158    1.4139 H   0  0  0  0  0  0  0  0  0  0  0  0
    7.6323   -0.6937   -0.1685 H   0  0  0  0  0  0  0  0  0  0  0  0
    6.9727    0.9517    0.0414 H   0  0  0  0  0  0  0  0  0  0  0  0
  1  2  1  0
  2  3  1  0
  3  4  2  0
  4  5  1  0
  5  6  2  0
  6  7  1  0
  7  8  1  0
  8  9  2  0
  9 10  1  0
 10 11  2  0
 11 12  1  0
 12 13  1  0
 13 14  1  0
 13 15  2  0
 15 16  1  0
 16 17  2  0
 17 18  1  0
  6 19  1  0
 19 20  2  0
 20 21  1  0
 21 22  2  0
 22 23  1  0
 23 24  2  0
 24 25  1  0
 25 26  1  0
 26 27  1  0
 27 28  1  0
 28 29  1  0
 29 30  1  0
 30 31  1  0
 31 32  1  0
 32 33  1  0
 24  3  1  0
 33 29  1  0
 22  5  1  0
 17  8  1  0
 16 11  1  0
  1 34  1  0
  1 35  1  0
  1 36  1  0
  4 37  1  0
  9 38  1  0
 10 39  1  0
 12 40  1  0
 14 41  1  0
 14 42  1  0
 14 43  1  0
 15 44  1  0
 20 45  1  0
 23 46  1  0
 26 47  1  0
 26 48  1  0
 27 49  1  0
 27 50  1  0
 28 51  1  0
 28 52  1  0
 30 53  1  0
 30 54  1  0
 31 55  1  0
 31 56  1  0
 32 57  1  0
 32 58  1  0
 33 59  1  0
 33 60  1  0
M  END
$$$$
