
     RDKit          3D

 38 40  0  0  0  0  0  0  0  0999 V2000
    2.4489    1.5258   -0.3474 O   0  0  0  0  0  0  0  0  0  0  0  0
    2.6218    0.3062   -0.3808 C   0  0  0  0  0  0  0  0  0  0  0  0
    1.5725   -0.5665   -0.5956 N   0  0  0  0  0  0  0  0  0  0  0  0
    0.2116   -0.0981   -0.7861 C   0  0  0  0  0  0  0  0  0  0  0  0
   -0.4589    0.2854    0.5356 C   0  0  0  0  0  0  0  0  0  0  0  0
   -1.8927    0.7295    0.3287 C   0  0  0  0  0  0  0  0  0  0  0  0
   -2.1255    2.1080    0.1728 C   0  0  0  0  0  0  0  0  0  0  0  0
   -3.4099    2.5942   -0.0405 C   0  0  0  0  0  0  0  0  0  0  0  0
   -4.4820    1.7097   -0.1073 C   0  0  0  0  0  0  0  0  0  0  0  0
   -4.2865    0.3283    0.0349 C   0  0  0  0  0  0  0  0  0  0  0  0
   -5.3836   -0.5457   -0.0427 C   0  0  0  0  0  0  0  0  0  0  0  0
   -5.2166   -1.9224    0.0913 C   0  0  0  0  0  0  0  0  0  0  0  0
   -3.9481   -2.4433    0.3050 C   0  0  0  0  0  0  0  0  0  0  0  0
   -2.8468   -1.5868    0.3852 C   0  0  0  0  0  0  0  0  0  0  0  0
   -2.9818   -0.1847    0.2544 C   0  0  0  0  0  0  0  0  0  0  0  0
    3.9965   -0.3968   -0.1857 C   0  0  0  0  0  0  0  0  0  0  0  0
    4.8105   -0.0218    1.0831 C   0  0  0  0  0  0  0  0  0  0  0  0
    6.0832   -0.1370    0.2234 C   0  0  0  0  0  0  0  0  0  0  0  0
    5.1980    0.1515   -1.0036 C   0  0  0  0  0  0  0  0  0  0  0  0
    1.7441   -1.5629   -0.5851 H   0  0  0  0  0  0  0  0  0  0  0  0
   -0.3341   -0.9062   -1.2849 H   0  0  0  0  0  0  0  0  0  0  0  0
    0.2307    0.7592   -1.4694 H   0  0  0  0  0  0  0  0  0  0  0  0
    0.1053    1.0924    1.0214 H   0  0  0  0  0  0  0  0  0  0  0  0
   -0.4133   -0.5440    1.2512 H   0  0  0  0  0  0  0  0  0  0  0  0
   -1.2957    2.8123    0.2160 H   0  0  0  0  0  0  0  0  0  0  0  0
   -3.5755    3.6619   -0.1565 H   0  0  0  0  0  0  0  0  0  0  0  0
   -5.4792    2.1107   -0.2754 H   0  0  0  0  0  0  0  0  0  0  0  0
   -6.3855   -0.1558   -0.2100 H   0  0  0  0  0  0  0  0  0  0  0  0
   -6.0765   -2.5838    0.0292 H   0  0  0  0  0  0  0  0  0  0  0  0
   -3.8109   -3.5161    0.4117 H   0  0  0  0  0  0  0  0  0  0  0  0
   -1.8739   -2.0391    0.5549 H   0  0  0  0  0  0  0  0  0  0  0  0
    3.9210   -1.4898   -0.2917 H   0  0  0  0  0  0  0  0  0  0  0  0
    4.6227    0.9904    1.4599 H   0  0  0  0  0  0  0  0  0  0  0  0
    4.7412   -0.7275    1.9152 H   0  0  0  0  0  0  0  0  0  0  0  0
    6.8654    0.5975    0.4297 H   0  0  0  0  0  0  0  0  0  0  0  0
    6.5247   -1.1402    0.2221 H   0  0  0  0  0  0  0  0  0  0  0  0
    5.1279    1.2159   -1.2561 H   0  0  0  0  0  0  0  0  0  0  0  0
    5.4511   -0.4104   -1.9067 H   0  0  0  0  0  0  0  0  0  0  0  0
  1  2  2  0
  2  3  1  0
  3  4  1  0
  4  5  1  0
  5  6  1  0
  6  7  2  0
  7  8  1  0
  8  9  2  0
  9 10  1  0
 10 11  2  0
 11 12  1  0
 12 13  2  0
 13 14  1  0
 14 15  2  0
  2 16  1  0
 16 17  1  0
 17 18  1  0
 18 19  1  0
 15  6  1  0
 19 16  1  0
 15 10  1  0
  3 20  1  0
  4 21  1  0
  4 22  1  0
  5 23  1  0
  5 24  1  0
  7 25  1  0
  8 26  1  0
  9 27  1  0
 11 28  1  0
 12 29  1  0
 13 30  1  0
 14 31  1  0
 16 32  1  0
 17 33  1  0
 17 34  1  0
 18 35  1  0
 18 36  1  0
 19 37  1  0
 19 38  1  0
M  END
$$$$
