
     RDKit          3D

 42 45  0  0  0  0  0  0  0  0999 V2000
    1.4071   -3.5112   -0.5535 C   0  0  0  0  0  0  0  0  0  0  0  0
    1.0291   -2.0519   -0.7825 C   0  0  1  0  0  0  0  0  0  0  0  0
   -0.4555   -1.7861   -0.4354 C   0  0  0  0  0  0  0  0  0  0  0  0
   -1.0878   -2.5255    0.3123 O   0  0  0  0  0  0  0  0  0  0  0  0
   -0.9121   -0.6074   -1.0058 N   0  0  0  0  0  0  0  0  0  0  0  0
   -2.1566   -0.0336   -0.8187 C   0  0  0  0  0  0  0  0  0  0  0  0
   -2.4597    1.2917   -1.0320 C   0  0  0  0  0  0  0  0  0  0  0  0
   -3.8036    1.4390   -0.6854 C   0  0  0  0  0  0  0  0  0  0  0  0
   -4.3694    0.3004   -0.3025 N   0  0  0  0  0  0  0  0  0  0  0  0
   -3.3566   -0.6075   -0.4243 N   0  0  0  0  0  0  0  0  0  0  0  0
   -3.7094   -2.0005   -0.2846 C   0  0  0  0  0  0  0  0  0  0  0  0
   -4.4094    2.7805   -0.7766 C   0  0  0  0  0  0  0  0  0  0  0  0
   -3.0058    3.8542   -1.3741 S   0  0  0  0  0  0  0  0  0  0  0  0
   -1.7351    2.4984   -1.4635 C   0  0  0  0  0  0  0  0  0  0  0  0
    1.8653   -1.1217   -0.0183 N   0  0  0  0  0  0  0  0  0  0  0  0
    2.2502   -1.3506    1.3695 C   0  0  0  0  0  0  0  0  0  0  0  0
    2.8583   -0.0427    1.7561 C   0  0  0  0  0  0  0  0  0  0  0  0
    3.4655    0.3340    2.9405 C   0  0  0  0  0  0  0  0  0  0  0  0
    3.9351    1.6484    3.0510 C   0  0  0  0  0  0  0  0  0  0  0  0
    3.7895    2.5632    1.9906 C   0  0  0  0  0  0  0  0  0  0  0  0
    3.1725    2.1782    0.7996 C   0  0  0  0  0  0  0  0  0  0  0  0
    2.7256    0.8741    0.7136 C   0  0  0  0  0  0  0  0  0  0  0  0
    2.0331    0.2034   -0.3895 C   0  0  0  0  0  0  0  0  0  0  0  0
    1.6121    0.7361   -1.4004 O   0  0  0  0  0  0  0  0  0  0  0  0
    0.7926   -4.1700   -1.1765 H   0  0  0  0  0  0  0  0  0  0  0  0
    2.4586   -3.6841   -0.8059 H   0  0  0  0  0  0  0  0  0  0  0  0
    1.2581   -3.8153    0.4883 H   0  0  0  0  0  0  0  0  0  0  0  0
    1.1622   -1.8244   -1.8482 H   0  0  0  0  0  0  0  0  0  0  0  0
   -0.1915    0.0052   -1.3958 H   0  0  0  0  0  0  0  0  0  0  0  0
   -3.1589   -2.5915   -1.0192 H   0  0  0  0  0  0  0  0  0  0  0  0
   -3.5004   -2.3097    0.7413 H   0  0  0  0  0  0  0  0  0  0  0  0
   -4.7789   -2.1185   -0.4850 H   0  0  0  0  0  0  0  0  0  0  0  0
   -5.2243    2.8167   -1.5039 H   0  0  0  0  0  0  0  0  0  0  0  0
   -4.7525    3.1453    0.1947 H   0  0  0  0  0  0  0  0  0  0  0  0
   -1.3724    2.4133   -2.4911 H   0  0  0  0  0  0  0  0  0  0  0  0
   -0.9051    2.7400   -0.7944 H   0  0  0  0  0  0  0  0  0  0  0  0
    2.9745   -2.1679    1.4169 H   0  0  0  0  0  0  0  0  0  0  0  0
    1.3587   -1.5636    1.9665 H   0  0  0  0  0  0  0  0  0  0  0  0
    3.5746   -0.3614    3.7669 H   0  0  0  0  0  0  0  0  0  0  0  0
    4.4163    1.9720    3.9722 H   0  0  0  0  0  0  0  0  0  0  0  0
    4.1590    3.5803    2.1040 H   0  0  0  0  0  0  0  0  0  0  0  0
    3.0468    2.8707   -0.0256 H   0  0  0  0  0  0  0  0  0  0  0  0
  1  2  1  0
  2  3  1  0
  3  4  2  0
  3  5  1  0
  5  6  1  0
  6  7  2  0
  7  8  1  0
  8  9  2  0
  9 10  1  0
 10 11  1  0
  8 12  1  0
 12 13  1  0
 13 14  1  0
  2 15  1  0
 15 16  1  0
 16 17  1  0
 17 18  2  0
 18 19  1  0
 19 20  2  0
 20 21  1  0
 21 22  2  0
 22 23  1  0
 23 24  2  0
 10  6  1  0
 23 15  1  0
 14  7  1  0
 22 17  1  0
  1 25  1  0
  1 26  1  0
  1 27  1  0
  2 28  1  6
  5 29  1  0
 11 30  1  0
 11 31  1  0
 11 32  1  0
 12 33  1  0
 12 34  1  0
 14 35  1  0
 14 36  1  0
 16 37  1  0
 16 38  1  0
 18 39  1  0
 19 40  1  0
 20 41  1  0
 21 42  1  0
M  END
$$$$
