
     RDKit          3D

 35 35  0  0  0  0  0  0  0  0999 V2000
    2.4665   -0.2643    1.0879 C   0  0  0  0  0  0  0  0  0  0  0  0
    1.5543    0.6826    0.5255 N   0  0  0  0  0  0  0  0  0  0  0  0
    0.6036    0.1583   -0.4018 C   0  0  0  0  0  0  0  0  0  0  0  0
    1.3661   -0.4096   -1.5822 C   0  0  0  0  0  0  0  0  0  0  0  0
   -0.2201    1.3417   -0.9069 C   0  0  0  0  0  0  0  0  0  0  0  0
   -0.6056    2.1390    0.3074 C   0  0  0  0  0  0  0  0  0  0  0  0
   -1.6592    1.2715    1.0152 C   0  0  0  0  0  0  0  0  0  0  0  0
   -1.7429    0.0460    0.1375 C   0  0  0  0  0  0  0  0  0  0  0  0
   -1.5839    0.7127   -1.2412 C   0  0  0  0  0  0  0  0  0  0  0  0
   -0.4361   -0.7422    0.1464 C   0  0  0  0  0  0  0  0  0  0  0  0
   -0.6617   -1.9362   -0.7612 C   0  0  0  0  0  0  0  0  0  0  0  0
   -0.2312   -1.2457    1.5285 C   0  0  0  0  0  0  0  0  0  0  0  0
    0.6835    0.0000    0.0000 Cl  0  0  0  0  0  0  0  0  0  0  0  0
    2.4625   -1.1973    0.4752 H   0  0  0  0  0  0  0  0  0  0  0  0
    3.5321    0.0913    1.0416 H   0  0  0  0  0  0  0  0  0  0  0  0
    2.2970   -0.5003    2.1564 H   0  0  0  0  0  0  0  0  0  0  0  0
    2.0423    1.4913    0.0765 H   0  0  0  0  0  0  0  0  0  0  0  0
    1.5768   -1.4876   -1.4506 H   0  0  0  0  0  0  0  0  0  0  0  0
    0.8058   -0.1763   -2.5075 H   0  0  0  0  0  0  0  0  0  0  0  0
    2.3731    0.0932   -1.6408 H   0  0  0  0  0  0  0  0  0  0  0  0
    0.2198    1.8823   -1.7172 H   0  0  0  0  0  0  0  0  0  0  0  0
    0.2585    2.2054    0.9841 H   0  0  0  0  0  0  0  0  0  0  0  0
   -1.0223    3.1132    0.0104 H   0  0  0  0  0  0  0  0  0  0  0  0
   -1.4018    1.0686    2.0537 H   0  0  0  0  0  0  0  0  0  0  0  0
   -2.6274    1.8054    0.8992 H   0  0  0  0  0  0  0  0  0  0  0  0
   -2.6289   -0.5456    0.2334 H   0  0  0  0  0  0  0  0  0  0  0  0
   -2.3700    1.4597   -1.3054 H   0  0  0  0  0  0  0  0  0  0  0  0
   -1.5208   -0.0118   -2.0437 H   0  0  0  0  0  0  0  0  0  0  0  0
   -1.6898   -2.2834   -0.5769 H   0  0  0  0  0  0  0  0  0  0  0  0
   -0.4376   -1.7263   -1.8174 H   0  0  0  0  0  0  0  0  0  0  0  0
    0.0379   -2.7332   -0.4385 H   0  0  0  0  0  0  0  0  0  0  0  0
   -1.1958   -1.7635    1.8212 H   0  0  0  0  0  0  0  0  0  0  0  0
    0.5302   -2.0685    1.5940 H   0  0  0  0  0  0  0  0  0  0  0  0
   -0.0914   -0.4705    2.2973 H   0  0  0  0  0  0  0  0  0  0  0  0
   -0.6835    0.0000    0.0000 H   0  0  0  0  0  0  0  0  0  0  0  0
  1  2  1  0
  2  3  1  0
  3  4  1  0
  3  5  1  0
  5  6  1  0
  6  7  1  0
  7  8  1  0
  8  9  1  0
  8 10  1  0
 10 11  1  0
 10 12  1  0
 10  3  1  0
  9  5  1  0
  1 14  1  0
  1 15  1  0
  1 16  1  0
  2 17  1  0
  4 18  1  0
  4 19  1  0
  4 20  1  0
  5 21  1  0
  6 22  1  0
  6 23  1  0
  7 24  1  0
  7 25  1  0
  8 26  1  0
  9 27  1  0
  9 28  1  0
 11 29  1  0
 11 30  1  0
 11 31  1  0
 12 32  1  0
 12 33  1  0
 12 34  1  0
 13 35  1  0
M  END
$$$$
