
     RDKit          3D

 50 54  0  0  0  0  0  0  0  0999 V2000
   -5.7371    1.1985    1.8241 C   0  0  0  0  0  0  0  0  0  0  0  0
   -4.9709   -0.0914    1.7311 C   0  0  0  0  0  0  0  0  0  0  0  0
   -5.3696   -1.1820    2.5224 C   0  0  0  0  0  0  0  0  0  0  0  0
   -4.6888   -2.3942    2.4511 C   0  0  0  0  0  0  0  0  0  0  0  0
   -5.0918   -3.4179    3.2147 F   0  0  0  0  0  0  0  0  0  0  0  0
   -3.6078   -2.5594    1.6018 C   0  0  0  0  0  0  0  0  0  0  0  0
   -3.2016   -1.4811    0.8130 C   0  0  0  0  0  0  0  0  0  0  0  0
   -2.0505   -1.6402   -0.1092 C   0  0  0  0  0  0  0  0  0  0  0  0
   -1.4714   -2.7159   -0.2168 O   0  0  0  0  0  0  0  0  0  0  0  0
   -1.6235   -0.4537   -0.8986 C   0  0  0  0  0  0  0  0  0  0  0  0
   -2.3348    0.6828   -0.7848 C   0  0  0  0  0  0  0  0  0  0  0  0
   -3.4382    0.8046    0.0320 N   0  0  0  0  0  0  0  0  0  0  0  0
   -3.8622   -0.2366    0.8735 C   0  0  0  0  0  0  0  0  0  0  0  0
   -1.9329    1.8905   -1.5999 C   0  0  0  0  0  0  0  0  0  0  0  0
   -0.9344    1.5541   -2.7214 C   0  0  0  0  0  0  0  0  0  0  0  0
    0.1528    0.7031   -2.2095 N   0  0  0  0  0  0  0  0  0  0  0  0
    1.1786    0.4916   -3.2665 C   0  0  0  0  0  0  0  0  0  0  0  0
    2.4999   -0.0316   -2.6807 C   0  0  0  0  0  0  0  0  0  0  0  0
    3.2768   -0.6860   -3.3691 O   0  0  0  0  0  0  0  0  0  0  0  0
    2.6941    0.3818   -1.3750 N   0  0  0  0  0  0  0  0  0  0  0  0
    3.7880    0.1338   -0.5290 C   0  0  0  0  0  0  0  0  0  0  0  0
    4.9435   -0.5614   -0.9337 C   0  0  0  0  0  0  0  0  0  0  0  0
    6.0043   -0.7769   -0.0436 C   0  0  0  0  0  0  0  0  0  0  0  0
    5.8796   -0.2871    1.2362 C   0  0  0  0  0  0  0  0  0  0  0  0
    4.7563    0.3930    1.6382 C   0  0  0  0  0  0  0  0  0  0  0  0
    3.6973    0.6198    0.7833 C   0  0  0  0  0  0  0  0  0  0  0  0
    4.8290    0.7941    2.9361 O   0  0  0  0  0  0  0  0  0  0  0  0
    6.1256    0.2787    3.3057 C   0  0  0  0  0  0  0  0  0  0  0  0
    6.8015   -0.4012    2.2282 O   0  0  0  0  0  0  0  0  0  0  0  0
   -0.4109   -0.6042   -1.7715 C   0  0  0  0  0  0  0  0  0  0  0  0
   -6.1461    1.4689    0.8453 H   0  0  0  0  0  0  0  0  0  0  0  0
   -6.5778    1.1188    2.5214 H   0  0  0  0  0  0  0  0  0  0  0  0
   -5.0848    2.0013    2.1824 H   0  0  0  0  0  0  0  0  0  0  0  0
   -6.2163   -1.1037    3.1996 H   0  0  0  0  0  0  0  0  0  0  0  0
   -3.0949   -3.5151    1.5572 H   0  0  0  0  0  0  0  0  0  0  0  0
   -3.8219    1.7314    0.1723 H   0  0  0  0  0  0  0  0  0  0  0  0
   -2.8211    2.3493   -2.0512 H   0  0  0  0  0  0  0  0  0  0  0  0
   -1.4895    2.6335   -0.9244 H   0  0  0  0  0  0  0  0  0  0  0  0
   -1.4551    1.0641   -3.5553 H   0  0  0  0  0  0  0  0  0  0  0  0
   -0.5294    2.4992   -3.1037 H   0  0  0  0  0  0  0  0  0  0  0  0
    1.4287    1.4468   -3.7448 H   0  0  0  0  0  0  0  0  0  0  0  0
    0.8247   -0.1983   -4.0412 H   0  0  0  0  0  0  0  0  0  0  0  0
    1.8933    0.8729   -0.9831 H   0  0  0  0  0  0  0  0  0  0  0  0
    5.0447   -0.9491   -1.9432 H   0  0  0  0  0  0  0  0  0  0  0  0
    6.8933   -1.3137   -0.3548 H   0  0  0  0  0  0  0  0  0  0  0  0
    2.8262    1.1591    1.1370 H   0  0  0  0  0  0  0  0  0  0  0  0
    6.7515    1.1138    3.6406 H   0  0  0  0  0  0  0  0  0  0  0  0
    5.9996   -0.4222    4.1390 H   0  0  0  0  0  0  0  0  0  0  0  0
    0.3638   -1.1462   -1.2170 H   0  0  0  0  0  0  0  0  0  0  0  0
   -0.6896   -1.2165   -2.6395 H   0  0  0  0  0  0  0  0  0  0  0  0
  1  2  1  0
  2  3  2  0
  3  4  1  0
  4  5  1  0
  4  6  2  0
  6  7  1  0
  7  8  1  0
  8  9  2  0
  8 10  1  0
 10 11  2  0
 11 12  1  0
 12 13  1  0
 11 14  1  0
 14 15  1  0
 15 16  1  0
 16 17  1  0
 17 18  1  0
 18 19  2  0
 18 20  1  0
 20 21  1  0
 21 22  2  0
 22 23  1  0
 23 24  2  0
 24 25  1  0
 25 26  2  0
 25 27  1  0
 27 28  1  0
 28 29  1  0
 16 30  1  0
 13  2  1  0
 26 21  1  0
 13  7  2  0
 29 24  1  0
 30 10  1  0
  1 31  1  0
  1 32  1  0
  1 33  1  0
  3 34  1  0
  6 35  1  0
 12 36  1  0
 14 37  1  0
 14 38  1  0
 15 39  1  0
 15 40  1  0
 17 41  1  0
 17 42  1  0
 20 43  1  0
 22 44  1  0
 23 45  1  0
 26 46  1  0
 28 47  1  0
 28 48  1  0
 30 49  1  0
 30 50  1  0
M  END
$$$$
