
     RDKit          3D

 55 60  0  0  0  0  0  0  0  0999 V2000
    6.3198    0.2880    0.1863 C   0  0  0  0  0  0  0  0  0  0  0  0
    4.9086   -0.0566    0.4486 C   0  0  0  0  0  0  0  0  0  0  0  0
    4.2172   -0.4107    1.5859 C   0  0  0  0  0  0  0  0  0  0  0  0
    2.8771   -0.6278    1.1867 C   0  0  0  0  0  0  0  0  0  0  0  0
    2.8271   -0.3865   -0.1731 C   0  0  0  0  0  0  0  0  0  0  0  0
    1.7332   -0.4461   -1.2098 C   0  0  0  0  0  0  0  0  0  0  0  0
    1.5542   -1.7956   -1.7555 N   0  0  0  0  0  0  0  0  0  0  0  0
    0.7156   -2.6220   -0.9887 C   0  0  0  0  0  0  0  0  0  0  0  0
    0.8718   -4.0122   -1.0793 C   0  0  0  0  0  0  0  0  0  0  0  0
    0.0292   -4.8733   -0.3786 C   0  0  0  0  0  0  0  0  0  0  0  0
   -0.9927   -4.3510    0.4058 C   0  0  0  0  0  0  0  0  0  0  0  0
   -1.1933   -2.9699    0.4690 C   0  0  0  0  0  0  0  0  0  0  0  0
   -0.3664   -2.1019   -0.2531 C   0  0  0  0  0  0  0  0  0  0  0  0
   -0.5464   -0.6831   -0.2697 N   0  0  0  0  0  0  0  0  0  0  0  0
   -1.6465    0.0925    0.1087 C   0  0  0  0  0  0  0  0  0  0  0  0
   -2.9745   -0.4193    0.4575 C   0  0  0  0  0  0  0  0  0  0  0  0
   -3.4604   -0.3062    1.7661 C   0  0  0  0  0  0  0  0  0  0  0  0
   -4.7268   -0.7954    2.0924 C   0  0  0  0  0  0  0  0  0  0  0  0
   -5.5174   -1.3953    1.1131 C   0  0  0  0  0  0  0  0  0  0  0  0
   -5.0466   -1.5012   -0.1949 C   0  0  0  0  0  0  0  0  0  0  0  0
   -3.7816   -1.0107   -0.5239 C   0  0  0  0  0  0  0  0  0  0  0  0
   -1.2696    1.4242   -0.0306 C   0  0  0  0  0  0  0  0  0  0  0  0
   -2.0251    2.6274    0.2399 C   0  0  0  0  0  0  0  0  0  0  0  0
   -3.1341    2.6197    0.7671 O   0  0  0  0  0  0  0  0  0  0  0  0
   -1.3613    3.7985   -0.1284 N   0  0  0  0  0  0  0  0  0  0  0  0
   -2.0582    5.0495    0.1036 C   0  0  0  0  0  0  0  0  0  0  0  0
   -0.0367    3.8913   -0.5722 C   0  0  0  0  0  0  0  0  0  0  0  0
    0.4959    4.9934   -0.7384 O   0  0  0  0  0  0  0  0  0  0  0  0
    0.6568    2.6941   -0.8128 N   0  0  0  0  0  0  0  0  0  0  0  0
    2.0202    2.8027   -1.3070 C   0  0  0  0  0  0  0  0  0  0  0  0
    0.0326    1.4734   -0.5533 C   0  0  0  0  0  0  0  0  0  0  0  0
    0.4605    0.1704   -0.7141 C   0  0  0  0  0  0  0  0  0  0  0  0
    4.0728   -0.0492   -0.6265 O   0  0  0  0  0  0  0  0  0  0  0  0
    6.4009    1.0191   -0.6243 H   0  0  0  0  0  0  0  0  0  0  0  0
    6.7872    0.7174    1.0781 H   0  0  0  0  0  0  0  0  0  0  0  0
    6.8812   -0.6069   -0.0994 H   0  0  0  0  0  0  0  0  0  0  0  0
    4.6300   -0.5045    2.5809 H   0  0  0  0  0  0  0  0  0  0  0  0
    2.0449   -0.9266    1.8096 H   0  0  0  0  0  0  0  0  0  0  0  0
    2.0698    0.1476   -2.0667 H   0  0  0  0  0  0  0  0  0  0  0  0
    2.4549   -2.2308   -1.9380 H   0  0  0  0  0  0  0  0  0  0  0  0
    1.6601   -4.4351   -1.6969 H   0  0  0  0  0  0  0  0  0  0  0  0
    0.1718   -5.9485   -0.4452 H   0  0  0  0  0  0  0  0  0  0  0  0
   -1.6443   -5.0175    0.9656 H   0  0  0  0  0  0  0  0  0  0  0  0
   -1.9902   -2.6185    1.1122 H   0  0  0  0  0  0  0  0  0  0  0  0
   -2.8601    0.1742    2.5348 H   0  0  0  0  0  0  0  0  0  0  0  0
   -5.0996   -0.6970    3.1086 H   0  0  0  0  0  0  0  0  0  0  0  0
   -6.5056   -1.7696    1.3670 H   0  0  0  0  0  0  0  0  0  0  0  0
   -5.6661   -1.9597   -0.9611 H   0  0  0  0  0  0  0  0  0  0  0  0
   -3.4282   -1.0943   -1.5491 H   0  0  0  0  0  0  0  0  0  0  0  0
   -3.1430    4.9132    0.1303 H   0  0  0  0  0  0  0  0  0  0  0  0
   -1.7266    5.4549    1.0649 H   0  0  0  0  0  0  0  0  0  0  0  0
   -1.8203    5.7727   -0.6829 H   0  0  0  0  0  0  0  0  0  0  0  0
    2.3289    3.8399   -1.4628 H   0  0  0  0  0  0  0  0  0  0  0  0
    2.7021    2.3646   -0.5758 H   0  0  0  0  0  0  0  0  0  0  0  0
    2.0972    2.2940   -2.2708 H   0  0  0  0  0  0  0  0  0  0  0  0
  1  2  1  0
  2  3  2  0
  3  4  1  0
  4  5  2  0
  5  6  1  0
  6  7  1  0
  7  8  1  0
  8  9  2  0
  9 10  1  0
 10 11  2  0
 11 12  1  0
 12 13  2  0
 13 14  1  0
 14 15  1  0
 15 16  1  0
 16 17  2  0
 17 18  1  0
 18 19  2  0
 19 20  1  0
 20 21  2  0
 15 22  2  0
 22 23  1  0
 23 24  2  0
 23 25  1  0
 25 26  1  0
 25 27  1  0
 27 28  2  0
 27 29  1  0
 29 30  1  0
 29 31  1  0
 31 32  2  0
  5 33  1  0
 33  2  1  0
 32  6  1  0
 13  8  1  0
 32 14  1  0
 21 16  1  0
 31 22  1  0
  1 34  1  0
  1 35  1  0
  1 36  1  0
  3 37  1  0
  4 38  1  0
  6 39  1  0
  7 40  1  0
  9 41  1  0
 10 42  1  0
 11 43  1  0
 12 44  1  0
 17 45  1  0
 18 46  1  0
 19 47  1  0
 20 48  1  0
 21 49  1  0
 26 50  1  0
 26 51  1  0
 26 52  1  0
 30 53  1  0
 30 54  1  0
 30 55  1  0
M  END
$$$$
