
     RDKit          3D

 39 40  0  0  0  0  0  0  0  0999 V2000
    0.6888    0.0000    0.0000 Cl  0  0  0  0  0  0  0  0  0  0  0  0
   -4.4706    2.8585   -1.6251 Cl  0  0  0  0  0  0  0  0  0  0  0  0
   -3.2234    1.9311   -0.8315 C   0  0  0  0  0  0  0  0  0  0  0  0
   -2.0084    2.4782   -0.4918 C   0  0  0  0  0  0  0  0  0  0  0  0
   -1.1009    1.6458    0.1327 C   0  0  0  0  0  0  0  0  0  0  0  0
   -1.3123    0.3381    0.4350 C   0  0  0  0  0  0  0  0  0  0  0  0
   -0.4446   -0.5159    1.0511 O   0  0  0  0  0  0  0  0  0  0  0  0
    0.8432   -0.3330    1.5136 C   0  0  0  0  0  0  0  0  0  0  0  0
    1.8865    0.0063    0.4948 C   0  0  0  0  0  0  0  0  0  0  0  0
    3.2559    0.1796    1.1482 C   0  0  0  0  0  0  0  0  0  0  0  0
    4.1493    0.8183    0.1228 C   0  0  0  0  0  0  0  0  0  0  0  0
    3.9534    0.0932   -1.1867 C   0  0  0  0  0  0  0  0  0  0  0  0
    3.3658   -1.2029   -1.0442 N   0  0  0  0  0  0  0  0  0  0  0  0
    2.0703   -1.2018   -0.4408 C   0  0  0  0  0  0  0  0  0  0  0  0
   -2.5585   -0.2248    0.0874 C   0  0  0  0  0  0  0  0  0  0  0  0
   -2.8255   -1.5555    0.3742 C   0  0  0  0  0  0  0  0  0  0  0  0
   -4.0462   -2.0682    0.0221 C   0  0  0  0  0  0  0  0  0  0  0  0
   -4.9887   -1.2792   -0.6036 C   0  0  0  0  0  0  0  0  0  0  0  0
   -4.7073    0.0371   -0.8801 C   0  0  0  0  0  0  0  0  0  0  0  0
   -3.4745    0.5908   -0.5353 C   0  0  0  0  0  0  0  0  0  0  0  0
   -0.6888    0.0000    0.0000 H   0  0  0  0  0  0  0  0  0  0  0  0
   -1.7792    3.5261   -0.7098 H   0  0  0  0  0  0  0  0  0  0  0  0
   -0.1653    2.1168    0.3967 H   0  0  0  0  0  0  0  0  0  0  0  0
    0.9159    0.4814    2.2937 H   0  0  0  0  0  0  0  0  0  0  0  0
    1.1512   -1.2950    2.0341 H   0  0  0  0  0  0  0  0  0  0  0  0
    1.7098    0.8903   -0.0928 H   0  0  0  0  0  0  0  0  0  0  0  0
    3.1948    0.7447    2.0952 H   0  0  0  0  0  0  0  0  0  0  0  0
    3.6545   -0.8334    1.3514 H   0  0  0  0  0  0  0  0  0  0  0  0
    5.2201    0.7977    0.4601 H   0  0  0  0  0  0  0  0  0  0  0  0
    3.9012    1.8905   -0.0431 H   0  0  0  0  0  0  0  0  0  0  0  0
    4.9718   -0.0494   -1.6227 H   0  0  0  0  0  0  0  0  0  0  0  0
    3.3267    0.6941   -1.8965 H   0  0  0  0  0  0  0  0  0  0  0  0
    3.9987   -1.9508   -0.7478 H   0  0  0  0  0  0  0  0  0  0  0  0
    1.2382   -1.2046   -1.1677 H   0  0  0  0  0  0  0  0  0  0  0  0
    1.9667   -2.1014    0.1971 H   0  0  0  0  0  0  0  0  0  0  0  0
   -2.0562   -2.1491    0.8699 H   0  0  0  0  0  0  0  0  0  0  0  0
   -4.2354   -3.1186    0.2575 H   0  0  0  0  0  0  0  0  0  0  0  0
   -5.9462   -1.7116   -0.8707 H   0  0  0  0  0  0  0  0  0  0  0  0
   -5.4310    0.6767   -1.3707 H   0  0  0  0  0  0  0  0  0  0  0  0
  2  3  1  0
  3  4  2  0
  4  5  1  0
  5  6  2  0
  6  7  1  0
  7  8  1  0
  8  9  1  0
  9 10  1  0
 10 11  1  0
 11 12  1  0
 12 13  1  0
 13 14  1  0
  6 15  1  0
 15 16  2  0
 16 17  1  0
 17 18  2  0
 18 19  1  0
 19 20  2  0
 20  3  1  0
 14  9  1  0
 20 15  1  0
  1 21  1  0
  4 22  1  0
  5 23  1  0
  8 24  1  0
  8 25  1  0
  9 26  1  0
 10 27  1  0
 10 28  1  0
 11 29  1  0
 11 30  1  0
 12 31  1  0
 12 32  1  0
 13 33  1  0
 14 34  1  0
 14 35  1  0
 16 36  1  0
 17 37  1  0
 18 38  1  0
 19 39  1  0
M  END
$$$$
