
     RDKit          3D

 55 58  0  0  0  0  0  0  0  0999 V2000
    3.5221    1.5861    1.9419 C   0  0  0  0  0  0  0  0  0  0  0  0
    3.0539    0.7658    0.8760 O   0  0  0  0  0  0  0  0  0  0  0  0
    3.9904    0.0249    0.2011 C   0  0  0  0  0  0  0  0  0  0  0  0
    5.3481    0.3813    0.1649 C   0  0  0  0  0  0  0  0  0  0  0  0
    6.2739   -0.3920   -0.5388 C   0  0  0  0  0  0  0  0  0  0  0  0
    5.8556   -1.5269   -1.2210 C   0  0  0  0  0  0  0  0  0  0  0  0
    4.5076   -1.8839   -1.2058 C   0  0  0  0  0  0  0  0  0  0  0  0
    3.5560   -1.1153   -0.5062 C   0  0  0  0  0  0  0  0  0  0  0  0
    2.1320   -1.6034   -0.5703 C   0  0  0  0  0  0  0  0  0  0  0  0
    1.9174   -2.7052   -1.0702 O   0  0  0  0  0  0  0  0  0  0  0  0
    1.1630   -0.7555   -0.0829 N   0  0  0  0  0  0  0  0  0  0  0  0
   -0.2369   -0.9465   -0.0100 C   0  0  0  0  0  0  0  0  0  0  0  0
   -0.8512   -2.1549   -0.3629 C   0  0  0  0  0  0  0  0  0  0  0  0
   -2.2121   -2.2516   -0.1773 C   0  0  0  0  0  0  0  0  0  0  0  0
   -2.9617   -1.1993    0.3418 C   0  0  0  0  0  0  0  0  0  0  0  0
   -2.3874    0.0061    0.6898 C   0  0  0  0  0  0  0  0  0  0  0  0
   -1.0039    0.1636    0.5013 C   0  0  0  0  0  0  0  0  0  0  0  0
   -0.3475    1.3804    0.7791 N   0  0  0  0  0  0  0  0  0  0  0  0
    0.0276    2.1670   -0.4100 C   0  0  0  0  0  0  0  0  0  0  0  0
   -1.0283    3.2199   -0.7336 C   0  0  0  0  0  0  0  0  0  0  0  0
   -1.2883    4.1137    0.4737 C   0  0  0  0  0  0  0  0  0  0  0  0
   -1.7102    3.2784    1.6772 C   0  0  0  0  0  0  0  0  0  0  0  0
   -0.7201    2.1510    1.9722 C   0  0  0  0  0  0  0  0  0  0  0  0
   -4.2984   -1.6148    0.4101 N   0  0  0  0  0  0  0  0  0  0  0  0
   -5.3920   -0.8207    0.8868 C   0  0  0  0  0  0  0  0  0  0  0  0
   -4.3939   -2.9407   -0.0676 C   0  0  0  0  0  0  0  0  0  0  0  0
   -5.4063   -3.6181   -0.1506 O   0  0  0  0  0  0  0  0  0  0  0  0
   -3.0838   -3.3198   -0.4279 N   0  0  0  0  0  0  0  0  0  0  0  0
   -2.6964   -4.5919   -0.9652 C   0  0  0  0  0  0  0  0  0  0  0  0
    2.6519    1.9071    2.5219 H   0  0  0  0  0  0  0  0  0  0  0  0
    4.1855    1.0339    2.6162 H   0  0  0  0  0  0  0  0  0  0  0  0
    4.0107    2.4844    1.5519 H   0  0  0  0  0  0  0  0  0  0  0  0
    5.7172    1.2691    0.6691 H   0  0  0  0  0  0  0  0  0  0  0  0
    7.3224   -0.1041   -0.5555 H   0  0  0  0  0  0  0  0  0  0  0  0
    6.5719   -2.1336   -1.7695 H   0  0  0  0  0  0  0  0  0  0  0  0
    4.1969   -2.7741   -1.7515 H   0  0  0  0  0  0  0  0  0  0  0  0
    1.4665    0.1321    0.3141 H   0  0  0  0  0  0  0  0  0  0  0  0
   -0.2954   -2.9985   -0.7469 H   0  0  0  0  0  0  0  0  0  0  0  0
   -3.0059    0.8038    1.0709 H   0  0  0  0  0  0  0  0  0  0  0  0
    0.1931    1.5367   -1.2921 H   0  0  0  0  0  0  0  0  0  0  0  0
    0.9837    2.6638   -0.2026 H   0  0  0  0  0  0  0  0  0  0  0  0
   -0.6919    3.8310   -1.5786 H   0  0  0  0  0  0  0  0  0  0  0  0
   -1.9626    2.7331   -1.0389 H   0  0  0  0  0  0  0  0  0  0  0  0
   -2.0696    4.8441    0.2361 H   0  0  0  0  0  0  0  0  0  0  0  0
   -0.3810    4.6799    0.7173 H   0  0  0  0  0  0  0  0  0  0  0  0
   -2.7101    2.8740    1.4924 H   0  0  0  0  0  0  0  0  0  0  0  0
   -1.7993    3.9235    2.5590 H   0  0  0  0  0  0  0  0  0  0  0  0
    0.1986    2.5965    2.3739 H   0  0  0  0  0  0  0  0  0  0  0  0
   -1.1069    1.4999    2.7657 H   0  0  0  0  0  0  0  0  0  0  0  0
   -5.2068   -0.5370    1.9269 H   0  0  0  0  0  0  0  0  0  0  0  0
   -6.3263   -1.3862    0.8331 H   0  0  0  0  0  0  0  0  0  0  0  0
   -5.4835    0.0773    0.2689 H   0  0  0  0  0  0  0  0  0  0  0  0
   -1.9724   -5.0632   -0.2942 H   0  0  0  0  0  0  0  0  0  0  0  0
   -2.2476   -4.4467   -1.9521 H   0  0  0  0  0  0  0  0  0  0  0  0
   -3.5683   -5.2445   -1.0630 H   0  0  0  0  0  0  0  0  0  0  0  0
  1  2  1  0
  2  3  1  0
  3  4  2  0
  4  5  1  0
  5  6  2  0
  6  7  1  0
  7  8  2  0
  8  9  1  0
  9 10  2  0
  9 11  1  0
 11 12  1  0
 12 13  2  0
 13 14  1  0
 14 15  2  0
 15 16  1  0
 16 17  2  0
 17 18  1  0
 18 19  1  0
 19 20  1  0
 20 21  1  0
 21 22  1  0
 22 23  1  0
 15 24  1  0
 24 25  1  0
 24 26  1  0
 26 27  2  0
 26 28  1  0
 28 29  1  0
  8  3  1  0
 17 12  1  0
 23 18  1  0
 28 14  1  0
  1 30  1  0
  1 31  1  0
  1 32  1  0
  4 33  1  0
  5 34  1  0
  6 35  1  0
  7 36  1  0
 11 37  1  0
 13 38  1  0
 16 39  1  0
 19 40  1  0
 19 41  1  0
 20 42  1  0
 20 43  1  0
 21 44  1  0
 21 45  1  0
 22 46  1  0
 22 47  1  0
 23 48  1  0
 23 49  1  0
 25 50  1  0
 25 51  1  0
 25 52  1  0
 29 53  1  0
 29 54  1  0
 29 55  1  0
M  END
$$$$
