
     RDKit          3D

 12 12  0  0  0  0  0  0  0  0999 V2000
   -1.6437   -0.3284    0.0006 C   0  0  0  0  0  0  0  0  0  0  0  0
   -0.2450    0.0131   -0.0153 N   0  0  0  0  0  0  0  0  0  0  0  0
    0.8026   -0.8226    0.2434 C   0  0  0  0  0  0  0  0  0  0  0  0
    1.9228   -0.0361    0.1035 C   0  0  0  0  0  0  0  0  0  0  0  0
    1.5775    1.2480   -0.2318 N   0  0  0  0  0  0  0  0  0  0  0  0
    0.2650    1.2474   -0.2962 C   0  0  0  0  0  0  0  0  0  0  0  0
   -2.0576   -0.1396   -0.9932 H   0  0  0  0  0  0  0  0  0  0  0  0
   -2.1434    0.2930    0.7480 H   0  0  0  0  0  0  0  0  0  0  0  0
   -1.7600   -1.3844    0.2572 H   0  0  0  0  0  0  0  0  0  0  0  0
    0.6777   -1.8660    0.4959 H   0  0  0  0  0  0  0  0  0  0  0  0
    2.9584   -0.3256    0.2262 H   0  0  0  0  0  0  0  0  0  0  0  0
   -0.3542    2.1014   -0.5384 H   0  0  0  0  0  0  0  0  0  0  0  0
  1  2  1  0
  2  3  1  0
  3  4  2  0
  4  5  1  0
  5  6  2  0
  6  2  1  0
  1  7  1  0
  1  8  1  0
  1  9  1  0
  3 10  1  0
  4 11  1  0
  6 12  1  0
M  END
$$$$
