
     RDKit          3D

 17 17  0  0  0  0  0  0  0  0999 V2000
    3.2118    0.4326    0.0021 C   0  0  0  0  0  0  0  0  0  0  0  0
    1.8064    0.4699   -0.2525 O   0  0  0  0  0  0  0  0  0  0  0  0
    1.0797   -0.3461    0.5511 C   0  0  0  0  0  0  0  0  0  0  0  0
    1.5242   -1.0691    1.4279 O   0  0  0  0  0  0  0  0  0  0  0  0
   -0.3591   -0.2488    0.2242 C   0  0  0  0  0  0  0  0  0  0  0  0
   -0.8740    0.5773   -0.7787 C   0  0  0  0  0  0  0  0  0  0  0  0
   -2.2487    0.5982   -1.0104 C   0  0  0  0  0  0  0  0  0  0  0  0
   -3.0617   -0.2088   -0.2300 C   0  0  0  0  0  0  0  0  0  0  0  0
   -2.5978   -1.0182    0.7466 N   0  0  0  0  0  0  0  0  0  0  0  0
   -1.2562   -1.0203    0.9521 C   0  0  0  0  0  0  0  0  0  0  0  0
    3.7003    1.1202   -0.6939 H   0  0  0  0  0  0  0  0  0  0  0  0
    3.4252    0.7634    1.0234 H   0  0  0  0  0  0  0  0  0  0  0  0
    3.6061   -0.5737   -0.1708 H   0  0  0  0  0  0  0  0  0  0  0  0
   -0.2220    1.2036   -1.3812 H   0  0  0  0  0  0  0  0  0  0  0  0
   -2.6758    1.2296   -1.7820 H   0  0  0  0  0  0  0  0  0  0  0  0
   -4.1387   -0.2262   -0.3736 H   0  0  0  0  0  0  0  0  0  0  0  0
   -0.9198   -1.6837    1.7459 H   0  0  0  0  0  0  0  0  0  0  0  0
  1  2  1  0
  2  3  1  0
  3  4  2  0
  3  5  1  0
  5  6  2  0
  6  7  1  0
  7  8  2  0
  8  9  1  0
  9 10  2  0
 10  5  1  0
  1 11  1  0
  1 12  1  0
  1 13  1  0
  6 14  1  0
  7 15  1  0
  8 16  1  0
 10 17  1  0
M  END
$$$$
