
     RDKit          3D

 56 60  0  0  0  0  0  0  0  0999 V2000
    3.4857    0.8914    3.3621 C   0  0  0  0  0  0  0  0  0  0  0  0
    4.7947    0.5392    2.8227 N   0  0  0  0  0  0  0  0  0  0  0  0
    5.9002    0.5852    3.7676 C   0  0  0  0  0  0  0  0  0  0  0  0
    5.0637    0.2152    1.5002 C   0  0  0  0  0  0  0  0  0  0  0  0
    6.2072    0.1226    1.0527 O   0  0  0  0  0  0  0  0  0  0  0  0
    3.9147   -0.0214    0.5846 C   0  0  0  0  0  0  0  0  0  0  0  0
    2.9702   -1.0254    0.9218 C   0  0  0  0  0  0  0  0  0  0  0  0
    2.2053   -1.8439    1.2265 N   0  0  0  0  0  0  0  0  0  0  0  0
    3.9306    0.6795   -0.5617 C   0  0  0  0  0  0  0  0  0  0  0  0
    2.9243    0.5804   -1.5599 C   0  0  0  0  0  0  0  0  0  0  0  0
    3.0665    0.7117   -2.9319 C   0  0  0  0  0  0  0  0  0  0  0  0
    1.7870    0.5607   -3.5090 C   0  0  0  0  0  0  0  0  0  0  0  0
    0.8877    0.3634   -2.4761 C   0  0  0  0  0  0  0  0  0  0  0  0
   -0.5418    0.2341   -2.5994 C   0  0  0  0  0  0  0  0  0  0  0  0
   -1.1350    0.4197   -3.7676 N   0  0  0  0  0  0  0  0  0  0  0  0
   -2.4744    0.4077   -3.5094 C   0  0  0  0  0  0  0  0  0  0  0  0
   -3.5746    0.6082   -4.3624 C   0  0  0  0  0  0  0  0  0  0  0  0
   -4.8646    0.6137   -3.9162 N   0  0  0  0  0  0  0  0  0  0  0  0
   -5.0001    0.4313   -2.5928 C   0  0  0  0  0  0  0  0  0  0  0  0
   -6.1692    0.4275   -1.8867 N   0  0  0  0  0  0  0  0  0  0  0  0
   -5.8973    0.2442   -0.5489 C   0  0  0  0  0  0  0  0  0  0  0  0
   -4.5268    0.1181   -0.3922 C   0  0  0  0  0  0  0  0  0  0  0  0
   -3.9766    0.2194   -1.6935 C   0  0  0  0  0  0  0  0  0  0  0  0
   -2.6930    0.1820   -2.1604 C   0  0  0  0  0  0  0  0  0  0  0  0
   -1.4781   -0.0398   -1.5963 N   0  0  0  0  0  0  0  0  0  0  0  0
   -1.1335   -0.5342   -0.2628 C   0  0  0  0  0  0  0  0  0  0  0  0
   -1.2260    0.5688    0.8017 C   0  0  0  0  0  0  0  0  0  0  0  0
   -0.9353    0.0551    2.2084 C   0  0  0  0  0  0  0  0  0  0  0  0
   -1.7434   -1.1925    2.5443 C   0  0  0  0  0  0  0  0  0  0  0  0
   -1.4992   -2.3061    1.5328 C   0  0  0  0  0  0  0  0  0  0  0  0
   -1.8171   -1.8643    0.1068 C   0  0  0  0  0  0  0  0  0  0  0  0
    1.5888    0.3766   -1.2988 O   0  0  0  0  0  0  0  0  0  0  0  0
    3.1073    0.0427    3.9388 H   0  0  0  0  0  0  0  0  0  0  0  0
    3.5928    1.7585    4.0215 H   0  0  0  0  0  0  0  0  0  0  0  0
    2.7736    1.1523    2.5768 H   0  0  0  0  0  0  0  0  0  0  0  0
    6.0578    1.6243    4.0719 H   0  0  0  0  0  0  0  0  0  0  0  0
    5.6409   -0.0169    4.6437 H   0  0  0  0  0  0  0  0  0  0  0  0
    6.8272    0.1963    3.3384 H   0  0  0  0  0  0  0  0  0  0  0  0
    4.7598    1.3540   -0.7680 H   0  0  0  0  0  0  0  0  0  0  0  0
    3.9948    0.8932   -3.4571 H   0  0  0  0  0  0  0  0  0  0  0  0
    1.5269    0.6117   -4.5584 H   0  0  0  0  0  0  0  0  0  0  0  0
   -3.4360    0.7823   -5.4232 H   0  0  0  0  0  0  0  0  0  0  0  0
   -7.0789    0.5586   -2.3044 H   0  0  0  0  0  0  0  0  0  0  0  0
   -6.7017    0.2247    0.1743 H   0  0  0  0  0  0  0  0  0  0  0  0
   -4.0421   -0.0250    0.5598 H   0  0  0  0  0  0  0  0  0  0  0  0
   -0.0785   -0.8160   -0.3095 H   0  0  0  0  0  0  0  0  0  0  0  0
   -2.2084    1.0475    0.7946 H   0  0  0  0  0  0  0  0  0  0  0  0
   -0.5151    1.3704    0.5625 H   0  0  0  0  0  0  0  0  0  0  0  0
    0.1337   -0.1672    2.3009 H   0  0  0  0  0  0  0  0  0  0  0  0
   -1.1543    0.8437    2.9376 H   0  0  0  0  0  0  0  0  0  0  0  0
   -1.4723   -1.5438    3.5464 H   0  0  0  0  0  0  0  0  0  0  0  0
   -2.8111   -0.9452    2.5713 H   0  0  0  0  0  0  0  0  0  0  0  0
   -2.1112   -3.1783    1.7899 H   0  0  0  0  0  0  0  0  0  0  0  0
   -0.4545   -2.6302    1.5905 H   0  0  0  0  0  0  0  0  0  0  0  0
   -2.9001   -1.8198   -0.0031 H   0  0  0  0  0  0  0  0  0  0  0  0
   -1.4914   -2.6460   -0.5921 H   0  0  0  0  0  0  0  0  0  0  0  0
  1  2  1  0
  2  3  1  0
  2  4  1  0
  4  5  2  0
  4  6  1  0
  6  7  1  0
  7  8  3  0
  6  9  2  0
  9 10  1  0
 10 11  2  0
 11 12  1  0
 12 13  2  0
 13 14  1  0
 14 15  2  0
 15 16  1  0
 16 17  2  0
 17 18  1  0
 18 19  2  0
 19 20  1  0
 20 21  1  0
 21 22  2  0
 22 23  1  0
 23 24  2  0
 24 25  1  0
 25 26  1  0
 26 27  1  0
 27 28  1  0
 28 29  1  0
 29 30  1  0
 30 31  1  0
 13 32  1  0
 32 10  1  0
 25 14  1  0
 31 26  1  0
 24 16  1  0
 23 19  1  0
  1 33  1  0
  1 34  1  0
  1 35  1  0
  3 36  1  0
  3 37  1  0
  3 38  1  0
  9 39  1  0
 11 40  1  0
 12 41  1  0
 17 42  1  0
 20 43  1  0
 21 44  1  0
 22 45  1  0
 26 46  1  0
 27 47  1  0
 27 48  1  0
 28 49  1  0
 28 50  1  0
 29 51  1  0
 29 52  1  0
 30 53  1  0
 30 54  1  0
 31 55  1  0
 31 56  1  0
M  END
$$$$
