
     RDKit          3D

 47 53  0  0  0  0  0  0  0  0999 V2000
   -1.5131    3.9123   -1.2517 O   0  0  0  0  0  0  0  0  0  0  0  0
   -0.7119    2.9936   -1.0816 C   0  0  0  0  0  0  0  0  0  0  0  0
    0.7637    3.2688   -0.8714 C   0  0  0  0  0  0  0  0  0  0  0  0
    1.5195    2.0943   -0.2391 C   0  0  0  0  0  0  0  0  0  0  0  0
    1.1395    1.9506    1.1294 O   0  0  0  0  0  0  0  0  0  0  0  0
    1.9850    1.1144    1.9193 C   0  0  0  0  0  0  0  0  0  0  0  0
    1.5390   -0.3179    1.8573 C   0  0  0  0  0  0  0  0  0  0  0  0
    1.5363   -1.0613    0.7338 C   0  0  0  0  0  0  0  0  0  0  0  0
    0.9277   -2.5131    0.6675 C   0  0  0  0  0  0  0  0  0  0  0  0
    0.2091   -2.8976   -0.5883 N   0  0  0  0  0  0  0  0  0  0  0  0
   -1.2747   -3.0301   -0.6443 C   0  0  0  0  0  0  0  0  0  0  0  0
   -1.8515   -1.7213   -1.3382 C   0  0  0  0  0  0  0  0  0  0  0  0
   -0.7114   -0.7574   -1.0095 C   0  0  0  0  0  0  0  0  0  0  0  0
   -1.3047   -0.1821    0.3185 C   0  0  0  0  0  0  0  0  0  0  0  0
   -1.7068   -0.7775    1.5180 C   0  0  0  0  0  0  0  0  0  0  0  0
   -2.3802   -0.0344    2.4990 C   0  0  0  0  0  0  0  0  0  0  0  0
   -2.6858    1.3090    2.2901 C   0  0  0  0  0  0  0  0  0  0  0  0
   -2.3081    1.9229    1.1028 C   0  0  0  0  0  0  0  0  0  0  0  0
   -1.6289    1.1704    0.1474 C   0  0  0  0  0  0  0  0  0  0  0  0
   -1.0766    1.6601   -1.0481 N   0  0  0  0  0  0  0  0  0  0  0  0
   -0.2077    0.5964   -1.5563 C   0  0  0  0  0  0  0  0  0  0  0  0
    1.3041    0.8462   -1.1029 C   0  0  0  0  0  0  0  0  0  0  0  0
    2.0458   -0.4227   -0.5639 C   0  0  0  0  0  0  0  0  0  0  0  0
    1.8421   -1.4293   -1.6472 C   0  0  0  0  0  0  0  0  0  0  0  0
    0.3831   -1.8069   -1.5167 C   0  0  0  0  0  0  0  0  0  0  0  0
    0.8395    4.1431   -0.2143 H   0  0  0  0  0  0  0  0  0  0  0  0
    1.1942    3.5234   -1.8464 H   0  0  0  0  0  0  0  0  0  0  0  0
    2.5853    2.3594   -0.2552 H   0  0  0  0  0  0  0  0  0  0  0  0
    3.0412    1.2308    1.6510 H   0  0  0  0  0  0  0  0  0  0  0  0
    1.8843    1.4574    2.9549 H   0  0  0  0  0  0  0  0  0  0  0  0
    1.1483   -0.7348    2.7818 H   0  0  0  0  0  0  0  0  0  0  0  0
    1.7947   -3.1863    0.7217 H   0  0  0  0  0  0  0  0  0  0  0  0
    0.3395   -2.7532    1.5575 H   0  0  0  0  0  0  0  0  0  0  0  0
   -1.5251   -3.8835   -1.2871 H   0  0  0  0  0  0  0  0  0  0  0  0
   -1.7201   -3.2526    0.3268 H   0  0  0  0  0  0  0  0  0  0  0  0
   -1.9599   -1.8734   -2.4205 H   0  0  0  0  0  0  0  0  0  0  0  0
   -2.8515   -1.4808   -0.9585 H   0  0  0  0  0  0  0  0  0  0  0  0
   -1.5373   -1.8200    1.7408 H   0  0  0  0  0  0  0  0  0  0  0  0
   -2.6805   -0.5155    3.4269 H   0  0  0  0  0  0  0  0  0  0  0  0
   -3.2121    1.8765    3.0523 H   0  0  0  0  0  0  0  0  0  0  0  0
   -2.5346    2.9720    0.9396 H   0  0  0  0  0  0  0  0  0  0  0  0
   -0.2615    0.6211   -2.6524 H   0  0  0  0  0  0  0  0  0  0  0  0
    1.8123    1.1007   -2.0490 H   0  0  0  0  0  0  0  0  0  0  0  0
    3.1179   -0.2084   -0.4690 H   0  0  0  0  0  0  0  0  0  0  0  0
    2.5086   -2.2969   -1.5492 H   0  0  0  0  0  0  0  0  0  0  0  0
    2.0523   -1.0142   -2.6414 H   0  0  0  0  0  0  0  0  0  0  0  0
    0.1312   -2.1522   -2.5342 H   0  0  0  0  0  0  0  0  0  0  0  0
  1  2  2  0
  2  3  1  0
  3  4  1  0
  4  5  1  0
  5  6  1  0
  6  7  1  0
  7  8  2  0
  8  9  1  0
  9 10  1  0
 10 11  1  0
 11 12  1  0
 12 13  1  0
 13 14  1  0
 14 15  2  0
 15 16  1  0
 16 17  2  0
 17 18  1  0
 18 19  2  0
 19 20  1  0
 20 21  1  0
 21 22  1  0
 22 23  1  0
 23 24  1  0
 24 25  1  0
 20  2  1  0
 22  4  1  0
 23  8  1  0
 25 10  1  0
 21 13  1  0
 25 13  1  0
 19 14  1  0
  3 26  1  0
  3 27  1  0
  4 28  1  0
  6 29  1  0
  6 30  1  0
  7 31  1  0
  9 32  1  0
  9 33  1  0
 11 34  1  0
 11 35  1  0
 12 36  1  0
 12 37  1  0
 15 38  1  0
 16 39  1  0
 17 40  1  0
 18 41  1  0
 21 42  1  0
 22 43  1  0
 23 44  1  0
 24 45  1  0
 24 46  1  0
 25 47  1  0
M  END
$$$$
