
     RDKit          3D

 28 30  0  0  0  0  0  0  0  0999 V2000
   -0.6997    2.3011    1.1667 O   0  0  0  0  0  0  0  0  0  0  0  0
   -1.0610    1.8001    0.1058 C   0  0  0  0  0  0  0  0  0  0  0  0
   -2.3556    2.2522   -0.5550 C   0  0  0  0  0  0  0  0  0  0  0  0
   -3.3012    1.0975   -0.7040 C   0  0  0  0  0  0  0  0  0  0  0  0
   -4.0494    0.4758    0.2763 C   0  0  0  0  0  0  0  0  0  0  0  0
   -4.8319   -0.5967   -0.2397 C   0  0  0  0  0  0  0  0  0  0  0  0
   -4.6592   -0.7554   -1.5963 C   0  0  0  0  0  0  0  0  0  0  0  0
   -3.5587    0.3827   -2.2405 S   0  0  0  0  0  0  0  0  0  0  0  0
   -0.3860    0.8503   -0.6320 N   0  0  0  0  0  0  0  0  0  0  0  0
    0.8070    0.3159   -0.2362 C   0  0  0  0  0  0  0  0  0  0  0  0
    1.5441    0.6073    0.8001 N   0  0  0  0  0  0  0  0  0  0  0  0
    2.6745   -0.1907    0.8010 C   0  0  0  0  0  0  0  0  0  0  0  0
    3.7034   -0.1673    1.7639 C   0  0  0  0  0  0  0  0  0  0  0  0
    4.7937   -1.0345    1.6386 C   0  0  0  0  0  0  0  0  0  0  0  0
    4.8700   -1.9211    0.5688 C   0  0  0  0  0  0  0  0  0  0  0  0
    3.8629   -1.9650   -0.4007 C   0  0  0  0  0  0  0  0  0  0  0  0
    2.7726   -1.0897   -0.2648 C   0  0  0  0  0  0  0  0  0  0  0  0
    1.3902   -0.9017   -1.2774 S   0  0  0  0  0  0  0  0  0  0  0  0
   -2.1136    2.7198   -1.5164 H   0  0  0  0  0  0  0  0  0  0  0  0
   -2.8172    3.0246    0.0717 H   0  0  0  0  0  0  0  0  0  0  0  0
   -4.0330    0.7733    1.3194 H   0  0  0  0  0  0  0  0  0  0  0  0
   -5.4896   -1.2192    0.3549 H   0  0  0  0  0  0  0  0  0  0  0  0
   -5.1292   -1.4850   -2.2418 H   0  0  0  0  0  0  0  0  0  0  0  0
   -0.8044    0.4587   -1.4637 H   0  0  0  0  0  0  0  0  0  0  0  0
    3.6376    0.5268    2.5962 H   0  0  0  0  0  0  0  0  0  0  0  0
    5.5848   -1.0123    2.3846 H   0  0  0  0  0  0  0  0  0  0  0  0
    5.7243   -2.5899    0.4844 H   0  0  0  0  0  0  0  0  0  0  0  0
    3.9244   -2.6575   -1.2345 H   0  0  0  0  0  0  0  0  0  0  0  0
  1  2  2  0
  2  3  1  0
  3  4  1  0
  4  5  2  0
  5  6  1  0
  6  7  2  0
  7  8  1  0
  2  9  1  0
  9 10  1  0
 10 11  2  0
 11 12  1  0
 12 13  2  0
 13 14  1  0
 14 15  2  0
 15 16  1  0
 16 17  2  0
 17 18  1  0
  8  4  1  0
 18 10  1  0
 17 12  1  0
  3 19  1  0
  3 20  1  0
  5 21  1  0
  6 22  1  0
  7 23  1  0
  9 24  1  0
 13 25  1  0
 14 26  1  0
 15 27  1  0
 16 28  1  0
M  END
$$$$
