
     RDKit          3D

 26 27  0  0  0  0  0  0  0  0999 V2000
   -1.1025    1.8115    1.1782 C   0  0  0  0  0  0  0  0  0  0  0  0
   -1.3253    1.0848   -0.0590 N   0  0  0  0  0  0  0  0  0  0  0  0
   -2.1646   -0.0953    0.1036 C   0  0  0  0  0  0  0  0  0  0  0  0
   -1.9940   -0.8415   -1.2117 C   0  0  0  0  0  0  0  0  0  0  0  0
   -0.7203   -0.2805   -1.8432 C   0  0  0  0  0  0  0  0  0  0  0  0
   -0.1236    0.6778   -0.8038 C   0  0  0  0  0  0  0  0  0  0  0  0
    1.0092    0.0863    0.0141 C   0  0  0  0  0  0  0  0  0  0  0  0
    1.0544   -1.2388    0.4613 C   0  0  0  0  0  0  0  0  0  0  0  0
    2.1373   -1.6870    1.2151 C   0  0  0  0  0  0  0  0  0  0  0  0
    3.1521   -0.7926    1.5056 C   0  0  0  0  0  0  0  0  0  0  0  0
    3.1525    0.4929    1.1005 N   0  0  0  0  0  0  0  0  0  0  0  0
    2.0871    0.8985    0.3705 C   0  0  0  0  0  0  0  0  0  0  0  0
   -0.4829    2.6970    1.0003 H   0  0  0  0  0  0  0  0  0  0  0  0
   -0.6268    1.2011    1.9533 H   0  0  0  0  0  0  0  0  0  0  0  0
   -2.0565    2.1723    1.5789 H   0  0  0  0  0  0  0  0  0  0  0  0
   -1.8348   -0.7235    0.9396 H   0  0  0  0  0  0  0  0  0  0  0  0
   -3.2129    0.1709    0.2738 H   0  0  0  0  0  0  0  0  0  0  0  0
   -2.8477   -0.6681   -1.8770 H   0  0  0  0  0  0  0  0  0  0  0  0
   -1.9161   -1.9209   -1.0453 H   0  0  0  0  0  0  0  0  0  0  0  0
   -0.0371   -1.0749   -2.1613 H   0  0  0  0  0  0  0  0  0  0  0  0
   -1.0004    0.2811   -2.7443 H   0  0  0  0  0  0  0  0  0  0  0  0
    0.2704    1.5482   -1.3451 H   0  0  0  0  0  0  0  0  0  0  0  0
    0.2545   -1.9362    0.2330 H   0  0  0  0  0  0  0  0  0  0  0  0
    2.1865   -2.7109    1.5679 H   0  0  0  0  0  0  0  0  0  0  0  0
    4.0162   -1.0953    2.0897 H   0  0  0  0  0  0  0  0  0  0  0  0
    2.1252    1.9432    0.0701 H   0  0  0  0  0  0  0  0  0  0  0  0
  1  2  1  0
  2  3  1  0
  3  4  1  0
  4  5  1  0
  5  6  1  0
  6  7  1  0
  7  8  2  0
  8  9  1  0
  9 10  2  0
 10 11  1  0
 11 12  2  0
  6  2  1  0
 12  7  1  0
  1 13  1  0
  1 14  1  0
  1 15  1  0
  3 16  1  0
  3 17  1  0
  4 18  1  0
  4 19  1  0
  5 20  1  0
  5 21  1  0
  6 22  1  0
  8 23  1  0
  9 24  1  0
 10 25  1  0
 12 26  1  0
M  END
$$$$
