
     RDKit          3D

 83 88  0  0  0  0  0  0  0  0999 V2000
    3.6604    3.8637    0.7816 C   0  0  0  0  0  0  0  0  0  0  0  0
    2.4541    3.2837    0.0263 C   0  0  0  0  0  0  0  0  0  0  0  0
    2.6679    3.4573   -1.4861 C   0  0  0  0  0  0  0  0  0  0  0  0
    2.2194    1.9039    0.4831 N   0  0  0  0  0  0  0  0  0  0  0  0
    3.1268    0.8929   -0.0862 C   0  0  0  0  0  0  0  0  0  0  0  0
    3.4043   -0.2671    0.8927 C   0  0  1  0  0  0  0  0  0  0  0  0
    3.9729   -1.3577    0.1239 O   0  0  0  0  0  0  0  0  0  0  0  0
    5.2509   -1.6798    0.7022 C   0  0  1  0  0  0  0  0  0  0  0  0
    6.1266   -2.1727   -0.3327 N   0  0  0  0  0  0  0  0  0  0  0  0
    6.1031   -1.8610   -1.6652 C   0  0  0  0  0  0  0  0  0  0  0  0
    7.0387   -2.5052   -2.3381 N   0  0  0  0  0  0  0  0  0  0  0  0
    7.6642   -3.3042   -1.4008 C   0  0  0  0  0  0  0  0  0  0  0  0
    8.7053   -4.2481   -1.4889 C   0  0  0  0  0  0  0  0  0  0  0  0
    9.3227   -4.5837   -2.6810 N   0  0  0  0  0  0  0  0  0  0  0  0
    9.1206   -4.8565   -0.3531 N   0  0  0  0  0  0  0  0  0  0  0  0
    8.4997   -4.5458    0.8044 C   0  0  0  0  0  0  0  0  0  0  0  0
    7.4910   -3.6773    1.0055 N   0  0  0  0  0  0  0  0  0  0  0  0
    7.1211   -3.0945   -0.1452 C   0  0  0  0  0  0  0  0  0  0  0  0
    5.7302   -0.3874    1.3673 C   0  0  2  0  0  0  0  0  0  0  0  0
    6.7128   -0.5802    2.3738 O   0  0  0  0  0  0  0  0  0  0  0  0
    4.4198    0.0883    1.9773 C   0  0  2  0  0  0  0  0  0  0  0  0
    4.1579   -0.6956    3.1506 O   0  0  0  0  0  0  0  0  0  0  0  0
    0.8316    1.3923    0.4184 C   0  0  1  0  0  0  0  0  0  0  0  0
    0.0127    1.9178    1.6199 C   0  0  0  0  0  0  0  0  0  0  0  0
   -1.2059    1.9624    0.6542 C   0  0  1  0  0  0  0  0  0  0  0  0
   -2.1840    3.1118    0.8884 C   0  0  0  0  0  0  0  0  0  0  0  0
   -3.2533    3.1682   -0.1988 C   0  0  0  0  0  0  0  0  0  0  0  0
   -4.3060    2.1143   -0.0888 C   0  0  0  0  0  0  0  0  0  0  0  0
   -4.7950    1.4014   -1.0861 N   0  0  0  0  0  0  0  0  0  0  0  0
   -5.8137    0.6525   -0.5471 C   0  0  0  0  0  0  0  0  0  0  0  0
   -6.6949   -0.2476   -1.1670 C   0  0  0  0  0  0  0  0  0  0  0  0
   -7.6910   -0.9090   -0.4083 C   0  0  0  0  0  0  0  0  0  0  0  0
   -8.6709   -1.8757   -1.1021 C   0  0  0  0  0  0  0  0  0  0  0  0
   -9.5160   -1.0894   -2.1264 C   0  0  0  0  0  0  0  0  0  0  0  0
   -7.8892   -2.9903   -1.8304 C   0  0  0  0  0  0  0  0  0  0  0  0
   -9.6547   -2.5743   -0.1369 C   0  0  0  0  0  0  0  0  0  0  0  0
   -7.7557   -0.6406    0.9727 C   0  0  0  0  0  0  0  0  0  0  0  0
   -6.8874    0.2582    1.6130 C   0  0  0  0  0  0  0  0  0  0  0  0
   -5.9364    0.8897    0.8138 C   0  0  0  0  0  0  0  0  0  0  0  0
   -4.9691    1.8246    1.0806 N   0  0  0  0  0  0  0  0  0  0  0  0
   -0.1699    2.1195   -0.5006 C   0  0  0  0  0  0  0  0  0  0  0  0
    3.5745    3.6855    1.8574 H   0  0  0  0  0  0  0  0  0  0  0  0
    3.6989    4.9542    0.6393 H   0  0  0  0  0  0  0  0  0  0  0  0
    4.6075    3.4355    0.4404 H   0  0  0  0  0  0  0  0  0  0  0  0
    1.6132    3.9152    0.3302 H   0  0  0  0  0  0  0  0  0  0  0  0
    3.6466    3.0892   -1.8123 H   0  0  0  0  0  0  0  0  0  0  0  0
    1.9083    2.9416   -2.0873 H   0  0  0  0  0  0  0  0  0  0  0  0
    2.6161    4.5217   -1.7412 H   0  0  0  0  0  0  0  0  0  0  0  0
    4.0961    1.3323   -0.3499 H   0  0  0  0  0  0  0  0  0  0  0  0
    2.7291    0.4974   -1.0359 H   0  0  0  0  0  0  0  0  0  0  0  0
    2.4806   -0.6572    1.3340 H   0  0  0  0  0  0  0  0  0  0  0  0
    5.0998   -2.4865    1.4305 H   0  0  0  0  0  0  0  0  0  0  0  0
    5.3876   -1.1707   -2.0938 H   0  0  0  0  0  0  0  0  0  0  0  0
    9.2133   -3.9039   -3.4304 H   0  0  0  0  0  0  0  0  0  0  0  0
   10.2162   -5.0346   -2.5647 H   0  0  0  0  0  0  0  0  0  0  0  0
    8.8619   -5.0679    1.6873 H   0  0  0  0  0  0  0  0  0  0  0  0
    6.1099    0.3265    0.6261 H   0  0  0  0  0  0  0  0  0  0  0  0
    7.1549    0.2711    2.5234 H   0  0  0  0  0  0  0  0  0  0  0  0
    4.4278    1.1338    2.2843 H   0  0  0  0  0  0  0  0  0  0  0  0
    5.0192   -0.7840    3.6159 H   0  0  0  0  0  0  0  0  0  0  0  0
    0.7475    0.2993    0.3194 H   0  0  0  0  0  0  0  0  0  0  0  0
   -0.0804    1.1990    2.4443 H   0  0  0  0  0  0  0  0  0  0  0  0
    0.3109    2.8942    2.0327 H   0  0  0  0  0  0  0  0  0  0  0  0
   -1.7256    0.9949    0.6163 H   0  0  0  0  0  0  0  0  0  0  0  0
   -2.6397    3.0052    1.8834 H   0  0  0  0  0  0  0  0  0  0  0  0
   -1.6406    4.0627    0.8931 H   0  0  0  0  0  0  0  0  0  0  0  0
   -2.7929    3.1164   -1.1920 H   0  0  0  0  0  0  0  0  0  0  0  0
   -3.7617    4.1394   -0.1485 H   0  0  0  0  0  0  0  0  0  0  0  0
   -6.5913   -0.4014   -2.2345 H   0  0  0  0  0  0  0  0  0  0  0  0
   -8.8939   -0.6489   -2.9160 H   0  0  0  0  0  0  0  0  0  0  0  0
  -10.2523   -1.7393   -2.6148 H   0  0  0  0  0  0  0  0  0  0  0  0
  -10.0590   -0.2706   -1.6389 H   0  0  0  0  0  0  0  0  0  0  0  0
   -8.5660   -3.7139   -2.2979 H   0  0  0  0  0  0  0  0  0  0  0  0
   -7.2463   -3.5353   -1.1334 H   0  0  0  0  0  0  0  0  0  0  0  0
   -7.2520   -2.5950   -2.6243 H   0  0  0  0  0  0  0  0  0  0  0  0
  -10.2979   -1.8498    0.3751 H   0  0  0  0  0  0  0  0  0  0  0  0
   -9.1277   -3.1599    0.6234 H   0  0  0  0  0  0  0  0  0  0  0  0
  -10.3183   -3.2596   -0.6735 H   0  0  0  0  0  0  0  0  0  0  0  0
   -8.5024   -1.1255    1.5966 H   0  0  0  0  0  0  0  0  0  0  0  0
   -6.9728    0.4530    2.6765 H   0  0  0  0  0  0  0  0  0  0  0  0
   -4.7835    2.2351    1.9814 H   0  0  0  0  0  0  0  0  0  0  0  0
   -0.0122    3.1703   -0.7675 H   0  0  0  0  0  0  0  0  0  0  0  0
   -0.4249    1.5715   -1.4110 H   0  0  0  0  0  0  0  0  0  0  0  0
  1  2  1  0
  2  3  1  0
  2  4  1  0
  4  5  1  0
  5  6  1  0
  6  7  1  0
  7  8  1  0
  8  9  1  0
  9 10  1  0
 10 11  2  0
 11 12  1  0
 12 13  2  0
 13 14  1  0
 13 15  1  0
 15 16  2  0
 16 17  1  0
 17 18  2  0
  8 19  1  0
 19 20  1  0
 19 21  1  0
 21 22  1  0
  4 23  1  0
 23 24  1  0
 24 25  1  0
 25 26  1  0
 26 27  1  0
 27 28  1  0
 28 29  2  0
 29 30  1  0
 30 31  2  0
 31 32  1  0
 32 33  1  0
 33 34  1  0
 33 35  1  0
 33 36  1  0
 32 37  2  0
 37 38  1  0
 38 39  2  0
 39 40  1  0
 25 41  1  0
 21  6  1  0
 41 23  1  0
 18  9  1  0
 40 28  1  0
 18 12  1  0
 39 30  1  0
  1 42  1  0
  1 43  1  0
  1 44  1  0
  2 45  1  0
  3 46  1  0
  3 47  1  0
  3 48  1  0
  5 49  1  0
  5 50  1  0
  6 51  1  1
  8 52  1  1
 10 53  1  0
 14 54  1  0
 14 55  1  0
 16 56  1  0
 19 57  1  6
 20 58  1  0
 21 59  1  1
 22 60  1  0
 23 61  1  6
 24 62  1  0
 24 63  1  0
 25 64  1  6
 26 65  1  0
 26 66  1  0
 27 67  1  0
 27 68  1  0
 31 69  1  0
 34 70  1  0
 34 71  1  0
 34 72  1  0
 35 73  1  0
 35 74  1  0
 35 75  1  0
 36 76  1  0
 36 77  1  0
 36 78  1  0
 37 79  1  0
 38 80  1  0
 40 81  1  0
 41 82  1  0
 41 83  1  0
M  END
$$$$
