
     RDKit          3D

 46 48  0  0  0  0  0  0  0  0999 V2000
   -4.9198    1.1412   -1.4966 C   0  0  0  0  0  0  0  0  0  0  0  0
   -3.8711    2.0274   -0.8171 C   0  0  0  0  0  0  0  0  0  0  0  0
   -3.5799    1.5541    0.6105 C   0  0  0  0  0  0  0  0  0  0  0  0
   -2.8399    0.2159    0.6690 C   0  0  0  0  0  0  0  0  0  0  0  0
   -1.8160    0.0270   -0.4630 C   0  0  0  0  0  0  0  0  0  0  0  0
   -0.6501   -0.7070    0.0122 N   0  0  0  0  0  0  0  0  0  0  0  0
   -0.6704   -2.0741    0.1723 C   0  0  0  0  0  0  0  0  0  0  0  0
   -1.6274   -2.7720   -0.1531 O   0  0  0  0  0  0  0  0  0  0  0  0
    0.5678   -2.6956    0.8000 C   0  0  0  0  0  0  0  0  0  0  0  0
    0.7554   -2.2601    2.2413 C   0  0  0  0  0  0  0  0  0  0  0  0
    1.7645   -1.1411    2.1560 C   0  0  0  0  0  0  0  0  0  0  0  0
    1.9808   -0.3819    3.0873 O   0  0  0  0  0  0  0  0  0  0  0  0
    2.3530   -1.1708    0.8833 N   0  0  0  0  0  0  0  0  0  0  0  0
    3.3927   -0.3194    0.4126 C   0  0  0  0  0  0  0  0  0  0  0  0
    3.8265    0.7949    1.1447 C   0  0  0  0  0  0  0  0  0  0  0  0
    4.8448    1.6306    0.6664 C   0  0  0  0  0  0  0  0  0  0  0  0
    5.4463    1.3621   -0.5563 C   0  0  0  0  0  0  0  0  0  0  0  0
    6.6950    2.3857   -1.1457 Cl  0  0  0  0  0  0  0  0  0  0  0  0
    5.0376    0.2642   -1.3029 C   0  0  0  0  0  0  0  0  0  0  0  0
    4.0189   -0.5683   -0.8210 C   0  0  0  0  0  0  0  0  0  0  0  0
    1.8463   -2.2812    0.1034 C   0  0  0  0  0  0  0  0  0  0  0  0
   -1.3935    1.3637   -1.0710 C   0  0  0  0  0  0  0  0  0  0  0  0
   -2.5852    2.1218   -1.6601 C   0  0  0  0  0  0  0  0  0  0  0  0
   -4.5599    0.1194   -1.6488 H   0  0  0  0  0  0  0  0  0  0  0  0
   -5.8336    1.0920   -0.8947 H   0  0  0  0  0  0  0  0  0  0  0  0
   -5.1907    1.5494   -2.4763 H   0  0  0  0  0  0  0  0  0  0  0  0
   -4.3074    3.0334   -0.7559 H   0  0  0  0  0  0  0  0  0  0  0  0
   -4.5077    1.4849    1.1910 H   0  0  0  0  0  0  0  0  0  0  0  0
   -2.9673    2.3156    1.1114 H   0  0  0  0  0  0  0  0  0  0  0  0
   -2.3573    0.1345    1.6518 H   0  0  0  0  0  0  0  0  0  0  0  0
   -3.5646   -0.6074    0.6285 H   0  0  0  0  0  0  0  0  0  0  0  0
   -2.2784   -0.5789   -1.2530 H   0  0  0  0  0  0  0  0  0  0  0  0
    0.1019   -0.1636    0.4201 H   0  0  0  0  0  0  0  0  0  0  0  0
    0.4338   -3.7823    0.7342 H   0  0  0  0  0  0  0  0  0  0  0  0
    1.1889   -3.0637    2.8456 H   0  0  0  0  0  0  0  0  0  0  0  0
   -0.1683   -1.9029    2.7056 H   0  0  0  0  0  0  0  0  0  0  0  0
    3.3876    1.0571    2.1028 H   0  0  0  0  0  0  0  0  0  0  0  0
    5.1565    2.4865    1.2595 H   0  0  0  0  0  0  0  0  0  0  0  0
    5.5057    0.0446   -2.2591 H   0  0  0  0  0  0  0  0  0  0  0  0
    3.7465   -1.4195   -1.4379 H   0  0  0  0  0  0  0  0  0  0  0  0
    2.5887   -3.0870    0.1407 H   0  0  0  0  0  0  0  0  0  0  0  0
    1.6680   -1.9891   -0.9366 H   0  0  0  0  0  0  0  0  0  0  0  0
   -0.6400    1.2087   -1.8532 H   0  0  0  0  0  0  0  0  0  0  0  0
   -0.9077    1.9824   -0.3047 H   0  0  0  0  0  0  0  0  0  0  0  0
   -2.2988    3.1763   -1.7623 H   0  0  0  0  0  0  0  0  0  0  0  0
   -2.7722    1.7655   -2.6808 H   0  0  0  0  0  0  0  0  0  0  0  0
  1  2  1  0
  2  3  1  0
  3  4  1  0
  4  5  1  0
  5  6  1  0
  6  7  1  0
  7  8  2  0
  7  9  1  0
  9 10  1  0
 10 11  1  0
 11 12  2  0
 11 13  1  0
 13 14  1  0
 14 15  2  0
 15 16  1  0
 16 17  2  0
 17 18  1  0
 17 19  1  0
 19 20  2  0
 13 21  1  0
  5 22  1  0
 22 23  1  0
 23  2  1  0
 21  9  1  0
 20 14  1  0
  1 24  1  0
  1 25  1  0
  1 26  1  0
  2 27  1  0
  3 28  1  0
  3 29  1  0
  4 30  1  0
  4 31  1  0
  5 32  1  0
  6 33  1  0
  9 34  1  0
 10 35  1  0
 10 36  1  0
 15 37  1  0
 16 38  1  0
 19 39  1  0
 20 40  1  0
 21 41  1  0
 21 42  1  0
 22 43  1  0
 22 44  1  0
 23 45  1  0
 23 46  1  0
M  END
$$$$
