
     RDKit          3D

 41 43  0  0  0  0  0  0  0  0999 V2000
    0.1775   -2.7554    0.1518 O   0  0  0  0  0  0  0  0  0  0  0  0
    0.0996   -1.5352    0.0852 C   0  0  0  0  0  0  0  0  0  0  0  0
   -1.1931   -0.8097   -0.1199 C   0  0  0  0  0  0  0  0  0  0  0  0
   -2.3184   -1.4324    0.2716 C   0  0  0  0  0  0  0  0  0  0  0  0
   -3.6627   -0.8736    0.1305 C   0  0  0  0  0  0  0  0  0  0  0  0
   -4.5069   -1.3439   -0.8820 C   0  0  0  0  0  0  0  0  0  0  0  0
   -5.7917   -0.8155   -1.0301 C   0  0  0  0  0  0  0  0  0  0  0  0
   -6.2251    0.1811   -0.1610 C   0  0  0  0  0  0  0  0  0  0  0  0
   -7.4703    0.7255   -0.2692 O   0  0  0  0  0  0  0  0  0  0  0  0
   -5.3980    0.6547    0.8511 C   0  0  0  0  0  0  0  0  0  0  0  0
   -4.1147    0.1263    0.9995 C   0  0  0  0  0  0  0  0  0  0  0  0
   -1.0697    0.5277   -0.7928 C   0  0  0  0  0  0  0  0  0  0  0  0
   -0.0919    1.4633   -0.0785 C   0  0  0  0  0  0  0  0  0  0  0  0
    0.9918    0.7423    0.7262 C   0  0  0  0  0  0  0  0  0  0  0  0
    1.2884   -0.6337    0.2014 C   0  0  0  0  0  0  0  0  0  0  0  0
    2.4862   -1.1475   -0.1281 C   0  0  0  0  0  0  0  0  0  0  0  0
    3.7478   -0.4107   -0.0577 C   0  0  0  0  0  0  0  0  0  0  0  0
    4.6378   -0.6577    0.9939 C   0  0  0  0  0  0  0  0  0  0  0  0
    5.8443    0.0424    1.0749 C   0  0  0  0  0  0  0  0  0  0  0  0
    6.1537    0.9857    0.0999 C   0  0  0  0  0  0  0  0  0  0  0  0
    7.3191    1.6921    0.1399 O   0  0  0  0  0  0  0  0  0  0  0  0
    5.2803    1.2381   -0.9517 C   0  0  0  0  0  0  0  0  0  0  0  0
    4.0754    0.5383   -1.0331 C   0  0  0  0  0  0  0  0  0  0  0  0
   -2.2797   -2.4250    0.7188 H   0  0  0  0  0  0  0  0  0  0  0  0
   -4.1671   -2.1227   -1.5613 H   0  0  0  0  0  0  0  0  0  0  0  0
   -6.4318   -1.1916   -1.8216 H   0  0  0  0  0  0  0  0  0  0  0  0
   -7.9364    0.2899   -1.0016 H   0  0  0  0  0  0  0  0  0  0  0  0
   -5.7521    1.4305    1.5238 H   0  0  0  0  0  0  0  0  0  0  0  0
   -3.4746    0.4973    1.7960 H   0  0  0  0  0  0  0  0  0  0  0  0
   -2.0327    1.0361   -0.9073 H   0  0  0  0  0  0  0  0  0  0  0  0
   -0.7073    0.3548   -1.8156 H   0  0  0  0  0  0  0  0  0  0  0  0
   -0.6447    2.1285    0.5970 H   0  0  0  0  0  0  0  0  0  0  0  0
    0.3768    2.1161   -0.8259 H   0  0  0  0  0  0  0  0  0  0  0  0
    0.6472    0.6366    1.7642 H   0  0  0  0  0  0  0  0  0  0  0  0
    1.8817    1.3780    0.7783 H   0  0  0  0  0  0  0  0  0  0  0  0
    2.5768   -2.1795   -0.4647 H   0  0  0  0  0  0  0  0  0  0  0  0
    4.3949   -1.3950    1.7560 H   0  0  0  0  0  0  0  0  0  0  0  0
    6.5214   -0.1615    1.8981 H   0  0  0  0  0  0  0  0  0  0  0  0
    7.8316    1.4011    0.9118 H   0  0  0  0  0  0  0  0  0  0  0  0
    5.5377    1.9751   -1.7071 H   0  0  0  0  0  0  0  0  0  0  0  0
    3.3989    0.7366   -1.8606 H   0  0  0  0  0  0  0  0  0  0  0  0
  1  2  2  0
  2  3  1  0
  3  4  2  0
  4  5  1  0
  5  6  2  0
  6  7  1  0
  7  8  2  0
  8  9  1  0
  8 10  1  0
 10 11  2  0
  3 12  1  0
 12 13  1  0
 13 14  1  0
 14 15  1  0
 15 16  2  0
 16 17  1  0
 17 18  2  0
 18 19  1  0
 19 20  2  0
 20 21  1  0
 20 22  1  0
 22 23  2  0
 15  2  1  0
 23 17  1  0
 11  5  1  0
  4 24  1  0
  6 25  1  0
  7 26  1  0
  9 27  1  0
 10 28  1  0
 11 29  1  0
 12 30  1  0
 12 31  1  0
 13 32  1  0
 13 33  1  0
 14 34  1  0
 14 35  1  0
 16 36  1  0
 18 37  1  0
 19 38  1  0
 21 39  1  0
 22 40  1  0
 23 41  1  0
M  END
$$$$
