
     RDKit          3D

 44 46  0  0  0  0  0  0  0  0999 V2000
    6.0913   -0.4652    1.5659 C   0  0  0  0  0  0  0  0  0  0  0  0
    5.7664    0.5981    0.5205 C   0  0  0  0  0  0  0  0  0  0  0  0
    6.4641    0.3560   -0.8150 C   0  0  0  0  0  0  0  0  0  0  0  0
    4.3244    0.8318    0.3745 N   0  0  0  0  0  0  0  0  0  0  0  0
    3.4670   -0.1673   -0.0977 C   0  0  0  0  0  0  0  0  0  0  0  0
    2.1235    0.1345   -0.2064 C   0  0  0  0  0  0  0  0  0  0  0  0
    1.2896   -0.8470   -0.7058 C   0  0  0  0  0  0  0  0  0  0  0  0
   -0.1442   -0.5981   -0.8391 C   0  0  0  0  0  0  0  0  0  0  0  0
   -1.0277   -1.5106   -1.3810 C   0  0  0  0  0  0  0  0  0  0  0  0
   -2.6077   -0.8575   -1.3901 S   0  0  0  0  0  0  0  0  0  0  0  0
   -2.0289    0.5652   -0.6283 C   0  0  0  0  0  0  0  0  0  0  0  0
   -2.8629    1.6533   -0.3645 N   0  0  0  0  0  0  0  0  0  0  0  0
   -2.2665    2.9816   -0.3323 C   0  0  0  0  0  0  0  0  0  0  0  0
   -4.2572    1.5941   -0.4044 C   0  0  0  0  0  0  0  0  0  0  0  0
   -4.9546    2.5213   -0.8191 O   0  0  0  0  0  0  0  0  0  0  0  0
   -4.9717    0.4486    0.2248 C   0  0  0  0  0  0  0  0  0  0  0  0
   -6.1609   -0.0077   -0.3619 C   0  0  0  0  0  0  0  0  0  0  0  0
   -6.8659   -1.0609    0.2226 C   0  0  0  0  0  0  0  0  0  0  0  0
   -6.3890   -1.6379    1.3951 C   0  0  0  0  0  0  0  0  0  0  0  0
   -7.0672   -2.6476    1.9555 F   0  0  0  0  0  0  0  0  0  0  0  0
   -5.2244   -1.1771    2.0018 C   0  0  0  0  0  0  0  0  0  0  0  0
   -4.5147   -0.1236    1.4223 C   0  0  0  0  0  0  0  0  0  0  0  0
   -0.7283    0.5954   -0.4294 N   0  0  0  0  0  0  0  0  0  0  0  0
    1.7369   -2.0596   -1.0875 N   0  0  0  0  0  0  0  0  0  0  0  0
    3.0537   -2.2464   -0.9606 C   0  0  0  0  0  0  0  0  0  0  0  0
    3.9382   -1.3584   -0.4870 N   0  0  0  0  0  0  0  0  0  0  0  0
    7.1657   -0.4732    1.7796 H   0  0  0  0  0  0  0  0  0  0  0  0
    5.5635   -0.2644    2.5044 H   0  0  0  0  0  0  0  0  0  0  0  0
    5.8182   -1.4724    1.2384 H   0  0  0  0  0  0  0  0  0  0  0  0
    6.1717    1.5430    0.9059 H   0  0  0  0  0  0  0  0  0  0  0  0
    7.5515    0.4007   -0.6887 H   0  0  0  0  0  0  0  0  0  0  0  0
    6.2295   -0.6231   -1.2416 H   0  0  0  0  0  0  0  0  0  0  0  0
    6.1796    1.1183   -1.5483 H   0  0  0  0  0  0  0  0  0  0  0  0
    3.9310    1.2465    1.2152 H   0  0  0  0  0  0  0  0  0  0  0  0
    1.7418    1.1071    0.0771 H   0  0  0  0  0  0  0  0  0  0  0  0
   -0.8209   -2.4968   -1.7735 H   0  0  0  0  0  0  0  0  0  0  0  0
   -1.3870    2.9822    0.3190 H   0  0  0  0  0  0  0  0  0  0  0  0
   -1.9782    3.2656   -1.3493 H   0  0  0  0  0  0  0  0  0  0  0  0
   -2.9759    3.7206    0.0534 H   0  0  0  0  0  0  0  0  0  0  0  0
   -6.5358    0.4572   -1.2716 H   0  0  0  0  0  0  0  0  0  0  0  0
   -7.7841   -1.4293   -0.2241 H   0  0  0  0  0  0  0  0  0  0  0  0
   -4.8827   -1.6365    2.9242 H   0  0  0  0  0  0  0  0  0  0  0  0
   -3.6182    0.2480    1.9123 H   0  0  0  0  0  0  0  0  0  0  0  0
    3.4473   -3.2085   -1.2696 H   0  0  0  0  0  0  0  0  0  0  0  0
  1  2  1  0
  2  3  1  0
  2  4  1  0
  4  5  1  0
  5  6  2  0
  6  7  1  0
  7  8  1  0
  8  9  2  0
  9 10  1  0
 10 11  1  0
 11 12  1  0
 12 13  1  0
 12 14  1  0
 14 15  2  0
 14 16  1  0
 16 17  2  0
 17 18  1  0
 18 19  2  0
 19 20  1  0
 19 21  1  0
 21 22  2  0
 11 23  2  0
  7 24  2  0
 24 25  1  0
 25 26  2  0
 26  5  1  0
 23  8  1  0
 22 16  1  0
  1 27  1  0
  1 28  1  0
  1 29  1  0
  2 30  1  0
  3 31  1  0
  3 32  1  0
  3 33  1  0
  4 34  1  0
  6 35  1  0
  9 36  1  0
 13 37  1  0
 13 38  1  0
 13 39  1  0
 17 40  1  0
 18 41  1  0
 21 42  1  0
 22 43  1  0
 25 44  1  0
M  END
$$$$
