
     RDKit          3D

 26 29  0  0  0  0  0  0  0  0999 V2000
    3.4856   -0.4476    0.0254 C   0  0  0  0  0  0  0  0  0  0  0  0
    2.9489    0.8395    0.0260 C   0  0  0  0  0  0  0  0  0  0  0  0
    1.5598    1.0346    0.0159 C   0  0  0  0  0  0  0  0  0  0  0  0
    1.0022    2.3204    0.0163 C   0  0  0  0  0  0  0  0  0  0  0  0
   -0.3837    2.4983    0.0062 C   0  0  0  0  0  0  0  0  0  0  0  0
   -1.2479    1.3951   -0.0046 C   0  0  0  0  0  0  0  0  0  0  0  0
   -2.6412    1.5573   -0.0148 C   0  0  0  0  0  0  0  0  0  0  0  0
   -3.4856    0.4476   -0.0254 C   0  0  0  0  0  0  0  0  0  0  0  0
   -2.9489   -0.8395   -0.0260 C   0  0  0  0  0  0  0  0  0  0  0  0
   -1.5598   -1.0346   -0.0159 C   0  0  0  0  0  0  0  0  0  0  0  0
   -1.0022   -2.3204   -0.0163 C   0  0  0  0  0  0  0  0  0  0  0  0
    0.3837   -2.4983   -0.0062 C   0  0  0  0  0  0  0  0  0  0  0  0
    1.2479   -1.3951    0.0046 C   0  0  0  0  0  0  0  0  0  0  0  0
    2.6412   -1.5573    0.0148 C   0  0  0  0  0  0  0  0  0  0  0  0
    0.7027   -0.0902    0.0051 C   0  0  0  0  0  0  0  0  0  0  0  0
   -0.7027    0.0902   -0.0051 C   0  0  0  0  0  0  0  0  0  0  0  0
    4.5636   -0.5860    0.0333 H   0  0  0  0  0  0  0  0  0  0  0  0
    3.6247    1.6917    0.0343 H   0  0  0  0  0  0  0  0  0  0  0  0
    1.6440    3.1985    0.0245 H   0  0  0  0  0  0  0  0  0  0  0  0
   -0.7828    3.5102    0.0068 H   0  0  0  0  0  0  0  0  0  0  0  0
   -3.0798    2.5526   -0.0145 H   0  0  0  0  0  0  0  0  0  0  0  0
   -4.5636    0.5860   -0.0333 H   0  0  0  0  0  0  0  0  0  0  0  0
   -3.6247   -1.6917   -0.0343 H   0  0  0  0  0  0  0  0  0  0  0  0
   -1.6440   -3.1985   -0.0245 H   0  0  0  0  0  0  0  0  0  0  0  0
    0.7828   -3.5102   -0.0068 H   0  0  0  0  0  0  0  0  0  0  0  0
    3.0798   -2.5526    0.0145 H   0  0  0  0  0  0  0  0  0  0  0  0
  1  2  2  0
  2  3  1  0
  3  4  2  0
  4  5  1  0
  5  6  2  0
  6  7  1  0
  7  8  2  0
  8  9  1  0
  9 10  2  0
 10 11  1  0
 11 12  2  0
 12 13  1  0
 13 14  2  0
 13 15  1  0
 15 16  2  0
 14  1  1  0
 15  3  1  0
 16  6  1  0
 16 10  1  0
  1 17  1  0
  2 18  1  0
  4 19  1  0
  5 20  1  0
  7 21  1  0
  8 22  1  0
  9 23  1  0
 11 24  1  0
 12 25  1  0
 14 26  1  0
M  END
$$$$
