
     RDKit          3D

 55 57  0  0  0  0  0  0  0  0999 V2000
   -5.8792   -1.7343    1.8639 C   0  0  0  0  0  0  0  0  0  0  0  0
   -6.4038   -0.8428    0.7171 C   0  0  0  0  0  0  0  0  0  0  0  0
   -7.0167   -1.7831   -0.3452 C   0  0  0  0  0  0  0  0  0  0  0  0
   -7.5433    0.0522    1.2491 C   0  0  0  0  0  0  0  0  0  0  0  0
   -5.2608    0.0398    0.1818 C   0  0  0  0  0  0  0  0  0  0  0  0
   -4.8449    0.0071   -1.1619 C   0  0  0  0  0  0  0  0  0  0  0  0
   -3.8032    0.8194   -1.6219 C   0  0  0  0  0  0  0  0  0  0  0  0
   -3.1536    1.6759   -0.7346 C   0  0  0  0  0  0  0  0  0  0  0  0
   -1.8249    2.7061   -1.3010 S   0  0  0  0  0  6  0  0  0  0  0  0
   -1.8986    3.9571   -0.5809 O   0  0  0  0  0  0  0  0  0  0  0  0
   -1.7917    2.6541   -2.7453 O   0  0  0  0  0  0  0  0  0  0  0  0
   -0.4737    1.9056   -0.7278 N   0  0  0  0  0  0  0  0  0  0  0  0
   -0.2244    0.5370   -1.1591 C   0  0  0  0  0  0  0  0  0  0  0  0
    1.1914    0.1303   -0.8280 C   0  0  0  0  0  0  0  0  0  0  0  0
    2.2550    0.5652   -1.6333 C   0  0  0  0  0  0  0  0  0  0  0  0
    3.5724    0.2161   -1.3224 C   0  0  0  0  0  0  0  0  0  0  0  0
    3.8403   -0.5585   -0.1877 C   0  0  0  0  0  0  0  0  0  0  0  0
    5.2274   -0.9529    0.1899 C   0  0  0  0  0  0  0  0  0  0  0  0
    5.3965   -2.0474    0.7139 O   0  0  0  0  0  0  0  0  0  0  0  0
    6.1963   -0.0001   -0.0659 N   0  0  0  0  0  0  0  0  0  0  0  0
    7.5845   -0.1154    0.1693 C   0  0  0  0  0  0  0  0  0  0  0  0
    8.2124   -1.2591    0.6543 C   0  0  0  0  0  0  0  0  0  0  0  0
    9.5952   -1.2642    0.8465 C   0  0  0  0  0  0  0  0  0  0  0  0
   10.3118   -0.1193    0.5422 C   0  0  0  0  0  0  0  0  0  0  0  0
    9.7469    1.0091    0.0670 N   0  0  0  0  0  0  0  0  0  0  0  0
    8.4029    0.9811   -0.1063 C   0  0  0  0  0  0  0  0  0  0  0  0
    2.7816   -1.0043    0.6130 C   0  0  0  0  0  0  0  0  0  0  0  0
    1.4659   -0.6547    0.3001 C   0  0  0  0  0  0  0  0  0  0  0  0
   -3.5544    1.7488    0.5979 C   0  0  0  0  0  0  0  0  0  0  0  0
   -4.5961    0.9336    1.0476 C   0  0  0  0  0  0  0  0  0  0  0  0
   -5.0480   -2.3642    1.5242 H   0  0  0  0  0  0  0  0  0  0  0  0
   -6.6664   -2.3966    2.2418 H   0  0  0  0  0  0  0  0  0  0  0  0
   -5.5192   -1.1472    2.7160 H   0  0  0  0  0  0  0  0  0  0  0  0
   -7.4555   -1.2205   -1.1779 H   0  0  0  0  0  0  0  0  0  0  0  0
   -6.2680   -2.4721   -0.7541 H   0  0  0  0  0  0  0  0  0  0  0  0
   -7.8175   -2.3959    0.0852 H   0  0  0  0  0  0  0  0  0  0  0  0
   -8.3898   -0.5510    1.5974 H   0  0  0  0  0  0  0  0  0  0  0  0
   -7.2229    0.6718    2.0931 H   0  0  0  0  0  0  0  0  0  0  0  0
   -7.9134    0.7269    0.4669 H   0  0  0  0  0  0  0  0  0  0  0  0
   -5.3263   -0.6447   -1.8874 H   0  0  0  0  0  0  0  0  0  0  0  0
   -3.5141    0.7768   -2.6705 H   0  0  0  0  0  0  0  0  0  0  0  0
   -0.1891    2.1752    0.2110 H   0  0  0  0  0  0  0  0  0  0  0  0
   -0.9202   -0.1428   -0.6551 H   0  0  0  0  0  0  0  0  0  0  0  0
   -0.3815    0.4270   -2.2377 H   0  0  0  0  0  0  0  0  0  0  0  0
    2.0560    1.1764   -2.5127 H   0  0  0  0  0  0  0  0  0  0  0  0
    4.3685    0.5333   -1.9902 H   0  0  0  0  0  0  0  0  0  0  0  0
    5.8808    0.9020   -0.3991 H   0  0  0  0  0  0  0  0  0  0  0  0
    7.6591   -2.1609    0.8934 H   0  0  0  0  0  0  0  0  0  0  0  0
   10.0974   -2.1470    1.2266 H   0  0  0  0  0  0  0  0  0  0  0  0
   11.3891   -0.0800    0.6770 H   0  0  0  0  0  0  0  0  0  0  0  0
    7.9918    1.9100   -0.4900 H   0  0  0  0  0  0  0  0  0  0  0  0
    2.9818   -1.6227    1.4865 H   0  0  0  0  0  0  0  0  0  0  0  0
    0.6599   -1.0047    0.9425 H   0  0  0  0  0  0  0  0  0  0  0  0
   -3.0723    2.4369    1.2883 H   0  0  0  0  0  0  0  0  0  0  0  0
   -4.8915    1.0114    2.0926 H   0  0  0  0  0  0  0  0  0  0  0  0
  1  2  1  0
  2  3  1  0
  2  4  1  0
  2  5  1  0
  5  6  2  0
  6  7  1  0
  7  8  2  0
  8  9  1  0
  9 10  2  0
  9 11  2  0
  9 12  1  0
 12 13  1  0
 13 14  1  0
 14 15  2  0
 15 16  1  0
 16 17  2  0
 17 18  1  0
 18 19  2  0
 18 20  1  0
 20 21  1  0
 21 22  2  0
 22 23  1  0
 23 24  2  0
 24 25  1  0
 25 26  2  0
 17 27  1  0
 27 28  2  0
  8 29  1  0
 29 30  2  0
 30  5  1  0
 28 14  1  0
 26 21  1  0
  1 31  1  0
  1 32  1  0
  1 33  1  0
  3 34  1  0
  3 35  1  0
  3 36  1  0
  4 37  1  0
  4 38  1  0
  4 39  1  0
  6 40  1  0
  7 41  1  0
 12 42  1  0
 13 43  1  0
 13 44  1  0
 15 45  1  0
 16 46  1  0
 20 47  1  0
 22 48  1  0
 23 49  1  0
 24 50  1  0
 26 51  1  0
 27 52  1  0
 28 53  1  0
 29 54  1  0
 30 55  1  0
M  END
$$$$
