
     RDKit          3D

 78 82  0  0  0  0  0  0  0  0999 V2000
   -8.2374    2.7923   -0.8484 C   0  0  0  0  0  0  0  0  0  0  0  0
   -7.2370    1.8685   -1.5254 C   0  0  0  0  0  0  0  0  0  0  0  0
   -5.7855    2.0885   -1.0789 C   0  0  0  0  0  0  0  0  0  0  0  0
   -5.5222    1.7496    0.3734 C   0  0  0  0  0  0  0  0  0  0  0  0
   -5.5323    2.8774    1.2956 C   0  0  0  0  0  0  0  0  0  0  0  0
   -5.2666    2.7127    2.6005 C   0  0  0  0  0  0  0  0  0  0  0  0
   -5.2539    3.8320    3.5930 C   0  0  0  0  0  0  0  0  0  0  0  0
   -4.9991    1.4504    3.0716 N   0  0  0  0  0  0  0  0  0  0  0  0
   -4.9895    0.3190    2.2966 C   0  0  0  0  0  0  0  0  0  0  0  0
   -4.7652   -0.7879    2.7805 O   0  0  0  0  0  0  0  0  0  0  0  0
   -5.2524    0.5038    0.8292 C   0  0  0  0  0  0  0  0  0  0  0  0
   -5.2247   -0.7567    0.0127 C   0  0  0  0  0  0  0  0  0  0  0  0
   -3.9175   -1.3758    0.0857 N   0  0  0  0  0  0  0  0  0  0  0  0
   -2.8868   -1.0108   -0.7471 C   0  0  0  0  0  0  0  0  0  0  0  0
   -2.9842   -0.1958   -1.6563 O   0  0  0  0  0  0  0  0  0  0  0  0
   -1.5790   -1.6252   -0.4558 C   0  0  0  0  0  0  0  0  0  0  0  0
   -0.4177   -0.8467   -0.5498 C   0  0  0  0  0  0  0  0  0  0  0  0
    0.8249   -1.4104   -0.2558 C   0  0  0  0  0  0  0  0  0  0  0  0
    2.0855   -0.6360   -0.2817 C   0  0  0  0  0  0  0  0  0  0  0  0
    2.1471    0.7587   -0.2351 C   0  0  0  0  0  0  0  0  0  0  0  0
    3.3832    1.4203   -0.2425 C   0  0  0  0  0  0  0  0  0  0  0  0
    4.5738    0.6992   -0.2966 C   0  0  0  0  0  0  0  0  0  0  0  0
    5.8033    1.3439   -0.2600 N   0  0  0  0  0  0  0  0  0  0  0  0
    5.9775    2.5821   -1.0371 C   0  0  0  0  0  0  0  0  0  0  0  0
    7.3541    2.6373   -1.7447 C   0  0  0  0  0  0  0  0  0  0  0  0
    8.5290    2.3798   -0.8879 N   0  0  0  0  0  0  0  0  0  0  0  0
    9.0270    3.6060   -0.2690 C   0  0  0  0  0  0  0  0  0  0  0  0
    8.2287    1.3585    0.1462 C   0  0  0  0  0  0  0  0  0  0  0  0
    6.9897    0.4824   -0.1486 C   0  0  0  0  0  0  0  0  0  0  0  0
    4.5378   -0.6461   -0.3298 N   0  0  0  0  0  0  0  0  0  0  0  0
    3.3276   -1.2687   -0.3263 C   0  0  0  0  0  0  0  0  0  0  0  0
    0.9732   -2.7141    0.0888 N   0  0  0  0  0  0  0  0  0  0  0  0
   -0.1638   -3.4318    0.1395 C   0  0  0  0  0  0  0  0  0  0  0  0
   -1.4465   -2.9748   -0.1104 C   0  0  0  0  0  0  0  0  0  0  0  0
   -2.2602   -4.1141    0.0533 C   0  0  0  0  0  0  0  0  0  0  0  0
   -1.5687   -5.2033    0.4029 N   0  0  0  0  0  0  0  0  0  0  0  0
   -0.2876   -4.7627    0.4507 N   0  0  0  0  0  0  0  0  0  0  0  0
    0.7761   -5.6944    0.8048 C   0  0  0  0  0  0  0  0  0  0  0  0
    1.7230   -5.9489   -0.3650 C   0  0  0  0  0  0  0  0  0  0  0  0
    1.5297   -5.2589    2.0621 C   0  0  0  0  0  0  0  0  0  0  0  0
   -7.9432    3.8410   -0.9590 H   0  0  0  0  0  0  0  0  0  0  0  0
   -8.3320    2.5667    0.2174 H   0  0  0  0  0  0  0  0  0  0  0  0
   -9.2257    2.6690   -1.3019 H   0  0  0  0  0  0  0  0  0  0  0  0
   -7.2881    2.0380   -2.6076 H   0  0  0  0  0  0  0  0  0  0  0  0
   -7.5340    0.8276   -1.3525 H   0  0  0  0  0  0  0  0  0  0  0  0
   -5.1307    1.4887   -1.7220 H   0  0  0  0  0  0  0  0  0  0  0  0
   -5.4952    3.1273   -1.2887 H   0  0  0  0  0  0  0  0  0  0  0  0
   -5.7540    3.8658    0.9016 H   0  0  0  0  0  0  0  0  0  0  0  0
   -5.5921    4.7738    3.1466 H   0  0  0  0  0  0  0  0  0  0  0  0
   -5.9149    3.6118    4.4393 H   0  0  0  0  0  0  0  0  0  0  0  0
   -4.2402    3.9932    3.9774 H   0  0  0  0  0  0  0  0  0  0  0  0
   -4.8159    1.3048    4.0561 H   0  0  0  0  0  0  0  0  0  0  0  0
   -5.9493   -1.4761    0.4108 H   0  0  0  0  0  0  0  0  0  0  0  0
   -5.4752   -0.5926   -1.0383 H   0  0  0  0  0  0  0  0  0  0  0  0
   -3.6976   -1.8088    0.9786 H   0  0  0  0  0  0  0  0  0  0  0  0
   -0.5116    0.1927   -0.8510 H   0  0  0  0  0  0  0  0  0  0  0  0
    1.2498    1.3661   -0.1646 H   0  0  0  0  0  0  0  0  0  0  0  0
    3.4001    2.5017   -0.1712 H   0  0  0  0  0  0  0  0  0  0  0  0
    5.8806    3.4369   -0.3570 H   0  0  0  0  0  0  0  0  0  0  0  0
    5.2085    2.6856   -1.8140 H   0  0  0  0  0  0  0  0  0  0  0  0
    7.3569    1.8736   -2.5332 H   0  0  0  0  0  0  0  0  0  0  0  0
    7.4585    3.5923   -2.2754 H   0  0  0  0  0  0  0  0  0  0  0  0
    9.9042    3.4004    0.3534 H   0  0  0  0  0  0  0  0  0  0  0  0
    9.3514    4.3179   -1.0369 H   0  0  0  0  0  0  0  0  0  0  0  0
    8.2680    4.0909    0.3559 H   0  0  0  0  0  0  0  0  0  0  0  0
    9.1072    0.7132    0.2573 H   0  0  0  0  0  0  0  0  0  0  0  0
    8.0601    1.8380    1.1208 H   0  0  0  0  0  0  0  0  0  0  0  0
    6.8762   -0.2304    0.6790 H   0  0  0  0  0  0  0  0  0  0  0  0
    7.1455   -0.0883   -1.0732 H   0  0  0  0  0  0  0  0  0  0  0  0
    3.4025   -2.3539   -0.3582 H   0  0  0  0  0  0  0  0  0  0  0  0
   -3.3316   -4.1984   -0.0718 H   0  0  0  0  0  0  0  0  0  0  0  0
    0.2742   -6.6440    1.0393 H   0  0  0  0  0  0  0  0  0  0  0  0
    2.2767   -5.0495   -0.6595 H   0  0  0  0  0  0  0  0  0  0  0  0
    2.4582   -6.7188   -0.1067 H   0  0  0  0  0  0  0  0  0  0  0  0
    1.1676   -6.2981   -1.2426 H   0  0  0  0  0  0  0  0  0  0  0  0
    2.1156   -4.3492    1.8925 H   0  0  0  0  0  0  0  0  0  0  0  0
    0.8351   -5.0636    2.8858 H   0  0  0  0  0  0  0  0  0  0  0  0
    2.2212   -6.0448    2.3844 H   0  0  0  0  0  0  0  0  0  0  0  0
  1  2  1  0
  2  3  1  0
  3  4  1  0
  4  5  1  0
  5  6  2  0
  6  7  1  0
  6  8  1  0
  8  9  1  0
  9 10  2  0
  9 11  1  0
 11 12  1  0
 12 13  1  0
 13 14  1  0
 14 15  2  0
 14 16  1  0
 16 17  2  0
 17 18  1  0
 18 19  1  0
 19 20  2  0
 20 21  1  0
 21 22  2  0
 22 23  1  0
 23 24  1  0
 24 25  1  0
 25 26  1  0
 26 27  1  0
 26 28  1  0
 28 29  1  0
 22 30  1  0
 30 31  2  0
 18 32  2  0
 32 33  1  0
 33 34  2  0
 34 35  1  0
 35 36  2  0
 36 37  1  0
 37 38  1  0
 38 39  1  0
 38 40  1  0
 11  4  2  0
 34 16  1  0
 31 19  1  0
 37 33  1  0
 29 23  1  0
  1 41  1  0
  1 42  1  0
  1 43  1  0
  2 44  1  0
  2 45  1  0
  3 46  1  0
  3 47  1  0
  5 48  1  0
  7 49  1  0
  7 50  1  0
  7 51  1  0
  8 52  1  0
 12 53  1  0
 12 54  1  0
 13 55  1  0
 17 56  1  0
 20 57  1  0
 21 58  1  0
 24 59  1  0
 24 60  1  0
 25 61  1  0
 25 62  1  0
 27 63  1  0
 27 64  1  0
 27 65  1  0
 28 66  1  0
 28 67  1  0
 29 68  1  0
 29 69  1  0
 31 70  1  0
 35 71  1  0
 38 72  1  0
 39 73  1  0
 39 74  1  0
 39 75  1  0
 40 76  1  0
 40 77  1  0
 40 78  1  0
M  END
$$$$
