
     RDKit          3D

 53 57  0  0  0  0  0  0  0  0999 V2000
    6.7732    0.0365    0.1655 O   0  0  0  0  0  0  0  0  0  0  0  0
    5.8315    0.7809    0.3966 C   0  0  0  0  0  0  0  0  0  0  0  0
    4.4978    0.4853    0.3095 N   0  0  0  0  0  0  0  0  0  0  0  0
    3.9793   -0.7201   -0.0633 C   0  0  0  0  0  0  0  0  0  0  0  0
    4.7208   -1.8040   -0.4041 N   0  0  0  0  0  0  0  0  0  0  0  0
    3.8196   -2.7134   -0.6870 C   0  0  0  0  0  0  0  0  0  0  0  0
    3.9424   -4.0627   -1.1123 C   0  0  0  0  0  0  0  0  0  0  0  0
    2.8346   -4.7914   -1.3373 C   0  0  0  0  0  0  0  0  0  0  0  0
    1.5065   -4.2293   -1.1535 C   0  0  0  0  0  0  0  0  0  0  0  0
    1.3689   -2.9455   -0.7536 C   0  0  0  0  0  0  0  0  0  0  0  0
    0.0193   -2.3843   -0.5583 C   0  0  0  0  0  0  0  0  0  0  0  0
   -0.8938   -2.3304   -1.6206 C   0  0  0  0  0  0  0  0  0  0  0  0
   -2.1750   -1.8027   -1.4330 C   0  0  0  0  0  0  0  0  0  0  0  0
   -2.5667   -1.3169   -0.1789 C   0  0  0  0  0  0  0  0  0  0  0  0
   -3.9515   -0.7418    0.0305 C   0  0  0  0  0  0  0  0  0  0  0  0
   -3.9426    0.6770    0.4390 N   0  0  0  0  0  0  0  0  0  0  0  0
   -5.2706    1.1208    0.8968 C   0  0  0  0  0  0  0  0  0  0  0  0
   -6.1199    1.7822   -0.1715 C   0  0  0  0  0  0  0  0  0  0  0  0
   -5.3574    3.3080   -0.6774 S   0  0  0  0  0  6  0  0  0  0  0  0
   -5.5595    3.4444   -2.1080 O   0  0  0  0  0  0  0  0  0  0  0  0
   -5.7896    4.3505    0.2343 O   0  0  0  0  0  0  0  0  0  0  0  0
   -3.6269    3.0135   -0.3914 C   0  0  0  0  0  0  0  0  0  0  0  0
   -3.3325    1.5383   -0.5933 C   0  0  0  0  0  0  0  0  0  0  0  0
   -1.6536   -1.3724    0.8833 C   0  0  0  0  0  0  0  0  0  0  0  0
   -0.3730   -1.8989    0.6950 C   0  0  0  0  0  0  0  0  0  0  0  0
    2.5356   -2.1865   -0.5166 N   0  0  0  0  0  0  0  0  0  0  0  0
    2.6583   -0.8919   -0.1104 N   0  0  0  0  0  0  0  0  0  0  0  0
    6.1488    2.1814    0.8265 C   0  0  0  0  0  0  0  0  0  0  0  0
    5.3177    3.3719    0.4067 C   0  0  0  0  0  0  0  0  0  0  0  0
    5.3196    2.9314    1.8434 C   0  0  0  0  0  0  0  0  0  0  0  0
    3.7978    1.1742    0.5233 H   0  0  0  0  0  0  0  0  0  0  0  0
    4.9363   -4.4758   -1.2460 H   0  0  0  0  0  0  0  0  0  0  0  0
    2.9090   -5.8256   -1.6617 H   0  0  0  0  0  0  0  0  0  0  0  0
    0.6539   -4.8770   -1.3375 H   0  0  0  0  0  0  0  0  0  0  0  0
   -0.6124   -2.6896   -2.6083 H   0  0  0  0  0  0  0  0  0  0  0  0
   -2.8605   -1.7690   -2.2768 H   0  0  0  0  0  0  0  0  0  0  0  0
   -4.5626   -0.8752   -0.8718 H   0  0  0  0  0  0  0  0  0  0  0  0
   -4.4220   -1.3531    0.8123 H   0  0  0  0  0  0  0  0  0  0  0  0
   -5.1152    1.8272    1.7227 H   0  0  0  0  0  0  0  0  0  0  0  0
   -5.8277    0.2866    1.3409 H   0  0  0  0  0  0  0  0  0  0  0  0
   -7.1163    2.0253    0.2093 H   0  0  0  0  0  0  0  0  0  0  0  0
   -6.2295    1.1413   -1.0518 H   0  0  0  0  0  0  0  0  0  0  0  0
   -3.0678    3.6305   -1.1012 H   0  0  0  0  0  0  0  0  0  0  0  0
   -3.3810    3.3396    0.6241 H   0  0  0  0  0  0  0  0  0  0  0  0
   -2.2448    1.4061   -0.5657 H   0  0  0  0  0  0  0  0  0  0  0  0
   -3.6696    1.2396   -1.5950 H   0  0  0  0  0  0  0  0  0  0  0  0
   -1.9355   -0.9914    1.8631 H   0  0  0  0  0  0  0  0  0  0  0  0
    0.3160   -1.9205    1.5370 H   0  0  0  0  0  0  0  0  0  0  0  0
    7.2224    2.3539    0.8780 H   0  0  0  0  0  0  0  0  0  0  0  0
    5.8469    4.2855    0.1547 H   0  0  0  0  0  0  0  0  0  0  0  0
    4.4239    3.2184   -0.1853 H   0  0  0  0  0  0  0  0  0  0  0  0
    5.8500    3.5472    2.5628 H   0  0  0  0  0  0  0  0  0  0  0  0
    4.4269    2.4722    2.2497 H   0  0  0  0  0  0  0  0  0  0  0  0
  1  2  2  0
  2  3  1  0
  3  4  1  0
  4  5  1  0
  5  6  2  0
  6  7  1  0
  7  8  2  0
  8  9  1  0
  9 10  2  0
 10 11  1  0
 11 12  2  0
 12 13  1  0
 13 14  2  0
 14 15  1  0
 15 16  1  0
 16 17  1  0
 17 18  1  0
 18 19  1  0
 19 20  2  0
 19 21  2  0
 19 22  1  0
 22 23  1  0
 14 24  1  0
 24 25  2  0
 10 26  1  0
 26 27  1  0
  2 28  1  0
 28 29  1  0
 29 30  1  0
 27  4  2  0
 30 28  1  0
 26  6  1  0
 25 11  1  0
 23 16  1  0
  3 31  1  0
  7 32  1  0
  8 33  1  0
  9 34  1  0
 12 35  1  0
 13 36  1  0
 15 37  1  0
 15 38  1  0
 17 39  1  0
 17 40  1  0
 18 41  1  0
 18 42  1  0
 22 43  1  0
 22 44  1  0
 23 45  1  0
 23 46  1  0
 24 47  1  0
 25 48  1  0
 28 49  1  0
 29 50  1  0
 29 51  1  0
 30 52  1  0
 30 53  1  0
M  END
$$$$
