
     RDKit          3D

 40 42  0  0  0  0  0  0  0  0999 V2000
    7.8828   -0.3539   -0.7027 C   0  0  0  0  0  0  0  0  0  0  0  0
    6.9409   -1.2846   -0.1843 O   0  0  0  0  0  0  0  0  0  0  0  0
    5.6469   -0.8570   -0.0763 C   0  0  0  0  0  0  0  0  0  0  0  0
    4.7616   -1.7990    0.4498 C   0  0  0  0  0  0  0  0  0  0  0  0
    3.4050   -1.4955    0.6158 C   0  0  0  0  0  0  0  0  0  0  0  0
    2.9066   -0.2372    0.2553 C   0  0  0  0  0  0  0  0  0  0  0  0
    1.4868    0.0999    0.4199 C   0  0  0  0  0  0  0  0  0  0  0  0
    0.4275   -0.7305    0.8734 C   0  0  0  0  0  0  0  0  0  0  0  0
   -0.7237    0.0324    0.8157 C   0  0  0  0  0  0  0  0  0  0  0  0
   -2.0718   -0.3624    1.1446 C   0  0  0  0  0  0  0  0  0  0  0  0
   -2.3285   -1.0178    2.1478 O   0  0  0  0  0  0  0  0  0  0  0  0
   -3.0014    0.0282    0.1994 N   0  0  0  0  0  0  0  0  0  0  0  0
   -4.3598   -0.1973    0.3067 C   0  0  0  0  0  0  0  0  0  0  0  0
   -5.1392   -0.7667    1.3373 C   0  0  0  0  0  0  0  0  0  0  0  0
   -6.4423   -0.7864    1.0364 N   0  0  0  0  0  0  0  0  0  0  0  0
   -6.4924   -0.2396   -0.1900 N   0  0  0  0  0  0  0  0  0  0  0  0
   -7.7666   -0.1044   -0.8529 C   0  0  0  0  0  0  0  0  0  0  0  0
   -5.2699    0.1368   -0.6694 C   0  0  0  0  0  0  0  0  0  0  0  0
   -0.2903    1.2775    0.4495 N   0  0  0  0  0  0  0  0  0  0  0  0
   -1.0500    2.5070    0.4205 C   0  0  0  0  0  0  0  0  0  0  0  0
    1.0125    1.3223    0.1255 N   0  0  0  0  0  0  0  0  0  0  0  0
    3.8053    0.7032   -0.2717 C   0  0  0  0  0  0  0  0  0  0  0  0
    5.1633    0.3984   -0.4373 C   0  0  0  0  0  0  0  0  0  0  0  0
    7.9624    0.5281   -0.0586 H   0  0  0  0  0  0  0  0  0  0  0  0
    7.6342   -0.0721   -1.7312 H   0  0  0  0  0  0  0  0  0  0  0  0
    8.8616   -0.8430   -0.7192 H   0  0  0  0  0  0  0  0  0  0  0  0
    5.1308   -2.7810    0.7363 H   0  0  0  0  0  0  0  0  0  0  0  0
    2.7574   -2.2607    1.0337 H   0  0  0  0  0  0  0  0  0  0  0  0
    0.4748   -1.7664    1.1800 H   0  0  0  0  0  0  0  0  0  0  0  0
   -2.6755    0.4227   -0.6719 H   0  0  0  0  0  0  0  0  0  0  0  0
   -4.8189   -1.1650    2.2920 H   0  0  0  0  0  0  0  0  0  0  0  0
   -7.6197    0.3562   -1.8329 H   0  0  0  0  0  0  0  0  0  0  0  0
   -8.2016   -1.1001   -0.9700 H   0  0  0  0  0  0  0  0  0  0  0  0
   -8.4107    0.5274   -0.2362 H   0  0  0  0  0  0  0  0  0  0  0  0
   -5.1613    0.5942   -1.6420 H   0  0  0  0  0  0  0  0  0  0  0  0
   -1.8237    2.4735    1.1911 H   0  0  0  0  0  0  0  0  0  0  0  0
   -1.4945    2.6084   -0.5723 H   0  0  0  0  0  0  0  0  0  0  0  0
   -0.3789    3.3464    0.6221 H   0  0  0  0  0  0  0  0  0  0  0  0
    3.4517    1.6916   -0.5604 H   0  0  0  0  0  0  0  0  0  0  0  0
    5.8085    1.1664   -0.8497 H   0  0  0  0  0  0  0  0  0  0  0  0
  1  2  1  0
  2  3  1  0
  3  4  2  0
  4  5  1  0
  5  6  2  0
  6  7  1  0
  7  8  1  0
  8  9  2  0
  9 10  1  0
 10 11  2  0
 10 12  1  0
 12 13  1  0
 13 14  1  0
 14 15  2  0
 15 16  1  0
 16 17  1  0
 16 18  1  0
  9 19  1  0
 19 20  1  0
 19 21  1  0
  6 22  1  0
 22 23  2  0
 23  3  1  0
 21  7  2  0
 18 13  2  0
  1 24  1  0
  1 25  1  0
  1 26  1  0
  4 27  1  0
  5 28  1  0
  8 29  1  0
 12 30  1  0
 14 31  1  0
 17 32  1  0
 17 33  1  0
 17 34  1  0
 18 35  1  0
 20 36  1  0
 20 37  1  0
 20 38  1  0
 22 39  1  0
 23 40  1  0
M  END
$$$$
