
     RDKit          3D

 80 85  0  0  0  0  0  0  0  0999 V2000
   -0.0289   -4.0633   -2.4095 C   0  0  0  0  0  0  0  0  0  0  0  0
   -0.9371   -3.4138   -1.5296 O   0  0  0  0  0  0  0  0  0  0  0  0
   -0.7263   -2.0753   -1.2867 C   0  0  0  0  0  0  0  0  0  0  0  0
    0.4145   -1.3671   -1.6754 C   0  0  0  0  0  0  0  0  0  0  0  0
    0.5229   -0.0112   -1.3558 C   0  0  0  0  0  0  0  0  0  0  0  0
    1.6977    0.7655   -1.7922 C   0  0  0  0  0  0  0  0  0  0  0  0
    1.5261    1.5662   -2.7081 O   0  0  0  0  0  0  0  0  0  0  0  0
    2.9126    0.5734   -1.1374 N   0  0  0  0  0  0  0  0  0  0  0  0
    3.0967   -0.2816    0.0371 C   0  0  0  0  0  0  0  0  0  0  0  0
    4.5688   -0.6011    0.2805 C   0  0  0  0  0  0  0  0  0  0  0  0
    5.3814    0.6879    0.5177 C   0  0  0  0  0  0  0  0  0  0  0  0
    6.8431    0.5400    0.4147 N   0  0  0  0  0  0  0  0  0  0  0  0
    7.3654    0.0345   -0.8577 C   0  0  0  0  0  0  0  0  0  0  0  0
    8.9102    0.1620   -0.9607 C   0  0  0  0  0  0  0  0  0  0  0  0
    9.6713    0.0104    0.2986 N   0  0  0  0  0  0  0  0  0  0  0  0
   10.0660    1.3178    0.8261 C   0  0  0  0  0  0  0  0  0  0  0  0
    8.8694   -0.7331    1.2842 C   0  0  0  0  0  0  0  0  0  0  0  0
    7.4507   -0.1639    1.5575 C   0  0  0  0  0  0  0  0  0  0  0  0
    4.8712    1.8615   -0.3479 C   0  0  0  0  0  0  0  0  0  0  0  0
    4.0478    1.4022   -1.5447 C   0  0  0  0  0  0  0  0  0  0  0  0
   -0.5039    0.6518   -0.6869 C   0  0  0  0  0  0  0  0  0  0  0  0
   -1.6437   -0.0557   -0.3050 C   0  0  0  0  0  0  0  0  0  0  0  0
   -1.7737   -1.4213   -0.5917 C   0  0  0  0  0  0  0  0  0  0  0  0
   -2.9144   -2.1618   -0.2403 N   0  0  0  0  0  0  0  0  0  0  0  0
   -4.2408   -1.8050   -0.0364 C   0  0  0  0  0  0  0  0  0  0  0  0
   -5.0830   -2.8158    0.1813 N   0  0  0  0  0  0  0  0  0  0  0  0
   -6.3847   -2.4953    0.3277 C   0  0  0  0  0  0  0  0  0  0  0  0
   -6.9137   -1.2131    0.2706 C   0  0  0  0  0  0  0  0  0  0  0  0
   -5.9580   -0.2255    0.0431 C   0  0  0  0  0  0  0  0  0  0  0  0
   -4.6429   -0.5309   -0.1082 N   0  0  0  0  0  0  0  0  0  0  0  0
   -6.3299    1.1370   -0.0894 N   0  0  0  0  0  0  0  0  0  0  0  0
   -5.3306    1.9282   -0.8174 C   0  0  0  0  0  0  0  0  0  0  0  0
   -7.0277    1.7783    0.9517 C   0  0  0  0  0  0  0  0  0  0  0  0
   -6.5107    2.9181    1.6057 C   0  0  0  0  0  0  0  0  0  0  0  0
   -7.1927    3.5481    2.6525 C   0  0  0  0  0  0  0  0  0  0  0  0
   -8.4192    3.0571    3.0717 C   0  0  0  0  0  0  0  0  0  0  0  0
   -8.9548    1.9389    2.4406 C   0  0  0  0  0  0  0  0  0  0  0  0
   -8.2642    1.2926    1.3931 C   0  0  0  0  0  0  0  0  0  0  0  0
   -8.9796    0.1760    0.7310 C   0  0  0  0  0  0  0  0  0  0  0  0
  -10.2076    0.2941    0.6545 O   0  0  0  0  0  0  0  0  0  0  0  0
   -8.3288   -0.9972    0.3283 N   0  0  0  0  0  0  0  0  0  0  0  0
   -9.1948   -2.1071   -0.0659 C   0  0  0  0  0  0  0  0  0  0  0  0
    0.9727   -4.1186   -1.9722 H   0  0  0  0  0  0  0  0  0  0  0  0
   -0.0053   -3.5731   -3.3888 H   0  0  0  0  0  0  0  0  0  0  0  0
   -0.3819   -5.0896   -2.5581 H   0  0  0  0  0  0  0  0  0  0  0  0
    1.2233   -1.8354   -2.2250 H   0  0  0  0  0  0  0  0  0  0  0  0
    2.6657    0.2428    0.8974 H   0  0  0  0  0  0  0  0  0  0  0  0
    2.5455   -1.2157   -0.0894 H   0  0  0  0  0  0  0  0  0  0  0  0
    4.6584   -1.2674    1.1457 H   0  0  0  0  0  0  0  0  0  0  0  0
    4.9438   -1.1565   -0.5879 H   0  0  0  0  0  0  0  0  0  0  0  0
    5.1800    1.0020    1.5531 H   0  0  0  0  0  0  0  0  0  0  0  0
    6.9372    0.5852   -1.7028 H   0  0  0  0  0  0  0  0  0  0  0  0
    7.0976   -1.0208   -0.9890 H   0  0  0  0  0  0  0  0  0  0  0  0
    9.2615   -0.6132   -1.6543 H   0  0  0  0  0  0  0  0  0  0  0  0
    9.1552    1.1171   -1.4461 H   0  0  0  0  0  0  0  0  0  0  0  0
   10.7301    1.8276    0.1185 H   0  0  0  0  0  0  0  0  0  0  0  0
   10.6392    1.1995    1.7537 H   0  0  0  0  0  0  0  0  0  0  0  0
    9.2142    1.9785    1.0286 H   0  0  0  0  0  0  0  0  0  0  0  0
    8.7606   -1.7593    0.9096 H   0  0  0  0  0  0  0  0  0  0  0  0
    9.4168   -0.8275    2.2301 H   0  0  0  0  0  0  0  0  0  0  0  0
    6.8236   -0.9949    1.8990 H   0  0  0  0  0  0  0  0  0  0  0  0
    7.5167    0.5512    2.3863 H   0  0  0  0  0  0  0  0  0  0  0  0
    5.6954    2.5044   -0.6836 H   0  0  0  0  0  0  0  0  0  0  0  0
    4.2383    2.5007    0.2840 H   0  0  0  0  0  0  0  0  0  0  0  0
    4.6567    0.8019   -2.2317 H   0  0  0  0  0  0  0  0  0  0  0  0
    3.7026    2.2789   -2.1045 H   0  0  0  0  0  0  0  0  0  0  0  0
   -0.4213    1.7135   -0.4701 H   0  0  0  0  0  0  0  0  0  0  0  0
   -2.4253    0.4725    0.2330 H   0  0  0  0  0  0  0  0  0  0  0  0
   -2.8373   -3.1587   -0.4017 H   0  0  0  0  0  0  0  0  0  0  0  0
   -7.0105   -3.3638    0.5124 H   0  0  0  0  0  0  0  0  0  0  0  0
   -4.4166    2.0842   -0.2325 H   0  0  0  0  0  0  0  0  0  0  0  0
   -5.0608    1.4423   -1.7644 H   0  0  0  0  0  0  0  0  0  0  0  0
   -5.7371    2.9086   -1.0956 H   0  0  0  0  0  0  0  0  0  0  0  0
   -5.5439    3.3313    1.3294 H   0  0  0  0  0  0  0  0  0  0  0  0
   -6.7584    4.4211    3.1359 H   0  0  0  0  0  0  0  0  0  0  0  0
   -8.9638    3.5472    3.8751 H   0  0  0  0  0  0  0  0  0  0  0  0
   -9.9302    1.5720    2.7560 H   0  0  0  0  0  0  0  0  0  0  0  0
   -8.7837   -2.6180   -0.9437 H   0  0  0  0  0  0  0  0  0  0  0  0
  -10.1999   -1.7685   -0.3321 H   0  0  0  0  0  0  0  0  0  0  0  0
   -9.2831   -2.8040    0.7729 H   0  0  0  0  0  0  0  0  0  0  0  0
  1  2  1  0
  2  3  1  0
  3  4  2  0
  4  5  1  0
  5  6  1  0
  6  7  2  0
  6  8  1  0
  8  9  1  0
  9 10  1  0
 10 11  1  0
 11 12  1  0
 12 13  1  0
 13 14  1  0
 14 15  1  0
 15 16  1  0
 15 17  1  0
 17 18  1  0
 11 19  1  0
 19 20  1  0
  5 21  2  0
 21 22  1  0
 22 23  2  0
 23 24  1  0
 24 25  1  0
 25 26  2  0
 26 27  1  0
 27 28  2  0
 28 29  1  0
 29 30  2  0
 29 31  1  0
 31 32  1  0
 31 33  1  0
 33 34  2  0
 34 35  1  0
 35 36  2  0
 36 37  1  0
 37 38  2  0
 38 39  1  0
 39 40  2  0
 39 41  1  0
 41 42  1  0
 23  3  1  0
 30 25  1  0
 38 33  1  0
 20  8  1  0
 41 28  1  0
 18 12  1  0
  1 43  1  0
  1 44  1  0
  1 45  1  0
  4 46  1  0
  9 47  1  0
  9 48  1  0
 10 49  1  0
 10 50  1  0
 11 51  1  0
 13 52  1  0
 13 53  1  0
 14 54  1  0
 14 55  1  0
 16 56  1  0
 16 57  1  0
 16 58  1  0
 17 59  1  0
 17 60  1  0
 18 61  1  0
 18 62  1  0
 19 63  1  0
 19 64  1  0
 20 65  1  0
 20 66  1  0
 21 67  1  0
 22 68  1  0
 24 69  1  0
 27 70  1  0
 32 71  1  0
 32 72  1  0
 32 73  1  0
 34 74  1  0
 35 75  1  0
 36 76  1  0
 37 77  1  0
 42 78  1  0
 42 79  1  0
 42 80  1  0
M  END
$$$$
