
     RDKit          3D

 87 89  0  0  0  0  0  0  0  0999 V2000
   -6.4140   -2.7886    0.2167 N   0  0  0  0  0  0  0  0  0  0  0  0
   -5.5046   -1.8074   -0.0684 C   0  0  0  0  0  0  0  0  0  0  0  0
   -4.8979   -1.8310   -1.1369 O   0  0  0  0  0  0  0  0  0  0  0  0
   -5.3583   -0.6966    0.9912 C   0  0  2  0  0  0  0  0  0  0  0  0
   -6.5787    0.2406    1.0031 C   0  0  0  0  0  0  0  0  0  0  0  0
   -6.7658    1.0886   -0.2382 C   0  0  0  0  0  0  0  0  0  0  0  0
   -7.4225    0.5775   -1.3650 C   0  0  0  0  0  0  0  0  0  0  0  0
   -7.5954    1.3664   -2.5042 C   0  0  0  0  0  0  0  0  0  0  0  0
   -7.1164    2.6736   -2.5287 C   0  0  0  0  0  0  0  0  0  0  0  0
   -6.4589    3.1915   -1.4153 C   0  0  0  0  0  0  0  0  0  0  0  0
   -6.2808    2.4030   -0.2778 C   0  0  0  0  0  0  0  0  0  0  0  0
   -4.0961    0.0142    0.7924 N   0  0  0  0  0  0  0  0  0  0  0  0
   -2.9247   -0.5339    1.2696 C   0  0  0  0  0  0  0  0  0  0  0  0
   -2.9191   -1.5104    2.0262 O   0  0  0  0  0  0  0  0  0  0  0  0
   -1.6175    0.1582    0.8233 C   0  0  2  0  0  0  0  0  0  0  0  0
   -1.3449   -0.0649   -0.6763 C   0  0  0  0  0  0  0  0  0  0  0  0
   -1.9481    0.9926   -1.5709 C   0  0  0  0  0  0  0  0  0  0  0  0
   -2.9750    0.6671   -2.4657 C   0  0  0  0  0  0  0  0  0  0  0  0
   -3.5329    1.6449   -3.2885 C   0  0  0  0  0  0  0  0  0  0  0  0
   -3.0596    2.9537   -3.2372 C   0  0  0  0  0  0  0  0  0  0  0  0
   -2.0232    3.2845   -2.3677 C   0  0  0  0  0  0  0  0  0  0  0  0
   -1.4689    2.3089   -1.5379 C   0  0  0  0  0  0  0  0  0  0  0  0
   -0.5508   -0.4329    1.6378 N   0  0  0  0  0  0  0  0  0  0  0  0
    0.6991    0.1373    1.7340 C   0  0  0  0  0  0  0  0  0  0  0  0
    0.9467    1.2588    1.2908 O   0  0  0  0  0  0  0  0  0  0  0  0
    1.7214   -0.7250    2.5020 C   0  0  2  0  0  0  0  0  0  0  0  0
    1.6991   -0.3589    3.9887 C   0  0  0  0  0  0  0  0  0  0  0  0
    3.1650   -0.4467    4.4030 C   0  0  0  0  0  0  0  0  0  0  0  0
    3.9079    0.0317    3.1641 C   0  0  0  0  0  0  0  0  0  0  0  0
    3.0899   -0.4588    2.0663 N   0  0  0  0  0  0  0  0  0  0  0  0
    3.4851   -0.8081    0.7981 C   0  0  0  0  0  0  0  0  0  0  0  0
    2.7131   -1.4374    0.0625 O   0  0  0  0  0  0  0  0  0  0  0  0
    4.9003   -0.4783    0.2848 C   0  0  1  0  0  0  0  0  0  0  0  0
    5.4096    0.8177    0.7919 N   0  0  0  0  0  0  0  0  0  0  0  0
    5.8449   -1.6538    0.5843 C   0  0  0  0  0  0  0  0  0  0  0  0
    7.1041   -1.6345   -0.2551 C   0  0  0  0  0  0  0  0  0  0  0  0
    8.3257   -1.2334    0.2996 C   0  0  0  0  0  0  0  0  0  0  0  0
    9.4817   -1.2134   -0.4828 C   0  0  0  0  0  0  0  0  0  0  0  0
    9.4179   -1.5889   -1.8200 C   0  0  0  0  0  0  0  0  0  0  0  0
   10.5747   -1.5584   -2.5407 O   0  0  0  0  0  0  0  0  0  0  0  0
    8.2138   -1.9867   -2.3919 C   0  0  0  0  0  0  0  0  0  0  0  0
    7.0589   -2.0112   -1.6066 C   0  0  0  0  0  0  0  0  0  0  0  0
    1.0965    1.3518    0.3315 O   0  0  0  0  0  0  0  0  0  0  0  0
    0.5637    0.2795    0.0724 C   0  0  0  0  0  0  0  0  0  0  0  0
    1.3521   -0.8057   -0.1481 O   0  0  0  0  0  0  0  0  0  0  0  0
   -0.9374   -0.0108   -0.0261 C   0  0  0  0  0  0  0  0  0  0  0  0
   -1.2820   -0.5710   -1.2207 F   0  0  0  0  0  0  0  0  0  0  0  0
   -1.3567   -0.8772    0.9391 F   0  0  0  0  0  0  0  0  0  0  0  0
   -1.7054    1.1063    0.1034 F   0  0  0  0  0  0  0  0  0  0  0  0
   -6.6004   -3.0325    1.1797 H   0  0  0  0  0  0  0  0  0  0  0  0
   -6.4054   -3.5543   -0.4454 H   0  0  0  0  0  0  0  0  0  0  0  0
   -5.3150   -1.1955    1.9674 H   0  0  0  0  0  0  0  0  0  0  0  0
   -6.4990    0.9153    1.8674 H   0  0  0  0  0  0  0  0  0  0  0  0
   -7.4994   -0.3410    1.1683 H   0  0  0  0  0  0  0  0  0  0  0  0
   -7.8051   -0.4409   -1.3697 H   0  0  0  0  0  0  0  0  0  0  0  0
   -8.0989    0.9558   -3.3734 H   0  0  0  0  0  0  0  0  0  0  0  0
   -7.2500    3.2872   -3.4135 H   0  0  0  0  0  0  0  0  0  0  0  0
   -6.0783    4.2093   -1.4338 H   0  0  0  0  0  0  0  0  0  0  0  0
   -5.7582    2.8267    0.5810 H   0  0  0  0  0  0  0  0  0  0  0  0
   -4.0331    0.5700   -0.0550 H   0  0  0  0  0  0  0  0  0  0  0  0
   -1.6789    1.2218    1.0831 H   0  0  0  0  0  0  0  0  0  0  0  0
   -1.6987   -1.0593   -0.9778 H   0  0  0  0  0  0  0  0  0  0  0  0
   -0.2662   -0.0746   -0.8793 H   0  0  0  0  0  0  0  0  0  0  0  0
   -3.3504   -0.3515   -2.5290 H   0  0  0  0  0  0  0  0  0  0  0  0
   -4.3369    1.3781   -3.9667 H   0  0  0  0  0  0  0  0  0  0  0  0
   -3.4945    3.7123   -3.8804 H   0  0  0  0  0  0  0  0  0  0  0  0
   -1.6401    4.3002   -2.3409 H   0  0  0  0  0  0  0  0  0  0  0  0
   -0.6500    2.5797   -0.8708 H   0  0  0  0  0  0  0  0  0  0  0  0
   -0.7189   -1.3727    1.9863 H   0  0  0  0  0  0  0  0  0  0  0  0
    1.5127   -1.7909    2.3498 H   0  0  0  0  0  0  0  0  0  0  0  0
    1.0655   -1.0383    4.5702 H   0  0  0  0  0  0  0  0  0  0  0  0
    1.3252    0.6636    4.1465 H   0  0  0  0  0  0  0  0  0  0  0  0
    3.4247   -1.4948    4.6135 H   0  0  0  0  0  0  0  0  0  0  0  0
    3.3947    0.1493    5.2918 H   0  0  0  0  0  0  0  0  0  0  0  0
    3.9203    1.1281    3.1180 H   0  0  0  0  0  0  0  0  0  0  0  0
    4.9283   -0.3588    3.1328 H   0  0  0  0  0  0  0  0  0  0  0  0
    4.7892   -0.3562   -0.8010 H   0  0  0  0  0  0  0  0  0  0  0  0
    6.2687    1.0389    0.2857 H   0  0  0  0  0  0  0  0  0  0  0  0
    4.7391    1.5425    0.5299 H   0  0  0  0  0  0  0  0  0  0  0  0
    5.3341   -2.6074    0.3964 H   0  0  0  0  0  0  0  0  0  0  0  0
    6.1063   -1.6781    1.6496 H   0  0  0  0  0  0  0  0  0  0  0  0
    8.3876   -0.9364    1.3443 H   0  0  0  0  0  0  0  0  0  0  0  0
   10.4304   -0.9032   -0.0531 H   0  0  0  0  0  0  0  0  0  0  0  0
   10.3731   -1.8292   -3.4517 H   0  0  0  0  0  0  0  0  0  0  0  0
    8.1530   -2.2846   -3.4346 H   0  0  0  0  0  0  0  0  0  0  0  0
    6.1196   -2.3301   -2.0523 H   0  0  0  0  0  0  0  0  0  0  0  0
    2.2692   -0.4730   -0.0517 H   0  0  0  0  0  0  0  0  0  0  0  0
  1  2  1  0
  2  3  2  0
  2  4  1  0
  4  5  1  0
  5  6  1  0
  6  7  2  0
  7  8  1  0
  8  9  2  0
  9 10  1  0
 10 11  2  0
  4 12  1  0
 12 13  1  0
 13 14  2  0
 13 15  1  0
 15 16  1  0
 16 17  1  0
 17 18  2  0
 18 19  1  0
 19 20  2  0
 20 21  1  0
 21 22  2  0
 15 23  1  0
 23 24  1  0
 24 25  2  0
 24 26  1  0
 26 27  1  0
 27 28  1  0
 28 29  1  0
 29 30  1  0
 30 31  1  0
 31 32  2  0
 31 33  1  0
 33 34  1  0
 33 35  1  0
 35 36  1  0
 36 37  2  0
 37 38  1  0
 38 39  2  0
 39 40  1  0
 39 41  1  0
 41 42  2  0
 43 44  2  0
 44 45  1  0
 44 46  1  0
 46 47  1  0
 46 48  1  0
 46 49  1  0
 11  6  1  0
 22 17  1  0
 30 26  1  0
 42 36  1  0
  1 50  1  0
  1 51  1  0
  4 52  1  1
  5 53  1  0
  5 54  1  0
  7 55  1  0
  8 56  1  0
  9 57  1  0
 10 58  1  0
 11 59  1  0
 12 60  1  0
 15 61  1  6
 16 62  1  0
 16 63  1  0
 18 64  1  0
 19 65  1  0
 20 66  1  0
 21 67  1  0
 22 68  1  0
 23 69  1  0
 26 70  1  1
 27 71  1  0
 27 72  1  0
 28 73  1  0
 28 74  1  0
 29 75  1  0
 29 76  1  0
 33 77  1  6
 34 78  1  0
 34 79  1  0
 35 80  1  0
 35 81  1  0
 37 82  1  0
 38 83  1  0
 40 84  1  0
 41 85  1  0
 42 86  1  0
 45 87  1  0
M  END
$$$$
