
     RDKit          3D

 53 55  0  0  0  0  0  0  0  0999 V2000
   -4.9256   -1.3467    1.6995 C   0  0  0  0  0  0  0  0  0  0  0  0
   -3.4217   -1.4060    1.7842 C   0  0  0  0  0  0  0  0  0  0  0  0
   -2.9196   -2.1859    2.5986 O   0  0  0  0  0  0  0  0  0  0  0  0
   -2.6449   -0.6280    0.9240 N   0  0  0  0  0  0  0  0  0  0  0  0
   -3.1465    0.4201   -0.0026 C   0  0  0  0  0  0  0  0  0  0  0  0
   -3.7433    1.6409    0.7176 C   0  0  0  0  0  0  0  0  0  0  0  0
   -4.8217    2.3057   -0.1284 C   0  0  0  0  0  0  0  0  0  0  0  0
   -4.4143    2.3183   -1.4919 O   0  0  0  0  0  0  0  0  0  0  0  0
   -4.4023    1.0217   -2.0924 C   0  0  0  0  0  0  0  0  0  0  0  0
   -4.0555   -0.1033   -1.1171 C   0  0  0  0  0  0  0  0  0  0  0  0
   -1.1823   -0.8293    1.0036 C   0  0  0  0  0  0  0  0  0  0  0  0
   -0.3930    0.3920    1.4898 C   0  0  0  0  0  0  0  0  0  0  0  0
    1.0282    0.0637    1.0544 C   0  0  0  0  0  0  0  0  0  0  0  0
    0.8647   -0.6735   -0.1913 N   0  0  0  0  0  0  0  0  0  0  0  0
    1.8637   -1.1134   -1.0387 C   0  0  0  0  0  0  0  0  0  0  0  0
    1.6707   -1.9030   -1.9585 O   0  0  0  0  0  0  0  0  0  0  0  0
    3.2367   -0.6216   -0.8090 C   0  0  0  0  0  0  0  0  0  0  0  0
    3.5457    0.7279   -1.0035 C   0  0  0  0  0  0  0  0  0  0  0  0
    4.8563    1.1777   -0.8091 C   0  0  0  0  0  0  0  0  0  0  0  0
    5.1963    2.6281   -0.9849 C   0  0  0  0  0  0  0  0  0  0  0  0
    5.8397    0.2622   -0.4039 C   0  0  0  0  0  0  0  0  0  0  0  0
    5.5347   -1.0948   -0.2163 C   0  0  0  0  0  0  0  0  0  0  0  0
    6.6111   -2.0707    0.1569 C   0  0  0  0  0  0  0  0  0  0  0  0
    4.2268   -1.5366   -0.4430 C   0  0  0  0  0  0  0  0  0  0  0  0
   -0.4848   -1.2071   -0.3148 C   0  0  0  0  0  0  0  0  0  0  0  0
   -5.3441   -1.6822    2.6545 H   0  0  0  0  0  0  0  0  0  0  0  0
   -5.2689   -2.0294    0.9180 H   0  0  0  0  0  0  0  0  0  0  0  0
   -5.3127   -0.3463    1.5240 H   0  0  0  0  0  0  0  0  0  0  0  0
   -2.2658    0.8081   -0.5302 H   0  0  0  0  0  0  0  0  0  0  0  0
   -2.9317    2.3613    0.8850 H   0  0  0  0  0  0  0  0  0  0  0  0
   -4.1331    1.4141    1.7142 H   0  0  0  0  0  0  0  0  0  0  0  0
   -4.9667    3.3408    0.1971 H   0  0  0  0  0  0  0  0  0  0  0  0
   -5.7868    1.7941   -0.0334 H   0  0  0  0  0  0  0  0  0  0  0  0
   -3.6647    1.0549   -2.9014 H   0  0  0  0  0  0  0  0  0  0  0  0
   -5.3785    0.8386   -2.5547 H   0  0  0  0  0  0  0  0  0  0  0  0
   -3.5925   -0.9391   -1.6543 H   0  0  0  0  0  0  0  0  0  0  0  0
   -4.9935   -0.4909   -0.7127 H   0  0  0  0  0  0  0  0  0  0  0  0
   -0.9575   -1.6407    1.7075 H   0  0  0  0  0  0  0  0  0  0  0  0
   -0.4763    0.5461    2.5698 H   0  0  0  0  0  0  0  0  0  0  0  0
   -0.7200    1.3127    0.9960 H   0  0  0  0  0  0  0  0  0  0  0  0
    1.6323    0.9629    0.9178 H   0  0  0  0  0  0  0  0  0  0  0  0
    1.5260   -0.5955    1.7744 H   0  0  0  0  0  0  0  0  0  0  0  0
    2.7676    1.4185   -1.3196 H   0  0  0  0  0  0  0  0  0  0  0  0
    5.0723    3.1586   -0.0359 H   0  0  0  0  0  0  0  0  0  0  0  0
    6.2298    2.7483   -1.3262 H   0  0  0  0  0  0  0  0  0  0  0  0
    4.5503    3.0930   -1.7371 H   0  0  0  0  0  0  0  0  0  0  0  0
    6.8601    0.6080   -0.2439 H   0  0  0  0  0  0  0  0  0  0  0  0
    7.3721   -1.5920    0.7821 H   0  0  0  0  0  0  0  0  0  0  0  0
    7.0894   -2.4633   -0.7457 H   0  0  0  0  0  0  0  0  0  0  0  0
    6.1986   -2.9069    0.7313 H   0  0  0  0  0  0  0  0  0  0  0  0
    3.9713   -2.5887   -0.3362 H   0  0  0  0  0  0  0  0  0  0  0  0
   -0.4589   -2.2929   -0.4584 H   0  0  0  0  0  0  0  0  0  0  0  0
   -0.9372   -0.7614   -1.2052 H   0  0  0  0  0  0  0  0  0  0  0  0
  1  2  1  0
  2  3  2  0
  2  4  1  0
  4  5  1  0
  5  6  1  0
  6  7  1  0
  7  8  1  0
  8  9  1  0
  9 10  1  0
  4 11  1  0
 11 12  1  0
 12 13  1  0
 13 14  1  0
 14 15  1  0
 15 16  2  0
 15 17  1  0
 17 18  2  0
 18 19  1  0
 19 20  1  0
 19 21  2  0
 21 22  1  0
 22 23  1  0
 22 24  2  0
 14 25  1  0
 10  5  1  0
 25 11  1  0
 24 17  1  0
  1 26  1  0
  1 27  1  0
  1 28  1  0
  5 29  1  0
  6 30  1  0
  6 31  1  0
  7 32  1  0
  7 33  1  0
  9 34  1  0
  9 35  1  0
 10 36  1  0
 10 37  1  0
 11 38  1  0
 12 39  1  0
 12 40  1  0
 13 41  1  0
 13 42  1  0
 18 43  1  0
 20 44  1  0
 20 45  1  0
 20 46  1  0
 21 47  1  0
 23 48  1  0
 23 49  1  0
 23 50  1  0
 24 51  1  0
 25 52  1  0
 25 53  1  0
M  END
$$$$
