
     RDKit          3D

 47 50  0  0  0  0  0  0  0  0999 V2000
   -1.7102    2.1192   -1.1604 O   0  0  0  0  0  0  0  0  0  0  0  0
   -1.9469    1.6150   -0.0657 C   0  0  0  0  0  0  0  0  0  0  0  0
   -3.1732    2.0498    0.7395 C   0  0  0  0  0  0  0  0  0  0  0  0
   -4.0529    0.9376    0.9958 N   0  0  0  0  0  0  0  0  0  0  0  0
   -3.9065    0.0189    2.0101 C   0  0  0  0  0  0  0  0  0  0  0  0
   -2.9832    0.0166    2.8165 O   0  0  0  0  0  0  0  0  0  0  0  0
   -4.9143   -0.9486    1.9735 O   0  0  0  0  0  0  0  0  0  0  0  0
   -5.6293   -0.5830    0.8432 C   0  0  0  0  0  0  0  0  0  0  0  0
   -6.7244   -1.2519    0.3406 C   0  0  0  0  0  0  0  0  0  0  0  0
   -7.3067   -0.7442   -0.8247 C   0  0  0  0  0  0  0  0  0  0  0  0
   -6.7829    0.4044   -1.4517 C   0  0  0  0  0  0  0  0  0  0  0  0
   -5.6708    1.0673   -0.9227 C   0  0  0  0  0  0  0  0  0  0  0  0
   -5.1230    0.5464    0.2289 C   0  0  0  0  0  0  0  0  0  0  0  0
   -1.1604    0.6885    0.6023 N   0  0  0  0  0  0  0  0  0  0  0  0
    0.0196    0.0694    0.1477 C   0  0  0  0  0  0  0  0  0  0  0  0
    0.6424   -0.8301    1.0249 C   0  0  0  0  0  0  0  0  0  0  0  0
    1.8180   -1.4903    0.6565 C   0  0  0  0  0  0  0  0  0  0  0  0
    2.3862   -1.2389   -0.5934 C   0  0  0  0  0  0  0  0  0  0  0  0
    3.8653   -2.1026   -1.0865 S   0  0  0  0  0  6  0  0  0  0  0  0
    3.8694   -2.1627   -2.5330 O   0  0  0  0  0  0  0  0  0  0  0  0
    3.9493   -3.3060   -0.2852 O   0  0  0  0  0  0  0  0  0  0  0  0
    5.1065   -1.0740   -0.6064 N   0  0  0  0  0  0  0  0  0  0  0  0
    5.3969   -0.8879    0.8294 C   0  0  0  0  0  0  0  0  0  0  0  0
    5.6551    0.6065    0.9797 C   0  0  0  0  0  0  0  0  0  0  0  0
    6.1996    1.0010   -0.3806 C   0  0  0  0  0  0  0  0  0  0  0  0
    5.3253    0.1926   -1.3296 C   0  0  0  0  0  0  0  0  0  0  0  0
    1.7575   -0.3717   -1.4891 C   0  0  0  0  0  0  0  0  0  0  0  0
    0.5820    0.2874   -1.1123 C   0  0  0  0  0  0  0  0  0  0  0  0
   -3.7064    2.8422    0.2049 H   0  0  0  0  0  0  0  0  0  0  0  0
   -2.8256    2.4612    1.6943 H   0  0  0  0  0  0  0  0  0  0  0  0
   -7.1154   -2.1389    0.8259 H   0  0  0  0  0  0  0  0  0  0  0  0
   -8.1714   -1.2437   -1.2574 H   0  0  0  0  0  0  0  0  0  0  0  0
   -7.2492    0.7763   -2.3622 H   0  0  0  0  0  0  0  0  0  0  0  0
   -5.2658    1.9445   -1.4137 H   0  0  0  0  0  0  0  0  0  0  0  0
   -1.4728    0.4170    1.5346 H   0  0  0  0  0  0  0  0  0  0  0  0
    0.2145   -1.0365    2.0041 H   0  0  0  0  0  0  0  0  0  0  0  0
    2.2738   -2.2001    1.3433 H   0  0  0  0  0  0  0  0  0  0  0  0
    4.5871   -1.2108    1.4865 H   0  0  0  0  0  0  0  0  0  0  0  0
    6.2951   -1.4637    1.0773 H   0  0  0  0  0  0  0  0  0  0  0  0
    4.7124    1.1328    1.1728 H   0  0  0  0  0  0  0  0  0  0  0  0
    6.3459    0.8313    1.7969 H   0  0  0  0  0  0  0  0  0  0  0  0
    7.2480    0.6923   -0.4716 H   0  0  0  0  0  0  0  0  0  0  0  0
    6.1385    2.0765   -0.5680 H   0  0  0  0  0  0  0  0  0  0  0  0
    4.3832    0.7192   -1.5031 H   0  0  0  0  0  0  0  0  0  0  0  0
    5.8289    0.0203   -2.2844 H   0  0  0  0  0  0  0  0  0  0  0  0
    2.1674   -0.2046   -2.4831 H   0  0  0  0  0  0  0  0  0  0  0  0
    0.1234    0.9561   -1.8345 H   0  0  0  0  0  0  0  0  0  0  0  0
  1  2  2  0
  2  3  1  0
  3  4  1  0
  4  5  1  0
  5  6  2  0
  5  7  1  0
  7  8  1  0
  8  9  2  0
  9 10  1  0
 10 11  2  0
 11 12  1  0
 12 13  2  0
  2 14  1  0
 14 15  1  0
 15 16  2  0
 16 17  1  0
 17 18  2  0
 18 19  1  0
 19 20  2  0
 19 21  2  0
 19 22  1  0
 22 23  1  0
 23 24  1  0
 24 25  1  0
 25 26  1  0
 18 27  1  0
 27 28  2  0
 13  4  1  0
 28 15  1  0
 13  8  1  0
 26 22  1  0
  3 29  1  0
  3 30  1  0
  9 31  1  0
 10 32  1  0
 11 33  1  0
 12 34  1  0
 14 35  1  0
 16 36  1  0
 17 37  1  0
 23 38  1  0
 23 39  1  0
 24 40  1  0
 24 41  1  0
 25 42  1  0
 25 43  1  0
 26 44  1  0
 26 45  1  0
 27 46  1  0
 28 47  1  0
M  END
$$$$
