
     RDKit          3D

 20 20  0  0  0  0  0  0  0  0999 V2000
    3.3666    0.9489   -0.2722 N   0  0  0  0  0  0  0  0  0  0  0  0
    2.7611   -0.4744    0.3918 S   0  0  0  0  0  6  0  0  0  0  0  0
    3.2764   -1.5821   -0.3757 O   0  0  0  0  0  0  0  0  0  0  0  0
    2.9590   -0.3534    1.8177 O   0  0  0  0  0  0  0  0  0  0  0  0
    1.0268   -0.3164    0.0495 C   0  0  0  0  0  0  0  0  0  0  0  0
    0.1627    0.1690    1.0352 C   0  0  0  0  0  0  0  0  0  0  0  0
   -1.2032    0.2796    0.7594 C   0  0  0  0  0  0  0  0  0  0  0  0
   -1.7025   -0.1009   -0.4948 C   0  0  0  0  0  0  0  0  0  0  0  0
   -3.1440   -0.0005   -0.8310 C   0  0  0  0  0  0  0  0  0  0  0  0
   -3.6482   -0.3010   -1.8967 O   0  0  0  0  0  0  0  0  0  0  0  0
   -3.8837    0.4767    0.1848 O   0  0  0  0  0  0  0  0  0  0  0  0
   -0.8268   -0.5974   -1.4714 C   0  0  0  0  0  0  0  0  0  0  0  0
    0.5388   -0.7103   -1.2003 C   0  0  0  0  0  0  0  0  0  0  0  0
    3.7642    1.5203    0.4755 H   0  0  0  0  0  0  0  0  0  0  0  0
    2.6839    1.4642   -0.8258 H   0  0  0  0  0  0  0  0  0  0  0  0
    0.5375    0.4553    2.0161 H   0  0  0  0  0  0  0  0  0  0  0  0
   -1.8716    0.6568    1.5308 H   0  0  0  0  0  0  0  0  0  0  0  0
   -4.7978    0.4818   -0.1705 H   0  0  0  0  0  0  0  0  0  0  0  0
   -1.2087   -0.9053   -2.4439 H   0  0  0  0  0  0  0  0  0  0  0  0
    1.2094   -1.1109   -1.9590 H   0  0  0  0  0  0  0  0  0  0  0  0
  1  2  1  0
  2  3  2  0
  2  4  2  0
  2  5  1  0
  5  6  2  0
  6  7  1  0
  7  8  2  0
  8  9  1  0
  9 10  2  0
  9 11  1  0
  8 12  1  0
 12 13  2  0
 13  5  1  0
  1 14  1  0
  1 15  1  0
  6 16  1  0
  7 17  1  0
 11 18  1  0
 12 19  1  0
 13 20  1  0
M  END
$$$$
