
     RDKit          3D

 50 52  0  0  0  0  0  0  0  0999 V2000
   -6.3102   -0.0849    3.3725 C   0  0  0  0  0  0  0  0  0  0  0  0
   -5.0273   -0.6949    3.3095 O   0  0  0  0  0  0  0  0  0  0  0  0
   -4.5007   -0.7590    1.9844 C   0  0  0  0  0  0  0  0  0  0  0  0
   -3.9438    0.5860    1.5147 C   0  0  0  0  0  0  0  0  0  0  0  0
   -3.2173    0.4731    0.2638 N   0  0  0  0  0  0  0  0  0  0  0  0
   -3.1286    1.5344   -0.6099 C   0  0  0  0  0  0  0  0  0  0  0  0
   -3.7623    2.5737   -0.4598 O   0  0  0  0  0  0  0  0  0  0  0  0
   -2.2240    1.3520   -1.7324 C   0  0  0  0  0  0  0  0  0  0  0  0
   -1.9733    2.3087   -2.7701 C   0  0  0  0  0  0  0  0  0  0  0  0
   -1.0862    1.8877   -3.6871 N   0  0  0  0  0  0  0  0  0  0  0  0
   -0.8041    0.6707   -3.2490 N   0  0  0  0  0  0  0  0  0  0  0  0
   -1.4119    0.3006   -2.0939 C   0  0  0  0  0  0  0  0  0  0  0  0
   -0.9564   -1.0544   -1.7105 C   0  0  0  0  0  0  0  0  0  0  0  0
    0.3435   -1.2151   -2.5741 C   0  0  2  0  0  0  0  0  0  0  0  0
    1.5287   -0.8208   -1.8069 N   0  0  0  0  0  0  0  0  0  0  0  0
    2.0346   -1.6308   -0.8149 C   0  0  0  0  0  0  0  0  0  0  0  0
    1.6274   -2.7625   -0.5876 O   0  0  0  0  0  0  0  0  0  0  0  0
    3.1536   -1.0543   -0.0326 C   0  0  0  0  0  0  0  0  0  0  0  0
    4.3438   -1.7915   -0.0061 C   0  0  0  0  0  0  0  0  0  0  0  0
    5.4569   -1.3015    0.6762 C   0  0  0  0  0  0  0  0  0  0  0  0
    5.3865   -0.0793    1.3516 C   0  0  0  0  0  0  0  0  0  0  0  0
    6.5931    0.4714    2.0545 C   0  0  0  0  0  0  0  0  0  0  0  0
    4.1882    0.6504    1.3287 C   0  0  0  0  0  0  0  0  0  0  0  0
    3.0502    0.1655    0.6612 C   0  0  0  0  0  0  0  0  0  0  0  0
    1.7819    0.9703    0.7145 C   0  0  0  0  0  0  0  0  0  0  0  0
    0.1314   -0.2955   -3.7971 C   0  0  0  0  0  0  0  0  0  0  0  0
   -7.0211   -0.6140    2.7306 H   0  0  0  0  0  0  0  0  0  0  0  0
   -6.6649   -0.1445    4.4050 H   0  0  0  0  0  0  0  0  0  0  0  0
   -6.2563    0.9697    3.0895 H   0  0  0  0  0  0  0  0  0  0  0  0
   -5.2549   -1.1441    1.2874 H   0  0  0  0  0  0  0  0  0  0  0  0
   -3.6891   -1.4953    2.0065 H   0  0  0  0  0  0  0  0  0  0  0  0
   -4.7512    1.3178    1.4092 H   0  0  0  0  0  0  0  0  0  0  0  0
   -3.2513    0.9901    2.2621 H   0  0  0  0  0  0  0  0  0  0  0  0
   -2.5300   -0.2601    0.1852 H   0  0  0  0  0  0  0  0  0  0  0  0
   -2.4109    3.2949   -2.8733 H   0  0  0  0  0  0  0  0  0  0  0  0
   -0.7605   -1.1513   -0.6400 H   0  0  0  0  0  0  0  0  0  0  0  0
   -1.7052   -1.7948   -2.0124 H   0  0  0  0  0  0  0  0  0  0  0  0
    0.4849   -2.2588   -2.8764 H   0  0  0  0  0  0  0  0  0  0  0  0
    1.8930    0.1214   -1.8988 H   0  0  0  0  0  0  0  0  0  0  0  0
    4.4063   -2.7456   -0.5257 H   0  0  0  0  0  0  0  0  0  0  0  0
    6.3781   -1.8803    0.6770 H   0  0  0  0  0  0  0  0  0  0  0  0
    6.3002    1.0291    2.9502 H   0  0  0  0  0  0  0  0  0  0  0  0
    7.1437    1.1385    1.3842 H   0  0  0  0  0  0  0  0  0  0  0  0
    7.2612   -0.3337    2.3777 H   0  0  0  0  0  0  0  0  0  0  0  0
    4.1387    1.6042    1.8532 H   0  0  0  0  0  0  0  0  0  0  0  0
    0.9048    0.3209    0.7968 H   0  0  0  0  0  0  0  0  0  0  0  0
    1.7690    1.6235    1.5940 H   0  0  0  0  0  0  0  0  0  0  0  0
    1.6908    1.5982   -0.1767 H   0  0  0  0  0  0  0  0  0  0  0  0
    1.0323    0.2196   -4.1389 H   0  0  0  0  0  0  0  0  0  0  0  0
   -0.3815   -0.8054   -4.6177 H   0  0  0  0  0  0  0  0  0  0  0  0
  1  2  1  0
  2  3  1  0
  3  4  1  0
  4  5  1  0
  5  6  1  0
  6  7  2  0
  6  8  1  0
  8  9  1  0
  9 10  2  0
 10 11  1  0
 11 12  1  0
 12 13  1  0
 13 14  1  0
 14 15  1  0
 15 16  1  0
 16 17  2  0
 16 18  1  0
 18 19  2  0
 19 20  1  0
 20 21  2  0
 21 22  1  0
 21 23  1  0
 23 24  2  0
 24 25  1  0
 14 26  1  0
 12  8  2  0
 24 18  1  0
 26 11  1  0
  1 27  1  0
  1 28  1  0
  1 29  1  0
  3 30  1  0
  3 31  1  0
  4 32  1  0
  4 33  1  0
  5 34  1  0
  9 35  1  0
 13 36  1  0
 13 37  1  0
 14 38  1  6
 15 39  1  0
 19 40  1  0
 20 41  1  0
 22 42  1  0
 22 43  1  0
 22 44  1  0
 23 45  1  0
 25 46  1  0
 25 47  1  0
 25 48  1  0
 26 49  1  0
 26 50  1  0
M  END
$$$$
