
     RDKit          3D

 49 52  0  0  0  0  0  0  0  0999 V2000
   -5.3802    2.3406    1.4546 O   0  0  0  0  0  0  0  0  0  0  0  0
   -5.6126    1.1421    0.7130 C   0  0  0  0  0  0  0  0  0  0  0  0
   -4.4231    0.8866   -0.2179 C   0  0  1  0  0  0  0  0  0  0  0  0
   -3.2518    0.7682    0.6040 O   0  0  0  0  0  0  0  0  0  0  0  0
   -2.0347    0.6097   -0.1526 C   0  0  1  0  0  0  0  0  0  0  0  0
   -0.9017    0.7178    0.8605 C   0  0  0  0  0  0  0  0  0  0  0  0
   -0.8140    1.8831    1.6474 C   0  0  0  0  0  0  0  0  0  0  0  0
    0.2092    2.0467    2.5816 C   0  0  0  0  0  0  0  0  0  0  0  0
    1.1635    1.0502    2.7365 C   0  0  0  0  0  0  0  0  0  0  0  0
    2.1382    1.2249    3.6401 F   0  0  0  0  0  0  0  0  0  0  0  0
    1.1164   -0.1176    1.9751 C   0  0  0  0  0  0  0  0  0  0  0  0
    2.1847   -1.1731    2.1262 C   0  0  0  0  0  0  0  0  0  0  0  0
    3.3453   -0.9638    1.1950 C   0  0  0  0  0  0  0  0  0  0  0  0
    3.3940   -1.1580   -0.1702 C   0  0  0  0  0  0  0  0  0  0  0  0
    4.6761   -0.8590   -0.7408 C   0  0  0  0  0  0  0  0  0  0  0  0
    5.1248   -0.9232   -2.0820 C   0  0  0  0  0  0  0  0  0  0  0  0
    6.4404   -0.5781   -2.4058 C   0  0  0  0  0  0  0  0  0  0  0  0
    7.3209   -0.1680   -1.4143 C   0  0  0  0  0  0  0  0  0  0  0  0
    6.9059   -0.0942   -0.0825 C   0  0  0  0  0  0  0  0  0  0  0  0
    5.5795   -0.4428    0.2388 C   0  0  0  0  0  0  0  0  0  0  0  0
    4.8507   -0.4281    1.7980 S   0  0  0  0  0  0  0  0  0  0  0  0
    0.0783   -0.2728    1.0381 C   0  0  0  0  0  0  0  0  0  0  0  0
   -2.1109   -0.6868   -0.9926 C   0  0  2  0  0  0  0  0  0  0  0  0
   -0.9813   -0.8350   -1.8651 O   0  0  0  0  0  0  0  0  0  0  0  0
   -3.3688   -0.6652   -1.8685 C   0  0  1  0  0  0  0  0  0  0  0  0
   -3.4863   -1.9277   -2.5449 O   0  0  0  0  0  0  0  0  0  0  0  0
   -4.6261   -0.3850   -1.0456 C   0  0  2  0  0  0  0  0  0  0  0  0
   -5.7460   -0.2915   -1.9322 O   0  0  0  0  0  0  0  0  0  0  0  0
   -4.5104    2.2168    1.8824 H   0  0  0  0  0  0  0  0  0  0  0  0
   -6.5441    1.2645    0.1531 H   0  0  0  0  0  0  0  0  0  0  0  0
   -5.7356    0.3282    1.4351 H   0  0  0  0  0  0  0  0  0  0  0  0
   -4.3030    1.7650   -0.8657 H   0  0  0  0  0  0  0  0  0  0  0  0
   -1.9206    1.4657   -0.8331 H   0  0  0  0  0  0  0  0  0  0  0  0
   -1.5532    2.6739    1.5331 H   0  0  0  0  0  0  0  0  0  0  0  0
    0.2701    2.9460    3.1860 H   0  0  0  0  0  0  0  0  0  0  0  0
    1.7454   -2.1606    1.9302 H   0  0  0  0  0  0  0  0  0  0  0  0
    2.5147   -1.2135    3.1724 H   0  0  0  0  0  0  0  0  0  0  0  0
    2.5430   -1.4938   -0.7509 H   0  0  0  0  0  0  0  0  0  0  0  0
    4.4427   -1.2413   -2.8664 H   0  0  0  0  0  0  0  0  0  0  0  0
    6.7725   -0.6310   -3.4397 H   0  0  0  0  0  0  0  0  0  0  0  0
    8.3425    0.0997   -1.6733 H   0  0  0  0  0  0  0  0  0  0  0  0
    7.5953    0.2284    0.6923 H   0  0  0  0  0  0  0  0  0  0  0  0
    0.0612   -1.1790    0.4368 H   0  0  0  0  0  0  0  0  0  0  0  0
   -2.1430   -1.5704   -0.3426 H   0  0  0  0  0  0  0  0  0  0  0  0
   -1.2150   -1.5753   -2.4619 H   0  0  0  0  0  0  0  0  0  0  0  0
   -3.2618    0.0819   -2.6652 H   0  0  0  0  0  0  0  0  0  0  0  0
   -4.4130   -1.9846   -2.8544 H   0  0  0  0  0  0  0  0  0  0  0  0
   -4.8155   -1.2423   -0.3880 H   0  0  0  0  0  0  0  0  0  0  0  0
   -5.6625    0.5217   -2.4632 H   0  0  0  0  0  0  0  0  0  0  0  0
  1  2  1  0
  2  3  1  0
  3  4  1  0
  4  5  1  0
  5  6  1  0
  6  7  2  0
  7  8  1  0
  8  9  2  0
  9 10  1  0
  9 11  1  0
 11 12  1  0
 12 13  1  0
 13 14  2  0
 14 15  1  0
 15 16  2  0
 16 17  1  0
 17 18  2  0
 18 19  1  0
 19 20  2  0
 20 21  1  0
 11 22  2  0
  5 23  1  0
 23 24  1  0
 23 25  1  0
 25 26  1  0
 25 27  1  0
 27 28  1  0
 27  3  1  0
 22  6  1  0
 21 13  1  0
 20 15  1  0
  1 29  1  0
  2 30  1  0
  2 31  1  0
  3 32  1  6
  5 33  1  6
  7 34  1  0
  8 35  1  0
 12 36  1  0
 12 37  1  0
 14 38  1  0
 16 39  1  0
 17 40  1  0
 18 41  1  0
 19 42  1  0
 22 43  1  0
 23 44  1  1
 24 45  1  0
 25 46  1  6
 26 47  1  0
 27 48  1  1
 28 49  1  0
M  END
$$$$
