
     RDKit          3D

 56 58  0  0  0  0  0  0  0  0999 V2000
    4.1625    2.5138    1.4519 C   0  0  0  0  0  0  0  0  0  0  0  0
    3.4618    1.4997    2.3448 C   0  0  0  0  0  0  0  0  0  0  0  0
    3.6609    0.0611    1.8805 C   0  0  0  0  0  0  0  0  0  0  0  0
    2.9450   -0.2336    0.6516 N   0  0  0  0  0  0  0  0  0  0  0  0
    2.8959   -1.5221    0.2059 C   0  0  0  0  0  0  0  0  0  0  0  0
    3.4615   -2.4361    0.8009 O   0  0  0  0  0  0  0  0  0  0  0  0
    2.1889   -1.7138   -0.9745 N   0  0  0  0  0  0  0  0  0  0  0  0
    2.2614   -3.0842   -1.5060 C   0  0  0  0  0  0  0  0  0  0  0  0
    1.3299   -4.0702   -0.7913 C   0  0  0  0  0  0  0  0  0  0  0  0
   -0.0416   -3.6571   -0.8295 O   0  0  0  0  0  0  0  0  0  0  0  0
   -0.3249   -2.6111    0.1027 C   0  0  0  0  0  0  0  0  0  0  0  0
   -0.2878   -1.2355   -0.5705 C   0  0  1  0  0  0  0  0  0  0  0  0
   -0.5747   -0.1341    0.4546 C   0  0  0  0  0  0  0  0  0  0  0  0
   -0.6110    1.2192   -0.1187 N   0  0  0  0  0  0  0  0  0  0  0  0
   -1.7367    1.4743   -1.0297 C   0  0  0  0  0  0  0  0  0  0  0  0
   -3.0326    1.4422   -0.2875 C   0  0  0  0  0  0  0  0  0  0  0  0
   -3.4308    2.2605    0.7525 C   0  0  0  0  0  0  0  0  0  0  0  0
   -4.6783    1.8526    1.1095 N   0  0  0  0  0  0  0  0  0  0  0  0
   -5.4972    2.3906    2.1683 C   0  0  0  0  0  0  0  0  0  0  0  0
   -5.1436    0.8370    0.3642 N   0  0  0  0  0  0  0  0  0  0  0  0
   -4.1452    0.5757   -0.4896 C   0  0  0  0  0  0  0  0  0  0  0  0
   -4.2867   -0.5252   -1.4741 C   0  0  0  0  0  0  0  0  0  0  0  0
    0.6779    1.5386   -0.7296 C   0  0  0  0  0  0  0  0  0  0  0  0
    1.1738    0.5270   -1.7662 C   0  0  0  0  0  0  0  0  0  0  0  0
    0.9799   -0.9597   -1.4054 C   0  0  1  0  0  0  0  0  0  0  0  0
    3.7637    2.4990    0.4330 H   0  0  0  0  0  0  0  0  0  0  0  0
    5.2386    2.3171    1.4035 H   0  0  0  0  0  0  0  0  0  0  0  0
    4.0219    3.5243    1.8502 H   0  0  0  0  0  0  0  0  0  0  0  0
    2.3927    1.7363    2.3951 H   0  0  0  0  0  0  0  0  0  0  0  0
    3.8625    1.5995    3.3608 H   0  0  0  0  0  0  0  0  0  0  0  0
    3.2942   -0.6235    2.6542 H   0  0  0  0  0  0  0  0  0  0  0  0
    4.7225   -0.1587    1.7212 H   0  0  0  0  0  0  0  0  0  0  0  0
    3.1387    0.3959   -0.1100 H   0  0  0  0  0  0  0  0  0  0  0  0
    3.2942   -3.4451   -1.4268 H   0  0  0  0  0  0  0  0  0  0  0  0
    2.0267   -3.0489   -2.5761 H   0  0  0  0  0  0  0  0  0  0  0  0
    1.3843   -5.0343   -1.3087 H   0  0  0  0  0  0  0  0  0  0  0  0
    1.6371   -4.2531    0.2446 H   0  0  0  0  0  0  0  0  0  0  0  0
   -1.3413   -2.7932    0.4712 H   0  0  0  0  0  0  0  0  0  0  0  0
    0.3310   -2.6624    0.9801 H   0  0  0  0  0  0  0  0  0  0  0  0
   -1.1175   -1.2405   -1.2909 H   0  0  0  0  0  0  0  0  0  0  0  0
    0.1870   -0.1561    1.2447 H   0  0  0  0  0  0  0  0  0  0  0  0
   -1.5147   -0.3491    0.9768 H   0  0  0  0  0  0  0  0  0  0  0  0
   -1.7491    0.7847   -1.8799 H   0  0  0  0  0  0  0  0  0  0  0  0
   -1.6412    2.4824   -1.4551 H   0  0  0  0  0  0  0  0  0  0  0  0
   -2.9195    3.0668    1.2591 H   0  0  0  0  0  0  0  0  0  0  0  0
   -4.9422    3.1704    2.6975 H   0  0  0  0  0  0  0  0  0  0  0  0
   -5.7465    1.5797    2.8576 H   0  0  0  0  0  0  0  0  0  0  0  0
   -6.4028    2.8114    1.7237 H   0  0  0  0  0  0  0  0  0  0  0  0
   -5.3288   -0.8471   -1.5695 H   0  0  0  0  0  0  0  0  0  0  0  0
   -3.9438   -0.2067   -2.4639 H   0  0  0  0  0  0  0  0  0  0  0  0
   -3.6911   -1.3884   -1.1616 H   0  0  0  0  0  0  0  0  0  0  0  0
    1.4079    1.6486    0.0744 H   0  0  0  0  0  0  0  0  0  0  0  0
    0.6430    2.5353   -1.1889 H   0  0  0  0  0  0  0  0  0  0  0  0
    2.2175    0.7330   -2.0299 H   0  0  0  0  0  0  0  0  0  0  0  0
    0.6030    0.7149   -2.6873 H   0  0  0  0  0  0  0  0  0  0  0  0
    0.7635   -1.4019   -2.3900 H   0  0  0  0  0  0  0  0  0  0  0  0
  1  2  1  0
  2  3  1  0
  3  4  1  0
  4  5  1  0
  5  6  2  0
  5  7  1  0
  7  8  1  0
  8  9  1  0
  9 10  1  0
 10 11  1  0
 11 12  1  0
 12 13  1  0
 13 14  1  0
 14 15  1  0
 15 16  1  0
 16 17  2  0
 17 18  1  0
 18 19  1  0
 18 20  1  0
 20 21  2  0
 21 22  1  0
 14 23  1  0
 23 24  1  0
 24 25  1  0
 25  7  1  0
 25 12  1  0
 21 16  1  0
  1 26  1  0
  1 27  1  0
  1 28  1  0
  2 29  1  0
  2 30  1  0
  3 31  1  0
  3 32  1  0
  4 33  1  0
  8 34  1  0
  8 35  1  0
  9 36  1  0
  9 37  1  0
 11 38  1  0
 11 39  1  0
 12 40  1  6
 13 41  1  0
 13 42  1  0
 15 43  1  0
 15 44  1  0
 17 45  1  0
 19 46  1  0
 19 47  1  0
 19 48  1  0
 22 49  1  0
 22 50  1  0
 22 51  1  0
 23 52  1  0
 23 53  1  0
 24 54  1  0
 24 55  1  0
 25 56  1  6
M  END
$$$$
