
     RDKit          3D

 50 53  0  0  0  0  0  0  0  0999 V2000
   -4.9436    0.9039   -5.5491 C   0  0  0  0  0  0  0  0  0  0  0  0
   -4.5819    0.8099   -4.1195 C   0  0  0  0  0  0  0  0  0  0  0  0
   -5.3362    0.6238   -2.9845 C   0  0  0  0  0  0  0  0  0  0  0  0
   -4.5388    0.5876   -1.8708 N   0  0  0  0  0  0  0  0  0  0  0  0
   -3.3023    0.7540   -2.2972 C   0  0  0  0  0  0  0  0  0  0  0  0
   -2.1015    0.7654   -1.4770 C   0  0  0  0  0  0  0  0  0  0  0  0
   -1.1704    1.7778   -1.5741 C   0  0  0  0  0  0  0  0  0  0  0  0
   -0.0435    1.8512   -0.8352 N   0  0  0  0  0  0  0  0  0  0  0  0
    0.1581    0.8743    0.0544 C   0  0  0  0  0  0  0  0  0  0  0  0
    1.3271    0.9751    0.7941 N   0  0  0  0  0  0  0  0  0  0  0  0
    1.2112    0.4779    2.1672 C   0  0  0  0  0  0  0  0  0  0  0  0
    2.5376    0.7068    2.9178 C   0  0  0  0  0  0  0  0  0  0  0  0
    3.6228    0.0138    2.2178 N   0  0  0  0  0  0  0  0  0  0  0  0
    4.9129    0.3356    2.6477 C   0  0  0  0  0  0  0  0  0  0  0  0
    5.9928   -0.2200    1.9630 C   0  0  0  0  0  0  0  0  0  0  0  0
    7.2953    0.0430    2.3900 C   0  0  0  0  0  0  0  0  0  0  0  0
    7.4919    0.8495    3.5051 C   0  0  0  0  0  0  0  0  0  0  0  0
    8.8003    1.1514    3.9891 C   0  0  0  0  0  0  0  0  0  0  0  0
    9.8638    1.4001    4.3813 N   0  0  0  0  0  0  0  0  0  0  0  0
    6.3696    1.3519    4.1408 C   0  0  0  0  0  0  0  0  0  0  0  0
    5.0976    1.1082    3.7385 N   0  0  0  0  0  0  0  0  0  0  0  0
   -0.6872   -0.1428    0.2475 N   0  0  0  0  0  0  0  0  0  0  0  0
   -1.8026   -0.1989   -0.5253 C   0  0  0  0  0  0  0  0  0  0  0  0
   -2.6449   -1.3755   -0.2586 C   0  0  0  0  0  0  0  0  0  0  0  0
   -3.3745   -1.4356    0.9448 C   0  0  0  0  0  0  0  0  0  0  0  0
   -4.1957   -2.5271    1.2381 C   0  0  0  0  0  0  0  0  0  0  0  0
   -4.2932   -3.5787    0.3324 C   0  0  0  0  0  0  0  0  0  0  0  0
   -5.3043   -4.9237    0.6919 Cl  0  0  0  0  0  0  0  0  0  0  0  0
   -3.5744   -3.5539   -0.8589 C   0  0  0  0  0  0  0  0  0  0  0  0
   -2.7526   -2.4599   -1.1509 C   0  0  0  0  0  0  0  0  0  0  0  0
   -1.8621   -2.5139   -2.6374 Cl  0  0  0  0  0  0  0  0  0  0  0  0
   -3.2894    0.8909   -3.6672 N   0  0  0  0  0  0  0  0  0  0  0  0
   -4.5089    0.0712   -6.1112 H   0  0  0  0  0  0  0  0  0  0  0  0
   -6.0297    0.8728   -5.6821 H   0  0  0  0  0  0  0  0  0  0  0  0
   -4.5768    1.8411   -5.9798 H   0  0  0  0  0  0  0  0  0  0  0  0
   -6.4102    0.5082   -2.9089 H   0  0  0  0  0  0  0  0  0  0  0  0
   -1.3052    2.6077   -2.2627 H   0  0  0  0  0  0  0  0  0  0  0  0
    1.6172    1.9447    0.7119 H   0  0  0  0  0  0  0  0  0  0  0  0
    0.9891   -0.5968    2.1659 H   0  0  0  0  0  0  0  0  0  0  0  0
    0.4067    1.0003    2.6992 H   0  0  0  0  0  0  0  0  0  0  0  0
    2.4454    0.3283    3.9423 H   0  0  0  0  0  0  0  0  0  0  0  0
    2.7292    1.7871    2.9570 H   0  0  0  0  0  0  0  0  0  0  0  0
    3.5289    0.1401    1.2101 H   0  0  0  0  0  0  0  0  0  0  0  0
    5.8215   -0.8658    1.1070 H   0  0  0  0  0  0  0  0  0  0  0  0
    8.1365   -0.3903    1.8548 H   0  0  0  0  0  0  0  0  0  0  0  0
    6.4501    1.9838    5.0222 H   0  0  0  0  0  0  0  0  0  0  0  0
   -3.3079   -0.6154    1.6581 H   0  0  0  0  0  0  0  0  0  0  0  0
   -4.7549   -2.5455    2.1699 H   0  0  0  0  0  0  0  0  0  0  0  0
   -3.6500   -4.3831   -1.5567 H   0  0  0  0  0  0  0  0  0  0  0  0
   -2.4628    0.9892   -4.2404 H   0  0  0  0  0  0  0  0  0  0  0  0
  1  2  1  0
  2  3  2  0
  3  4  1  0
  4  5  2  0
  5  6  1  0
  6  7  2  0
  7  8  1  0
  8  9  2  0
  9 10  1  0
 10 11  1  0
 11 12  1  0
 12 13  1  0
 13 14  1  0
 14 15  2  0
 15 16  1  0
 16 17  2  0
 17 18  1  0
 18 19  3  0
 17 20  1  0
 20 21  2  0
  9 22  1  0
 22 23  2  0
 23 24  1  0
 24 25  2  0
 25 26  1  0
 26 27  2  0
 27 28  1  0
 27 29  1  0
 29 30  2  0
 30 31  1  0
  5 32  1  0
 32  2  1  0
 23  6  1  0
 30 24  1  0
 21 14  1  0
  1 33  1  0
  1 34  1  0
  1 35  1  0
  3 36  1  0
  7 37  1  0
 10 38  1  0
 11 39  1  0
 11 40  1  0
 12 41  1  0
 12 42  1  0
 13 43  1  0
 15 44  1  0
 16 45  1  0
 20 46  1  0
 25 47  1  0
 26 48  1  0
 29 49  1  0
 32 50  1  0
M  END
$$$$
