
     RDKit          3D

 34 36  0  0  0  0  0  0  0  0999 V2000
   -1.6971   -3.2672    0.9892 C   0  0  0  0  0  0  0  0  0  0  0  0
   -1.3500   -1.8802    0.7205 N   0  0  0  0  0  0  0  0  0  0  0  0
   -0.0190   -1.6347    0.5157 N   0  0  0  0  0  0  0  0  0  0  0  0
    0.3402   -0.4295    0.1768 C   0  0  0  0  0  0  0  0  0  0  0  0
    1.7886   -0.1230   -0.0496 C   0  0  0  0  0  0  0  0  0  0  0  0
    2.7499   -1.1302    0.1085 C   0  0  0  0  0  0  0  0  0  0  0  0
    4.1050   -0.8542   -0.1005 C   0  0  0  0  0  0  0  0  0  0  0  0
    4.5222    0.4314   -0.4776 C   0  0  0  0  0  0  0  0  0  0  0  0
    5.9877    0.7346   -0.6806 C   0  0  0  0  0  0  0  0  0  0  0  0
    6.6980   -0.3396   -1.1251 F   0  0  0  0  0  0  0  0  0  0  0  0
    6.2082    1.7262   -1.5882 F   0  0  0  0  0  0  0  0  0  0  0  0
    6.5962    1.1361    0.4688 F   0  0  0  0  0  0  0  0  0  0  0  0
    3.5574    1.4393   -0.6260 C   0  0  0  0  0  0  0  0  0  0  0  0
    2.2019    1.1643   -0.4172 C   0  0  0  0  0  0  0  0  0  0  0  0
   -0.5271    0.6244    0.0014 N   0  0  0  0  0  0  0  0  0  0  0  0
   -1.7996    0.4147    0.1477 C   0  0  0  0  0  0  0  0  0  0  0  0
   -2.7747    1.5366   -0.0335 C   0  0  0  0  0  0  0  0  0  0  0  0
   -2.3778    2.6472   -0.3599 O   0  0  0  0  0  0  0  0  0  0  0  0
   -4.0891    1.1762    0.1758 N   0  0  0  0  0  0  0  0  0  0  0  0
   -5.1073    2.1904   -0.0158 C   0  0  0  0  0  0  0  0  0  0  0  0
   -4.5125   -0.1378    0.3445 C   0  0  0  0  0  0  0  0  0  0  0  0
   -5.7071   -0.4178    0.2785 O   0  0  0  0  0  0  0  0  0  0  0  0
   -3.5989   -1.1293    0.5790 N   0  0  0  0  0  0  0  0  0  0  0  0
   -2.3257   -0.9322    0.5015 C   0  0  0  0  0  0  0  0  0  0  0  0
   -0.8278   -3.8328    1.3426 H   0  0  0  0  0  0  0  0  0  0  0  0
   -2.0703   -3.7468    0.0787 H   0  0  0  0  0  0  0  0  0  0  0  0
   -2.4680   -3.3331    1.7642 H   0  0  0  0  0  0  0  0  0  0  0  0
    2.4537   -2.1368    0.3970 H   0  0  0  0  0  0  0  0  0  0  0  0
    4.8364   -1.6510    0.0313 H   0  0  0  0  0  0  0  0  0  0  0  0
    3.8567    2.4484   -0.9080 H   0  0  0  0  0  0  0  0  0  0  0  0
    1.4763    1.9659   -0.5433 H   0  0  0  0  0  0  0  0  0  0  0  0
   -5.4737    2.1237   -1.0453 H   0  0  0  0  0  0  0  0  0  0  0  0
   -4.7078    3.1942    0.1556 H   0  0  0  0  0  0  0  0  0  0  0  0
   -5.9448    2.0226    0.6686 H   0  0  0  0  0  0  0  0  0  0  0  0
  1  2  1  0
  2  3  1  0
  3  4  2  0
  4  5  1  0
  5  6  2  0
  6  7  1  0
  7  8  2  0
  8  9  1  0
  9 10  1  0
  9 11  1  0
  9 12  1  0
  8 13  1  0
 13 14  2  0
  4 15  1  0
 15 16  2  0
 16 17  1  0
 17 18  2  0
 17 19  1  0
 19 20  1  0
 19 21  1  0
 21 22  2  0
 21 23  1  0
 23 24  2  0
 24  2  1  0
 14  5  1  0
 24 16  1  0
  1 25  1  0
  1 26  1  0
  1 27  1  0
  6 28  1  0
  7 29  1  0
 13 30  1  0
 14 31  1  0
 20 32  1  0
 20 33  1  0
 20 34  1  0
M  END
$$$$
