
     RDKit          3D

 52 55  0  0  0  0  0  0  0  0999 V2000
   -7.5687    1.3154    1.7150 C   0  0  0  0  0  0  0  0  0  0  0  0
   -6.4765    1.5791    0.8426 O   0  0  0  0  0  0  0  0  0  0  0  0
   -6.0385    0.5431    0.0658 C   0  0  0  0  0  0  0  0  0  0  0  0
   -6.5207   -0.7675    0.0961 C   0  0  0  0  0  0  0  0  0  0  0  0
   -5.9882   -1.7373   -0.7605 C   0  0  0  0  0  0  0  0  0  0  0  0
   -4.9619   -1.4064   -1.6432 C   0  0  0  0  0  0  0  0  0  0  0  0
   -4.4627   -0.1020   -1.6531 C   0  0  0  0  0  0  0  0  0  0  0  0
   -3.1692    0.3388   -2.7919 S   0  0  0  0  0  6  0  0  0  0  0  0
   -3.2648    1.7612   -3.0376 O   0  0  0  0  0  0  0  0  0  0  0  0
   -3.2120   -0.6134   -3.8819 O   0  0  0  0  0  0  0  0  0  0  0  0
   -1.7485    0.0483   -1.9082 N   0  0  0  0  0  0  0  0  0  0  0  0
   -1.4349   -1.3652   -1.5749 C   0  0  0  0  0  0  0  0  0  0  0  0
    0.0649   -1.5055   -1.3555 C   0  0  0  0  0  0  0  0  0  0  0  0
    0.5150   -0.4794   -0.4372 N   0  0  0  0  0  0  0  0  0  0  0  0
    1.6685   -0.6156    0.2386 N   0  0  0  0  0  0  0  0  0  0  0  0
    1.7637    0.5328    0.9450 C   0  0  0  0  0  0  0  0  0  0  0  0
    2.9072    0.8161    1.8277 C   0  0  0  0  0  0  0  0  0  0  0  0
    3.0065    1.8537    2.4753 O   0  0  0  0  0  0  0  0  0  0  0  0
    3.8408   -0.1940    1.8405 N   0  0  0  0  0  0  0  0  0  0  0  0
    5.1260   -0.0592    2.4713 C   0  0  0  0  0  0  0  0  0  0  0  0
    6.1804    0.3355    1.4704 C   0  0  0  0  0  0  0  0  0  0  0  0
    6.9670   -0.6369    0.8367 C   0  0  0  0  0  0  0  0  0  0  0  0
    7.9281   -0.2653   -0.1054 C   0  0  0  0  0  0  0  0  0  0  0  0
    8.1066    1.0788   -0.4284 C   0  0  0  0  0  0  0  0  0  0  0  0
    7.3229    2.0529    0.1870 C   0  0  0  0  0  0  0  0  0  0  0  0
    6.3622    1.6837    1.1294 C   0  0  0  0  0  0  0  0  0  0  0  0
    0.6411    1.3709    0.7067 C   0  0  0  0  0  0  0  0  0  0  0  0
   -0.1514    0.6846   -0.1866 C   0  0  0  0  0  0  0  0  0  0  0  0
   -1.4665    1.0007   -0.8102 C   0  0  0  0  0  0  0  0  0  0  0  0
   -5.0120    0.8763   -0.8197 C   0  0  0  0  0  0  0  0  0  0  0  0
   -8.4565    1.0043    1.1544 H   0  0  0  0  0  0  0  0  0  0  0  0
   -7.2971    0.5718    2.4713 H   0  0  0  0  0  0  0  0  0  0  0  0
   -7.8127    2.2463    2.2358 H   0  0  0  0  0  0  0  0  0  0  0  0
   -7.3188   -1.0661    0.7687 H   0  0  0  0  0  0  0  0  0  0  0  0
   -6.3840   -2.7505   -0.7426 H   0  0  0  0  0  0  0  0  0  0  0  0
   -4.5677   -2.1615   -2.3196 H   0  0  0  0  0  0  0  0  0  0  0  0
   -1.7306   -2.0387   -2.3850 H   0  0  0  0  0  0  0  0  0  0  0  0
   -1.9842   -1.6585   -0.6719 H   0  0  0  0  0  0  0  0  0  0  0  0
    0.6215   -1.3583   -2.2874 H   0  0  0  0  0  0  0  0  0  0  0  0
    0.3111   -2.4847   -0.9332 H   0  0  0  0  0  0  0  0  0  0  0  0
    3.6838   -0.9299    1.1584 H   0  0  0  0  0  0  0  0  0  0  0  0
    5.3725   -1.0269    2.9221 H   0  0  0  0  0  0  0  0  0  0  0  0
    5.0812    0.6744    3.2842 H   0  0  0  0  0  0  0  0  0  0  0  0
    6.8354   -1.6903    1.0724 H   0  0  0  0  0  0  0  0  0  0  0  0
    8.5357   -1.0248   -0.5902 H   0  0  0  0  0  0  0  0  0  0  0  0
    8.8533    1.3673   -1.1635 H   0  0  0  0  0  0  0  0  0  0  0  0
    7.4554    3.1008   -0.0692 H   0  0  0  0  0  0  0  0  0  0  0  0
    5.7481    2.4524    1.5962 H   0  0  0  0  0  0  0  0  0  0  0  0
    0.4555    2.3436    1.1424 H   0  0  0  0  0  0  0  0  0  0  0  0
   -2.2413    0.9377   -0.0398 H   0  0  0  0  0  0  0  0  0  0  0  0
   -1.4334    2.0225   -1.2024 H   0  0  0  0  0  0  0  0  0  0  0  0
   -4.6513    1.9024   -0.8550 H   0  0  0  0  0  0  0  0  0  0  0  0
  1  2  1  0
  2  3  1  0
  3  4  2  0
  4  5  1  0
  5  6  2  0
  6  7  1  0
  7  8  1  0
  8  9  2  0
  8 10  2  0
  8 11  1  0
 11 12  1  0
 12 13  1  0
 13 14  1  0
 14 15  1  0
 15 16  2  0
 16 17  1  0
 17 18  2  0
 17 19  1  0
 19 20  1  0
 20 21  1  0
 21 22  2  0
 22 23  1  0
 23 24  2  0
 24 25  1  0
 25 26  2  0
 16 27  1  0
 27 28  2  0
 28 29  1  0
  7 30  2  0
 30  3  1  0
 29 11  1  0
 28 14  1  0
 26 21  1  0
  1 31  1  0
  1 32  1  0
  1 33  1  0
  4 34  1  0
  5 35  1  0
  6 36  1  0
 12 37  1  0
 12 38  1  0
 13 39  1  0
 13 40  1  0
 19 41  1  0
 20 42  1  0
 20 43  1  0
 22 44  1  0
 23 45  1  0
 24 46  1  0
 25 47  1  0
 26 48  1  0
 27 49  1  0
 29 50  1  0
 29 51  1  0
 30 52  1  0
M  END
$$$$
