
     RDKit          3D

 78 79  0  0  0  0  0  0  0  0999 V2000
   -5.5453    4.4986   -0.7337 C   0  0  0  0  0  0  0  0  0  0  0  0
   -4.9610    4.5072    0.5120 O   0  0  0  0  0  0  0  0  0  0  0  0
   -4.5420    3.2945    0.9916 C   0  0  0  0  0  0  0  0  0  0  0  0
   -3.4354    2.6649    0.1815 C   0  0  0  0  0  0  0  0  0  0  0  0
   -2.9883    3.3773   -0.7493 O   0  0  0  0  0  0  0  0  0  0  0  0
   -2.9809    1.4207    0.4632 O   0  0  0  0  0  0  0  0  0  0  0  0
   -1.9401    0.7707   -0.2529 C   0  0  2  0  0  0  0  0  0  0  0  0
   -0.6972    1.5886   -0.1018 C   0  0  0  0  0  0  0  0  0  0  0  0
    0.5328    1.1970   -0.7749 C   0  0  0  0  0  0  0  0  0  0  0  0
    1.1838   -0.0601   -0.4492 N   0  0  0  0  0  0  0  0  0  0  0  0
    2.2651   -0.1375   -1.4813 C   0  0  0  0  0  0  0  0  0  0  0  0
    1.8737    0.1238    0.8121 C   0  0  0  0  0  0  0  0  0  0  0  0
    2.2716   -1.1145    1.4932 C   0  0  0  0  0  0  0  0  0  0  0  0
    3.2320   -2.0150    0.8335 C   0  0  0  0  0  0  0  0  0  0  0  0
    4.5591   -1.3918    0.5857 C   0  0  0  0  0  0  0  0  0  0  0  0
    4.9289   -0.1523    0.9393 N   0  0  0  0  0  0  0  0  0  0  0  0
    6.2138    0.0353    0.5356 C   0  0  0  0  0  0  0  0  0  0  0  0
    7.0574    1.1098    0.6480 C   0  0  0  0  0  0  0  0  0  0  0  0
    8.3306    1.0154    0.1373 C   0  0  0  0  0  0  0  0  0  0  0  0
    8.7440   -0.1435   -0.4757 C   0  0  0  0  0  0  0  0  0  0  0  0
    7.9112   -1.2213   -0.5934 C   0  0  0  0  0  0  0  0  0  0  0  0
    6.6408   -1.1113   -0.0775 C   0  0  0  0  0  0  0  0  0  0  0  0
    5.5914   -1.9824   -0.0326 N   0  0  0  0  0  0  0  0  0  0  0  0
   -2.3903    0.7271   -1.7044 C   0  0  0  0  0  0  0  0  0  0  0  0
   -3.7719    0.0864   -1.7240 C   0  0  0  0  0  0  0  0  0  0  0  0
   -3.4603   -1.3779   -1.5250 C   0  0  0  0  0  0  0  0  0  0  0  0
   -4.1061   -2.3402   -2.2497 C   0  0  0  0  0  0  0  0  0  0  0  0
   -3.7491   -3.6541   -2.0276 C   0  0  0  0  0  0  0  0  0  0  0  0
   -4.3778   -4.6101   -2.7356 F   0  0  0  0  0  0  0  0  0  0  0  0
   -2.7777   -4.0045   -1.1112 C   0  0  0  0  0  0  0  0  0  0  0  0
   -2.1463   -3.0092   -0.3969 C   0  0  0  0  0  0  0  0  0  0  0  0
   -2.4931   -1.6634   -0.6055 C   0  0  0  0  0  0  0  0  0  0  0  0
   -1.7799   -0.6225    0.2282 C   0  0  2  0  0  0  0  0  0  0  0  0
   -2.2156   -0.8857    1.6492 C   0  0  0  0  0  0  0  0  0  0  0  0
   -3.6772   -0.6016    1.9086 C   0  0  0  0  0  0  0  0  0  0  0  0
   -1.4492   -0.2198    2.7293 C   0  0  0  0  0  0  0  0  0  0  0  0
    0.6848    0.0000    0.0000 Cl  0  0  0  0  0  0  0  0  0  0  0  0
    0.6913    0.0000    0.0000 Cl  0  0  0  0  0  0  0  0  0  0  0  0
   -5.8432    5.5619   -0.9888 H   0  0  0  0  0  0  0  0  0  0  0  0
   -6.5009    3.8922   -0.7405 H   0  0  0  0  0  0  0  0  0  0  0  0
   -4.9277    4.1351   -1.5470 H   0  0  0  0  0  0  0  0  0  0  0  0
   -4.2591    3.3313    2.0618 H   0  0  0  0  0  0  0  0  0  0  0  0
   -5.4072    2.5832    0.8483 H   0  0  0  0  0  0  0  0  0  0  0  0
   -0.4796    1.6462    1.0138 H   0  0  0  0  0  0  0  0  0  0  0  0
   -0.9052    2.6920   -0.3166 H   0  0  0  0  0  0  0  0  0  0  0  0
    0.4940    1.2310   -1.8902 H   0  0  0  0  0  0  0  0  0  0  0  0
    1.3221    1.9787   -0.5337 H   0  0  0  0  0  0  0  0  0  0  0  0
    3.1831    0.3473   -1.1382 H   0  0  0  0  0  0  0  0  0  0  0  0
    2.3848   -1.1616   -1.8398 H   0  0  0  0  0  0  0  0  0  0  0  0
    1.9402    0.4771   -2.3841 H   0  0  0  0  0  0  0  0  0  0  0  0
    2.7750    0.7855    0.5709 H   0  0  0  0  0  0  0  0  0  0  0  0
    1.1841    0.7224    1.4723 H   0  0  0  0  0  0  0  0  0  0  0  0
    2.6811   -0.8633    2.5245 H   0  0  0  0  0  0  0  0  0  0  0  0
    1.3437   -1.7255    1.7800 H   0  0  0  0  0  0  0  0  0  0  0  0
    3.4806   -2.8865    1.5535 H   0  0  0  0  0  0  0  0  0  0  0  0
    2.8309   -2.4737   -0.0850 H   0  0  0  0  0  0  0  0  0  0  0  0
    6.7324    2.0207    1.1291 H   0  0  0  0  0  0  0  0  0  0  0  0
    9.0336    1.8387    0.2030 H   0  0  0  0  0  0  0  0  0  0  0  0
    9.7448   -0.2414   -0.8860 H   0  0  0  0  0  0  0  0  0  0  0  0
    8.2163   -2.1403   -1.0719 H   0  0  0  0  0  0  0  0  0  0  0  0
    5.6734   -2.9431   -0.4447 H   0  0  0  0  0  0  0  0  0  0  0  0
   -1.6576    0.0485   -2.2058 H   0  0  0  0  0  0  0  0  0  0  0  0
   -2.4803    1.6916   -2.1928 H   0  0  0  0  0  0  0  0  0  0  0  0
   -4.4107    0.3949   -0.9049 H   0  0  0  0  0  0  0  0  0  0  0  0
   -4.2418    0.2262   -2.7247 H   0  0  0  0  0  0  0  0  0  0  0  0
   -4.8603   -2.0467   -2.9595 H   0  0  0  0  0  0  0  0  0  0  0  0
   -2.5425   -5.0467   -0.9813 H   0  0  0  0  0  0  0  0  0  0  0  0
   -1.3854   -3.2784    0.3216 H   0  0  0  0  0  0  0  0  0  0  0  0
   -0.7290   -0.9232    0.1486 H   0  0  0  0  0  0  0  0  0  0  0  0
   -2.0925   -1.9991    1.8255 H   0  0  0  0  0  0  0  0  0  0  0  0
   -3.9832   -1.3099    2.7463 H   0  0  0  0  0  0  0  0  0  0  0  0
   -3.8512    0.4138    2.3371 H   0  0  0  0  0  0  0  0  0  0  0  0
   -4.3416   -0.8700    1.0857 H   0  0  0  0  0  0  0  0  0  0  0  0
   -1.7184    0.8760    2.8762 H   0  0  0  0  0  0  0  0  0  0  0  0
   -0.3902   -0.4295    2.7899 H   0  0  0  0  0  0  0  0  0  0  0  0
   -1.8642   -0.6538    3.7011 H   0  0  0  0  0  0  0  0  0  0  0  0
   -0.6848    0.0000    0.0000 H   0  0  0  0  0  0  0  0  0  0  0  0
   -0.6913    0.0000    0.0000 H   0  0  0  0  0  0  0  0  0  0  0  0
  1  2  1  0
  2  3  1  0
  3  4  1  0
  4  5  2  0
  4  6  1  0
  7  6  1  1
  7  8  1  0
  8  9  1  0
  9 10  1  0
 10 11  1  0
 10 12  1  0
 12 13  1  0
 13 14  1  0
 14 15  1  0
 15 16  2  0
 16 17  1  0
 17 18  2  0
 18 19  1  0
 19 20  2  0
 20 21  1  0
 21 22  2  0
 22 23  1  0
  7 24  1  0
 24 25  1  0
 25 26  1  0
 26 27  2  0
 27 28  1  0
 28 29  1  0
 28 30  2  0
 30 31  1  0
 31 32  2  0
 32 33  1  0
 33 34  1  0
 34 35  1  0
 34 36  1  0
 33  7  1  0
 23 15  1  0
 32 26  1  0
 22 17  1  0
  1 39  1  0
  1 40  1  0
  1 41  1  0
  3 42  1  0
  3 43  1  0
  8 44  1  0
  8 45  1  0
  9 46  1  0
  9 47  1  0
 11 48  1  0
 11 49  1  0
 11 50  1  0
 12 51  1  0
 12 52  1  0
 13 53  1  0
 13 54  1  0
 14 55  1  0
 14 56  1  0
 18 57  1  0
 19 58  1  0
 20 59  1  0
 21 60  1  0
 23 61  1  0
 24 62  1  0
 24 63  1  0
 25 64  1  0
 25 65  1  0
 27 66  1  0
 30 67  1  0
 31 68  1  0
 33 69  1  1
 34 70  1  0
 35 71  1  0
 35 72  1  0
 35 73  1  0
 36 74  1  0
 36 75  1  0
 36 76  1  0
 37 77  1  0
 38 78  1  0
M  END
$$$$
