
     RDKit          3D

 43 46  0  0  0  0  0  0  0  0999 V2000
   -4.9917    2.4449   -0.7595 N   0  0  0  0  0  0  0  0  0  0  0  0
   -4.2141    1.3398   -0.7319 C   0  0  0  0  0  0  0  0  0  0  0  0
   -3.5913    1.0231    0.3317 N   0  0  0  0  0  0  0  0  0  0  0  0
   -2.6801   -0.1094    0.5248 C   0  0  1  0  0  0  0  0  0  0  0  0
   -1.3627    0.4435    1.1037 C   0  0  0  0  0  0  0  0  0  0  0  0
   -0.0940    0.2078    0.5368 C   0  0  0  0  0  0  0  0  0  0  0  0
    1.0757    0.7592    1.0761 C   0  0  0  0  0  0  0  0  0  0  0  0
    2.3574    0.5463    0.5393 N   0  0  0  0  0  0  0  0  0  0  0  0
    2.7155   -0.2596   -0.5238 C   0  0  0  0  0  0  0  0  0  0  0  0
    1.9823   -0.9787   -1.1920 O   0  0  0  0  0  0  0  0  0  0  0  0
    4.1819   -0.1963   -0.8389 C   0  0  0  0  0  0  0  0  0  0  0  0
    4.7037   -0.9633   -1.8764 C   0  0  0  0  0  0  0  0  0  0  0  0
    6.0733   -0.8898   -2.1269 C   0  0  0  0  0  0  0  0  0  0  0  0
    6.8535   -0.0424   -1.3592 C   0  0  0  0  0  0  0  0  0  0  0  0
    8.1701    0.0488   -1.5796 F   0  0  0  0  0  0  0  0  0  0  0  0
    6.2512    0.7088   -0.3593 C   0  0  0  0  0  0  0  0  0  0  0  0
    4.9294    0.6465   -0.0650 N   0  0  0  0  0  0  0  0  0  0  0  0
    0.9875    1.5727    2.2043 C   0  0  0  0  0  0  0  0  0  0  0  0
   -0.2500    1.8133    2.7955 C   0  0  0  0  0  0  0  0  0  0  0  0
   -1.4010    1.2548    2.2493 C   0  0  0  0  0  0  0  0  0  0  0  0
   -2.5657    1.5025    2.8647 F   0  0  0  0  0  0  0  0  0  0  0  0
   -3.3170   -1.0999    1.5405 C   0  0  0  0  0  0  0  0  0  0  0  0
   -3.0341   -2.4447    1.1090 O   0  0  0  0  0  0  0  0  0  0  0  0
   -2.2276   -2.3719   -0.0681 C   0  0  0  0  0  0  0  0  0  0  0  0
   -2.5351   -1.0241   -0.7010 C   0  0  1  0  0  0  0  0  0  0  0  0
   -3.8225   -1.1511   -1.5099 C   0  0  0  0  0  0  0  0  0  0  0  0
   -4.2123    0.4508   -2.2142 S   0  0  0  0  0  0  0  0  0  0  0  0
   -5.7611    2.4115   -1.4144 H   0  0  0  0  0  0  0  0  0  0  0  0
   -5.2369    2.7724    0.1684 H   0  0  0  0  0  0  0  0  0  0  0  0
   -0.0079   -0.4165   -0.3413 H   0  0  0  0  0  0  0  0  0  0  0  0
    3.1370    1.0448    0.9615 H   0  0  0  0  0  0  0  0  0  0  0  0
    4.0639   -1.6164   -2.4580 H   0  0  0  0  0  0  0  0  0  0  0  0
    6.5318   -1.4899   -2.9040 H   0  0  0  0  0  0  0  0  0  0  0  0
    6.8446    1.3880    0.2444 H   0  0  0  0  0  0  0  0  0  0  0  0
    1.8774    2.0142    2.6489 H   0  0  0  0  0  0  0  0  0  0  0  0
   -0.3309    2.4328    3.6806 H   0  0  0  0  0  0  0  0  0  0  0  0
   -4.4081   -1.0068    1.5721 H   0  0  0  0  0  0  0  0  0  0  0  0
   -2.9539   -0.9934    2.5628 H   0  0  0  0  0  0  0  0  0  0  0  0
   -1.1805   -2.4635    0.2310 H   0  0  0  0  0  0  0  0  0  0  0  0
   -2.4573   -3.2156   -0.7223 H   0  0  0  0  0  0  0  0  0  0  0  0
   -1.7383   -0.7264   -1.3926 H   0  0  0  0  0  0  0  0  0  0  0  0
   -4.6695   -1.4966   -0.9086 H   0  0  0  0  0  0  0  0  0  0  0  0
   -3.6925   -1.8701   -2.3240 H   0  0  0  0  0  0  0  0  0  0  0  0
  1  2  1  0
  2  3  2  0
  3  4  1  0
  4  5  1  1
  5  6  2  0
  6  7  1  0
  7  8  1  0
  8  9  1  0
  9 10  2  0
  9 11  1  0
 11 12  2  0
 12 13  1  0
 13 14  2  0
 14 15  1  0
 14 16  1  0
 16 17  2  0
  7 18  2  0
 18 19  1  0
 19 20  2  0
 20 21  1  0
  4 22  1  0
 22 23  1  0
 23 24  1  0
 24 25  1  0
 25 26  1  0
 26 27  1  0
 27  2  1  0
 25  4  1  0
 20  5  1  0
 17 11  1  0
  1 28  1  0
  1 29  1  0
  6 30  1  0
  8 31  1  0
 12 32  1  0
 13 33  1  0
 16 34  1  0
 18 35  1  0
 19 36  1  0
 22 37  1  0
 22 38  1  0
 24 39  1  0
 24 40  1  0
 25 41  1  6
 26 42  1  0
 26 43  1  0
M  END
$$$$
