
     RDKit          3D

 40 42  0  0  0  0  0  0  0  0999 V2000
    2.3351   -1.3120   -1.2721 C   0  0  0  0  0  0  0  0  0  0  0  0
    1.9337   -0.4357   -0.1389 N   0  0  0  0  0  0  0  0  0  0  0  0
    2.7759    0.7269    0.0072 C   0  0  0  0  0  0  0  0  0  0  0  0
    2.6588    1.8454   -0.8235 C   0  0  0  0  0  0  0  0  0  0  0  0
    3.5550    2.9082   -0.6938 C   0  0  0  0  0  0  0  0  0  0  0  0
    4.5826    2.8452    0.2469 C   0  0  0  0  0  0  0  0  0  0  0  0
    4.7210    1.7167    1.0541 C   0  0  0  0  0  0  0  0  0  0  0  0
    3.8253    0.6539    0.9261 C   0  0  0  0  0  0  0  0  0  0  0  0
    0.2503   -0.1057   -0.0575 S   0  0  0  0  0  6  0  0  0  0  0  0
   -0.0240    0.8130    1.0275 O   0  0  0  0  0  0  0  0  0  0  0  0
   -0.1964    0.1552   -1.4091 O   0  0  0  0  0  0  0  0  0  0  0  0
   -0.4734   -1.6352    0.4727 C   0  0  0  0  0  0  0  0  0  0  0  0
    0.2994   -2.5481    1.2069 C   0  0  0  0  0  0  0  0  0  0  0  0
   -0.2430   -3.7770    1.5856 C   0  0  0  0  0  0  0  0  0  0  0  0
   -1.5536   -4.0975    1.2384 C   0  0  0  0  0  0  0  0  0  0  0  0
   -2.3326   -3.1792    0.5329 C   0  0  0  0  0  0  0  0  0  0  0  0
   -1.8045   -1.9315    0.1646 C   0  0  0  0  0  0  0  0  0  0  0  0
   -2.7351   -1.0001   -0.5193 C   0  0  0  0  0  0  0  0  0  0  0  0
   -3.3177   -1.4309   -1.5062 O   0  0  0  0  0  0  0  0  0  0  0  0
   -2.8945    0.2131    0.1070 N   0  0  0  0  0  0  0  0  0  0  0  0
   -3.7013    1.2452   -0.3021 C   0  0  0  0  0  0  0  0  0  0  0  0
   -3.8054    2.3429    0.4118 N   0  0  0  0  0  0  0  0  0  0  0  0
   -4.6613    3.2247   -0.2184 C   0  0  0  0  0  0  0  0  0  0  0  0
   -5.2025    2.7791   -1.4040 C   0  0  0  0  0  0  0  0  0  0  0  0
   -4.6162    1.2050   -1.7396 S   0  0  0  0  0  0  0  0  0  0  0  0
    1.6995   -2.1996   -1.3296 H   0  0  0  0  0  0  0  0  0  0  0  0
    3.3611   -1.6644   -1.1196 H   0  0  0  0  0  0  0  0  0  0  0  0
    2.2870   -0.7784   -2.2267 H   0  0  0  0  0  0  0  0  0  0  0  0
    1.8753    1.9059   -1.5745 H   0  0  0  0  0  0  0  0  0  0  0  0
    3.4517    3.7842   -1.3294 H   0  0  0  0  0  0  0  0  0  0  0  0
    5.2780    3.6749    0.3477 H   0  0  0  0  0  0  0  0  0  0  0  0
    5.5263    1.6646    1.7822 H   0  0  0  0  0  0  0  0  0  0  0  0
    3.9420   -0.2251    1.5533 H   0  0  0  0  0  0  0  0  0  0  0  0
    1.3224   -2.3140    1.4931 H   0  0  0  0  0  0  0  0  0  0  0  0
    0.3578   -4.4874    2.1497 H   0  0  0  0  0  0  0  0  0  0  0  0
   -1.9749   -5.0586    1.5251 H   0  0  0  0  0  0  0  0  0  0  0  0
   -3.3607   -3.4324    0.2762 H   0  0  0  0  0  0  0  0  0  0  0  0
   -2.3951    0.4363    0.9604 H   0  0  0  0  0  0  0  0  0  0  0  0
   -4.8574    4.1885    0.2349 H   0  0  0  0  0  0  0  0  0  0  0  0
   -5.8886    3.2841   -2.0677 H   0  0  0  0  0  0  0  0  0  0  0  0
  1  2  1  0
  2  3  1  0
  3  4  2  0
  4  5  1  0
  5  6  2  0
  6  7  1  0
  7  8  2  0
  2  9  1  0
  9 10  2  0
  9 11  2  0
  9 12  1  0
 12 13  2  0
 13 14  1  0
 14 15  2  0
 15 16  1  0
 16 17  2  0
 17 18  1  0
 18 19  2  0
 18 20  1  0
 20 21  1  0
 21 22  2  0
 22 23  1  0
 23 24  2  0
 24 25  1  0
  8  3  1  0
 17 12  1  0
 25 21  1  0
  1 26  1  0
  1 27  1  0
  1 28  1  0
  4 29  1  0
  5 30  1  0
  6 31  1  0
  7 32  1  0
  8 33  1  0
 13 34  1  0
 14 35  1  0
 15 36  1  0
 16 37  1  0
 20 38  1  0
 23 39  1  0
 24 40  1  0
M  END
$$$$
