
     RDKit          3D

 57 60  0  0  0  0  0  0  0  0999 V2000
    0.3713    0.9758    1.5580 O   0  0  0  0  0  0  0  0  0  0  0  0
    0.6519    0.9544    0.3685 C   0  0  0  0  0  0  0  0  0  0  0  0
    1.7451    1.5827   -0.1701 N   0  0  0  0  0  0  0  0  0  0  0  0
    2.5973    2.4214    0.6605 C   0  0  0  0  0  0  0  0  0  0  0  0
    3.4082    1.6428    1.7095 C   0  0  0  0  0  0  0  0  0  0  0  0
    4.2685    0.6302    1.1044 N   0  0  0  0  0  0  0  0  0  0  0  0
    3.8375   -0.6732    1.0292 C   0  0  0  0  0  0  0  0  0  0  0  0
    4.4887   -1.6369    0.4689 N   0  0  0  0  0  0  0  0  0  0  0  0
    5.7311   -1.3322   -0.1053 C   0  0  0  0  0  0  0  0  0  0  0  0
    6.4711   -2.3592   -0.6956 C   0  0  0  0  0  0  0  0  0  0  0  0
    7.7122   -2.0963   -1.2831 C   0  0  0  0  0  0  0  0  0  0  0  0
    8.2248   -0.7989   -1.2857 C   0  0  0  0  0  0  0  0  0  0  0  0
    7.4968    0.2362   -0.7003 C   0  0  0  0  0  0  0  0  0  0  0  0
    6.2561   -0.0390   -0.1133 C   0  0  0  0  0  0  0  0  0  0  0  0
    5.4566    1.0309    0.5124 C   0  0  0  0  0  0  0  0  0  0  0  0
    5.8441    2.1961    0.4738 O   0  0  0  0  0  0  0  0  0  0  0  0
   -0.0628    0.2935   -0.5924 N   0  0  0  0  0  0  0  0  0  0  0  0
   -1.2384   -0.4972   -0.2713 C   0  0  0  0  0  0  0  0  0  0  0  0
   -2.5379    0.2224   -0.6687 C   0  0  2  0  0  0  0  0  0  0  0  0
   -2.8052    1.4484    0.2209 C   0  0  0  0  0  0  0  0  0  0  0  0
   -4.2343    1.9729    0.0802 C   0  0  0  0  0  0  0  0  0  0  0  0
   -4.9271    1.4246   -1.1633 C   0  0  0  0  0  0  0  0  0  0  0  0
   -4.9910   -0.0412   -1.1783 N   0  0  0  0  0  0  0  0  0  0  0  0
   -6.2433   -0.5335   -0.5924 C   0  0  0  0  0  0  0  0  0  0  0  0
   -6.2306   -2.0488   -0.4311 C   0  0  0  0  0  0  0  0  0  0  0  0
   -5.1279   -2.4961    0.5223 C   0  0  0  0  0  0  0  0  0  0  0  0
   -3.9943   -1.4752    0.6294 C   0  0  0  0  0  0  0  0  0  0  0  0
   -3.7661   -0.7271   -0.7003 C   0  0  2  0  0  0  0  0  0  0  0  0
    1.6183    1.8876   -1.1244 H   0  0  0  0  0  0  0  0  0  0  0  0
    3.2679    2.9545   -0.0215 H   0  0  0  0  0  0  0  0  0  0  0  0
    1.9643    3.1640    1.1592 H   0  0  0  0  0  0  0  0  0  0  0  0
    2.7444    1.1591    2.4336 H   0  0  0  0  0  0  0  0  0  0  0  0
    4.0369    2.3479    2.2659 H   0  0  0  0  0  0  0  0  0  0  0  0
    2.8595   -0.8670    1.4987 H   0  0  0  0  0  0  0  0  0  0  0  0
    6.0743   -3.3714   -0.6954 H   0  0  0  0  0  0  0  0  0  0  0  0
    8.2774   -2.9063   -1.7378 H   0  0  0  0  0  0  0  0  0  0  0  0
    9.1902   -0.5950   -1.7426 H   0  0  0  0  0  0  0  0  0  0  0  0
    7.8928    1.2489   -0.6999 H   0  0  0  0  0  0  0  0  0  0  0  0
    0.4280    0.0726   -1.4466 H   0  0  0  0  0  0  0  0  0  0  0  0
   -1.2294   -0.7479    0.7945 H   0  0  0  0  0  0  0  0  0  0  0  0
   -1.1396   -1.4316   -0.8351 H   0  0  0  0  0  0  0  0  0  0  0  0
   -2.3905    0.5892   -1.6962 H   0  0  0  0  0  0  0  0  0  0  0  0
   -2.1027    2.2470   -0.0483 H   0  0  0  0  0  0  0  0  0  0  0  0
   -2.6143    1.2176    1.2760 H   0  0  0  0  0  0  0  0  0  0  0  0
   -4.8103    1.7024    0.9739 H   0  0  0  0  0  0  0  0  0  0  0  0
   -4.2208    3.0686    0.0476 H   0  0  0  0  0  0  0  0  0  0  0  0
   -4.3857    1.7600   -2.0571 H   0  0  0  0  0  0  0  0  0  0  0  0
   -5.9284    1.8638   -1.2560 H   0  0  0  0  0  0  0  0  0  0  0  0
   -6.4325   -0.0706    0.3849 H   0  0  0  0  0  0  0  0  0  0  0  0
   -7.0784   -0.2576   -1.2473 H   0  0  0  0  0  0  0  0  0  0  0  0
   -7.2019   -2.4009   -0.0652 H   0  0  0  0  0  0  0  0  0  0  0  0
   -6.0804   -2.5196   -1.4114 H   0  0  0  0  0  0  0  0  0  0  0  0
   -4.7332   -3.4610    0.1819 H   0  0  0  0  0  0  0  0  0  0  0  0
   -5.5432   -2.6701    1.5222 H   0  0  0  0  0  0  0  0  0  0  0  0
   -4.2299   -0.7602    1.4276 H   0  0  0  0  0  0  0  0  0  0  0  0
   -3.0917   -2.0065    0.9488 H   0  0  0  0  0  0  0  0  0  0  0  0
   -3.5436   -1.4949   -1.4550 H   0  0  0  0  0  0  0  0  0  0  0  0
  1  2  2  0
  2  3  1  0
  3  4  1  0
  4  5  1  0
  5  6  1  0
  6  7  1  0
  7  8  2  0
  8  9  1  0
  9 10  2  0
 10 11  1  0
 11 12  2  0
 12 13  1  0
 13 14  2  0
 14 15  1  0
 15 16  2  0
  2 17  1  0
 17 18  1  0
 18 19  1  0
 19 20  1  0
 20 21  1  0
 21 22  1  0
 22 23  1  0
 23 24  1  0
 24 25  1  0
 25 26  1  0
 26 27  1  0
 27 28  1  0
 15  6  1  0
 28 19  1  0
 14  9  1  0
 28 23  1  0
  3 29  1  0
  4 30  1  0
  4 31  1  0
  5 32  1  0
  5 33  1  0
  7 34  1  0
 10 35  1  0
 11 36  1  0
 12 37  1  0
 13 38  1  0
 17 39  1  0
 18 40  1  0
 18 41  1  0
 19 42  1  6
 20 43  1  0
 20 44  1  0
 21 45  1  0
 21 46  1  0
 22 47  1  0
 22 48  1  0
 24 49  1  0
 24 50  1  0
 25 51  1  0
 25 52  1  0
 26 53  1  0
 26 54  1  0
 27 55  1  0
 27 56  1  0
 28 57  1  6
M  END
$$$$
