
     RDKit          3D

 39 42  0  0  0  0  0  0  0  0999 V2000
    4.8881   -1.4004   -1.2521 O   0  0  0  0  0  0  0  0  0  0  0  0
    3.8273   -1.7284   -0.4533 C   0  0  0  0  0  0  0  0  0  0  0  0
    2.6825   -0.9419   -0.5538 C   0  0  0  0  0  0  0  0  0  0  0  0
    1.5634   -1.2292    0.2378 C   0  0  0  0  0  0  0  0  0  0  0  0
    0.3591   -0.4155    0.1358 C   0  0  0  0  0  0  0  0  0  0  0  0
   -0.8665   -0.9609   -0.1792 N   0  0  0  0  0  0  0  0  0  0  0  0
   -1.8012    0.0406   -0.2855 C   0  0  0  0  0  0  0  0  0  0  0  0
   -3.2157   -0.1679   -0.6161 C   0  0  0  0  0  0  0  0  0  0  0  0
   -4.1131    0.9022   -0.4764 C   0  0  0  0  0  0  0  0  0  0  0  0
   -5.4691    0.7503   -0.7760 C   0  0  0  0  0  0  0  0  0  0  0  0
   -5.9483   -0.4772   -1.2242 C   0  0  0  0  0  0  0  0  0  0  0  0
   -5.0723   -1.5496   -1.3748 C   0  0  0  0  0  0  0  0  0  0  0  0
   -3.7143   -1.3970   -1.0739 C   0  0  0  0  0  0  0  0  0  0  0  0
   -1.2271    1.2021   -0.0352 N   0  0  0  0  0  0  0  0  0  0  0  0
    0.0994    0.9421    0.2341 C   0  0  0  0  0  0  0  0  0  0  0  0
    1.0320    2.0111    0.5507 C   0  0  0  0  0  0  0  0  0  0  0  0
    0.8661    3.2582   -0.0556 C   0  0  0  0  0  0  0  0  0  0  0  0
    1.7547    4.2722    0.2576 C   0  0  0  0  0  0  0  0  0  0  0  0
    2.7787    4.1310    1.1254 N   0  0  0  0  0  0  0  0  0  0  0  0
    2.9100    2.9230    1.7126 C   0  0  0  0  0  0  0  0  0  0  0  0
    2.0716    1.8476    1.4667 C   0  0  0  0  0  0  0  0  0  0  0  0
    1.6116   -2.3151    1.1250 C   0  0  0  0  0  0  0  0  0  0  0  0
    2.7641   -3.1014    1.2236 C   0  0  0  0  0  0  0  0  0  0  0  0
    3.8721   -2.8061    0.4322 C   0  0  0  0  0  0  0  0  0  0  0  0
    5.2895   -3.7782    0.5575 Cl  0  0  0  0  0  0  0  0  0  0  0  0
    5.6065   -2.0307   -1.0569 H   0  0  0  0  0  0  0  0  0  0  0  0
    2.6696   -0.1084   -1.2529 H   0  0  0  0  0  0  0  0  0  0  0  0
   -1.0404   -1.9411   -0.3366 H   0  0  0  0  0  0  0  0  0  0  0  0
   -3.7521    1.8691   -0.1277 H   0  0  0  0  0  0  0  0  0  0  0  0
   -6.1463    1.5925   -0.6594 H   0  0  0  0  0  0  0  0  0  0  0  0
   -7.0028   -0.5962   -1.4596 H   0  0  0  0  0  0  0  0  0  0  0  0
   -5.4459   -2.5063   -1.7315 H   0  0  0  0  0  0  0  0  0  0  0  0
   -3.0643   -2.2542   -1.2182 H   0  0  0  0  0  0  0  0  0  0  0  0
    0.0584    3.4358   -0.7586 H   0  0  0  0  0  0  0  0  0  0  0  0
    1.6614    5.2551   -0.1948 H   0  0  0  0  0  0  0  0  0  0  0  0
    3.7336    2.8386    2.4158 H   0  0  0  0  0  0  0  0  0  0  0  0
    2.2300    0.9156    1.9956 H   0  0  0  0  0  0  0  0  0  0  0  0
    0.7595   -2.5465    1.7612 H   0  0  0  0  0  0  0  0  0  0  0  0
    2.7903   -3.9350    1.9206 H   0  0  0  0  0  0  0  0  0  0  0  0
  1  2  1  0
  2  3  2  0
  3  4  1  0
  4  5  1  0
  5  6  1  0
  6  7  1  0
  7  8  1  0
  8  9  2  0
  9 10  1  0
 10 11  2  0
 11 12  1  0
 12 13  2  0
  7 14  2  0
 14 15  1  0
 15 16  1  0
 16 17  2  0
 17 18  1  0
 18 19  2  0
 19 20  1  0
 20 21  2  0
  4 22  2  0
 22 23  1  0
 23 24  2  0
 24 25  1  0
 24  2  1  0
 15  5  2  0
 21 16  1  0
 13  8  1  0
  1 26  1  0
  3 27  1  0
  6 28  1  0
  9 29  1  0
 10 30  1  0
 11 31  1  0
 12 32  1  0
 13 33  1  0
 17 34  1  0
 18 35  1  0
 20 36  1  0
 21 37  1  0
 22 38  1  0
 23 39  1  0
M  END
$$$$
