
     RDKit          3D

 24 24  0  0  0  0  0  0  0  0999 V2000
    2.7052   -1.9323   -0.3032 O   0  0  0  0  0  0  0  0  0  0  0  0
    2.9879   -0.5260   -0.4334 S   0  0  0  0  0  6  0  0  0  0  0  0
    3.8660   -0.0038   -1.4511 O   0  0  0  0  0  0  0  0  0  0  0  0
    3.5581    0.0156    0.9643 O   0  0  0  0  0  0  0  0  0  0  0  0
    1.5431    0.2992   -0.5819 N   0  0  0  0  0  0  0  0  0  0  0  0
    0.4473   -0.0661    0.3435 C   0  0  0  0  0  0  0  0  0  0  0  0
   -0.3093    1.2262    0.6956 C   0  0  0  0  0  0  0  0  0  0  0  0
   -1.7548    0.9428    1.0818 C   0  0  0  0  0  0  0  0  0  0  0  0
   -2.5318    0.3022   -0.0691 C   0  0  0  0  0  0  0  0  0  0  0  0
   -1.6536   -0.5170   -1.0165 C   0  0  0  0  0  0  0  0  0  0  0  0
   -0.4583   -1.1323   -0.2958 C   0  0  0  0  0  0  0  0  0  0  0  0
    4.2259    0.7000    0.7548 H   0  0  0  0  0  0  0  0  0  0  0  0
    1.2697    0.3736   -1.5614 H   0  0  0  0  0  0  0  0  0  0  0  0
    0.8713   -0.4736    1.2697 H   0  0  0  0  0  0  0  0  0  0  0  0
   -0.2980    1.9285   -0.1489 H   0  0  0  0  0  0  0  0  0  0  0  0
    0.2061    1.7353    1.5192 H   0  0  0  0  0  0  0  0  0  0  0  0
   -2.2542    1.8671    1.3935 H   0  0  0  0  0  0  0  0  0  0  0  0
   -1.7705    0.2721    1.9502 H   0  0  0  0  0  0  0  0  0  0  0  0
   -3.3204   -0.3341    0.3508 H   0  0  0  0  0  0  0  0  0  0  0  0
   -3.0442    1.0790   -0.6496 H   0  0  0  0  0  0  0  0  0  0  0  0
   -2.2567   -1.3016   -1.4874 H   0  0  0  0  0  0  0  0  0  0  0  0
   -1.2934    0.1273   -1.8283 H   0  0  0  0  0  0  0  0  0  0  0  0
    0.1002   -1.7685   -0.9914 H   0  0  0  0  0  0  0  0  0  0  0  0
   -0.8359   -1.7944    0.4944 H   0  0  0  0  0  0  0  0  0  0  0  0
  1  2  2  0
  2  3  2  0
  2  4  1  0
  2  5  1  0
  5  6  1  0
  6  7  1  0
  7  8  1  0
  8  9  1  0
  9 10  1  0
 10 11  1  0
 11  6  1  0
  4 12  1  0
  5 13  1  0
  6 14  1  0
  7 15  1  0
  7 16  1  0
  8 17  1  0
  8 18  1  0
  9 19  1  0
  9 20  1  0
 10 21  1  0
 10 22  1  0
 11 23  1  0
 11 24  1  0
M  END
$$$$
