
     RDKit          3D

 59 62  0  0  0  0  0  0  0  0999 V2000
   -3.7013    2.8195   -0.4292 C   0  0  0  0  0  0  0  0  0  0  0  0
   -4.3280    1.4544   -0.3496 C   0  0  0  0  0  0  0  0  0  0  0  0
   -5.3619    1.2454    0.5817 C   0  0  0  0  0  0  0  0  0  0  0  0
   -5.9969    0.0052    0.6778 C   0  0  0  0  0  0  0  0  0  0  0  0
   -5.6178   -1.0468   -0.1538 C   0  0  0  0  0  0  0  0  0  0  0  0
   -4.5988   -0.8616   -1.0838 C   0  0  0  0  0  0  0  0  0  0  0  0
   -3.9552    0.3815   -1.1847 C   0  0  0  0  0  0  0  0  0  0  0  0
   -2.6670    0.5451   -2.4106 S   0  0  0  0  0  6  0  0  0  0  0  0
   -2.5659   -0.6980   -3.1464 O   0  0  0  0  0  0  0  0  0  0  0  0
   -2.8697    1.7982   -3.1039 O   0  0  0  0  0  0  0  0  0  0  0  0
   -1.2490    0.6721   -1.4635 N   0  0  0  0  0  0  0  0  0  0  0  0
   -0.0444    1.1054   -2.2567 C   0  0  0  0  0  0  0  0  0  0  0  0
    1.0024   -0.0043   -2.3987 C   0  0  0  0  0  0  0  0  0  0  0  0
    1.4552   -0.4957   -1.0940 N   0  0  0  0  0  0  0  0  0  0  0  0
    2.7752   -0.8960   -0.9450 C   0  0  0  0  0  0  0  0  0  0  0  0
    3.5575   -0.9161   -1.8944 O   0  0  0  0  0  0  0  0  0  0  0  0
    3.2000   -1.3302    0.4521 C   0  0  0  0  0  0  0  0  0  0  0  0
    4.7102   -1.5363    0.5992 C   0  0  0  0  0  0  0  0  0  0  0  0
    5.5197   -0.2357    0.5703 C   0  0  0  0  0  0  0  0  0  0  0  0
    7.0192   -0.4810    0.7305 C   0  0  0  0  0  0  0  0  0  0  0  0
    7.5702    0.8988    1.0605 C   0  0  0  0  0  0  0  0  0  0  0  0
    6.4600    1.6099    1.8326 C   0  0  0  0  0  0  0  0  0  0  0  0
    5.2222    0.7203    1.7256 C   0  0  0  0  0  0  0  0  0  0  0  0
    0.4549   -0.4888   -0.0237 C   0  0  0  0  0  0  0  0  0  0  0  0
   -0.9821   -0.4974   -0.5634 C   0  0  0  0  0  0  0  0  0  0  0  0
   -6.1598   -2.2991   -0.0921 O   0  0  0  0  0  0  0  0  0  0  0  0
   -7.3637   -2.3947    0.6547 C   0  0  0  0  0  0  0  0  0  0  0  0
   -7.6908   -1.3535    1.7243 C   0  0  0  0  0  0  0  0  0  0  0  0
   -8.5493   -1.5210    2.5868 O   0  0  0  0  0  0  0  0  0  0  0  0
   -6.9979   -0.1796    1.6292 N   0  0  0  0  0  0  0  0  0  0  0  0
   -4.0381    3.3404   -1.3302 H   0  0  0  0  0  0  0  0  0  0  0  0
   -3.9849    3.4354    0.4316 H   0  0  0  0  0  0  0  0  0  0  0  0
   -2.6101    2.7587   -0.4180 H   0  0  0  0  0  0  0  0  0  0  0  0
   -5.6728    2.0610    1.2319 H   0  0  0  0  0  0  0  0  0  0  0  0
   -4.3152   -1.6922   -1.7273 H   0  0  0  0  0  0  0  0  0  0  0  0
   -0.3284    1.4601   -3.2527 H   0  0  0  0  0  0  0  0  0  0  0  0
    0.3899    1.9643   -1.7304 H   0  0  0  0  0  0  0  0  0  0  0  0
    1.8524    0.3653   -2.9817 H   0  0  0  0  0  0  0  0  0  0  0  0
    0.5801   -0.8623   -2.9351 H   0  0  0  0  0  0  0  0  0  0  0  0
    2.7059   -2.2879    0.6551 H   0  0  0  0  0  0  0  0  0  0  0  0
    2.8487   -0.6024    1.1898 H   0  0  0  0  0  0  0  0  0  0  0  0
    4.8936   -2.0551    1.5488 H   0  0  0  0  0  0  0  0  0  0  0  0
    5.0722   -2.2042   -0.1925 H   0  0  0  0  0  0  0  0  0  0  0  0
    5.3503    0.2896   -0.3784 H   0  0  0  0  0  0  0  0  0  0  0  0
    7.4726   -0.8976   -0.1741 H   0  0  0  0  0  0  0  0  0  0  0  0
    7.2181   -1.1711    1.5597 H   0  0  0  0  0  0  0  0  0  0  0  0
    8.5003    0.8413    1.6341 H   0  0  0  0  0  0  0  0  0  0  0  0
    7.7853    1.4477    0.1360 H   0  0  0  0  0  0  0  0  0  0  0  0
    6.2711    2.5981    1.3987 H   0  0  0  0  0  0  0  0  0  0  0  0
    6.7366    1.7612    2.8814 H   0  0  0  0  0  0  0  0  0  0  0  0
    5.0856    0.1682    2.6633 H   0  0  0  0  0  0  0  0  0  0  0  0
    4.3174    1.3114    1.5529 H   0  0  0  0  0  0  0  0  0  0  0  0
    0.6049   -1.3536    0.6292 H   0  0  0  0  0  0  0  0  0  0  0  0
    0.6298    0.4166    0.5698 H   0  0  0  0  0  0  0  0  0  0  0  0
   -1.1528   -1.4358   -1.1033 H   0  0  0  0  0  0  0  0  0  0  0  0
   -1.6726   -0.4543    0.2850 H   0  0  0  0  0  0  0  0  0  0  0  0
   -8.1979   -2.4017   -0.0567 H   0  0  0  0  0  0  0  0  0  0  0  0
   -7.3473   -3.3701    1.1537 H   0  0  0  0  0  0  0  0  0  0  0  0
   -7.2422    0.5487    2.2869 H   0  0  0  0  0  0  0  0  0  0  0  0
  1  2  1  0
  2  3  2  0
  3  4  1  0
  4  5  2  0
  5  6  1  0
  6  7  2  0
  7  8  1  0
  8  9  2  0
  8 10  2  0
  8 11  1  0
 11 12  1  0
 12 13  1  0
 13 14  1  0
 14 15  1  0
 15 16  2  0
 15 17  1  0
 17 18  1  0
 18 19  1  0
 19 20  1  0
 20 21  1  0
 21 22  1  0
 22 23  1  0
 14 24  1  0
 24 25  1  0
  5 26  1  0
 26 27  1  0
 27 28  1  0
 28 29  2  0
 28 30  1  0
  7  2  1  0
 25 11  1  0
 30  4  1  0
 23 19  1  0
  1 31  1  0
  1 32  1  0
  1 33  1  0
  3 34  1  0
  6 35  1  0
 12 36  1  0
 12 37  1  0
 13 38  1  0
 13 39  1  0
 17 40  1  0
 17 41  1  0
 18 42  1  0
 18 43  1  0
 19 44  1  0
 20 45  1  0
 20 46  1  0
 21 47  1  0
 21 48  1  0
 22 49  1  0
 22 50  1  0
 23 51  1  0
 23 52  1  0
 24 53  1  0
 24 54  1  0
 25 55  1  0
 25 56  1  0
 27 57  1  0
 27 58  1  0
 30 59  1  0
M  END
$$$$
