
     RDKit          3D

 33 36  0  0  0  0  0  0  0  0999 V2000
    6.4187   -0.0966    0.3627 C   0  0  0  0  0  0  0  0  0  0  0  0
    4.9248   -0.0052    0.2700 C   0  0  0  0  0  0  0  0  0  0  0  0
    4.3220    0.8896   -0.6162 C   0  0  0  0  0  0  0  0  0  0  0  0
    2.9279    0.9521   -0.7225 C   0  0  0  0  0  0  0  0  0  0  0  0
    2.0909    0.1156    0.0389 C   0  0  0  0  0  0  0  0  0  0  0  0
    0.6213    0.1948   -0.0933 C   0  0  0  0  0  0  0  0  0  0  0  0
   -0.2259   -0.8840    0.1356 C   0  0  0  0  0  0  0  0  0  0  0  0
   -1.5693   -0.6423   -0.0324 C   0  0  0  0  0  0  0  0  0  0  0  0
   -2.0463    0.5989   -0.4110 C   0  0  0  0  0  0  0  0  0  0  0  0
   -1.2343    1.6304   -0.6363 N   0  0  0  0  0  0  0  0  0  0  0  0
    0.1189    1.4137   -0.4725 N   0  0  0  0  0  0  0  0  0  0  0  0
   -3.4808    0.5821   -0.5191 C   0  0  0  0  0  0  0  0  0  0  0  0
   -4.3900    1.5661   -0.8608 C   0  0  0  0  0  0  0  0  0  0  0  0
   -5.7499    1.2287   -0.8754 C   0  0  0  0  0  0  0  0  0  0  0  0
   -6.1823   -0.0739   -0.5520 C   0  0  0  0  0  0  0  0  0  0  0  0
   -5.2645   -1.0675   -0.2071 C   0  0  0  0  0  0  0  0  0  0  0  0
   -3.9316   -0.7097   -0.2002 C   0  0  0  0  0  0  0  0  0  0  0  0
   -2.7371   -1.5272    0.1182 C   0  0  0  0  0  0  0  0  0  0  0  0
   -2.7135   -2.6948    0.4419 O   0  0  0  0  0  0  0  0  0  0  0  0
    2.7174   -0.7843    0.9202 C   0  0  0  0  0  0  0  0  0  0  0  0
    4.1122   -0.8495    1.0298 C   0  0  0  0  0  0  0  0  0  0  0  0
    6.7945   -0.8269   -0.3604 H   0  0  0  0  0  0  0  0  0  0  0  0
    6.7299   -0.4008    1.3676 H   0  0  0  0  0  0  0  0  0  0  0  0
    6.8830    0.8742    0.1595 H   0  0  0  0  0  0  0  0  0  0  0  0
    4.9297    1.5498   -1.2313 H   0  0  0  0  0  0  0  0  0  0  0  0
    2.4950    1.6675   -1.4213 H   0  0  0  0  0  0  0  0  0  0  0  0
    0.1268   -1.8683    0.4136 H   0  0  0  0  0  0  0  0  0  0  0  0
   -4.0633    2.5714   -1.1109 H   0  0  0  0  0  0  0  0  0  0  0  0
   -6.4869    1.9850   -1.1409 H   0  0  0  0  0  0  0  0  0  0  0  0
   -7.2457   -0.3054   -0.5723 H   0  0  0  0  0  0  0  0  0  0  0  0
   -5.5789   -2.0747    0.0445 H   0  0  0  0  0  0  0  0  0  0  0  0
    2.1299   -1.4457    1.5532 H   0  0  0  0  0  0  0  0  0  0  0  0
    4.5573   -1.5630    1.7203 H   0  0  0  0  0  0  0  0  0  0  0  0
  1  2  1  0
  2  3  2  0
  3  4  1  0
  4  5  2  0
  5  6  1  0
  6  7  2  0
  7  8  1  0
  8  9  2  0
  9 10  1  0
 10 11  2  0
  9 12  1  0
 12 13  2  0
 13 14  1  0
 14 15  2  0
 15 16  1  0
 16 17  2  0
 17 18  1  0
 18 19  2  0
  5 20  1  0
 20 21  2  0
 21  2  1  0
 11  6  1  0
 17 12  1  0
 18  8  1  0
  1 22  1  0
  1 23  1  0
  1 24  1  0
  3 25  1  0
  4 26  1  0
  7 27  1  0
 13 28  1  0
 14 29  1  0
 15 30  1  0
 16 31  1  0
 20 32  1  0
 21 33  1  0
M  END
$$$$
