
     RDKit          3D

 75 78  0  0  0  0  0  0  0  0999 V2000
   -2.7641    2.0765    1.6647 C   0  0  0  0  0  0  0  0  0  0  0  0
   -2.7519    2.1032    0.1350 C   0  0  2  0  0  0  0  0  0  0  0  0
   -4.1919    1.9377   -0.4249 C   0  0  0  0  0  0  0  0  0  0  0  0
   -5.1019    0.8495    0.1682 C   0  0  0  0  0  0  0  0  0  0  0  0
   -4.6263   -0.5876   -0.0627 C   0  0  0  0  0  0  0  0  0  0  0  0
   -5.6780   -1.6788    0.2372 C   0  0  0  0  0  0  0  0  0  0  0  0
   -6.2198   -1.6026    1.6666 C   0  0  0  0  0  0  0  0  0  0  0  0
   -5.0598   -3.0595   -0.0062 C   0  0  0  0  0  0  0  0  0  0  0  0
   -6.7687   -1.5549   -0.6778 O   0  0  0  0  0  0  0  0  0  0  0  0
   -1.7152    1.1308   -0.4939 C   0  0  1  0  0  0  0  0  0  0  0  0
   -1.6910    1.2187   -2.0486 C   0  0  0  0  0  0  0  0  0  0  0  0
   -0.2642    0.8804   -2.5009 C   0  0  0  0  0  0  0  0  0  0  0  0
    0.4162    0.3968   -1.2295 C   0  0  1  0  0  0  0  0  0  0  0  0
    1.9493    0.3481   -1.2031 C   0  0  2  0  0  0  0  0  0  0  0  0
    2.4835   -0.5246   -2.3475 C   0  0  0  0  0  0  0  0  0  0  0  0
    3.9136   -0.9245   -2.1771 C   0  0  0  0  0  0  0  0  0  0  0  0
    4.6138   -0.8060   -1.0344 C   0  0  0  0  0  0  0  0  0  0  0  0
    6.0607   -1.2579   -0.9856 C   0  0  0  0  0  0  0  0  0  0  0  0
    6.3810   -2.1529    0.2206 C   0  0  1  0  0  0  0  0  0  0  0  0
    7.3893   -1.5397    1.0297 O   0  0  0  0  0  0  0  0  0  0  0  0
    5.1586   -2.4550    1.0833 C   0  0  0  0  0  0  0  0  0  0  0  0
    4.4037   -1.1803    1.4736 C   0  0  0  0  0  0  0  0  0  0  0  0
    4.0037   -0.2662    0.2673 C   0  0  1  0  0  0  0  0  0  0  0  0
    4.5982    1.1448    0.5001 C   0  0  0  0  0  0  0  0  0  0  0  0
    2.4256   -0.2071    0.1691 C   0  0  1  0  0  0  0  0  0  0  0  0
    1.7447    0.5330    1.3519 C   0  0  0  0  0  0  0  0  0  0  0  0
    0.2147    0.6370    1.2212 C   0  0  0  0  0  0  0  0  0  0  0  0
   -0.2058    1.2740   -0.1158 C   0  0  2  0  0  0  0  0  0  0  0  0
    0.2430    2.7543   -0.1705 C   0  0  0  0  0  0  0  0  0  0  0  0
   -2.8421    1.0556    2.0508 H   0  0  0  0  0  0  0  0  0  0  0  0
   -1.8608    2.5323    2.0763 H   0  0  0  0  0  0  0  0  0  0  0  0
   -3.6047    2.6576    2.0597 H   0  0  0  0  0  0  0  0  0  0  0  0
   -2.4526    3.1193   -0.1570 H   0  0  0  0  0  0  0  0  0  0  0  0
   -4.7080    2.8929   -0.2502 H   0  0  0  0  0  0  0  0  0  0  0  0
   -4.1713    1.8277   -1.5146 H   0  0  0  0  0  0  0  0  0  0  0  0
   -5.2403    1.0277    1.2401 H   0  0  0  0  0  0  0  0  0  0  0  0
   -6.0893    0.9826   -0.2894 H   0  0  0  0  0  0  0  0  0  0  0  0
   -3.7500   -0.7763    0.5660 H   0  0  0  0  0  0  0  0  0  0  0  0
   -4.3148   -0.6813   -1.1107 H   0  0  0  0  0  0  0  0  0  0  0  0
   -6.9301   -2.4160    1.8551 H   0  0  0  0  0  0  0  0  0  0  0  0
   -5.4146   -1.6691    2.4055 H   0  0  0  0  0  0  0  0  0  0  0  0
   -6.7753   -0.6744    1.8370 H   0  0  0  0  0  0  0  0  0  0  0  0
   -4.2154   -3.2487    0.6648 H   0  0  0  0  0  0  0  0  0  0  0  0
   -5.8030   -3.8519    0.1397 H   0  0  0  0  0  0  0  0  0  0  0  0
   -4.7092   -3.1534   -1.0405 H   0  0  0  0  0  0  0  0  0  0  0  0
   -7.2984   -0.7813   -0.4223 H   0  0  0  0  0  0  0  0  0  0  0  0
   -2.0086    0.1074   -0.2362 H   0  0  0  0  0  0  0  0  0  0  0  0
   -2.4081    0.5115   -2.4801 H   0  0  0  0  0  0  0  0  0  0  0  0
   -1.9583    2.2193   -2.4074 H   0  0  0  0  0  0  0  0  0  0  0  0
    0.2299    1.7692   -2.9091 H   0  0  0  0  0  0  0  0  0  0  0  0
   -0.2669    0.1153   -3.2839 H   0  0  0  0  0  0  0  0  0  0  0  0
    0.0707   -0.6402   -1.0772 H   0  0  0  0  0  0  0  0  0  0  0  0
    2.3469    1.3596   -1.3451 H   0  0  0  0  0  0  0  0  0  0  0  0
    1.8880   -1.4407   -2.4463 H   0  0  0  0  0  0  0  0  0  0  0  0
    2.3826    0.0225   -3.2926 H   0  0  0  0  0  0  0  0  0  0  0  0
    4.3883   -1.3416   -3.0635 H   0  0  0  0  0  0  0  0  0  0  0  0
    6.3059   -1.8202   -1.8963 H   0  0  0  0  0  0  0  0  0  0  0  0
    6.7122   -0.3757   -0.9986 H   0  0  0  0  0  0  0  0  0  0  0  0
    6.8111   -3.0973   -0.1310 H   0  0  0  0  0  0  0  0  0  0  0  0
    7.0757   -0.6563    1.2856 H   0  0  0  0  0  0  0  0  0  0  0  0
    5.4679   -2.9719    1.9997 H   0  0  0  0  0  0  0  0  0  0  0  0
    4.4803   -3.1286    0.5450 H   0  0  0  0  0  0  0  0  0  0  0  0
    3.5214   -1.4945    2.0425 H   0  0  0  0  0  0  0  0  0  0  0  0
    5.0154   -0.6170    2.1902 H   0  0  0  0  0  0  0  0  0  0  0  0
    4.2915    1.8511   -0.2783 H   0  0  0  0  0  0  0  0  0  0  0  0
    5.6940    1.1275    0.5042 H   0  0  0  0  0  0  0  0  0  0  0  0
    4.2993    1.5587    1.4685 H   0  0  0  0  0  0  0  0  0  0  0  0
    2.0672   -1.2483    0.2196 H   0  0  0  0  0  0  0  0  0  0  0  0
    2.1462    1.5453    1.4527 H   0  0  0  0  0  0  0  0  0  0  0  0
    1.9695    0.0243    2.2955 H   0  0  0  0  0  0  0  0  0  0  0  0
   -0.2169   -0.3680    1.3138 H   0  0  0  0  0  0  0  0  0  0  0  0
   -0.1604    1.2130    2.0715 H   0  0  0  0  0  0  0  0  0  0  0  0
   -0.0928    3.2587   -1.0820 H   0  0  0  0  0  0  0  0  0  0  0  0
    1.3292    2.8696   -0.1304 H   0  0  0  0  0  0  0  0  0  0  0  0
   -0.1624    3.3174    0.6765 H   0  0  0  0  0  0  0  0  0  0  0  0
  1  2  1  0
  2  3  1  0
  3  4  1  0
  4  5  1  0
  5  6  1  0
  6  7  1  0
  6  8  1  0
  6  9  1  0
  2 10  1  0
 10 11  1  0
 11 12  1  0
 12 13  1  0
 13 14  1  0
 14 15  1  0
 15 16  1  0
 16 17  2  0
 17 18  1  0
 18 19  1  0
 19 20  1  0
 19 21  1  0
 21 22  1  0
 22 23  1  0
 23 24  1  1
 23 25  1  0
 25 26  1  0
 26 27  1  0
 27 28  1  0
 28 29  1  1
 28 10  1  0
 28 13  1  0
 25 14  1  0
 23 17  1  0
  1 30  1  0
  1 31  1  0
  1 32  1  0
  2 33  1  1
  3 34  1  0
  3 35  1  0
  4 36  1  0
  4 37  1  0
  5 38  1  0
  5 39  1  0
  7 40  1  0
  7 41  1  0
  7 42  1  0
  8 43  1  0
  8 44  1  0
  8 45  1  0
  9 46  1  0
 10 47  1  6
 11 48  1  0
 11 49  1  0
 12 50  1  0
 12 51  1  0
 13 52  1  1
 14 53  1  6
 15 54  1  0
 15 55  1  0
 16 56  1  0
 18 57  1  0
 18 58  1  0
 19 59  1  6
 20 60  1  0
 21 61  1  0
 21 62  1  0
 22 63  1  0
 22 64  1  0
 24 65  1  0
 24 66  1  0
 24 67  1  0
 25 68  1  6
 26 69  1  0
 26 70  1  0
 27 71  1  0
 27 72  1  0
 29 73  1  0
 29 74  1  0
 29 75  1  0
M  END
$$$$
