
     RDKit          3D

 54 53  0  0  0  0  0  0  0  0999 V2000
   -7.3344    2.4709   -0.2690 C   0  0  0  0  0  0  0  0  0  0  0  0
   -7.0399    1.5214   -1.4191 C   0  0  0  0  0  0  0  0  0  0  0  0
   -7.3376    0.0567   -1.0941 C   0  0  0  0  0  0  0  0  0  0  0  0
   -6.5550   -0.5360    0.0815 C   0  0  0  0  0  0  0  0  0  0  0  0
   -5.0379   -0.5144   -0.1240 C   0  0  0  0  0  0  0  0  0  0  0  0
   -4.3165   -1.2289    1.0218 C   0  0  0  0  0  0  0  0  0  0  0  0
   -2.7890   -1.1313    0.9367 C   0  0  0  0  0  0  0  0  0  0  0  0
   -2.1989   -1.8813   -0.2637 C   0  0  0  0  0  0  0  0  0  0  0  0
   -0.6950   -1.9138   -0.3663 C   0  0  0  0  0  0  0  0  0  0  0  0
    0.1925   -1.3223    0.4498 C   0  0  0  0  0  0  0  0  0  0  0  0
    1.6833   -1.4121    0.2684 C   0  0  0  0  0  0  0  0  0  0  0  0
    2.2880   -0.0309    0.0038 C   0  0  0  0  0  0  0  0  0  0  0  0
    3.7925   -0.0686   -0.2862 C   0  0  0  0  0  0  0  0  0  0  0  0
    4.6329   -0.4817    0.9247 C   0  0  0  0  0  0  0  0  0  0  0  0
    6.1377   -0.5137    0.6379 C   0  0  0  0  0  0  0  0  0  0  0  0
    6.7355    0.8660    0.3592 C   0  0  0  0  0  0  0  0  0  0  0  0
    8.2512    0.7908    0.2086 C   0  0  0  0  0  0  0  0  0  0  0  0
    8.8234    2.1337   -0.1392 C   0  0  0  0  0  0  0  0  0  0  0  0
    9.2473    2.4762   -1.2302 O   0  0  0  0  0  0  0  0  0  0  0  0
    8.8297    2.9861    0.9018 O   0  0  0  0  0  0  0  0  0  0  0  0
   -6.6605    2.2991    0.5755 H   0  0  0  0  0  0  0  0  0  0  0  0
   -8.3652    2.3570    0.0803 H   0  0  0  0  0  0  0  0  0  0  0  0
   -7.2003    3.5069   -0.5943 H   0  0  0  0  0  0  0  0  0  0  0  0
   -7.6553    1.8148   -2.2784 H   0  0  0  0  0  0  0  0  0  0  0  0
   -5.9974    1.6385   -1.7333 H   0  0  0  0  0  0  0  0  0  0  0  0
   -8.4089   -0.0485   -0.8836 H   0  0  0  0  0  0  0  0  0  0  0  0
   -7.1410   -0.5440   -1.9902 H   0  0  0  0  0  0  0  0  0  0  0  0
   -6.8126   -0.0106    1.0080 H   0  0  0  0  0  0  0  0  0  0  0  0
   -6.8824   -1.5744    0.2158 H   0  0  0  0  0  0  0  0  0  0  0  0
   -4.6822    0.5200   -0.1808 H   0  0  0  0  0  0  0  0  0  0  0  0
   -4.7997   -0.9972   -1.0779 H   0  0  0  0  0  0  0  0  0  0  0  0
   -4.6332   -0.7855    1.9741 H   0  0  0  0  0  0  0  0  0  0  0  0
   -4.6170   -2.2831    1.0497 H   0  0  0  0  0  0  0  0  0  0  0  0
   -2.3755   -1.5492    1.8637 H   0  0  0  0  0  0  0  0  0  0  0  0
   -2.4950   -0.0747    0.9020 H   0  0  0  0  0  0  0  0  0  0  0  0
   -2.5753   -1.4392   -1.1934 H   0  0  0  0  0  0  0  0  0  0  0  0
   -2.5520   -2.9200   -0.2412 H   0  0  0  0  0  0  0  0  0  0  0  0
   -0.3184   -2.4878   -1.2131 H   0  0  0  0  0  0  0  0  0  0  0  0
   -0.1452   -0.7411    1.3049 H   0  0  0  0  0  0  0  0  0  0  0  0
    2.1072   -1.8480    1.1801 H   0  0  0  0  0  0  0  0  0  0  0  0
    1.9347   -2.0895   -0.5572 H   0  0  0  0  0  0  0  0  0  0  0  0
    1.7868    0.4203   -0.8627 H   0  0  0  0  0  0  0  0  0  0  0  0
    2.0962    0.6331    0.8565 H   0  0  0  0  0  0  0  0  0  0  0  0
    3.9894   -0.7472   -1.1243 H   0  0  0  0  0  0  0  0  0  0  0  0
    4.0898    0.9338   -0.6131 H   0  0  0  0  0  0  0  0  0  0  0  0
    4.3368   -1.4847    1.2501 H   0  0  0  0  0  0  0  0  0  0  0  0
    4.4340    0.1953    1.7635 H   0  0  0  0  0  0  0  0  0  0  0  0
    6.3364   -1.1821   -0.2083 H   0  0  0  0  0  0  0  0  0  0  0  0
    6.6408   -0.9500    1.5098 H   0  0  0  0  0  0  0  0  0  0  0  0
    6.4780    1.5522    1.1751 H   0  0  0  0  0  0  0  0  0  0  0  0
    6.3058    1.2897   -0.5559 H   0  0  0  0  0  0  0  0  0  0  0  0
    8.7304    0.4305    1.1258 H   0  0  0  0  0  0  0  0  0  0  0  0
    8.5252    0.0912   -0.5890 H   0  0  0  0  0  0  0  0  0  0  0  0
    9.2158    3.8073    0.5328 H   0  0  0  0  0  0  0  0  0  0  0  0
  1  2  1  0
  2  3  1  0
  3  4  1  0
  4  5  1  0
  5  6  1  0
  6  7  1  0
  7  8  1  0
  8  9  1  0
  9 10  2  0
 10 11  1  0
 11 12  1  0
 12 13  1  0
 13 14  1  0
 14 15  1  0
 15 16  1  0
 16 17  1  0
 17 18  1  0
 18 19  2  0
 18 20  1  0
  1 21  1  0
  1 22  1  0
  1 23  1  0
  2 24  1  0
  2 25  1  0
  3 26  1  0
  3 27  1  0
  4 28  1  0
  4 29  1  0
  5 30  1  0
  5 31  1  0
  6 32  1  0
  6 33  1  0
  7 34  1  0
  7 35  1  0
  8 36  1  0
  8 37  1  0
  9 38  1  0
 10 39  1  0
 11 40  1  0
 11 41  1  0
 12 42  1  0
 12 43  1  0
 13 44  1  0
 13 45  1  0
 14 46  1  0
 14 47  1  0
 15 48  1  0
 15 49  1  0
 16 50  1  0
 16 51  1  0
 17 52  1  0
 17 53  1  0
 20 54  1  0
M  END
$$$$
