
     RDKit          3D

 54 57  0  0  0  0  0  0  0  0999 V2000
   -6.5482   -2.1598    1.1302 C   0  0  0  0  0  0  0  0  0  0  0  0
   -7.2869   -0.8245    1.0959 C   0  0  0  0  0  0  0  0  0  0  0  0
   -6.5471    0.3063    0.5352 N   0  0  0  0  0  0  0  0  0  0  0  0
   -5.3209    0.6649    1.2618 C   0  0  0  0  0  0  0  0  0  0  0  0
   -4.0041    0.3871    0.5082 C   0  0  0  0  0  0  0  0  0  0  0  0
   -3.9933    0.9539   -0.8474 N   0  0  0  0  0  0  0  0  0  0  0  0
   -2.8514    1.4192   -1.5186 C   0  0  0  0  0  0  0  0  0  0  0  0
   -2.9835    2.1173   -2.5276 O   0  0  0  0  0  0  0  0  0  0  0  0
   -1.5352    1.0518   -1.0134 C   0  0  0  0  0  0  0  0  0  0  0  0
   -0.4089    1.7117   -1.1925 N   0  0  0  0  0  0  0  0  0  0  0  0
    0.5238    0.9146   -0.5640 C   0  0  0  0  0  0  0  0  0  0  0  0
    1.9450    1.2262   -0.5046 C   0  0  0  0  0  0  0  0  0  0  0  0
    2.7802    0.2571   -0.2874 N   0  0  0  0  0  0  0  0  0  0  0  0
    4.1401    0.5102   -0.3029 N   0  0  0  0  0  0  0  0  0  0  0  0
    4.9280   -0.6326    0.1072 C   0  0  0  0  0  0  0  0  0  0  0  0
    4.2874   -1.8292    0.4889 C   0  0  0  0  0  0  0  0  0  0  0  0
    5.0067   -2.9604    0.8973 C   0  0  0  0  0  0  0  0  0  0  0  0
    6.3987   -2.9306    0.9499 C   0  0  0  0  0  0  0  0  0  0  0  0
    7.1761   -4.1472    1.3524 C   0  0  0  0  0  0  0  0  0  0  0  0
    7.0537   -1.7607    0.5648 C   0  0  0  0  0  0  0  0  0  0  0  0
    6.3287   -0.6298    0.1566 C   0  0  0  0  0  0  0  0  0  0  0  0
    4.6845    1.7374   -0.7493 C   0  0  0  0  0  0  0  0  0  0  0  0
    5.8866    2.0008   -0.8166 O   0  0  0  0  0  0  0  0  0  0  0  0
    3.7532    2.7163   -1.0981 N   0  0  0  0  0  0  0  0  0  0  0  0
    4.2587    4.0268   -1.4554 C   0  0  0  0  0  0  0  0  0  0  0  0
    2.4376    2.6294   -0.7038 C   0  0  0  0  0  0  0  0  0  0  0  0
    1.7091    3.5804   -0.4561 O   0  0  0  0  0  0  0  0  0  0  0  0
    0.0035   -0.2138   -0.0461 N   0  0  0  0  0  0  0  0  0  0  0  0
   -1.3526   -0.1248   -0.3466 O   0  0  0  0  0  0  0  0  0  0  0  0
   -5.3060    1.2155   -1.4439 C   0  0  0  0  0  0  0  0  0  0  0  0
   -6.3731    0.2372   -0.9236 C   0  0  0  0  0  0  0  0  0  0  0  0
   -7.1913   -2.9252    1.5773 H   0  0  0  0  0  0  0  0  0  0  0  0
   -6.2770   -2.5048    0.1287 H   0  0  0  0  0  0  0  0  0  0  0  0
   -5.6375   -2.1036    1.7341 H   0  0  0  0  0  0  0  0  0  0  0  0
   -7.5888   -0.5691    2.1197 H   0  0  0  0  0  0  0  0  0  0  0  0
   -8.2254   -0.9508    0.5416 H   0  0  0  0  0  0  0  0  0  0  0  0
   -5.3737    1.7460    1.4466 H   0  0  0  0  0  0  0  0  0  0  0  0
   -5.2826    0.2026    2.2553 H   0  0  0  0  0  0  0  0  0  0  0  0
   -3.1723    0.8003    1.0874 H   0  0  0  0  0  0  0  0  0  0  0  0
   -3.8524   -0.6934    0.4059 H   0  0  0  0  0  0  0  0  0  0  0  0
    3.2025   -1.9110    0.4736 H   0  0  0  0  0  0  0  0  0  0  0  0
    4.4631   -3.8612    1.1734 H   0  0  0  0  0  0  0  0  0  0  0  0
    6.6238   -4.7355    2.0927 H   0  0  0  0  0  0  0  0  0  0  0  0
    7.3715   -4.7735    0.4766 H   0  0  0  0  0  0  0  0  0  0  0  0
    8.1321   -3.8681    1.8076 H   0  0  0  0  0  0  0  0  0  0  0  0
    8.1408   -1.7104    0.5784 H   0  0  0  0  0  0  0  0  0  0  0  0
    6.9186    0.2377   -0.1159 H   0  0  0  0  0  0  0  0  0  0  0  0
    3.4740    4.6317   -1.9198 H   0  0  0  0  0  0  0  0  0  0  0  0
    5.0952    3.9324   -2.1545 H   0  0  0  0  0  0  0  0  0  0  0  0
    4.6080    4.5294   -0.5477 H   0  0  0  0  0  0  0  0  0  0  0  0
   -5.2341    1.1377   -2.5345 H   0  0  0  0  0  0  0  0  0  0  0  0
   -5.5788    2.2504   -1.2031 H   0  0  0  0  0  0  0  0  0  0  0  0
   -7.3303    0.4589   -1.4090 H   0  0  0  0  0  0  0  0  0  0  0  0
   -6.0758   -0.7712   -1.2346 H   0  0  0  0  0  0  0  0  0  0  0  0
  1  2  1  0
  2  3  1  0
  3  4  1  0
  4  5  1  0
  5  6  1  0
  6  7  1  0
  7  8  2  0
  7  9  1  0
  9 10  2  0
 10 11  1  0
 11 12  1  0
 12 13  2  0
 13 14  1  0
 14 15  1  0
 15 16  2  0
 16 17  1  0
 17 18  2  0
 18 19  1  0
 18 20  1  0
 20 21  2  0
 14 22  1  0
 22 23  2  0
 22 24  1  0
 24 25  1  0
 24 26  1  0
 26 27  2  0
 11 28  2  0
 28 29  1  0
  6 30  1  0
 30 31  1  0
 31  3  1  0
 29  9  1  0
 26 12  1  0
 21 15  1  0
  1 32  1  0
  1 33  1  0
  1 34  1  0
  2 35  1  0
  2 36  1  0
  4 37  1  0
  4 38  1  0
  5 39  1  0
  5 40  1  0
 16 41  1  0
 17 42  1  0
 19 43  1  0
 19 44  1  0
 19 45  1  0
 20 46  1  0
 21 47  1  0
 25 48  1  0
 25 49  1  0
 25 50  1  0
 30 51  1  0
 30 52  1  0
 31 53  1  0
 31 54  1  0
M  END
$$$$
