
     RDKit          3D

 53 55  0  0  0  0  0  0  0  0999 V2000
   -1.1489    3.5705    0.9269 C   0  0  0  0  0  0  0  0  0  0  0  0
   -1.3552    2.1966    1.2584 O   0  0  0  0  0  0  0  0  0  0  0  0
   -0.5870    1.3633    0.4878 C   0  0  0  0  0  0  0  0  0  0  0  0
    0.8086    1.4392    0.5069 C   0  0  0  0  0  0  0  0  0  0  0  0
    1.5743    0.5784   -0.2924 C   0  0  0  0  0  0  0  0  0  0  0  0
    3.0393    0.6785   -0.2344 C   0  0  0  0  0  0  0  0  0  0  0  0
    3.8563    0.9091   -1.2811 C   0  0  0  0  0  0  0  0  0  0  0  0
    3.4133    1.1304   -2.6148 C   0  0  0  0  0  0  0  0  0  0  0  0
    3.0298    1.2536   -3.7035 N   0  0  0  0  0  0  0  0  0  0  0  0
    5.3154    1.0488   -1.0114 C   0  0  0  0  0  0  0  0  0  0  0  0
    5.9031    2.0592   -1.3747 O   0  0  0  0  0  0  0  0  0  0  0  0
    5.8598   -0.0441   -0.3734 N   0  0  0  0  0  0  0  0  0  0  0  0
    7.1769   -0.0700   -0.0012 C   0  0  0  0  0  0  0  0  0  0  0  0
    8.1011    0.8508   -0.0934 N   0  0  0  0  0  0  0  0  0  0  0  0
    9.3107    0.4223    0.4204 N   0  0  0  0  0  0  0  0  0  0  0  0
    9.2490   -0.8118    0.8876 C   0  0  0  0  0  0  0  0  0  0  0  0
   10.3648   -1.5738    1.5178 C   0  0  0  0  0  0  0  0  0  0  0  0
   10.5903   -2.7627    0.8932 F   0  0  0  0  0  0  0  0  0  0  0  0
   11.5451   -0.9014    1.5039 F   0  0  0  0  0  0  0  0  0  0  0  0
   10.1027   -1.8696    2.8217 F   0  0  0  0  0  0  0  0  0  0  0  0
    7.6849   -1.5291    0.7246 S   0  0  0  0  0  0  0  0  0  0  0  0
    0.9287   -0.3755   -1.0906 C   0  0  0  0  0  0  0  0  0  0  0  0
   -0.4659   -0.4655   -1.0923 C   0  0  0  0  0  0  0  0  0  0  0  0
   -1.2186    0.3836   -0.2831 C   0  0  0  0  0  0  0  0  0  0  0  0
   -2.5827    0.2741   -0.3446 O   0  0  0  0  0  0  0  0  0  0  0  0
   -3.0926   -0.3482    0.8363 C   0  0  0  0  0  0  0  0  0  0  0  0
   -4.5926   -0.4836    0.6660 C   0  0  0  0  0  0  0  0  0  0  0  0
   -5.4138    0.5591    1.1335 C   0  0  0  0  0  0  0  0  0  0  0  0
   -6.8015    0.5016    0.9920 C   0  0  0  0  0  0  0  0  0  0  0  0
   -7.4058   -0.6000    0.3754 C   0  0  0  0  0  0  0  0  0  0  0  0
   -8.9065   -0.6601    0.2045 C   0  0  0  0  0  0  0  0  0  0  0  0
   -9.3112   -0.1616   -0.9958 F   0  0  0  0  0  0  0  0  0  0  0  0
   -9.5847    0.0457    1.1541 F   0  0  0  0  0  0  0  0  0  0  0  0
   -9.3955   -1.9315    0.2669 F   0  0  0  0  0  0  0  0  0  0  0  0
   -6.5876   -1.6310   -0.1196 C   0  0  0  0  0  0  0  0  0  0  0  0
   -5.1831   -1.5888    0.0115 C   0  0  0  0  0  0  0  0  0  0  0  0
   -4.3482   -2.7286   -0.5406 C   0  0  0  0  0  0  0  0  0  0  0  0
   -5.0864   -3.6789   -1.1835 F   0  0  0  0  0  0  0  0  0  0  0  0
   -3.4089   -2.3263   -1.4397 F   0  0  0  0  0  0  0  0  0  0  0  0
   -3.6700   -3.3947    0.4381 F   0  0  0  0  0  0  0  0  0  0  0  0
   -2.0018    4.1382    1.3114 H   0  0  0  0  0  0  0  0  0  0  0  0
   -0.2454    3.9518    1.4135 H   0  0  0  0  0  0  0  0  0  0  0  0
   -1.0985    3.7287   -0.1574 H   0  0  0  0  0  0  0  0  0  0  0  0
    1.2967    2.1710    1.1452 H   0  0  0  0  0  0  0  0  0  0  0  0
    3.4451    0.6133    0.7753 H   0  0  0  0  0  0  0  0  0  0  0  0
    5.3163   -0.8736   -0.1852 H   0  0  0  0  0  0  0  0  0  0  0  0
    1.4927   -1.0602   -1.7200 H   0  0  0  0  0  0  0  0  0  0  0  0
   -0.9651   -1.1978   -1.7229 H   0  0  0  0  0  0  0  0  0  0  0  0
   -2.8859    0.2524    1.7312 H   0  0  0  0  0  0  0  0  0  0  0  0
   -2.6295   -1.3299    0.9932 H   0  0  0  0  0  0  0  0  0  0  0  0
   -4.9669    1.4340    1.6082 H   0  0  0  0  0  0  0  0  0  0  0  0
   -7.4095    1.3266    1.3662 H   0  0  0  0  0  0  0  0  0  0  0  0
   -7.0555   -2.4826   -0.6181 H   0  0  0  0  0  0  0  0  0  0  0  0
  1  2  1  0
  2  3  1  0
  3  4  2  0
  4  5  1  0
  5  6  1  0
  6  7  2  0
  7  8  1  0
  8  9  3  0
  7 10  1  0
 10 11  2  0
 10 12  1  0
 12 13  1  0
 13 14  2  0
 14 15  1  0
 15 16  2  0
 16 17  1  0
 17 18  1  0
 17 19  1  0
 17 20  1  0
 16 21  1  0
  5 22  2  0
 22 23  1  0
 23 24  2  0
 24 25  1  0
 25 26  1  0
 26 27  1  0
 27 28  2  0
 28 29  1  0
 29 30  2  0
 30 31  1  0
 31 32  1  0
 31 33  1  0
 31 34  1  0
 30 35  1  0
 35 36  2  0
 36 37  1  0
 37 38  1  0
 37 39  1  0
 37 40  1  0
 24  3  1  0
 36 27  1  0
 21 13  1  0
  1 41  1  0
  1 42  1  0
  1 43  1  0
  4 44  1  0
  6 45  1  0
 12 46  1  0
 22 47  1  0
 23 48  1  0
 26 49  1  0
 26 50  1  0
 28 51  1  0
 29 52  1  0
 35 53  1  0
M  END
$$$$
