
     RDKit          3D

 51 53  0  0  0  0  0  0  0  0999 V2000
   -4.2346   -2.6215    0.1635 C   0  0  0  0  0  0  0  0  0  0  0  0
   -4.1470   -1.4665    1.1427 C   0  0  0  0  0  0  0  0  0  0  0  0
   -4.9131   -0.2567    0.7473 N   0  0  0  0  0  0  0  0  0  0  0  0
   -6.3772   -0.3534    0.9862 C   0  0  0  0  0  0  0  0  0  0  0  0
   -6.6896    0.1660    2.3838 C   0  0  0  0  0  0  0  0  0  0  0  0
   -4.4725    0.6065   -0.6521 S   0  0  0  0  0  6  0  0  0  0  0  0
   -5.1539    1.8851   -0.6169 O   0  0  0  0  0  0  0  0  0  0  0  0
   -4.6080   -0.2741   -1.7970 O   0  0  0  0  0  0  0  0  0  0  0  0
   -2.7461    0.9402   -0.3904 C   0  0  0  0  0  0  0  0  0  0  0  0
   -2.3833    1.9300    0.5388 C   0  0  0  0  0  0  0  0  0  0  0  0
   -1.0368    2.2287    0.7765 C   0  0  0  0  0  0  0  0  0  0  0  0
   -0.0903    1.4866    0.0494 C   0  0  0  0  0  0  0  0  0  0  0  0
   -0.4387    0.5005   -0.8745 C   0  0  0  0  0  0  0  0  0  0  0  0
   -1.7878    0.2228   -1.1248 C   0  0  0  0  0  0  0  0  0  0  0  0
    0.6939   -0.0673   -1.3971 N   0  0  0  0  0  0  0  0  0  0  0  0
    1.7408    0.5312   -0.8460 N   0  0  0  0  0  0  0  0  0  0  0  0
    1.2807    1.4864   -0.0159 N   0  0  0  0  0  0  0  0  0  0  0  0
    2.2158    2.3663    0.6645 C   0  0  0  0  0  0  0  0  0  0  0  0
    3.1736    1.6189    1.5866 C   0  0  0  0  0  0  0  0  0  0  0  0
    4.4547    1.2676    0.8531 C   0  0  0  0  0  0  0  0  0  0  0  0
    5.3767    2.0816    0.8163 O   0  0  0  0  0  0  0  0  0  0  0  0
    4.4246    0.0067    0.2764 N   0  0  0  0  0  0  0  0  0  0  0  0
    5.4360   -0.6179   -0.4836 C   0  0  0  0  0  0  0  0  0  0  0  0
    6.6934   -0.0705   -0.7254 C   0  0  0  0  0  0  0  0  0  0  0  0
    7.6238   -0.7481   -1.5236 C   0  0  0  0  0  0  0  0  0  0  0  0
    7.2927   -1.9780   -2.0678 C   0  0  0  0  0  0  0  0  0  0  0  0
    8.1823   -2.6202   -2.8314 F   0  0  0  0  0  0  0  0  0  0  0  0
    6.0525   -2.5528   -1.8222 C   0  0  0  0  0  0  0  0  0  0  0  0
    5.1256   -1.8704   -1.0319 C   0  0  0  0  0  0  0  0  0  0  0  0
   -5.2689   -2.8631   -0.0841 H   0  0  0  0  0  0  0  0  0  0  0  0
   -3.7703   -3.5159    0.6035 H   0  0  0  0  0  0  0  0  0  0  0  0
   -3.7010   -2.4046   -0.7665 H   0  0  0  0  0  0  0  0  0  0  0  0
   -3.0988   -1.2020    1.3089 H   0  0  0  0  0  0  0  0  0  0  0  0
   -4.5106   -1.8012    2.1163 H   0  0  0  0  0  0  0  0  0  0  0  0
   -6.9440    0.2361    0.2548 H   0  0  0  0  0  0  0  0  0  0  0  0
   -6.7202   -1.3906    0.8890 H   0  0  0  0  0  0  0  0  0  0  0  0
   -6.3944    1.2159    2.4865 H   0  0  0  0  0  0  0  0  0  0  0  0
   -6.1533   -0.4143    3.1399 H   0  0  0  0  0  0  0  0  0  0  0  0
   -7.7618    0.0898    2.5936 H   0  0  0  0  0  0  0  0  0  0  0  0
   -3.1587    2.4830    1.0837 H   0  0  0  0  0  0  0  0  0  0  0  0
   -0.7543    2.9948    1.4983 H   0  0  0  0  0  0  0  0  0  0  0  0
   -2.0635   -0.5282   -1.8575 H   0  0  0  0  0  0  0  0  0  0  0  0
    1.6267    3.0781    1.2532 H   0  0  0  0  0  0  0  0  0  0  0  0
    2.7435    2.9360   -0.1149 H   0  0  0  0  0  0  0  0  0  0  0  0
    2.7151    0.7214    2.0248 H   0  0  0  0  0  0  0  0  0  0  0  0
    3.4626    2.2673    2.4246 H   0  0  0  0  0  0  0  0  0  0  0  0
    3.5137   -0.4509    0.2186 H   0  0  0  0  0  0  0  0  0  0  0  0
    6.9861    0.8909   -0.3157 H   0  0  0  0  0  0  0  0  0  0  0  0
    8.5973   -0.3154   -1.7337 H   0  0  0  0  0  0  0  0  0  0  0  0
    5.8070   -3.5274   -2.2638 H   0  0  0  0  0  0  0  0  0  0  0  0
    4.1591   -2.3275   -0.8488 H   0  0  0  0  0  0  0  0  0  0  0  0
  1  2  1  0
  2  3  1  0
  3  4  1  0
  4  5  1  0
  3  6  1  0
  6  7  2  0
  6  8  2  0
  6  9  1  0
  9 10  2  0
 10 11  1  0
 11 12  2  0
 12 13  1  0
 13 14  2  0
 13 15  1  0
 15 16  2  0
 16 17  1  0
 17 18  1  0
 18 19  1  0
 19 20  1  0
 20 21  2  0
 20 22  1  0
 22 23  1  0
 23 24  2  0
 24 25  1  0
 25 26  2  0
 26 27  1  0
 26 28  1  0
 28 29  2  0
 14  9  1  0
 29 23  1  0
 17 12  1  0
  1 30  1  0
  1 31  1  0
  1 32  1  0
  2 33  1  0
  2 34  1  0
  4 35  1  0
  4 36  1  0
  5 37  1  0
  5 38  1  0
  5 39  1  0
 10 40  1  0
 11 41  1  0
 14 42  1  0
 18 43  1  0
 18 44  1  0
 19 45  1  0
 19 46  1  0
 22 47  1  0
 24 48  1  0
 25 49  1  0
 28 50  1  0
 29 51  1  0
M  END
$$$$
