
     RDKit          3D

 94 94  0  0  0  0  0  0  0  0999 V2000
    2.7429    2.4558   -1.5737 C   0  0  0  0  0  0  0  0  0  0  0  0
    2.8778    1.3185   -0.7897 O   0  0  0  0  0  0  0  0  0  0  0  0
    3.9538    1.4082    0.0173 C   0  0  1  0  0  0  0  0  0  0  0  0
    3.7534    1.0011    1.4274 C   0  0  0  0  0  0  0  0  0  0  0  0
    2.7587    1.6098    2.1150 C   0  0  0  0  0  0  0  0  0  0  0  0
    1.8631    2.5869    1.7225 C   0  0  0  0  0  0  0  0  0  0  0  0
    1.4291    3.8670    1.6520 C   0  0  0  0  0  0  0  0  0  0  0  0
    2.2374    5.0261    2.3197 C   0  0  0  0  0  0  0  0  0  0  0  0
    0.2960    4.4724    0.9236 C   0  0  0  0  0  0  0  0  0  0  0  0
    0.0273    5.7313    1.3287 O   0  0  0  0  0  0  0  0  0  0  0  0
   -0.6278    4.1328   -0.1051 N   0  0  0  0  0  0  0  0  0  0  0  0
   -1.4750    2.9962   -0.3975 C   0  0  0  0  0  0  0  0  0  0  0  0
   -2.7681    3.4315   -0.5652 C   0  0  0  0  0  0  0  0  0  0  0  0
   -3.9064    2.5990   -0.7745 C   0  0  0  0  0  0  0  0  0  0  0  0
   -5.0767    3.0645   -0.9187 O   0  0  0  0  0  0  0  0  0  0  0  0
   -3.6517    1.1719   -0.8155 C   0  0  0  0  0  0  0  0  0  0  0  0
   -4.8150    0.3884   -1.0041 N   0  0  0  0  0  0  0  0  0  0  0  0
   -5.8059    0.3418    0.0733 C   0  0  0  0  0  0  0  0  0  0  0  0
   -6.9616   -0.5600   -0.2493 C   0  0  0  0  0  0  0  0  0  0  0  0
   -7.9620   -0.5611    0.8014 N   0  0  0  0  0  0  0  0  0  0  0  0
   -7.4932   -1.2008    1.9712 C   0  0  0  0  0  0  0  0  0  0  0  0
   -8.4124    0.7997    1.0321 C   0  0  0  0  0  0  0  0  0  0  0  0
   -2.3791    0.6545   -0.6613 C   0  0  0  0  0  0  0  0  0  0  0  0
   -2.5415   -0.8251   -0.6229 C   0  0  0  0  0  0  0  0  0  0  0  0
   -1.4651   -1.7341   -1.1082 C   0  0  1  0  0  0  0  0  0  0  0  0
   -0.7403   -1.2425   -2.3108 C   0  0  0  0  0  0  0  0  0  0  0  0
   -0.5664   -2.2377    0.0158 C   0  0  0  0  0  0  0  0  0  0  0  0
    0.5322   -3.1425   -0.4142 C   0  0  2  0  0  0  0  0  0  0  0  0
   -0.1018   -4.4441   -0.4822 O   0  0  0  0  0  0  0  0  0  0  0  0
    0.0258   -5.0407   -1.6837 C   0  0  0  0  0  0  0  0  0  0  0  0
    1.6469   -3.3194    0.5625 C   0  0  2  0  0  0  0  0  0  0  0  0
    1.0068   -3.3114    1.8470 O   0  0  0  0  0  0  0  0  0  0  0  0
    2.8140   -2.3827    0.5919 C   0  0  1  0  0  0  0  0  0  0  0  0
    3.9613   -3.1827    1.2088 C   0  0  0  0  0  0  0  0  0  0  0  0
    3.2311   -1.7754   -0.7244 C   0  0  0  0  0  0  0  0  0  0  0  0
    3.9470   -0.8168   -1.2026 C   0  0  0  0  0  0  0  0  0  0  0  0
    4.1407   -0.4792   -2.7057 C   0  0  0  0  0  0  0  0  0  0  0  0
    4.8298    0.2490   -0.5224 C   0  0  2  0  0  0  0  0  0  0  0  0
    5.6859   -0.0933    0.4696 O   0  0  0  0  0  0  0  0  0  0  0  0
    7.0427    0.1770    0.4396 C   0  0  0  0  0  0  0  0  0  0  0  0
    7.8475   -0.2179    1.5681 N   0  0  0  0  0  0  0  0  0  0  0  0
    7.5625    0.7599   -0.5598 O   0  0  0  0  0  0  0  0  0  0  0  0
   -1.2502    1.5574   -0.4553 C   0  0  0  0  0  0  0  0  0  0  0  0
   -0.0391    1.0340   -0.3407 O   0  0  0  0  0  0  0  0  0  0  0  0
    0.6835    0.0000    0.0000 Cl  0  0  0  0  0  0  0  0  0  0  0  0
    3.6141    2.6347   -2.2624 H   0  0  0  0  0  0  0  0  0  0  0  0
    2.5565    3.3601   -0.9545 H   0  0  0  0  0  0  0  0  0  0  0  0
    1.8883    2.2584   -2.2384 H   0  0  0  0  0  0  0  0  0  0  0  0
    4.5566    2.3224   -0.0751 H   0  0  0  0  0  0  0  0  0  0  0  0
    4.4069    0.2412    1.9028 H   0  0  0  0  0  0  0  0  0  0  0  0
    2.8501    1.1543    3.2023 H   0  0  0  0  0  0  0  0  0  0  0  0
    0.8586    1.8248    1.6106 H   0  0  0  0  0  0  0  0  0  0  0  0
    2.0977    4.9903    3.4195 H   0  0  0  0  0  0  0  0  0  0  0  0
    1.8565    6.0141    2.0338 H   0  0  0  0  0  0  0  0  0  0  0  0
    3.2862    5.0842    2.0012 H   0  0  0  0  0  0  0  0  0  0  0  0
   -0.7289    4.9464   -0.8428 H   0  0  0  0  0  0  0  0  0  0  0  0
   -3.0075    4.5224   -0.5631 H   0  0  0  0  0  0  0  0  0  0  0  0
   -4.9737   -0.1268   -1.8740 H   0  0  0  0  0  0  0  0  0  0  0  0
   -5.3114    0.0535    1.0232 H   0  0  0  0  0  0  0  0  0  0  0  0
   -6.2180    1.3719    0.2184 H   0  0  0  0  0  0  0  0  0  0  0  0
   -6.5323   -1.5942   -0.3042 H   0  0  0  0  0  0  0  0  0  0  0  0
   -7.3936   -0.2428   -1.2137 H   0  0  0  0  0  0  0  0  0  0  0  0
   -8.0676   -0.9076    2.8817 H   0  0  0  0  0  0  0  0  0  0  0  0
   -7.5554   -2.3080    1.8029 H   0  0  0  0  0  0  0  0  0  0  0  0
   -6.4514   -0.9441    2.1782 H   0  0  0  0  0  0  0  0  0  0  0  0
   -7.8766    1.2643    1.8750 H   0  0  0  0  0  0  0  0  0  0  0  0
   -8.2848    1.3970    0.0686 H   0  0  0  0  0  0  0  0  0  0  0  0
   -9.5039    0.7732    1.2272 H   0  0  0  0  0  0  0  0  0  0  0  0
   -2.9140   -1.1665    0.3970 H   0  0  0  0  0  0  0  0  0  0  0  0
   -3.4508   -1.1438   -1.2297 H   0  0  0  0  0  0  0  0  0  0  0  0
   -1.9373   -2.7149   -1.4531 H   0  0  0  0  0  0  0  0  0  0  0  0
   -1.0544   -0.1839   -2.5100 H   0  0  0  0  0  0  0  0  0  0  0  0
    0.3395   -1.2923   -2.3102 H   0  0  0  0  0  0  0  0  0  0  0  0
   -1.0733   -1.7884   -3.2599 H   0  0  0  0  0  0  0  0  0  0  0  0
   -1.2105   -2.8688    0.7220 H   0  0  0  0  0  0  0  0  0  0  0  0
   -0.2990   -1.3990    0.6654 H   0  0  0  0  0  0  0  0  0  0  0  0
    0.9031   -3.0182   -1.4170 H   0  0  0  0  0  0  0  0  0  0  0  0
    1.0593   -5.2410   -2.0269 H   0  0  0  0  0  0  0  0  0  0  0  0
   -0.4830   -6.0372   -1.6176 H   0  0  0  0  0  0  0  0  0  0  0  0
   -0.4599   -4.5037   -2.5286 H   0  0  0  0  0  0  0  0  0  0  0  0
    2.0292   -4.3881    0.5226 H   0  0  0  0  0  0  0  0  0  0  0  0
    1.7511   -3.3798    2.5144 H   0  0  0  0  0  0  0  0  0  0  0  0
    2.5496   -1.6112    1.3428 H   0  0  0  0  0  0  0  0  0  0  0  0
    4.2659   -2.7412    2.1582 H   0  0  0  0  0  0  0  0  0  0  0  0
    3.6921   -4.2593    1.3333 H   0  0  0  0  0  0  0  0  0  0  0  0
    4.8126   -3.1398    0.4853 H   0  0  0  0  0  0  0  0  0  0  0  0
    2.6871   -2.5952   -1.3615 H   0  0  0  0  0  0  0  0  0  0  0  0
    4.6421    0.5441   -2.7476 H   0  0  0  0  0  0  0  0  0  0  0  0
    3.3063   -0.3713   -3.3348 H   0  0  0  0  0  0  0  0  0  0  0  0
    4.9111   -1.1153   -3.1721 H   0  0  0  0  0  0  0  0  0  0  0  0
    5.4692    0.7522   -1.2819 H   0  0  0  0  0  0  0  0  0  0  0  0
    8.0099    0.4873    2.3048 H   0  0  0  0  0  0  0  0  0  0  0  0
    8.2131   -1.1821    1.5880 H   0  0  0  0  0  0  0  0  0  0  0  0
   -0.6835    0.0000    0.0000 H   0  0  0  0  0  0  0  0  0  0  0  0
  1  2  1  0
  2  3  1  0
  3  4  1  0
  4  5  2  0
  5  6  1  0
  6  7  2  0
  7  8  1  0
  7  9  1  0
  9 10  2  0
  9 11  1  0
 11 12  1  0
 12 13  2  0
 13 14  1  0
 14 15  2  0
 14 16  1  0
 16 17  1  0
 17 18  1  0
 18 19  1  0
 19 20  1  0
 20 21  1  0
 20 22  1  0
 16 23  2  0
 23 24  1  0
 24 25  1  0
 25 26  1  0
 25 27  1  0
 27 28  1  0
 28 29  1  0
 29 30  1  0
 28 31  1  0
 31 32  1  0
 31 33  1  0
 33 34  1  0
 33 35  1  0
 35 36  2  0
 36 37  1  0
 36 38  1  0
 38 39  1  0
 39 40  1  0
 40 41  1  0
 40 42  2  0
 23 43  1  0
 43 44  2  0
 38  3  1  0
 43 12  1  0
  1 46  1  0
  1 47  1  0
  1 48  1  0
  3 49  1  1
  4 50  1  0
  5 51  1  0
  6 52  1  0
  8 53  1  0
  8 54  1  0
  8 55  1  0
 11 56  1  0
 13 57  1  0
 17 58  1  0
 18 59  1  0
 18 60  1  0
 19 61  1  0
 19 62  1  0
 21 63  1  0
 21 64  1  0
 21 65  1  0
 22 66  1  0
 22 67  1  0
 22 68  1  0
 24 69  1  0
 24 70  1  0
 25 71  1  6
 26 72  1  0
 26 73  1  0
 26 74  1  0
 27 75  1  0
 27 76  1  0
 28 77  1  6
 30 78  1  0
 30 79  1  0
 30 80  1  0
 31 81  1  6
 32 82  1  0
 33 83  1  1
 34 84  1  0
 34 85  1  0
 34 86  1  0
 35 87  1  0
 37 88  1  0
 37 89  1  0
 37 90  1  0
 38 91  1  6
 41 92  1  0
 41 93  1  0
 45 94  1  0
M  END
$$$$
