
     RDKit          3D

 68 70  0  0  0  0  0  0  0  0999 V2000
   -3.4112   -2.1403   -2.2291 C   0  0  0  0  0  0  0  0  0  0  0  0
   -3.2416   -1.8993   -0.7234 C   0  0  0  0  0  0  0  0  0  0  0  0
   -3.7888   -3.0666    0.1024 C   0  0  0  0  0  0  0  0  0  0  0  0
   -3.7902   -0.5891   -0.2848 N   0  0  0  0  0  0  0  0  0  0  0  0
   -2.9278    0.3645    0.2493 C   0  0  0  0  0  0  0  0  0  0  0  0
   -1.5979    0.0692    0.5813 N   0  0  0  0  0  0  0  0  0  0  0  0
   -0.4798    0.9272    0.1267 C   0  0  0  0  0  0  0  0  0  0  0  0
    0.8797    0.2385    0.3398 C   0  0  0  0  0  0  0  0  0  0  0  0
    1.1036   -0.1326    1.7447 N   0  0  0  0  0  0  0  0  0  0  0  0
    2.3437   -0.1319    2.3739 C   0  0  0  0  0  0  0  0  0  0  0  0
    2.4755   -0.1444    3.5952 O   0  0  0  0  0  0  0  0  0  0  0  0
    3.5674   -0.1149    1.5408 C   0  0  0  0  0  0  0  0  0  0  0  0
    3.7755   -1.0740    0.5490 C   0  0  0  0  0  0  0  0  0  0  0  0
    4.9472   -1.0464   -0.2160 C   0  0  0  0  0  0  0  0  0  0  0  0
    5.9381   -0.0720    0.0005 C   0  0  0  0  0  0  0  0  0  0  0  0
    7.2392   -0.0145   -0.8214 C   0  0  0  0  0  0  0  0  0  0  0  0
    7.3459    1.3529   -1.5305 C   0  0  0  0  0  0  0  0  0  0  0  0
    7.3363   -1.1030   -1.9145 C   0  0  0  0  0  0  0  0  0  0  0  0
    8.4531   -0.1969    0.1152 C   0  0  0  0  0  0  0  0  0  0  0  0
    5.7116    0.8682    1.0275 C   0  0  0  0  0  0  0  0  0  0  0  0
    4.5446    0.8445    1.7965 C   0  0  0  0  0  0  0  0  0  0  0  0
   -0.0954   -0.2430    2.5784 C   0  0  0  0  0  0  0  0  0  0  0  0
   -1.3141   -0.7499    1.7915 C   0  0  0  0  0  0  0  0  0  0  0  0
   -3.3956    1.6015    0.4557 C   0  0  0  0  0  0  0  0  0  0  0  0
   -4.7814    1.9593    0.1606 C   0  0  0  0  0  0  0  0  0  0  0  0
   -5.0893    3.1481    0.2024 O   0  0  0  0  0  0  0  0  0  0  0  0
   -5.6299    0.9162   -0.1294 N   0  0  0  0  0  0  0  0  0  0  0  0
   -7.0627    1.1909   -0.3516 C   0  0  0  0  0  0  0  0  0  0  0  0
   -7.7284    1.9167    0.8225 C   0  0  0  0  0  0  0  0  0  0  0  0
   -7.3023    1.9277   -1.6722 C   0  0  0  0  0  0  0  0  0  0  0  0
   -5.1563   -0.3446   -0.4838 C   0  0  0  0  0  0  0  0  0  0  0  0
   -5.9092   -1.1965   -0.9623 O   0  0  0  0  0  0  0  0  0  0  0  0
   -4.4517   -2.3111   -2.5178 H   0  0  0  0  0  0  0  0  0  0  0  0
   -2.8420   -3.0240   -2.5383 H   0  0  0  0  0  0  0  0  0  0  0  0
   -3.0395   -1.2834   -2.8011 H   0  0  0  0  0  0  0  0  0  0  0  0
   -2.1583   -1.9015   -0.5725 H   0  0  0  0  0  0  0  0  0  0  0  0
   -3.2641   -3.9938   -0.1519 H   0  0  0  0  0  0  0  0  0  0  0  0
   -4.8552   -3.2367   -0.0688 H   0  0  0  0  0  0  0  0  0  0  0  0
   -3.6486   -2.8832    1.1728 H   0  0  0  0  0  0  0  0  0  0  0  0
   -0.6009    1.1517   -0.9395 H   0  0  0  0  0  0  0  0  0  0  0  0
   -0.4944    1.8765    0.6761 H   0  0  0  0  0  0  0  0  0  0  0  0
    0.9165   -0.6886   -0.2436 H   0  0  0  0  0  0  0  0  0  0  0  0
    1.6806    0.8987   -0.0071 H   0  0  0  0  0  0  0  0  0  0  0  0
    3.0407   -1.8560    0.3767 H   0  0  0  0  0  0  0  0  0  0  0  0
    5.0651   -1.8148   -0.9754 H   0  0  0  0  0  0  0  0  0  0  0  0
    7.3951    2.1860   -0.8207 H   0  0  0  0  0  0  0  0  0  0  0  0
    6.4820    1.5271   -2.1831 H   0  0  0  0  0  0  0  0  0  0  0  0
    8.2487    1.4068   -2.1502 H   0  0  0  0  0  0  0  0  0  0  0  0
    6.5161   -1.0231   -2.6372 H   0  0  0  0  0  0  0  0  0  0  0  0
    8.2723   -1.0145   -2.4790 H   0  0  0  0  0  0  0  0  0  0  0  0
    7.3156   -2.1106   -1.4836 H   0  0  0  0  0  0  0  0  0  0  0  0
    9.3925   -0.1967   -0.4502 H   0  0  0  0  0  0  0  0  0  0  0  0
    8.5278    0.6041    0.8589 H   0  0  0  0  0  0  0  0  0  0  0  0
    8.3909   -1.1466    0.6597 H   0  0  0  0  0  0  0  0  0  0  0  0
    6.4529    1.6331    1.2506 H   0  0  0  0  0  0  0  0  0  0  0  0
    4.4029    1.5708    2.5936 H   0  0  0  0  0  0  0  0  0  0  0  0
   -0.2968    0.7557    2.9853 H   0  0  0  0  0  0  0  0  0  0  0  0
    0.1054   -0.9092    3.4250 H   0  0  0  0  0  0  0  0  0  0  0  0
   -1.1252   -1.7813    1.4723 H   0  0  0  0  0  0  0  0  0  0  0  0
   -2.1862   -0.7649    2.4564 H   0  0  0  0  0  0  0  0  0  0  0  0
   -2.7870    2.3986    0.8608 H   0  0  0  0  0  0  0  0  0  0  0  0
   -7.5872    0.2305   -0.4298 H   0  0  0  0  0  0  0  0  0  0  0  0
   -8.8159    1.9324    0.6911 H   0  0  0  0  0  0  0  0  0  0  0  0
   -7.5105    1.4060    1.7666 H   0  0  0  0  0  0  0  0  0  0  0  0
   -7.4010    2.9558    0.9175 H   0  0  0  0  0  0  0  0  0  0  0  0
   -6.8672    2.9319   -1.6662 H   0  0  0  0  0  0  0  0  0  0  0  0
   -6.8575    1.3787   -2.5091 H   0  0  0  0  0  0  0  0  0  0  0  0
   -8.3751    2.0301   -1.8678 H   0  0  0  0  0  0  0  0  0  0  0  0
  1  2  1  0
  2  3  1  0
  2  4  1  0
  4  5  1  0
  5  6  1  0
  6  7  1  0
  7  8  1  0
  8  9  1  0
  9 10  1  0
 10 11  2  0
 10 12  1  0
 12 13  2  0
 13 14  1  0
 14 15  2  0
 15 16  1  0
 16 17  1  0
 16 18  1  0
 16 19  1  0
 15 20  1  0
 20 21  2  0
  9 22  1  0
 22 23  1  0
  5 24  2  0
 24 25  1  0
 25 26  2  0
 25 27  1  0
 27 28  1  0
 28 29  1  0
 28 30  1  0
 27 31  1  0
 31 32  2  0
 31  4  1  0
 23  6  1  0
 21 12  1  0
  1 33  1  0
  1 34  1  0
  1 35  1  0
  2 36  1  0
  3 37  1  0
  3 38  1  0
  3 39  1  0
  7 40  1  0
  7 41  1  0
  8 42  1  0
  8 43  1  0
 13 44  1  0
 14 45  1  0
 17 46  1  0
 17 47  1  0
 17 48  1  0
 18 49  1  0
 18 50  1  0
 18 51  1  0
 19 52  1  0
 19 53  1  0
 19 54  1  0
 20 55  1  0
 21 56  1  0
 22 57  1  0
 22 58  1  0
 23 59  1  0
 23 60  1  0
 24 61  1  0
 28 62  1  0
 29 63  1  0
 29 64  1  0
 29 65  1  0
 30 66  1  0
 30 67  1  0
 30 68  1  0
M  END
$$$$
