
     RDKit          3D

 67 70  0  0  0  0  0  0  0  0999 V2000
    7.1276    0.6881   -2.3468 C   0  0  0  0  0  0  0  0  0  0  0  0
    7.3592    0.4760   -0.9606 O   0  0  0  0  0  0  0  0  0  0  0  0
    6.2669    0.4576   -0.1285 C   0  0  0  0  0  0  0  0  0  0  0  0
    4.9575    0.7469   -0.5328 C   0  0  0  0  0  0  0  0  0  0  0  0
    3.8865    0.7062    0.3516 C   0  0  0  0  0  0  0  0  0  0  0  0
    2.6642    0.9862   -0.1108 N   0  0  0  0  0  0  0  0  0  0  0  0
    1.6223    0.9380    0.7295 C   0  0  0  0  0  0  0  0  0  0  0  0
    0.3503    1.2366    0.2551 N   0  0  0  0  0  0  0  0  0  0  0  0
   -0.7428    0.7015    1.0782 C   0  0  0  0  0  0  0  0  0  0  0  0
   -2.0965    0.7729    0.3480 C   0  0  0  0  0  0  0  0  0  0  0  0
   -2.0667    0.1242   -0.9754 N   0  0  0  0  0  0  0  0  0  0  0  0
   -3.1731   -0.3597   -1.6662 C   0  0  0  0  0  0  0  0  0  0  0  0
   -3.0582   -0.8166   -2.8070 O   0  0  0  0  0  0  0  0  0  0  0  0
   -4.5328   -0.3499   -0.9543 C   0  0  0  0  0  0  0  0  0  0  0  0
   -4.6507   -1.6361   -0.1440 C   0  0  0  0  0  0  0  0  0  0  0  0
   -5.8460   -1.6216    0.6496 O   0  0  0  0  0  0  0  0  0  0  0  0
   -6.9267   -1.2339   -0.1011 C   0  0  0  0  0  0  0  0  0  0  0  0
   -8.1876   -1.4928    0.4326 C   0  0  0  0  0  0  0  0  0  0  0  0
   -9.3319   -1.1458   -0.2895 C   0  0  0  0  0  0  0  0  0  0  0  0
   -9.2130   -0.5412   -1.5426 C   0  0  0  0  0  0  0  0  0  0  0  0
   -7.9486   -0.2697   -2.0709 C   0  0  0  0  0  0  0  0  0  0  0  0
   -6.8070   -0.6004   -1.3430 C   0  0  0  0  0  0  0  0  0  0  0  0
   -5.5996   -0.2814   -1.9107 O   0  0  0  0  0  0  0  0  0  0  0  0
   -0.7643    0.1328   -1.6627 C   0  0  0  0  0  0  0  0  0  0  0  0
    0.1427    1.2827   -1.1974 C   0  0  0  0  0  0  0  0  0  0  0  0
    1.7629    0.6264    2.0237 N   0  0  0  0  0  0  0  0  0  0  0  0
    2.9867    0.3495    2.4901 C   0  0  0  0  0  0  0  0  0  0  0  0
    3.0600    0.0289    3.8574 N   0  0  0  0  0  0  0  0  0  0  0  0
    4.1283    0.3720    1.6817 C   0  0  0  0  0  0  0  0  0  0  0  0
    5.4510    0.0879    2.1112 C   0  0  0  0  0  0  0  0  0  0  0  0
    6.5184    0.1293    1.2128 C   0  0  0  0  0  0  0  0  0  0  0  0
    7.8231   -0.1382    1.5381 O   0  0  0  0  0  0  0  0  0  0  0  0
    8.1265   -0.4398    2.8941 C   0  0  0  0  0  0  0  0  0  0  0  0
   -1.0971   -0.2528   -0.0235 C   0  0  0  0  0  0  0  0  0  0  0  0
    0.4822    0.5629   -0.0632 S   0  0  0  0  0  6  0  0  0  0  0  0
    0.8162    1.0324    1.2620 O   0  0  0  0  0  0  0  0  0  0  0  0
    0.5656    1.4029   -1.2341 O   0  0  0  0  0  0  0  0  0  0  0  0
    1.4008   -0.7416   -0.3103 O   0  0  0  0  0  0  0  0  0  0  0  0
    6.7349    1.6938   -2.5299 H   0  0  0  0  0  0  0  0  0  0  0  0
    6.4640   -0.0790   -2.7609 H   0  0  0  0  0  0  0  0  0  0  0  0
    8.0895    0.6070   -2.8625 H   0  0  0  0  0  0  0  0  0  0  0  0
    4.7336    1.0154   -1.5608 H   0  0  0  0  0  0  0  0  0  0  0  0
   -0.8173    1.2635    2.0169 H   0  0  0  0  0  0  0  0  0  0  0  0
   -0.5520   -0.3527    1.3213 H   0  0  0  0  0  0  0  0  0  0  0  0
   -2.3803    1.8185    0.1789 H   0  0  0  0  0  0  0  0  0  0  0  0
   -2.8666    0.3195    0.9764 H   0  0  0  0  0  0  0  0  0  0  0  0
   -4.6190    0.5443   -0.3255 H   0  0  0  0  0  0  0  0  0  0  0  0
   -3.8055   -1.7604    0.5422 H   0  0  0  0  0  0  0  0  0  0  0  0
   -4.6728   -2.5248   -0.7910 H   0  0  0  0  0  0  0  0  0  0  0  0
   -8.2801   -1.9754    1.4021 H   0  0  0  0  0  0  0  0  0  0  0  0
  -10.3167   -1.3524    0.1229 H   0  0  0  0  0  0  0  0  0  0  0  0
  -10.1051   -0.2773   -2.1065 H   0  0  0  0  0  0  0  0  0  0  0  0
   -7.8535    0.2054   -3.0437 H   0  0  0  0  0  0  0  0  0  0  0  0
   -0.9080    0.1965   -2.7457 H   0  0  0  0  0  0  0  0  0  0  0  0
   -0.2883   -0.8308   -1.4461 H   0  0  0  0  0  0  0  0  0  0  0  0
    1.0681    1.2687   -1.7829 H   0  0  0  0  0  0  0  0  0  0  0  0
   -0.3477    2.2362   -1.4313 H   0  0  0  0  0  0  0  0  0  0  0  0
    3.4522   -0.9008    3.9717 H   0  0  0  0  0  0  0  0  0  0  0  0
    3.6589    0.6979    4.3335 H   0  0  0  0  0  0  0  0  0  0  0  0
    5.6184   -0.1659    3.1514 H   0  0  0  0  0  0  0  0  0  0  0  0
    7.8832    0.4053    3.5485 H   0  0  0  0  0  0  0  0  0  0  0  0
    7.6172   -1.3539    3.2199 H   0  0  0  0  0  0  0  0  0  0  0  0
    9.2042   -0.6155    2.9647 H   0  0  0  0  0  0  0  0  0  0  0  0
   -1.2678   -0.7371   -0.9867 H   0  0  0  0  0  0  0  0  0  0  0  0
   -1.0970   -0.9850    0.7862 H   0  0  0  0  0  0  0  0  0  0  0  0
   -1.8643    0.5031    0.1561 H   0  0  0  0  0  0  0  0  0  0  0  0
    2.0612   -0.7848    0.4135 H   0  0  0  0  0  0  0  0  0  0  0  0
  1  2  1  0
  2  3  1  0
  3  4  2  0
  4  5  1  0
  5  6  2  0
  6  7  1  0
  7  8  1  0
  8  9  1  0
  9 10  1  0
 10 11  1  0
 11 12  1  0
 12 13  2  0
 12 14  1  0
 14 15  1  0
 15 16  1  0
 16 17  1  0
 17 18  2  0
 18 19  1  0
 19 20  2  0
 20 21  1  0
 21 22  2  0
 22 23  1  0
 11 24  1  0
 24 25  1  0
  7 26  2  0
 26 27  1  0
 27 28  1  0
 27 29  2  0
 29 30  1  0
 30 31  2  0
 31 32  1  0
 32 33  1  0
 34 35  1  0
 35 36  2  0
 35 37  2  0
 35 38  1  0
 31  3  1  0
 29  5  1  0
 25  8  1  0
 23 14  1  0
 22 17  1  0
  1 39  1  0
  1 40  1  0
  1 41  1  0
  4 42  1  0
  9 43  1  0
  9 44  1  0
 10 45  1  0
 10 46  1  0
 14 47  1  0
 15 48  1  0
 15 49  1  0
 18 50  1  0
 19 51  1  0
 20 52  1  0
 21 53  1  0
 24 54  1  0
 24 55  1  0
 25 56  1  0
 25 57  1  0
 28 58  1  0
 28 59  1  0
 30 60  1  0
 33 61  1  0
 33 62  1  0
 33 63  1  0
 34 64  1  0
 34 65  1  0
 34 66  1  0
 38 67  1  0
M  END
$$$$
