
     RDKit          3D

 57 60  0  0  0  0  0  0  0  0999 V2000
   -7.1106   -0.8718    1.3267 C   0  0  0  0  0  0  0  0  0  0  0  0
   -6.0370   -1.6405    0.5702 C   0  0  0  0  0  0  0  0  0  0  0  0
   -4.7772   -0.8221    0.3887 C   0  0  0  0  0  0  0  0  0  0  0  0
   -3.8055   -0.8844    1.4071 C   0  0  0  0  0  0  0  0  0  0  0  0
   -2.6423   -0.1451    1.2836 C   0  0  0  0  0  0  0  0  0  0  0  0
   -2.4262    0.6696    0.1759 C   0  0  0  0  0  0  0  0  0  0  0  0
   -3.3705    0.7649   -0.8313 C   0  0  0  0  0  0  0  0  0  0  0  0
   -4.5624    0.0189   -0.7365 C   0  0  0  0  0  0  0  0  0  0  0  0
   -5.5580    0.1386   -1.8694 C   0  0  0  0  0  0  0  0  0  0  0  0
   -5.2877   -0.8729   -2.9736 C   0  0  0  0  0  0  0  0  0  0  0  0
   -1.1253    1.4031    0.2950 C   0  0  0  0  0  0  0  0  0  0  0  0
   -0.3806    0.5879    1.3877 C   0  0  0  0  0  0  0  0  0  0  0  0
    0.4857   -0.4953    0.8684 N   0  0  0  0  0  0  0  0  0  0  0  0
    1.6373   -0.0486    0.0624 C   0  0  0  0  0  0  0  0  0  0  0  0
    2.6047    0.9479    0.7522 C   0  0  2  0  0  0  0  0  0  0  0  0
    2.0665    2.2767    0.6836 O   0  0  0  0  0  0  0  0  0  0  0  0
    3.9816    0.9228    0.1029 C   0  0  0  0  0  0  0  0  0  0  0  0
    4.2464    1.7879   -0.9851 C   0  0  0  0  0  0  0  0  0  0  0  0
    5.4924    1.8130   -1.6164 C   0  0  0  0  0  0  0  0  0  0  0  0
    6.4936    0.9610   -1.1723 C   0  0  0  0  0  0  0  0  0  0  0  0
    7.7298    0.9607   -1.7598 O   0  0  0  0  0  0  0  0  0  0  0  0
    6.2504    0.0788   -0.1170 C   0  0  0  0  0  0  0  0  0  0  0  0
    7.2825   -0.7758    0.2991 N   0  0  0  0  0  0  0  0  0  0  0  0
    7.1616   -1.6842    1.3083 C   0  0  0  0  0  0  0  0  0  0  0  0
    8.0793   -2.4139    1.6655 O   0  0  0  0  0  0  0  0  0  0  0  0
    5.8369   -1.7561    1.9659 C   0  0  0  0  0  0  0  0  0  0  0  0
    4.8270   -0.9546    1.6002 C   0  0  0  0  0  0  0  0  0  0  0  0
    4.9979    0.0368    0.5257 C   0  0  0  0  0  0  0  0  0  0  0  0
   -1.5079   -0.0404    2.2563 C   0  0  0  0  0  0  0  0  0  0  0  0
   -6.7651   -0.5855    2.3263 H   0  0  0  0  0  0  0  0  0  0  0  0
   -7.3965    0.0426    0.7975 H   0  0  0  0  0  0  0  0  0  0  0  0
   -8.0059   -1.4901    1.4437 H   0  0  0  0  0  0  0  0  0  0  0  0
   -5.7967   -2.5602    1.1187 H   0  0  0  0  0  0  0  0  0  0  0  0
   -6.4233   -1.9775   -0.3970 H   0  0  0  0  0  0  0  0  0  0  0  0
   -3.9629   -1.5040    2.2858 H   0  0  0  0  0  0  0  0  0  0  0  0
   -3.1901    1.4144   -1.6839 H   0  0  0  0  0  0  0  0  0  0  0  0
   -6.5826    0.0285   -1.4998 H   0  0  0  0  0  0  0  0  0  0  0  0
   -5.5120    1.1518   -2.2880 H   0  0  0  0  0  0  0  0  0  0  0  0
   -4.2910   -0.7323   -3.4060 H   0  0  0  0  0  0  0  0  0  0  0  0
   -5.3482   -1.9002   -2.5999 H   0  0  0  0  0  0  0  0  0  0  0  0
   -6.0227   -0.7602   -3.7767 H   0  0  0  0  0  0  0  0  0  0  0  0
   -1.3127    2.4245    0.6474 H   0  0  0  0  0  0  0  0  0  0  0  0
   -0.5953    1.4503   -0.6587 H   0  0  0  0  0  0  0  0  0  0  0  0
    0.2209    1.2406    2.0286 H   0  0  0  0  0  0  0  0  0  0  0  0
   -0.0914   -1.1134    0.2922 H   0  0  0  0  0  0  0  0  0  0  0  0
    2.1884   -0.9630   -0.1915 H   0  0  0  0  0  0  0  0  0  0  0  0
    1.2863    0.3690   -0.8882 H   0  0  0  0  0  0  0  0  0  0  0  0
    2.6914    0.7210    1.8192 H   0  0  0  0  0  0  0  0  0  0  0  0
    2.7049    2.8508    1.1415 H   0  0  0  0  0  0  0  0  0  0  0  0
    3.4664    2.4569   -1.3509 H   0  0  0  0  0  0  0  0  0  0  0  0
    5.6553    2.4982   -2.4434 H   0  0  0  0  0  0  0  0  0  0  0  0
    7.7361    1.6182   -2.4755 H   0  0  0  0  0  0  0  0  0  0  0  0
    8.1736   -0.7123   -0.1791 H   0  0  0  0  0  0  0  0  0  0  0  0
    5.7333   -2.4969    2.7479 H   0  0  0  0  0  0  0  0  0  0  0  0
    3.8696   -1.0575    2.0963 H   0  0  0  0  0  0  0  0  0  0  0  0
   -1.7841    0.6366    3.0727 H   0  0  0  0  0  0  0  0  0  0  0  0
   -1.2281   -1.0130    2.6750 H   0  0  0  0  0  0  0  0  0  0  0  0
  1  2  1  0
  2  3  1  0
  3  4  2  0
  4  5  1  0
  5  6  2  0
  6  7  1  0
  7  8  2  0
  8  9  1  0
  9 10  1  0
  6 11  1  0
 11 12  1  0
 12 13  1  0
 13 14  1  0
 14 15  1  0
 15 16  1  0
 15 17  1  0
 17 18  2  0
 18 19  1  0
 19 20  2  0
 20 21  1  0
 20 22  1  0
 22 23  1  0
 23 24  1  0
 24 25  2  0
 24 26  1  0
 26 27  2  0
 27 28  1  0
 12 29  1  0
  8  3  1  0
 28 17  1  0
 29  5  1  0
 28 22  2  0
  1 30  1  0
  1 31  1  0
  1 32  1  0
  2 33  1  0
  2 34  1  0
  4 35  1  0
  7 36  1  0
  9 37  1  0
  9 38  1  0
 10 39  1  0
 10 40  1  0
 10 41  1  0
 11 42  1  0
 11 43  1  0
 12 44  1  0
 13 45  1  0
 14 46  1  0
 14 47  1  0
 15 48  1  1
 16 49  1  0
 18 50  1  0
 19 51  1  0
 21 52  1  0
 23 53  1  0
 26 54  1  0
 27 55  1  0
 29 56  1  0
 29 57  1  0
M  END
$$$$
