
     RDKit          3D

 31 33  0  0  0  0  0  0  0  0999 V2000
   -5.7057   -1.7121   -0.5896 C   0  0  0  0  0  0  0  0  0  0  0  0
   -4.4536   -2.2603   -0.9816 O   0  0  0  0  0  0  0  0  0  0  0  0
   -3.3321   -1.5868   -0.5849 C   0  0  0  0  0  0  0  0  0  0  0  0
   -2.1287   -2.1662   -0.9896 C   0  0  0  0  0  0  0  0  0  0  0  0
   -0.9045   -1.5808   -0.6523 C   0  0  0  0  0  0  0  0  0  0  0  0
   -0.8608   -0.4036    0.1054 C   0  0  0  0  0  0  0  0  0  0  0  0
    0.4382    0.2083    0.4457 C   0  0  0  0  0  0  0  0  0  0  0  0
    0.6887    0.6914    1.6716 C   0  0  0  0  0  0  0  0  0  0  0  0
    2.0052    1.2837    1.9578 C   0  0  0  0  0  0  0  0  0  0  0  0
    2.2635    1.7416    3.0630 O   0  0  0  0  0  0  0  0  0  0  0  0
    2.9744    1.2937    0.8528 C   0  0  0  0  0  0  0  0  0  0  0  0
    4.2520    1.8343    1.0245 C   0  0  0  0  0  0  0  0  0  0  0  0
    5.1505    1.8295   -0.0433 C   0  0  0  0  0  0  0  0  0  0  0  0
    4.7713    1.2872   -1.2732 C   0  0  0  0  0  0  0  0  0  0  0  0
    3.4933    0.7483   -1.4389 C   0  0  0  0  0  0  0  0  0  0  0  0
    2.5944    0.7524   -0.3724 C   0  0  0  0  0  0  0  0  0  0  0  0
    1.3547    0.2086   -0.5951 O   0  0  0  0  0  0  0  0  0  0  0  0
   -2.0745    0.1781    0.5003 C   0  0  0  0  0  0  0  0  0  0  0  0
   -3.3008   -0.4095    0.1605 C   0  0  0  0  0  0  0  0  0  0  0  0
   -5.8542   -0.7176   -1.0232 H   0  0  0  0  0  0  0  0  0  0  0  0
   -6.4930   -2.3653   -0.9781 H   0  0  0  0  0  0  0  0  0  0  0  0
   -5.8019   -1.6871    0.5009 H   0  0  0  0  0  0  0  0  0  0  0  0
   -2.1428   -3.0830   -1.5744 H   0  0  0  0  0  0  0  0  0  0  0  0
    0.0146   -2.0598   -0.9830 H   0  0  0  0  0  0  0  0  0  0  0  0
   -0.0195    0.6686    2.4895 H   0  0  0  0  0  0  0  0  0  0  0  0
    4.5458    2.2563    1.9832 H   0  0  0  0  0  0  0  0  0  0  0  0
    6.1461    2.2485    0.0834 H   0  0  0  0  0  0  0  0  0  0  0  0
    5.4728    1.2848   -2.1044 H   0  0  0  0  0  0  0  0  0  0  0  0
    3.2008    0.3277   -2.3974 H   0  0  0  0  0  0  0  0  0  0  0  0
   -2.0846    1.1063    1.0680 H   0  0  0  0  0  0  0  0  0  0  0  0
   -4.2095    0.0826    0.4909 H   0  0  0  0  0  0  0  0  0  0  0  0
  1  2  1  0
  2  3  1  0
  3  4  2  0
  4  5  1  0
  5  6  2  0
  6  7  1  0
  7  8  2  0
  8  9  1  0
  9 10  2  0
  9 11  1  0
 11 12  2  0
 12 13  1  0
 13 14  2  0
 14 15  1  0
 15 16  2  0
 16 17  1  0
  6 18  1  0
 18 19  2  0
 19  3  1  0
 17  7  1  0
 16 11  1  0
  1 20  1  0
  1 21  1  0
  1 22  1  0
  4 23  1  0
  5 24  1  0
  8 25  1  0
 12 26  1  0
 13 27  1  0
 14 28  1  0
 15 29  1  0
 18 30  1  0
 19 31  1  0
M  END
$$$$
