
     RDKit          3D

 22 22  0  0  0  0  0  0  0  0999 V2000
    0.6922    0.0000    0.0000 Cl  0  0  0  0  0  0  0  0  0  0  0  0
   -3.5826   -0.1699   -0.6852 N   0  0  0  0  0  0  0  0  0  0  0  0
   -2.2449   -0.6161   -0.6560 N   0  0  0  0  0  0  0  0  0  0  0  0
   -1.2796    0.2674   -0.1271 C   0  0  0  0  0  0  0  0  0  0  0  0
   -1.6225    1.4963    0.3349 N   0  0  0  0  0  0  0  0  0  0  0  0
   -0.7383    2.3343    0.8314 N   0  0  0  0  0  0  0  0  0  0  0  0
    0.5612    2.0366    0.9169 C   0  0  0  0  0  0  0  0  0  0  0  0
    1.0201    0.8049    0.4724 C   0  0  0  0  0  0  0  0  0  0  0  0
    2.3612    0.4967    0.5602 C   0  0  0  0  0  0  0  0  0  0  0  0
    2.7736   -0.7356    0.1079 C   0  0  0  0  0  0  0  0  0  0  0  0
    1.8507   -1.6140   -0.4119 C   0  0  0  0  0  0  0  0  0  0  0  0
    0.5086   -1.2939   -0.4948 C   0  0  0  0  0  0  0  0  0  0  0  0
    0.0655   -0.0717   -0.0518 C   0  0  0  0  0  0  0  0  0  0  0  0
   -0.6922    0.0000    0.0000 H   0  0  0  0  0  0  0  0  0  0  0  0
   -4.1439   -0.5840    0.0836 H   0  0  0  0  0  0  0  0  0  0  0  0
   -3.6289    0.8847   -0.6386 H   0  0  0  0  0  0  0  0  0  0  0  0
   -2.0877   -1.5579   -1.0272 H   0  0  0  0  0  0  0  0  0  0  0  0
    1.2964    2.7299    1.3282 H   0  0  0  0  0  0  0  0  0  0  0  0
    3.0785    1.1930    0.9699 H   0  0  0  0  0  0  0  0  0  0  0  0
    3.8360   -1.0151    0.1625 H   0  0  0  0  0  0  0  0  0  0  0  0
    2.1838   -2.5950   -0.7711 H   0  0  0  0  0  0  0  0  0  0  0  0
   -0.2072   -1.9905   -0.9044 H   0  0  0  0  0  0  0  0  0  0  0  0
  2  3  1  0
  3  4  1  0
  4  5  2  0
  5  6  1  0
  6  7  2  0
  7  8  1  0
  8  9  2  0
  9 10  1  0
 10 11  2  0
 11 12  1  0
 12 13  2  0
 13  4  1  0
 13  8  1  0
  1 14  1  0
  2 15  1  0
  2 16  1  0
  3 17  1  0
  7 18  1  0
  9 19  1  0
 10 20  1  0
 11 21  1  0
 12 22  1  0
M  END
$$$$
