
     RDKit          3D

 56 58  0  0  0  0  0  0  0  0999 V2000
   10.4986   -2.0172    1.9719 C   0  0  0  0  0  0  0  0  0  0  0  0
    9.7054   -0.8378    1.9350 O   0  0  0  0  0  0  0  0  0  0  0  0
    8.3872   -0.9878    1.6071 C   0  0  0  0  0  0  0  0  0  0  0  0
    7.6497    0.1964    1.5863 C   0  0  0  0  0  0  0  0  0  0  0  0
    6.2865    0.1912    1.2666 C   0  0  0  0  0  0  0  0  0  0  0  0
    5.6401   -1.0051    0.9618 C   0  0  0  0  0  0  0  0  0  0  0  0
    4.2730   -1.1050    0.6301 N   0  0  0  0  0  0  0  0  0  0  0  0
    3.3485   -0.0762    0.5445 C   0  0  0  0  0  0  0  0  0  0  0  0
    3.5575    1.1145    0.7396 O   0  0  0  0  0  0  0  0  0  0  0  0
    1.9718   -0.5987    0.1602 C   0  0  0  0  0  0  0  0  0  0  0  0
    0.9308    0.5186    0.0824 C   0  0  0  0  0  0  0  0  0  0  0  0
   -0.4537   -0.0100   -0.2622 C   0  0  2  0  0  0  0  0  0  0  0  0
   -0.5532   -0.5016   -1.6130 N   0  0  0  0  0  0  0  0  0  0  0  0
   -1.5547    0.1298   -2.3174 C   0  0  0  0  0  0  0  0  0  0  0  0
   -1.8948   -0.1953   -3.4426 O   0  0  0  0  0  0  0  0  0  0  0  0
   -2.0719    1.1191   -1.5422 N   0  0  0  0  0  0  0  0  0  0  0  0
   -3.1600    1.9810   -1.9373 C   0  0  0  0  0  0  0  0  0  0  0  0
   -4.5012    1.3840   -1.5777 C   0  0  0  0  0  0  0  0  0  0  0  0
   -5.1745    0.5546   -2.4804 C   0  0  0  0  0  0  0  0  0  0  0  0
   -6.4029   -0.0166   -2.1389 C   0  0  0  0  0  0  0  0  0  0  0  0
   -6.9733    0.2250   -0.8849 C   0  0  0  0  0  0  0  0  0  0  0  0
   -8.1723   -0.2961   -0.4648 O   0  0  0  0  0  0  0  0  0  0  0  0
   -8.9123   -1.0758   -1.3926 C   0  0  0  0  0  0  0  0  0  0  0  0
   -6.2953    1.0444    0.0398 C   0  0  0  0  0  0  0  0  0  0  0  0
   -6.9126    1.2248    1.2535 O   0  0  0  0  0  0  0  0  0  0  0  0
   -6.2304    1.9980    2.2307 C   0  0  0  0  0  0  0  0  0  0  0  0
   -5.0667    1.6162   -0.3139 C   0  0  0  0  0  0  0  0  0  0  0  0
   -1.4957    1.1114   -0.3034 C   0  0  0  0  0  0  0  0  0  0  0  0
   -1.7674    1.8522    0.6320 O   0  0  0  0  0  0  0  0  0  0  0  0
    6.3821   -2.1931    0.9829 C   0  0  0  0  0  0  0  0  0  0  0  0
    7.7466   -2.1865    1.3029 C   0  0  0  0  0  0  0  0  0  0  0  0
   10.1329   -2.7152    2.7322 H   0  0  0  0  0  0  0  0  0  0  0  0
   11.5167   -1.7269    2.2488 H   0  0  0  0  0  0  0  0  0  0  0  0
   10.5442   -2.4932    0.9866 H   0  0  0  0  0  0  0  0  0  0  0  0
    8.1379    1.1397    1.8214 H   0  0  0  0  0  0  0  0  0  0  0  0
    5.7653    1.1431    1.2669 H   0  0  0  0  0  0  0  0  0  0  0  0
    3.9363   -2.0389    0.4341 H   0  0  0  0  0  0  0  0  0  0  0  0
    1.6646   -1.3397    0.9078 H   0  0  0  0  0  0  0  0  0  0  0  0
    2.0595   -1.1020   -0.8096 H   0  0  0  0  0  0  0  0  0  0  0  0
    1.2465    1.2666   -0.6573 H   0  0  0  0  0  0  0  0  0  0  0  0
    0.8894    1.0433    1.0457 H   0  0  0  0  0  0  0  0  0  0  0  0
   -0.7945   -0.7939    0.4216 H   0  0  0  0  0  0  0  0  0  0  0  0
   -0.1589   -1.3613   -1.9716 H   0  0  0  0  0  0  0  0  0  0  0  0
   -3.0448    2.9543   -1.4456 H   0  0  0  0  0  0  0  0  0  0  0  0
   -3.1093    2.1542   -3.0189 H   0  0  0  0  0  0  0  0  0  0  0  0
   -4.7425    0.3403   -3.4574 H   0  0  0  0  0  0  0  0  0  0  0  0
   -6.8854   -0.6520   -2.8739 H   0  0  0  0  0  0  0  0  0  0  0  0
   -8.3703   -1.9885   -1.6611 H   0  0  0  0  0  0  0  0  0  0  0  0
   -9.8464   -1.3756   -0.9076 H   0  0  0  0  0  0  0  0  0  0  0  0
   -9.1729   -0.4925   -2.2821 H   0  0  0  0  0  0  0  0  0  0  0  0
   -6.1001    3.0322    1.8953 H   0  0  0  0  0  0  0  0  0  0  0  0
   -6.8498    2.0181    3.1327 H   0  0  0  0  0  0  0  0  0  0  0  0
   -5.2708    1.5423    2.4973 H   0  0  0  0  0  0  0  0  0  0  0  0
   -4.5216    2.2468    0.3833 H   0  0  0  0  0  0  0  0  0  0  0  0
    5.9133   -3.1459    0.7507 H   0  0  0  0  0  0  0  0  0  0  0  0
    8.2755   -3.1336    1.3047 H   0  0  0  0  0  0  0  0  0  0  0  0
  1  2  1  0
  2  3  1  0
  3  4  2  0
  4  5  1  0
  5  6  2  0
  6  7  1  0
  7  8  1  0
  8  9  2  0
  8 10  1  0
 10 11  1  0
 11 12  1  0
 12 13  1  0
 13 14  1  0
 14 15  2  0
 14 16  1  0
 16 17  1  0
 17 18  1  0
 18 19  2  0
 19 20  1  0
 20 21  2  0
 21 22  1  0
 22 23  1  0
 21 24  1  0
 24 25  1  0
 25 26  1  0
 24 27  2  0
 16 28  1  0
 28 29  2  0
  6 30  1  0
 30 31  2  0
 31  3  1  0
 28 12  1  0
 27 18  1  0
  1 32  1  0
  1 33  1  0
  1 34  1  0
  4 35  1  0
  5 36  1  0
  7 37  1  0
 10 38  1  0
 10 39  1  0
 11 40  1  0
 11 41  1  0
 12 42  1  1
 13 43  1  0
 17 44  1  0
 17 45  1  0
 19 46  1  0
 20 47  1  0
 23 48  1  0
 23 49  1  0
 23 50  1  0
 26 51  1  0
 26 52  1  0
 26 53  1  0
 27 54  1  0
 30 55  1  0
 31 56  1  0
M  END
$$$$
