
     RDKit          3D

 36 38  0  0  0  0  0  0  0  0999 V2000
    5.0892   -1.7329    0.9687 C   0  0  0  0  0  0  0  0  0  0  0  0
    4.7661   -0.8690   -0.1134 O   0  0  0  0  0  0  0  0  0  0  0  0
    3.4733   -0.4327   -0.1927 C   0  0  0  0  0  0  0  0  0  0  0  0
    2.4442   -0.7445    0.6937 C   0  0  0  0  0  0  0  0  0  0  0  0
    1.1534   -0.2293    0.4975 C   0  0  0  0  0  0  0  0  0  0  0  0
    0.8735    0.5965   -0.5970 C   0  0  0  0  0  0  0  0  0  0  0  0
   -0.4268    1.1448   -0.8363 N   0  0  0  0  0  0  0  0  0  0  0  0
   -0.5437    2.1883   -1.7076 N   0  0  0  0  0  0  0  0  0  0  0  0
   -1.8157    2.6072   -1.6172 C   0  0  0  0  0  0  0  0  0  0  0  0
   -2.3408    3.7879   -2.3890 C   0  0  0  0  0  0  0  0  0  0  0  0
   -2.2616    3.6077   -3.7338 F   0  0  0  0  0  0  0  0  0  0  0  0
   -3.6539    4.0254   -2.1115 F   0  0  0  0  0  0  0  0  0  0  0  0
   -1.6763    4.9375   -2.0988 F   0  0  0  0  0  0  0  0  0  0  0  0
   -2.5504    1.7745   -0.7474 C   0  0  0  0  0  0  0  0  0  0  0  0
   -1.6718    0.8035   -0.3023 C   0  0  0  0  0  0  0  0  0  0  0  0
   -2.0074   -0.3774    0.4876 C   0  0  0  0  0  0  0  0  0  0  0  0
   -2.5188   -0.2351    1.7846 C   0  0  0  0  0  0  0  0  0  0  0  0
   -2.8595   -1.3629    2.5363 C   0  0  0  0  0  0  0  0  0  0  0  0
   -2.7004   -2.6345    1.9887 C   0  0  0  0  0  0  0  0  0  0  0  0
   -3.1172   -4.0220    2.9157 Cl  0  0  0  0  0  0  0  0  0  0  0  0
   -2.2082   -2.7888    0.6944 C   0  0  0  0  0  0  0  0  0  0  0  0
   -1.8673   -1.6615   -0.0577 C   0  0  0  0  0  0  0  0  0  0  0  0
    1.9208    0.9255   -1.4723 C   0  0  0  0  0  0  0  0  0  0  0  0
    3.2045    0.4082   -1.2719 C   0  0  0  0  0  0  0  0  0  0  0  0
    6.1485   -1.9940    0.8833 H   0  0  0  0  0  0  0  0  0  0  0  0
    4.5121   -2.6621    0.9184 H   0  0  0  0  0  0  0  0  0  0  0  0
    4.9469   -1.2300    1.9309 H   0  0  0  0  0  0  0  0  0  0  0  0
    2.6105   -1.3785    1.5588 H   0  0  0  0  0  0  0  0  0  0  0  0
    0.4107   -0.4705    1.2490 H   0  0  0  0  0  0  0  0  0  0  0  0
   -3.6074    1.8382   -0.5211 H   0  0  0  0  0  0  0  0  0  0  0  0
   -2.6490    0.7529    2.2215 H   0  0  0  0  0  0  0  0  0  0  0  0
   -3.2495   -1.2421    3.5437 H   0  0  0  0  0  0  0  0  0  0  0  0
   -2.0911   -3.7798    0.2634 H   0  0  0  0  0  0  0  0  0  0  0  0
   -1.4937   -1.7945   -1.0714 H   0  0  0  0  0  0  0  0  0  0  0  0
    1.7560    1.5771   -2.3289 H   0  0  0  0  0  0  0  0  0  0  0  0
    4.0010    0.6669   -1.9658 H   0  0  0  0  0  0  0  0  0  0  0  0
  1  2  1  0
  2  3  1  0
  3  4  2  0
  4  5  1  0
  5  6  2  0
  6  7  1  0
  7  8  1  0
  8  9  2  0
  9 10  1  0
 10 11  1  0
 10 12  1  0
 10 13  1  0
  9 14  1  0
 14 15  2  0
 15 16  1  0
 16 17  2  0
 17 18  1  0
 18 19  2  0
 19 20  1  0
 19 21  1  0
 21 22  2  0
  6 23  1  0
 23 24  2  0
 24  3  1  0
 15  7  1  0
 22 16  1  0
  1 25  1  0
  1 26  1  0
  1 27  1  0
  4 28  1  0
  5 29  1  0
 14 30  1  0
 17 31  1  0
 18 32  1  0
 21 33  1  0
 22 34  1  0
 23 35  1  0
 24 36  1  0
M  END
$$$$
