
     RDKit          3D

 35 36  0  0  0  0  0  0  0  0999 V2000
   -5.3905   -2.0756   -1.3202 C   0  0  0  0  0  0  0  0  0  0  0  0
   -4.8288   -1.8539    0.0716 C   0  0  0  0  0  0  0  0  0  0  0  0
   -3.5131   -1.2884   -0.0100 O   0  0  0  0  0  0  0  0  0  0  0  0
   -3.4482    0.0734   -0.1059 C   0  0  0  0  0  0  0  0  0  0  0  0
   -4.4362    0.7994   -0.1252 O   0  0  0  0  0  0  0  0  0  0  0  0
   -2.0676    0.5398   -0.1837 C   0  0  0  0  0  0  0  0  0  0  0  0
   -0.7450   -0.5591   -0.1491 S   0  0  0  0  0  0  0  0  0  0  0  0
    0.3923    0.6868   -0.2774 C   0  0  0  0  0  0  0  0  0  0  0  0
    1.6937    0.2503   -0.2872 N   0  0  0  0  0  0  0  0  0  0  0  0
    2.7895    1.0835   -0.4256 C   0  0  0  0  0  0  0  0  0  0  0  0
    2.7187    2.2968   -0.6012 O   0  0  0  0  0  0  0  0  0  0  0  0
    4.0601    0.3642   -0.3701 C   0  0  0  0  0  0  0  0  0  0  0  0
    5.2723    0.7932   -1.5069 S   0  0  0  0  0  0  0  0  0  0  0  0
    6.3448   -0.3918   -0.9162 C   0  0  0  0  0  0  0  0  0  0  0  0
    5.8105   -1.0843    0.1449 C   0  0  0  0  0  0  0  0  0  0  0  0
    4.4871   -0.6446    0.4889 C   0  0  0  0  0  0  0  0  0  0  0  0
    3.7209   -1.2039    1.6451 C   0  0  0  0  0  0  0  0  0  0  0  0
   -0.1879    1.9253   -0.3437 C   0  0  0  0  0  0  0  0  0  0  0  0
   -1.6228    1.8567   -0.2916 C   0  0  0  0  0  0  0  0  0  0  0  0
   -2.5039    3.0646   -0.3491 C   0  0  0  0  0  0  0  0  0  0  0  0
   -5.4984   -1.1276   -1.8565 H   0  0  0  0  0  0  0  0  0  0  0  0
   -6.3687   -2.5620   -1.2706 H   0  0  0  0  0  0  0  0  0  0  0  0
   -4.7143   -2.7011   -1.9123 H   0  0  0  0  0  0  0  0  0  0  0  0
   -4.7313   -2.8158    0.5855 H   0  0  0  0  0  0  0  0  0  0  0  0
   -5.4947   -1.2316    0.6802 H   0  0  0  0  0  0  0  0  0  0  0  0
    1.8337   -0.7492   -0.2506 H   0  0  0  0  0  0  0  0  0  0  0  0
    7.3209   -0.5161   -1.3651 H   0  0  0  0  0  0  0  0  0  0  0  0
    6.3529   -1.8638    0.6680 H   0  0  0  0  0  0  0  0  0  0  0  0
    3.0392   -1.9896    1.3051 H   0  0  0  0  0  0  0  0  0  0  0  0
    3.1399   -0.4246    2.1484 H   0  0  0  0  0  0  0  0  0  0  0  0
    4.3977   -1.6402    2.3874 H   0  0  0  0  0  0  0  0  0  0  0  0
    0.3683    2.8521   -0.4277 H   0  0  0  0  0  0  0  0  0  0  0  0
   -1.9123    3.9821   -0.4337 H   0  0  0  0  0  0  0  0  0  0  0  0
   -3.1106    3.1407    0.5589 H   0  0  0  0  0  0  0  0  0  0  0  0
   -3.1683    3.0141   -1.2176 H   0  0  0  0  0  0  0  0  0  0  0  0
  1  2  1  0
  2  3  1  0
  3  4  1  0
  4  5  2  0
  4  6  1  0
  6  7  1  0
  7  8  1  0
  8  9  1  0
  9 10  1  0
 10 11  2  0
 10 12  1  0
 12 13  1  0
 13 14  1  0
 14 15  2  0
 15 16  1  0
 16 17  1  0
  8 18  2  0
 18 19  1  0
 19 20  1  0
 19  6  2  0
 16 12  2  0
  1 21  1  0
  1 22  1  0
  1 23  1  0
  2 24  1  0
  2 25  1  0
  9 26  1  0
 14 27  1  0
 15 28  1  0
 17 29  1  0
 17 30  1  0
 17 31  1  0
 18 32  1  0
 20 33  1  0
 20 34  1  0
 20 35  1  0
M  END
$$$$
