
     RDKit          3D

 43 45  0  0  0  0  0  0  0  0999 V2000
   -2.2947   -0.5650   -2.7541 O   0  0  0  0  0  0  0  0  0  0  0  0
   -2.0574   -0.9474   -1.6139 C   0  0  0  0  0  0  0  0  0  0  0  0
   -2.9699   -0.8875   -0.5820 N   0  0  0  0  0  0  0  0  0  0  0  0
   -4.2583   -0.2541   -0.7559 C   0  0  0  0  0  0  0  0  0  0  0  0
   -4.2190    1.1721   -0.2771 C   0  0  0  0  0  0  0  0  0  0  0  0
   -4.6586    1.5172    1.0038 C   0  0  0  0  0  0  0  0  0  0  0  0
   -4.5715    2.8431    1.4004 C   0  0  0  0  0  0  0  0  0  0  0  0
   -4.0773    3.8299    0.6235 N   0  0  0  0  0  0  0  0  0  0  0  0
   -3.6532    3.4757   -0.6085 C   0  0  0  0  0  0  0  0  0  0  0  0
   -3.7006    2.1799   -1.0962 C   0  0  0  0  0  0  0  0  0  0  0  0
   -0.7048   -1.4686   -1.2708 C   0  0  0  0  0  0  0  0  0  0  0  0
    0.3854   -1.0462   -2.0431 C   0  0  0  0  0  0  0  0  0  0  0  0
    1.6751   -1.4978   -1.7510 C   0  0  0  0  0  0  0  0  0  0  0  0
    1.8776   -2.3792   -0.6894 C   0  0  0  0  0  0  0  0  0  0  0  0
    3.2003   -2.7903   -0.3716 N   0  0  0  0  0  0  0  0  0  0  0  0
    3.8935   -2.2750    1.0831 S   0  0  0  0  0  6  0  0  0  0  0  0
    5.3010   -2.6035    0.9958 O   0  0  0  0  0  0  0  0  0  0  0  0
    3.0826   -2.7345    2.1905 O   0  0  0  0  0  0  0  0  0  0  0  0
    3.7495   -0.5044    0.9863 C   0  0  0  0  0  0  0  0  0  0  0  0
    4.7289    0.2280    0.3078 C   0  0  0  0  0  0  0  0  0  0  0  0
    4.6172    1.6162    0.2339 C   0  0  0  0  0  0  0  0  0  0  0  0
    3.5402    2.2642    0.8418 C   0  0  0  0  0  0  0  0  0  0  0  0
    2.5751    1.5298    1.5335 C   0  0  0  0  0  0  0  0  0  0  0  0
    2.6803    0.1417    1.6147 C   0  0  0  0  0  0  0  0  0  0  0  0
    0.7940   -2.8201    0.0706 C   0  0  0  0  0  0  0  0  0  0  0  0
   -0.4978   -2.3716   -0.2206 C   0  0  0  0  0  0  0  0  0  0  0  0
   -2.6402   -0.9900    0.3668 H   0  0  0  0  0  0  0  0  0  0  0  0
   -4.9843   -0.8322   -0.1737 H   0  0  0  0  0  0  0  0  0  0  0  0
   -4.5752   -0.2963   -1.8041 H   0  0  0  0  0  0  0  0  0  0  0  0
   -5.0636    0.7756    1.6840 H   0  0  0  0  0  0  0  0  0  0  0  0
   -4.9062    3.1555    2.3855 H   0  0  0  0  0  0  0  0  0  0  0  0
   -3.2585    4.2860   -1.2146 H   0  0  0  0  0  0  0  0  0  0  0  0
   -3.3345    1.9581   -2.0948 H   0  0  0  0  0  0  0  0  0  0  0  0
    0.2323   -0.3552   -2.8705 H   0  0  0  0  0  0  0  0  0  0  0  0
    2.5084   -1.1431   -2.3511 H   0  0  0  0  0  0  0  0  0  0  0  0
    3.8852   -2.8211   -1.1251 H   0  0  0  0  0  0  0  0  0  0  0  0
    5.5773   -0.2697   -0.1559 H   0  0  0  0  0  0  0  0  0  0  0  0
    5.3726    2.1966   -0.2909 H   0  0  0  0  0  0  0  0  0  0  0  0
    3.4571    3.3474    0.7847 H   0  0  0  0  0  0  0  0  0  0  0  0
    1.7443    2.0421    2.0133 H   0  0  0  0  0  0  0  0  0  0  0  0
    1.9300   -0.4249    2.1613 H   0  0  0  0  0  0  0  0  0  0  0  0
    0.9447   -3.5248    0.8860 H   0  0  0  0  0  0  0  0  0  0  0  0
   -1.3270   -2.7566    0.3658 H   0  0  0  0  0  0  0  0  0  0  0  0
  1  2  2  0
  2  3  1  0
  3  4  1  0
  4  5  1  0
  5  6  2  0
  6  7  1  0
  7  8  2  0
  8  9  1  0
  9 10  2  0
  2 11  1  0
 11 12  2  0
 12 13  1  0
 13 14  2  0
 14 15  1  0
 15 16  1  0
 16 17  2  0
 16 18  2  0
 16 19  1  0
 19 20  2  0
 20 21  1  0
 21 22  2  0
 22 23  1  0
 23 24  2  0
 14 25  1  0
 25 26  2  0
 10  5  1  0
 26 11  1  0
 24 19  1  0
  3 27  1  0
  4 28  1  0
  4 29  1  0
  6 30  1  0
  7 31  1  0
  9 32  1  0
 10 33  1  0
 12 34  1  0
 13 35  1  0
 15 36  1  0
 20 37  1  0
 21 38  1  0
 22 39  1  0
 23 40  1  0
 24 41  1  0
 25 42  1  0
 26 43  1  0
M  END
$$$$
