
     RDKit          3D

 38 39  0  0  0  0  0  0  0  0999 V2000
    7.2166    0.4521   -0.6402 C   0  0  0  0  0  0  0  0  0  0  0  0
    6.1916    1.4375   -0.6379 O   0  0  0  0  0  0  0  0  0  0  0  0
    4.9174    1.0032   -0.3989 C   0  0  0  0  0  0  0  0  0  0  0  0
    3.9459    2.0055   -0.4132 C   0  0  0  0  0  0  0  0  0  0  0  0
    2.6003    1.7010   -0.1841 C   0  0  0  0  0  0  0  0  0  0  0  0
    2.2032    0.3811    0.0536 C   0  0  0  0  0  0  0  0  0  0  0  0
    0.8064    0.0169    0.3294 C   0  0  0  0  0  0  0  0  0  0  0  0
   -0.2468    0.5723   -0.2919 C   0  0  0  0  0  0  0  0  0  0  0  0
   -1.6435    0.2086   -0.0116 C   0  0  0  0  0  0  0  0  0  0  0  0
   -2.6098    1.2211    0.0210 C   0  0  0  0  0  0  0  0  0  0  0  0
   -3.9544    0.9252    0.2575 C   0  0  0  0  0  0  0  0  0  0  0  0
   -4.7850    2.0124    0.2715 O   0  0  0  0  0  0  0  0  0  0  0  0
   -6.1642    1.7633    0.5137 C   0  0  0  0  0  0  0  0  0  0  0  0
   -4.3358   -0.4016    0.4522 C   0  0  0  0  0  0  0  0  0  0  0  0
   -3.3873   -1.4294    0.4061 C   0  0  0  0  0  0  0  0  0  0  0  0
   -3.9013   -2.6836    0.6023 O   0  0  0  0  0  0  0  0  0  0  0  0
   -2.9844   -3.7700    0.5640 C   0  0  0  0  0  0  0  0  0  0  0  0
   -2.0456   -1.1223    0.1692 C   0  0  0  0  0  0  0  0  0  0  0  0
    3.1833   -0.6184    0.0838 C   0  0  0  0  0  0  0  0  0  0  0  0
    4.5310   -0.3121   -0.1465 C   0  0  0  0  0  0  0  0  0  0  0  0
    8.1648    0.9566   -0.8497 H   0  0  0  0  0  0  0  0  0  0  0  0
    7.0515   -0.2878   -1.4304 H   0  0  0  0  0  0  0  0  0  0  0  0
    7.3046   -0.0281    0.3399 H   0  0  0  0  0  0  0  0  0  0  0  0
    4.2387    3.0360   -0.5992 H   0  0  0  0  0  0  0  0  0  0  0  0
    1.8745    2.5101   -0.1829 H   0  0  0  0  0  0  0  0  0  0  0  0
    0.6654   -0.7530    1.0841 H   0  0  0  0  0  0  0  0  0  0  0  0
   -0.1092    1.3457   -1.0440 H   0  0  0  0  0  0  0  0  0  0  0  0
   -2.3206    2.2593   -0.1294 H   0  0  0  0  0  0  0  0  0  0  0  0
   -6.6855    2.7252    0.4958 H   0  0  0  0  0  0  0  0  0  0  0  0
   -6.5962    1.1360   -0.2730 H   0  0  0  0  0  0  0  0  0  0  0  0
   -6.3176    1.3201    1.5033 H   0  0  0  0  0  0  0  0  0  0  0  0
   -5.3693   -0.6747    0.6380 H   0  0  0  0  0  0  0  0  0  0  0  0
   -3.5493   -4.6902    0.7417 H   0  0  0  0  0  0  0  0  0  0  0  0
   -2.2342   -3.6818    1.3567 H   0  0  0  0  0  0  0  0  0  0  0  0
   -2.5131   -3.8539   -0.4207 H   0  0  0  0  0  0  0  0  0  0  0  0
   -1.2978   -1.9055    0.1087 H   0  0  0  0  0  0  0  0  0  0  0  0
    2.9068   -1.6522    0.2790 H   0  0  0  0  0  0  0  0  0  0  0  0
    5.2490   -1.1246   -0.1196 H   0  0  0  0  0  0  0  0  0  0  0  0
  1  2  1  0
  2  3  1  0
  3  4  2  0
  4  5  1  0
  5  6  2  0
  6  7  1  0
  7  8  2  0
  8  9  1  0
  9 10  2  0
 10 11  1  0
 11 12  1  0
 12 13  1  0
 11 14  2  0
 14 15  1  0
 15 16  1  0
 16 17  1  0
 15 18  2  0
  6 19  1  0
 19 20  2  0
 20  3  1  0
 18  9  1  0
  1 21  1  0
  1 22  1  0
  1 23  1  0
  4 24  1  0
  5 25  1  0
  7 26  1  0
  8 27  1  0
 10 28  1  0
 13 29  1  0
 13 30  1  0
 13 31  1  0
 14 32  1  0
 17 33  1  0
 17 34  1  0
 17 35  1  0
 18 36  1  0
 19 37  1  0
 20 38  1  0
M  END
$$$$
