
     RDKit          3D

 65 68  0  0  0  0  0  0  0  0999 V2000
   -1.1314   -5.7885   -0.6041 C   0  0  0  0  0  0  0  0  0  0  0  0
   -1.0657   -4.3965   -0.0866 C   0  0  0  0  0  0  0  0  0  0  0  0
   -1.8035   -4.0674    0.8106 O   0  0  0  0  0  0  0  0  0  0  0  0
   -0.1068   -3.3977   -0.6531 C   0  0  2  0  0  0  0  0  0  0  0  0
    0.6479   -3.9764   -1.6729 O   0  0  0  0  0  0  0  0  0  0  0  0
    0.8583   -3.0489    0.4614 C   0  0  0  0  0  0  0  0  0  0  0  0
    1.4678   -1.7035    0.2476 C   0  0  0  0  0  0  0  0  0  0  0  0
    2.8001   -1.4775    0.3615 C   0  0  0  0  0  0  0  0  0  0  0  0
    3.7316   -2.4300    0.6872 O   0  0  0  0  0  0  0  0  0  0  0  0
    3.2758   -0.1804    0.1333 C   0  0  0  0  0  0  0  0  0  0  0  0
    2.4147    0.8224   -0.1942 C   0  0  0  0  0  0  0  0  0  0  0  0
    1.0389    0.5893   -0.3117 C   0  0  0  0  0  0  0  0  0  0  0  0
    0.1458    1.5577   -0.6362 O   0  0  0  0  0  0  0  0  0  0  0  0
    0.5814   -0.7024   -0.0821 C   0  0  0  0  0  0  0  0  0  0  0  0
   -0.8411   -1.0762   -0.1701 C   0  0  1  0  0  0  0  0  0  0  0  0
   -1.6983   -0.0682   -0.5262 O   0  0  0  0  0  0  0  0  0  0  0  0
   -2.7506    0.0834    0.4030 C   0  0  1  0  0  0  0  0  0  0  0  0
   -2.6356    1.4179    1.0229 C   0  0  0  0  0  0  0  0  0  0  0  0
   -3.0388    2.4467   -0.0427 C   0  0  2  0  0  0  0  0  0  0  0  0
   -2.8314    3.7875    0.4020 N   0  0  0  0  0  0  0  0  0  0  0  0
   -4.5268    2.1323   -0.2522 C   0  0  2  0  0  0  0  0  0  0  0  0
   -5.0990    2.2111    1.0314 O   0  0  0  0  0  0  0  0  0  0  0  0
   -4.6861    0.7384   -0.7344 C   0  0  2  0  0  0  0  0  0  0  0  0
   -6.1537    0.3435   -0.5167 C   0  0  0  0  0  0  0  0  0  0  0  0
   -3.9032   -0.2126   -0.2362 O   0  0  0  0  0  0  0  0  0  0  0  0
   -0.8876   -2.2413   -1.1792 C   0  0  0  0  0  0  0  0  0  0  0  0
    2.9674    2.1607   -0.4225 C   0  0  0  0  0  0  0  0  0  0  0  0
    2.2170    3.1063   -0.7238 O   0  0  0  0  0  0  0  0  0  0  0  0
    4.4089    2.4118   -0.3013 C   0  0  0  0  0  0  0  0  0  0  0  0
    4.9214    3.6809   -0.5194 C   0  0  0  0  0  0  0  0  0  0  0  0
    6.2797    3.9069   -0.4030 C   0  0  0  0  0  0  0  0  0  0  0  0
    7.1485    2.8963   -0.0728 C   0  0  0  0  0  0  0  0  0  0  0  0
    6.6396    1.6360    0.1438 C   0  0  0  0  0  0  0  0  0  0  0  0
    5.2718    1.4052    0.0273 C   0  0  0  0  0  0  0  0  0  0  0  0
    4.7128    0.0848    0.2509 C   0  0  0  0  0  0  0  0  0  0  0  0
    5.4906   -0.8400    0.5509 O   0  0  0  0  0  0  0  0  0  0  0  0
    0.6885    0.0000    0.0000 Cl  0  0  0  0  0  0  0  0  0  0  0  0
   -2.0996   -5.8836   -1.1723 H   0  0  0  0  0  0  0  0  0  0  0  0
   -0.2539   -5.9617   -1.2678 H   0  0  0  0  0  0  0  0  0  0  0  0
   -1.1107   -6.4937    0.2556 H   0  0  0  0  0  0  0  0  0  0  0  0
    1.2070   -3.2533   -2.0508 H   0  0  0  0  0  0  0  0  0  0  0  0
    0.2539   -2.9459    1.4098 H   0  0  0  0  0  0  0  0  0  0  0  0
    1.6186   -3.8258    0.5645 H   0  0  0  0  0  0  0  0  0  0  0  0
    3.4884   -3.3645    0.8650 H   0  0  0  0  0  0  0  0  0  0  0  0
    0.1640    2.4972   -0.8423 H   0  0  0  0  0  0  0  0  0  0  0  0
   -1.1385   -1.5652    0.8021 H   0  0  0  0  0  0  0  0  0  0  0  0
   -2.5741   -0.6872    1.1872 H   0  0  0  0  0  0  0  0  0  0  0  0
   -1.6460    1.6108    1.4310 H   0  0  0  0  0  0  0  0  0  0  0  0
   -3.4174    1.4755    1.8388 H   0  0  0  0  0  0  0  0  0  0  0  0
   -2.5008    2.2131   -0.9612 H   0  0  0  0  0  0  0  0  0  0  0  0
   -1.9433    4.1757    0.0218 H   0  0  0  0  0  0  0  0  0  0  0  0
   -2.9435    3.9183    1.4128 H   0  0  0  0  0  0  0  0  0  0  0  0
   -4.9023    2.8937   -0.9345 H   0  0  0  0  0  0  0  0  0  0  0  0
   -5.8541    2.8478    1.0583 H   0  0  0  0  0  0  0  0  0  0  0  0
   -4.5748    0.7609   -1.8599 H   0  0  0  0  0  0  0  0  0  0  0  0
   -6.5630    0.8888    0.3775 H   0  0  0  0  0  0  0  0  0  0  0  0
   -6.7812    0.6607   -1.3743 H   0  0  0  0  0  0  0  0  0  0  0  0
   -6.2678   -0.7343   -0.3932 H   0  0  0  0  0  0  0  0  0  0  0  0
   -1.9545   -2.4847   -1.3890 H   0  0  0  0  0  0  0  0  0  0  0  0
   -0.4576   -1.8513   -2.1108 H   0  0  0  0  0  0  0  0  0  0  0  0
    4.2338    4.4817   -0.7810 H   0  0  0  0  0  0  0  0  0  0  0  0
    6.6677    4.9030   -0.5759 H   0  0  0  0  0  0  0  0  0  0  0  0
    8.2148    3.0991    0.0130 H   0  0  0  0  0  0  0  0  0  0  0  0
    7.2740    0.8135    0.4036 H   0  0  0  0  0  0  0  0  0  0  0  0
   -0.6885    0.0000    0.0000 H   0  0  0  0  0  0  0  0  0  0  0  0
  1  2  1  0
  2  3  2  0
  2  4  1  0
  4  5  1  6
  4  6  1  0
  6  7  1  0
  7  8  2  0
  8  9  1  0
  8 10  1  0
 10 11  2  0
 11 12  1  0
 12 13  1  0
 12 14  2  0
 14 15  1  0
 15 16  1  0
 16 17  1  0
 17 18  1  0
 18 19  1  0
 19 20  1  0
 19 21  1  0
 21 22  1  0
 21 23  1  0
 23 24  1  0
 23 25  1  0
 15 26  1  0
 11 27  1  0
 27 28  2  0
 27 29  1  0
 29 30  2  0
 30 31  1  0
 31 32  2  0
 32 33  1  0
 33 34  2  0
 34 35  1  0
 35 36  2  0
 26  4  1  0
 34 29  1  0
 14  7  1  0
 25 17  1  0
 35 10  1  0
  1 38  1  0
  1 39  1  0
  1 40  1  0
  5 41  1  0
  6 42  1  0
  6 43  1  0
  9 44  1  0
 13 45  1  0
 15 46  1  1
 17 47  1  1
 18 48  1  0
 18 49  1  0
 19 50  1  6
 20 51  1  0
 20 52  1  0
 21 53  1  6
 22 54  1  0
 23 55  1  6
 24 56  1  0
 24 57  1  0
 24 58  1  0
 26 59  1  0
 26 60  1  0
 30 61  1  0
 31 62  1  0
 32 63  1  0
 33 64  1  0
 37 65  1  0
M  END
$$$$
