
     RDKit          3D

 56 58  0  0  0  0  0  0  0  0999 V2000
   -6.7249    3.1714   -1.2909 C   0  0  0  0  0  0  0  0  0  0  0  0
   -5.8266    1.9610   -1.0822 C   0  0  0  0  0  0  0  0  0  0  0  0
   -5.3581    1.7865    0.3728 C   0  0  0  0  0  0  0  0  0  0  0  0
   -6.5151    1.5391    1.3409 C   0  0  0  0  0  0  0  0  0  0  0  0
   -4.4101    0.6783    0.4547 N   0  0  0  0  0  0  0  0  0  0  0  0
   -3.0680    0.8538    0.1911 C   0  0  0  0  0  0  0  0  0  0  0  0
   -2.5516    1.9414   -0.0447 O   0  0  0  0  0  0  0  0  0  0  0  0
   -2.2127   -0.3640    0.2306 C   0  0  0  0  0  0  0  0  0  0  0  0
   -2.6953   -1.6264   -0.1264 C   0  0  0  0  0  0  0  0  0  0  0  0
   -1.8424   -2.7305   -0.0778 C   0  0  0  0  0  0  0  0  0  0  0  0
   -0.5000   -2.5777    0.3055 C   0  0  0  0  0  0  0  0  0  0  0  0
    0.3662   -3.7928    0.3641 C   0  0  0  0  0  0  0  0  0  0  0  0
   -0.1242   -4.8789    0.0613 O   0  0  0  0  0  0  0  0  0  0  0  0
    1.6822   -3.6305    0.7772 N   0  0  0  0  0  0  0  0  0  0  0  0
    2.5667   -4.7797    0.8765 C   0  0  0  0  0  0  0  0  0  0  0  0
    2.1480   -2.3612    1.0701 C   0  0  0  0  0  0  0  0  0  0  0  0
    3.3575   -2.0438    1.4761 N   0  0  0  0  0  0  0  0  0  0  0  0
    3.4090   -0.6847    1.6155 N   0  0  0  0  0  0  0  0  0  0  0  0
    2.2362   -0.1978    1.2750 C   0  0  0  0  0  0  0  0  0  0  0  0
    1.9629    1.5077    1.1938 S   0  0  0  0  0  0  0  0  0  0  0  0
    2.0110    1.7929   -0.5998 C   0  0  0  0  0  0  0  0  0  0  0  0
    3.2435    1.2164   -1.2756 C   0  0  0  0  0  0  0  0  0  0  0  0
    3.1521    0.5717   -2.3187 O   0  0  0  0  0  0  0  0  0  0  0  0
    4.4479    1.5325   -0.6807 N   0  0  0  0  0  0  0  0  0  0  0  0
    5.7070    0.9972   -1.1825 C   0  0  0  0  0  0  0  0  0  0  0  0
    6.8656    1.8798   -0.7240 C   0  0  0  0  0  0  0  0  0  0  0  0
    5.9132   -0.4458   -0.7271 C   0  0  0  0  0  0  0  0  0  0  0  0
    1.3632   -1.2257    0.9748 N   0  0  0  0  0  0  0  0  0  0  0  0
   -0.0033   -1.3045    0.6288 C   0  0  0  0  0  0  0  0  0  0  0  0
   -0.8672   -0.2054    0.6073 C   0  0  0  0  0  0  0  0  0  0  0  0
   -6.9423    3.2970   -2.3567 H   0  0  0  0  0  0  0  0  0  0  0  0
   -7.6801    3.0586   -0.7708 H   0  0  0  0  0  0  0  0  0  0  0  0
   -6.2404    4.0861   -0.9351 H   0  0  0  0  0  0  0  0  0  0  0  0
   -6.3494    1.0576   -1.4218 H   0  0  0  0  0  0  0  0  0  0  0  0
   -4.9496    2.0703   -1.7342 H   0  0  0  0  0  0  0  0  0  0  0  0
   -4.8346    2.6991    0.6869 H   0  0  0  0  0  0  0  0  0  0  0  0
   -7.1849    2.4028    1.3949 H   0  0  0  0  0  0  0  0  0  0  0  0
   -6.1384    1.3522    2.3531 H   0  0  0  0  0  0  0  0  0  0  0  0
   -7.1040    0.6631    1.0433 H   0  0  0  0  0  0  0  0  0  0  0  0
   -4.7753   -0.2436    0.6519 H   0  0  0  0  0  0  0  0  0  0  0  0
   -3.7175   -1.7692   -0.4660 H   0  0  0  0  0  0  0  0  0  0  0  0
   -2.2268   -3.7138   -0.3498 H   0  0  0  0  0  0  0  0  0  0  0  0
    3.4032   -4.6457    0.1835 H   0  0  0  0  0  0  0  0  0  0  0  0
    2.9456   -4.8498    1.9009 H   0  0  0  0  0  0  0  0  0  0  0  0
    2.0511   -5.7120    0.6306 H   0  0  0  0  0  0  0  0  0  0  0  0
    1.9869    2.8707   -0.7899 H   0  0  0  0  0  0  0  0  0  0  0  0
    1.1210    1.3501   -1.0587 H   0  0  0  0  0  0  0  0  0  0  0  0
    4.4081    1.7618    0.3078 H   0  0  0  0  0  0  0  0  0  0  0  0
    5.6662    1.0131   -2.2793 H   0  0  0  0  0  0  0  0  0  0  0  0
    6.9411    1.9014    0.3706 H   0  0  0  0  0  0  0  0  0  0  0  0
    6.7253    2.9121   -1.0647 H   0  0  0  0  0  0  0  0  0  0  0  0
    7.8179    1.5171   -1.1264 H   0  0  0  0  0  0  0  0  0  0  0  0
    5.0900   -1.0893   -1.0603 H   0  0  0  0  0  0  0  0  0  0  0  0
    5.9645   -0.5121    0.3662 H   0  0  0  0  0  0  0  0  0  0  0  0
    6.8447   -0.8517   -1.1362 H   0  0  0  0  0  0  0  0  0  0  0  0
   -0.5547    0.7938    0.8907 H   0  0  0  0  0  0  0  0  0  0  0  0
  1  2  1  0
  2  3  1  0
  3  4  1  0
  3  5  1  0
  5  6  1  0
  6  7  2  0
  6  8  1  0
  8  9  2  0
  9 10  1  0
 10 11  2  0
 11 12  1  0
 12 13  2  0
 12 14  1  0
 14 15  1  0
 14 16  1  0
 16 17  2  0
 17 18  1  0
 18 19  2  0
 19 20  1  0
 20 21  1  0
 21 22  1  0
 22 23  2  0
 22 24  1  0
 24 25  1  0
 25 26  1  0
 25 27  1  0
 19 28  1  0
 28 29  1  0
 29 30  2  0
 30  8  1  0
 29 11  1  0
 28 16  1  0
  1 31  1  0
  1 32  1  0
  1 33  1  0
  2 34  1  0
  2 35  1  0
  3 36  1  0
  4 37  1  0
  4 38  1  0
  4 39  1  0
  5 40  1  0
  9 41  1  0
 10 42  1  0
 15 43  1  0
 15 44  1  0
 15 45  1  0
 21 46  1  0
 21 47  1  0
 24 48  1  0
 25 49  1  0
 26 50  1  0
 26 51  1  0
 26 52  1  0
 27 53  1  0
 27 54  1  0
 27 55  1  0
 30 56  1  0
M  END
$$$$
