
     RDKit          3D

 58 62  0  0  0  0  0  0  0  0999 V2000
    7.3911    2.2447    0.9184 C   0  0  0  0  0  0  0  0  0  0  0  0
    6.7114    0.9734    0.6837 C   0  0  0  0  0  0  0  0  0  0  0  0
    6.1658   -0.0783    0.4651 C   0  0  0  0  0  0  0  0  0  0  0  0
    5.5821   -1.3595    0.1417 C   0  0  0  0  0  0  0  0  0  0  0  0
    6.0328   -2.3309    0.7174 O   0  0  0  0  0  0  0  0  0  0  0  0
    4.6088   -1.4199   -0.8481 N   0  0  0  0  0  0  0  0  0  0  0  0
    4.1970   -2.6905   -1.4076 C   0  0  0  0  0  0  0  0  0  0  0  0
    3.2590   -2.3596   -2.5571 C   0  0  0  0  0  0  0  0  0  0  0  0
    3.5980   -0.9064   -2.8941 C   0  0  0  0  0  0  0  0  0  0  0  0
    3.9916   -0.2944   -1.5438 C   0  0  1  0  0  0  0  0  0  0  0  0
    2.7772    0.1754   -0.7762 C   0  0  0  0  0  0  0  0  0  0  0  0
    1.6235   -0.4834   -0.6894 N   0  0  0  0  0  0  0  0  0  0  0  0
    0.8011    0.2859    0.0910 C   0  0  0  0  0  0  0  0  0  0  0  0
   -0.5837   -0.0574    0.3155 C   0  0  0  0  0  0  0  0  0  0  0  0
   -1.5248    0.2586   -0.6743 C   0  0  0  0  0  0  0  0  0  0  0  0
   -2.8638   -0.1073   -0.5190 C   0  0  0  0  0  0  0  0  0  0  0  0
   -3.2725   -0.7957    0.6312 C   0  0  0  0  0  0  0  0  0  0  0  0
   -4.6790   -1.2640    0.7908 C   0  0  0  0  0  0  0  0  0  0  0  0
   -4.8821   -2.3325    1.3595 O   0  0  0  0  0  0  0  0  0  0  0  0
   -5.6303   -0.4103    0.2787 N   0  0  0  0  0  0  0  0  0  0  0  0
   -7.0080   -0.6095    0.1828 C   0  0  0  0  0  0  0  0  0  0  0  0
   -7.6575   -1.7837    0.5308 C   0  0  0  0  0  0  0  0  0  0  0  0
   -9.0403   -1.8616    0.3584 C   0  0  0  0  0  0  0  0  0  0  0  0
   -9.7306   -0.7713   -0.1520 C   0  0  0  0  0  0  0  0  0  0  0  0
   -9.0032    0.3558   -0.4725 C   0  0  0  0  0  0  0  0  0  0  0  0
   -7.6626    0.4597   -0.3184 N   0  0  0  0  0  0  0  0  0  0  0  0
   -2.3273   -1.1200    1.6336 C   0  0  0  0  0  0  0  0  0  0  0  0
   -0.9868   -0.7491    1.4739 C   0  0  0  0  0  0  0  0  0  0  0  0
    1.4475    1.4334    0.5030 C   0  0  0  0  0  0  0  0  0  0  0  0
    1.1057    2.5829    1.3099 C   0  0  0  0  0  0  0  0  0  0  0  0
   -0.0727    2.7098    1.9896 N   0  0  0  0  0  0  0  0  0  0  0  0
    1.9520    3.5903    1.4150 N   0  0  0  0  0  0  0  0  0  0  0  0
    3.1679    3.5169    0.7621 C   0  0  0  0  0  0  0  0  0  0  0  0
    3.5564    2.4645    0.0224 C   0  0  0  0  0  0  0  0  0  0  0  0
    2.6915    1.3843   -0.1018 N   0  0  0  0  0  0  0  0  0  0  0  0
    6.8549    3.0574    0.4255 H   0  0  0  0  0  0  0  0  0  0  0  0
    7.4426    2.4734    1.9820 H   0  0  0  0  0  0  0  0  0  0  0  0
    8.4114    2.2154    0.5233 H   0  0  0  0  0  0  0  0  0  0  0  0
    5.0963   -3.2065   -1.7435 H   0  0  0  0  0  0  0  0  0  0  0  0
    3.7098   -3.2850   -0.6395 H   0  0  0  0  0  0  0  0  0  0  0  0
    3.3951   -3.0241   -3.4160 H   0  0  0  0  0  0  0  0  0  0  0  0
    2.2157   -2.4628   -2.2224 H   0  0  0  0  0  0  0  0  0  0  0  0
    4.4620   -0.9018   -3.5711 H   0  0  0  0  0  0  0  0  0  0  0  0
    2.7795   -0.3770   -3.3940 H   0  0  0  0  0  0  0  0  0  0  0  0
    4.7115    0.5124   -1.6903 H   0  0  0  0  0  0  0  0  0  0  0  0
   -1.2066    0.7361   -1.5981 H   0  0  0  0  0  0  0  0  0  0  0  0
   -3.5595    0.0900   -1.3328 H   0  0  0  0  0  0  0  0  0  0  0  0
   -5.3652    0.5067   -0.0485 H   0  0  0  0  0  0  0  0  0  0  0  0
   -7.1251   -2.6405    0.9234 H   0  0  0  0  0  0  0  0  0  0  0  0
   -9.5691   -2.7723    0.6185 H   0  0  0  0  0  0  0  0  0  0  0  0
  -10.8050   -0.8003   -0.2988 H   0  0  0  0  0  0  0  0  0  0  0  0
   -9.4939    1.2340   -0.8767 H   0  0  0  0  0  0  0  0  0  0  0  0
   -2.6313   -1.6924    2.5152 H   0  0  0  0  0  0  0  0  0  0  0  0
   -0.2567   -1.0389    2.2239 H   0  0  0  0  0  0  0  0  0  0  0  0
   -0.2480    3.6587    2.2844 H   0  0  0  0  0  0  0  0  0  0  0  0
   -0.8815    2.2456    1.6042 H   0  0  0  0  0  0  0  0  0  0  0  0
    3.8196    4.3845    0.8816 H   0  0  0  0  0  0  0  0  0  0  0  0
    4.5083    2.4369   -0.4846 H   0  0  0  0  0  0  0  0  0  0  0  0
  1  2  1  0
  2  3  3  0
  3  4  1  0
  4  5  2  0
  4  6  1  0
  6  7  1  0
  7  8  1  0
  8  9  1  0
  9 10  1  0
 10 11  1  0
 11 12  2  0
 12 13  1  0
 13 14  1  0
 14 15  2  0
 15 16  1  0
 16 17  2  0
 17 18  1  0
 18 19  2  0
 18 20  1  0
 20 21  1  0
 21 22  2  0
 22 23  1  0
 23 24  2  0
 24 25  1  0
 25 26  2  0
 17 27  1  0
 27 28  2  0
 13 29  2  0
 29 30  1  0
 30 31  1  0
 30 32  2  0
 32 33  1  0
 33 34  2  0
 34 35  1  0
 10  6  1  0
 35 11  1  0
 28 14  1  0
 35 29  1  0
 26 21  1  0
  1 36  1  0
  1 37  1  0
  1 38  1  0
  7 39  1  0
  7 40  1  0
  8 41  1  0
  8 42  1  0
  9 43  1  0
  9 44  1  0
 10 45  1  6
 15 46  1  0
 16 47  1  0
 20 48  1  0
 22 49  1  0
 23 50  1  0
 24 51  1  0
 25 52  1  0
 27 53  1  0
 28 54  1  0
 31 55  1  0
 31 56  1  0
 33 57  1  0
 34 58  1  0
M  END
$$$$
