
     RDKit          3D

 31 33  0  0  0  0  0  0  0  0999 V2000
    5.7953   -0.5316   -0.2827 F   0  0  0  0  0  0  0  0  0  0  0  0
    5.5381    0.6458   -0.8916 C   0  0  0  0  0  0  0  0  0  0  0  0
    5.1569    0.4202   -2.1671 F   0  0  0  0  0  0  0  0  0  0  0  0
    6.6820    1.3648   -0.9159 F   0  0  0  0  0  0  0  0  0  0  0  0
    4.5534    1.3816   -0.1862 O   0  0  0  0  0  0  0  0  0  0  0  0
    3.3159    0.8220   -0.0491 C   0  0  0  0  0  0  0  0  0  0  0  0
    2.4022    1.6083    0.6597 C   0  0  0  0  0  0  0  0  0  0  0  0
    1.0950    1.1655    0.8795 C   0  0  0  0  0  0  0  0  0  0  0  0
    0.6821   -0.0763    0.3877 C   0  0  0  0  0  0  0  0  0  0  0  0
   -0.6891   -0.5590    0.6159 C   0  0  0  0  0  0  0  0  0  0  0  0
   -1.0015   -1.6892    1.4949 C   0  0  0  0  0  0  0  0  0  0  0  0
   -2.2636   -2.1203    1.6827 C   0  0  0  0  0  0  0  0  0  0  0  0
   -3.3316   -1.4682    1.0131 C   0  0  0  0  0  0  0  0  0  0  0  0
   -4.6298   -1.6670    1.0066 N   0  0  0  0  0  0  0  0  0  0  0  0
   -5.1934   -0.7320    0.1720 N   0  0  0  0  0  0  0  0  0  0  0  0
   -4.2258    0.0239   -0.3181 C   0  0  0  0  0  0  0  0  0  0  0  0
   -4.3355    1.1566   -1.2533 C   0  0  0  0  0  0  0  0  0  0  0  0
   -3.6324    0.9348   -2.3963 F   0  0  0  0  0  0  0  0  0  0  0  0
   -5.6109    1.4284   -1.6262 F   0  0  0  0  0  0  0  0  0  0  0  0
   -3.8330    2.3014   -0.7166 F   0  0  0  0  0  0  0  0  0  0  0  0
   -3.0175   -0.4005    0.1845 N   0  0  0  0  0  0  0  0  0  0  0  0
   -1.7127    0.0533   -0.0165 C   0  0  0  0  0  0  0  0  0  0  0  0
    1.5968   -0.8658   -0.3179 C   0  0  0  0  0  0  0  0  0  0  0  0
    2.9061   -0.4191   -0.5370 C   0  0  0  0  0  0  0  0  0  0  0  0
    2.7091    2.5769    1.0493 H   0  0  0  0  0  0  0  0  0  0  0  0
    0.4093    1.7955    1.4419 H   0  0  0  0  0  0  0  0  0  0  0  0
   -0.1756   -2.1771    2.0066 H   0  0  0  0  0  0  0  0  0  0  0  0
   -2.4895   -2.9553    2.3367 H   0  0  0  0  0  0  0  0  0  0  0  0
   -1.5697    0.8916   -0.6897 H   0  0  0  0  0  0  0  0  0  0  0  0
    1.2975   -1.8364   -0.7094 H   0  0  0  0  0  0  0  0  0  0  0  0
    3.5719   -1.0728   -1.0938 H   0  0  0  0  0  0  0  0  0  0  0  0
  1  2  1  0
  2  3  1  0
  2  4  1  0
  2  5  1  0
  5  6  1  0
  6  7  2  0
  7  8  1  0
  8  9  2  0
  9 10  1  0
 10 11  1  0
 11 12  2  0
 12 13  1  0
 13 14  2  0
 14 15  1  0
 15 16  2  0
 16 17  1  0
 17 18  1  0
 17 19  1  0
 17 20  1  0
 16 21  1  0
 21 22  1  0
  9 23  1  0
 23 24  2  0
 24  6  1  0
 22 10  2  0
 21 13  1  0
  7 25  1  0
  8 26  1  0
 11 27  1  0
 12 28  1  0
 22 29  1  0
 23 30  1  0
 24 31  1  0
M  END
$$$$
