
     RDKit          3D

 42 43  0  0  0  0  0  0  0  0999 V2000
    0.6845    0.0000    0.0000 Cl  0  0  0  0  0  0  0  0  0  0  0  0
    0.6905    0.0000    0.0000 Cl  0  0  0  0  0  0  0  0  0  0  0  0
    4.2442   -2.3479   -0.2028 C   0  0  0  0  0  0  0  0  0  0  0  0
    5.0570   -1.2683   -0.4801 C   0  0  0  0  0  0  0  0  0  0  0  0
    4.4688   -0.0459   -0.7471 C   0  0  0  0  0  0  0  0  0  0  0  0
    3.1096    0.0540   -0.7282 C   0  0  0  0  0  0  0  0  0  0  0  0
    2.2539   -0.9909   -0.4577 C   0  0  0  0  0  0  0  0  0  0  0  0
    2.8498   -2.2278   -0.1875 C   0  0  0  0  0  0  0  0  0  0  0  0
    0.8570   -1.0704   -0.3969 N   0  0  0  0  0  0  0  0  0  0  0  0
   -0.0162   -0.1695   -0.1225 C   0  0  0  0  0  0  0  0  0  0  0  0
   -1.4000   -0.5757   -0.1438 N   0  0  0  0  0  0  0  0  0  0  0  0
   -1.8269   -1.5123    0.8575 C   0  0  0  0  0  0  0  0  0  0  0  0
   -3.3046   -1.4087    1.1488 C   0  0  0  0  0  0  0  0  0  0  0  0
   -4.1150   -1.3070   -0.0173 N   0  0  0  0  0  0  0  0  0  0  0  0
   -3.4126   -1.1953   -1.2519 C   0  0  0  0  0  0  0  0  0  0  0  0
   -2.3575   -0.0984   -1.1037 C   0  0  0  0  0  0  0  0  0  0  0  0
    0.1533    1.2172    0.2122 C   0  0  0  0  0  0  0  0  0  0  0  0
   -0.8924    1.6965    0.9976 C   0  0  0  0  0  0  0  0  0  0  0  0
   -0.9331    3.0056    1.4334 C   0  0  0  0  0  0  0  0  0  0  0  0
    0.0841    3.8624    1.0850 C   0  0  0  0  0  0  0  0  0  0  0  0
    1.1406    3.4187    0.3043 C   0  0  0  0  0  0  0  0  0  0  0  0
    1.1595    2.1122   -0.1175 C   0  0  0  0  0  0  0  0  0  0  0  0
    2.6052    1.7474   -1.1061 S   0  0  0  0  0  0  0  0  0  0  0  0
   -0.6845    0.0000    0.0000 H   0  0  0  0  0  0  0  0  0  0  0  0
   -0.6905    0.0000    0.0000 H   0  0  0  0  0  0  0  0  0  0  0  0
    4.7338   -3.2949    0.0030 H   0  0  0  0  0  0  0  0  0  0  0  0
    6.1385   -1.3435   -0.4961 H   0  0  0  0  0  0  0  0  0  0  0  0
    5.1259    0.7880   -0.9622 H   0  0  0  0  0  0  0  0  0  0  0  0
    2.2489   -3.0983    0.0343 H   0  0  0  0  0  0  0  0  0  0  0  0
   -1.2731   -1.3044    1.7890 H   0  0  0  0  0  0  0  0  0  0  0  0
   -1.6480   -2.5518    0.4983 H   0  0  0  0  0  0  0  0  0  0  0  0
   -3.4655   -0.5381    1.8419 H   0  0  0  0  0  0  0  0  0  0  0  0
   -3.5913   -2.3165    1.7177 H   0  0  0  0  0  0  0  0  0  0  0  0
   -4.7646   -0.4970    0.0848 H   0  0  0  0  0  0  0  0  0  0  0  0
   -2.9001   -2.1168   -1.5695 H   0  0  0  0  0  0  0  0  0  0  0  0
   -4.1287   -0.8236   -2.0225 H   0  0  0  0  0  0  0  0  0  0  0  0
   -2.9102    0.8062   -0.7898 H   0  0  0  0  0  0  0  0  0  0  0  0
   -1.8404    0.0856   -2.0654 H   0  0  0  0  0  0  0  0  0  0  0  0
   -1.6918    0.9966    1.2635 H   0  0  0  0  0  0  0  0  0  0  0  0
   -1.7528    3.3826    2.0494 H   0  0  0  0  0  0  0  0  0  0  0  0
    0.0378    4.8669    1.4285 H   0  0  0  0  0  0  0  0  0  0  0  0
    1.9571    4.0630    0.0109 H   0  0  0  0  0  0  0  0  0  0  0  0
  3  4  2  0
  4  5  1  0
  5  6  2  0
  6  7  1  0
  7  8  2  0
  7  9  1  0
  9 10  2  0
 10 11  1  0
 11 12  1  0
 12 13  1  0
 13 14  1  0
 14 15  1  0
 15 16  1  0
 10 17  1  0
 17 18  2  0
 18 19  1  0
 19 20  2  0
 20 21  1  0
 21 22  2  0
 22 23  1  0
  8  3  1  0
 16 11  1  0
 22 17  1  0
 23  6  1  0
  1 24  1  0
  2 25  1  0
  3 26  1  0
  4 27  1  0
  5 28  1  0
  8 29  1  0
 12 30  1  0
 12 31  1  0
 13 32  1  0
 13 33  1  0
 14 34  1  0
 15 35  1  0
 15 36  1  0
 16 37  1  0
 16 38  1  0
 18 39  1  0
 19 40  1  0
 20 41  1  0
 21 42  1  0
M  END
$$$$
