
     RDKit          3D

 46 48  0  0  0  0  0  0  0  0999 V2000
    6.5694   -2.8796   -0.8883 C   0  0  0  0  0  0  0  0  0  0  0  0
    5.5631   -1.8815   -0.3960 C   0  0  0  0  0  0  0  0  0  0  0  0
    5.8314   -0.9452    0.3445 O   0  0  0  0  0  0  0  0  0  0  0  0
    4.3216   -2.2022   -0.9313 O   0  0  0  0  0  0  0  0  0  0  0  0
    3.2961   -1.3443   -0.5287 C   0  0  0  0  0  0  0  0  0  0  0  0
    2.7760   -0.4520   -1.4609 C   0  0  0  0  0  0  0  0  0  0  0  0
    1.7185    0.3823   -1.0937 C   0  0  0  0  0  0  0  0  0  0  0  0
    1.1749    0.3271    0.2028 C   0  0  0  0  0  0  0  0  0  0  0  0
    0.0115    1.2251    0.6445 C   0  0  0  0  0  0  0  0  0  0  0  0
   -1.3401    0.5028    0.6128 C   0  0  0  0  0  0  0  0  0  0  0  0
   -2.1347    0.4497    1.7740 C   0  0  0  0  0  0  0  0  0  0  0  0
   -3.3620   -0.2155    1.7700 C   0  0  0  0  0  0  0  0  0  0  0  0
   -3.7940   -0.8402    0.6029 C   0  0  0  0  0  0  0  0  0  0  0  0
   -5.0402   -1.4691    0.5583 O   0  0  0  0  0  0  0  0  0  0  0  0
   -5.0819   -2.6891    1.2236 C   0  0  0  0  0  0  0  0  0  0  0  0
   -6.4694   -3.2484    1.1089 C   0  0  0  0  0  0  0  0  0  0  0  0
   -4.1674   -3.2413    1.8196 O   0  0  0  0  0  0  0  0  0  0  0  0
   -3.0446   -0.7790   -0.5674 C   0  0  0  0  0  0  0  0  0  0  0  0
   -1.8184   -0.1125   -0.5587 C   0  0  0  0  0  0  0  0  0  0  0  0
    0.0011    2.6153   -0.0103 C   0  0  0  0  0  0  0  0  0  0  0  0
    0.7920    3.6318    0.5333 C   0  0  0  0  0  0  0  0  0  0  0  0
    0.8098    4.8825   -0.0784 C   0  0  0  0  0  0  0  0  0  0  0  0
    0.0469    5.0931   -1.2185 C   0  0  0  0  0  0  0  0  0  0  0  0
   -0.7000    4.0365   -1.7070 C   0  0  0  0  0  0  0  0  0  0  0  0
   -0.7310    2.8111   -1.1397 N   0  0  0  0  0  0  0  0  0  0  0  0
    1.6992   -0.6122    1.1128 C   0  0  0  0  0  0  0  0  0  0  0  0
    2.7546   -1.4493    0.7493 C   0  0  0  0  0  0  0  0  0  0  0  0
    7.5333   -2.6879   -0.4078 H   0  0  0  0  0  0  0  0  0  0  0  0
    6.6892   -2.7814   -1.9701 H   0  0  0  0  0  0  0  0  0  0  0  0
    6.2495   -3.8910   -0.6253 H   0  0  0  0  0  0  0  0  0  0  0  0
    3.1849   -0.4018   -2.4652 H   0  0  0  0  0  0  0  0  0  0  0  0
    1.3179    1.0736   -1.8334 H   0  0  0  0  0  0  0  0  0  0  0  0
    0.2081    1.4314    1.7088 H   0  0  0  0  0  0  0  0  0  0  0  0
   -1.8024    0.9275    2.6928 H   0  0  0  0  0  0  0  0  0  0  0  0
   -3.9663   -0.2481    2.6709 H   0  0  0  0  0  0  0  0  0  0  0  0
   -6.7483   -3.3414    0.0562 H   0  0  0  0  0  0  0  0  0  0  0  0
   -6.4956   -4.2425    1.5638 H   0  0  0  0  0  0  0  0  0  0  0  0
   -7.1744   -2.6017    1.6381 H   0  0  0  0  0  0  0  0  0  0  0  0
   -3.4052   -1.2412   -1.4808 H   0  0  0  0  0  0  0  0  0  0  0  0
   -1.2386   -0.0618   -1.4779 H   0  0  0  0  0  0  0  0  0  0  0  0
    1.3960    3.4541    1.4176 H   0  0  0  0  0  0  0  0  0  0  0  0
    1.4182    5.6836    0.3312 H   0  0  0  0  0  0  0  0  0  0  0  0
    0.0377    6.0553   -1.7171 H   0  0  0  0  0  0  0  0  0  0  0  0
   -1.3120    4.1483   -2.5971 H   0  0  0  0  0  0  0  0  0  0  0  0
    1.2791   -0.7007    2.1129 H   0  0  0  0  0  0  0  0  0  0  0  0
    3.1467   -2.1703    1.4597 H   0  0  0  0  0  0  0  0  0  0  0  0
  1  2  1  0
  2  3  2  0
  2  4  1  0
  4  5  1  0
  5  6  2  0
  6  7  1  0
  7  8  2  0
  8  9  1  0
  9 10  1  0
 10 11  2  0
 11 12  1  0
 12 13  2  0
 13 14  1  0
 14 15  1  0
 15 16  1  0
 15 17  2  0
 13 18  1  0
 18 19  2  0
  9 20  1  0
 20 21  2  0
 21 22  1  0
 22 23  2  0
 23 24  1  0
 24 25  2  0
  8 26  1  0
 26 27  2  0
 27  5  1  0
 19 10  1  0
 25 20  1  0
  1 28  1  0
  1 29  1  0
  1 30  1  0
  6 31  1  0
  7 32  1  0
  9 33  1  0
 11 34  1  0
 12 35  1  0
 16 36  1  0
 16 37  1  0
 16 38  1  0
 18 39  1  0
 19 40  1  0
 21 41  1  0
 22 42  1  0
 23 43  1  0
 24 44  1  0
 26 45  1  0
 27 46  1  0
M  END
$$$$
