
     RDKit          3D

 63 66  0  0  0  0  0  0  0  0999 V2000
    7.5275    1.5057   -1.1667 C   0  0  0  0  0  0  0  0  0  0  0  0
    6.2583    2.3201   -1.1857 C   0  0  0  0  0  0  0  0  0  0  0  0
    6.2707    3.4724   -1.6192 O   0  0  0  0  0  0  0  0  0  0  0  0
    5.1084    1.7098   -0.7016 N   0  0  0  0  0  0  0  0  0  0  0  0
    3.8784    2.4982   -0.6395 C   0  0  0  0  0  0  0  0  0  0  0  0
    2.9652    2.0158    0.4818 C   0  0  0  0  0  0  0  0  0  0  0  0
    2.5581    0.5428    0.2966 C   0  0  0  0  0  0  0  0  0  0  0  0
    1.2594    0.4444   -0.5080 C   0  0  0  0  0  0  0  0  0  0  0  0
    0.9197    1.3388   -1.2831 O   0  0  0  0  0  0  0  0  0  0  0  0
    0.5086   -0.7016   -0.3657 N   0  0  0  0  0  0  0  0  0  0  0  0
    0.6884   -1.7681    0.6038 C   0  0  0  0  0  0  0  0  0  0  0  0
   -0.4262   -2.7790    0.3010 C   0  0  1  0  0  0  0  0  0  0  0  0
   -0.7750   -3.6115    1.5337 C   0  0  0  0  0  0  0  0  0  0  0  0
   -2.0324   -4.4645    1.3867 C   0  0  0  0  0  0  0  0  0  0  0  0
   -3.3082   -3.7224    0.9969 C   0  0  0  0  0  0  0  0  0  0  0  0
   -3.3383   -2.2629    1.4175 C   0  0  0  0  0  0  0  0  0  0  0  0
   -4.1042   -1.8960    2.3076 O   0  0  0  0  0  0  0  0  0  0  0  0
   -2.4609   -1.4004    0.7564 N   0  0  0  0  0  0  0  0  0  0  0  0
   -2.4746    0.0166    1.1441 C   0  0  0  0  0  0  0  0  0  0  0  0
   -3.3072    0.8925    0.2344 C   0  0  0  0  0  0  0  0  0  0  0  0
   -2.7511    2.0428   -0.3445 C   0  0  0  0  0  0  0  0  0  0  0  0
   -3.5168    2.8688   -1.1712 C   0  0  0  0  0  0  0  0  0  0  0  0
   -4.8597    2.5721   -1.4244 C   0  0  0  0  0  0  0  0  0  0  0  0
   -5.6713    3.4704   -2.3092 C   0  0  0  0  0  0  0  0  0  0  0  0
   -5.4257    1.4393   -0.8326 C   0  0  0  0  0  0  0  0  0  0  0  0
   -4.6583    0.6115   -0.0082 C   0  0  0  0  0  0  0  0  0  0  0  0
   -1.5491   -1.8988   -0.2960 C   0  0  1  0  0  0  0  0  0  0  0  0
   -0.7283   -0.8833   -1.1101 C   0  0  0  0  0  0  0  0  0  0  0  0
    3.6541   -0.2773   -0.4052 C   0  0  0  0  0  0  0  0  0  0  0  0
    5.0438    0.3268   -0.2371 C   0  0  0  0  0  0  0  0  0  0  0  0
    7.6807    1.0497   -0.1852 H   0  0  0  0  0  0  0  0  0  0  0  0
    7.4897    0.7396   -1.9451 H   0  0  0  0  0  0  0  0  0  0  0  0
    8.3801    2.1621   -1.3657 H   0  0  0  0  0  0  0  0  0  0  0  0
    4.1222    3.5551   -0.4850 H   0  0  0  0  0  0  0  0  0  0  0  0
    3.3874    2.4151   -1.6156 H   0  0  0  0  0  0  0  0  0  0  0  0
    3.5018    2.1128    1.4351 H   0  0  0  0  0  0  0  0  0  0  0  0
    2.0862    2.6666    0.5562 H   0  0  0  0  0  0  0  0  0  0  0  0
    2.3749    0.1386    1.2989 H   0  0  0  0  0  0  0  0  0  0  0  0
    0.5947   -1.3325    1.6046 H   0  0  0  0  0  0  0  0  0  0  0  0
    1.6791   -2.2174    0.5051 H   0  0  0  0  0  0  0  0  0  0  0  0
   -0.0735   -3.4524   -0.4934 H   0  0  0  0  0  0  0  0  0  0  0  0
   -0.8861   -2.9636    2.4132 H   0  0  0  0  0  0  0  0  0  0  0  0
    0.0713   -4.2712    1.7648 H   0  0  0  0  0  0  0  0  0  0  0  0
   -1.8522   -5.2646    0.6586 H   0  0  0  0  0  0  0  0  0  0  0  0
   -2.2053   -4.9679    2.3467 H   0  0  0  0  0  0  0  0  0  0  0  0
   -3.4881   -3.7912   -0.0810 H   0  0  0  0  0  0  0  0  0  0  0  0
   -4.1690   -4.2264    1.4544 H   0  0  0  0  0  0  0  0  0  0  0  0
   -1.4401    0.3694    1.2030 H   0  0  0  0  0  0  0  0  0  0  0  0
   -2.8749    0.1228    2.1598 H   0  0  0  0  0  0  0  0  0  0  0  0
   -1.7082    2.3020   -0.1693 H   0  0  0  0  0  0  0  0  0  0  0  0
   -3.0558    3.7484   -1.6160 H   0  0  0  0  0  0  0  0  0  0  0  0
   -5.7207    4.4766   -1.8809 H   0  0  0  0  0  0  0  0  0  0  0  0
   -6.6963    3.1029   -2.4237 H   0  0  0  0  0  0  0  0  0  0  0  0
   -5.2216    3.5247   -3.3057 H   0  0  0  0  0  0  0  0  0  0  0  0
   -6.4716    1.1933   -1.0004 H   0  0  0  0  0  0  0  0  0  0  0  0
   -5.1321   -0.2508    0.4556 H   0  0  0  0  0  0  0  0  0  0  0  0
   -2.1606   -2.4726   -0.9998 H   0  0  0  0  0  0  0  0  0  0  0  0
   -1.2287    0.0577   -1.3284 H   0  0  0  0  0  0  0  0  0  0  0  0
   -0.4390   -1.3274   -2.0711 H   0  0  0  0  0  0  0  0  0  0  0  0
    3.6627   -1.3008   -0.0151 H   0  0  0  0  0  0  0  0  0  0  0  0
    3.4353   -0.3611   -1.4782 H   0  0  0  0  0  0  0  0  0  0  0  0
    5.3337    0.3264    0.8203 H   0  0  0  0  0  0  0  0  0  0  0  0
    5.7708   -0.2871   -0.7767 H   0  0  0  0  0  0  0  0  0  0  0  0
  1  2  1  0
  2  3  2  0
  2  4  1  0
  4  5  1  0
  5  6  1  0
  6  7  1  0
  7  8  1  0
  8  9  2  0
  8 10  1  0
 10 11  1  0
 11 12  1  0
 12 13  1  0
 13 14  1  0
 14 15  1  0
 15 16  1  0
 16 17  2  0
 16 18  1  0
 18 19  1  0
 19 20  1  0
 20 21  2  0
 21 22  1  0
 22 23  2  0
 23 24  1  0
 23 25  1  0
 25 26  2  0
 18 27  1  0
 27 28  1  0
  7 29  1  0
 29 30  1  0
 30  4  1  0
 28 10  1  0
 27 12  1  0
 26 20  1  0
  1 31  1  0
  1 32  1  0
  1 33  1  0
  5 34  1  0
  5 35  1  0
  6 36  1  0
  6 37  1  0
  7 38  1  0
 11 39  1  0
 11 40  1  0
 12 41  1  6
 13 42  1  0
 13 43  1  0
 14 44  1  0
 14 45  1  0
 15 46  1  0
 15 47  1  0
 19 48  1  0
 19 49  1  0
 21 50  1  0
 22 51  1  0
 24 52  1  0
 24 53  1  0
 24 54  1  0
 25 55  1  0
 26 56  1  0
 27 57  1  6
 28 58  1  0
 28 59  1  0
 29 60  1  0
 29 61  1  0
 30 62  1  0
 30 63  1  0
M  END
$$$$
