
     RDKit          3D

 51 53  0  0  0  0  0  0  0  0999 V2000
    3.3288    1.2781    2.6951 C   0  0  0  0  0  0  0  0  0  0  0  0
    4.0711    0.1206    2.0227 C   0  0  0  0  0  0  0  0  0  0  0  0
    4.9160    0.6493    0.8478 C   0  0  0  0  0  0  0  0  0  0  0  0
    4.9736   -0.3683   -0.2825 C   0  0  0  0  0  0  0  0  0  0  0  0
    3.5645   -0.7223   -0.7810 C   0  0  0  0  0  0  0  0  0  0  0  0
    2.5317   -0.6942    0.2708 N   0  0  0  0  0  0  0  0  0  0  0  0
    1.3916   -1.5689   -0.0400 C   0  0  0  0  0  0  0  0  0  0  0  0
    0.5698   -1.0935   -1.2651 C   0  0  0  0  0  0  0  0  0  0  0  0
    0.0891    0.3592   -1.1244 C   0  0  0  0  0  0  0  0  0  0  0  0
   -0.8949    0.5315    0.0335 C   0  0  0  0  0  0  0  0  0  0  0  0
   -1.8208   -0.6249    0.1347 N   0  0  0  0  0  0  0  0  0  0  0  0
   -3.1625   -0.4539    1.1552 S   0  0  0  0  0  6  0  0  0  0  0  0
   -3.8244   -1.7366    1.2615 O   0  0  0  0  0  0  0  0  0  0  0  0
   -2.7468    0.2748    2.3344 O   0  0  0  0  0  0  0  0  0  0  0  0
   -4.2433    0.6118    0.2292 C   0  0  0  0  0  0  0  0  0  0  0  0
   -4.2332    1.9886    0.4683 C   0  0  0  0  0  0  0  0  0  0  0  0
   -5.1082    2.8015   -0.2430 C   0  0  0  0  0  0  0  0  0  0  0  0
   -5.0954    4.1234   -0.0306 F   0  0  0  0  0  0  0  0  0  0  0  0
   -5.9953    2.2680   -1.1695 C   0  0  0  0  0  0  0  0  0  0  0  0
   -6.0074    0.8943   -1.3756 C   0  0  0  0  0  0  0  0  0  0  0  0
   -6.8641    0.3693   -2.2606 F   0  0  0  0  0  0  0  0  0  0  0  0
   -5.1459    0.0537   -0.6806 C   0  0  0  0  0  0  0  0  0  0  0  0
   -1.9819   -1.4015   -1.1060 C   0  0  0  0  0  0  0  0  0  0  0  0
   -0.6395   -2.0287   -1.4908 C   0  0  0  0  0  0  0  0  0  0  0  0
    3.1021   -0.9987    1.5863 C   0  0  0  0  0  0  0  0  0  0  0  0
    4.0320    2.0525    3.0194 H   0  0  0  0  0  0  0  0  0  0  0  0
    2.6038    1.7393    2.0158 H   0  0  0  0  0  0  0  0  0  0  0  0
    2.7863    0.9290    3.5801 H   0  0  0  0  0  0  0  0  0  0  0  0
    4.7522   -0.3121    2.7673 H   0  0  0  0  0  0  0  0  0  0  0  0
    4.4970    1.5858    0.4571 H   0  0  0  0  0  0  0  0  0  0  0  0
    5.9284    0.8841    1.1970 H   0  0  0  0  0  0  0  0  0  0  0  0
    5.4785   -1.2754    0.0738 H   0  0  0  0  0  0  0  0  0  0  0  0
    5.5727    0.0218   -1.1132 H   0  0  0  0  0  0  0  0  0  0  0  0
    3.6225   -1.7072   -1.2621 H   0  0  0  0  0  0  0  0  0  0  0  0
    3.2792   -0.0033   -1.5581 H   0  0  0  0  0  0  0  0  0  0  0  0
    0.7232   -1.6124    0.8291 H   0  0  0  0  0  0  0  0  0  0  0  0
    1.7389   -2.5979   -0.2047 H   0  0  0  0  0  0  0  0  0  0  0  0
    1.2105   -1.1622   -2.1534 H   0  0  0  0  0  0  0  0  0  0  0  0
   -0.4014    0.6576   -2.0607 H   0  0  0  0  0  0  0  0  0  0  0  0
    0.9287    1.0523   -0.9996 H   0  0  0  0  0  0  0  0  0  0  0  0
   -1.4466    1.4645   -0.1131 H   0  0  0  0  0  0  0  0  0  0  0  0
   -0.3406    0.6119    0.9755 H   0  0  0  0  0  0  0  0  0  0  0  0
   -3.5621    2.4347    1.1973 H   0  0  0  0  0  0  0  0  0  0  0  0
   -6.6736    2.9129   -1.7163 H   0  0  0  0  0  0  0  0  0  0  0  0
   -5.1930   -1.0185   -0.8496 H   0  0  0  0  0  0  0  0  0  0  0  0
   -2.7155   -2.2048   -0.9862 H   0  0  0  0  0  0  0  0  0  0  0  0
   -2.3432   -0.7472   -1.9082 H   0  0  0  0  0  0  0  0  0  0  0  0
   -0.6869   -2.3115   -2.5501 H   0  0  0  0  0  0  0  0  0  0  0  0
   -0.5037   -2.9671   -0.9384 H   0  0  0  0  0  0  0  0  0  0  0  0
    3.6248   -1.9646    1.5622 H   0  0  0  0  0  0  0  0  0  0  0  0
    2.3132   -1.0947    2.3429 H   0  0  0  0  0  0  0  0  0  0  0  0
  1  2  1  0
  2  3  1  0
  3  4  1  0
  4  5  1  0
  5  6  1  0
  6  7  1  0
  7  8  1  0
  8  9  1  0
  9 10  1  0
 10 11  1  0
 11 12  1  0
 12 13  2  0
 12 14  2  0
 12 15  1  0
 15 16  2  0
 16 17  1  0
 17 18  1  0
 17 19  2  0
 19 20  1  0
 20 21  1  0
 20 22  2  0
 11 23  1  0
 23 24  1  0
  6 25  1  0
 25  2  1  0
 24  8  1  0
 22 15  1  0
  1 26  1  0
  1 27  1  0
  1 28  1  0
  2 29  1  0
  3 30  1  0
  3 31  1  0
  4 32  1  0
  4 33  1  0
  5 34  1  0
  5 35  1  0
  7 36  1  0
  7 37  1  0
  8 38  1  0
  9 39  1  0
  9 40  1  0
 10 41  1  0
 10 42  1  0
 16 43  1  0
 19 44  1  0
 22 45  1  0
 23 46  1  0
 23 47  1  0
 24 48  1  0
 24 49  1  0
 25 50  1  0
 25 51  1  0
M  END
$$$$
