
     RDKit          3D

 58 61  0  0  0  0  0  0  0  0999 V2000
    7.0704   -3.0907    1.3681 C   0  0  0  0  0  0  0  0  0  0  0  0
    6.4528   -2.0549    2.1207 O   0  0  0  0  0  0  0  0  0  0  0  0
    5.4355   -1.3725    1.5113 C   0  0  0  0  0  0  0  0  0  0  0  0
    4.9870   -1.5614    0.2044 C   0  0  0  0  0  0  0  0  0  0  0  0
    3.9330   -0.7888   -0.2971 C   0  0  0  0  0  0  0  0  0  0  0  0
    3.3165    0.1856    0.4998 C   0  0  0  0  0  0  0  0  0  0  0  0
    2.1777    1.0171   -0.0472 C   0  0  0  0  0  0  0  0  0  0  0  0
    0.8115    0.3355   -0.0016 C   0  0  0  0  0  0  0  0  0  0  0  0
    0.6673   -0.7652    0.5317 O   0  0  0  0  0  0  0  0  0  0  0  0
   -0.2690    1.0104   -0.5958 N   0  0  0  0  0  0  0  0  0  0  0  0
   -0.1715    2.3761   -1.1685 C   0  0  0  0  0  0  0  0  0  0  0  0
   -0.4513    2.3977   -2.6769 C   0  0  0  0  0  0  0  0  0  0  0  0
   -0.3737    3.8254   -3.2002 C   0  0  0  0  0  0  0  0  0  0  0  0
   -1.2629    4.6732   -2.4756 O   0  0  0  0  0  0  0  0  0  0  0  0
   -0.9302    4.7613   -1.0906 C   0  0  0  0  0  0  0  0  0  0  0  0
   -1.0468    3.3962   -0.4264 C   0  0  0  0  0  0  0  0  0  0  0  0
   -1.5966    0.3646   -0.5908 C   0  0  0  0  0  0  0  0  0  0  0  0
   -1.6843   -0.9902   -1.3078 C   0  0  0  0  0  0  0  0  0  0  0  0
   -3.0004   -1.5640   -0.7921 C   0  0  0  0  0  0  0  0  0  0  0  0
   -3.1918   -0.9675    0.5201 N   0  0  0  0  0  0  0  0  0  0  0  0
   -4.1627   -1.2835    1.4410 C   0  0  0  0  0  0  0  0  0  0  0  0
   -4.2994   -0.7013    2.5106 O   0  0  0  0  0  0  0  0  0  0  0  0
   -5.0927   -2.3850    1.0691 C   0  0  0  0  0  0  0  0  0  0  0  0
   -5.6837   -3.2702    2.1445 C   0  0  0  0  0  0  0  0  0  0  0  0
   -4.6557   -3.8262    1.2079 C   0  0  0  0  0  0  0  0  0  0  0  0
   -2.2083    0.0694    0.7863 C   0  0  0  0  0  0  0  0  0  0  0  0
    3.7642    0.3641    1.8138 C   0  0  0  0  0  0  0  0  0  0  0  0
    4.8182   -0.4075    2.3101 C   0  0  0  0  0  0  0  0  0  0  0  0
    6.3488   -3.8688    1.0979 H   0  0  0  0  0  0  0  0  0  0  0  0
    7.5695   -2.6882    0.4801 H   0  0  0  0  0  0  0  0  0  0  0  0
    7.8358   -3.5521    1.9998 H   0  0  0  0  0  0  0  0  0  0  0  0
    5.4305   -2.3034   -0.4508 H   0  0  0  0  0  0  0  0  0  0  0  0
    3.5906   -0.9617   -1.3150 H   0  0  0  0  0  0  0  0  0  0  0  0
    2.4170    1.2682   -1.0878 H   0  0  0  0  0  0  0  0  0  0  0  0
    2.1184    1.9518    0.5235 H   0  0  0  0  0  0  0  0  0  0  0  0
    0.8542    2.7336   -1.0510 H   0  0  0  0  0  0  0  0  0  0  0  0
    0.2623    1.7581   -3.2085 H   0  0  0  0  0  0  0  0  0  0  0  0
   -1.4529    2.0048   -2.8836 H   0  0  0  0  0  0  0  0  0  0  0  0
   -0.6697    3.8524   -4.2536 H   0  0  0  0  0  0  0  0  0  0  0  0
    0.6461    4.2219   -3.1332 H   0  0  0  0  0  0  0  0  0  0  0  0
    0.0792    5.1753   -0.9819 H   0  0  0  0  0  0  0  0  0  0  0  0
   -1.6271    5.4639   -0.6229 H   0  0  0  0  0  0  0  0  0  0  0  0
   -2.0983    3.0888   -0.4519 H   0  0  0  0  0  0  0  0  0  0  0  0
   -0.7536    3.4586    0.6279 H   0  0  0  0  0  0  0  0  0  0  0  0
   -2.2996    1.0247   -1.1139 H   0  0  0  0  0  0  0  0  0  0  0  0
   -1.6751   -0.8886   -2.3977 H   0  0  0  0  0  0  0  0  0  0  0  0
   -0.8649   -1.6631   -1.0390 H   0  0  0  0  0  0  0  0  0  0  0  0
   -3.8418   -1.2608   -1.4248 H   0  0  0  0  0  0  0  0  0  0  0  0
   -2.9789   -2.6551   -0.7299 H   0  0  0  0  0  0  0  0  0  0  0  0
   -5.7585   -2.1374    0.2486 H   0  0  0  0  0  0  0  0  0  0  0  0
   -5.3928   -3.0869    3.1740 H   0  0  0  0  0  0  0  0  0  0  0  0
   -6.7123   -3.5897    2.0269 H   0  0  0  0  0  0  0  0  0  0  0  0
   -4.9828   -4.5312    0.4528 H   0  0  0  0  0  0  0  0  0  0  0  0
   -3.6672   -4.0268    1.6071 H   0  0  0  0  0  0  0  0  0  0  0  0
   -2.6849    0.9533    1.2231 H   0  0  0  0  0  0  0  0  0  0  0  0
   -1.4973   -0.3263    1.5167 H   0  0  0  0  0  0  0  0  0  0  0  0
    3.2954    1.0975    2.4655 H   0  0  0  0  0  0  0  0  0  0  0  0
    5.1567   -0.2607    3.3328 H   0  0  0  0  0  0  0  0  0  0  0  0
  1  2  1  0
  2  3  1  0
  3  4  2  0
  4  5  1  0
  5  6  2  0
  6  7  1  0
  7  8  1  0
  8  9  2  0
  8 10  1  0
 10 11  1  0
 11 12  1  0
 12 13  1  0
 13 14  1  0
 14 15  1  0
 15 16  1  0
 10 17  1  0
 17 18  1  0
 18 19  1  0
 19 20  1  0
 20 21  1  0
 21 22  2  0
 21 23  1  0
 23 24  1  0
 24 25  1  0
 20 26  1  0
  6 27  1  0
 27 28  2  0
 28  3  1  0
 16 11  1  0
 26 17  1  0
 25 23  1  0
  1 29  1  0
  1 30  1  0
  1 31  1  0
  4 32  1  0
  5 33  1  0
  7 34  1  0
  7 35  1  0
 11 36  1  0
 12 37  1  0
 12 38  1  0
 13 39  1  0
 13 40  1  0
 15 41  1  0
 15 42  1  0
 16 43  1  0
 16 44  1  0
 17 45  1  0
 18 46  1  0
 18 47  1  0
 19 48  1  0
 19 49  1  0
 23 50  1  0
 24 51  1  0
 24 52  1  0
 25 53  1  0
 25 54  1  0
 26 55  1  0
 26 56  1  0
 27 57  1  0
 28 58  1  0
M  END
$$$$
