
     RDKit          3D

 34 36  0  0  0  0  0  0  0  0999 V2000
    1.4720   -2.5034   -1.8769 O   0  0  0  0  0  0  0  0  0  0  0  0
    1.9066   -1.5437   -1.2321 C   0  0  0  0  0  0  0  0  0  0  0  0
    3.2192   -0.9152   -1.6368 C   0  0  0  0  0  0  0  0  0  0  0  0
    3.1037    0.8727   -1.7004 S   0  0  0  0  0  0  0  0  0  0  0  0
    2.4941    1.0962   -0.0433 C   0  0  0  0  0  0  0  0  0  0  0  0
    2.8223    2.3021    0.5956 C   0  0  0  0  0  0  0  0  0  0  0  0
    2.3615    2.5717    1.8803 C   0  0  0  0  0  0  0  0  0  0  0  0
    1.5631    1.6399    2.5290 C   0  0  0  0  0  0  0  0  0  0  0  0
    1.2226    0.4412    1.8924 C   0  0  0  0  0  0  0  0  0  0  0  0
    1.6783    0.1406    0.5962 C   0  0  0  0  0  0  0  0  0  0  0  0
    1.2896   -1.0793   -0.0662 N   0  0  0  0  0  0  0  0  0  0  0  0
    0.1267   -1.8384    0.4114 C   0  0  0  0  0  0  0  0  0  0  0  0
   -1.1976   -1.1338    0.1903 C   0  0  0  0  0  0  0  0  0  0  0  0
   -2.1147   -1.0041    1.2429 C   0  0  0  0  0  0  0  0  0  0  0  0
   -3.3392   -0.3659    1.0443 C   0  0  0  0  0  0  0  0  0  0  0  0
   -3.6686    0.1399   -0.2124 C   0  0  0  0  0  0  0  0  0  0  0  0
   -2.7821    0.0004   -1.2898 C   0  0  0  0  0  0  0  0  0  0  0  0
   -3.1313    0.5607   -2.6467 C   0  0  0  0  0  0  0  0  0  0  0  0
   -2.7273    1.8529   -2.7934 F   0  0  0  0  0  0  0  0  0  0  0  0
   -2.5667   -0.1284   -3.6770 F   0  0  0  0  0  0  0  0  0  0  0  0
   -4.4721    0.5605   -2.8940 F   0  0  0  0  0  0  0  0  0  0  0  0
   -1.5490   -0.6376   -1.0760 C   0  0  0  0  0  0  0  0  0  0  0  0
    3.4941   -1.2782   -2.6321 H   0  0  0  0  0  0  0  0  0  0  0  0
    3.9978   -1.2314   -0.9347 H   0  0  0  0  0  0  0  0  0  0  0  0
    3.4393    3.0430    0.0907 H   0  0  0  0  0  0  0  0  0  0  0  0
    2.6209    3.5076    2.3684 H   0  0  0  0  0  0  0  0  0  0  0  0
    1.1961    1.8443    3.5322 H   0  0  0  0  0  0  0  0  0  0  0  0
    0.5989   -0.2449    2.4548 H   0  0  0  0  0  0  0  0  0  0  0  0
    0.0631   -2.8110   -0.0914 H   0  0  0  0  0  0  0  0  0  0  0  0
    0.2816   -2.0871    1.4676 H   0  0  0  0  0  0  0  0  0  0  0  0
   -1.8817   -1.3971    2.2302 H   0  0  0  0  0  0  0  0  0  0  0  0
   -4.0387   -0.2631    1.8706 H   0  0  0  0  0  0  0  0  0  0  0  0
   -4.6262    0.6395   -0.3526 H   0  0  0  0  0  0  0  0  0  0  0  0
   -0.8564   -0.7505   -1.9109 H   0  0  0  0  0  0  0  0  0  0  0  0
  1  2  2  0
  2  3  1  0
  3  4  1  0
  4  5  1  0
  5  6  2  0
  6  7  1  0
  7  8  2  0
  8  9  1  0
  9 10  2  0
 10 11  1  0
 11 12  1  0
 12 13  1  0
 13 14  2  0
 14 15  1  0
 15 16  2  0
 16 17  1  0
 17 18  1  0
 18 19  1  0
 18 20  1  0
 18 21  1  0
 17 22  2  0
 11  2  1  0
 22 13  1  0
 10  5  1  0
  3 23  1  0
  3 24  1  0
  6 25  1  0
  7 26  1  0
  8 27  1  0
  9 28  1  0
 12 29  1  0
 12 30  1  0
 14 31  1  0
 15 32  1  0
 16 33  1  0
 22 34  1  0
M  END
$$$$
