
     RDKit          3D

 52 55  0  0  0  0  0  0  0  0999 V2000
    4.6855    0.8249   -0.5900 C   0  0  0  0  0  0  0  0  0  0  0  0
    3.2711    1.0836   -0.3148 N   0  0  0  0  0  0  0  0  0  0  0  0
    3.0398    2.5324   -0.2153 C   0  0  0  0  0  0  0  0  0  0  0  0
    1.5850    2.8301   -0.4370 C   0  0  0  0  0  0  0  0  0  0  0  0
    0.7704    3.3783    0.4789 C   0  0  0  0  0  0  0  0  0  0  0  0
   -0.7165    3.5799    0.3609 C   0  0  0  0  0  0  0  0  0  0  0  0
   -1.3717    3.2420   -0.9843 C   0  0  0  0  0  0  0  0  0  0  0  0
   -2.7958    3.1667   -0.8471 O   0  0  0  0  0  0  0  0  0  0  0  0
   -3.2939    1.9982   -0.3339 C   0  0  0  0  0  0  0  0  0  0  0  0
   -4.4205    2.1423    0.4755 C   0  0  0  0  0  0  0  0  0  0  0  0
   -5.0273    1.0245    1.0416 C   0  0  0  0  0  0  0  0  0  0  0  0
   -4.5240   -0.2489    0.7720 C   0  0  0  0  0  0  0  0  0  0  0  0
   -3.4109   -0.4265   -0.0701 C   0  0  0  0  0  0  0  0  0  0  0  0
   -2.7975    0.7197   -0.6079 C   0  0  0  0  0  0  0  0  0  0  0  0
   -2.9322   -1.7734   -0.4246 C   0  0  0  0  0  0  0  0  0  0  0  0
   -3.8052   -2.7354   -0.8935 C   0  0  0  0  0  0  0  0  0  0  0  0
   -3.2525   -3.9492   -1.1982 C   0  0  0  0  0  0  0  0  0  0  0  0
   -1.9477   -4.2199   -1.0464 N   0  0  0  0  0  0  0  0  0  0  0  0
   -1.1561   -3.2343   -0.5841 C   0  0  0  0  0  0  0  0  0  0  0  0
   -1.6064   -2.0072   -0.2801 N   0  0  0  0  0  0  0  0  0  0  0  0
    0.1640   -3.6302   -0.4005 N   0  0  0  0  0  0  0  0  0  0  0  0
    1.3287   -3.0220    0.0727 C   0  0  0  0  0  0  0  0  0  0  0  0
    2.3966   -3.8534    0.4540 C   0  0  0  0  0  0  0  0  0  0  0  0
    3.5777   -3.3317    0.9826 C   0  0  0  0  0  0  0  0  0  0  0  0
    3.7151   -1.9577    1.1399 C   0  0  0  0  0  0  0  0  0  0  0  0
    2.6760   -1.0978    0.7619 C   0  0  0  0  0  0  0  0  0  0  0  0
    1.4862   -1.6428    0.2358 C   0  0  0  0  0  0  0  0  0  0  0  0
    2.8290    0.4010    0.9193 C   0  0  0  0  0  0  0  0  0  0  0  0
    5.3336    1.1546    0.2300 H   0  0  0  0  0  0  0  0  0  0  0  0
    4.8692   -0.2376   -0.7764 H   0  0  0  0  0  0  0  0  0  0  0  0
    5.0012    1.3427   -1.5033 H   0  0  0  0  0  0  0  0  0  0  0  0
    3.5841    3.0616   -1.0083 H   0  0  0  0  0  0  0  0  0  0  0  0
    3.4047    2.9338    0.7388 H   0  0  0  0  0  0  0  0  0  0  0  0
    1.2105    2.5139   -1.4065 H   0  0  0  0  0  0  0  0  0  0  0  0
    1.1879    3.6598    1.4449 H   0  0  0  0  0  0  0  0  0  0  0  0
   -0.9475    4.6251    0.6030 H   0  0  0  0  0  0  0  0  0  0  0  0
   -1.1857    2.9899    1.1581 H   0  0  0  0  0  0  0  0  0  0  0  0
   -0.9649    2.3432   -1.4522 H   0  0  0  0  0  0  0  0  0  0  0  0
   -1.1686    4.0581   -1.6884 H   0  0  0  0  0  0  0  0  0  0  0  0
   -4.8182    3.1341    0.6751 H   0  0  0  0  0  0  0  0  0  0  0  0
   -5.8930    1.1446    1.6873 H   0  0  0  0  0  0  0  0  0  0  0  0
   -5.0116   -1.1094    1.2261 H   0  0  0  0  0  0  0  0  0  0  0  0
   -1.9541    0.5744   -1.2765 H   0  0  0  0  0  0  0  0  0  0  0  0
   -4.8610   -2.5464   -1.0321 H   0  0  0  0  0  0  0  0  0  0  0  0
   -3.8574   -4.7651   -1.5813 H   0  0  0  0  0  0  0  0  0  0  0  0
    0.2284   -4.6124   -0.6244 H   0  0  0  0  0  0  0  0  0  0  0  0
    2.3094   -4.9326    0.3522 H   0  0  0  0  0  0  0  0  0  0  0  0
    4.3848   -3.9982    1.2729 H   0  0  0  0  0  0  0  0  0  0  0  0
    4.6377   -1.5571    1.5520 H   0  0  0  0  0  0  0  0  0  0  0  0
    0.6867   -0.9661   -0.0569 H   0  0  0  0  0  0  0  0  0  0  0  0
    1.8489    0.7730    1.2441 H   0  0  0  0  0  0  0  0  0  0  0  0
    3.5080    0.6227    1.7545 H   0  0  0  0  0  0  0  0  0  0  0  0
  1  2  1  0
  2  3  1  0
  3  4  1  0
  4  5  2  0
  5  6  1  0
  6  7  1  0
  7  8  1  0
  8  9  1  0
  9 10  1  0
 10 11  2  0
 11 12  1  0
 12 13  2  0
 13 14  1  0
 13 15  1  0
 15 16  1  0
 16 17  2  0
 17 18  1  0
 18 19  2  0
 19 20  1  0
 19 21  1  0
 21 22  1  0
 22 23  1  0
 23 24  2  0
 24 25  1  0
 25 26  2  0
 26 27  1  0
 26 28  1  0
 28  2  1  0
 14  9  2  0
 20 15  2  0
 27 22  2  0
  1 29  1  0
  1 30  1  0
  1 31  1  0
  3 32  1  0
  3 33  1  0
  4 34  1  0
  5 35  1  0
  6 36  1  0
  6 37  1  0
  7 38  1  0
  7 39  1  0
 10 40  1  0
 11 41  1  0
 12 42  1  0
 14 43  1  0
 16 44  1  0
 17 45  1  0
 21 46  1  0
 23 47  1  0
 24 48  1  0
 25 49  1  0
 27 50  1  0
 28 51  1  0
 28 52  1  0
M  END
$$$$
