
     RDKit          3D

 53 57  0  0  0  0  0  0  0  0999 V2000
   -5.9642    1.8339    1.6318 C   0  0  0  0  0  0  0  0  0  0  0  0
   -5.4317    0.8927    0.5596 C   0  0  1  0  0  0  0  0  0  0  0  0
   -3.9011    0.7217    0.6869 C   0  0  0  0  0  0  0  0  0  0  0  0
   -3.4251   -0.2714   -0.3041 N   0  0  0  0  0  0  0  0  0  0  0  0
   -2.0226   -0.4228   -0.3010 C   0  0  0  0  0  0  0  0  0  0  0  0
   -1.2176    0.6587   -0.6111 C   0  0  0  0  0  0  0  0  0  0  0  0
    0.1529    0.4682   -0.6026 C   0  0  0  0  0  0  0  0  0  0  0  0
    1.0673    1.5815   -0.9149 C   0  0  0  0  0  0  0  0  0  0  0  0
    0.5988    2.8033   -1.2467 N   0  0  0  0  0  0  0  0  0  0  0  0
    1.6988    3.5367   -1.4663 N   0  0  0  0  0  0  0  0  0  0  0  0
    2.8735    2.8678   -1.2797 C   0  0  0  0  0  0  0  0  0  0  0  0
    4.2022    3.2820   -1.4016 C   0  0  0  0  0  0  0  0  0  0  0  0
    5.1898    2.3301   -1.1310 C   0  0  0  0  0  0  0  0  0  0  0  0
    4.8644    1.0252   -0.7540 C   0  0  0  0  0  0  0  0  0  0  0  0
    5.9447    0.2070   -0.5237 O   0  0  0  0  0  0  0  0  0  0  0  0
    5.7255   -1.0940    0.0580 C   0  0  0  0  0  0  0  0  0  0  0  0
    5.4606   -1.0897    1.5344 C   0  0  0  0  0  0  0  0  0  0  0  0
    6.6713   -2.1512   -0.4692 C   0  0  0  0  0  0  0  0  0  0  0  0
    5.2198   -2.1984   -0.8380 C   0  0  0  0  0  0  0  0  0  0  0  0
    3.5239    0.6367   -0.6515 C   0  0  0  0  0  0  0  0  0  0  0  0
    2.5037    1.5781   -0.9160 C   0  0  0  0  0  0  0  0  0  0  0  0
    0.7122   -0.7238   -0.3143 N   0  0  0  0  0  0  0  0  0  0  0  0
   -0.1448   -1.7136   -0.0528 C   0  0  0  0  0  0  0  0  0  0  0  0
   -1.4809   -1.6242   -0.0363 N   0  0  0  0  0  0  0  0  0  0  0  0
   -4.1515   -1.5560   -0.1766 C   0  0  0  0  0  0  0  0  0  0  0  0
   -5.6700   -1.3042   -0.2904 C   0  0  1  0  0  0  0  0  0  0  0  0
   -6.4534   -2.5945   -0.0913 C   0  0  0  0  0  0  0  0  0  0  0  0
   -6.1108   -0.3682    0.7134 O   0  0  0  0  0  0  0  0  0  0  0  0
   -5.7832    1.4291    2.6342 H   0  0  0  0  0  0  0  0  0  0  0  0
   -7.0489    1.9504    1.5316 H   0  0  0  0  0  0  0  0  0  0  0  0
   -5.4991    2.8222    1.5620 H   0  0  0  0  0  0  0  0  0  0  0  0
   -5.6831    1.3015   -0.4280 H   0  0  0  0  0  0  0  0  0  0  0  0
   -3.4300    1.6997    0.5352 H   0  0  0  0  0  0  0  0  0  0  0  0
   -3.6497    0.3718    1.6977 H   0  0  0  0  0  0  0  0  0  0  0  0
   -1.6443    1.6179   -0.8744 H   0  0  0  0  0  0  0  0  0  0  0  0
    1.5816    4.5038   -1.7439 H   0  0  0  0  0  0  0  0  0  0  0  0
    4.4662    4.2932   -1.6912 H   0  0  0  0  0  0  0  0  0  0  0  0
    6.2373    2.6135   -1.2142 H   0  0  0  0  0  0  0  0  0  0  0  0
    5.3867   -2.1064    1.9360 H   0  0  0  0  0  0  0  0  0  0  0  0
    6.2727   -0.5782    2.0611 H   0  0  0  0  0  0  0  0  0  0  0  0
    4.5251   -0.5744    1.7696 H   0  0  0  0  0  0  0  0  0  0  0  0
    7.0470   -2.9030    0.2155 H   0  0  0  0  0  0  0  0  0  0  0  0
    7.3799   -1.8608   -1.2370 H   0  0  0  0  0  0  0  0  0  0  0  0
    4.9519   -1.9467   -1.8576 H   0  0  0  0  0  0  0  0  0  0  0  0
    4.6053   -2.9759   -0.4000 H   0  0  0  0  0  0  0  0  0  0  0  0
    3.2465   -0.3724   -0.3727 H   0  0  0  0  0  0  0  0  0  0  0  0
    0.2806   -2.6860    0.1692 H   0  0  0  0  0  0  0  0  0  0  0  0
   -3.8473   -2.2492   -0.9711 H   0  0  0  0  0  0  0  0  0  0  0  0
   -3.9322   -2.0130    0.7983 H   0  0  0  0  0  0  0  0  0  0  0  0
   -5.9120   -0.8905   -1.2781 H   0  0  0  0  0  0  0  0  0  0  0  0
   -7.5292   -2.4027   -0.1660 H   0  0  0  0  0  0  0  0  0  0  0  0
   -6.2773   -3.0103    0.9070 H   0  0  0  0  0  0  0  0  0  0  0  0
   -6.1800   -3.3454   -0.8386 H   0  0  0  0  0  0  0  0  0  0  0  0
  1  2  1  0
  2  3  1  0
  3  4  1  0
  4  5  1  0
  5  6  2  0
  6  7  1  0
  7  8  1  0
  8  9  2  0
  9 10  1  0
 10 11  1  0
 11 12  2  0
 12 13  1  0
 13 14  2  0
 14 15  1  0
 15 16  1  0
 16 17  1  0
 16 18  1  0
 18 19  1  0
 14 20  1  0
 20 21  2  0
  7 22  2  0
 22 23  1  0
 23 24  2  0
  4 25  1  0
 25 26  1  0
 26 27  1  0
 26 28  1  0
 28  2  1  0
 24  5  1  0
 21  8  1  0
 21 11  1  0
 19 16  1  0
  1 29  1  0
  1 30  1  0
  1 31  1  0
  2 32  1  6
  3 33  1  0
  3 34  1  0
  6 35  1  0
 10 36  1  0
 12 37  1  0
 13 38  1  0
 17 39  1  0
 17 40  1  0
 17 41  1  0
 18 42  1  0
 18 43  1  0
 19 44  1  0
 19 45  1  0
 20 46  1  0
 23 47  1  0
 25 48  1  0
 25 49  1  0
 26 50  1  6
 27 51  1  0
 27 52  1  0
 27 53  1  0
M  END
$$$$
