
     RDKit          3D

 34 36  0  0  0  0  0  0  0  0999 V2000
    5.4460    1.0298    0.3584 C   0  0  0  0  0  0  0  0  0  0  0  0
    4.0630    0.4427    0.3479 C   0  0  0  0  0  0  0  0  0  0  0  0
    3.0046    1.1417   -0.1052 C   0  0  0  0  0  0  0  0  0  0  0  0
    1.6240    0.5474   -0.1124 C   0  0  0  0  0  0  0  0  0  0  0  0
    0.6450    1.2807   -0.5644 N   0  0  0  0  0  0  0  0  0  0  0  0
   -0.6722    0.8134   -0.6086 C   0  0  0  0  0  0  0  0  0  0  0  0
   -1.1616    0.1962   -1.7581 C   0  0  0  0  0  0  0  0  0  0  0  0
   -2.4912   -0.2252   -1.8216 C   0  0  0  0  0  0  0  0  0  0  0  0
   -3.3607   -0.0215   -0.7392 C   0  0  0  0  0  0  0  0  0  0  0  0
   -4.7860   -0.4902   -0.8412 C   0  0  0  0  0  0  0  0  0  0  0  0
   -2.8807    0.6264    0.4166 C   0  0  0  0  0  0  0  0  0  0  0  0
   -3.7696    0.8797    1.6023 C   0  0  0  0  0  0  0  0  0  0  0  0
   -1.5391    1.0431    0.4627 C   0  0  0  0  0  0  0  0  0  0  0  0
    1.6041   -0.7693    0.3938 N   0  0  0  0  0  0  0  0  0  0  0  0
    0.5107   -1.5636    0.5121 N   0  0  0  0  0  0  0  0  0  0  0  0
    1.0354   -2.6740    1.0328 C   0  0  0  0  0  0  0  0  0  0  0  0
    2.3824   -2.6539    1.2577 N   0  0  0  0  0  0  0  0  0  0  0  0
    2.7164   -1.4557    0.8514 C   0  0  0  0  0  0  0  0  0  0  0  0
    3.9167   -0.8460    0.8222 N   0  0  0  0  0  0  0  0  0  0  0  0
    5.4627    2.0518   -0.0348 H   0  0  0  0  0  0  0  0  0  0  0  0
    5.8387    1.0579    1.3802 H   0  0  0  0  0  0  0  0  0  0  0  0
    6.1203    0.4238   -0.2557 H   0  0  0  0  0  0  0  0  0  0  0  0
    3.0860    2.1544   -0.4837 H   0  0  0  0  0  0  0  0  0  0  0  0
   -0.5041    0.0400   -2.6075 H   0  0  0  0  0  0  0  0  0  0  0  0
   -2.8429   -0.7143   -2.7269 H   0  0  0  0  0  0  0  0  0  0  0  0
   -5.4712    0.3608   -0.7757 H   0  0  0  0  0  0  0  0  0  0  0  0
   -5.0108   -1.2034   -0.0418 H   0  0  0  0  0  0  0  0  0  0  0  0
   -4.9760   -0.9954   -1.7942 H   0  0  0  0  0  0  0  0  0  0  0  0
   -4.6250    1.4977    1.3120 H   0  0  0  0  0  0  0  0  0  0  0  0
   -4.1270   -0.0676    2.0183 H   0  0  0  0  0  0  0  0  0  0  0  0
   -3.2368    1.4097    2.3990 H   0  0  0  0  0  0  0  0  0  0  0  0
   -1.1551    1.5522    1.3427 H   0  0  0  0  0  0  0  0  0  0  0  0
    0.4130   -3.5314    1.2573 H   0  0  0  0  0  0  0  0  0  0  0  0
    4.7410   -1.3376    1.1543 H   0  0  0  0  0  0  0  0  0  0  0  0
  1  2  1  0
  2  3  2  0
  3  4  1  0
  4  5  2  0
  5  6  1  0
  6  7  2  0
  7  8  1  0
  8  9  2  0
  9 10  1  0
  9 11  1  0
 11 12  1  0
 11 13  2  0
  4 14  1  0
 14 15  1  0
 15 16  2  0
 16 17  1  0
 17 18  2  0
 18 19  1  0
 19  2  1  0
 13  6  1  0
 18 14  1  0
  1 20  1  0
  1 21  1  0
  1 22  1  0
  3 23  1  0
  7 24  1  0
  8 25  1  0
 10 26  1  0
 10 27  1  0
 10 28  1  0
 12 29  1  0
 12 30  1  0
 12 31  1  0
 13 32  1  0
 16 33  1  0
 19 34  1  0
M  END
$$$$
