
     RDKit          3D

 74 77  0  0  0  0  0  0  0  0999 V2000
   -5.4483   -2.5008   -0.9078 C   0  0  0  0  0  0  0  0  0  0  0  0
   -4.1505   -2.0421   -1.5585 C   0  0  0  0  0  0  0  0  0  0  0  0
   -3.0959   -1.5253   -0.5512 C   0  0  2  0  0  0  0  0  0  0  0  0
   -3.5785   -0.3482    0.3442 C   0  0  2  0  0  0  0  0  0  0  0  0
   -4.2166    0.8351   -0.4054 C   0  0  0  0  0  0  0  0  0  0  0  0
   -4.9937    1.7364    0.5653 C   0  0  2  0  0  0  0  0  0  0  0  0
   -5.0455    3.0610    0.0387 O   0  0  0  0  0  0  0  0  0  0  0  0
   -4.4020    1.7617    1.9770 C   0  0  0  0  0  0  0  0  0  0  0  0
   -2.8901    1.5567    1.9432 C   0  0  0  0  0  0  0  0  0  0  0  0
   -2.4627    0.1801    1.3278 C   0  0  1  0  0  0  0  0  0  0  0  0
   -2.3346   -0.8404    2.4880 C   0  0  0  0  0  0  0  0  0  0  0  0
   -1.0861    0.3795    0.5844 C   0  0  1  0  0  0  0  0  0  0  0  0
    0.0605    0.8454    1.5234 C   0  0  0  0  0  0  0  0  0  0  0  0
    1.4114    1.0312    0.8107 C   0  0  0  0  0  0  0  0  0  0  0  0
    1.8307   -0.2295    0.0355 C   0  0  1  0  0  0  0  0  0  0  0  0
    2.1222   -1.3772    1.0255 C   0  0  0  0  0  0  0  0  0  0  0  0
    0.6735   -0.5423   -0.9519 C   0  0  1  0  0  0  0  0  0  0  0  0
    1.2672   -1.5918   -1.8825 C   0  0  0  0  0  0  0  0  0  0  0  0
    2.7336   -1.1626   -2.0408 C   0  0  0  0  0  0  0  0  0  0  0  0
    2.9849   -0.0385   -0.9959 C   0  0  2  0  0  0  0  0  0  0  0  0
    4.4783    0.1024   -0.5825 C   0  0  2  0  0  0  0  0  0  0  0  0
    5.1301   -1.1274    0.0607 C   0  0  0  0  0  0  0  0  0  0  0  0
    4.7098    1.3608    0.2857 C   0  0  0  0  0  0  0  0  0  0  0  0
    6.1729    1.7807    0.4319 C   0  0  0  0  0  0  0  0  0  0  0  0
    6.7869    2.1986   -0.8735 C   0  0  0  0  0  0  0  0  0  0  0  0
    7.6329    1.5842   -1.5011 O   0  0  0  0  0  0  0  0  0  0  0  0
    6.3067    3.3710   -1.3279 O   0  0  0  0  0  0  0  0  0  0  0  0
   -0.6681   -0.8535   -0.2668 C   0  0  2  0  0  0  0  0  0  0  0  0
   -1.7708   -1.2275   -1.2747 C   0  0  2  0  0  0  0  0  0  0  0  0
   -1.9700   -0.1937   -2.2329 O   0  0  0  0  0  0  0  0  0  0  0  0
   -6.1007   -2.9607   -1.6571 H   0  0  0  0  0  0  0  0  0  0  0  0
   -5.2552   -3.2431   -0.1271 H   0  0  0  0  0  0  0  0  0  0  0  0
   -5.9963   -1.6651   -0.4637 H   0  0  0  0  0  0  0  0  0  0  0  0
   -3.7267   -2.8998   -2.0966 H   0  0  0  0  0  0  0  0  0  0  0  0
   -4.3732   -1.2893   -2.3221 H   0  0  0  0  0  0  0  0  0  0  0  0
   -2.8946   -2.3695    0.1241 H   0  0  0  0  0  0  0  0  0  0  0  0
   -4.3826   -0.7727    0.9636 H   0  0  0  0  0  0  0  0  0  0  0  0
   -4.9176    0.5033   -1.1772 H   0  0  0  0  0  0  0  0  0  0  0  0
   -3.4542    1.4170   -0.9352 H   0  0  0  0  0  0  0  0  0  0  0  0
   -6.0318    1.3919    0.6336 H   0  0  0  0  0  0  0  0  0  0  0  0
   -4.1309    3.3689   -0.0796 H   0  0  0  0  0  0  0  0  0  0  0  0
   -4.6309    2.7133    2.4708 H   0  0  0  0  0  0  0  0  0  0  0  0
   -4.8545    0.9674    2.5825 H   0  0  0  0  0  0  0  0  0  0  0  0
   -2.4901    1.6646    2.9590 H   0  0  0  0  0  0  0  0  0  0  0  0
   -2.4592    2.3832    1.3631 H   0  0  0  0  0  0  0  0  0  0  0  0
   -3.3058   -1.0152    2.9654 H   0  0  0  0  0  0  0  0  0  0  0  0
   -1.9595   -1.8097    2.1487 H   0  0  0  0  0  0  0  0  0  0  0  0
   -1.6633   -0.4852    3.2758 H   0  0  0  0  0  0  0  0  0  0  0  0
   -1.2310    1.2073   -0.1263 H   0  0  0  0  0  0  0  0  0  0  0  0
   -0.2040    1.8004    1.9913 H   0  0  0  0  0  0  0  0  0  0  0  0
    0.1963    0.1332    2.3428 H   0  0  0  0  0  0  0  0  0  0  0  0
    1.3344    1.8878    0.1287 H   0  0  0  0  0  0  0  0  0  0  0  0
    2.1609    1.2986    1.5617 H   0  0  0  0  0  0  0  0  0  0  0  0
    2.5227   -2.2665    0.5302 H   0  0  0  0  0  0  0  0  0  0  0  0
    2.8448   -1.0574    1.7825 H   0  0  0  0  0  0  0  0  0  0  0  0
    1.2352   -1.7002    1.5762 H   0  0  0  0  0  0  0  0  0  0  0  0
    0.5115    0.3567   -1.5695 H   0  0  0  0  0  0  0  0  0  0  0  0
    0.7589   -1.6234   -2.8515 H   0  0  0  0  0  0  0  0  0  0  0  0
    1.2073   -2.5943   -1.4441 H   0  0  0  0  0  0  0  0  0  0  0  0
    3.3798   -2.0337   -1.9125 H   0  0  0  0  0  0  0  0  0  0  0  0
    2.9162   -0.7770   -3.0506 H   0  0  0  0  0  0  0  0  0  0  0  0
    2.7611    0.9004   -1.5296 H   0  0  0  0  0  0  0  0  0  0  0  0
    5.0126    0.2574   -1.5307 H   0  0  0  0  0  0  0  0  0  0  0  0
    4.8978   -1.2082    1.1252 H   0  0  0  0  0  0  0  0  0  0  0  0
    6.2210   -1.0617   -0.0187 H   0  0  0  0  0  0  0  0  0  0  0  0
    4.8450   -2.0625   -0.4250 H   0  0  0  0  0  0  0  0  0  0  0  0
    4.1435    2.2011   -0.1346 H   0  0  0  0  0  0  0  0  0  0  0  0
    4.3178    1.1825    1.2926 H   0  0  0  0  0  0  0  0  0  0  0  0
    6.2527    2.6265    1.1254 H   0  0  0  0  0  0  0  0  0  0  0  0
    6.7808    0.9794    0.8639 H   0  0  0  0  0  0  0  0  0  0  0  0
    6.7899    3.5165   -2.1681 H   0  0  0  0  0  0  0  0  0  0  0  0
   -0.5351   -1.7184    0.3918 H   0  0  0  0  0  0  0  0  0  0  0  0
   -1.4687   -2.1270   -1.8252 H   0  0  0  0  0  0  0  0  0  0  0  0
   -1.2128   -0.2007   -2.8423 H   0  0  0  0  0  0  0  0  0  0  0  0
  1  2  1  0
  2  3  1  0
  3  4  1  0
  4  5  1  0
  5  6  1  0
  6  7  1  0
  6  8  1  0
  8  9  1  0
  9 10  1  0
 10 11  1  1
 10 12  1  0
 12 13  1  0
 13 14  1  0
 14 15  1  0
 15 16  1  1
 15 17  1  0
 17 18  1  0
 18 19  1  0
 19 20  1  0
 20 21  1  0
 21 22  1  0
 21 23  1  0
 23 24  1  0
 24 25  1  0
 25 26  2  0
 25 27  1  0
 17 28  1  0
 28 29  1  0
 29 30  1  0
 29  3  1  0
 10  4  1  0
 28 12  1  0
 20 15  1  0
  1 31  1  0
  1 32  1  0
  1 33  1  0
  2 34  1  0
  2 35  1  0
  3 36  1  1
  4 37  1  1
  5 38  1  0
  5 39  1  0
  6 40  1  1
  7 41  1  0
  8 42  1  0
  8 43  1  0
  9 44  1  0
  9 45  1  0
 11 46  1  0
 11 47  1  0
 11 48  1  0
 12 49  1  6
 13 50  1  0
 13 51  1  0
 14 52  1  0
 14 53  1  0
 16 54  1  0
 16 55  1  0
 16 56  1  0
 17 57  1  6
 18 58  1  0
 18 59  1  0
 19 60  1  0
 19 61  1  0
 20 62  1  6
 21 63  1  6
 22 64  1  0
 22 65  1  0
 22 66  1  0
 23 67  1  0
 23 68  1  0
 24 69  1  0
 24 70  1  0
 27 71  1  0
 28 72  1  1
 29 73  1  6
 30 74  1  0
M  END
$$$$
