
     RDKit          3D

 49 52  0  0  0  0  0  0  0  0999 V2000
    2.2421    0.3004    1.5739 O   0  0  0  0  0  0  0  0  0  0  0  0
    2.2823   -0.6109    0.7629 C   0  0  0  0  0  0  0  0  0  0  0  0
    3.3833   -1.1123    0.0935 N   0  0  0  0  0  0  0  0  0  0  0  0
    4.7108   -0.6531    0.1513 C   0  0  0  0  0  0  0  0  0  0  0  0
    5.6756   -1.4010   -0.5693 C   0  0  0  0  0  0  0  0  0  0  0  0
    7.0256   -1.0306   -0.5853 C   0  0  0  0  0  0  0  0  0  0  0  0
    7.3607    0.0918    0.1290 C   0  0  0  0  0  0  0  0  0  0  0  0
    8.5644    0.7060    0.3109 N   0  0  0  0  0  0  0  0  0  0  0  0
    8.3583    1.8025    1.1151 C   0  0  0  0  0  0  0  0  0  0  0  0
    9.2328    2.5773    1.4739 O   0  0  0  0  0  0  0  0  0  0  0  0
    7.0094    1.9224    1.4730 O   0  0  0  0  0  0  0  0  0  0  0  0
    6.4375    0.8330    0.8332 C   0  0  0  0  0  0  0  0  0  0  0  0
    5.1021    0.4867    0.8644 C   0  0  0  0  0  0  0  0  0  0  0  0
    1.0050   -1.3983    0.3919 C   0  0  0  0  0  0  0  0  0  0  0  0
    1.1367   -2.6127    0.2404 O   0  0  0  0  0  0  0  0  0  0  0  0
   -0.1987   -0.7074    0.1930 N   0  0  0  0  0  0  0  0  0  0  0  0
   -0.3424    0.7181    0.4836 C   0  0  0  0  0  0  0  0  0  0  0  0
   -1.4970    1.3612   -0.2810 C   0  0  0  0  0  0  0  0  0  0  0  0
   -2.8051    0.5754   -0.1188 C   0  0  0  0  0  0  0  0  0  0  0  0
   -3.9269    1.2494   -0.9323 C   0  0  0  0  0  0  0  0  0  0  0  0
   -5.2955    0.6620   -0.6786 C   0  0  0  0  0  0  0  0  0  0  0  0
   -5.9194   -0.1340   -1.6515 C   0  0  0  0  0  0  0  0  0  0  0  0
   -7.1809   -0.6810   -1.4123 C   0  0  0  0  0  0  0  0  0  0  0  0
   -7.8184   -0.4317   -0.2033 C   0  0  0  0  0  0  0  0  0  0  0  0
   -9.0290   -0.9577    0.0250 F   0  0  0  0  0  0  0  0  0  0  0  0
   -7.2191    0.3553    0.7721 C   0  0  0  0  0  0  0  0  0  0  0  0
   -5.9578    0.9032    0.5353 C   0  0  0  0  0  0  0  0  0  0  0  0
   -2.5635   -0.8760   -0.5581 C   0  0  0  0  0  0  0  0  0  0  0  0
   -1.4177   -1.5080    0.2240 C   0  0  0  0  0  0  0  0  0  0  0  0
    3.1971   -1.9585   -0.4396 H   0  0  0  0  0  0  0  0  0  0  0  0
    5.3768   -2.2878   -1.1253 H   0  0  0  0  0  0  0  0  0  0  0  0
    7.7606   -1.6058   -1.1351 H   0  0  0  0  0  0  0  0  0  0  0  0
    9.4637    0.4419   -0.0551 H   0  0  0  0  0  0  0  0  0  0  0  0
    4.4095    1.0983    1.4290 H   0  0  0  0  0  0  0  0  0  0  0  0
    0.5732    1.2497    0.2109 H   0  0  0  0  0  0  0  0  0  0  0  0
   -0.4916    0.8216    1.5647 H   0  0  0  0  0  0  0  0  0  0  0  0
   -1.6279    2.3931    0.0656 H   0  0  0  0  0  0  0  0  0  0  0  0
   -1.2331    1.4137   -1.3457 H   0  0  0  0  0  0  0  0  0  0  0  0
   -3.0779    0.5782    0.9452 H   0  0  0  0  0  0  0  0  0  0  0  0
   -3.9721    2.3190   -0.6871 H   0  0  0  0  0  0  0  0  0  0  0  0
   -3.6934    1.2023   -2.0040 H   0  0  0  0  0  0  0  0  0  0  0  0
   -5.4259   -0.3347   -2.5999 H   0  0  0  0  0  0  0  0  0  0  0  0
   -7.6691   -1.2982   -2.1595 H   0  0  0  0  0  0  0  0  0  0  0  0
   -7.7371    0.5378    1.7080 H   0  0  0  0  0  0  0  0  0  0  0  0
   -5.4948    1.5213    1.3016 H   0  0  0  0  0  0  0  0  0  0  0  0
   -2.3271   -0.9027   -1.6297 H   0  0  0  0  0  0  0  0  0  0  0  0
   -3.4646   -1.4816   -0.4119 H   0  0  0  0  0  0  0  0  0  0  0  0
   -1.2232   -2.5115   -0.1703 H   0  0  0  0  0  0  0  0  0  0  0  0
   -1.6986   -1.6263    1.2780 H   0  0  0  0  0  0  0  0  0  0  0  0
  1  2  2  0
  2  3  1  0
  3  4  1  0
  4  5  2  0
  5  6  1  0
  6  7  2  0
  7  8  1  0
  8  9  1  0
  9 10  2  0
  9 11  1  0
 11 12  1  0
 12 13  2  0
  2 14  1  0
 14 15  2  0
 14 16  1  0
 16 17  1  0
 17 18  1  0
 18 19  1  0
 19 20  1  0
 20 21  1  0
 21 22  2  0
 22 23  1  0
 23 24  2  0
 24 25  1  0
 24 26  1  0
 26 27  2  0
 19 28  1  0
 28 29  1  0
 13  4  1  0
 29 16  1  0
 12  7  1  0
 27 21  1  0
  3 30  1  0
  5 31  1  0
  6 32  1  0
  8 33  1  0
 13 34  1  0
 17 35  1  0
 17 36  1  0
 18 37  1  0
 18 38  1  0
 19 39  1  0
 20 40  1  0
 20 41  1  0
 22 42  1  0
 23 43  1  0
 26 44  1  0
 27 45  1  0
 28 46  1  0
 28 47  1  0
 29 48  1  0
 29 49  1  0
M  END
$$$$
