
     RDKit          3D

 41 44  0  0  0  0  0  0  0  0999 V2000
   -1.3682    0.9479    1.5956 C   0  0  0  0  0  0  0  0  0  0  0  0
   -0.9220   -0.1879    0.7114 C   0  0  0  0  0  0  0  0  0  0  0  0
    0.3499   -0.3332    0.2949 C   0  0  0  0  0  0  0  0  0  0  0  0
    1.5859    0.4728    0.5780 C   0  0  0  0  0  0  0  0  0  0  0  0
    1.6374    1.4677    1.2791 O   0  0  0  0  0  0  0  0  0  0  0  0
    2.6083   -0.1911   -0.1257 N   0  0  0  0  0  0  0  0  0  0  0  0
    3.9732    0.1577   -0.2538 C   0  0  0  0  0  0  0  0  0  0  0  0
    4.8113   -0.5344   -1.1445 C   0  0  0  0  0  0  0  0  0  0  0  0
    6.1643   -0.2019   -1.2709 C   0  0  0  0  0  0  0  0  0  0  0  0
    6.7027    0.8298   -0.5091 C   0  0  0  0  0  0  0  0  0  0  0  0
    5.8876    1.5305    0.3742 C   0  0  0  0  0  0  0  0  0  0  0  0
    4.5340    1.1977    0.4988 C   0  0  0  0  0  0  0  0  0  0  0  0
    2.0911   -1.3060   -0.8370 N   0  0  0  0  0  0  0  0  0  0  0  0
    0.7480   -1.4301   -0.5530 C   0  0  0  0  0  0  0  0  0  0  0  0
   -0.1150   -2.3775   -0.9123 C   0  0  0  0  0  0  0  0  0  0  0  0
   -1.5269   -2.2658   -0.4770 C   0  0  0  0  0  0  0  0  0  0  0  0
   -2.3127   -3.1403   -0.8353 O   0  0  0  0  0  0  0  0  0  0  0  0
   -1.8729   -1.1582    0.3129 N   0  0  0  0  0  0  0  0  0  0  0  0
   -3.2862   -1.0675    0.7088 C   0  0  0  0  0  0  0  0  0  0  0  0
   -4.1034   -0.1332   -0.1464 C   0  0  0  0  0  0  0  0  0  0  0  0
   -4.8077    0.9392    0.4120 C   0  0  0  0  0  0  0  0  0  0  0  0
   -5.5673    1.7723   -0.4048 C   0  0  0  0  0  0  0  0  0  0  0  0
   -5.6091    1.5001   -1.7610 C   0  0  0  0  0  0  0  0  0  0  0  0
   -4.9593    0.4679   -2.3367 N   0  0  0  0  0  0  0  0  0  0  0  0
   -4.2285   -0.3262   -1.5193 C   0  0  0  0  0  0  0  0  0  0  0  0
   -2.0944    1.5777    1.0751 H   0  0  0  0  0  0  0  0  0  0  0  0
   -1.8154    0.5699    2.5202 H   0  0  0  0  0  0  0  0  0  0  0  0
   -0.5603    1.6107    1.9053 H   0  0  0  0  0  0  0  0  0  0  0  0
    4.4251   -1.3288   -1.7765 H   0  0  0  0  0  0  0  0  0  0  0  0
    6.7935   -0.7452   -1.9714 H   0  0  0  0  0  0  0  0  0  0  0  0
    7.7529    1.0919   -0.6072 H   0  0  0  0  0  0  0  0  0  0  0  0
    6.3003    2.3411    0.9700 H   0  0  0  0  0  0  0  0  0  0  0  0
    3.9391    1.7709    1.2044 H   0  0  0  0  0  0  0  0  0  0  0  0
    2.6030   -2.1691   -0.6515 H   0  0  0  0  0  0  0  0  0  0  0  0
    0.1461   -3.2193   -1.5379 H   0  0  0  0  0  0  0  0  0  0  0  0
   -3.7568   -2.0578    0.6635 H   0  0  0  0  0  0  0  0  0  0  0  0
   -3.3423   -0.7858    1.7661 H   0  0  0  0  0  0  0  0  0  0  0  0
   -4.7675    1.1350    1.4805 H   0  0  0  0  0  0  0  0  0  0  0  0
   -6.1148    2.6128    0.0064 H   0  0  0  0  0  0  0  0  0  0  0  0
   -6.1862    2.1206   -2.4402 H   0  0  0  0  0  0  0  0  0  0  0  0
   -3.7367   -1.1549   -2.0230 H   0  0  0  0  0  0  0  0  0  0  0  0
  1  2  1  0
  2  3  2  0
  3  4  1  0
  4  5  2  0
  4  6  1  0
  6  7  1  0
  7  8  2  0
  8  9  1  0
  9 10  2  0
 10 11  1  0
 11 12  2  0
  6 13  1  0
 13 14  1  0
 14 15  2  0
 15 16  1  0
 16 17  2  0
 16 18  1  0
 18 19  1  0
 19 20  1  0
 20 21  2  0
 21 22  1  0
 22 23  2  0
 23 24  1  0
 24 25  2  0
 18  2  1  0
 25 20  1  0
 14  3  1  0
 12  7  1  0
  1 26  1  0
  1 27  1  0
  1 28  1  0
  8 29  1  0
  9 30  1  0
 10 31  1  0
 11 32  1  0
 12 33  1  0
 13 34  1  0
 15 35  1  0
 19 36  1  0
 19 37  1  0
 21 38  1  0
 22 39  1  0
 23 40  1  0
 25 41  1  0
M  END
$$$$
