
     RDKit          3D

 55 58  0  0  0  0  0  0  0  0999 V2000
    7.7386    3.2861    0.7016 C   0  0  0  0  0  0  0  0  0  0  0  0
    6.5839    2.4004    0.4192 C   0  0  0  0  0  0  0  0  0  0  0  0
    5.2655    2.4890    0.8086 C   0  0  0  0  0  0  0  0  0  0  0  0
    4.6003    1.3698    0.2321 C   0  0  0  0  0  0  0  0  0  0  0  0
    3.1581    1.0739    0.3893 C   0  0  0  0  0  0  0  0  0  0  0  0
    2.4434    1.8186    1.0688 O   0  0  0  0  0  0  0  0  0  0  0  0
    2.5946   -0.0426   -0.2262 N   0  0  0  0  0  0  0  0  0  0  0  0
    3.2560   -1.0058   -1.0960 C   0  0  0  0  0  0  0  0  0  0  0  0
    2.1872   -2.0441   -1.4074 C   0  0  0  0  0  0  0  0  0  0  0  0
    0.8958   -1.2443   -1.3241 C   0  0  0  0  0  0  0  0  0  0  0  0
    1.1480   -0.2799   -0.1593 C   0  0  1  0  0  0  0  0  0  0  0  0
    0.7349   -0.8354    1.2130 C   0  0  0  0  0  0  0  0  0  0  0  0
   -0.6973   -0.9797    1.3489 N   0  0  0  0  0  0  0  0  0  0  0  0
   -1.6160   -0.0099    1.6112 C   0  0  0  0  0  0  0  0  0  0  0  0
   -2.8212   -0.6814    1.6071 C   0  0  0  0  0  0  0  0  0  0  0  0
   -4.1550   -0.1293    1.7969 C   0  0  0  0  0  0  0  0  0  0  0  0
   -4.3613    1.0647    1.9949 O   0  0  0  0  0  0  0  0  0  0  0  0
   -5.1496   -1.0780    1.7102 N   0  0  0  0  0  0  0  0  0  0  0  0
   -6.5411   -0.7202    1.6004 C   0  0  0  0  0  0  0  0  0  0  0  0
   -6.9399   -0.5917    0.1529 C   0  0  0  0  0  0  0  0  0  0  0  0
   -7.2388   -1.7306   -0.6093 C   0  0  0  0  0  0  0  0  0  0  0  0
   -7.5579   -1.6100   -1.9626 C   0  0  0  0  0  0  0  0  0  0  0  0
   -7.5763   -0.3548   -2.5678 C   0  0  0  0  0  0  0  0  0  0  0  0
   -7.2813    0.7839   -1.8197 C   0  0  0  0  0  0  0  0  0  0  0  0
   -6.9619    0.6665   -0.4669 C   0  0  0  0  0  0  0  0  0  0  0  0
   -2.5833   -2.0179    1.3656 N   0  0  0  0  0  0  0  0  0  0  0  0
   -1.2763   -2.1874    1.2194 N   0  0  0  0  0  0  0  0  0  0  0  0
    5.4753    0.6335   -0.4802 N   0  0  0  0  0  0  0  0  0  0  0  0
    6.6552    1.2648   -0.3413 N   0  0  0  0  0  0  0  0  0  0  0  0
    7.8207    0.7168   -0.9963 C   0  0  0  0  0  0  0  0  0  0  0  0
    8.5248    2.7413    1.2335 H   0  0  0  0  0  0  0  0  0  0  0  0
    7.4377    4.1332    1.3263 H   0  0  0  0  0  0  0  0  0  0  0  0
    8.1558    3.6849   -0.2277 H   0  0  0  0  0  0  0  0  0  0  0  0
    4.8158    3.2590    1.4240 H   0  0  0  0  0  0  0  0  0  0  0  0
    4.1137   -1.4623   -0.5973 H   0  0  0  0  0  0  0  0  0  0  0  0
    3.5771   -0.4879   -2.0058 H   0  0  0  0  0  0  0  0  0  0  0  0
    2.3342   -2.5148   -2.3829 H   0  0  0  0  0  0  0  0  0  0  0  0
    2.1897   -2.8316   -0.6453 H   0  0  0  0  0  0  0  0  0  0  0  0
    0.0133   -1.8770   -1.2070 H   0  0  0  0  0  0  0  0  0  0  0  0
    0.7708   -0.6706   -2.2504 H   0  0  0  0  0  0  0  0  0  0  0  0
    0.6241    0.6662   -0.3424 H   0  0  0  0  0  0  0  0  0  0  0  0
    1.1962   -1.8123    1.4057 H   0  0  0  0  0  0  0  0  0  0  0  0
    1.0585   -0.1713    2.0234 H   0  0  0  0  0  0  0  0  0  0  0  0
   -1.3602    1.0307    1.7579 H   0  0  0  0  0  0  0  0  0  0  0  0
   -4.8628   -2.0045    1.4128 H   0  0  0  0  0  0  0  0  0  0  0  0
   -7.1279   -1.5100    2.0822 H   0  0  0  0  0  0  0  0  0  0  0  0
   -6.7383    0.2111    2.1433 H   0  0  0  0  0  0  0  0  0  0  0  0
   -7.2168   -2.7183   -0.1541 H   0  0  0  0  0  0  0  0  0  0  0  0
   -7.7872   -2.4987   -2.5467 H   0  0  0  0  0  0  0  0  0  0  0  0
   -7.8183   -0.2632   -3.6231 H   0  0  0  0  0  0  0  0  0  0  0  0
   -7.2917    1.7647   -2.2914 H   0  0  0  0  0  0  0  0  0  0  0  0
   -6.7196    1.5636    0.1064 H   0  0  0  0  0  0  0  0  0  0  0  0
    7.6774   -0.3580   -1.1426 H   0  0  0  0  0  0  0  0  0  0  0  0
    8.6987    0.8820   -0.3688 H   0  0  0  0  0  0  0  0  0  0  0  0
    7.9351    1.2191   -1.9605 H   0  0  0  0  0  0  0  0  0  0  0  0
  1  2  1  0
  2  3  2  0
  3  4  1  0
  4  5  1  0
  5  6  2  0
  5  7  1  0
  7  8  1  0
  8  9  1  0
  9 10  1  0
 10 11  1  0
 11 12  1  0
 12 13  1  0
 13 14  1  0
 14 15  2  0
 15 16  1  0
 16 17  2  0
 16 18  1  0
 18 19  1  0
 19 20  1  0
 20 21  2  0
 21 22  1  0
 22 23  2  0
 23 24  1  0
 24 25  2  0
 15 26  1  0
 26 27  2  0
  4 28  2  0
 28 29  1  0
 29 30  1  0
 29  2  1  0
 11  7  1  0
 27 13  1  0
 25 20  1  0
  1 31  1  0
  1 32  1  0
  1 33  1  0
  3 34  1  0
  8 35  1  0
  8 36  1  0
  9 37  1  0
  9 38  1  0
 10 39  1  0
 10 40  1  0
 11 41  1  6
 12 42  1  0
 12 43  1  0
 14 44  1  0
 18 45  1  0
 19 46  1  0
 19 47  1  0
 21 48  1  0
 22 49  1  0
 23 50  1  0
 24 51  1  0
 25 52  1  0
 30 53  1  0
 30 54  1  0
 30 55  1  0
M  END
$$$$
