
     RDKit          3D

 56 59  0  0  0  0  0  0  0  0999 V2000
   -3.1067   -2.5966   -2.6176 C   0  0  0  0  0  0  0  0  0  0  0  0
   -2.1598   -1.8623   -1.7926 N   0  0  0  0  0  0  0  0  0  0  0  0
   -2.0639   -2.2981   -0.3924 C   0  0  0  0  0  0  0  0  0  0  0  0
   -2.1378   -1.2848    0.7764 C   0  0  0  0  0  0  0  0  0  0  0  0
   -1.6626   -1.6177    1.8736 O   0  0  0  0  0  0  0  0  0  0  0  0
   -2.8091   -0.0689    0.6431 N   0  0  0  0  0  0  0  0  0  0  0  0
   -2.5934    0.9198    1.6983 C   0  0  0  0  0  0  0  0  0  0  0  0
   -3.6175    0.7921    2.8192 C   0  0  0  0  0  0  0  0  0  0  0  0
   -4.9057    1.5812    2.5848 C   0  0  0  0  0  0  0  0  0  0  0  0
   -5.4282    1.6466    1.1522 C   0  0  0  0  0  0  0  0  0  0  0  0
   -5.2697    0.3624    0.3402 C   0  0  0  0  0  0  0  0  0  0  0  0
   -3.8826    0.2005   -0.3028 C   0  0  0  0  0  0  0  0  0  0  0  0
   -1.1589   -1.1496   -2.4822 C   0  0  0  0  0  0  0  0  0  0  0  0
   -1.2687   -0.9545   -3.6969 O   0  0  0  0  0  0  0  0  0  0  0  0
    0.0254   -0.6028   -1.7842 C   0  0  0  0  0  0  0  0  0  0  0  0
    0.9880    0.2880   -2.3927 C   0  0  0  0  0  0  0  0  0  0  0  0
    1.9004    0.5366   -1.4100 C   0  0  0  0  0  0  0  0  0  0  0  0
    1.4981   -0.1885   -0.3466 N   0  0  0  0  0  0  0  0  0  0  0  0
    0.3777   -0.8776   -0.5083 N   0  0  0  0  0  0  0  0  0  0  0  0
    2.3023   -0.0285    0.8499 C   0  0  0  0  0  0  0  0  0  0  0  0
    3.5515    0.7005    0.2881 C   0  0  1  0  0  0  0  0  0  0  0  0
    4.5865   -0.2828    0.1135 O   0  0  0  0  0  0  0  0  0  0  0  0
    5.8808    0.1445    0.0741 C   0  0  0  0  0  0  0  0  0  0  0  0
    6.8435   -0.8641    0.1276 C   0  0  0  0  0  0  0  0  0  0  0  0
    8.1970   -0.5390    0.0917 C   0  0  0  0  0  0  0  0  0  0  0  0
    8.5454    0.7986   -0.0014 C   0  0  0  0  0  0  0  0  0  0  0  0
    7.6456    1.8049   -0.0656 N   0  0  0  0  0  0  0  0  0  0  0  0
    6.3363    1.4539   -0.0301 C   0  0  0  0  0  0  0  0  0  0  0  0
    3.1224    1.2978   -1.0961 C   0  0  0  0  0  0  0  0  0  0  0  0
   -3.3103   -2.0772   -3.5597 H   0  0  0  0  0  0  0  0  0  0  0  0
   -4.0549   -2.7156   -2.0816 H   0  0  0  0  0  0  0  0  0  0  0  0
   -2.6831   -3.5834   -2.8379 H   0  0  0  0  0  0  0  0  0  0  0  0
   -1.1427   -2.8795   -0.2913 H   0  0  0  0  0  0  0  0  0  0  0  0
   -2.8849   -2.9950   -0.2024 H   0  0  0  0  0  0  0  0  0  0  0  0
   -2.5843    1.9181    1.2570 H   0  0  0  0  0  0  0  0  0  0  0  0
   -1.5974    0.7609    2.1204 H   0  0  0  0  0  0  0  0  0  0  0  0
   -3.1740    1.1469    3.7590 H   0  0  0  0  0  0  0  0  0  0  0  0
   -3.8740   -0.2655    2.9788 H   0  0  0  0  0  0  0  0  0  0  0  0
   -5.6837    1.1493    3.2307 H   0  0  0  0  0  0  0  0  0  0  0  0
   -4.7629    2.6103    2.9417 H   0  0  0  0  0  0  0  0  0  0  0  0
   -4.9539    2.4809    0.6227 H   0  0  0  0  0  0  0  0  0  0  0  0
   -6.4970    1.8955    1.2066 H   0  0  0  0  0  0  0  0  0  0  0  0
   -5.5368   -0.5177    0.9422 H   0  0  0  0  0  0  0  0  0  0  0  0
   -5.9953    0.4081   -0.4827 H   0  0  0  0  0  0  0  0  0  0  0  0
   -3.9799   -0.6165   -1.0129 H   0  0  0  0  0  0  0  0  0  0  0  0
   -3.6129    1.0992   -0.8722 H   0  0  0  0  0  0  0  0  0  0  0  0
    0.9633    0.6719   -3.4025 H   0  0  0  0  0  0  0  0  0  0  0  0
    2.5124   -1.0143    1.2732 H   0  0  0  0  0  0  0  0  0  0  0  0
    1.7293    0.6017    1.5370 H   0  0  0  0  0  0  0  0  0  0  0  0
    3.8722    1.4694    1.0028 H   0  0  0  0  0  0  0  0  0  0  0  0
    6.5392   -1.9049    0.2029 H   0  0  0  0  0  0  0  0  0  0  0  0
    8.9581   -1.3094    0.1430 H   0  0  0  0  0  0  0  0  0  0  0  0
    9.5864    1.1041   -0.0283 H   0  0  0  0  0  0  0  0  0  0  0  0
    5.6649    2.3013   -0.1038 H   0  0  0  0  0  0  0  0  0  0  0  0
    3.8880    1.1710   -1.8678 H   0  0  0  0  0  0  0  0  0  0  0  0
    2.8778    2.3599   -0.9880 H   0  0  0  0  0  0  0  0  0  0  0  0
  1  2  1  0
  2  3  1  0
  3  4  1  0
  4  5  2  0
  4  6  1  0
  6  7  1  0
  7  8  1  0
  8  9  1  0
  9 10  1  0
 10 11  1  0
 11 12  1  0
  2 13  1  0
 13 14  2  0
 13 15  1  0
 15 16  1  0
 16 17  2  0
 17 18  1  0
 18 19  1  0
 18 20  1  0
 20 21  1  0
 21 22  1  0
 22 23  1  0
 23 24  2  0
 24 25  1  0
 25 26  2  0
 26 27  1  0
 27 28  2  0
 21 29  1  0
 12  6  1  0
 19 15  2  0
 28 23  1  0
 29 17  1  0
  1 30  1  0
  1 31  1  0
  1 32  1  0
  3 33  1  0
  3 34  1  0
  7 35  1  0
  7 36  1  0
  8 37  1  0
  8 38  1  0
  9 39  1  0
  9 40  1  0
 10 41  1  0
 10 42  1  0
 11 43  1  0
 11 44  1  0
 12 45  1  0
 12 46  1  0
 16 47  1  0
 20 48  1  0
 20 49  1  0
 21 50  1  1
 24 51  1  0
 25 52  1  0
 26 53  1  0
 28 54  1  0
 29 55  1  0
 29 56  1  0
M  END
$$$$
