
     RDKit          3D

 65 69  0  0  0  0  0  0  0  0999 V2000
   10.2312   -0.2647    0.9428 C   0  0  0  0  0  0  0  0  0  0  0  0
    9.0011    0.6133    0.8134 C   0  0  0  0  0  0  0  0  0  0  0  0
    7.7988   -0.1173    1.1637 N   0  0  0  0  0  0  0  0  0  0  0  0
    6.5651    0.3890    0.7856 C   0  0  0  0  0  0  0  0  0  0  0  0
    6.4438    1.4199    0.1381 O   0  0  0  0  0  0  0  0  0  0  0  0
    5.5560   -0.4416    1.2192 N   0  0  0  0  0  0  0  0  0  0  0  0
    4.1696   -0.2679    1.0391 C   0  0  0  0  0  0  0  0  0  0  0  0
    3.5864    0.9154    0.5920 C   0  0  0  0  0  0  0  0  0  0  0  0
    2.1987    0.9989    0.4056 C   0  0  0  0  0  0  0  0  0  0  0  0
    1.3485   -0.0930    0.6564 C   0  0  0  0  0  0  0  0  0  0  0  0
   -0.1060   -0.0186    0.4064 C   0  0  0  0  0  0  0  0  0  0  0  0
   -0.6072    1.1321   -0.0710 N   0  0  0  0  0  0  0  0  0  0  0  0
   -1.9289    1.1598   -0.3510 C   0  0  0  0  0  0  0  0  0  0  0  0
   -2.7533    0.0597   -0.1499 C   0  0  0  0  0  0  0  0  0  0  0  0
   -2.1450   -1.0923    0.3361 C   0  0  0  0  0  0  0  0  0  0  0  0
   -2.8887   -2.2675    0.5059 N   0  0  0  0  0  0  0  0  0  0  0  0
   -2.4675   -3.0905    1.6638 C   0  0  0  0  0  0  0  0  0  0  0  0
   -1.6642   -4.3200    1.2231 C   0  0  0  0  0  0  0  0  0  0  0  0
   -2.3695   -5.1784    0.3093 O   0  0  0  0  0  0  0  0  0  0  0  0
   -3.4552   -4.5226   -0.3666 C   0  0  0  0  0  0  0  0  0  0  0  0
   -3.1581   -3.0488   -0.7410 C   0  0  2  0  0  0  0  0  0  0  0  0
   -2.0332   -2.9958   -1.7843 C   0  0  0  0  0  0  0  0  0  0  0  0
   -0.8345   -1.1245    0.6359 N   0  0  0  0  0  0  0  0  0  0  0  0
   -4.2162    0.1286   -0.4880 C   0  0  0  0  0  0  0  0  0  0  0  0
   -4.7511    1.5601   -0.5145 C   0  0  0  0  0  0  0  0  0  0  0  0
   -3.8686    2.3880   -1.3298 N   0  0  0  0  0  0  0  0  0  0  0  0
   -4.4037    3.6224   -1.7059 C   0  0  0  0  0  0  0  0  0  0  0  0
   -3.5681    4.6049   -2.0872 N   0  0  0  0  0  0  0  0  0  0  0  0
   -4.1050    5.7745   -2.4847 C   0  0  0  0  0  0  0  0  0  0  0  0
   -5.4521    6.0148   -2.5209 C   0  0  0  0  0  0  0  0  0  0  0  0
   -6.2337    4.9661   -2.1135 C   0  0  0  0  0  0  0  0  0  0  0  0
   -5.7394    3.7822   -1.7058 N   0  0  0  0  0  0  0  0  0  0  0  0
   -2.4805    2.4808   -0.8680 C   0  0  0  0  0  0  0  0  0  0  0  0
    1.9554   -1.2688    1.1345 C   0  0  0  0  0  0  0  0  0  0  0  0
    3.3409   -1.3550    1.3295 C   0  0  0  0  0  0  0  0  0  0  0  0
   10.1603   -1.1317    0.2764 H   0  0  0  0  0  0  0  0  0  0  0  0
   10.3433   -0.6406    1.9659 H   0  0  0  0  0  0  0  0  0  0  0  0
   11.1330    0.2964    0.6819 H   0  0  0  0  0  0  0  0  0  0  0  0
    8.9107    0.9868   -0.2135 H   0  0  0  0  0  0  0  0  0  0  0  0
    9.0740    1.4773    1.4828 H   0  0  0  0  0  0  0  0  0  0  0  0
    7.7952   -0.5378    2.0806 H   0  0  0  0  0  0  0  0  0  0  0  0
    5.8606   -1.3587    1.5097 H   0  0  0  0  0  0  0  0  0  0  0  0
    4.1799    1.7975    0.3694 H   0  0  0  0  0  0  0  0  0  0  0  0
    1.7867    1.9382    0.0382 H   0  0  0  0  0  0  0  0  0  0  0  0
   -1.9154   -2.5139    2.4154 H   0  0  0  0  0  0  0  0  0  0  0  0
   -3.3863   -3.4282    2.1616 H   0  0  0  0  0  0  0  0  0  0  0  0
   -0.7250   -4.0233    0.7441 H   0  0  0  0  0  0  0  0  0  0  0  0
   -1.4000   -4.9259    2.0970 H   0  0  0  0  0  0  0  0  0  0  0  0
   -3.6876   -5.1097   -1.2620 H   0  0  0  0  0  0  0  0  0  0  0  0
   -4.3361   -4.5786    0.2851 H   0  0  0  0  0  0  0  0  0  0  0  0
   -4.0679   -2.6476   -1.2033 H   0  0  0  0  0  0  0  0  0  0  0  0
   -1.9210   -1.9895   -2.2022 H   0  0  0  0  0  0  0  0  0  0  0  0
   -1.0633   -3.2933   -1.3757 H   0  0  0  0  0  0  0  0  0  0  0  0
   -2.2571   -3.6661   -2.6228 H   0  0  0  0  0  0  0  0  0  0  0  0
   -4.8072   -0.4443    0.2351 H   0  0  0  0  0  0  0  0  0  0  0  0
   -4.3591   -0.3238   -1.4771 H   0  0  0  0  0  0  0  0  0  0  0  0
   -5.7689    1.5151   -0.9193 H   0  0  0  0  0  0  0  0  0  0  0  0
   -4.8141    1.9632    0.5042 H   0  0  0  0  0  0  0  0  0  0  0  0
   -3.3864    6.5306   -2.7872 H   0  0  0  0  0  0  0  0  0  0  0  0
   -5.8668    6.9564   -2.8488 H   0  0  0  0  0  0  0  0  0  0  0  0
   -7.3169    5.0390   -2.0988 H   0  0  0  0  0  0  0  0  0  0  0  0
   -1.8263    2.8031   -1.6862 H   0  0  0  0  0  0  0  0  0  0  0  0
   -2.4033    3.2045   -0.0460 H   0  0  0  0  0  0  0  0  0  0  0  0
    1.3455   -2.1450    1.3486 H   0  0  0  0  0  0  0  0  0  0  0  0
    3.7543   -2.2933    1.6921 H   0  0  0  0  0  0  0  0  0  0  0  0
  1  2  1  0
  2  3  1  0
  3  4  1  0
  4  5  2  0
  4  6  1  0
  6  7  1  0
  7  8  2  0
  8  9  1  0
  9 10  2  0
 10 11  1  0
 11 12  2  0
 12 13  1  0
 13 14  2  0
 14 15  1  0
 15 16  1  0
 16 17  1  0
 17 18  1  0
 18 19  1  0
 19 20  1  0
 20 21  1  0
 21 22  1  0
 15 23  2  0
 14 24  1  0
 24 25  1  0
 25 26  1  0
 26 27  1  0
 27 28  2  0
 28 29  1  0
 29 30  2  0
 30 31  1  0
 31 32  2  0
 26 33  1  0
 10 34  1  0
 34 35  2  0
 35  7  1  0
 23 11  1  0
 32 27  1  0
 33 13  1  0
 21 16  1  0
  1 36  1  0
  1 37  1  0
  1 38  1  0
  2 39  1  0
  2 40  1  0
  3 41  1  0
  6 42  1  0
  8 43  1  0
  9 44  1  0
 17 45  1  0
 17 46  1  0
 18 47  1  0
 18 48  1  0
 20 49  1  0
 20 50  1  0
 21 51  1  6
 22 52  1  0
 22 53  1  0
 22 54  1  0
 24 55  1  0
 24 56  1  0
 25 57  1  0
 25 58  1  0
 29 59  1  0
 30 60  1  0
 31 61  1  0
 33 62  1  0
 33 63  1  0
 34 64  1  0
 35 65  1  0
M  END
$$$$
