
     RDKit          3D

 52 55  0  0  0  0  0  0  0  0999 V2000
    1.0753    5.7109    1.8504 C   0  0  0  0  0  0  0  0  0  0  0  0
    0.1992    4.5611    1.5536 C   0  0  0  0  0  0  0  0  0  0  0  0
   -1.0949    4.5260    1.8839 N   0  0  0  0  0  0  0  0  0  0  0  0
   -1.4644    3.3270    1.4140 N   0  0  0  0  0  0  0  0  0  0  0  0
   -0.4141    2.6713    0.8252 C   0  0  0  0  0  0  0  0  0  0  0  0
   -0.5010    1.2927    0.2260 C   0  0  1  0  0  0  0  0  0  0  0  0
    0.8015    0.9407   -0.5413 C   0  0  0  0  0  0  0  0  0  0  0  0
    1.9443    0.5562    0.3916 C   0  0  0  0  0  0  0  0  0  0  0  0
    1.5373   -0.5300    1.2855 N   0  0  0  0  0  0  0  0  0  0  0  0
    2.4731   -1.4462    1.7999 C   0  0  0  0  0  0  0  0  0  0  0  0
    2.3559   -1.8880    2.9438 O   0  0  0  0  0  0  0  0  0  0  0  0
    3.5660   -1.8740    0.9409 C   0  0  0  0  0  0  0  0  0  0  0  0
    4.9010   -1.9880    1.2790 C   0  0  0  0  0  0  0  0  0  0  0  0
    5.6919   -2.4938    0.2067 C   0  0  0  0  0  0  0  0  0  0  0  0
    4.9283   -2.7907   -0.9001 C   0  0  0  0  0  0  0  0  0  0  0  0
    3.2671   -2.4765   -0.6378 S   0  0  0  0  0  0  0  0  0  0  0  0
    0.3812   -0.2292    2.1178 C   0  0  0  0  0  0  0  0  0  0  0  0
   -0.8221    0.2242    1.2986 C   0  0  2  0  0  0  0  0  0  0  0  0
   -1.4545   -0.9113    0.4879 C   0  0  0  0  0  0  0  0  0  0  0  0
   -2.1267   -0.2368   -0.6141 N   0  0  0  0  0  0  0  0  0  0  0  0
   -3.0920   -0.7445   -1.4579 C   0  0  0  0  0  0  0  0  0  0  0  0
   -3.6608   -0.0161   -2.2729 O   0  0  0  0  0  0  0  0  0  0  0  0
   -3.3940   -2.2413   -1.3748 C   0  0  0  0  0  0  0  0  0  0  0  0
   -4.7651   -2.5481   -1.9795 C   0  0  0  0  0  0  0  0  0  0  0  0
   -2.3140   -3.0348   -2.1072 C   0  0  0  0  0  0  0  0  0  0  0  0
   -1.7044    1.1537   -0.7289 C   0  0  0  0  0  0  0  0  0  0  0  0
    0.6517    3.4415    0.9075 N   0  0  0  0  0  0  0  0  0  0  0  0
    1.2154    6.3205    0.9527 H   0  0  0  0  0  0  0  0  0  0  0  0
    2.0573    5.3666    2.1894 H   0  0  0  0  0  0  0  0  0  0  0  0
    0.6503    6.3454    2.6345 H   0  0  0  0  0  0  0  0  0  0  0  0
   -2.4265    3.0286    1.5316 H   0  0  0  0  0  0  0  0  0  0  0  0
    1.1135    1.7758   -1.1815 H   0  0  0  0  0  0  0  0  0  0  0  0
    0.6222    0.0937   -1.2172 H   0  0  0  0  0  0  0  0  0  0  0  0
    2.8236    0.2925   -0.1989 H   0  0  0  0  0  0  0  0  0  0  0  0
    2.2542    1.3966    1.0229 H   0  0  0  0  0  0  0  0  0  0  0  0
    5.2883   -1.7117    2.2531 H   0  0  0  0  0  0  0  0  0  0  0  0
    6.7635   -2.6458    0.2511 H   0  0  0  0  0  0  0  0  0  0  0  0
    5.2622   -3.1957   -1.8459 H   0  0  0  0  0  0  0  0  0  0  0  0
    0.6817    0.5549    2.8239 H   0  0  0  0  0  0  0  0  0  0  0  0
    0.1053   -1.1084    2.7117 H   0  0  0  0  0  0  0  0  0  0  0  0
   -1.5880    0.5992    1.9925 H   0  0  0  0  0  0  0  0  0  0  0  0
   -0.7099   -1.5945    0.0694 H   0  0  0  0  0  0  0  0  0  0  0  0
   -2.1666   -1.4857    1.0865 H   0  0  0  0  0  0  0  0  0  0  0  0
   -3.4270   -2.5471   -0.3249 H   0  0  0  0  0  0  0  0  0  0  0  0
   -5.0093   -3.6100   -1.8695 H   0  0  0  0  0  0  0  0  0  0  0  0
   -5.5481   -1.9680   -1.4790 H   0  0  0  0  0  0  0  0  0  0  0  0
   -4.8001   -2.3018   -3.0465 H   0  0  0  0  0  0  0  0  0  0  0  0
   -2.2597   -2.7444   -3.1626 H   0  0  0  0  0  0  0  0  0  0  0  0
   -2.5215   -4.1089   -2.0610 H   0  0  0  0  0  0  0  0  0  0  0  0
   -1.3231   -2.8688   -1.6764 H   0  0  0  0  0  0  0  0  0  0  0  0
   -1.4599    1.3903   -1.7710 H   0  0  0  0  0  0  0  0  0  0  0  0
   -2.5636    1.7708   -0.4417 H   0  0  0  0  0  0  0  0  0  0  0  0
  1  2  1  0
  2  3  2  0
  3  4  1  0
  4  5  1  0
  6  5  1  1
  6  7  1  0
  7  8  1  0
  8  9  1  0
  9 10  1  0
 10 11  2  0
 10 12  1  0
 12 13  2  0
 13 14  1  0
 14 15  2  0
 15 16  1  0
  9 17  1  0
 17 18  1  0
 18 19  1  0
 19 20  1  0
 20 21  1  0
 21 22  2  0
 21 23  1  0
 23 24  1  0
 23 25  1  0
 20 26  1  0
  5 27  2  0
 27  2  1  0
 18  6  1  0
 26  6  1  0
 16 12  1  0
  1 28  1  0
  1 29  1  0
  1 30  1  0
  4 31  1  0
  7 32  1  0
  7 33  1  0
  8 34  1  0
  8 35  1  0
 13 36  1  0
 14 37  1  0
 15 38  1  0
 17 39  1  0
 17 40  1  0
 18 41  1  1
 19 42  1  0
 19 43  1  0
 23 44  1  0
 24 45  1  0
 24 46  1  0
 24 47  1  0
 25 48  1  0
 25 49  1  0
 25 50  1  0
 26 51  1  0
 26 52  1  0
M  END
$$$$
