
     RDKit          3D

 38 38  0  0  0  0  0  0  0  0999 V2000
    0.6878    0.0000    0.0000 Cl  0  0  0  0  0  0  0  0  0  0  0  0
   -0.4405   -1.9268   -1.8706 N   0  0  0  0  0  0  0  0  0  0  0  0
   -0.3691   -1.0225   -0.9108 C   0  0  0  0  0  0  0  0  0  0  0  0
   -1.5591   -0.6631   -0.2969 N   0  0  0  0  0  0  0  0  0  0  0  0
   -2.7391   -0.3762   -1.0364 C   0  0  0  0  0  0  0  0  0  0  0  0
   -3.8656   -0.1053   -0.0951 C   0  0  0  0  0  0  0  0  0  0  0  0
   -4.0421    1.1953    0.3220 C   0  0  0  0  0  0  0  0  0  0  0  0
   -5.0502    1.5381    1.1877 C   0  0  0  0  0  0  0  0  0  0  0  0
   -5.8763    0.5207    1.6191 C   0  0  0  0  0  0  0  0  0  0  0  0
   -5.7427   -0.7899    1.2335 C   0  0  0  0  0  0  0  0  0  0  0  0
   -4.7098   -1.0797    0.3598 C   0  0  0  0  0  0  0  0  0  0  0  0
    0.9836   -0.9291   -0.6513 N   0  0  0  0  0  0  0  0  0  0  0  0
    1.7531    0.1199   -0.2360 C   0  0  0  0  0  0  0  0  0  0  0  0
    1.0267    1.1444   -0.1504 O   0  0  0  0  0  0  0  0  0  0  0  0
    3.1576    0.0271    0.0323 C   0  0  0  0  0  0  0  0  0  0  0  0
    3.8821   -1.0958   -0.0038 N   0  0  0  0  0  0  0  0  0  0  0  0
    5.2170   -1.0886    0.2655 C   0  0  0  0  0  0  0  0  0  0  0  0
    6.1053   -2.5911    0.2012 Cl  0  0  0  0  0  0  0  0  0  0  0  0
    5.8072    0.1115    0.5781 C   0  0  0  0  0  0  0  0  0  0  0  0
    7.2026    0.1048    0.8573 N   0  0  0  0  0  0  0  0  0  0  0  0
    5.0692    1.2379    0.6121 N   0  0  0  0  0  0  0  0  0  0  0  0
    3.7617    1.2202    0.3466 C   0  0  0  0  0  0  0  0  0  0  0  0
    2.9384    2.4083    0.3623 N   0  0  0  0  0  0  0  0  0  0  0  0
   -0.6878    0.0000    0.0000 H   0  0  0  0  0  0  0  0  0  0  0  0
   -1.3026   -2.2778   -2.0937 H   0  0  0  0  0  0  0  0  0  0  0  0
   -1.4927   -0.6674    0.7811 H   0  0  0  0  0  0  0  0  0  0  0  0
   -3.0345   -1.2000   -1.7343 H   0  0  0  0  0  0  0  0  0  0  0  0
   -2.6202    0.5204   -1.6780 H   0  0  0  0  0  0  0  0  0  0  0  0
   -3.3843    2.0045   -0.0217 H   0  0  0  0  0  0  0  0  0  0  0  0
   -5.1782    2.5542    1.5057 H   0  0  0  0  0  0  0  0  0  0  0  0
   -6.6816    0.7570    2.3026 H   0  0  0  0  0  0  0  0  0  0  0  0
   -6.4297   -1.5288    1.6152 H   0  0  0  0  0  0  0  0  0  0  0  0
   -4.5599   -2.0931    0.0249 H   0  0  0  0  0  0  0  0  0  0  0  0
    1.4409   -1.8905   -0.5294 H   0  0  0  0  0  0  0  0  0  0  0  0
    7.5622    0.6455    1.6792 H   0  0  0  0  0  0  0  0  0  0  0  0
    7.8652   -0.4161    0.2741 H   0  0  0  0  0  0  0  0  0  0  0  0
    2.6301    2.7218    1.3081 H   0  0  0  0  0  0  0  0  0  0  0  0
    2.6755    2.9103   -0.5084 H   0  0  0  0  0  0  0  0  0  0  0  0
  2  3  2  3
  3  4  1  0
  4  5  1  0
  5  6  1  0
  6  7  2  0
  7  8  1  0
  8  9  2  0
  9 10  1  0
 10 11  2  0
  3 12  1  0
 12 13  1  0
 13 14  2  0
 13 15  1  0
 15 16  2  0
 16 17  1  0
 17 18  1  0
 17 19  2  0
 19 20  1  0
 19 21  1  0
 21 22  2  0
 22 23  1  0
 11  6  1  0
 22 15  1  0
  1 24  1  0
  2 25  1  0
  4 26  1  0
  5 27  1  0
  5 28  1  0
  7 29  1  0
  8 30  1  0
  9 31  1  0
 10 32  1  0
 11 33  1  0
 12 34  1  0
 20 35  1  0
 20 36  1  0
 23 37  1  0
 23 38  1  0
M  END
$$$$
