
     RDKit          3D

 45 47  0  0  0  0  0  0  0  0999 V2000
    7.4136   -0.0410   -1.1282 C   0  0  0  0  0  0  0  0  0  0  0  0
    6.7581    0.2741    0.5062 S   0  0  0  0  0  4  0  0  0  0  0  0
    7.3561   -0.5830    1.5828 O   0  0  0  0  0  0  0  0  0  0  0  0
    5.0002    0.1774    0.4158 C   0  0  0  0  0  0  0  0  0  0  0  0
    4.2918    1.3271    0.1378 C   0  0  0  0  0  0  0  0  0  0  0  0
    2.8985    1.3288    0.0496 C   0  0  0  0  0  0  0  0  0  0  0  0
    2.1844    0.1653    0.2407 C   0  0  0  0  0  0  0  0  0  0  0  0
    0.7165    0.1359    0.1539 C   0  0  0  0  0  0  0  0  0  0  0  0
   -0.1124    1.1581   -0.1042 N   0  0  0  0  0  0  0  0  0  0  0  0
   -1.3720    0.7040   -0.0925 C   0  0  0  0  0  0  0  0  0  0  0  0
   -2.5971    1.4649   -0.3231 C   0  0  0  0  0  0  0  0  0  0  0  0
   -3.5682    1.6084    0.6385 C   0  0  0  0  0  0  0  0  0  0  0  0
   -4.7373    2.3235    0.4492 C   0  0  0  0  0  0  0  0  0  0  0  0
   -4.8927    2.9102   -0.7967 C   0  0  0  0  0  0  0  0  0  0  0  0
   -6.0071    3.6254   -1.0614 F   0  0  0  0  0  0  0  0  0  0  0  0
   -3.9295    2.7769   -1.7732 C   0  0  0  0  0  0  0  0  0  0  0  0
   -2.7775    2.0562   -1.5467 C   0  0  0  0  0  0  0  0  0  0  0  0
   -1.3072   -0.6428    0.1828 C   0  0  0  0  0  0  0  0  0  0  0  0
   -2.3949   -1.6025    0.3074 C   0  0  0  0  0  0  0  0  0  0  0  0
   -3.1843   -1.8393   -0.7943 C   0  0  0  0  0  0  0  0  0  0  0  0
   -4.2376   -2.7594   -0.6987 C   0  0  0  0  0  0  0  0  0  0  0  0
   -4.4523   -3.3916    0.4734 N   0  0  0  0  0  0  0  0  0  0  0  0
   -3.7044   -3.1898    1.5757 C   0  0  0  0  0  0  0  0  0  0  0  0
   -2.6729   -2.2815    1.4630 C   0  0  0  0  0  0  0  0  0  0  0  0
   -0.0189   -0.9701    0.3301 N   0  0  0  0  0  0  0  0  0  0  0  0
    2.9088   -0.9730    0.5174 C   0  0  0  0  0  0  0  0  0  0  0  0
    4.2776   -0.9805    0.6053 C   0  0  0  0  0  0  0  0  0  0  0  0
    0.6919    0.0000    0.0000 Cl  0  0  0  0  0  0  0  0  0  0  0  0
    8.4553   -0.3573   -1.0630 H   0  0  0  0  0  0  0  0  0  0  0  0
    7.2917    0.9026   -1.7117 H   0  0  0  0  0  0  0  0  0  0  0  0
    6.7556   -0.7888   -1.6271 H   0  0  0  0  0  0  0  0  0  0  0  0
    4.7926    2.2840   -0.0252 H   0  0  0  0  0  0  0  0  0  0  0  0
    2.3591    2.2421   -0.1696 H   0  0  0  0  0  0  0  0  0  0  0  0
   -3.4506    1.1497    1.6157 H   0  0  0  0  0  0  0  0  0  0  0  0
   -5.5051    2.4530    1.1703 H   0  0  0  0  0  0  0  0  0  0  0  0
   -4.0793    3.2492   -2.7428 H   0  0  0  0  0  0  0  0  0  0  0  0
   -2.0632    1.9948   -2.3656 H   0  0  0  0  0  0  0  0  0  0  0  0
   -3.0365   -1.3500   -1.7418 H   0  0  0  0  0  0  0  0  0  0  0  0
   -4.8644   -2.9640   -1.5301 H   0  0  0  0  0  0  0  0  0  0  0  0
   -3.9524   -3.7426    2.4684 H   0  0  0  0  0  0  0  0  0  0  0  0
   -2.0636   -2.1000    2.3171 H   0  0  0  0  0  0  0  0  0  0  0  0
    0.3362   -1.9492    0.5498 H   0  0  0  0  0  0  0  0  0  0  0  0
    2.3718   -1.9095    0.6737 H   0  0  0  0  0  0  0  0  0  0  0  0
    4.8135   -1.8962    0.8251 H   0  0  0  0  0  0  0  0  0  0  0  0
   -0.6919    0.0000    0.0000 H   0  0  0  0  0  0  0  0  0  0  0  0
  1  2  1  0
  2  3  2  0
  2  4  1  0
  4  5  2  0
  5  6  1  0
  6  7  2  0
  7  8  1  0
  8  9  2  0
  9 10  1  0
 10 11  1  0
 11 12  2  0
 12 13  1  0
 13 14  2  0
 14 15  1  0
 14 16  1  0
 16 17  2  0
 10 18  2  0
 18 19  1  0
 19 20  2  0
 20 21  1  0
 21 22  2  0
 22 23  1  0
 23 24  2  0
 18 25  1  0
  7 26  1  0
 26 27  2  0
 27  4  1  0
 25  8  1  0
 17 11  1  0
 24 19  1  0
  1 29  1  0
  1 30  1  0
  1 31  1  0
  5 32  1  0
  6 33  1  0
 12 34  1  0
 13 35  1  0
 16 36  1  0
 17 37  1  0
 20 38  1  0
 21 39  1  0
 23 40  1  0
 24 41  1  0
 25 42  1  0
 26 43  1  0
 27 44  1  0
 28 45  1  0
M  END
$$$$
