
     RDKit          3D

 32 35  0  0  0  0  0  0  0  0999 V2000
    0.3708   -2.9102   -1.5487 O   0  0  0  0  0  0  0  0  0  0  0  0
    1.1654   -2.0557   -1.1974 C   0  0  0  0  0  0  0  0  0  0  0  0
    2.5387   -2.1167   -1.3166 N   0  0  0  0  0  0  0  0  0  0  0  0
    3.1430   -1.0000   -0.7538 C   0  0  0  0  0  0  0  0  0  0  0  0
    4.5062   -0.7789   -0.6812 C   0  0  0  0  0  0  0  0  0  0  0  0
    4.9241    0.3863   -0.0461 C   0  0  0  0  0  0  0  0  0  0  0  0
    6.7720    0.7613    0.0961 Br  0  0  0  0  0  0  0  0  0  0  0  0
    3.9929    1.2819    0.4988 C   0  0  0  0  0  0  0  0  0  0  0  0
    2.6152    1.0274    0.4093 C   0  0  0  0  0  0  0  0  0  0  0  0
    2.1814   -0.1170   -0.2353 C   0  0  0  0  0  0  0  0  0  0  0  0
    0.8722   -0.7296   -0.5249 C   0  0  0  0  0  0  0  0  0  0  0  0
   -0.4198   -0.3976   -0.3477 C   0  0  0  0  0  0  0  0  0  0  0  0
   -1.5173   -1.1769   -0.6906 N   0  0  0  0  0  0  0  0  0  0  0  0
   -2.6776   -0.6523   -0.1432 C   0  0  0  0  0  0  0  0  0  0  0  0
   -3.9518   -1.1826   -0.2151 C   0  0  0  0  0  0  0  0  0  0  0  0
   -5.0041   -0.4600    0.3537 C   0  0  0  0  0  0  0  0  0  0  0  0
   -4.7707    0.7820    0.9656 C   0  0  0  0  0  0  0  0  0  0  0  0
   -3.4826    1.3246    1.0110 C   0  0  0  0  0  0  0  0  0  0  0  0
   -2.4487    0.5988    0.4427 C   0  0  0  0  0  0  0  0  0  0  0  0
   -0.9895    0.8689    0.2996 C   0  0  0  0  0  0  0  0  0  0  0  0
   -0.3154    1.9303    0.6035 N   0  0  0  0  0  0  0  0  0  0  0  0
   -1.0935    2.9476    1.1529 O   0  0  0  0  0  0  0  0  0  0  0  0
    3.0152   -2.9049   -1.7278 H   0  0  0  0  0  0  0  0  0  0  0  0
    5.2160   -1.4851   -1.0956 H   0  0  0  0  0  0  0  0  0  0  0  0
    4.3304    2.1852    1.0030 H   0  0  0  0  0  0  0  0  0  0  0  0
    1.9327    1.7343    0.8596 H   0  0  0  0  0  0  0  0  0  0  0  0
   -1.3862   -2.1543   -0.9340 H   0  0  0  0  0  0  0  0  0  0  0  0
   -4.1351   -2.1349   -0.7010 H   0  0  0  0  0  0  0  0  0  0  0  0
   -6.0149   -0.8601    0.3170 H   0  0  0  0  0  0  0  0  0  0  0  0
   -5.6020    1.3313    1.4022 H   0  0  0  0  0  0  0  0  0  0  0  0
   -3.3181    2.2862    1.4803 H   0  0  0  0  0  0  0  0  0  0  0  0
   -0.4490    3.6706    1.2638 H   0  0  0  0  0  0  0  0  0  0  0  0
  1  2  2  0
  2  3  1  0
  3  4  1  0
  4  5  2  0
  5  6  1  0
  6  7  1  0
  6  8  2  0
  8  9  1  0
  9 10  2  0
 10 11  1  0
 11 12  2  0
 12 13  1  0
 13 14  1  0
 14 15  2  0
 15 16  1  0
 16 17  2  0
 17 18  1  0
 18 19  2  0
 19 20  1  0
 20 21  2  0
 21 22  1  0
 11  2  1  0
 20 12  1  0
 10  4  1  0
 19 14  1  0
  3 23  1  0
  5 24  1  0
  8 25  1  0
  9 26  1  0
 13 27  1  0
 15 28  1  0
 16 29  1  0
 17 30  1  0
 18 31  1  0
 22 32  1  0
M  END
$$$$
