
     RDKit          3D

 71 75  0  0  0  0  0  0  0  0999 V2000
    0.9168   -4.8795    1.7288 C   0  0  0  0  0  0  0  0  0  0  0  0
    0.1514   -5.1797    0.4529 C   0  0  0  0  0  0  0  0  0  0  0  0
   -0.3528   -3.9752   -0.1761 N   0  0  0  0  0  0  0  0  0  0  0  0
    0.2278   -3.2872   -1.1959 C   0  0  0  0  0  0  0  0  0  0  0  0
   -0.5970   -2.2115   -1.4407 C   0  0  0  0  0  0  0  0  0  0  0  0
   -0.3393   -1.2558   -2.4896 C   0  0  0  0  0  0  0  0  0  0  0  0
   -1.1246   -1.2005   -3.6420 C   0  0  0  0  0  0  0  0  0  0  0  0
   -0.8133   -0.2555   -4.6088 C   0  0  0  0  0  0  0  0  0  0  0  0
    0.1979    0.6422   -4.5429 N   0  0  0  0  0  0  0  0  0  0  0  0
    0.9085    0.5518   -3.4032 C   0  0  0  0  0  0  0  0  0  0  0  0
    1.9689    1.3543   -3.0881 N   0  0  0  0  0  0  0  0  0  0  0  0
    2.4573    1.0559   -1.8309 C   0  0  0  0  0  0  0  0  0  0  0  0
    3.5603    1.7862   -1.1916 C   0  0  0  0  0  0  0  0  0  0  0  0
    3.9278    3.0736   -1.6094 C   0  0  0  0  0  0  0  0  0  0  0  0
    4.9615    3.7652   -0.9732 C   0  0  0  0  0  0  0  0  0  0  0  0
    5.6408    3.1817    0.0940 C   0  0  0  0  0  0  0  0  0  0  0  0
    5.3011    1.8960    0.5315 C   0  0  0  0  0  0  0  0  0  0  0  0
    6.0094    1.2697    1.7157 C   0  0  0  0  0  0  0  0  0  0  0  0
    7.4786    1.2686    1.5961 N   0  0  0  0  0  0  0  0  0  0  0  0
    7.9260    0.3438    0.5515 C   0  0  0  0  0  0  0  0  0  0  0  0
    8.0837    0.9048    2.8783 C   0  0  0  0  0  0  0  0  0  0  0  0
    4.2598    1.2114   -0.1177 C   0  0  0  0  0  0  0  0  0  0  0  0
    1.6970   -0.0143   -1.3745 C   0  0  0  0  0  0  0  0  0  0  0  0
    0.7159   -0.3350   -2.3546 C   0  0  0  0  0  0  0  0  0  0  0  0
   -1.6692   -2.3350   -0.5037 C   0  0  0  0  0  0  0  0  0  0  0  0
   -2.8187   -1.4516   -0.2914 C   0  0  0  0  0  0  0  0  0  0  0  0
   -4.0625   -1.9866    0.0676 C   0  0  0  0  0  0  0  0  0  0  0  0
   -5.1654   -1.1541    0.3001 C   0  0  0  0  0  0  0  0  0  0  0  0
   -5.0424    0.2298    0.1805 C   0  0  0  0  0  0  0  0  0  0  0  0
   -6.0898    1.1335    0.4435 N   0  0  0  0  0  0  0  0  0  0  0  0
   -7.4301    0.8481    0.5816 C   0  0  0  0  0  0  0  0  0  0  0  0
   -7.9489   -0.2281    0.2982 O   0  0  0  0  0  0  0  0  0  0  0  0
   -8.1879    1.9299    1.0497 N   0  0  0  0  0  0  0  0  0  0  0  0
   -9.6275    1.7375    1.1045 C   0  0  0  0  0  0  0  0  0  0  0  0
   -7.6605    2.9215    1.9778 C   0  0  0  0  0  0  0  0  0  0  0  0
   -3.8000    0.7702   -0.1685 C   0  0  0  0  0  0  0  0  0  0  0  0
   -2.6986   -0.0616   -0.4038 C   0  0  0  0  0  0  0  0  0  0  0  0
   -1.5074   -3.4394    0.2482 N   0  0  0  0  0  0  0  0  0  0  0  0
    1.7721   -4.2240    1.5312 H   0  0  0  0  0  0  0  0  0  0  0  0
    1.2920   -5.8055    2.1742 H   0  0  0  0  0  0  0  0  0  0  0  0
    0.2771   -4.3807    2.4644 H   0  0  0  0  0  0  0  0  0  0  0  0
    0.7988   -5.6884   -0.2695 H   0  0  0  0  0  0  0  0  0  0  0  0
   -0.7052   -5.8323    0.6545 H   0  0  0  0  0  0  0  0  0  0  0  0
    1.1521   -3.6082   -1.6550 H   0  0  0  0  0  0  0  0  0  0  0  0
   -1.9573   -1.8804   -3.7882 H   0  0  0  0  0  0  0  0  0  0  0  0
   -1.4080   -0.1941   -5.5184 H   0  0  0  0  0  0  0  0  0  0  0  0
    2.3176    2.0685   -3.7080 H   0  0  0  0  0  0  0  0  0  0  0  0
    3.4077    3.5736   -2.4221 H   0  0  0  0  0  0  0  0  0  0  0  0
    5.2333    4.7645   -1.3053 H   0  0  0  0  0  0  0  0  0  0  0  0
    6.4422    3.7282    0.5862 H   0  0  0  0  0  0  0  0  0  0  0  0
    5.7048    1.8528    2.5973 H   0  0  0  0  0  0  0  0  0  0  0  0
    5.6427    0.2473    1.8821 H   0  0  0  0  0  0  0  0  0  0  0  0
    7.5694    0.6593   -0.4347 H   0  0  0  0  0  0  0  0  0  0  0  0
    9.0200    0.3330    0.4915 H   0  0  0  0  0  0  0  0  0  0  0  0
    7.5840   -0.6819    0.7302 H   0  0  0  0  0  0  0  0  0  0  0  0
    7.7944   -0.1007    3.2074 H   0  0  0  0  0  0  0  0  0  0  0  0
    7.7925    1.6197    3.6569 H   0  0  0  0  0  0  0  0  0  0  0  0
    9.1777    0.9451    2.8140 H   0  0  0  0  0  0  0  0  0  0  0  0
    3.9981    0.2123    0.2245 H   0  0  0  0  0  0  0  0  0  0  0  0
    1.8075   -0.5046   -0.4156 H   0  0  0  0  0  0  0  0  0  0  0  0
   -4.1801   -3.0631    0.1819 H   0  0  0  0  0  0  0  0  0  0  0  0
   -6.1015   -1.6178    0.5943 H   0  0  0  0  0  0  0  0  0  0  0  0
   -5.8825    2.1087    0.2949 H   0  0  0  0  0  0  0  0  0  0  0  0
   -9.8871    1.2401    2.0453 H   0  0  0  0  0  0  0  0  0  0  0  0
   -9.9712    1.1221    0.2671 H   0  0  0  0  0  0  0  0  0  0  0  0
  -10.1259    2.7103    1.0487 H   0  0  0  0  0  0  0  0  0  0  0  0
   -6.5837    3.0703    1.8809 H   0  0  0  0  0  0  0  0  0  0  0  0
   -8.1657    3.8768    1.8045 H   0  0  0  0  0  0  0  0  0  0  0  0
   -7.8629    2.5812    2.9990 H   0  0  0  0  0  0  0  0  0  0  0  0
   -3.6630    1.8451   -0.2525 H   0  0  0  0  0  0  0  0  0  0  0  0
   -1.7443    0.3979   -0.6474 H   0  0  0  0  0  0  0  0  0  0  0  0
  1  2  1  0
  2  3  1  0
  3  4  1  0
  4  5  2  0
  5  6  1  0
  6  7  2  0
  7  8  1  0
  8  9  2  0
  9 10  1  0
 10 11  1  0
 11 12  1  0
 12 13  1  0
 13 14  2  0
 14 15  1  0
 15 16  2  0
 16 17  1  0
 17 18  1  0
 18 19  1  0
 19 20  1  0
 19 21  1  0
 17 22  2  0
 12 23  2  0
 23 24  1  0
  5 25  1  0
 25 26  1  0
 26 27  2  0
 27 28  1  0
 28 29  2  0
 29 30  1  0
 30 31  1  0
 31 32  2  0
 31 33  1  0
 33 34  1  0
 33 35  1  0
 29 36  1  0
 36 37  2  0
 25 38  2  0
 38  3  1  0
 24  6  1  0
 37 26  1  0
 24 10  2  0
 22 13  1  0
  1 39  1  0
  1 40  1  0
  1 41  1  0
  2 42  1  0
  2 43  1  0
  4 44  1  0
  7 45  1  0
  8 46  1  0
 11 47  1  0
 14 48  1  0
 15 49  1  0
 16 50  1  0
 18 51  1  0
 18 52  1  0
 20 53  1  0
 20 54  1  0
 20 55  1  0
 21 56  1  0
 21 57  1  0
 21 58  1  0
 22 59  1  0
 23 60  1  0
 27 61  1  0
 28 62  1  0
 30 63  1  0
 34 64  1  0
 34 65  1  0
 34 66  1  0
 35 67  1  0
 35 68  1  0
 35 69  1  0
 36 70  1  0
 37 71  1  0
M  END
$$$$
