
     RDKit          3D

 37 40  0  0  0  0  0  0  0  0999 V2000
   -0.5258   -4.1150    0.6577 O   0  0  0  0  0  0  0  0  0  0  0  0
   -0.7414   -2.9358    0.4180 C   0  0  0  0  0  0  0  0  0  0  0  0
   -1.9905   -2.3811    0.2438 N   0  0  0  0  0  0  0  0  0  0  0  0
   -1.9467   -1.1170   -0.0031 C   0  0  0  0  0  0  0  0  0  0  0  0
   -2.9981   -0.2869   -0.2196 N   0  0  0  0  0  0  0  0  0  0  0  0
   -4.3165   -0.7966   -0.5348 C   0  0  0  0  0  0  0  0  0  0  0  0
   -5.3426    0.2911   -0.6689 C   0  0  0  0  0  0  0  0  0  0  0  0
   -6.1586    0.8229    0.3108 C   0  0  0  0  0  0  0  0  0  0  0  0
   -7.0049    1.8538   -0.1902 C   0  0  0  0  0  0  0  0  0  0  0  0
   -6.8035    2.0787   -1.5334 C   0  0  0  0  0  0  0  0  0  0  0  0
   -5.5986    1.0539   -2.1824 S   0  0  0  0  0  0  0  0  0  0  0  0
   -0.3606   -0.3872   -0.0693 S   0  0  0  0  0  0  0  0  0  0  0  0
    0.3417   -1.9161    0.2750 C   0  0  0  0  0  0  0  0  0  0  0  0
    1.6391   -2.2314    0.3890 C   0  0  0  0  0  0  0  0  0  0  0  0
    2.7658   -1.3046    0.2508 C   0  0  0  0  0  0  0  0  0  0  0  0
    3.6739   -1.4793   -0.7933 C   0  0  0  0  0  0  0  0  0  0  0  0
    4.7621   -0.6099   -0.9313 C   0  0  0  0  0  0  0  0  0  0  0  0
    4.9788    0.4361   -0.0457 C   0  0  0  0  0  0  0  0  0  0  0  0
    6.0391    1.2438   -0.2225 N   0  0  0  0  0  0  0  0  0  0  0  0
    6.2231    2.2503    0.6600 C   0  0  0  0  0  0  0  0  0  0  0  0
    5.3875    2.4986    1.7322 C   0  0  0  0  0  0  0  0  0  0  0  0
    4.2927    1.6622    1.9120 C   0  0  0  0  0  0  0  0  0  0  0  0
    4.0673    0.6073    1.0175 C   0  0  0  0  0  0  0  0  0  0  0  0
    2.9715   -0.2640    1.1615 C   0  0  0  0  0  0  0  0  0  0  0  0
   -2.7738    0.6055   -0.6448 H   0  0  0  0  0  0  0  0  0  0  0  0
   -4.6408   -1.4857    0.2555 H   0  0  0  0  0  0  0  0  0  0  0  0
   -4.2707   -1.3829   -1.4613 H   0  0  0  0  0  0  0  0  0  0  0  0
   -6.1481    0.4878    1.3417 H   0  0  0  0  0  0  0  0  0  0  0  0
   -7.7241    2.4036    0.4049 H   0  0  0  0  0  0  0  0  0  0  0  0
   -7.3047    2.7978   -2.1670 H   0  0  0  0  0  0  0  0  0  0  0  0
    1.9231   -3.2655    0.5812 H   0  0  0  0  0  0  0  0  0  0  0  0
    3.5469   -2.2848   -1.5132 H   0  0  0  0  0  0  0  0  0  0  0  0
    5.4605   -0.7532   -1.7525 H   0  0  0  0  0  0  0  0  0  0  0  0
    7.0933    2.8732    0.4730 H   0  0  0  0  0  0  0  0  0  0  0  0
    5.5834    3.3213    2.4101 H   0  0  0  0  0  0  0  0  0  0  0  0
    3.6197    1.8360    2.7475 H   0  0  0  0  0  0  0  0  0  0  0  0
    2.2804   -0.1269    1.9907 H   0  0  0  0  0  0  0  0  0  0  0  0
  1  2  2  0
  2  3  1  0
  3  4  2  0
  4  5  1  0
  5  6  1  0
  6  7  1  0
  7  8  2  0
  8  9  1  0
  9 10  2  0
 10 11  1  0
  4 12  1  0
 12 13  1  0
 13 14  2  0
 14 15  1  0
 15 16  2  0
 16 17  1  0
 17 18  2  0
 18 19  1  0
 19 20  2  0
 20 21  1  0
 21 22  2  0
 22 23  1  0
 23 24  2  0
 13  2  1  0
 24 15  1  0
 11  7  1  0
 23 18  1  0
  5 25  1  0
  6 26  1  0
  6 27  1  0
  8 28  1  0
  9 29  1  0
 10 30  1  0
 14 31  1  0
 16 32  1  0
 17 33  1  0
 20 34  1  0
 21 35  1  0
 22 36  1  0
 24 37  1  0
M  END
$$$$
