
     RDKit          3D

 28 29  0  0  0  0  0  0  0  0999 V2000
   -3.6061    1.5129    0.4210 C   0  0  0  0  0  0  0  0  0  0  0  0
   -2.2654    1.0392    0.4018 O   0  0  0  0  0  0  0  0  0  0  0  0
   -1.8514    0.3877   -0.7388 C   0  0  0  0  0  0  0  0  0  0  0  0
   -2.6772    0.0552   -1.8171 C   0  0  0  0  0  0  0  0  0  0  0  0
   -2.1473   -0.6089   -2.9249 C   0  0  0  0  0  0  0  0  0  0  0  0
   -0.7948   -0.9367   -2.9622 C   0  0  0  0  0  0  0  0  0  0  0  0
    0.0341   -0.6090   -1.8877 C   0  0  0  0  0  0  0  0  0  0  0  0
   -0.4810    0.0348   -0.7569 C   0  0  0  0  0  0  0  0  0  0  0  0
    0.3348    0.4366    0.3333 N   0  0  0  0  0  0  0  0  0  0  0  0
    1.5050   -0.1669    0.8450 C   0  0  0  0  0  0  0  0  0  0  0  0
    1.9171   -1.3615    0.3524 N   0  0  0  0  0  0  0  0  0  0  0  0
    3.0482   -1.9170    0.8405 C   0  0  0  0  0  0  0  0  0  0  0  0
    3.8287   -1.3336    1.8181 C   0  0  0  0  0  0  0  0  0  0  0  0
    3.4223   -0.1059    2.3222 C   0  0  0  0  0  0  0  0  0  0  0  0
    2.2521    0.4901    1.8336 C   0  0  0  0  0  0  0  0  0  0  0  0
    1.8477    1.7572    2.3605 C   0  0  0  0  0  0  0  0  0  0  0  0
    1.5243    2.7740    2.8182 N   0  0  0  0  0  0  0  0  0  0  0  0
   -3.7555    2.0532    1.3608 H   0  0  0  0  0  0  0  0  0  0  0  0
   -3.7913    2.2147   -0.3990 H   0  0  0  0  0  0  0  0  0  0  0  0
   -4.3171    0.6806    0.3999 H   0  0  0  0  0  0  0  0  0  0  0  0
   -3.7343    0.2960   -1.8267 H   0  0  0  0  0  0  0  0  0  0  0  0
   -2.7901   -0.8663   -3.7629 H   0  0  0  0  0  0  0  0  0  0  0  0
   -0.3789   -1.4439   -3.8287 H   0  0  0  0  0  0  0  0  0  0  0  0
    1.0903   -0.8551   -1.9475 H   0  0  0  0  0  0  0  0  0  0  0  0
   -0.2742    0.7842    1.0741 H   0  0  0  0  0  0  0  0  0  0  0  0
    3.3151   -2.8763    0.4053 H   0  0  0  0  0  0  0  0  0  0  0  0
    4.7295   -1.8204    2.1752 H   0  0  0  0  0  0  0  0  0  0  0  0
    4.0158    0.3850    3.0906 H   0  0  0  0  0  0  0  0  0  0  0  0
  1  2  1  0
  2  3  1  0
  3  4  2  0
  4  5  1  0
  5  6  2  0
  6  7  1  0
  7  8  2  0
  8  9  1  0
  9 10  1  0
 10 11  2  0
 11 12  1  0
 12 13  2  0
 13 14  1  0
 14 15  2  0
 15 16  1  0
 16 17  3  0
  8  3  1  0
 15 10  1  0
  1 18  1  0
  1 19  1  0
  1 20  1  0
  4 21  1  0
  5 22  1  0
  6 23  1  0
  7 24  1  0
  9 25  1  0
 12 26  1  0
 13 27  1  0
 14 28  1  0
M  END
$$$$
