
     RDKit          3D

 25 26  0  0  0  0  0  0  0  0999 V2000
   -3.8334    1.2767    0.7167 C   0  0  0  0  0  0  0  0  0  0  0  0
   -3.7270   -0.0699    0.2726 O   0  0  0  0  0  0  0  0  0  0  0  0
   -2.4930   -0.4915   -0.1409 C   0  0  0  0  0  0  0  0  0  0  0  0
   -2.4416   -1.8263   -0.5496 C   0  0  0  0  0  0  0  0  0  0  0  0
   -1.2465   -2.3869   -0.9996 C   0  0  0  0  0  0  0  0  0  0  0  0
   -0.0887   -1.6120   -1.0418 C   0  0  0  0  0  0  0  0  0  0  0  0
   -0.1230   -0.2762   -0.6271 C   0  0  0  0  0  0  0  0  0  0  0  0
    1.0786    0.5634   -0.6786 C   0  0  0  0  0  0  0  0  0  0  0  0
    2.1830    0.4022    0.0618 C   0  0  0  0  0  0  0  0  0  0  0  0
    2.5047   -0.7923    1.2631 S   0  0  0  0  0  0  0  0  0  0  0  0
    4.0936   -0.1384    1.6026 C   0  0  0  0  0  0  0  0  0  0  0  0
    4.8638   -0.5946    2.4300 O   0  0  0  0  0  0  0  0  0  0  0  0
    4.3250    0.9391    0.8111 N   0  0  0  0  0  0  0  0  0  0  0  0
    3.3462    1.3207   -0.0564 C   0  0  0  0  0  0  0  0  0  0  0  0
    3.4194    2.2766   -0.8114 O   0  0  0  0  0  0  0  0  0  0  0  0
   -1.3314    0.2829   -0.1846 C   0  0  0  0  0  0  0  0  0  0  0  0
   -4.8715    1.4485    1.0174 H   0  0  0  0  0  0  0  0  0  0  0  0
   -3.6006    1.9780   -0.0914 H   0  0  0  0  0  0  0  0  0  0  0  0
   -3.1995    1.4554    1.5915 H   0  0  0  0  0  0  0  0  0  0  0  0
   -3.3430   -2.4338   -0.5176 H   0  0  0  0  0  0  0  0  0  0  0  0
   -1.2201   -3.4258   -1.3176 H   0  0  0  0  0  0  0  0  0  0  0  0
    0.8348   -2.0592   -1.4018 H   0  0  0  0  0  0  0  0  0  0  0  0
    1.0195    1.3930   -1.3822 H   0  0  0  0  0  0  0  0  0  0  0  0
    5.1913    1.4474    0.8752 H   0  0  0  0  0  0  0  0  0  0  0  0
   -1.3407    1.3229    0.1248 H   0  0  0  0  0  0  0  0  0  0  0  0
  1  2  1  0
  2  3  1  0
  3  4  2  0
  4  5  1  0
  5  6  2  0
  6  7  1  0
  7  8  1  0
  8  9  2  0
  9 10  1  0
 10 11  1  0
 11 12  2  0
 11 13  1  0
 13 14  1  0
 14 15  2  0
  7 16  2  0
 16  3  1  0
 14  9  1  0
  1 17  1  0
  1 18  1  0
  1 19  1  0
  4 20  1  0
  5 21  1  0
  6 22  1  0
  8 23  1  0
 13 24  1  0
 16 25  1  0
M  END
$$$$
