
     RDKit          3D

 19 20  0  0  0  0  0  0  0  0999 V2000
    2.1222    2.2655   -0.3505 O   0  0  0  0  0  0  0  0  0  0  0  0
    1.7078    1.1239   -0.2001 C   0  0  0  0  0  0  0  0  0  0  0  0
    2.6558   -0.0034   -0.1062 C   0  0  0  0  0  0  0  0  0  0  0  0
    2.2388   -1.2607    0.0578 C   0  0  0  0  0  0  0  0  0  0  0  0
    0.8053   -1.5905    0.1539 C   0  0  0  0  0  0  0  0  0  0  0  0
    0.4387   -2.7512    0.3046 O   0  0  0  0  0  0  0  0  0  0  0  0
   -0.1741   -0.4923    0.0646 C   0  0  0  0  0  0  0  0  0  0  0  0
   -1.5478   -0.7522    0.1502 C   0  0  0  0  0  0  0  0  0  0  0  0
   -2.0641   -2.0090    0.3181 O   0  0  0  0  0  0  0  0  0  0  0  0
   -2.4707    0.2886    0.0654 C   0  0  0  0  0  0  0  0  0  0  0  0
   -2.0287    1.6004   -0.1060 C   0  0  0  0  0  0  0  0  0  0  0  0
   -0.6621    1.8695   -0.1924 C   0  0  0  0  0  0  0  0  0  0  0  0
    0.2653    0.8219   -0.1069 C   0  0  0  0  0  0  0  0  0  0  0  0
    3.7081    0.2472   -0.1778 H   0  0  0  0  0  0  0  0  0  0  0  0
    2.9326   -2.0906    0.1271 H   0  0  0  0  0  0  0  0  0  0  0  0
   -1.3192   -2.6502    0.3633 H   0  0  0  0  0  0  0  0  0  0  0  0
   -3.5350    0.0752    0.1331 H   0  0  0  0  0  0  0  0  0  0  0  0
   -2.7497    2.4122   -0.1721 H   0  0  0  0  0  0  0  0  0  0  0  0
   -0.3233    2.8958   -0.3261 H   0  0  0  0  0  0  0  0  0  0  0  0
  1  2  2  0
  2  3  1  0
  3  4  2  0
  4  5  1  0
  5  6  2  0
  5  7  1  0
  7  8  2  0
  8  9  1  0
  8 10  1  0
 10 11  2  0
 11 12  1  0
 12 13  2  0
 13  2  1  0
 13  7  1  0
  3 14  1  0
  4 15  1  0
  9 16  1  0
 10 17  1  0
 11 18  1  0
 12 19  1  0
M  END
$$$$
