
     RDKit          3D

 58 61  0  0  0  0  0  0  0  0999 V2000
   -3.3530    1.7615   -2.6090 C   0  0  0  0  0  0  0  0  0  0  0  0
   -3.5305    2.2031   -1.2999 C   0  0  0  0  0  0  0  0  0  0  0  0
   -3.1456    1.3927   -0.2302 C   0  0  0  0  0  0  0  0  0  0  0  0
   -2.5666    0.1321   -0.4536 C   0  0  0  0  0  0  0  0  0  0  0  0
   -2.1418   -0.7827    0.6918 C   0  0  0  0  0  0  0  0  0  0  0  0
   -1.6780   -0.0587    1.9004 N   0  0  0  0  0  0  0  0  0  0  0  0
   -0.2403    0.2547    1.8622 C   0  0  0  0  0  0  0  0  0  0  0  0
    0.1514    1.4634    0.9844 C   0  0  0  0  0  0  0  0  0  0  0  0
    1.5954    1.7399    1.0108 N   0  0  0  0  0  0  0  0  0  0  0  0
    2.2876    1.3942   -0.2483 C   0  0  0  0  0  0  0  0  0  0  0  0
    3.6943    2.0125   -0.3250 C   0  0  0  0  0  0  0  0  0  0  0  0
    4.1144    3.0264    0.5555 C   0  0  0  0  0  0  0  0  0  0  0  0
    5.3848    3.5989    0.4450 C   0  0  0  0  0  0  0  0  0  0  0  0
    6.2559    3.1806   -0.5566 C   0  0  0  0  0  0  0  0  0  0  0  0
    5.8543    2.1968   -1.4555 C   0  0  0  0  0  0  0  0  0  0  0  0
    4.5835    1.6260   -1.3472 C   0  0  0  0  0  0  0  0  0  0  0  0
    2.2854   -0.1206   -0.4717 C   0  0  0  0  0  0  0  0  0  0  0  0
    3.0525   -0.9813    0.3326 C   0  0  0  0  0  0  0  0  0  0  0  0
    3.0180   -2.3615    0.1294 C   0  0  0  0  0  0  0  0  0  0  0  0
    2.2177   -2.9002   -0.8765 C   0  0  0  0  0  0  0  0  0  0  0  0
    1.4526   -2.0606   -1.6829 C   0  0  0  0  0  0  0  0  0  0  0  0
    1.4851   -0.6797   -1.4825 C   0  0  0  0  0  0  0  0  0  0  0  0
   -3.2593   -1.7610    1.0646 C   0  0  0  0  0  0  0  0  0  0  0  0
   -3.1187   -3.1308    0.7833 C   0  0  0  0  0  0  0  0  0  0  0  0
   -4.1281   -4.0348    1.1217 C   0  0  0  0  0  0  0  0  0  0  0  0
   -5.2893   -3.5841    1.7460 C   0  0  0  0  0  0  0  0  0  0  0  0
   -5.4449   -2.2292    2.0312 C   0  0  0  0  0  0  0  0  0  0  0  0
   -4.4374   -1.3238    1.6938 C   0  0  0  0  0  0  0  0  0  0  0  0
   -2.4093   -0.3029   -1.7815 C   0  0  0  0  0  0  0  0  0  0  0  0
   -2.7954    0.5080   -2.8506 C   0  0  0  0  0  0  0  0  0  0  0  0
   -3.6552    2.3925   -3.4405 H   0  0  0  0  0  0  0  0  0  0  0  0
   -3.9694    3.1787   -1.1087 H   0  0  0  0  0  0  0  0  0  0  0  0
   -3.2904    1.7534    0.7863 H   0  0  0  0  0  0  0  0  0  0  0  0
   -1.3020   -1.3918    0.3289 H   0  0  0  0  0  0  0  0  0  0  0  0
   -1.8211   -0.6919    2.6885 H   0  0  0  0  0  0  0  0  0  0  0  0
    0.3322   -0.6388    1.5899 H   0  0  0  0  0  0  0  0  0  0  0  0
    0.0569    0.4899    2.8933 H   0  0  0  0  0  0  0  0  0  0  0  0
   -0.3557    2.3510    1.3811 H   0  0  0  0  0  0  0  0  0  0  0  0
   -0.2038    1.3444   -0.0419 H   0  0  0  0  0  0  0  0  0  0  0  0
    2.0456    1.2452    1.7764 H   0  0  0  0  0  0  0  0  0  0  0  0
    1.7436    1.8788   -1.0724 H   0  0  0  0  0  0  0  0  0  0  0  0
    3.4485    3.3927    1.3347 H   0  0  0  0  0  0  0  0  0  0  0  0
    5.6870    4.3792    1.1382 H   0  0  0  0  0  0  0  0  0  0  0  0
    7.2426    3.6278   -0.6424 H   0  0  0  0  0  0  0  0  0  0  0  0
    6.5271    1.8750   -2.2469 H   0  0  0  0  0  0  0  0  0  0  0  0
    4.2922    0.8685   -2.0727 H   0  0  0  0  0  0  0  0  0  0  0  0
    3.6879   -0.5757    1.1175 H   0  0  0  0  0  0  0  0  0  0  0  0
    3.6198   -3.0160    0.7545 H   0  0  0  0  0  0  0  0  0  0  0  0
    2.1955   -3.9752   -1.0348 H   0  0  0  0  0  0  0  0  0  0  0  0
    0.8318   -2.4799   -2.4701 H   0  0  0  0  0  0  0  0  0  0  0  0
    0.8770   -0.0376   -2.1169 H   0  0  0  0  0  0  0  0  0  0  0  0
   -2.2213   -3.5035    0.2948 H   0  0  0  0  0  0  0  0  0  0  0  0
   -4.0086   -5.0910    0.8956 H   0  0  0  0  0  0  0  0  0  0  0  0
   -6.0755   -4.2875    2.0073 H   0  0  0  0  0  0  0  0  0  0  0  0
   -6.3520   -1.8744    2.5141 H   0  0  0  0  0  0  0  0  0  0  0  0
   -4.5744   -0.2685    1.9216 H   0  0  0  0  0  0  0  0  0  0  0  0
   -1.9861   -1.2836   -1.9885 H   0  0  0  0  0  0  0  0  0  0  0  0
   -2.6670    0.1592   -3.8718 H   0  0  0  0  0  0  0  0  0  0  0  0
  1  2  2  0
  2  3  1  0
  3  4  2  0
  4  5  1  0
  5  6  1  0
  6  7  1  0
  7  8  1  0
  8  9  1  0
  9 10  1  0
 10 11  1  0
 11 12  2  0
 12 13  1  0
 13 14  2  0
 14 15  1  0
 15 16  2  0
 10 17  1  0
 17 18  2  0
 18 19  1  0
 19 20  2  0
 20 21  1  0
 21 22  2  0
  5 23  1  0
 23 24  2  0
 24 25  1  0
 25 26  2  0
 26 27  1  0
 27 28  2  0
  4 29  1  0
 29 30  2  0
 30  1  1  0
 16 11  1  0
 22 17  1  0
 28 23  1  0
  1 31  1  0
  2 32  1  0
  3 33  1  0
  5 34  1  0
  6 35  1  0
  7 36  1  0
  7 37  1  0
  8 38  1  0
  8 39  1  0
  9 40  1  0
 10 41  1  0
 12 42  1  0
 13 43  1  0
 14 44  1  0
 15 45  1  0
 16 46  1  0
 18 47  1  0
 19 48  1  0
 20 49  1  0
 21 50  1  0
 22 51  1  0
 24 52  1  0
 25 53  1  0
 26 54  1  0
 27 55  1  0
 28 56  1  0
 29 57  1  0
 30 58  1  0
M  END
$$$$
