
     RDKit          3D

 51 54  0  0  0  0  0  0  0  0999 V2000
    6.7898   -2.0027   -2.4654 C   0  0  0  0  0  0  0  0  0  0  0  0
    6.4022   -1.5087   -1.1910 O   0  0  0  0  0  0  0  0  0  0  0  0
    5.1027   -1.0854   -1.0419 C   0  0  0  0  0  0  0  0  0  0  0  0
    4.1333   -1.1652   -2.0467 C   0  0  0  0  0  0  0  0  0  0  0  0
    2.8308   -0.7053   -1.7914 C   0  0  0  0  0  0  0  0  0  0  0  0
    1.7656   -0.7077   -2.6416 N   0  0  0  0  0  0  0  0  0  0  0  0
    0.7871   -0.1823   -1.9478 C   0  0  0  0  0  0  0  0  0  0  0  0
    1.1433    0.1817   -0.6566 N   0  0  0  0  0  0  0  0  0  0  0  0
    0.2467    0.7681    0.2618 C   0  0  0  0  0  0  0  0  0  0  0  0
   -1.0896    1.0441    0.0516 C   0  0  0  0  0  0  0  0  0  0  0  0
   -1.7135    1.6298    1.2012 C   0  0  0  0  0  0  0  0  0  0  0  0
   -3.0136    2.0105    1.3568 O   0  0  0  0  0  0  0  0  0  0  0  0
   -3.9055    1.7044    0.2773 C   0  0  0  0  0  0  0  0  0  0  0  0
   -4.3424    0.2474    0.2464 C   0  0  0  0  0  0  0  0  0  0  0  0
   -4.4566   -0.4679    1.4532 C   0  0  0  0  0  0  0  0  0  0  0  0
   -4.8687   -1.8000    1.4643 C   0  0  0  0  0  0  0  0  0  0  0  0
   -5.1895   -2.4389    0.2727 C   0  0  0  0  0  0  0  0  0  0  0  0
   -5.1071   -1.7432   -0.9322 C   0  0  0  0  0  0  0  0  0  0  0  0
   -4.6965   -0.3967   -0.9645 C   0  0  0  0  0  0  0  0  0  0  0  0
   -4.6263    0.3178   -2.2959 C   0  0  0  0  0  0  0  0  0  0  0  0
   -5.2815    1.5116   -2.2822 F   0  0  0  0  0  0  0  0  0  0  0  0
   -5.1552   -0.3862   -3.3330 F   0  0  0  0  0  0  0  0  0  0  0  0
   -3.3417    0.6024   -2.6526 F   0  0  0  0  0  0  0  0  0  0  0  0
   -0.8194    1.7942    2.2470 C   0  0  0  0  0  0  0  0  0  0  0  0
   -1.0007    2.3374    3.5849 C   0  0  0  0  0  0  0  0  0  0  0  0
   -2.2615    2.7600    3.9013 N   0  0  0  0  0  0  0  0  0  0  0  0
   -0.1198    2.4440    4.4358 O   0  0  0  0  0  0  0  0  0  0  0  0
    0.7400    1.2280    1.8094 S   0  0  0  0  0  0  0  0  0  0  0  0
    2.4970   -0.1674   -0.5466 C   0  0  0  0  0  0  0  0  0  0  0  0
    3.4653   -0.0861    0.4754 C   0  0  0  0  0  0  0  0  0  0  0  0
    4.7668   -0.5524    0.2161 C   0  0  0  0  0  0  0  0  0  0  0  0
    5.7881   -0.5177    1.1383 O   0  0  0  0  0  0  0  0  0  0  0  0
    5.4779   -0.0920    2.4577 C   0  0  0  0  0  0  0  0  0  0  0  0
    6.6735   -1.2367   -3.2398 H   0  0  0  0  0  0  0  0  0  0  0  0
    7.8512   -2.2637   -2.4141 H   0  0  0  0  0  0  0  0  0  0  0  0
    6.2365   -2.9122   -2.7207 H   0  0  0  0  0  0  0  0  0  0  0  0
    4.3366   -1.5725   -3.0283 H   0  0  0  0  0  0  0  0  0  0  0  0
   -0.2112   -0.0371   -2.3366 H   0  0  0  0  0  0  0  0  0  0  0  0
   -1.6024    0.8298   -0.8749 H   0  0  0  0  0  0  0  0  0  0  0  0
   -4.8078    2.3059    0.4415 H   0  0  0  0  0  0  0  0  0  0  0  0
   -3.4781    2.0522   -0.6685 H   0  0  0  0  0  0  0  0  0  0  0  0
   -4.2162    0.0084    2.4028 H   0  0  0  0  0  0  0  0  0  0  0  0
   -4.9381   -2.3390    2.4064 H   0  0  0  0  0  0  0  0  0  0  0  0
   -5.5084   -3.4786    0.2814 H   0  0  0  0  0  0  0  0  0  0  0  0
   -5.3703   -2.2612   -1.8545 H   0  0  0  0  0  0  0  0  0  0  0  0
   -3.0049    2.7624    3.2153 H   0  0  0  0  0  0  0  0  0  0  0  0
   -2.4035    3.1933    4.8021 H   0  0  0  0  0  0  0  0  0  0  0  0
    3.2190    0.3280    1.4414 H   0  0  0  0  0  0  0  0  0  0  0  0
    5.1768    0.9606    2.4712 H   0  0  0  0  0  0  0  0  0  0  0  0
    6.3867   -0.1839    3.0600 H   0  0  0  0  0  0  0  0  0  0  0  0
    4.7132   -0.7311    2.9120 H   0  0  0  0  0  0  0  0  0  0  0  0
  1  2  1  0
  2  3  1  0
  3  4  2  0
  4  5  1  0
  5  6  1  0
  6  7  2  0
  7  8  1  0
  8  9  1  0
  9 10  2  0
 10 11  1  0
 11 12  1  0
 12 13  1  0
 13 14  1  0
 14 15  2  0
 15 16  1  0
 16 17  2  0
 17 18  1  0
 18 19  2  0
 19 20  1  0
 20 21  1  0
 20 22  1  0
 20 23  1  0
 11 24  2  0
 24 25  1  0
 25 26  1  0
 25 27  2  0
 24 28  1  0
  8 29  1  0
 29 30  1  0
 30 31  2  0
 31 32  1  0
 32 33  1  0
 31  3  1  0
 29  5  2  0
 28  9  1  0
 19 14  1  0
  1 34  1  0
  1 35  1  0
  1 36  1  0
  4 37  1  0
  7 38  1  0
 10 39  1  0
 13 40  1  0
 13 41  1  0
 15 42  1  0
 16 43  1  0
 17 44  1  0
 18 45  1  0
 26 46  1  0
 26 47  1  0
 30 48  1  0
 33 49  1  0
 33 50  1  0
 33 51  1  0
M  END
$$$$
