
     RDKit          3D

 26 27  0  0  0  0  0  0  0  0999 V2000
   -5.3027   -0.3691    0.5472 C   0  0  0  0  0  0  0  0  0  0  0  0
   -4.6277    0.6379   -0.3705 C   0  0  0  0  0  0  0  0  0  0  0  0
   -3.1774    0.7836   -0.0510 C   0  0  0  0  0  0  0  0  0  0  0  0
   -2.6914    1.5929    0.8670 N   0  0  0  0  0  0  0  0  0  0  0  0
   -1.3122    1.5217    0.9469 N   0  0  0  0  0  0  0  0  0  0  0  0
   -0.8189    0.6664    0.0873 C   0  0  0  0  0  0  0  0  0  0  0  0
    0.4742    0.2910   -0.1593 N   0  0  0  0  0  0  0  0  0  0  0  0
    1.5361    0.8761    0.4917 C   0  0  0  0  0  0  0  0  0  0  0  0
    1.4851    1.7943    1.2992 O   0  0  0  0  0  0  0  0  0  0  0  0
    2.8707    0.3399    0.1276 C   0  0  0  0  0  0  0  0  0  0  0  0
    3.0891   -0.9858   -0.2590 C   0  0  0  0  0  0  0  0  0  0  0  0
    4.3812   -1.3979   -0.5840 C   0  0  0  0  0  0  0  0  0  0  0  0
    5.4098   -0.4718   -0.5069 C   0  0  0  0  0  0  0  0  0  0  0  0
    5.2340    0.8112   -0.1260 N   0  0  0  0  0  0  0  0  0  0  0  0
    3.9704    1.1871    0.1954 C   0  0  0  0  0  0  0  0  0  0  0  0
   -1.9783   -0.1269   -0.8850 S   0  0  0  0  0  0  0  0  0  0  0  0
   -5.2095   -0.0727    1.5976 H   0  0  0  0  0  0  0  0  0  0  0  0
   -6.3684   -0.4444    0.3088 H   0  0  0  0  0  0  0  0  0  0  0  0
   -4.8596   -1.3650    0.4392 H   0  0  0  0  0  0  0  0  0  0  0  0
   -4.7683    0.3364   -1.4150 H   0  0  0  0  0  0  0  0  0  0  0  0
   -5.1164    1.6129   -0.2571 H   0  0  0  0  0  0  0  0  0  0  0  0
    0.6093   -0.3829   -0.8956 H   0  0  0  0  0  0  0  0  0  0  0  0
    2.2846   -1.7139   -0.2808 H   0  0  0  0  0  0  0  0  0  0  0  0
    4.5858   -2.4214   -0.8800 H   0  0  0  0  0  0  0  0  0  0  0  0
    6.4330   -0.7467   -0.7489 H   0  0  0  0  0  0  0  0  0  0  0  0
    3.8675    2.2232    0.5113 H   0  0  0  0  0  0  0  0  0  0  0  0
  1  2  1  0
  2  3  1  0
  3  4  2  0
  4  5  1  0
  5  6  2  0
  6  7  1  0
  7  8  1  0
  8  9  2  0
  8 10  1  0
 10 11  2  0
 11 12  1  0
 12 13  2  0
 13 14  1  0
 14 15  2  0
  6 16  1  0
 16  3  1  0
 15 10  1  0
  1 17  1  0
  1 18  1  0
  1 19  1  0
  2 20  1  0
  2 21  1  0
  7 22  1  0
 11 23  1  0
 12 24  1  0
 13 25  1  0
 15 26  1  0
M  END
$$$$
