
     RDKit          3D

 34 37  0  0  0  0  0  0  0  0999 V2000
    0.4770   -2.0184    0.2448 C   0  0  0  0  0  0  0  0  0  0  0  0
   -0.8729   -1.5005    0.3357 N   0  0  0  0  0  0  0  0  0  0  0  0
   -1.8837   -2.3999    0.6959 C   0  0  0  0  0  0  0  0  0  0  0  0
   -1.6974   -3.5862    0.9572 O   0  0  0  0  0  0  0  0  0  0  0  0
   -3.1619   -1.8944    0.7417 N   0  0  0  0  0  0  0  0  0  0  0  0
   -3.5620   -0.6252    0.4175 C   0  0  0  0  0  0  0  0  0  0  0  0
   -4.7366   -0.2811    0.3960 O   0  0  0  0  0  0  0  0  0  0  0  0
   -2.4497    0.2755    0.0914 C   0  0  0  0  0  0  0  0  0  0  0  0
   -1.1768   -0.1812    0.0609 C   0  0  0  0  0  0  0  0  0  0  0  0
   -0.4044    0.9205   -0.3296 N   0  0  0  0  0  0  0  0  0  0  0  0
    0.8574    1.3865   -0.6063 C   0  0  0  0  0  0  0  0  0  0  0  0
    2.1168    0.6815   -0.4598 C   0  0  0  0  0  0  0  0  0  0  0  0
    2.7555    0.1419   -1.5832 C   0  0  0  0  0  0  0  0  0  0  0  0
    3.9771   -0.5201   -1.4472 C   0  0  0  0  0  0  0  0  0  0  0  0
    4.5751   -0.6297   -0.1924 C   0  0  0  0  0  0  0  0  0  0  0  0
    3.9603   -0.0680    0.9260 C   0  0  0  0  0  0  0  0  0  0  0  0
    2.7379    0.5934    0.7927 C   0  0  0  0  0  0  0  0  0  0  0  0
    0.7518    2.6429   -1.0307 N   0  0  0  0  0  0  0  0  0  0  0  0
   -0.5756    3.0342   -0.9920 N   0  0  0  0  0  0  0  0  0  0  0  0
   -1.2357    2.0056   -0.5483 C   0  0  0  0  0  0  0  0  0  0  0  0
   -2.5040    1.6302   -0.2486 N   0  0  0  0  0  0  0  0  0  0  0  0
   -3.6538    2.4238   -0.5958 C   0  0  0  0  0  0  0  0  0  0  0  0
    0.5125   -3.1024    0.3873 H   0  0  0  0  0  0  0  0  0  0  0  0
    0.8764   -1.8104   -0.7494 H   0  0  0  0  0  0  0  0  0  0  0  0
    1.0814   -1.5652    1.0319 H   0  0  0  0  0  0  0  0  0  0  0  0
   -3.8898   -2.5544    0.9702 H   0  0  0  0  0  0  0  0  0  0  0  0
    2.3093    0.2418   -2.5708 H   0  0  0  0  0  0  0  0  0  0  0  0
    4.4690   -0.9383   -2.3221 H   0  0  0  0  0  0  0  0  0  0  0  0
    5.5312   -1.1376   -0.0891 H   0  0  0  0  0  0  0  0  0  0  0  0
    4.4395   -0.1345    1.8998 H   0  0  0  0  0  0  0  0  0  0  0  0
    2.2801    1.0469    1.6694 H   0  0  0  0  0  0  0  0  0  0  0  0
   -4.4356    2.3304    0.1649 H   0  0  0  0  0  0  0  0  0  0  0  0
   -3.4022    3.4880   -0.6687 H   0  0  0  0  0  0  0  0  0  0  0  0
   -4.0660    2.1045   -1.5588 H   0  0  0  0  0  0  0  0  0  0  0  0
  1  2  1  0
  2  3  1  0
  3  4  2  0
  3  5  1  0
  5  6  1  0
  6  7  2  0
  6  8  1  0
  8  9  2  0
  9 10  1  0
 10 11  1  0
 11 12  1  0
 12 13  2  0
 13 14  1  0
 14 15  2  0
 15 16  1  0
 16 17  2  0
 11 18  2  0
 18 19  1  0
 19 20  2  0
 20 21  1  0
 21 22  1  0
  9  2  1  0
 20 10  1  0
 21  8  1  0
 17 12  1  0
  1 23  1  0
  1 24  1  0
  1 25  1  0
  5 26  1  0
 13 27  1  0
 14 28  1  0
 15 29  1  0
 16 30  1  0
 17 31  1  0
 22 32  1  0
 22 33  1  0
 22 34  1  0
M  END
$$$$
