
     RDKit          3D

 45 47  0  0  0  0  0  0  0  0999 V2000
   -4.9530    2.7610   -2.1380 C   0  0  0  0  0  0  0  0  0  0  0  0
   -5.0935    2.4425   -0.6586 C   0  0  0  0  0  0  0  0  0  0  0  0
   -4.9630    0.9916   -0.3833 C   0  0  0  0  0  0  0  0  0  0  0  0
   -6.0209    0.1745   -0.3084 N   0  0  0  0  0  0  0  0  0  0  0  0
   -5.4430   -1.0686   -0.0446 O   0  0  0  0  0  0  0  0  0  0  0  0
   -4.0918   -0.8681    0.0119 C   0  0  0  0  0  0  0  0  0  0  0  0
   -3.2533   -2.0293    0.2807 C   0  0  0  0  0  0  0  0  0  0  0  0
   -3.7919   -3.3022    0.4796 C   0  0  0  0  0  0  0  0  0  0  0  0
   -2.9284   -4.3510    0.7331 C   0  0  0  0  0  0  0  0  0  0  0  0
   -1.5883   -4.2150    0.8011 N   0  0  0  0  0  0  0  0  0  0  0  0
   -1.0650   -2.9784    0.6072 C   0  0  0  0  0  0  0  0  0  0  0  0
    0.3501   -2.8517    0.6881 N   0  0  0  0  0  0  0  0  0  0  0  0
    1.2200   -3.8843    0.9447 C   0  0  0  0  0  0  0  0  0  0  0  0
    2.4723   -3.4888    0.9698 N   0  0  0  0  0  0  0  0  0  0  0  0
    2.4463   -2.1303    0.7195 C   0  0  0  0  0  0  0  0  0  0  0  0
    3.6677   -1.3106    0.6587 C   0  0  0  0  0  0  0  0  0  0  0  0
    4.7953   -1.7947    0.6415 O   0  0  0  0  0  0  0  0  0  0  0  0
    3.4525    0.0595    0.6457 N   0  0  0  0  0  0  0  0  0  0  0  0
    4.5667    0.9787    0.7619 C   0  0  0  0  0  0  0  0  0  0  0  0
    4.1931    2.3940    0.3029 C   0  0  0  0  0  0  0  0  0  0  0  0
    5.3078    3.3761    0.6630 C   0  0  0  0  0  0  0  0  0  0  0  0
    3.9221    2.4386   -1.2021 C   0  0  0  0  0  0  0  0  0  0  0  0
    1.1318   -1.7251    0.5386 C   0  0  0  0  0  0  0  0  0  0  0  0
   -1.8616   -1.8692    0.3456 C   0  0  0  0  0  0  0  0  0  0  0  0
   -3.7471    0.3857   -0.1891 N   0  0  0  0  0  0  0  0  0  0  0  0
   -5.0519    3.8381   -2.3067 H   0  0  0  0  0  0  0  0  0  0  0  0
   -5.7237    2.2522   -2.7262 H   0  0  0  0  0  0  0  0  0  0  0  0
   -3.9762    2.4444   -2.5185 H   0  0  0  0  0  0  0  0  0  0  0  0
   -6.0637    2.8058   -0.3004 H   0  0  0  0  0  0  0  0  0  0  0  0
   -4.3263    2.9868   -0.0970 H   0  0  0  0  0  0  0  0  0  0  0  0
   -4.8610   -3.4874    0.4416 H   0  0  0  0  0  0  0  0  0  0  0  0
   -3.3019   -5.3593    0.8944 H   0  0  0  0  0  0  0  0  0  0  0  0
    0.8801   -4.9001    1.1038 H   0  0  0  0  0  0  0  0  0  0  0  0
    2.5459    0.3854    0.9445 H   0  0  0  0  0  0  0  0  0  0  0  0
    4.8569    0.9838    1.8188 H   0  0  0  0  0  0  0  0  0  0  0  0
    5.4184    0.5943    0.1889 H   0  0  0  0  0  0  0  0  0  0  0  0
    3.2797    2.7096    0.8228 H   0  0  0  0  0  0  0  0  0  0  0  0
    5.0450    4.3934    0.3537 H   0  0  0  0  0  0  0  0  0  0  0  0
    5.4780    3.3904    1.7444 H   0  0  0  0  0  0  0  0  0  0  0  0
    6.2500    3.1059    0.1745 H   0  0  0  0  0  0  0  0  0  0  0  0
    3.0927    1.7787   -1.4746 H   0  0  0  0  0  0  0  0  0  0  0  0
    3.6550    3.4527   -1.5182 H   0  0  0  0  0  0  0  0  0  0  0  0
    4.8038    2.1287   -1.7728 H   0  0  0  0  0  0  0  0  0  0  0  0
    0.7158   -0.7573    0.3072 H   0  0  0  0  0  0  0  0  0  0  0  0
   -1.4414   -0.8809    0.1909 H   0  0  0  0  0  0  0  0  0  0  0  0
  1  2  1  0
  2  3  1  0
  3  4  2  0
  4  5  1  0
  5  6  1  0
  6  7  1  0
  7  8  2  0
  8  9  1  0
  9 10  2  0
 10 11  1  0
 11 12  1  0
 12 13  1  0
 13 14  2  0
 14 15  1  0
 15 16  1  0
 16 17  2  0
 16 18  1  0
 18 19  1  0
 19 20  1  0
 20 21  1  0
 20 22  1  0
 15 23  2  0
 11 24  2  0
  6 25  2  0
 25  3  1  0
 24  7  1  0
 23 12  1  0
  1 26  1  0
  1 27  1  0
  1 28  1  0
  2 29  1  0
  2 30  1  0
  8 31  1  0
  9 32  1  0
 13 33  1  0
 18 34  1  0
 19 35  1  0
 19 36  1  0
 20 37  1  0
 21 38  1  0
 21 39  1  0
 21 40  1  0
 22 41  1  0
 22 42  1  0
 22 43  1  0
 23 44  1  0
 24 45  1  0
M  END
$$$$
