
     RDKit          3D

 29 28  0  0  0  0  0  0  0  0999 V2000
    0.6843    0.0000    0.0000 Cl  0  0  0  0  0  0  0  0  0  0  0  0
   -3.6446    0.2850    0.0660 N   0  0  0  0  0  0  0  0  0  0  0  0
   -2.4745   -0.3068    0.7205 C   0  0  0  0  0  0  0  0  0  0  0  0
   -1.5759   -0.8183   -0.3271 C   0  0  0  0  0  0  0  0  0  0  0  0
   -1.2849   -2.1187   -0.3365 C   0  0  0  0  0  0  0  0  0  0  0  0
   -0.4500   -2.6091   -1.3054 F   0  0  0  0  0  0  0  0  0  0  0  0
   -0.9945    0.0296   -1.3589 C   0  0  0  0  0  0  0  0  0  0  0  0
   -0.1055    1.1315   -0.9292 C   0  0  0  0  0  0  0  0  0  0  0  0
    1.0937    0.7294   -0.1895 C   0  0  0  0  0  0  0  0  0  0  0  0
    1.1748    0.6100    1.1770 C   0  0  0  0  0  0  0  0  0  0  0  0
    2.3471    0.2212    1.7833 C   0  0  0  0  0  0  0  0  0  0  0  0
    3.4923   -0.0657    1.0462 C   0  0  0  0  0  0  0  0  0  0  0  0
    4.6311   -0.4472    1.6891 F   0  0  0  0  0  0  0  0  0  0  0  0
    3.4087    0.0542   -0.3180 C   0  0  0  0  0  0  0  0  0  0  0  0
    2.2349    0.4426   -0.9118 C   0  0  0  0  0  0  0  0  0  0  0  0
   -0.6843    0.0000    0.0000 H   0  0  0  0  0  0  0  0  0  0  0  0
   -3.3299    1.2316   -0.2562 H   0  0  0  0  0  0  0  0  0  0  0  0
   -4.4011    0.3516    0.7883 H   0  0  0  0  0  0  0  0  0  0  0  0
   -2.8938   -1.1434    1.3409 H   0  0  0  0  0  0  0  0  0  0  0  0
   -2.0164    0.3888    1.4381 H   0  0  0  0  0  0  0  0  0  0  0  0
   -1.7000   -2.8028    0.4149 H   0  0  0  0  0  0  0  0  0  0  0  0
   -1.8561    0.5095   -1.9123 H   0  0  0  0  0  0  0  0  0  0  0  0
   -0.4707   -0.5655   -2.1403 H   0  0  0  0  0  0  0  0  0  0  0  0
    0.2334    1.6693   -1.8392 H   0  0  0  0  0  0  0  0  0  0  0  0
   -0.6748    1.9191   -0.3491 H   0  0  0  0  0  0  0  0  0  0  0  0
    0.3068    0.8273    1.7591 H   0  0  0  0  0  0  0  0  0  0  0  0
    2.3842    0.1355    2.8539 H   0  0  0  0  0  0  0  0  0  0  0  0
    4.3172   -0.1741   -0.8931 H   0  0  0  0  0  0  0  0  0  0  0  0
    2.2487    0.5152   -2.0107 H   0  0  0  0  0  0  0  0  0  0  0  0
  2  3  1  0
  3  4  1  0
  4  5  2  0
  5  6  1  0
  4  7  1  0
  7  8  1  0
  8  9  1  0
  9 10  2  0
 10 11  1  0
 11 12  2  0
 12 13  1  0
 12 14  1  0
 14 15  2  0
 15  9  1  0
  1 16  1  0
  2 17  1  0
  2 18  1  0
  3 19  1  0
  3 20  1  0
  5 21  1  0
  7 22  1  0
  7 23  1  0
  8 24  1  0
  8 25  1  0
 10 26  1  0
 11 27  1  0
 14 28  1  0
 15 29  1  0
M  END
$$$$
