
     RDKit          3D

 52 54  0  0  0  0  0  0  0  0999 V2000
    7.3913   -1.3827    1.5186 C   0  0  0  0  0  0  0  0  0  0  0  0
    6.7084   -0.2084    1.1059 O   0  0  0  0  0  0  0  0  0  0  0  0
    5.4724   -0.3604    0.5268 C   0  0  0  0  0  0  0  0  0  0  0  0
    4.8404   -1.5918    0.3248 C   0  0  0  0  0  0  0  0  0  0  0  0
    3.5773   -1.6518   -0.2708 C   0  0  0  0  0  0  0  0  0  0  0  0
    2.9245   -0.4817   -0.6725 C   0  0  0  0  0  0  0  0  0  0  0  0
    1.5636   -0.5482   -1.3360 C   0  0  0  0  0  0  0  0  0  0  0  0
    0.5626    0.3412   -0.7188 N   0  0  0  0  0  0  0  0  0  0  0  0
   -0.5790    0.5208   -1.6291 C   0  0  0  0  0  0  0  0  0  0  0  0
   -1.7980    1.2280   -1.0180 C   0  0  0  0  0  0  0  0  0  0  0  0
   -2.7316    0.3279   -0.2283 C   0  0  0  0  0  0  0  0  0  0  0  0
   -4.0547    0.6856   -0.3592 N   0  0  0  0  0  0  0  0  0  0  0  0
   -4.9788   -0.0232    0.2148 C   0  0  0  0  0  0  0  0  0  0  0  0
   -6.3191    0.3119    0.1082 N   0  0  0  0  0  0  0  0  0  0  0  0
   -6.6817    1.4634   -0.7190 C   0  0  0  0  0  0  0  0  0  0  0  0
   -7.3882   -0.6576    0.3062 C   0  0  0  0  0  0  0  0  0  0  0  0
   -4.6431   -1.1244    0.9497 N   0  0  0  0  0  0  0  0  0  0  0  0
   -3.3643   -1.5479    1.1331 C   0  0  0  0  0  0  0  0  0  0  0  0
   -3.1112   -2.5513    1.7932 O   0  0  0  0  0  0  0  0  0  0  0  0
   -2.3100   -0.7338    0.4850 C   0  0  0  0  0  0  0  0  0  0  0  0
   -0.8924   -1.1737    0.7447 C   0  0  0  0  0  0  0  0  0  0  0  0
    0.1776   -0.0771    0.6378 C   0  0  0  0  0  0  0  0  0  0  0  0
    3.5643    0.7535   -0.4778 C   0  0  0  0  0  0  0  0  0  0  0  0
    4.8261    0.8252    0.1247 C   0  0  0  0  0  0  0  0  0  0  0  0
    5.5084    1.9946    0.3561 O   0  0  0  0  0  0  0  0  0  0  0  0
    4.8310    3.2120    0.0801 C   0  0  0  0  0  0  0  0  0  0  0  0
    8.3488   -1.0782    1.9524 H   0  0  0  0  0  0  0  0  0  0  0  0
    6.8306   -1.9149    2.2936 H   0  0  0  0  0  0  0  0  0  0  0  0
    7.6064   -2.0346    0.6657 H   0  0  0  0  0  0  0  0  0  0  0  0
    5.3036   -2.5268    0.6215 H   0  0  0  0  0  0  0  0  0  0  0  0
    3.1079   -2.6224   -0.4157 H   0  0  0  0  0  0  0  0  0  0  0  0
    1.1971   -1.5825   -1.3574 H   0  0  0  0  0  0  0  0  0  0  0  0
    1.7252   -0.2576   -2.3833 H   0  0  0  0  0  0  0  0  0  0  0  0
   -0.8945   -0.4389   -2.0616 H   0  0  0  0  0  0  0  0  0  0  0  0
   -0.2302    1.1363   -2.4686 H   0  0  0  0  0  0  0  0  0  0  0  0
   -2.3654    1.6498   -1.8596 H   0  0  0  0  0  0  0  0  0  0  0  0
   -1.4965    2.0854   -0.4038 H   0  0  0  0  0  0  0  0  0  0  0  0
   -6.0385    2.3239   -0.5044 H   0  0  0  0  0  0  0  0  0  0  0  0
   -7.7095    1.7866   -0.5211 H   0  0  0  0  0  0  0  0  0  0  0  0
   -6.5967    1.2115   -1.7813 H   0  0  0  0  0  0  0  0  0  0  0  0
   -8.3785   -0.2114    0.1628 H   0  0  0  0  0  0  0  0  0  0  0  0
   -7.3697   -1.0556    1.3260 H   0  0  0  0  0  0  0  0  0  0  0  0
   -7.2872   -1.4866   -0.4019 H   0  0  0  0  0  0  0  0  0  0  0  0
   -5.3456   -1.6623    1.4225 H   0  0  0  0  0  0  0  0  0  0  0  0
   -0.8293   -1.5516    1.7740 H   0  0  0  0  0  0  0  0  0  0  0  0
   -0.6480   -2.0225    0.0950 H   0  0  0  0  0  0  0  0  0  0  0  0
    1.0627   -0.4063    1.1956 H   0  0  0  0  0  0  0  0  0  0  0  0
   -0.1612    0.8111    1.1879 H   0  0  0  0  0  0  0  0  0  0  0  0
    3.0433    1.6486   -0.8041 H   0  0  0  0  0  0  0  0  0  0  0  0
    5.4872    4.0351    0.3795 H   0  0  0  0  0  0  0  0  0  0  0  0
    4.6344    3.3182   -0.9917 H   0  0  0  0  0  0  0  0  0  0  0  0
    3.9078    3.2953    0.6637 H   0  0  0  0  0  0  0  0  0  0  0  0
  1  2  1  0
  2  3  1  0
  3  4  2  0
  4  5  1  0
  5  6  2  0
  6  7  1  0
  7  8  1  0
  8  9  1  0
  9 10  1  0
 10 11  1  0
 11 12  1  0
 12 13  2  0
 13 14  1  0
 14 15  1  0
 14 16  1  0
 13 17  1  0
 17 18  1  0
 18 19  2  0
 18 20  1  0
 20 21  1  0
 21 22  1  0
  6 23  1  0
 23 24  2  0
 24 25  1  0
 25 26  1  0
 24  3  1  0
 22  8  1  0
 20 11  2  0
  1 27  1  0
  1 28  1  0
  1 29  1  0
  4 30  1  0
  5 31  1  0
  7 32  1  0
  7 33  1  0
  9 34  1  0
  9 35  1  0
 10 36  1  0
 10 37  1  0
 15 38  1  0
 15 39  1  0
 15 40  1  0
 16 41  1  0
 16 42  1  0
 16 43  1  0
 17 44  1  0
 21 45  1  0
 21 46  1  0
 22 47  1  0
 22 48  1  0
 23 49  1  0
 26 50  1  0
 26 51  1  0
 26 52  1  0
M  END
$$$$
