
     RDKit          3D

 57 61  0  0  0  0  0  0  0  0999 V2000
    8.6677   -0.4879    1.8538 C   0  0  0  0  0  0  0  0  0  0  0  0
    7.5555   -0.0318    0.9882 C   0  0  0  0  0  0  0  0  0  0  0  0
    7.5815    0.1021   -0.3213 N   0  0  0  0  0  0  0  0  0  0  0  0
    6.3340    0.5500   -0.6754 C   0  0  0  0  0  0  0  0  0  0  0  0
    5.8238    0.8747   -1.9419 C   0  0  0  0  0  0  0  0  0  0  0  0
    4.4964    1.3119   -2.0420 C   0  0  0  0  0  0  0  0  0  0  0  0
    3.6931    1.4043   -0.8994 C   0  0  0  0  0  0  0  0  0  0  0  0
    2.2996    1.8825   -1.0501 C   0  0  0  0  0  0  0  0  0  0  0  0
    2.1246    2.9638   -1.6065 O   0  0  0  0  0  0  0  0  0  0  0  0
    1.2586    1.0961   -0.5330 N   0  0  0  0  0  0  0  0  0  0  0  0
    1.3537   -0.3638   -0.5072 C   0  0  0  0  0  0  0  0  0  0  0  0
    0.3918   -0.9765    0.5077 C   0  0  0  0  0  0  0  0  0  0  0  0
   -1.0732   -0.5147    0.3094 C   0  0  0  0  0  0  0  0  0  0  0  0
   -1.0768    1.0378    0.3011 C   0  0  0  0  0  0  0  0  0  0  0  0
   -0.0862    1.6414   -0.6928 C   0  0  0  0  0  0  0  0  0  0  0  0
   -1.9170   -1.0319    1.5180 C   0  0  0  0  0  0  0  0  0  0  0  0
   -3.4219   -0.7817    1.3910 C   0  0  0  0  0  0  0  0  0  0  0  0
   -4.1198   -0.5920    2.3828 O   0  0  0  0  0  0  0  0  0  0  0  0
   -3.9201   -0.8440    0.0415 C   0  0  0  0  0  0  0  0  0  0  0  0
   -3.1203   -0.9775   -1.0765 C   0  0  0  0  0  0  0  0  0  0  0  0
   -4.0060   -0.9470   -2.1635 C   0  0  0  0  0  0  0  0  0  0  0  0
   -5.2728   -0.8019   -1.7727 N   0  0  0  0  0  0  0  0  0  0  0  0
   -5.2074   -0.7615   -0.4199 N   0  0  0  0  0  0  0  0  0  0  0  0
   -6.4337   -0.6112    0.3611 C   0  0  0  0  0  0  0  0  0  0  0  0
   -7.6164   -1.3783   -0.2380 C   0  0  0  0  0  0  0  0  0  0  0  0
   -6.7771    0.8661    0.5415 C   0  0  0  0  0  0  0  0  0  0  0  0
   -1.6409   -1.1042   -1.0225 C   0  0  0  0  0  0  0  0  0  0  0  0
    4.1910    1.1094    0.3817 C   0  0  0  0  0  0  0  0  0  0  0  0
    5.5187    0.6787    0.4444 C   0  0  0  0  0  0  0  0  0  0  0  0
    6.3243    0.3097    1.4913 N   0  0  0  0  0  0  0  0  0  0  0  0
    9.6296   -0.3362    1.3531 H   0  0  0  0  0  0  0  0  0  0  0  0
    8.5615   -1.5536    2.0771 H   0  0  0  0  0  0  0  0  0  0  0  0
    8.6862    0.0662    2.7977 H   0  0  0  0  0  0  0  0  0  0  0  0
    6.4555    0.7910   -2.8195 H   0  0  0  0  0  0  0  0  0  0  0  0
    4.0922    1.5837   -3.0149 H   0  0  0  0  0  0  0  0  0  0  0  0
    1.1404   -0.7236   -1.5206 H   0  0  0  0  0  0  0  0  0  0  0  0
    2.3687   -0.6932   -0.2748 H   0  0  0  0  0  0  0  0  0  0  0  0
    0.7262   -0.6913    1.5146 H   0  0  0  0  0  0  0  0  0  0  0  0
    0.4585   -2.0700    0.4561 H   0  0  0  0  0  0  0  0  0  0  0  0
   -0.8093    1.3974    1.3044 H   0  0  0  0  0  0  0  0  0  0  0  0
   -2.0764    1.4350    0.0910 H   0  0  0  0  0  0  0  0  0  0  0  0
   -0.0599    2.7283   -0.5488 H   0  0  0  0  0  0  0  0  0  0  0  0
   -0.4007    1.4667   -1.7279 H   0  0  0  0  0  0  0  0  0  0  0  0
   -1.7835   -2.1155    1.6331 H   0  0  0  0  0  0  0  0  0  0  0  0
   -1.5747   -0.5593    2.4470 H   0  0  0  0  0  0  0  0  0  0  0  0
   -3.7895   -1.0173   -3.2224 H   0  0  0  0  0  0  0  0  0  0  0  0
   -6.2392   -1.0556    1.3421 H   0  0  0  0  0  0  0  0  0  0  0  0
   -7.9219   -0.9638   -1.2049 H   0  0  0  0  0  0  0  0  0  0  0  0
   -8.4819   -1.3342    0.4313 H   0  0  0  0  0  0  0  0  0  0  0  0
   -7.3618   -2.4330   -0.3899 H   0  0  0  0  0  0  0  0  0  0  0  0
   -6.9791    1.3492   -0.4210 H   0  0  0  0  0  0  0  0  0  0  0  0
   -5.9518    1.4078    1.0160 H   0  0  0  0  0  0  0  0  0  0  0  0
   -7.6633    0.9844    1.1735 H   0  0  0  0  0  0  0  0  0  0  0  0
   -1.1956   -0.6267   -1.9010 H   0  0  0  0  0  0  0  0  0  0  0  0
   -1.3933   -2.1721   -1.0851 H   0  0  0  0  0  0  0  0  0  0  0  0
    3.5774    1.2207    1.2686 H   0  0  0  0  0  0  0  0  0  0  0  0
    6.0609    0.2927    2.4657 H   0  0  0  0  0  0  0  0  0  0  0  0
  1  2  1  0
  2  3  2  0
  3  4  1  0
  4  5  2  0
  5  6  1  0
  6  7  2  0
  7  8  1  0
  8  9  2  0
  8 10  1  0
 10 11  1  0
 11 12  1  0
 12 13  1  0
 13 14  1  0
 14 15  1  0
 13 16  1  0
 16 17  1  0
 17 18  2  0
 17 19  1  0
 19 20  2  0
 20 21  1  0
 21 22  2  0
 22 23  1  0
 23 24  1  0
 24 25  1  0
 24 26  1  0
 20 27  1  0
  7 28  1  0
 28 29  2  0
 29 30  1  0
 30  2  1  0
 29  4  1  0
 15 10  1  0
 23 19  1  0
 27 13  1  0
  1 31  1  0
  1 32  1  0
  1 33  1  0
  5 34  1  0
  6 35  1  0
 11 36  1  0
 11 37  1  0
 12 38  1  0
 12 39  1  0
 14 40  1  0
 14 41  1  0
 15 42  1  0
 15 43  1  0
 16 44  1  0
 16 45  1  0
 21 46  1  0
 24 47  1  0
 25 48  1  0
 25 49  1  0
 25 50  1  0
 26 51  1  0
 26 52  1  0
 26 53  1  0
 27 54  1  0
 27 55  1  0
 28 56  1  0
 30 57  1  0
M  END
$$$$
