
     RDKit          3D

 46 49  0  0  0  0  0  0  0  0999 V2000
    2.5006    0.7053   -1.4522 O   0  0  0  0  0  0  0  0  0  0  0  0
    2.9218    1.5237   -0.6474 C   0  0  0  0  0  0  0  0  0  0  0  0
    4.2675    1.7909   -0.4875 N   0  0  0  0  0  0  0  0  0  0  0  0
    5.2456    0.9879   -1.1915 C   0  0  0  0  0  0  0  0  0  0  0  0
    5.5744   -0.1983   -0.3629 C   0  0  0  0  0  0  0  0  0  0  0  0
    5.0076   -1.4501   -0.2391 C   0  0  0  0  0  0  0  0  0  0  0  0
    5.7681   -2.1379    0.7357 C   0  0  0  0  0  0  0  0  0  0  0  0
    6.7454   -1.2626    1.1473 C   0  0  0  0  0  0  0  0  0  0  0  0
    6.6336   -0.0788    0.4904 O   0  0  0  0  0  0  0  0  0  0  0  0
    2.1717    2.3229    0.1873 N   0  0  0  0  0  0  0  0  0  0  0  0
    0.7832    2.2460    0.4197 C   0  0  0  0  0  0  0  0  0  0  0  0
    0.1872    3.3417    1.0760 C   0  0  0  0  0  0  0  0  0  0  0  0
   -1.1808    3.3585    1.3572 C   0  0  0  0  0  0  0  0  0  0  0  0
   -1.9392    2.2633    0.9818 C   0  0  0  0  0  0  0  0  0  0  0  0
   -1.3571    1.1618    0.3528 C   0  0  0  0  0  0  0  0  0  0  0  0
    0.0006    1.1400    0.0644 C   0  0  0  0  0  0  0  0  0  0  0  0
   -2.3378    0.1839    0.0921 N   0  0  0  0  0  0  0  0  0  0  0  0
   -2.0933   -1.0955   -0.3813 C   0  0  0  0  0  0  0  0  0  0  0  0
   -0.9946   -1.6201   -0.5326 O   0  0  0  0  0  0  0  0  0  0  0  0
   -3.2734   -1.9295   -0.6970 C   0  0  0  0  0  0  0  0  0  0  0  0
   -3.5018   -3.0886    0.0500 C   0  0  0  0  0  0  0  0  0  0  0  0
   -4.6056   -3.8896   -0.2424 C   0  0  0  0  0  0  0  0  0  0  0  0
   -5.4659   -3.5388   -1.2851 C   0  0  0  0  0  0  0  0  0  0  0  0
   -5.2214   -2.3928   -2.0450 C   0  0  0  0  0  0  0  0  0  0  0  0
   -4.1194   -1.5875   -1.7570 C   0  0  0  0  0  0  0  0  0  0  0  0
   -3.6509    0.7321    0.4783 C   0  0  0  0  0  0  0  0  0  0  0  0
   -3.3978    2.0480    1.2225 C   0  0  0  0  0  0  0  0  0  0  0  0
    4.5386    2.0541    0.4479 H   0  0  0  0  0  0  0  0  0  0  0  0
    4.8665    0.6902   -2.1744 H   0  0  0  0  0  0  0  0  0  0  0  0
    6.1328    1.6120   -1.3386 H   0  0  0  0  0  0  0  0  0  0  0  0
    4.1419   -1.8075   -0.7824 H   0  0  0  0  0  0  0  0  0  0  0  0
    5.6176   -3.1451    1.0974 H   0  0  0  0  0  0  0  0  0  0  0  0
    7.5519   -1.3248    1.8644 H   0  0  0  0  0  0  0  0  0  0  0  0
    2.6434    3.1536    0.5103 H   0  0  0  0  0  0  0  0  0  0  0  0
    0.7863    4.2002    1.3692 H   0  0  0  0  0  0  0  0  0  0  0  0
   -1.6303    4.2068    1.8630 H   0  0  0  0  0  0  0  0  0  0  0  0
    0.4387    0.2768   -0.4228 H   0  0  0  0  0  0  0  0  0  0  0  0
   -2.8185   -3.3664    0.8489 H   0  0  0  0  0  0  0  0  0  0  0  0
   -4.7892   -4.7927    0.3344 H   0  0  0  0  0  0  0  0  0  0  0  0
   -6.3211   -4.1696   -1.5161 H   0  0  0  0  0  0  0  0  0  0  0  0
   -5.8827   -2.1361   -2.8689 H   0  0  0  0  0  0  0  0  0  0  0  0
   -3.9127   -0.7099   -2.3640 H   0  0  0  0  0  0  0  0  0  0  0  0
   -4.2293    0.9152   -0.4344 H   0  0  0  0  0  0  0  0  0  0  0  0
   -4.1983    0.0132    1.0972 H   0  0  0  0  0  0  0  0  0  0  0  0
   -4.0098    2.8601    0.8194 H   0  0  0  0  0  0  0  0  0  0  0  0
   -3.5943    1.9340    2.2935 H   0  0  0  0  0  0  0  0  0  0  0  0
  1  2  2  0
  2  3  1  0
  3  4  1  0
  4  5  1  0
  5  6  2  0
  6  7  1  0
  7  8  2  0
  8  9  1  0
  2 10  1  0
 10 11  1  0
 11 12  2  0
 12 13  1  0
 13 14  2  0
 14 15  1  0
 15 16  2  0
 15 17  1  0
 17 18  1  0
 18 19  2  0
 18 20  1  0
 20 21  2  0
 21 22  1  0
 22 23  2  0
 23 24  1  0
 24 25  2  0
 17 26  1  0
 26 27  1  0
  9  5  1  0
 16 11  1  0
 25 20  1  0
 27 14  1  0
  3 28  1  0
  4 29  1  0
  4 30  1  0
  6 31  1  0
  7 32  1  0
  8 33  1  0
 10 34  1  0
 12 35  1  0
 13 36  1  0
 16 37  1  0
 21 38  1  0
 22 39  1  0
 23 40  1  0
 24 41  1  0
 25 42  1  0
 26 43  1  0
 26 44  1  0
 27 45  1  0
 27 46  1  0
M  END
$$$$
