
     RDKit          3D

 26 27  0  0  0  0  0  0  0  0999 V2000
    0.6849    0.0000    0.0000 Cl  0  0  0  0  0  0  0  0  0  0  0  0
   -0.5322    2.6120   -1.3472 Cl  0  0  0  0  0  0  0  0  0  0  0  0
   -1.5107    1.3719   -0.5726 C   0  0  0  0  0  0  0  0  0  0  0  0
   -2.6838    1.7390    0.0215 C   0  0  0  0  0  0  0  0  0  0  0  0
   -3.4541    0.7408    0.6352 C   0  0  0  0  0  0  0  0  0  0  0  0
   -3.0059   -0.5506    0.6159 C   0  0  0  0  0  0  0  0  0  0  0  0
   -3.7386   -1.6763    1.2314 N   0  0  0  0  0  0  0  0  0  0  0  0
   -2.8679   -3.0170    0.9831 S   0  0  0  0  0  0  0  0  0  0  0  0
   -1.4863   -2.2469    0.0665 N   0  0  0  0  0  0  0  0  0  0  0  0
   -1.9062   -0.9174    0.0630 C   0  0  0  0  0  0  0  0  0  0  0  0
   -1.1062    0.0638   -0.5643 C   0  0  0  0  0  0  0  0  0  0  0  0
    0.1212   -0.2456   -1.1994 N   0  0  0  0  0  0  0  0  0  0  0  0
    1.3796   -0.2264   -0.5031 C   0  0  0  0  0  0  0  0  0  0  0  0
    1.4835   -0.0031    0.7482 N   0  0  0  0  0  0  0  0  0  0  0  0
    2.8866   -0.0479    1.1685 C   0  0  0  0  0  0  0  0  0  0  0  0
    3.6623    0.0485   -0.1347 C   0  0  0  0  0  0  0  0  0  0  0  0
    2.6526   -0.4451   -1.0808 N   0  0  0  0  0  0  0  0  0  0  0  0
   -0.6849    0.0000    0.0000 H   0  0  0  0  0  0  0  0  0  0  0  0
   -2.9846    2.7717    0.0045 H   0  0  0  0  0  0  0  0  0  0  0  0
   -4.3683    1.0631    1.0916 H   0  0  0  0  0  0  0  0  0  0  0  0
    0.0894   -0.4943   -2.2116 H   0  0  0  0  0  0  0  0  0  0  0  0
    3.0295   -1.0175    1.6656 H   0  0  0  0  0  0  0  0  0  0  0  0
    3.0700    0.8234    1.8303 H   0  0  0  0  0  0  0  0  0  0  0  0
    3.8817    1.1039   -0.3441 H   0  0  0  0  0  0  0  0  0  0  0  0
    4.5641   -0.5665   -0.1480 H   0  0  0  0  0  0  0  0  0  0  0  0
    2.8243   -0.8834   -2.0194 H   0  0  0  0  0  0  0  0  0  0  0  0
  2  3  1  0
  3  4  1  0
  4  5  2  0
  5  6  1  0
  6  7  2  0
  7  8  1  0
  8  9  1  0
  9 10  2  0
 10 11  1  0
 11 12  1  0
 12 13  1  0
 13 14  2  0
 14 15  1  0
 15 16  1  0
 16 17  1  0
 11  3  2  0
 17 13  1  0
 10  6  1  0
  1 18  1  0
  4 19  1  0
  5 20  1  0
 12 21  1  0
 15 22  1  0
 15 23  1  0
 16 24  1  0
 16 25  1  0
 17 26  1  0
M  END
$$$$
