
     RDKit          3D

 34 35  0  0  0  0  0  0  0  0999 V2000
    6.3563   -0.1431   -1.0388 C   0  0  0  0  0  0  0  0  0  0  0  0
    5.3668   -0.9076   -0.3610 O   0  0  0  0  0  0  0  0  0  0  0  0
    4.1923   -0.2752   -0.0628 C   0  0  0  0  0  0  0  0  0  0  0  0
    3.2691   -1.0582    0.6355 C   0  0  0  0  0  0  0  0  0  0  0  0
    2.0233   -0.5420    1.0066 C   0  0  0  0  0  0  0  0  0  0  0  0
    1.6897    0.7747    0.6772 C   0  0  0  0  0  0  0  0  0  0  0  0
    0.3749    1.3729    1.0266 C   0  0  0  0  0  0  0  0  0  0  0  0
    0.0829    2.5202    0.7087 O   0  0  0  0  0  0  0  0  0  0  0  0
   -0.6555    0.5452    1.7589 C   0  0  0  0  0  0  0  0  0  0  0  0
   -0.4065    0.1875    2.9044 O   0  0  0  0  0  0  0  0  0  0  0  0
   -1.9139    0.1550    1.0708 C   0  0  0  0  0  0  0  0  0  0  0  0
   -2.2123    0.5638   -0.2339 C   0  0  0  0  0  0  0  0  0  0  0  0
   -3.4054    0.1578   -0.8474 C   0  0  0  0  0  0  0  0  0  0  0  0
   -4.3069   -0.6592   -0.1646 C   0  0  0  0  0  0  0  0  0  0  0  0
   -5.4979   -1.1238   -0.6480 O   0  0  0  0  0  0  0  0  0  0  0  0
   -5.8678   -0.7113   -1.9578 C   0  0  0  0  0  0  0  0  0  0  0  0
   -4.0070   -1.0663    1.1371 C   0  0  0  0  0  0  0  0  0  0  0  0
   -2.8202   -0.6632    1.7547 C   0  0  0  0  0  0  0  0  0  0  0  0
    2.6149    1.5609   -0.0225 C   0  0  0  0  0  0  0  0  0  0  0  0
    3.8606    1.0386   -0.3908 C   0  0  0  0  0  0  0  0  0  0  0  0
    7.2309   -0.7839   -1.1861 H   0  0  0  0  0  0  0  0  0  0  0  0
    6.0033    0.1710   -2.0266 H   0  0  0  0  0  0  0  0  0  0  0  0
    6.6707    0.7172   -0.4387 H   0  0  0  0  0  0  0  0  0  0  0  0
    3.5260   -2.0824    0.8986 H   0  0  0  0  0  0  0  0  0  0  0  0
    1.3440   -1.1863    1.5589 H   0  0  0  0  0  0  0  0  0  0  0  0
   -1.5417    1.2093   -0.7962 H   0  0  0  0  0  0  0  0  0  0  0  0
   -3.5999    0.5016   -1.8585 H   0  0  0  0  0  0  0  0  0  0  0  0
   -6.8422   -1.1544   -2.1852 H   0  0  0  0  0  0  0  0  0  0  0  0
   -5.1535   -1.0774   -2.7027 H   0  0  0  0  0  0  0  0  0  0  0  0
   -5.9754    0.3770   -2.0137 H   0  0  0  0  0  0  0  0  0  0  0  0
   -4.7055   -1.7015    1.6774 H   0  0  0  0  0  0  0  0  0  0  0  0
   -2.6119   -0.9921    2.7713 H   0  0  0  0  0  0  0  0  0  0  0  0
    2.3733    2.5898   -0.2853 H   0  0  0  0  0  0  0  0  0  0  0  0
    4.5446    1.6853   -0.9307 H   0  0  0  0  0  0  0  0  0  0  0  0
  1  2  1  0
  2  3  1  0
  3  4  2  0
  4  5  1  0
  5  6  2  0
  6  7  1  0
  7  8  2  0
  7  9  1  0
  9 10  2  0
  9 11  1  0
 11 12  2  0
 12 13  1  0
 13 14  2  0
 14 15  1  0
 15 16  1  0
 14 17  1  0
 17 18  2  0
  6 19  1  0
 19 20  2  0
 20  3  1  0
 18 11  1  0
  1 21  1  0
  1 22  1  0
  1 23  1  0
  4 24  1  0
  5 25  1  0
 12 26  1  0
 13 27  1  0
 16 28  1  0
 16 29  1  0
 16 30  1  0
 17 31  1  0
 18 32  1  0
 19 33  1  0
 20 34  1  0
M  END
$$$$
