
     RDKit          3D

 44 47  0  0  0  0  0  0  0  0999 V2000
   -7.6559    1.8287    0.9561 C   0  0  0  0  0  0  0  0  0  0  0  0
   -6.4378    1.1590    0.3938 C   0  0  0  0  0  0  0  0  0  0  0  0
   -5.2261    1.1868    1.0916 C   0  0  0  0  0  0  0  0  0  0  0  0
   -4.0767    0.5911    0.5572 C   0  0  0  0  0  0  0  0  0  0  0  0
   -4.1204   -0.0348   -0.6932 C   0  0  0  0  0  0  0  0  0  0  0  0
   -2.9714   -0.6548   -1.2735 N   0  0  0  0  0  0  0  0  0  0  0  0
   -3.0709   -1.2428   -2.5128 N   0  0  0  0  0  0  0  0  0  0  0  0
   -1.8503   -1.7113   -2.7752 C   0  0  0  0  0  0  0  0  0  0  0  0
   -0.9593   -1.4606   -1.7367 C   0  0  0  0  0  0  0  0  0  0  0  0
    0.4284   -1.7565   -1.5250 C   0  0  0  0  0  0  0  0  0  0  0  0
    1.1182   -2.3426   -2.3531 O   0  0  0  0  0  0  0  0  0  0  0  0
    0.8911   -1.3191   -0.2847 N   0  0  0  0  0  0  0  0  0  0  0  0
    2.2880   -1.5438    0.0404 C   0  0  0  0  0  0  0  0  0  0  0  0
    3.1310   -0.3738   -0.4656 C   0  0  0  0  0  0  0  0  0  0  0  0
    2.7066    0.7785   -0.5054 O   0  0  0  0  0  0  0  0  0  0  0  0
    4.4177   -0.7155   -0.8152 N   0  0  0  0  0  0  0  0  0  0  0  0
    5.4000    0.2858   -1.1658 C   0  0  0  0  0  0  0  0  0  0  0  0
    6.1939    0.5963    0.0472 C   0  0  0  0  0  0  0  0  0  0  0  0
    6.1842    1.6463    0.9419 C   0  0  0  0  0  0  0  0  0  0  0  0
    7.1835    1.3609    1.9027 C   0  0  0  0  0  0  0  0  0  0  0  0
    7.7345    0.1553    1.5370 C   0  0  0  0  0  0  0  0  0  0  0  0
    7.1369   -0.3209    0.4143 O   0  0  0  0  0  0  0  0  0  0  0  0
    0.0762   -0.6185    0.5946 C   0  0  0  0  0  0  0  0  0  0  0  0
   -1.1806   -0.3441    0.4139 N   0  0  0  0  0  0  0  0  0  0  0  0
   -1.6739   -0.7869   -0.7744 C   0  0  0  0  0  0  0  0  0  0  0  0
   -5.3346   -0.0476   -1.3997 C   0  0  0  0  0  0  0  0  0  0  0  0
   -6.4799    0.5482   -0.8623 C   0  0  0  0  0  0  0  0  0  0  0  0
   -8.5689    1.3292    0.6156 H   0  0  0  0  0  0  0  0  0  0  0  0
   -7.6868    2.8759    0.6402 H   0  0  0  0  0  0  0  0  0  0  0  0
   -7.6533    1.7887    2.0504 H   0  0  0  0  0  0  0  0  0  0  0  0
   -5.1640    1.6751    2.0619 H   0  0  0  0  0  0  0  0  0  0  0  0
   -3.1678    0.6441    1.1464 H   0  0  0  0  0  0  0  0  0  0  0  0
   -1.6695   -2.2190   -3.7144 H   0  0  0  0  0  0  0  0  0  0  0  0
    2.6331   -2.4811   -0.4085 H   0  0  0  0  0  0  0  0  0  0  0  0
    2.4137   -1.6032    1.1269 H   0  0  0  0  0  0  0  0  0  0  0  0
    4.7727   -1.6398   -0.6088 H   0  0  0  0  0  0  0  0  0  0  0  0
    4.9144    1.1834   -1.5611 H   0  0  0  0  0  0  0  0  0  0  0  0
    6.0397   -0.1370   -1.9467 H   0  0  0  0  0  0  0  0  0  0  0  0
    5.5307    2.5075    0.9016 H   0  0  0  0  0  0  0  0  0  0  0  0
    7.4672    1.9591    2.7572 H   0  0  0  0  0  0  0  0  0  0  0  0
    8.5179   -0.4655    1.9492 H   0  0  0  0  0  0  0  0  0  0  0  0
    0.5803   -0.2921    1.5191 H   0  0  0  0  0  0  0  0  0  0  0  0
   -5.4078   -0.5178   -2.3790 H   0  0  0  0  0  0  0  0  0  0  0  0
   -7.4042    0.5293   -1.4353 H   0  0  0  0  0  0  0  0  0  0  0  0
  1  2  1  0
  2  3  2  0
  3  4  1  0
  4  5  2  0
  5  6  1  0
  6  7  1  0
  7  8  2  0
  8  9  1  0
  9 10  1  0
 10 11  2  0
 10 12  1  0
 12 13  1  0
 13 14  1  0
 14 15  2  0
 14 16  1  0
 16 17  1  0
 17 18  1  0
 18 19  2  0
 19 20  1  0
 20 21  2  0
 21 22  1  0
 12 23  1  0
 23 24  2  0
 24 25  1  0
  5 26  1  0
 26 27  2  0
 27  2  1  0
 25  6  1  0
 25  9  2  0
 22 18  1  0
  1 28  1  0
  1 29  1  0
  1 30  1  0
  3 31  1  0
  4 32  1  0
  8 33  1  0
 13 34  1  0
 13 35  1  0
 16 36  1  0
 17 37  1  0
 17 38  1  0
 19 39  1  0
 20 40  1  0
 21 41  1  0
 23 42  1  0
 26 43  1  0
 27 44  1  0
M  END
$$$$
