
     RDKit          3D

 56 59  0  0  0  0  0  0  0  0999 V2000
    3.6222   -2.5757    0.9343 C   0  0  0  0  0  0  0  0  0  0  0  0
    3.0612   -1.1646    1.0850 C   0  0  2  0  0  0  0  0  0  0  0  0
    1.6769   -1.1571    1.7774 C   0  0  0  0  0  0  0  0  0  0  0  0
    0.7209   -0.6842    0.6851 C   0  0  1  0  0  0  0  0  0  0  0  0
   -0.6715   -0.1723    1.0806 C   0  0  2  0  0  0  0  0  0  0  0  0
   -1.4136   -1.2272    1.9219 C   0  0  0  0  0  0  0  0  0  0  0  0
   -2.8443   -0.8099    2.2435 C   0  0  0  0  0  0  0  0  0  0  0  0
   -3.5921   -0.4714    0.9796 C   0  0  0  0  0  0  0  0  0  0  0  0
   -4.7151   -1.1370    0.6554 C   0  0  0  0  0  0  0  0  0  0  0  0
   -5.4415   -0.8762   -0.6035 C   0  0  0  0  0  0  0  0  0  0  0  0
   -6.4737   -1.4747   -0.8798 O   0  0  0  0  0  0  0  0  0  0  0  0
   -4.8734    0.1346   -1.5147 C   0  0  0  0  0  0  0  0  0  0  0  0
   -3.7561    0.8017   -1.1959 C   0  0  0  0  0  0  0  0  0  0  0  0
   -2.9569    0.6179    0.0946 C   0  0  1  0  0  0  0  0  0  0  0  0
   -3.0630    1.9606    0.8543 C   0  0  0  0  0  0  0  0  0  0  0  0
   -1.4691    0.1756   -0.2221 C   0  0  2  0  0  0  0  0  0  0  0  0
   -1.5606   -1.0147   -0.9316 F   0  0  0  0  0  0  0  0  0  0  0  0
   -0.6667    1.1302   -1.1627 C   0  0  1  0  0  0  0  0  0  0  0  0
   -0.6565    2.4735   -0.6922 O   0  0  0  0  0  0  0  0  0  0  0  0
    0.7875    0.6615   -1.4077 C   0  0  0  0  0  0  0  0  0  0  0  0
    1.5507    0.3475   -0.1075 C   0  0  1  0  0  0  0  0  0  0  0  0
    1.8476    1.6496    0.6793 C   0  0  0  0  0  0  0  0  0  0  0  0
    2.8474   -0.4828   -0.2990 C   0  0  1  0  0  0  0  0  0  0  0  0
    4.0597    0.3172   -0.7637 C   0  0  0  0  0  0  0  0  0  0  0  0
    4.8097    0.9123    0.0133 O   0  0  0  0  0  0  0  0  0  0  0  0
    4.3287    0.3465   -2.2643 C   0  0  0  0  0  0  0  0  0  0  0  0
    5.2977    1.3279   -2.6016 O   0  0  0  0  0  0  0  0  0  0  0  0
    2.9456   -3.2156    0.3579 H   0  0  0  0  0  0  0  0  0  0  0  0
    3.7685   -3.0389    1.9157 H   0  0  0  0  0  0  0  0  0  0  0  0
    4.5901   -2.5556    0.4228 H   0  0  0  0  0  0  0  0  0  0  0  0
    3.7632   -0.5968    1.7076 H   0  0  0  0  0  0  0  0  0  0  0  0
    1.6812   -0.4593    2.6227 H   0  0  0  0  0  0  0  0  0  0  0  0
    1.3967   -2.1416    2.1664 H   0  0  0  0  0  0  0  0  0  0  0  0
    0.5569   -1.5622    0.0378 H   0  0  0  0  0  0  0  0  0  0  0  0
   -0.5673    0.7252    1.6988 H   0  0  0  0  0  0  0  0  0  0  0  0
   -0.8804   -1.3974    2.8646 H   0  0  0  0  0  0  0  0  0  0  0  0
   -1.4261   -2.1877    1.3897 H   0  0  0  0  0  0  0  0  0  0  0  0
   -3.3355   -1.6230    2.7923 H   0  0  0  0  0  0  0  0  0  0  0  0
   -2.8423    0.0552    2.9167 H   0  0  0  0  0  0  0  0  0  0  0  0
   -5.1426   -1.9103    1.2834 H   0  0  0  0  0  0  0  0  0  0  0  0
   -5.4142    0.3090   -2.4367 H   0  0  0  0  0  0  0  0  0  0  0  0
   -3.4025    1.5551   -1.8963 H   0  0  0  0  0  0  0  0  0  0  0  0
   -4.0737    2.1067    1.2584 H   0  0  0  0  0  0  0  0  0  0  0  0
   -2.3702    2.0233    1.6986 H   0  0  0  0  0  0  0  0  0  0  0  0
   -2.8695    2.8226    0.2070 H   0  0  0  0  0  0  0  0  0  0  0  0
   -1.1552    1.1445   -2.1438 H   0  0  0  0  0  0  0  0  0  0  0  0
   -0.1860    3.0197   -1.3476 H   0  0  0  0  0  0  0  0  0  0  0  0
    1.3292    1.4260   -1.9772 H   0  0  0  0  0  0  0  0  0  0  0  0
    0.7551   -0.2376   -2.0368 H   0  0  0  0  0  0  0  0  0  0  0  0
    2.5110    1.4823    1.5335 H   0  0  0  0  0  0  0  0  0  0  0  0
    0.9492    2.1212    1.0815 H   0  0  0  0  0  0  0  0  0  0  0  0
    2.3370    2.3876    0.0334 H   0  0  0  0  0  0  0  0  0  0  0  0
    2.6764   -1.2660   -1.0514 H   0  0  0  0  0  0  0  0  0  0  0  0
    3.4082    0.5799   -2.8048 H   0  0  0  0  0  0  0  0  0  0  0  0
    4.6998   -0.6354   -2.5735 H   0  0  0  0  0  0  0  0  0  0  0  0
    5.8410    1.4601   -1.7966 H   0  0  0  0  0  0  0  0  0  0  0  0
  1  2  1  0
  2  3  1  0
  3  4  1  0
  4  5  1  0
  5  6  1  0
  6  7  1  0
  7  8  1  0
  8  9  2  0
  9 10  1  0
 10 11  2  0
 10 12  1  0
 12 13  2  0
 13 14  1  0
 14 15  1  1
 14 16  1  0
 16 17  1  6
 16 18  1  0
 18 19  1  0
 18 20  1  0
 20 21  1  0
 21 22  1  1
 21 23  1  0
 23 24  1  0
 24 25  2  0
 24 26  1  0
 26 27  1  0
 23  2  1  0
 21  4  1  0
 16  5  1  0
 14  8  1  0
  1 28  1  0
  1 29  1  0
  1 30  1  0
  2 31  1  1
  3 32  1  0
  3 33  1  0
  4 34  1  6
  5 35  1  1
  6 36  1  0
  6 37  1  0
  7 38  1  0
  7 39  1  0
  9 40  1  0
 12 41  1  0
 13 42  1  0
 15 43  1  0
 15 44  1  0
 15 45  1  0
 18 46  1  6
 19 47  1  0
 20 48  1  0
 20 49  1  0
 22 50  1  0
 22 51  1  0
 22 52  1  0
 23 53  1  6
 26 54  1  0
 26 55  1  0
 27 56  1  0
M  END
$$$$
