
     RDKit          3D

 47 49  0  0  0  0  0  0  0  0999 V2000
    2.9788    1.3576    2.6159 O   0  0  0  0  0  0  0  0  0  0  0  0
    2.6317    0.6029    1.4451 C   0  0  0  0  0  0  0  0  0  0  0  0
    1.5459    1.3846    0.6545 C   0  0  0  0  0  0  0  0  0  0  0  0
    1.0806    0.7627   -0.6024 N   0  0  0  0  0  0  0  0  0  0  0  0
    0.3650   -0.5053   -0.4130 C   0  0  0  0  0  0  0  0  0  0  0  0
   -1.0350   -0.3497    0.1879 C   0  0  0  0  0  0  0  0  0  0  0  0
   -1.8928    0.6281   -0.6320 C   0  0  0  0  0  0  0  0  0  0  0  0
   -3.2528    0.9093    0.0355 C   0  0  0  0  0  0  0  0  0  0  0  0
   -4.1723   -0.2898    0.0601 C   0  0  0  0  0  0  0  0  0  0  0  0
   -4.8145   -0.7125   -1.1152 C   0  0  0  0  0  0  0  0  0  0  0  0
   -5.6572   -1.8246   -1.0971 C   0  0  0  0  0  0  0  0  0  0  0  0
   -5.8574   -2.5136    0.0937 C   0  0  0  0  0  0  0  0  0  0  0  0
   -6.6652   -3.5821    0.1094 F   0  0  0  0  0  0  0  0  0  0  0  0
   -5.2320   -2.1112    1.2683 C   0  0  0  0  0  0  0  0  0  0  0  0
   -4.3894   -0.9986    1.2531 C   0  0  0  0  0  0  0  0  0  0  0  0
   -1.1263    1.9441   -0.8435 C   0  0  0  0  0  0  0  0  0  0  0  0
    0.2752    1.6929   -1.4065 C   0  0  0  0  0  0  0  0  0  0  0  0
    3.8975    0.3043    0.6634 C   0  0  0  0  0  0  0  0  0  0  0  0
    4.6815    1.3404    0.1262 C   0  0  0  0  0  0  0  0  0  0  0  0
    5.8502    1.0552   -0.5836 C   0  0  0  0  0  0  0  0  0  0  0  0
    6.2464   -0.2693   -0.7582 C   0  0  0  0  0  0  0  0  0  0  0  0
    7.6861   -0.6235   -1.6315 Cl  0  0  0  0  0  0  0  0  0  0  0  0
    5.4861   -1.3099   -0.2265 C   0  0  0  0  0  0  0  0  0  0  0  0
    4.3166   -1.0241    0.4827 C   0  0  0  0  0  0  0  0  0  0  0  0
    3.8939    1.1208    2.8487 H   0  0  0  0  0  0  0  0  0  0  0  0
    2.2000   -0.3327    1.8178 H   0  0  0  0  0  0  0  0  0  0  0  0
    0.7081    1.5863    1.3340 H   0  0  0  0  0  0  0  0  0  0  0  0
    1.9596    2.3767    0.4260 H   0  0  0  0  0  0  0  0  0  0  0  0
    0.9511   -1.2034    0.1943 H   0  0  0  0  0  0  0  0  0  0  0  0
    0.2738   -0.9948   -1.3923 H   0  0  0  0  0  0  0  0  0  0  0  0
   -0.9611   -0.0090    1.2278 H   0  0  0  0  0  0  0  0  0  0  0  0
   -1.5121   -1.3363    0.2152 H   0  0  0  0  0  0  0  0  0  0  0  0
   -2.0641    0.1805   -1.6214 H   0  0  0  0  0  0  0  0  0  0  0  0
   -3.7695    1.7166   -0.5004 H   0  0  0  0  0  0  0  0  0  0  0  0
   -3.1012    1.2841    1.0563 H   0  0  0  0  0  0  0  0  0  0  0  0
   -4.6613   -0.1755   -2.0500 H   0  0  0  0  0  0  0  0  0  0  0  0
   -6.1575   -2.1563   -2.0015 H   0  0  0  0  0  0  0  0  0  0  0  0
   -5.4041   -2.6655    2.1859 H   0  0  0  0  0  0  0  0  0  0  0  0
   -3.9014   -0.6898    2.1757 H   0  0  0  0  0  0  0  0  0  0  0  0
   -1.0573    2.4976    0.1019 H   0  0  0  0  0  0  0  0  0  0  0  0
   -1.6803    2.5859   -1.5403 H   0  0  0  0  0  0  0  0  0  0  0  0
    0.1832    1.2827   -2.4212 H   0  0  0  0  0  0  0  0  0  0  0  0
    0.8019    2.6478   -1.5287 H   0  0  0  0  0  0  0  0  0  0  0  0
    4.3836    2.3792    0.2578 H   0  0  0  0  0  0  0  0  0  0  0  0
    6.4416    1.8669   -0.9981 H   0  0  0  0  0  0  0  0  0  0  0  0
    5.7952   -2.3435   -0.3617 H   0  0  0  0  0  0  0  0  0  0  0  0
    3.7311   -1.8481    0.8879 H   0  0  0  0  0  0  0  0  0  0  0  0
  1  2  1  0
  2  3  1  0
  3  4  1  0
  4  5  1  0
  5  6  1  0
  6  7  1  0
  7  8  1  0
  8  9  1  0
  9 10  2  0
 10 11  1  0
 11 12  2  0
 12 13  1  0
 12 14  1  0
 14 15  2  0
  7 16  1  0
 16 17  1  0
  2 18  1  0
 18 19  2  0
 19 20  1  0
 20 21  2  0
 21 22  1  0
 21 23  1  0
 23 24  2  0
 17  4  1  0
 24 18  1  0
 15  9  1  0
  1 25  1  0
  2 26  1  0
  3 27  1  0
  3 28  1  0
  5 29  1  0
  5 30  1  0
  6 31  1  0
  6 32  1  0
  7 33  1  0
  8 34  1  0
  8 35  1  0
 10 36  1  0
 11 37  1  0
 14 38  1  0
 15 39  1  0
 16 40  1  0
 16 41  1  0
 17 42  1  0
 17 43  1  0
 19 44  1  0
 20 45  1  0
 23 46  1  0
 24 47  1  0
M  END
$$$$
