
     RDKit          3D

 65 68  0  0  0  0  0  0  0  0999 V2000
   -1.0477    6.6223   -2.0287 C   0  0  0  0  0  0  0  0  0  0  0  0
   -0.6283    6.4081   -0.5869 C   0  0  0  0  0  0  0  0  0  0  0  0
    0.4012    5.4014   -0.4810 N   0  0  0  0  0  0  0  0  0  0  0  0
    0.1226    4.0547   -0.3522 C   0  0  0  0  0  0  0  0  0  0  0  0
   -1.0195    3.6205   -0.2421 O   0  0  0  0  0  0  0  0  0  0  0  0
    1.3160    3.2000   -0.3566 C   0  0  0  0  0  0  0  0  0  0  0  0
    2.5385    3.7218   -0.5742 N   0  0  0  0  0  0  0  0  0  0  0  0
    3.4198    2.6697   -0.4994 O   0  0  0  0  0  0  0  0  0  0  0  0
    2.7611    1.5103   -0.2112 C   0  0  0  0  0  0  0  0  0  0  0  0
    3.6203    0.3314   -0.0676 C   0  0  0  0  0  0  0  0  0  0  0  0
    3.1211   -0.9443   -0.3837 C   0  0  0  0  0  0  0  0  0  0  0  0
    3.8960   -2.1151   -0.2540 C   0  0  0  0  0  0  0  0  0  0  0  0
    3.3130   -3.4718   -0.6266 C   0  0  0  0  0  0  0  0  0  0  0  0
    2.9035   -3.5187   -2.1018 C   0  0  0  0  0  0  0  0  0  0  0  0
    2.1394   -3.8500    0.2806 C   0  0  0  0  0  0  0  0  0  0  0  0
    5.2064   -1.9843    0.2180 C   0  0  0  0  0  0  0  0  0  0  0  0
    5.9827   -3.0997    0.3578 O   0  0  0  0  0  0  0  0  0  0  0  0
    5.7342   -0.7354    0.5289 C   0  0  0  0  0  0  0  0  0  0  0  0
    4.9489    0.4085    0.3811 C   0  0  0  0  0  0  0  0  0  0  0  0
    5.5723    1.5825    0.7153 O   0  0  0  0  0  0  0  0  0  0  0  0
    1.4087    1.7942   -0.1351 C   0  0  0  0  0  0  0  0  0  0  0  0
    0.3716    0.8363    0.1762 C   0  0  0  0  0  0  0  0  0  0  0  0
   -0.4082    0.2943   -0.8498 C   0  0  0  0  0  0  0  0  0  0  0  0
   -1.3998   -0.6426   -0.5530 C   0  0  0  0  0  0  0  0  0  0  0  0
   -1.6519   -1.0243    0.7740 C   0  0  0  0  0  0  0  0  0  0  0  0
   -2.7289   -2.0396    1.1085 C   0  0  0  0  0  0  0  0  0  0  0  0
   -3.9796   -1.8642    0.3530 N   0  0  0  0  0  0  0  0  0  0  0  0
   -4.9159   -2.9875    0.5738 C   0  0  0  0  0  0  0  0  0  0  0  0
   -6.0819   -2.6425    1.5152 C   0  0  0  0  0  0  0  0  0  0  0  0
   -6.8783   -1.5471    1.0402 O   0  0  0  0  0  0  0  0  0  0  0  0
   -6.1226   -0.5941    0.2799 C   0  0  0  0  0  0  0  0  0  0  0  0
   -4.6343   -0.5704    0.6582 C   0  0  0  0  0  0  0  0  0  0  0  0
   -0.8547   -0.4849    1.7938 C   0  0  0  0  0  0  0  0  0  0  0  0
    0.1506    0.4402    1.4986 C   0  0  0  0  0  0  0  0  0  0  0  0
   -1.8128    7.4029   -2.0906 H   0  0  0  0  0  0  0  0  0  0  0  0
   -0.1945    6.9291   -2.6429 H   0  0  0  0  0  0  0  0  0  0  0  0
   -1.4590    5.7041   -2.4620 H   0  0  0  0  0  0  0  0  0  0  0  0
   -0.2176    7.3357   -0.1737 H   0  0  0  0  0  0  0  0  0  0  0  0
   -1.4927    6.1153    0.0181 H   0  0  0  0  0  0  0  0  0  0  0  0
    1.3731    5.6547   -0.6335 H   0  0  0  0  0  0  0  0  0  0  0  0
    2.1074   -1.0464   -0.7622 H   0  0  0  0  0  0  0  0  0  0  0  0
    4.0816   -4.2459   -0.4995 H   0  0  0  0  0  0  0  0  0  0  0  0
    2.5694   -4.5261   -2.3818 H   0  0  0  0  0  0  0  0  0  0  0  0
    2.0892   -2.8247   -2.3285 H   0  0  0  0  0  0  0  0  0  0  0  0
    3.7489   -3.2579   -2.7493 H   0  0  0  0  0  0  0  0  0  0  0  0
    1.3024   -3.1503    0.1847 H   0  0  0  0  0  0  0  0  0  0  0  0
    2.4470   -3.8624    1.3322 H   0  0  0  0  0  0  0  0  0  0  0  0
    1.7640   -4.8492    0.0291 H   0  0  0  0  0  0  0  0  0  0  0  0
    6.8443   -2.8367    0.7194 H   0  0  0  0  0  0  0  0  0  0  0  0
    6.7549   -0.6311    0.8784 H   0  0  0  0  0  0  0  0  0  0  0  0
    4.9869    2.3270    0.4910 H   0  0  0  0  0  0  0  0  0  0  0  0
   -0.2526    0.5879   -1.8856 H   0  0  0  0  0  0  0  0  0  0  0  0
   -1.9967   -1.0599   -1.3619 H   0  0  0  0  0  0  0  0  0  0  0  0
   -2.2964   -3.0241    0.8831 H   0  0  0  0  0  0  0  0  0  0  0  0
   -2.9399   -2.0216    2.1871 H   0  0  0  0  0  0  0  0  0  0  0  0
   -4.4019   -3.8876    0.9354 H   0  0  0  0  0  0  0  0  0  0  0  0
   -5.3362   -3.2440   -0.4071 H   0  0  0  0  0  0  0  0  0  0  0  0
   -5.7176   -2.3912    2.5196 H   0  0  0  0  0  0  0  0  0  0  0  0
   -6.7459   -3.5060    1.6177 H   0  0  0  0  0  0  0  0  0  0  0  0
   -6.5714    0.3898    0.4520 H   0  0  0  0  0  0  0  0  0  0  0  0
   -6.2488   -0.8284   -0.7852 H   0  0  0  0  0  0  0  0  0  0  0  0
   -4.5546   -0.3417    1.7280 H   0  0  0  0  0  0  0  0  0  0  0  0
   -4.1430    0.2332    0.1012 H   0  0  0  0  0  0  0  0  0  0  0  0
   -1.0146   -0.7763    2.8294 H   0  0  0  0  0  0  0  0  0  0  0  0
    0.7504    0.8520    2.3081 H   0  0  0  0  0  0  0  0  0  0  0  0
  1  2  1  0
  2  3  1  0
  3  4  1  0
  4  5  2  0
  4  6  1  0
  6  7  2  0
  7  8  1  0
  8  9  1  0
  9 10  1  0
 10 11  2  0
 11 12  1  0
 12 13  1  0
 13 14  1  0
 13 15  1  0
 12 16  2  0
 16 17  1  0
 16 18  1  0
 18 19  2  0
 19 20  1  0
  9 21  2  0
 21 22  1  0
 22 23  2  0
 23 24  1  0
 24 25  2  0
 25 26  1  0
 26 27  1  0
 27 28  1  0
 28 29  1  0
 29 30  1  0
 30 31  1  0
 31 32  1  0
 25 33  1  0
 33 34  2  0
 21  6  1  0
 34 22  1  0
 19 10  1  0
 32 27  1  0
  1 35  1  0
  1 36  1  0
  1 37  1  0
  2 38  1  0
  2 39  1  0
  3 40  1  0
 11 41  1  0
 13 42  1  0
 14 43  1  0
 14 44  1  0
 14 45  1  0
 15 46  1  0
 15 47  1  0
 15 48  1  0
 17 49  1  0
 18 50  1  0
 20 51  1  0
 23 52  1  0
 24 53  1  0
 26 54  1  0
 26 55  1  0
 28 56  1  0
 28 57  1  0
 29 58  1  0
 29 59  1  0
 31 60  1  0
 31 61  1  0
 32 62  1  0
 32 63  1  0
 33 64  1  0
 34 65  1  0
M  END
$$$$
