
     RDKit          3D

 40 41  0  0  0  0  0  0  0  0999 V2000
   -3.0600    0.4167    2.6311 C   0  0  0  0  0  0  0  0  0  0  0  0
   -3.6662   -0.2119    1.4076 C   0  0  0  0  0  0  0  0  0  0  0  0
   -4.9018   -0.8651    1.4946 C   0  0  0  0  0  0  0  0  0  0  0  0
   -5.4767   -1.4444    0.3630 C   0  0  0  0  0  0  0  0  0  0  0  0
   -4.8294   -1.3674   -0.8709 C   0  0  0  0  0  0  0  0  0  0  0  0
   -3.5938   -0.7169   -0.9885 C   0  0  0  0  0  0  0  0  0  0  0  0
   -2.9236   -0.6385   -2.3300 C   0  0  0  0  0  0  0  0  0  0  0  0
   -3.0029   -0.1839    0.1686 C   0  0  0  0  0  0  0  0  0  0  0  0
   -1.7808    0.4360    0.0877 O   0  0  0  0  0  0  0  0  0  0  0  0
   -0.7296   -0.5091    0.2731 C   0  0  0  0  0  0  0  0  0  0  0  0
    0.5459    0.1696    0.7801 C   0  0  0  0  0  0  0  0  0  0  0  0
    0.5959    1.3250    1.1905 O   0  0  0  0  0  0  0  0  0  0  0  0
    1.6579   -0.6536    0.7343 N   0  0  0  0  0  0  0  0  0  0  0  0
    2.9459   -0.2242    1.2504 C   0  0  0  0  0  0  0  0  0  0  0  0
    3.6187    0.8911    0.4433 C   0  0  0  0  0  0  0  0  0  0  0  0
    3.7648    0.5848   -1.0397 C   0  0  0  0  0  0  0  0  0  0  0  0
    4.9170    1.4814   -1.4187 C   0  0  0  0  0  0  0  0  0  0  0  0
    5.8099    1.3831   -0.1994 C   0  0  0  0  0  0  0  0  0  0  0  0
    4.9637    1.0977    0.9254 O   0  0  0  0  0  0  0  0  0  0  0  0
   -2.6737    1.4159    2.4021 H   0  0  0  0  0  0  0  0  0  0  0  0
   -3.8036    0.5335    3.4275 H   0  0  0  0  0  0  0  0  0  0  0  0
   -2.2462   -0.2075    3.0132 H   0  0  0  0  0  0  0  0  0  0  0  0
   -5.4295   -0.9196    2.4443 H   0  0  0  0  0  0  0  0  0  0  0  0
   -6.4388   -1.9451    0.4400 H   0  0  0  0  0  0  0  0  0  0  0  0
   -5.3028   -1.8101   -1.7453 H   0  0  0  0  0  0  0  0  0  0  0  0
   -2.3884    0.3097   -2.4497 H   0  0  0  0  0  0  0  0  0  0  0  0
   -2.2181   -1.4670   -2.4479 H   0  0  0  0  0  0  0  0  0  0  0  0
   -3.6597   -0.6924   -3.1391 H   0  0  0  0  0  0  0  0  0  0  0  0
   -0.5034   -0.9827   -0.6897 H   0  0  0  0  0  0  0  0  0  0  0  0
   -0.9935   -1.2847    1.0052 H   0  0  0  0  0  0  0  0  0  0  0  0
    1.5382   -1.6334    0.5127 H   0  0  0  0  0  0  0  0  0  0  0  0
    3.5930   -1.1087    1.2825 H   0  0  0  0  0  0  0  0  0  0  0  0
    2.8140    0.1014    2.2895 H   0  0  0  0  0  0  0  0  0  0  0  0
    3.0817    1.8380    0.5758 H   0  0  0  0  0  0  0  0  0  0  0  0
    2.8546    0.7889   -1.6106 H   0  0  0  0  0  0  0  0  0  0  0  0
    4.0462   -0.4635   -1.1982 H   0  0  0  0  0  0  0  0  0  0  0  0
    5.4214    1.1840   -2.3421 H   0  0  0  0  0  0  0  0  0  0  0  0
    4.5627    2.5123   -1.5406 H   0  0  0  0  0  0  0  0  0  0  0  0
    6.3697    2.3047   -0.0152 H   0  0  0  0  0  0  0  0  0  0  0  0
    6.5212    0.5561   -0.2963 H   0  0  0  0  0  0  0  0  0  0  0  0
  1  2  1  0
  2  3  2  0
  3  4  1  0
  4  5  2  0
  5  6  1  0
  6  7  1  0
  6  8  2  0
  8  9  1  0
  9 10  1  0
 10 11  1  0
 11 12  2  0
 11 13  1  0
 13 14  1  0
 14 15  1  0
 15 16  1  0
 16 17  1  0
 17 18  1  0
 18 19  1  0
  8  2  1  0
 19 15  1  0
  1 20  1  0
  1 21  1  0
  1 22  1  0
  3 23  1  0
  4 24  1  0
  5 25  1  0
  7 26  1  0
  7 27  1  0
  7 28  1  0
 10 29  1  0
 10 30  1  0
 13 31  1  0
 14 32  1  0
 14 33  1  0
 15 34  1  0
 16 35  1  0
 16 36  1  0
 17 37  1  0
 17 38  1  0
 18 39  1  0
 18 40  1  0
M  END
$$$$
