
     RDKit          3D

 66 66  0  0  0  0  0  0  0  0999 V2000
    4.3519    0.5177   -2.3470 N   0  0  0  0  0  0  0  0  0  0  0  0
    4.6835   -0.6340   -2.8113 C   0  0  0  0  0  0  0  0  0  0  0  0
    5.7940   -0.8316   -3.5474 N   0  0  0  0  0  0  0  0  0  0  0  0
    4.0120   -1.7902   -2.6030 N   0  0  0  0  0  0  0  0  0  0  0  0
    2.6158   -1.8264   -2.1940 C   0  0  0  0  0  0  0  0  0  0  0  0
    2.3974   -2.8925   -1.1163 C   0  0  0  0  0  0  0  0  0  0  0  0
    3.1863   -2.7149    0.1951 C   0  0  0  0  0  0  0  0  0  0  0  0
    2.7339   -1.5952    1.1480 C   0  0  2  0  0  0  0  0  0  0  0  0
    1.3440   -1.7814    1.5634 N   0  0  0  0  0  0  0  0  0  0  0  0
    0.9343   -1.4320    2.8355 C   0  0  0  0  0  0  0  0  0  0  0  0
    1.6997   -1.1967    3.7645 O   0  0  0  0  0  0  0  0  0  0  0  0
   -0.5884   -1.4210    2.9927 C   0  0  0  0  0  0  0  0  0  0  0  0
   -1.2739   -1.0433    1.7997 O   0  0  0  0  0  0  0  0  0  0  0  0
   -1.3535    0.3864    1.6490 C   0  0  0  0  0  0  0  0  0  0  0  0
   -2.1791    0.7355    0.3872 C   0  0  0  0  0  0  0  0  0  0  0  0
   -1.9809    2.1541   -0.1474 C   0  0  0  0  0  0  0  0  0  0  0  0
   -2.3278    2.4270   -1.4834 C   0  0  0  0  0  0  0  0  0  0  0  0
   -2.1771    3.7074   -2.0184 C   0  0  0  0  0  0  0  0  0  0  0  0
   -1.6795    4.7381   -1.2265 C   0  0  0  0  0  0  0  0  0  0  0  0
   -1.3374    4.4892    0.1002 C   0  0  0  0  0  0  0  0  0  0  0  0
   -1.4899    3.2085    0.6386 C   0  0  0  0  0  0  0  0  0  0  0  0
   -3.6557    0.4012    0.6164 C   0  0  0  0  0  0  0  0  0  0  0  0
   -4.1861   -0.7985    0.1147 C   0  0  0  0  0  0  0  0  0  0  0  0
   -5.5254   -1.1309    0.3277 C   0  0  0  0  0  0  0  0  0  0  0  0
   -6.3516   -0.2717    1.0484 C   0  0  0  0  0  0  0  0  0  0  0  0
   -5.8394    0.9191    1.5584 C   0  0  0  0  0  0  0  0  0  0  0  0
   -4.5001    1.2530    1.3473 C   0  0  0  0  0  0  0  0  0  0  0  0
    2.8979   -0.2107    0.5257 C   0  0  0  0  0  0  0  0  0  0  0  0
    1.9843    0.5445    0.2231 O   0  0  0  0  0  0  0  0  0  0  0  0
    4.1822    0.0583    0.2214 O   0  0  0  0  0  0  0  0  0  0  0  0
    1.0131   -1.1132    0.9300 O   0  0  0  0  0  0  0  0  0  0  0  0
    0.5448   -0.2238    0.2297 C   0  0  0  0  0  0  0  0  0  0  0  0
    1.3984    0.6331   -0.3897 O   0  0  0  0  0  0  0  0  0  0  0  0
   -0.9342    0.0285   -0.0819 C   0  0  0  0  0  0  0  0  0  0  0  0
   -1.2529    1.3543   -0.0852 F   0  0  0  0  0  0  0  0  0  0  0  0
   -1.7715   -0.5609    0.8171 F   0  0  0  0  0  0  0  0  0  0  0  0
   -1.2885   -0.4530   -1.3073 F   0  0  0  0  0  0  0  0  0  0  0  0
    5.0094    1.2167   -2.7068 H   0  0  0  0  0  0  0  0  0  0  0  0
    6.2691   -1.6984   -3.3223 H   0  0  0  0  0  0  0  0  0  0  0  0
    6.4546   -0.0647   -3.5370 H   0  0  0  0  0  0  0  0  0  0  0  0
    4.2202   -2.5013   -3.2947 H   0  0  0  0  0  0  0  0  0  0  0  0
    2.0122   -2.0884   -3.0714 H   0  0  0  0  0  0  0  0  0  0  0  0
    2.2484   -0.8533   -1.8664 H   0  0  0  0  0  0  0  0  0  0  0  0
    2.6850   -3.8641   -1.5399 H   0  0  0  0  0  0  0  0  0  0  0  0
    1.3257   -2.9643   -0.8994 H   0  0  0  0  0  0  0  0  0  0  0  0
    3.1073   -3.6625    0.7454 H   0  0  0  0  0  0  0  0  0  0  0  0
    4.2513   -2.5926   -0.0364 H   0  0  0  0  0  0  0  0  0  0  0  0
    3.3661   -1.6165    2.0440 H   0  0  0  0  0  0  0  0  0  0  0  0
    0.6274   -1.6255    0.8588 H   0  0  0  0  0  0  0  0  0  0  0  0
   -0.8686   -0.7711    3.8290 H   0  0  0  0  0  0  0  0  0  0  0  0
   -0.8935   -2.4436    3.2389 H   0  0  0  0  0  0  0  0  0  0  0  0
   -0.3327    0.7713    1.5529 H   0  0  0  0  0  0  0  0  0  0  0  0
   -1.8060    0.8243    2.5475 H   0  0  0  0  0  0  0  0  0  0  0  0
   -1.8101    0.0686   -0.4072 H   0  0  0  0  0  0  0  0  0  0  0  0
   -2.7261    1.6357   -2.1161 H   0  0  0  0  0  0  0  0  0  0  0  0
   -2.4493    3.8983   -3.0529 H   0  0  0  0  0  0  0  0  0  0  0  0
   -1.5590    5.7344   -1.6425 H   0  0  0  0  0  0  0  0  0  0  0  0
   -0.9483    5.2937    0.7192 H   0  0  0  0  0  0  0  0  0  0  0  0
   -1.2184    3.0573    1.6798 H   0  0  0  0  0  0  0  0  0  0  0  0
   -3.5527   -1.4881   -0.4387 H   0  0  0  0  0  0  0  0  0  0  0  0
   -5.9216   -2.0631   -0.0655 H   0  0  0  0  0  0  0  0  0  0  0  0
   -7.3936   -0.5305    1.2145 H   0  0  0  0  0  0  0  0  0  0  0  0
   -6.4827    1.5901    2.1217 H   0  0  0  0  0  0  0  0  0  0  0  0
   -4.1229    2.1886    1.7540 H   0  0  0  0  0  0  0  0  0  0  0  0
    4.1374    0.5801   -0.6259 H   0  0  0  0  0  0  0  0  0  0  0  0
    2.2909    0.3350   -0.1125 H   0  0  0  0  0  0  0  0  0  0  0  0
  1  2  2  3
  2  3  1  0
  2  4  1  0
  4  5  1  0
  5  6  1  0
  6  7  1  0
  7  8  1  0
  8  9  1  0
  9 10  1  0
 10 11  2  0
 10 12  1  0
 12 13  1  0
 13 14  1  0
 14 15  1  0
 15 16  1  0
 16 17  2  0
 17 18  1  0
 18 19  2  0
 19 20  1  0
 20 21  2  0
 15 22  1  0
 22 23  2  0
 23 24  1  0
 24 25  2  0
 25 26  1  0
 26 27  2  0
  8 28  1  0
 28 29  2  0
 28 30  1  0
 31 32  2  0
 32 33  1  0
 32 34  1  0
 34 35  1  0
 34 36  1  0
 34 37  1  0
 21 16  1  0
 27 22  1  0
  1 38  1  0
  3 39  1  0
  3 40  1  0
  4 41  1  0
  5 42  1  0
  5 43  1  0
  6 44  1  0
  6 45  1  0
  7 46  1  0
  7 47  1  0
  8 48  1  1
  9 49  1  0
 12 50  1  0
 12 51  1  0
 14 52  1  0
 14 53  1  0
 15 54  1  0
 17 55  1  0
 18 56  1  0
 19 57  1  0
 20 58  1  0
 21 59  1  0
 23 60  1  0
 24 61  1  0
 25 62  1  0
 26 63  1  0
 27 64  1  0
 30 65  1  0
 33 66  1  0
M  END
$$$$
