
     RDKit          3D

 60 60  0  0  0  0  0  0  0  0999 V2000
   -4.7095    2.1837   -1.0295 C   0  0  0  0  0  0  0  0  0  0  0  0
   -3.6765    3.1501   -1.5801 C   0  0  0  0  0  0  0  0  0  0  0  0
   -2.2248    2.8239   -1.2171 C   0  0  0  0  0  0  0  0  0  0  0  0
   -1.8853    2.9234    0.2740 C   0  0  0  0  0  0  0  0  0  0  0  0
   -2.0768    1.6412    1.0989 C   0  0  0  0  0  0  0  0  0  0  0  0
   -1.1969    0.5321    0.7100 N   0  0  0  0  0  0  0  0  0  0  0  0
   -1.8204   -0.5879   -0.0147 C   0  0  0  0  0  0  0  0  0  0  0  0
   -2.6800   -1.4728    0.8935 C   0  0  0  0  0  0  0  0  0  0  0  0
   -3.2465   -2.6661    0.1329 C   0  0  0  0  0  0  0  0  0  0  0  0
   -4.1180   -2.1905   -0.8918 O   0  0  0  0  0  0  0  0  0  0  0  0
   -4.6588   -3.2607   -1.6561 C   0  0  0  0  0  0  0  0  0  0  0  0
    0.1519    0.6330    1.0370 C   0  0  0  0  0  0  0  0  0  0  0  0
    0.5910    1.5971    1.6819 O   0  0  0  0  0  0  0  0  0  0  0  0
    1.1399   -0.4849    0.6204 C   0  0  0  0  0  0  0  0  0  0  0  0
    1.1184   -1.6218    1.6509 C   0  0  0  0  0  0  0  0  0  0  0  0
    1.9869   -2.8246    1.2766 C   0  0  0  0  0  0  0  0  0  0  0  0
    1.4642   -3.5478    0.0665 C   0  0  0  0  0  0  0  0  0  0  0  0
    0.3491   -3.4453   -0.4188 O   0  0  0  0  0  0  0  0  0  0  0  0
    2.3648   -4.4109   -0.4384 O   0  0  0  0  0  0  0  0  0  0  0  0
    2.4655    0.1463    0.5853 N   0  0  0  0  0  0  0  0  0  0  0  0
    3.3725   -0.1129   -0.4140 C   0  0  0  0  0  0  0  0  0  0  0  0
    3.2001   -0.9743   -1.2688 O   0  0  0  0  0  0  0  0  0  0  0  0
    4.6032    0.7250   -0.4364 C   0  0  0  0  0  0  0  0  0  0  0  0
    5.2866    0.8654   -1.6514 C   0  0  0  0  0  0  0  0  0  0  0  0
    6.4504    1.6351   -1.7219 C   0  0  0  0  0  0  0  0  0  0  0  0
    6.9452    2.2631   -0.5763 C   0  0  0  0  0  0  0  0  0  0  0  0
    8.3881    3.1994   -0.7320 Cl  0  0  0  0  0  0  0  0  0  0  0  0
    6.2735    2.1133    0.6433 C   0  0  0  0  0  0  0  0  0  0  0  0
    6.8375    2.8467    2.1036 Cl  0  0  0  0  0  0  0  0  0  0  0  0
    5.1062    1.3434    0.7148 C   0  0  0  0  0  0  0  0  0  0  0  0
   -4.4522    1.1472   -1.2654 H   0  0  0  0  0  0  0  0  0  0  0  0
   -4.8133    2.2876    0.0537 H   0  0  0  0  0  0  0  0  0  0  0  0
   -5.6899    2.3951   -1.4691 H   0  0  0  0  0  0  0  0  0  0  0  0
   -3.9207    4.1661   -1.2476 H   0  0  0  0  0  0  0  0  0  0  0  0
   -3.7588    3.1543   -2.6740 H   0  0  0  0  0  0  0  0  0  0  0  0
   -1.9378    1.8525   -1.6296 H   0  0  0  0  0  0  0  0  0  0  0  0
   -1.6015    3.5608   -1.7416 H   0  0  0  0  0  0  0  0  0  0  0  0
   -0.8379    3.2382    0.3536 H   0  0  0  0  0  0  0  0  0  0  0  0
   -2.4754    3.7277    0.7300 H   0  0  0  0  0  0  0  0  0  0  0  0
   -1.8612    1.8761    2.1489 H   0  0  0  0  0  0  0  0  0  0  0  0
   -3.1162    1.3092    1.0694 H   0  0  0  0  0  0  0  0  0  0  0  0
   -1.0603   -1.1997   -0.4985 H   0  0  0  0  0  0  0  0  0  0  0  0
   -2.4306   -0.1658   -0.8188 H   0  0  0  0  0  0  0  0  0  0  0  0
   -3.5100   -0.8837    1.3002 H   0  0  0  0  0  0  0  0  0  0  0  0
   -2.0955   -1.8286    1.7472 H   0  0  0  0  0  0  0  0  0  0  0  0
   -3.8135   -3.3021    0.8222 H   0  0  0  0  0  0  0  0  0  0  0  0
   -2.4387   -3.2592   -0.3096 H   0  0  0  0  0  0  0  0  0  0  0  0
   -5.3196   -2.8394   -2.4183 H   0  0  0  0  0  0  0  0  0  0  0  0
   -3.8592   -3.8167   -2.1550 H   0  0  0  0  0  0  0  0  0  0  0  0
   -5.2430   -3.9304   -1.0177 H   0  0  0  0  0  0  0  0  0  0  0  0
    0.9076   -0.8245   -0.3901 H   0  0  0  0  0  0  0  0  0  0  0  0
    1.4628   -1.2378    2.6205 H   0  0  0  0  0  0  0  0  0  0  0  0
    0.0921   -1.9629    1.8119 H   0  0  0  0  0  0  0  0  0  0  0  0
    3.0206   -2.5144    1.0972 H   0  0  0  0  0  0  0  0  0  0  0  0
    1.9875   -3.5382    2.1083 H   0  0  0  0  0  0  0  0  0  0  0  0
    1.9392   -4.7680   -1.2447 H   0  0  0  0  0  0  0  0  0  0  0  0
    2.5314    1.0056    1.1250 H   0  0  0  0  0  0  0  0  0  0  0  0
    4.9117    0.3758   -2.5494 H   0  0  0  0  0  0  0  0  0  0  0  0
    6.9663    1.7377   -2.6741 H   0  0  0  0  0  0  0  0  0  0  0  0
    4.6151    1.2156    1.6755 H   0  0  0  0  0  0  0  0  0  0  0  0
  1  2  1  0
  2  3  1  0
  3  4  1  0
  4  5  1  0
  5  6  1  0
  6  7  1  0
  7  8  1  0
  8  9  1  0
  9 10  1  0
 10 11  1  0
  6 12  1  0
 12 13  2  0
 12 14  1  0
 14 15  1  0
 15 16  1  0
 16 17  1  0
 17 18  2  0
 17 19  1  0
 14 20  1  0
 20 21  1  0
 21 22  2  0
 21 23  1  0
 23 24  2  0
 24 25  1  0
 25 26  2  0
 26 27  1  0
 26 28  1  0
 28 29  1  0
 28 30  2  0
 30 23  1  0
  1 31  1  0
  1 32  1  0
  1 33  1  0
  2 34  1  0
  2 35  1  0
  3 36  1  0
  3 37  1  0
  4 38  1  0
  4 39  1  0
  5 40  1  0
  5 41  1  0
  7 42  1  0
  7 43  1  0
  8 44  1  0
  8 45  1  0
  9 46  1  0
  9 47  1  0
 11 48  1  0
 11 49  1  0
 11 50  1  0
 14 51  1  0
 15 52  1  0
 15 53  1  0
 16 54  1  0
 16 55  1  0
 19 56  1  0
 20 57  1  0
 24 58  1  0
 25 59  1  0
 30 60  1  0
M  END
$$$$
