
     RDKit          3D

 42 42  0  0  0  0  0  0  0  0999 V2000
   -4.1219   -3.3520    0.2127 C   0  0  0  0  0  0  0  0  0  0  0  0
   -3.7816   -2.0703   -0.3611 N   0  0  0  0  0  0  0  0  0  0  0  0
   -2.5956   -1.5613    0.3233 C   0  0  0  0  0  0  0  0  0  0  0  0
   -2.2217   -0.1928   -0.1762 C   0  0  0  0  0  0  0  0  0  0  0  0
   -0.9681    0.3634    0.4435 C   0  0  0  0  0  0  0  0  0  0  0  0
    0.1477   -0.2804    0.3097 O   0  0  0  0  0  0  0  0  0  0  0  0
    1.4264   -0.5291    0.2359 C   0  0  0  0  0  0  0  0  0  0  0  0
    2.4404    0.4145    0.1664 C   0  0  0  0  0  0  0  0  0  0  0  0
    3.7653    0.0709    0.1048 C   0  0  0  0  0  0  0  0  0  0  0  0
    4.1920   -1.2369    0.1088 C   0  0  0  0  0  0  0  0  0  0  0  0
    5.6286   -1.5896    0.0371 C   0  0  0  0  0  0  0  0  0  0  0  0
    5.8572   -2.4344   -1.0458 F   0  0  0  0  0  0  0  0  0  0  0  0
    5.9630   -2.2568    1.1629 F   0  0  0  0  0  0  0  0  0  0  0  0
    6.4484   -0.5121   -0.1722 F   0  0  0  0  0  0  0  0  0  0  0  0
    3.2053   -2.2293    0.1777 C   0  0  0  0  0  0  0  0  0  0  0  0
    1.8887   -1.8800    0.2372 C   0  0  0  0  0  0  0  0  0  0  0  0
   -0.9667    1.8692    0.1502 C   0  0  0  0  0  0  0  0  0  0  0  0
   -1.6020    2.7573    1.0163 C   0  0  0  0  0  0  0  0  0  0  0  0
   -1.5942    4.0979    0.8020 C   0  0  0  0  0  0  0  0  0  0  0  0
   -0.9437    4.6298   -0.3020 C   0  0  0  0  0  0  0  0  0  0  0  0
   -0.3258    3.7590   -1.1475 C   0  0  0  0  0  0  0  0  0  0  0  0
   -0.3229    2.3972   -0.9426 C   0  0  0  0  0  0  0  0  0  0  0  0
    0.6874    0.0000    0.0000 Cl  0  0  0  0  0  0  0  0  0  0  0  0
   -3.2437   -4.0440    0.0424 H   0  0  0  0  0  0  0  0  0  0  0  0
   -4.2299   -3.2560    1.3061 H   0  0  0  0  0  0  0  0  0  0  0  0
   -5.0353   -3.7852   -0.2421 H   0  0  0  0  0  0  0  0  0  0  0  0
   -4.5813   -1.3979   -0.1198 H   0  0  0  0  0  0  0  0  0  0  0  0
   -2.9428   -1.3963    1.3880 H   0  0  0  0  0  0  0  0  0  0  0  0
   -1.8003   -2.2884    0.2631 H   0  0  0  0  0  0  0  0  0  0  0  0
   -3.0719    0.5315   -0.0408 H   0  0  0  0  0  0  0  0  0  0  0  0
   -2.0449   -0.2368   -1.2772 H   0  0  0  0  0  0  0  0  0  0  0  0
   -1.1795    0.4145    1.5913 H   0  0  0  0  0  0  0  0  0  0  0  0
    2.1572    1.4527    0.1560 H   0  0  0  0  0  0  0  0  0  0  0  0
    4.5849    0.8246    0.0637 H   0  0  0  0  0  0  0  0  0  0  0  0
    3.5668   -3.2664    0.1898 H   0  0  0  0  0  0  0  0  0  0  0  0
    1.1237   -2.6388    0.2757 H   0  0  0  0  0  0  0  0  0  0  0  0
   -2.1353    2.3507    1.9131 H   0  0  0  0  0  0  0  0  0  0  0  0
   -2.1163    4.8067    1.4706 H   0  0  0  0  0  0  0  0  0  0  0  0
   -0.9667    5.7196   -0.4124 H   0  0  0  0  0  0  0  0  0  0  0  0
    0.1978    4.1992   -2.0103 H   0  0  0  0  0  0  0  0  0  0  0  0
    0.1986    1.7761   -1.6534 H   0  0  0  0  0  0  0  0  0  0  0  0
   -0.6874    0.0000    0.0000 H   0  0  0  0  0  0  0  0  0  0  0  0
  1  2  1  0
  2  3  1  0
  3  4  1  0
  4  5  1  0
  5  6  1  0
  6  7  1  0
  7  8  2  0
  8  9  1  0
  9 10  2  0
 10 11  1  0
 11 12  1  0
 11 13  1  0
 11 14  1  0
 10 15  1  0
 15 16  2  0
  5 17  1  0
 17 18  2  0
 18 19  1  0
 19 20  2  0
 20 21  1  0
 21 22  2  0
 16  7  1  0
 22 17  1  0
  1 24  1  0
  1 25  1  0
  1 26  1  0
  2 27  1  0
  3 28  1  0
  3 29  1  0
  4 30  1  0
  4 31  1  0
  5 32  1  0
  8 33  1  0
  9 34  1  0
 15 35  1  0
 16 36  1  0
 18 37  1  0
 19 38  1  0
 20 39  1  0
 21 40  1  0
 22 41  1  0
 23 42  1  0
M  END
$$$$
