
     RDKit          3D

 47 49  0  0  0  0  0  0  0  0999 V2000
    6.9684    0.5435   -0.1847 C   0  0  0  0  0  0  0  0  0  0  0  0
    6.0362    1.6626    0.2529 C   0  0  0  0  0  0  0  0  0  0  0  0
    4.5813    1.2172    0.4060 C   0  0  0  0  0  0  0  0  0  0  0  0
    3.9357    0.7990   -0.9137 C   0  0  0  0  0  0  0  0  0  0  0  0
    2.5275    0.5106   -0.7432 N   0  0  0  0  0  0  0  0  0  0  0  0
    2.0675   -0.7047   -0.3058 C   0  0  0  0  0  0  0  0  0  0  0  0
    2.8164   -1.6524   -0.0815 O   0  0  0  0  0  0  0  0  0  0  0  0
    0.5868   -0.8124   -0.1106 C   0  0  0  0  0  0  0  0  0  0  0  0
    0.0987   -2.0160    0.2236 C   0  0  0  0  0  0  0  0  0  0  0  0
   -1.3080   -2.2383    0.4586 C   0  0  0  0  0  0  0  0  0  0  0  0
   -2.1927   -1.2299    0.3110 C   0  0  0  0  0  0  0  0  0  0  0  0
   -1.7440    0.0516   -0.0886 N   0  0  0  0  0  0  0  0  0  0  0  0
   -2.6502    1.1364   -0.3669 C   0  0  0  0  0  0  0  0  0  0  0  0
   -2.4609    2.3953    0.2261 C   0  0  0  0  0  0  0  0  0  0  0  0
   -3.3404    3.4474   -0.0413 C   0  0  0  0  0  0  0  0  0  0  0  0
   -4.4047    3.2466   -0.9101 C   0  0  0  0  0  0  0  0  0  0  0  0
   -5.2474    4.2549   -1.1676 F   0  0  0  0  0  0  0  0  0  0  0  0
   -4.6032    2.0156   -1.5220 C   0  0  0  0  0  0  0  0  0  0  0  0
   -3.7250    0.9623   -1.2541 C   0  0  0  0  0  0  0  0  0  0  0  0
   -0.3647    0.3265   -0.2811 C   0  0  0  0  0  0  0  0  0  0  0  0
    0.0843    1.4276   -0.6116 O   0  0  0  0  0  0  0  0  0  0  0  0
   -3.6550   -1.4165    0.6832 C   0  0  0  0  0  0  0  0  0  0  0  0
   -3.8790   -2.5679    1.6581 C   0  0  0  0  0  0  0  0  0  0  0  0
   -3.2339   -3.8346    1.1371 C   0  0  0  0  0  0  0  0  0  0  0  0
   -1.7657   -3.6101    0.8726 C   0  0  0  0  0  0  0  0  0  0  0  0
   -0.9682   -4.5444    0.9422 O   0  0  0  0  0  0  0  0  0  0  0  0
    6.9027   -0.3115    0.4956 H   0  0  0  0  0  0  0  0  0  0  0  0
    8.0046    0.8969   -0.1855 H   0  0  0  0  0  0  0  0  0  0  0  0
    6.7354    0.1998   -1.1967 H   0  0  0  0  0  0  0  0  0  0  0  0
    6.0998    2.4912   -0.4619 H   0  0  0  0  0  0  0  0  0  0  0  0
    6.3848    2.0491    1.2180 H   0  0  0  0  0  0  0  0  0  0  0  0
    4.0079    2.0482    0.8369 H   0  0  0  0  0  0  0  0  0  0  0  0
    4.5202    0.3957    1.1306 H   0  0  0  0  0  0  0  0  0  0  0  0
    4.0098    1.6053   -1.6507 H   0  0  0  0  0  0  0  0  0  0  0  0
    4.4262   -0.0890   -1.3251 H   0  0  0  0  0  0  0  0  0  0  0  0
    1.8579    1.2730   -0.8536 H   0  0  0  0  0  0  0  0  0  0  0  0
    0.7634   -2.8706    0.3473 H   0  0  0  0  0  0  0  0  0  0  0  0
   -1.6340    2.5666    0.9118 H   0  0  0  0  0  0  0  0  0  0  0  0
   -3.1970    4.4195    0.4197 H   0  0  0  0  0  0  0  0  0  0  0  0
   -5.4304    1.8875   -2.2131 H   0  0  0  0  0  0  0  0  0  0  0  0
   -3.8664    0.0213   -1.7784 H   0  0  0  0  0  0  0  0  0  0  0  0
   -4.0537   -0.5162    1.1646 H   0  0  0  0  0  0  0  0  0  0  0  0
   -4.2400   -1.6047   -0.2243 H   0  0  0  0  0  0  0  0  0  0  0  0
   -3.4537   -2.3083    2.6363 H   0  0  0  0  0  0  0  0  0  0  0  0
   -4.9530   -2.7269    1.8066 H   0  0  0  0  0  0  0  0  0  0  0  0
   -3.3380   -4.6285    1.8844 H   0  0  0  0  0  0  0  0  0  0  0  0
   -3.7062   -4.1683    0.2069 H   0  0  0  0  0  0  0  0  0  0  0  0
  1  2  1  0
  2  3  1  0
  3  4  1  0
  4  5  1  0
  5  6  1  0
  6  7  2  0
  6  8  1  0
  8  9  2  0
  9 10  1  0
 10 11  2  0
 11 12  1  0
 12 13  1  0
 13 14  2  0
 14 15  1  0
 15 16  2  0
 16 17  1  0
 16 18  1  0
 18 19  2  0
 12 20  1  0
 20 21  2  0
 11 22  1  0
 22 23  1  0
 23 24  1  0
 24 25  1  0
 25 26  2  0
 20  8  1  0
 25 10  1  0
 19 13  1  0
  1 27  1  0
  1 28  1  0
  1 29  1  0
  2 30  1  0
  2 31  1  0
  3 32  1  0
  3 33  1  0
  4 34  1  0
  4 35  1  0
  5 36  1  0
  9 37  1  0
 14 38  1  0
 15 39  1  0
 18 40  1  0
 19 41  1  0
 22 42  1  0
 22 43  1  0
 23 44  1  0
 23 45  1  0
 24 46  1  0
 24 47  1  0
M  END
$$$$
