
     RDKit          3D

 40 43  0  0  0  0  0  0  0  0999 V2000
   -0.7285    0.5460   -1.0156 O   0  0  0  0  0  0  0  0  0  0  0  0
   -0.5475   -0.4000   -0.2574 C   0  0  0  0  0  0  0  0  0  0  0  0
   -1.5142   -1.1772    0.3350 N   0  0  0  0  0  0  0  0  0  0  0  0
   -2.8599   -0.9862    0.2128 C   0  0  0  0  0  0  0  0  0  0  0  0
   -3.7172   -1.8131    0.8191 N   0  0  0  0  0  0  0  0  0  0  0  0
   -4.8985   -1.2831    0.4583 N   0  0  0  0  0  0  0  0  0  0  0  0
   -4.7260   -0.1858   -0.3289 C   0  0  0  0  0  0  0  0  0  0  0  0
   -5.8286    0.7081   -0.9498 C   0  0  0  0  0  0  0  0  0  0  0  0
   -7.0958    0.9864   -0.1858 C   0  0  0  0  0  0  0  0  0  0  0  0
   -7.1313    0.1025   -1.4004 C   0  0  0  0  0  0  0  0  0  0  0  0
   -3.4414    0.0200   -0.4956 N   0  0  0  0  0  0  0  0  0  0  0  0
    0.8537   -0.8711    0.0831 C   0  0  0  0  0  0  0  0  0  0  0  0
    1.1512   -0.8444    1.5729 C   0  0  0  0  0  0  0  0  0  0  0  0
    2.6385   -0.5989    1.6357 C   0  0  0  0  0  0  0  0  0  0  0  0
    3.2892   -0.7936    2.6508 O   0  0  0  0  0  0  0  0  0  0  0  0
    3.0514   -0.1066    0.3917 N   0  0  0  0  0  0  0  0  0  0  0  0
    4.3590    0.3364    0.0486 C   0  0  0  0  0  0  0  0  0  0  0  0
    5.4580    0.1203    0.8915 C   0  0  0  0  0  0  0  0  0  0  0  0
    6.7426    0.5565    0.5411 C   0  0  0  0  0  0  0  0  0  0  0  0
    6.9450    1.2181   -0.6637 C   0  0  0  0  0  0  0  0  0  0  0  0
    8.6755    1.8075   -1.1388 Br  0  0  0  0  0  0  0  0  0  0  0  0
    5.8744    1.4466   -1.5194 C   0  0  0  0  0  0  0  0  0  0  0  0
    4.5926    1.0076   -1.1640 C   0  0  0  0  0  0  0  0  0  0  0  0
    1.9200    0.0444   -0.4963 C   0  0  0  0  0  0  0  0  0  0  0  0
   -1.2830   -1.9763    0.9040 H   0  0  0  0  0  0  0  0  0  0  0  0
   -5.7615   -1.7073    0.7762 H   0  0  0  0  0  0  0  0  0  0  0  0
   -5.4324    1.5208   -1.5527 H   0  0  0  0  0  0  0  0  0  0  0  0
   -7.5205    1.9815   -0.2687 H   0  0  0  0  0  0  0  0  0  0  0  0
   -7.2415    0.5327    0.7867 H   0  0  0  0  0  0  0  0  0  0  0  0
   -7.5803    0.4998   -2.3049 H   0  0  0  0  0  0  0  0  0  0  0  0
   -7.3024   -0.9578   -1.2616 H   0  0  0  0  0  0  0  0  0  0  0  0
    0.9899   -1.8876   -0.3095 H   0  0  0  0  0  0  0  0  0  0  0  0
    0.9079   -1.8007    2.0452 H   0  0  0  0  0  0  0  0  0  0  0  0
    0.6324   -0.0337    2.0952 H   0  0  0  0  0  0  0  0  0  0  0  0
    5.3556   -0.4008    1.8386 H   0  0  0  0  0  0  0  0  0  0  0  0
    7.5705    0.3698    1.2203 H   0  0  0  0  0  0  0  0  0  0  0  0
    6.0193    1.9670   -2.4626 H   0  0  0  0  0  0  0  0  0  0  0  0
    3.7861    1.2230   -1.8589 H   0  0  0  0  0  0  0  0  0  0  0  0
    2.1702   -0.2717   -1.5146 H   0  0  0  0  0  0  0  0  0  0  0  0
    1.6274    1.1009   -0.4981 H   0  0  0  0  0  0  0  0  0  0  0  0
  1  2  2  0
  2  3  1  0
  3  4  1  0
  4  5  2  0
  5  6  1  0
  6  7  1  0
  7  8  1  0
  8  9  1  0
  9 10  1  0
  7 11  2  0
  2 12  1  0
 12 13  1  0
 13 14  1  0
 14 15  2  0
 14 16  1  0
 16 17  1  0
 17 18  2  0
 18 19  1  0
 19 20  2  0
 20 21  1  0
 20 22  1  0
 22 23  2  0
 16 24  1  0
 11  4  1  0
 24 12  1  0
 10  8  1  0
 23 17  1  0
  3 25  1  0
  6 26  1  0
  8 27  1  0
  9 28  1  0
  9 29  1  0
 10 30  1  0
 10 31  1  0
 12 32  1  0
 13 33  1  0
 13 34  1  0
 18 35  1  0
 19 36  1  0
 22 37  1  0
 23 38  1  0
 24 39  1  0
 24 40  1  0
M  END
$$$$
