
     RDKit          3D

 49 52  0  0  0  0  0  0  0  0999 V2000
   -6.2985    0.5649    2.6608 C   0  0  0  0  0  0  0  0  0  0  0  0
   -5.6915   -0.2005    1.6278 O   0  0  0  0  0  0  0  0  0  0  0  0
   -4.3797   -0.5451    1.7989 C   0  0  0  0  0  0  0  0  0  0  0  0
   -3.5657   -0.1681    2.8640 C   0  0  0  0  0  0  0  0  0  0  0  0
   -2.2347   -0.5972    2.9191 C   0  0  0  0  0  0  0  0  0  0  0  0
   -1.6984   -1.3914    1.8986 C   0  0  0  0  0  0  0  0  0  0  0  0
   -0.4196   -1.8888    1.9517 O   0  0  0  0  0  0  0  0  0  0  0  0
    0.5508   -0.9948    2.4897 C   0  0  0  0  0  0  0  0  0  0  0  0
   -2.5102   -1.7753    0.8173 C   0  0  0  0  0  0  0  0  0  0  0  0
   -2.0243   -2.6098   -0.2819 C   0  0  0  0  0  0  0  0  0  0  0  0
   -2.6374   -3.6778   -0.7725 N   0  0  0  0  0  0  0  0  0  0  0  0
   -1.8856   -4.1764   -1.8114 N   0  0  0  0  0  0  0  0  0  0  0  0
   -0.8455   -3.3930   -1.9380 C   0  0  0  0  0  0  0  0  0  0  0  0
   -0.8708   -2.3758   -1.0168 N   0  0  0  0  0  0  0  0  0  0  0  0
   -0.0276   -1.2991   -0.9020 N   0  0  0  0  0  0  0  0  0  0  0  0
    1.1297   -1.3750   -1.4967 C   0  0  0  0  0  0  0  0  0  0  0  0
    2.0360   -0.1862   -1.3697 C   0  0  0  0  0  0  0  0  0  0  0  0
    3.4264   -0.3157   -1.3972 C   0  0  0  0  0  0  0  0  0  0  0  0
    4.2391    0.8136   -1.2535 C   0  0  0  0  0  0  0  0  0  0  0  0
    3.6718    2.0794   -1.0727 C   0  0  0  0  0  0  0  0  0  0  0  0
    4.3925    3.2369   -0.9189 O   0  0  0  0  0  0  0  0  0  0  0  0
    5.8071    3.1555   -1.0161 C   0  0  0  0  0  0  0  0  0  0  0  0
    2.2695    2.2126   -1.0293 C   0  0  0  0  0  0  0  0  0  0  0  0
    1.7902    3.4849   -0.8376 O   0  0  0  0  0  0  0  0  0  0  0  0
    0.3813    3.6591   -0.7740 C   0  0  0  0  0  0  0  0  0  0  0  0
    1.4625    1.0793   -1.1777 C   0  0  0  0  0  0  0  0  0  0  0  0
    1.6736   -2.5946   -2.2302 C   0  0  0  0  0  0  0  0  0  0  0  0
    0.3897   -3.4821   -3.1316 S   0  0  0  0  0  0  0  0  0  0  0  0
   -3.8495   -1.3508    0.7882 C   0  0  0  0  0  0  0  0  0  0  0  0
   -6.2884    0.0233    3.6125 H   0  0  0  0  0  0  0  0  0  0  0  0
   -5.8197    1.5448    2.7580 H   0  0  0  0  0  0  0  0  0  0  0  0
   -7.3439    0.7314    2.3835 H   0  0  0  0  0  0  0  0  0  0  0  0
   -3.9371    0.4461    3.6777 H   0  0  0  0  0  0  0  0  0  0  0  0
   -1.6422   -0.3210    3.7858 H   0  0  0  0  0  0  0  0  0  0  0  0
    1.5381   -1.3480    2.1768 H   0  0  0  0  0  0  0  0  0  0  0  0
    0.4244    0.0244    2.1074 H   0  0  0  0  0  0  0  0  0  0  0  0
    0.5230   -1.0092    3.5835 H   0  0  0  0  0  0  0  0  0  0  0  0
    3.9093   -1.2826   -1.5071 H   0  0  0  0  0  0  0  0  0  0  0  0
    5.3149    0.6710   -1.2776 H   0  0  0  0  0  0  0  0  0  0  0  0
    6.2224    2.5417   -0.2101 H   0  0  0  0  0  0  0  0  0  0  0  0
    6.1159    2.7823   -1.9981 H   0  0  0  0  0  0  0  0  0  0  0  0
    6.2090    4.1671   -0.9037 H   0  0  0  0  0  0  0  0  0  0  0  0
   -0.0472    3.1092    0.0704 H   0  0  0  0  0  0  0  0  0  0  0  0
   -0.0948    3.3727   -1.7175 H   0  0  0  0  0  0  0  0  0  0  0  0
    0.1832    4.7230   -0.6119 H   0  0  0  0  0  0  0  0  0  0  0  0
    0.3800    1.1586   -1.1477 H   0  0  0  0  0  0  0  0  0  0  0  0
    2.1270   -3.2646   -1.4919 H   0  0  0  0  0  0  0  0  0  0  0  0
    2.4378   -2.3062   -2.9564 H   0  0  0  0  0  0  0  0  0  0  0  0
   -4.4929   -1.6530   -0.0374 H   0  0  0  0  0  0  0  0  0  0  0  0
  1  2  1  0
  2  3  1  0
  3  4  2  0
  4  5  1  0
  5  6  2  0
  6  7  1  0
  7  8  1  0
  6  9  1  0
  9 10  1  0
 10 11  2  0
 11 12  1  0
 12 13  2  0
 13 14  1  0
 14 15  1  0
 15 16  2  0
 16 17  1  0
 17 18  2  0
 18 19  1  0
 19 20  2  0
 20 21  1  0
 21 22  1  0
 20 23  1  0
 23 24  1  0
 24 25  1  0
 23 26  2  0
 16 27  1  0
 27 28  1  0
  9 29  2  0
 29  3  1  0
 14 10  1  0
 26 17  1  0
 28 13  1  0
  1 30  1  0
  1 31  1  0
  1 32  1  0
  4 33  1  0
  5 34  1  0
  8 35  1  0
  8 36  1  0
  8 37  1  0
 18 38  1  0
 19 39  1  0
 22 40  1  0
 22 41  1  0
 22 42  1  0
 25 43  1  0
 25 44  1  0
 25 45  1  0
 26 46  1  0
 27 47  1  0
 27 48  1  0
 29 49  1  0
M  END
$$$$
