
     RDKit          3D

 49 50  0  0  0  0  0  0  0  0999 V2000
   -1.0794   -0.1944   -0.2716 C   0  0  0  0  0  0  0  0  0  0  0  0
    0.4969    0.5375    0.1031 S   0  0  0  0  0  6  0  0  0  0  0  0
    0.8439    1.4949   -0.9197 O   0  0  0  0  0  0  0  0  0  0  0  0
    0.5646    0.8427    1.5138 O   0  0  0  0  0  0  0  0  0  0  0  0
    1.4098   -0.7772   -0.1059 O   0  0  0  0  0  0  0  0  0  0  0  0
    5.5674   -1.3914   -0.4731 C   0  0  0  0  0  0  0  0  0  0  0  0
    4.1367   -0.9834   -0.2851 C   0  0  0  0  0  0  0  0  0  0  0  0
    3.7648    0.3585   -0.4076 C   0  0  0  0  0  0  0  0  0  0  0  0
    2.4366    0.7478   -0.2061 C   0  0  0  0  0  0  0  0  0  0  0  0
    1.4489   -0.1886    0.1328 C   0  0  0  0  0  0  0  0  0  0  0  0
    0.0997    0.2051    0.3342 N   0  0  0  0  0  0  0  0  0  0  0  0
   -0.4130   -0.1529    1.6813 C   0  0  0  0  0  0  0  0  0  0  0  0
   -1.7430   -0.8877    1.5572 C   0  0  0  0  0  0  0  0  0  0  0  0
   -2.7448   -0.6445    2.3685 N   0  0  0  0  0  0  0  0  0  0  0  0
   -3.8291   -1.5410    1.8677 C   0  0  0  0  0  0  0  0  0  0  0  0
   -3.3866   -2.0240    0.4823 C   0  0  0  0  0  0  0  0  0  0  0  0
   -1.9600   -1.8216    0.5652 N   0  0  0  0  0  0  0  0  0  0  0  0
   -0.6078    1.1609   -0.4387 C   0  0  0  0  0  0  0  0  0  0  0  0
   -0.3100    1.3112   -1.8088 C   0  0  0  0  0  0  0  0  0  0  0  0
   -0.9963    2.2195   -2.6223 C   0  0  0  0  0  0  0  0  0  0  0  0
   -2.0124    2.9987   -2.0844 C   0  0  0  0  0  0  0  0  0  0  0  0
   -2.3320    2.8598   -0.7427 C   0  0  0  0  0  0  0  0  0  0  0  0
   -3.3427    3.6340   -0.2494 O   0  0  0  0  0  0  0  0  0  0  0  0
   -1.6462    1.9575    0.0746 C   0  0  0  0  0  0  0  0  0  0  0  0
    1.8363   -1.5310    0.2640 C   0  0  0  0  0  0  0  0  0  0  0  0
    3.1637   -1.9246    0.0629 C   0  0  0  0  0  0  0  0  0  0  0  0
   -1.8448    0.5760   -0.1580 H   0  0  0  0  0  0  0  0  0  0  0  0
   -1.0633   -0.5572   -1.3009 H   0  0  0  0  0  0  0  0  0  0  0  0
   -1.2643   -1.0118    0.4276 H   0  0  0  0  0  0  0  0  0  0  0  0
    1.9367   -0.9105    0.7115 H   0  0  0  0  0  0  0  0  0  0  0  0
    6.0151   -0.8503   -1.3136 H   0  0  0  0  0  0  0  0  0  0  0  0
    6.1402   -1.1784    0.4349 H   0  0  0  0  0  0  0  0  0  0  0  0
    5.6483   -2.4607   -0.6946 H   0  0  0  0  0  0  0  0  0  0  0  0
    4.5058    1.1142   -0.6582 H   0  0  0  0  0  0  0  0  0  0  0  0
    2.1798    1.8007   -0.2975 H   0  0  0  0  0  0  0  0  0  0  0  0
   -0.5206    0.7357    2.3140 H   0  0  0  0  0  0  0  0  0  0  0  0
    0.2580   -0.8270    2.2287 H   0  0  0  0  0  0  0  0  0  0  0  0
   -3.9406   -2.3808    2.5628 H   0  0  0  0  0  0  0  0  0  0  0  0
   -4.7794   -1.0013    1.8152 H   0  0  0  0  0  0  0  0  0  0  0  0
   -3.8130   -1.3933   -0.3050 H   0  0  0  0  0  0  0  0  0  0  0  0
   -3.6515   -3.0681    0.2981 H   0  0  0  0  0  0  0  0  0  0  0  0
   -1.4690   -1.6112   -0.3023 H   0  0  0  0  0  0  0  0  0  0  0  0
    0.4634    0.6988   -2.2685 H   0  0  0  0  0  0  0  0  0  0  0  0
   -0.7375    2.3100   -3.6737 H   0  0  0  0  0  0  0  0  0  0  0  0
   -2.5539    3.7059   -2.7054 H   0  0  0  0  0  0  0  0  0  0  0  0
   -3.4713    3.4146    0.6888 H   0  0  0  0  0  0  0  0  0  0  0  0
   -1.9316    1.8944    1.1186 H   0  0  0  0  0  0  0  0  0  0  0  0
    1.0996   -2.2922    0.5092 H   0  0  0  0  0  0  0  0  0  0  0  0
    3.4278   -2.9734    0.1761 H   0  0  0  0  0  0  0  0  0  0  0  0
  1  2  1  0
  2  3  2  0
  2  4  2  0
  2  5  1  0
  6  7  1  0
  7  8  2  0
  8  9  1  0
  9 10  2  0
 10 11  1  0
 11 12  1  0
 12 13  1  0
 13 14  2  0
 14 15  1  0
 15 16  1  0
 16 17  1  0
 11 18  1  0
 18 19  2  0
 19 20  1  0
 20 21  2  0
 21 22  1  0
 22 23  1  0
 22 24  2  0
 10 25  1  0
 25 26  2  0
 26  7  1  0
 17 13  1  0
 24 18  1  0
  1 27  1  0
  1 28  1  0
  1 29  1  0
  5 30  1  0
  6 31  1  0
  6 32  1  0
  6 33  1  0
  8 34  1  0
  9 35  1  0
 12 36  1  0
 12 37  1  0
 15 38  1  0
 15 39  1  0
 16 40  1  0
 16 41  1  0
 17 42  1  0
 19 43  1  0
 20 44  1  0
 21 45  1  0
 23 46  1  0
 24 47  1  0
 25 48  1  0
 26 49  1  0
M  END
$$$$
