
     RDKit          3D

 70 74  0  0  0  0  0  0  0  0999 V2000
   -5.7082   -1.8800   -2.5477 C   0  0  0  0  0  0  0  0  0  0  0  0
   -5.8265   -0.7459   -1.5468 C   0  0  0  0  0  0  0  0  0  0  0  0
   -4.5951   -0.5833   -0.8425 O   0  0  0  0  0  0  0  0  0  0  0  0
   -4.4978   -1.0998    0.4239 C   0  0  0  0  0  0  0  0  0  0  0  0
   -5.2700   -2.1563    0.9115 C   0  0  0  0  0  0  0  0  0  0  0  0
   -5.1045   -2.6007    2.2269 C   0  0  0  0  0  0  0  0  0  0  0  0
   -4.1758   -1.9893    3.0671 C   0  0  0  0  0  0  0  0  0  0  0  0
   -3.3898   -0.9430    2.5890 C   0  0  0  0  0  0  0  0  0  0  0  0
   -3.5160   -0.5226    1.2576 C   0  0  0  0  0  0  0  0  0  0  0  0
   -2.7644    0.5967    0.8018 N   0  0  0  0  0  0  0  0  0  0  0  0
   -1.8024    0.5079   -0.1951 C   0  0  0  0  0  0  0  0  0  0  0  0
   -1.0178   -0.8121   -0.5407 C   0  0  0  0  0  0  0  0  0  0  0  0
   -1.6545   -2.1916   -0.4399 C   0  0  0  0  0  0  0  0  0  0  0  0
    0.3179   -0.8443    0.1141 N   0  0  0  0  0  0  0  0  0  0  0  0
    0.3264   -0.9631    1.5802 C   0  0  0  0  0  0  0  0  0  0  0  0
    1.5967   -0.4105    2.2760 C   0  0  0  0  0  0  0  0  0  0  0  0
    2.8041   -0.5968    1.4762 N   0  0  0  0  0  0  0  0  0  0  0  0
    3.9942   -0.9515    2.0976 C   0  0  0  0  0  0  0  0  0  0  0  0
    4.0693   -1.1307    3.3156 O   0  0  0  0  0  0  0  0  0  0  0  0
    5.2209   -1.1861    1.2085 C   0  0  0  0  0  0  0  0  0  0  0  0
    5.6337    0.0175    0.5712 O   0  0  0  0  0  0  0  0  0  0  0  0
    6.6070   -0.0867   -0.3812 C   0  0  0  0  0  0  0  0  0  0  0  0
    7.3939   -1.2140   -0.6287 C   0  0  0  0  0  0  0  0  0  0  0  0
    8.3610   -1.1851   -1.6402 C   0  0  0  0  0  0  0  0  0  0  0  0
    8.5438   -0.0288   -2.3973 C   0  0  0  0  0  0  0  0  0  0  0  0
    9.7382    0.0032   -3.6342 Cl  0  0  0  0  0  0  0  0  0  0  0  0
    7.7689    1.1017   -2.1521 C   0  0  0  0  0  0  0  0  0  0  0  0
    6.8050    1.0700   -1.1422 C   0  0  0  0  0  0  0  0  0  0  0  0
    2.7020   -0.2058    0.0657 C   0  0  0  0  0  0  0  0  0  0  0  0
    1.2683    0.1620   -0.3685 C   0  0  0  0  0  0  0  0  0  0  0  0
   -1.3844    1.5567   -0.8498 N   0  0  0  0  0  0  0  0  0  0  0  0
   -1.8939    2.8178   -0.5457 C   0  0  0  0  0  0  0  0  0  0  0  0
   -1.4386    3.9227   -1.2711 C   0  0  0  0  0  0  0  0  0  0  0  0
   -1.9025    5.2081   -0.9785 C   0  0  0  0  0  0  0  0  0  0  0  0
   -2.8277    5.3980    0.0477 C   0  0  0  0  0  0  0  0  0  0  0  0
   -3.2851    4.3020    0.7797 C   0  0  0  0  0  0  0  0  0  0  0  0
   -2.8101    3.0194    0.4769 C   0  0  0  0  0  0  0  0  0  0  0  0
   -3.2846    1.8357    1.2073 C   0  0  0  0  0  0  0  0  0  0  0  0
   -4.1101    2.0014    2.1056 O   0  0  0  0  0  0  0  0  0  0  0  0
   -5.5178   -2.8345   -2.0474 H   0  0  0  0  0  0  0  0  0  0  0  0
   -4.8645   -1.7051   -3.2237 H   0  0  0  0  0  0  0  0  0  0  0  0
   -6.6223   -1.9716   -3.1415 H   0  0  0  0  0  0  0  0  0  0  0  0
   -6.6872   -0.8657   -0.8812 H   0  0  0  0  0  0  0  0  0  0  0  0
   -5.9963    0.1868   -2.0954 H   0  0  0  0  0  0  0  0  0  0  0  0
   -6.0061   -2.6592    0.2936 H   0  0  0  0  0  0  0  0  0  0  0  0
   -5.7151   -3.4195    2.6011 H   0  0  0  0  0  0  0  0  0  0  0  0
   -4.0728   -2.3202    4.0974 H   0  0  0  0  0  0  0  0  0  0  0  0
   -2.6903   -0.4494    3.2591 H   0  0  0  0  0  0  0  0  0  0  0  0
   -0.8212   -0.7179   -1.6208 H   0  0  0  0  0  0  0  0  0  0  0  0
   -2.5648   -2.2525   -1.0410 H   0  0  0  0  0  0  0  0  0  0  0  0
   -0.9729   -2.9515   -0.8429 H   0  0  0  0  0  0  0  0  0  0  0  0
   -1.8769   -2.4896    0.5872 H   0  0  0  0  0  0  0  0  0  0  0  0
   -0.5268   -0.4553    2.0365 H   0  0  0  0  0  0  0  0  0  0  0  0
    0.2367   -2.0271    1.8275 H   0  0  0  0  0  0  0  0  0  0  0  0
    1.7005   -0.8686    3.2655 H   0  0  0  0  0  0  0  0  0  0  0  0
    1.4934    0.6707    2.4315 H   0  0  0  0  0  0  0  0  0  0  0  0
    4.9562   -1.9586    0.4765 H   0  0  0  0  0  0  0  0  0  0  0  0
    6.0256   -1.5598    1.8532 H   0  0  0  0  0  0  0  0  0  0  0  0
    7.2903   -2.1262   -0.0483 H   0  0  0  0  0  0  0  0  0  0  0  0
    8.9734   -2.0650   -1.8253 H   0  0  0  0  0  0  0  0  0  0  0  0
    7.9114    2.0089   -2.7331 H   0  0  0  0  0  0  0  0  0  0  0  0
    6.2047    1.9557   -0.9447 H   0  0  0  0  0  0  0  0  0  0  0  0
    3.0744   -1.0403   -0.5383 H   0  0  0  0  0  0  0  0  0  0  0  0
    3.3536    0.6567   -0.1045 H   0  0  0  0  0  0  0  0  0  0  0  0
    1.0210    1.1550    0.0293 H   0  0  0  0  0  0  0  0  0  0  0  0
    1.2546    0.2314   -1.4636 H   0  0  0  0  0  0  0  0  0  0  0  0
   -0.7132    3.7767   -2.0676 H   0  0  0  0  0  0  0  0  0  0  0  0
   -1.5397    6.0601   -1.5497 H   0  0  0  0  0  0  0  0  0  0  0  0
   -3.1905    6.3972    0.2770 H   0  0  0  0  0  0  0  0  0  0  0  0
   -4.0090    4.4455    1.5798 H   0  0  0  0  0  0  0  0  0  0  0  0
  1  2  1  0
  2  3  1  0
  3  4  1  0
  4  5  2  0
  5  6  1  0
  6  7  2  0
  7  8  1  0
  8  9  2  0
  9 10  1  0
 10 11  1  0
 11 12  1  0
 12 13  1  0
 12 14  1  0
 14 15  1  0
 15 16  1  0
 16 17  1  0
 17 18  1  0
 18 19  2  0
 18 20  1  0
 20 21  1  0
 21 22  1  0
 22 23  2  0
 23 24  1  0
 24 25  2  0
 25 26  1  0
 25 27  1  0
 27 28  2  0
 17 29  1  0
 29 30  1  0
 11 31  2  0
 31 32  1  0
 32 33  2  0
 33 34  1  0
 34 35  2  0
 35 36  1  0
 36 37  2  0
 37 38  1  0
 38 39  2  0
  9  4  1  0
 38 10  1  0
 30 14  1  0
 37 32  1  0
 28 22  1  0
  1 40  1  0
  1 41  1  0
  1 42  1  0
  2 43  1  0
  2 44  1  0
  5 45  1  0
  6 46  1  0
  7 47  1  0
  8 48  1  0
 12 49  1  0
 13 50  1  0
 13 51  1  0
 13 52  1  0
 15 53  1  0
 15 54  1  0
 16 55  1  0
 16 56  1  0
 20 57  1  0
 20 58  1  0
 23 59  1  0
 24 60  1  0
 27 61  1  0
 28 62  1  0
 29 63  1  0
 29 64  1  0
 30 65  1  0
 30 66  1  0
 33 67  1  0
 34 68  1  0
 35 69  1  0
 36 70  1  0
M  END
$$$$
