
     RDKit          3D

 49 52  0  0  0  0  0  0  0  0999 V2000
   -5.1185   -1.9108   -1.4899 C   0  0  0  0  0  0  0  0  0  0  0  0
   -3.9364   -1.7619   -0.5285 C   0  0  1  0  0  0  0  0  0  0  0  0
   -2.8331   -2.5373   -1.0494 O   0  0  0  0  0  0  0  0  0  0  0  0
   -1.9361   -2.8742   -0.0688 C   0  0  0  0  0  0  0  0  0  0  0  0
   -2.1819   -3.9603    0.7685 C   0  0  0  0  0  0  0  0  0  0  0  0
   -1.2574   -4.3256    1.7547 C   0  0  0  0  0  0  0  0  0  0  0  0
   -0.0929   -3.5552    1.8558 C   0  0  0  0  0  0  0  0  0  0  0  0
    0.9918   -3.6499    2.6835 N   0  0  0  0  0  0  0  0  0  0  0  0
    1.9358   -2.7195    2.4688 N   0  0  0  0  0  0  0  0  0  0  0  0
    1.4354   -1.9657    1.4806 C   0  0  0  0  0  0  0  0  0  0  0  0
    2.1323   -0.8229    0.9692 C   0  0  0  0  0  0  0  0  0  0  0  0
    1.5605    0.3370    0.5991 C   0  0  0  0  0  0  0  0  0  0  0  0
    2.2343    1.4807    0.0834 C   0  0  0  0  0  0  0  0  0  0  0  0
    1.6831    2.7535   -0.1800 C   0  0  0  0  0  0  0  0  0  0  0  0
    2.5837    3.6071   -0.6766 N   0  0  0  0  0  0  0  0  0  0  0  0
    3.7151    2.8764   -0.7288 N   0  0  0  0  0  0  0  0  0  0  0  0
    4.9457    3.4840   -1.2030 C   0  0  0  0  0  0  0  0  0  0  0  0
    5.5584    4.4110   -0.1615 C   0  0  0  0  0  0  0  0  0  0  0  0
    6.1438    3.6717    0.9098 O   0  0  0  0  0  0  0  0  0  0  0  0
    3.5561    1.5940   -0.2811 C   0  0  0  0  0  0  0  0  0  0  0  0
    0.1770   -2.4688    1.0297 C   0  0  0  0  0  0  0  0  0  0  0  0
   -0.7498   -2.1422    0.0196 C   0  0  0  0  0  0  0  0  0  0  0  0
   -3.5602   -0.3012   -0.3033 C   0  0  0  0  0  0  0  0  0  0  0  0
   -3.8205    0.3223    0.9328 C   0  0  0  0  0  0  0  0  0  0  0  0
   -4.6267   -0.4643    2.2448 Cl  0  0  0  0  0  0  0  0  0  0  0  0
   -3.4119    1.6392    1.1368 C   0  0  0  0  0  0  0  0  0  0  0  0
   -2.7626    2.3851    0.2178 N   0  0  0  0  0  0  0  0  0  0  0  0
   -2.5413    1.7894   -0.9744 C   0  0  0  0  0  0  0  0  0  0  0  0
   -2.9160    0.4819   -1.2822 C   0  0  0  0  0  0  0  0  0  0  0  0
   -2.5248   -0.0841   -2.8649 Cl  0  0  0  0  0  0  0  0  0  0  0  0
   -5.3907   -2.9694   -1.5770 H   0  0  0  0  0  0  0  0  0  0  0  0
   -5.9922   -1.3527   -1.1385 H   0  0  0  0  0  0  0  0  0  0  0  0
   -4.8793   -1.5762   -2.5025 H   0  0  0  0  0  0  0  0  0  0  0  0
   -4.2655   -2.2345    0.4020 H   0  0  0  0  0  0  0  0  0  0  0  0
   -3.0939   -4.5398    0.6498 H   0  0  0  0  0  0  0  0  0  0  0  0
   -1.4396   -5.1756    2.4047 H   0  0  0  0  0  0  0  0  0  0  0  0
    1.1520   -4.3337    3.4128 H   0  0  0  0  0  0  0  0  0  0  0  0
    3.2127   -0.9235    0.9306 H   0  0  0  0  0  0  0  0  0  0  0  0
    0.4829    0.4400    0.7138 H   0  0  0  0  0  0  0  0  0  0  0  0
    0.6657    3.0949   -0.0302 H   0  0  0  0  0  0  0  0  0  0  0  0
    5.6361    2.6728   -1.4602 H   0  0  0  0  0  0  0  0  0  0  0  0
    4.6985    4.0355   -2.1187 H   0  0  0  0  0  0  0  0  0  0  0  0
    6.3655    4.9887   -0.6230 H   0  0  0  0  0  0  0  0  0  0  0  0
    4.8326    5.1204    0.2526 H   0  0  0  0  0  0  0  0  0  0  0  0
    5.4180    3.3494    1.4731 H   0  0  0  0  0  0  0  0  0  0  0  0
    4.3817    0.8957   -0.2689 H   0  0  0  0  0  0  0  0  0  0  0  0
   -0.5491   -1.3373   -0.6784 H   0  0  0  0  0  0  0  0  0  0  0  0
   -3.5959    2.1458    2.0813 H   0  0  0  0  0  0  0  0  0  0  0  0
   -2.0224    2.4104   -1.7007 H   0  0  0  0  0  0  0  0  0  0  0  0
  1  2  1  0
  2  3  1  0
  3  4  1  0
  4  5  2  0
  5  6  1  0
  6  7  2  0
  7  8  1  0
  8  9  1  0
  9 10  2  0
 10 11  1  0
 11 12  2  0
 12 13  1  0
 13 14  1  0
 14 15  2  0
 15 16  1  0
 16 17  1  0
 17 18  1  0
 18 19  1  0
 16 20  1  0
 10 21  1  0
 21 22  2  0
  2 23  1  0
 23 24  2  0
 24 25  1  0
 24 26  1  0
 26 27  2  0
 27 28  1  0
 28 29  2  0
 29 30  1  0
 22  4  1  0
 29 23  1  0
 21  7  1  0
 20 13  2  0
  1 31  1  0
  1 32  1  0
  1 33  1  0
  2 34  1  1
  5 35  1  0
  6 36  1  0
  8 37  1  0
 11 38  1  0
 12 39  1  0
 14 40  1  0
 17 41  1  0
 17 42  1  0
 18 43  1  0
 18 44  1  0
 19 45  1  0
 20 46  1  0
 22 47  1  0
 26 48  1  0
 28 49  1  0
M  END
$$$$
