
     RDKit          3D

 77 77  0  0  0  0  0  0  0  0999 V2000
    0.7215    2.0594    1.9808 C   0  0  0  0  0  0  0  0  0  0  0  0
    1.9383    1.3125    1.7054 N   0  0  0  0  0  0  0  0  0  0  0  0
    2.2409    1.2002    0.2467 C   0  0  2  0  0  0  0  0  0  0  0  0
    1.1009    0.4418   -0.4957 C   0  0  0  0  0  0  0  0  0  0  0  0
    0.6582    0.8413   -1.5744 O   0  0  0  0  0  0  0  0  0  0  0  0
    0.6360   -0.7100    0.0997 N   0  0  0  0  0  0  0  0  0  0  0  0
   -0.5765   -1.3904   -0.3665 C   0  0  2  0  0  0  0  0  0  0  0  0
   -1.5217   -1.4233    0.8672 C   0  0  0  0  0  0  0  0  0  0  0  0
   -1.0316   -1.6121    1.9898 O   0  0  0  0  0  0  0  0  0  0  0  0
   -2.9079   -1.3303    0.6757 N   0  0  0  0  0  0  0  0  0  0  0  0
   -3.7128   -1.7444    1.8195 C   0  0  0  0  0  0  0  0  0  0  0  0
   -3.4695   -0.3388   -0.2710 C   0  0  2  0  0  0  0  0  0  0  0  0
   -3.2861    1.0354    0.3412 C   0  0  0  0  0  0  0  0  0  0  0  0
   -2.7788    2.1501   -0.2301 C   0  0  0  0  0  0  0  0  0  0  0  0
   -2.2893    2.2803   -1.6446 C   0  0  0  0  0  0  0  0  0  0  0  0
   -2.6641    3.4115    0.5544 C   0  0  0  0  0  0  0  0  0  0  0  0
   -2.3483    4.4981    0.1026 O   0  0  0  0  0  0  0  0  0  0  0  0
   -2.9194    3.2617    1.8655 O   0  0  0  0  0  0  0  0  0  0  0  0
   -4.9228   -0.5572   -0.7914 C   0  0  0  0  0  0  0  0  0  0  0  0
   -5.0986   -1.9278   -1.4545 C   0  0  0  0  0  0  0  0  0  0  0  0
   -6.0727   -0.2690    0.1828 C   0  0  0  0  0  0  0  0  0  0  0  0
   -0.2735   -2.8140   -0.9317 C   0  0  0  0  0  0  0  0  0  0  0  0
    0.3801   -3.7410    0.1146 C   0  0  0  0  0  0  0  0  0  0  0  0
    0.6813   -2.6989   -2.1413 C   0  0  0  0  0  0  0  0  0  0  0  0
   -1.5705   -3.4815   -1.4307 C   0  0  0  0  0  0  0  0  0  0  0  0
    3.6866    0.6134   -0.0575 C   0  0  0  0  0  0  0  0  0  0  0  0
    3.8196    0.4112   -1.5934 C   0  0  0  0  0  0  0  0  0  0  0  0
    3.8743   -0.7620    0.6299 C   0  0  0  0  0  0  0  0  0  0  0  0
    4.8590    1.5459    0.3738 C   0  0  0  0  0  0  0  0  0  0  0  0
    4.6608    2.8097    0.9570 C   0  0  0  0  0  0  0  0  0  0  0  0
    5.7398    3.6303    1.3046 C   0  0  0  0  0  0  0  0  0  0  0  0
    7.0449    3.2134    1.0778 C   0  0  0  0  0  0  0  0  0  0  0  0
    7.2756    1.9666    0.5087 C   0  0  0  0  0  0  0  0  0  0  0  0
    6.1974    1.1483    0.1611 C   0  0  0  0  0  0  0  0  0  0  0  0
   -0.1704    1.5560    1.5980 H   0  0  0  0  0  0  0  0  0  0  0  0
    0.5978    2.1755    3.0640 H   0  0  0  0  0  0  0  0  0  0  0  0
    0.7762    3.0665    1.5540 H   0  0  0  0  0  0  0  0  0  0  0  0
    1.9150    0.4029    2.1567 H   0  0  0  0  0  0  0  0  0  0  0  0
    2.2039    2.2167   -0.1751 H   0  0  0  0  0  0  0  0  0  0  0  0
    0.8894   -0.8912    1.0622 H   0  0  0  0  0  0  0  0  0  0  0  0
   -0.9993   -0.7830   -1.1639 H   0  0  0  0  0  0  0  0  0  0  0  0
   -4.5986   -2.2760    1.4691 H   0  0  0  0  0  0  0  0  0  0  0  0
   -3.1667   -2.4500    2.4568 H   0  0  0  0  0  0  0  0  0  0  0  0
   -3.9948   -0.8768    2.4266 H   0  0  0  0  0  0  0  0  0  0  0  0
   -2.8591   -0.3979   -1.1736 H   0  0  0  0  0  0  0  0  0  0  0  0
   -3.6225    1.1077    1.3742 H   0  0  0  0  0  0  0  0  0  0  0  0
   -2.3065    1.3397   -2.1984 H   0  0  0  0  0  0  0  0  0  0  0  0
   -1.2581    2.6502   -1.6582 H   0  0  0  0  0  0  0  0  0  0  0  0
   -2.9115    2.9955   -2.1915 H   0  0  0  0  0  0  0  0  0  0  0  0
   -2.7946    4.1622    2.2344 H   0  0  0  0  0  0  0  0  0  0  0  0
   -5.0516    0.1791   -1.6010 H   0  0  0  0  0  0  0  0  0  0  0  0
   -4.3674   -2.0601   -2.2586 H   0  0  0  0  0  0  0  0  0  0  0  0
   -4.9763   -2.7493   -0.7424 H   0  0  0  0  0  0  0  0  0  0  0  0
   -6.0972   -2.0186   -1.8985 H   0  0  0  0  0  0  0  0  0  0  0  0
   -5.9343    0.6788    0.7122 H   0  0  0  0  0  0  0  0  0  0  0  0
   -6.2138   -1.0609    0.9201 H   0  0  0  0  0  0  0  0  0  0  0  0
   -7.0160   -0.1894   -0.3719 H   0  0  0  0  0  0  0  0  0  0  0  0
    1.3052   -3.3072    0.5148 H   0  0  0  0  0  0  0  0  0  0  0  0
    0.6463   -4.7064   -0.3302 H   0  0  0  0  0  0  0  0  0  0  0  0
   -0.2938   -3.9457    0.9539 H   0  0  0  0  0  0  0  0  0  0  0  0
    0.8498   -3.6822   -2.5995 H   0  0  0  0  0  0  0  0  0  0  0  0
    1.6576   -2.2999   -1.8491 H   0  0  0  0  0  0  0  0  0  0  0  0
    0.2600   -2.0448   -2.9123 H   0  0  0  0  0  0  0  0  0  0  0  0
   -2.2731   -3.6742   -0.6111 H   0  0  0  0  0  0  0  0  0  0  0  0
   -1.3643   -4.4502   -1.9019 H   0  0  0  0  0  0  0  0  0  0  0  0
   -2.0782   -2.8523   -2.1713 H   0  0  0  0  0  0  0  0  0  0  0  0
    4.7998    0.0115   -1.8809 H   0  0  0  0  0  0  0  0  0  0  0  0
    3.6829    1.3569   -2.1299 H   0  0  0  0  0  0  0  0  0  0  0  0
    3.0840   -0.3043   -1.9742 H   0  0  0  0  0  0  0  0  0  0  0  0
    4.8164   -1.2378    0.3432 H   0  0  0  0  0  0  0  0  0  0  0  0
    3.0895   -1.4705    0.3487 H   0  0  0  0  0  0  0  0  0  0  0  0
    3.8788   -0.6699    1.7227 H   0  0  0  0  0  0  0  0  0  0  0  0
    3.6672    3.1964    1.1634 H   0  0  0  0  0  0  0  0  0  0  0  0
    5.5556    4.6045    1.7535 H   0  0  0  0  0  0  0  0  0  0  0  0
    7.8807    3.8530    1.3469 H   0  0  0  0  0  0  0  0  0  0  0  0
    8.2930    1.6351    0.3255 H   0  0  0  0  0  0  0  0  0  0  0  0
    6.4278    0.1802   -0.2836 H   0  0  0  0  0  0  0  0  0  0  0  0
  1  2  1  0
  2  3  1  0
  3  4  1  0
  4  5  2  0
  4  6  1  0
  6  7  1  0
  7  8  1  0
  8  9  2  0
  8 10  1  0
 10 11  1  0
 10 12  1  0
 12 13  1  0
 13 14  2  0
 14 15  1  0
 14 16  1  0
 16 17  2  0
 16 18  1  0
 12 19  1  0
 19 20  1  0
 19 21  1  0
  7 22  1  0
 22 23  1  0
 22 24  1  0
 22 25  1  0
  3 26  1  0
 26 27  1  0
 26 28  1  0
 26 29  1  0
 29 30  2  0
 30 31  1  0
 31 32  2  0
 32 33  1  0
 33 34  2  0
 34 29  1  0
  1 35  1  0
  1 36  1  0
  1 37  1  0
  2 38  1  0
  3 39  1  6
  6 40  1  0
  7 41  1  6
 11 42  1  0
 11 43  1  0
 11 44  1  0
 12 45  1  6
 13 46  1  0
 15 47  1  0
 15 48  1  0
 15 49  1  0
 18 50  1  0
 19 51  1  0
 20 52  1  0
 20 53  1  0
 20 54  1  0
 21 55  1  0
 21 56  1  0
 21 57  1  0
 23 58  1  0
 23 59  1  0
 23 60  1  0
 24 61  1  0
 24 62  1  0
 24 63  1  0
 25 64  1  0
 25 65  1  0
 25 66  1  0
 27 67  1  0
 27 68  1  0
 27 69  1  0
 28 70  1  0
 28 71  1  0
 28 72  1  0
 30 73  1  0
 31 74  1  0
 32 75  1  0
 33 76  1  0
 34 77  1  0
M  END
$$$$
