
     RDKit          3D

 39 41  0  0  0  0  0  0  0  0999 V2000
   -6.4088   -0.3985    0.6457 C   0  0  0  0  0  0  0  0  0  0  0  0
   -4.9626   -0.2843    0.5691 N   0  0  0  0  0  0  0  0  0  0  0  0
   -4.3709    0.9269    0.9486 C   0  0  0  0  0  0  0  0  0  0  0  0
   -3.0427    1.1421    0.9166 C   0  0  0  0  0  0  0  0  0  0  0  0
   -2.2645    0.0541    0.4702 C   0  0  0  0  0  0  0  0  0  0  0  0
   -2.7779   -1.1621    0.0763 C   0  0  0  0  0  0  0  0  0  0  0  0
   -1.6840   -1.9705   -0.3005 C   0  0  0  0  0  0  0  0  0  0  0  0
   -0.5261   -1.2119   -0.1713 C   0  0  0  0  0  0  0  0  0  0  0  0
    0.8200   -1.6334   -0.4928 C   0  0  0  0  0  0  0  0  0  0  0  0
    1.3090   -2.6884   -0.1067 O   0  0  0  0  0  0  0  0  0  0  0  0
    1.4918   -0.7464   -1.2996 N   0  0  0  0  0  0  0  0  0  0  0  0
    2.8798   -0.9220   -1.6469 C   0  0  0  0  0  0  0  0  0  0  0  0
    3.7427   -0.0355   -0.7868 C   0  0  0  0  0  0  0  0  0  0  0  0
    4.1509   -0.4682    0.4843 C   0  0  0  0  0  0  0  0  0  0  0  0
    4.9206    0.3593    1.3038 C   0  0  0  0  0  0  0  0  0  0  0  0
    5.2836    1.6319    0.8648 C   0  0  0  0  0  0  0  0  0  0  0  0
    4.8728    2.0719   -0.3918 C   0  0  0  0  0  0  0  0  0  0  0  0
    5.3077    3.6479   -0.9291 Cl  0  0  0  0  0  0  0  0  0  0  0  0
    4.1047    1.2493   -1.2164 C   0  0  0  0  0  0  0  0  0  0  0  0
   -0.8988    0.0112    0.3758 N   0  0  0  0  0  0  0  0  0  0  0  0
    0.0227    1.0278    0.8425 C   0  0  0  0  0  0  0  0  0  0  0  0
   -4.2165   -1.3966    0.1092 C   0  0  0  0  0  0  0  0  0  0  0  0
   -4.7095   -2.4652   -0.2393 O   0  0  0  0  0  0  0  0  0  0  0  0
   -6.7581   -1.3903    0.3473 H   0  0  0  0  0  0  0  0  0  0  0  0
   -6.8595    0.3460   -0.0182 H   0  0  0  0  0  0  0  0  0  0  0  0
   -6.7276   -0.2108    1.6759 H   0  0  0  0  0  0  0  0  0  0  0  0
   -5.0486    1.7092    1.2793 H   0  0  0  0  0  0  0  0  0  0  0  0
   -2.6168    2.0931    1.2127 H   0  0  0  0  0  0  0  0  0  0  0  0
   -1.7297   -2.9912   -0.6614 H   0  0  0  0  0  0  0  0  0  0  0  0
    1.0038    0.0647   -1.6489 H   0  0  0  0  0  0  0  0  0  0  0  0
    3.1832   -1.9695   -1.5404 H   0  0  0  0  0  0  0  0  0  0  0  0
    2.9922   -0.6578   -2.7042 H   0  0  0  0  0  0  0  0  0  0  0  0
    3.8627   -1.4571    0.8417 H   0  0  0  0  0  0  0  0  0  0  0  0
    5.2345    0.0103    2.2847 H   0  0  0  0  0  0  0  0  0  0  0  0
    5.8831    2.2731    1.5054 H   0  0  0  0  0  0  0  0  0  0  0  0
    3.7895    1.6090   -2.1928 H   0  0  0  0  0  0  0  0  0  0  0  0
   -0.3947    1.5210    1.7235 H   0  0  0  0  0  0  0  0  0  0  0  0
    0.1725    1.7472    0.0340 H   0  0  0  0  0  0  0  0  0  0  0  0
    0.9694    0.5637    1.1282 H   0  0  0  0  0  0  0  0  0  0  0  0
  1  2  1  0
  2  3  1  0
  3  4  2  0
  4  5  1  0
  5  6  2  0
  6  7  1  0
  7  8  2  0
  8  9  1  0
  9 10  2  0
  9 11  1  0
 11 12  1  0
 12 13  1  0
 13 14  2  0
 14 15  1  0
 15 16  2  0
 16 17  1  0
 17 18  1  0
 17 19  2  0
  8 20  1  0
 20 21  1  0
  6 22  1  0
 22 23  2  0
 22  2  1  0
 20  5  1  0
 19 13  1  0
  1 24  1  0
  1 25  1  0
  1 26  1  0
  3 27  1  0
  4 28  1  0
  7 29  1  0
 11 30  1  0
 12 31  1  0
 12 32  1  0
 14 33  1  0
 15 34  1  0
 16 35  1  0
 19 36  1  0
 21 37  1  0
 21 38  1  0
 21 39  1  0
M  END
$$$$
