
     RDKit          3D

 47 50  0  0  0  0  0  0  0  0999 V2000
    8.9690   -0.0693   -1.8176 C   0  0  0  0  0  0  0  0  0  0  0  0
    7.7759   -0.8202   -1.9949 O   0  0  0  0  0  0  0  0  0  0  0  0
    6.7067   -0.5204   -1.1928 C   0  0  0  0  0  0  0  0  0  0  0  0
    6.7088    0.4669   -0.2060 C   0  0  0  0  0  0  0  0  0  0  0  0
    5.5633    0.7001    0.5662 C   0  0  0  0  0  0  0  0  0  0  0  0
    4.3947   -0.0453    0.3696 C   0  0  0  0  0  0  0  0  0  0  0  0
    3.2929    0.2618    1.1965 N   0  0  0  0  0  0  0  0  0  0  0  0
    2.0293   -0.3225    1.1770 C   0  0  0  0  0  0  0  0  0  0  0  0
    1.6762   -1.2340    0.4346 O   0  0  0  0  0  0  0  0  0  0  0  0
    1.1142    0.2625    2.2587 C   0  0  0  0  0  0  0  0  0  0  0  0
   -0.2709    0.0372    1.9474 N   0  0  0  0  0  0  0  0  0  0  0  0
   -1.0112    0.8817    1.1388 N   0  0  0  0  0  0  0  0  0  0  0  0
   -2.1363    0.2443    0.9904 C   0  0  0  0  0  0  0  0  0  0  0  0
   -3.1847    0.7204    0.2618 N   0  0  0  0  0  0  0  0  0  0  0  0
   -4.2617   -0.0221    0.1754 C   0  0  0  0  0  0  0  0  0  0  0  0
   -5.3255    0.4516   -0.5701 N   0  0  0  0  0  0  0  0  0  0  0  0
   -5.2993    1.7569   -1.2290 C   0  0  0  0  0  0  0  0  0  0  0  0
   -6.7313    1.9566   -1.7116 C   0  0  0  0  0  0  0  0  0  0  0  0
   -7.1782    0.5406   -2.0250 C   0  0  0  0  0  0  0  0  0  0  0  0
   -6.5410   -0.2766   -0.9052 C   0  0  0  0  0  0  0  0  0  0  0  0
   -4.3559   -1.3564    0.8714 C   0  0  0  0  0  0  0  0  0  0  0  0
   -3.2938   -1.7569    1.5766 C   0  0  0  0  0  0  0  0  0  0  0  0
   -2.2061   -0.9493    1.6239 N   0  0  0  0  0  0  0  0  0  0  0  0
   -1.0009   -1.1184    2.2541 C   0  0  0  0  0  0  0  0  0  0  0  0
   -0.6397   -2.0560    2.9493 O   0  0  0  0  0  0  0  0  0  0  0  0
    4.3890   -1.0322   -0.6146 C   0  0  0  0  0  0  0  0  0  0  0  0
    5.5342   -1.2670   -1.3879 C   0  0  0  0  0  0  0  0  0  0  0  0
    5.4560   -2.5092   -2.5927 Cl  0  0  0  0  0  0  0  0  0  0  0  0
    8.8021    0.9924   -2.0270 H   0  0  0  0  0  0  0  0  0  0  0  0
    9.7063   -0.4381   -2.5371 H   0  0  0  0  0  0  0  0  0  0  0  0
    9.3817   -0.2153   -0.8140 H   0  0  0  0  0  0  0  0  0  0  0  0
    7.5846    1.0763   -0.0083 H   0  0  0  0  0  0  0  0  0  0  0  0
    5.6050    1.4786    1.3246 H   0  0  0  0  0  0  0  0  0  0  0  0
    3.4372    1.0107    1.8623 H   0  0  0  0  0  0  0  0  0  0  0  0
    1.3551   -0.2308    3.2060 H   0  0  0  0  0  0  0  0  0  0  0  0
    1.2747    1.3408    2.3569 H   0  0  0  0  0  0  0  0  0  0  0  0
   -5.0046    2.5609   -0.5466 H   0  0  0  0  0  0  0  0  0  0  0  0
   -4.6050    1.7317   -2.0766 H   0  0  0  0  0  0  0  0  0  0  0  0
   -6.7941    2.6255   -2.5743 H   0  0  0  0  0  0  0  0  0  0  0  0
   -7.3469    2.3741   -0.9057 H   0  0  0  0  0  0  0  0  0  0  0  0
   -6.7747    0.2275   -2.9957 H   0  0  0  0  0  0  0  0  0  0  0  0
   -8.2659    0.4327   -2.0558 H   0  0  0  0  0  0  0  0  0  0  0  0
   -6.3359   -1.2959   -1.2478 H   0  0  0  0  0  0  0  0  0  0  0  0
   -7.2011   -0.3173   -0.0319 H   0  0  0  0  0  0  0  0  0  0  0  0
   -5.2564   -1.9459    0.7949 H   0  0  0  0  0  0  0  0  0  0  0  0
   -3.2450   -2.6954    2.1165 H   0  0  0  0  0  0  0  0  0  0  0  0
    3.5091   -1.6375   -0.8066 H   0  0  0  0  0  0  0  0  0  0  0  0
  1  2  1  0
  2  3  1  0
  3  4  2  0
  4  5  1  0
  5  6  2  0
  6  7  1  0
  7  8  1  0
  8  9  2  0
  8 10  1  0
 10 11  1  0
 11 12  1  0
 12 13  2  0
 13 14  1  0
 14 15  2  0
 15 16  1  0
 16 17  1  0
 17 18  1  0
 18 19  1  0
 19 20  1  0
 15 21  1  0
 21 22  2  0
 22 23  1  0
 23 24  1  0
 24 25  2  0
  6 26  1  0
 26 27  2  0
 27 28  1  0
 27  3  1  0
 24 11  1  0
 23 13  1  0
 20 16  1  0
  1 29  1  0
  1 30  1  0
  1 31  1  0
  4 32  1  0
  5 33  1  0
  7 34  1  0
 10 35  1  0
 10 36  1  0
 17 37  1  0
 17 38  1  0
 18 39  1  0
 18 40  1  0
 19 41  1  0
 19 42  1  0
 20 43  1  0
 20 44  1  0
 21 45  1  0
 22 46  1  0
 26 47  1  0
M  END
$$$$
