
     RDKit          3D

 49 52  0  0  0  0  0  0  0  0999 V2000
   -1.2912    0.9963    3.2798 O   0  0  0  0  0  0  0  0  0  0  0  0
   -1.0924    1.0505    2.0693 C   0  0  0  0  0  0  0  0  0  0  0  0
   -1.9673    1.6298    1.1761 N   0  0  0  0  0  0  0  0  0  0  0  0
   -3.3153    1.9934    1.5518 C   0  0  0  0  0  0  0  0  0  0  0  0
   -4.2692    0.7814    1.5592 C   0  0  0  0  0  0  0  0  0  0  0  0
   -4.3289    0.0576    0.2722 N   0  0  0  0  0  0  0  0  0  0  0  0
   -4.8656    0.9031   -0.8169 C   0  0  0  0  0  0  0  0  0  0  0  0
   -5.4838    0.0639   -1.9456 C   0  0  0  0  0  0  0  0  0  0  0  0
   -6.6217   -0.6921   -1.5090 O   0  0  0  0  0  0  0  0  0  0  0  0
   -6.5450   -1.0770   -0.1294 C   0  0  0  0  0  0  0  0  0  0  0  0
   -5.1030   -1.1978    0.3875 C   0  0  0  0  0  0  0  0  0  0  0  0
    0.1027    0.4795    1.4262 C   0  0  0  0  0  0  0  0  0  0  0  0
    1.2016   -0.1694    2.0859 C   0  0  0  0  0  0  0  0  0  0  0  0
    2.0364   -0.5311    1.0682 C   0  0  0  0  0  0  0  0  0  0  0  0
    1.4550   -0.0897   -0.0669 N   0  0  0  0  0  0  0  0  0  0  0  0
    0.2726    0.4972    0.0763 N   0  0  0  0  0  0  0  0  0  0  0  0
    2.1648   -0.4162   -1.2881 C   0  0  0  0  0  0  0  0  0  0  0  0
    3.5372   -0.8805   -0.7371 C   0  0  1  0  0  0  0  0  0  0  0  0
    4.4498    0.2208   -0.8720 O   0  0  0  0  0  0  0  0  0  0  0  0
    5.7923   -0.0327   -0.8438 C   0  0  0  0  0  0  0  0  0  0  0  0
    6.5956    1.0784   -1.0875 C   0  0  0  0  0  0  0  0  0  0  0  0
    7.9702    0.9190   -1.0769 C   0  0  0  0  0  0  0  0  0  0  0  0
    8.5831   -0.2589   -0.8406 N   0  0  0  0  0  0  0  0  0  0  0  0
    7.7830   -1.3181   -0.6000 C   0  0  0  0  0  0  0  0  0  0  0  0
    6.3970   -1.2582   -0.5894 C   0  0  0  0  0  0  0  0  0  0  0  0
    3.3049   -1.2213    0.7731 C   0  0  0  0  0  0  0  0  0  0  0  0
   -1.7682    1.4080    0.2035 H   0  0  0  0  0  0  0  0  0  0  0  0
   -3.6548    2.7603    0.8486 H   0  0  0  0  0  0  0  0  0  0  0  0
   -3.2953    2.4428    2.5510 H   0  0  0  0  0  0  0  0  0  0  0  0
   -3.9122    0.0895    2.3329 H   0  0  0  0  0  0  0  0  0  0  0  0
   -5.2703    1.1116    1.8638 H   0  0  0  0  0  0  0  0  0  0  0  0
   -4.0583    1.5193   -1.2269 H   0  0  0  0  0  0  0  0  0  0  0  0
   -5.6439    1.5741   -0.4304 H   0  0  0  0  0  0  0  0  0  0  0  0
   -5.8177    0.7160   -2.7592 H   0  0  0  0  0  0  0  0  0  0  0  0
   -4.7479   -0.6308   -2.3674 H   0  0  0  0  0  0  0  0  0  0  0  0
   -7.1074   -0.3434    0.4599 H   0  0  0  0  0  0  0  0  0  0  0  0
   -7.0613   -2.0373   -0.0300 H   0  0  0  0  0  0  0  0  0  0  0  0
   -5.1019   -1.5841    1.4135 H   0  0  0  0  0  0  0  0  0  0  0  0
   -4.5820   -1.9484   -0.2204 H   0  0  0  0  0  0  0  0  0  0  0  0
    1.3166   -0.3357    3.1479 H   0  0  0  0  0  0  0  0  0  0  0  0
    1.6142   -1.2309   -1.7672 H   0  0  0  0  0  0  0  0  0  0  0  0
    2.2140    0.4737   -1.9201 H   0  0  0  0  0  0  0  0  0  0  0  0
    3.8870   -1.7386   -1.3224 H   0  0  0  0  0  0  0  0  0  0  0  0
    6.1575    2.0511   -1.2816 H   0  0  0  0  0  0  0  0  0  0  0  0
    8.6328    1.7592   -1.2628 H   0  0  0  0  0  0  0  0  0  0  0  0
    8.3031   -2.2523   -0.4062 H   0  0  0  0  0  0  0  0  0  0  0  0
    5.8428   -2.1620   -0.3766 H   0  0  0  0  0  0  0  0  0  0  0  0
    4.1155   -0.8690    1.4166 H   0  0  0  0  0  0  0  0  0  0  0  0
    3.1748   -2.3012    0.8996 H   0  0  0  0  0  0  0  0  0  0  0  0
  1  2  2  0
  2  3  1  0
  3  4  1  0
  4  5  1  0
  5  6  1  0
  6  7  1  0
  7  8  1  0
  8  9  1  0
  9 10  1  0
 10 11  1  0
  2 12  1  0
 12 13  1  0
 13 14  2  0
 14 15  1  0
 15 16  1  0
 15 17  1  0
 17 18  1  0
 18 19  1  0
 19 20  1  0
 20 21  2  0
 21 22  1  0
 22 23  2  0
 23 24  1  0
 24 25  2  0
 18 26  1  0
 11  6  1  0
 16 12  2  0
 25 20  1  0
 26 14  1  0
  3 27  1  0
  4 28  1  0
  4 29  1  0
  5 30  1  0
  5 31  1  0
  7 32  1  0
  7 33  1  0
  8 34  1  0
  8 35  1  0
 10 36  1  0
 10 37  1  0
 11 38  1  0
 11 39  1  0
 13 40  1  0
 17 41  1  0
 17 42  1  0
 18 43  1  6
 21 44  1  0
 22 45  1  0
 24 46  1  0
 25 47  1  0
 26 48  1  0
 26 49  1  0
M  END
$$$$
