
     RDKit          3D

 29 30  0  0  0  0  0  0  0  0999 V2000
   -3.5554   -2.7312    0.2603 C   0  0  0  0  0  0  0  0  0  0  0  0
   -3.2155   -1.3525    0.2592 O   0  0  0  0  0  0  0  0  0  0  0  0
   -1.9472   -1.0083   -0.1388 C   0  0  0  0  0  0  0  0  0  0  0  0
   -0.9718   -1.9238   -0.5478 C   0  0  0  0  0  0  0  0  0  0  0  0
    0.2950   -1.4806   -0.9365 C   0  0  0  0  0  0  0  0  0  0  0  0
    0.5985   -0.1186   -0.9193 C   0  0  0  0  0  0  0  0  0  0  0  0
    1.9266    0.3358   -1.3328 C   0  0  0  0  0  0  0  0  0  0  0  0
    2.9397    0.6268   -0.5075 C   0  0  0  0  0  0  0  0  0  0  0  0
    4.4917    1.1641   -1.0601 S   0  0  0  0  0  0  0  0  0  0  0  0
    5.0749    1.2717    0.6186 C   0  0  0  0  0  0  0  0  0  0  0  0
    6.2125    1.6365    0.8697 O   0  0  0  0  0  0  0  0  0  0  0  0
    4.1341    0.9118    1.5601 N   0  0  0  0  0  0  0  0  0  0  0  0
    3.0457    0.5837    0.9560 C   0  0  0  0  0  0  0  0  0  0  0  0
    1.9908    0.1948    1.6666 O   0  0  0  0  0  0  0  0  0  0  0  0
   -0.3733    0.8044   -0.5145 C   0  0  0  0  0  0  0  0  0  0  0  0
   -1.6447    0.3690   -0.1206 C   0  0  0  0  0  0  0  0  0  0  0  0
   -2.6564    1.2018    0.2916 O   0  0  0  0  0  0  0  0  0  0  0  0
   -2.3749    2.5909    0.3780 C   0  0  0  0  0  0  0  0  0  0  0  0
   -2.9250   -3.2933    0.9572 H   0  0  0  0  0  0  0  0  0  0  0  0
   -3.5034   -3.1519   -0.7493 H   0  0  0  0  0  0  0  0  0  0  0  0
   -4.5906   -2.8203    0.6038 H   0  0  0  0  0  0  0  0  0  0  0  0
   -1.1647   -2.9908   -0.5746 H   0  0  0  0  0  0  0  0  0  0  0  0
    1.0392   -2.2098   -1.2487 H   0  0  0  0  0  0  0  0  0  0  0  0
    2.0523    0.4241   -2.4100 H   0  0  0  0  0  0  0  0  0  0  0  0
    2.2250    0.2188    2.6099 H   0  0  0  0  0  0  0  0  0  0  0  0
   -0.1166    1.8583   -0.5123 H   0  0  0  0  0  0  0  0  0  0  0  0
   -2.1423    3.0081   -0.6072 H   0  0  0  0  0  0  0  0  0  0  0  0
   -3.2751    3.0924    0.7462 H   0  0  0  0  0  0  0  0  0  0  0  0
   -1.5691    2.7882    1.0928 H   0  0  0  0  0  0  0  0  0  0  0  0
  1  2  1  0
  2  3  1  0
  3  4  2  0
  4  5  1  0
  5  6  2  0
  6  7  1  0
  7  8  2  0
  8  9  1  0
  9 10  1  0
 10 11  2  0
 10 12  1  0
 12 13  2  0
 13 14  1  0
  6 15  1  0
 15 16  2  0
 16 17  1  0
 17 18  1  0
 16  3  1  0
 13  8  1  0
  1 19  1  0
  1 20  1  0
  1 21  1  0
  4 22  1  0
  5 23  1  0
  7 24  1  0
 14 25  1  0
 15 26  1  0
 18 27  1  0
 18 28  1  0
 18 29  1  0
M  END
$$$$
