
     RDKit          3D

 63 67  0  0  0  0  0  0  0  0999 V2000
   -1.6662    5.4965    1.2535 C   0  0  0  0  0  0  0  0  0  0  0  0
   -1.4797    4.0738    1.5385 C   0  0  0  0  0  0  0  0  0  0  0  0
   -1.3099    2.9057    1.7621 C   0  0  0  0  0  0  0  0  0  0  0  0
   -1.0756    1.4793    2.0327 C   0  0  0  0  0  0  0  0  0  0  0  0
   -1.3765    0.6403    0.8843 N   0  0  0  0  0  0  0  0  0  0  0  0
   -2.4708   -0.1923    0.7257 C   0  0  0  0  0  0  0  0  0  0  0  0
   -3.4724   -0.2505    1.6444 N   0  0  0  0  0  0  0  0  0  0  0  0
   -4.4214    0.8736    1.6627 C   0  0  0  0  0  0  0  0  0  0  0  0
   -5.5493    0.6636    0.6531 C   0  0  0  0  0  0  0  0  0  0  0  0
   -6.2751   -0.6545    0.9244 C   0  0  0  0  0  0  0  0  0  0  0  0
   -5.3136   -1.8522    0.9239 C   0  0  1  0  0  0  0  0  0  0  0  0
   -4.8981   -2.2037   -0.4438 N   0  0  0  0  0  0  0  0  0  0  0  0
   -4.1087   -1.5726    1.8671 C   0  0  0  0  0  0  0  0  0  0  0  0
   -2.3583   -0.9088   -0.3754 N   0  0  0  0  0  0  0  0  0  0  0  0
   -1.1915   -0.5073   -0.9441 C   0  0  0  0  0  0  0  0  0  0  0  0
   -0.5599    0.4370   -0.1979 C   0  0  0  0  0  0  0  0  0  0  0  0
    0.6929    0.9998   -0.5618 C   0  0  0  0  0  0  0  0  0  0  0  0
    1.2899    1.8183    0.1316 O   0  0  0  0  0  0  0  0  0  0  0  0
    1.1690    0.5211   -1.7840 N   0  0  0  0  0  0  0  0  0  0  0  0
    2.4921    0.9814   -2.1861 C   0  0  0  0  0  0  0  0  0  0  0  0
    3.6202    0.2559   -1.4737 C   0  0  0  0  0  0  0  0  0  0  0  0
    3.3757   -0.9585   -0.9463 N   0  0  0  0  0  0  0  0  0  0  0  0
    4.4037   -1.5885   -0.3382 C   0  0  0  0  0  0  0  0  0  0  0  0
    4.0841   -2.9430    0.2280 C   0  0  0  0  0  0  0  0  0  0  0  0
    5.6828   -1.0246   -0.2354 C   0  0  0  0  0  0  0  0  0  0  0  0
    6.7978   -1.6330    0.3946 C   0  0  0  0  0  0  0  0  0  0  0  0
    8.0297   -0.9842    0.4411 C   0  0  0  0  0  0  0  0  0  0  0  0
    8.1616    0.2741   -0.1329 C   0  0  0  0  0  0  0  0  0  0  0  0
    7.0603    0.8710   -0.7532 C   0  0  0  0  0  0  0  0  0  0  0  0
    5.8221    0.2426   -0.8182 C   0  0  0  0  0  0  0  0  0  0  0  0
    4.8164    0.8723   -1.4355 N   0  0  0  0  0  0  0  0  0  0  0  0
    0.5624   -0.4741   -2.5685 C   0  0  0  0  0  0  0  0  0  0  0  0
    1.0809   -0.8730   -3.6150 O   0  0  0  0  0  0  0  0  0  0  0  0
   -0.6621   -0.9767   -2.1220 N   0  0  0  0  0  0  0  0  0  0  0  0
   -1.3556   -2.0065   -2.8737 C   0  0  0  0  0  0  0  0  0  0  0  0
   -0.9266    5.8475    0.5278 H   0  0  0  0  0  0  0  0  0  0  0  0
   -1.5611    6.0937    2.1638 H   0  0  0  0  0  0  0  0  0  0  0  0
   -2.6612    5.6819    0.8393 H   0  0  0  0  0  0  0  0  0  0  0  0
   -1.6826    1.1443    2.8801 H   0  0  0  0  0  0  0  0  0  0  0  0
   -0.0321    1.2949    2.3099 H   0  0  0  0  0  0  0  0  0  0  0  0
   -3.9243    1.8282    1.4563 H   0  0  0  0  0  0  0  0  0  0  0  0
   -4.8397    0.9593    2.6746 H   0  0  0  0  0  0  0  0  0  0  0  0
   -6.2598    1.4946    0.7236 H   0  0  0  0  0  0  0  0  0  0  0  0
   -5.1503    0.6693   -0.3690 H   0  0  0  0  0  0  0  0  0  0  0  0
   -7.0776   -0.7990    0.1902 H   0  0  0  0  0  0  0  0  0  0  0  0
   -6.7657   -0.5938    1.9056 H   0  0  0  0  0  0  0  0  0  0  0  0
   -5.8549   -2.7238    1.3137 H   0  0  0  0  0  0  0  0  0  0  0  0
   -3.9708   -1.7774   -0.6077 H   0  0  0  0  0  0  0  0  0  0  0  0
   -5.5071   -1.7654   -1.1303 H   0  0  0  0  0  0  0  0  0  0  0  0
   -4.4714   -1.5897    2.9042 H   0  0  0  0  0  0  0  0  0  0  0  0
   -3.3674   -2.3789    1.7972 H   0  0  0  0  0  0  0  0  0  0  0  0
    2.5746    2.0535   -1.9695 H   0  0  0  0  0  0  0  0  0  0  0  0
    2.6363    0.8595   -3.2652 H   0  0  0  0  0  0  0  0  0  0  0  0
    4.7312   -3.7065   -0.2182 H   0  0  0  0  0  0  0  0  0  0  0  0
    3.0444   -3.2187    0.0158 H   0  0  0  0  0  0  0  0  0  0  0  0
    4.2157   -2.9411    1.3144 H   0  0  0  0  0  0  0  0  0  0  0  0
    6.7117   -2.6167    0.8496 H   0  0  0  0  0  0  0  0  0  0  0  0
    8.8814   -1.4577    0.9242 H   0  0  0  0  0  0  0  0  0  0  0  0
    9.1175    0.7936   -0.1053 H   0  0  0  0  0  0  0  0  0  0  0  0
    7.1705    1.8571   -1.1989 H   0  0  0  0  0  0  0  0  0  0  0  0
   -0.8523   -2.2298   -3.8169 H   0  0  0  0  0  0  0  0  0  0  0  0
   -1.4054   -2.9201   -2.2691 H   0  0  0  0  0  0  0  0  0  0  0  0
   -2.3700   -1.6606   -3.1024 H   0  0  0  0  0  0  0  0  0  0  0  0
  1  2  1  0
  2  3  3  0
  3  4  1  0
  4  5  1  0
  5  6  1  0
  6  7  1  0
  7  8  1  0
  8  9  1  0
  9 10  1  0
 10 11  1  0
 11 12  1  0
 11 13  1  0
  6 14  2  0
 14 15  1  0
 15 16  2  0
 16 17  1  0
 17 18  2  0
 17 19  1  0
 19 20  1  0
 20 21  1  0
 21 22  2  0
 22 23  1  0
 23 24  1  0
 23 25  2  0
 25 26  1  0
 26 27  2  0
 27 28  1  0
 28 29  2  0
 29 30  1  0
 30 31  2  0
 19 32  1  0
 32 33  2  0
 32 34  1  0
 34 35  1  0
 16  5  1  0
 31 21  1  0
 13  7  1  0
 34 15  1  0
 30 25  1  0
  1 36  1  0
  1 37  1  0
  1 38  1  0
  4 39  1  0
  4 40  1  0
  8 41  1  0
  8 42  1  0
  9 43  1  0
  9 44  1  0
 10 45  1  0
 10 46  1  0
 11 47  1  1
 12 48  1  0
 12 49  1  0
 13 50  1  0
 13 51  1  0
 20 52  1  0
 20 53  1  0
 24 54  1  0
 24 55  1  0
 24 56  1  0
 26 57  1  0
 27 58  1  0
 28 59  1  0
 29 60  1  0
 35 61  1  0
 35 62  1  0
 35 63  1  0
M  END
$$$$
