
     RDKit          3D

 18 19  0  0  0  0  0  0  0  0999 V2000
   -1.3826    2.5366    0.1335 O   0  0  0  0  0  0  0  0  0  0  0  0
   -1.1768    1.1815    0.0046 C   0  0  0  0  0  0  0  0  0  0  0  0
   -2.2834    0.3522   -0.2075 C   0  0  0  0  0  0  0  0  0  0  0  0
   -2.0983   -1.0188   -0.3405 C   0  0  0  0  0  0  0  0  0  0  0  0
   -0.8138   -1.5513   -0.2610 C   0  0  0  0  0  0  0  0  0  0  0  0
    0.2969   -0.7149   -0.0476 C   0  0  0  0  0  0  0  0  0  0  0  0
    1.5921   -1.2454    0.0332 C   0  0  0  0  0  0  0  0  0  0  0  0
    2.6758   -0.4036    0.2442 C   0  0  0  0  0  0  0  0  0  0  0  0
    2.4274    0.9478    0.3681 C   0  0  0  0  0  0  0  0  0  0  0  0
    1.1958    1.4945    0.2960 N   0  0  0  0  0  0  0  0  0  0  0  0
    0.1320    0.6817    0.0903 C   0  0  0  0  0  0  0  0  0  0  0  0
   -2.3285    2.7285    0.0527 H   0  0  0  0  0  0  0  0  0  0  0  0
   -3.2871    0.7608   -0.2705 H   0  0  0  0  0  0  0  0  0  0  0  0
   -2.9506   -1.6730   -0.5056 H   0  0  0  0  0  0  0  0  0  0  0  0
   -0.6811   -2.6260   -0.3666 H   0  0  0  0  0  0  0  0  0  0  0  0
    1.7618   -2.3142   -0.0677 H   0  0  0  0  0  0  0  0  0  0  0  0
    3.6856   -0.7913    0.3102 H   0  0  0  0  0  0  0  0  0  0  0  0
    3.2347    1.6550    0.5343 H   0  0  0  0  0  0  0  0  0  0  0  0
  1  2  1  0
  2  3  2  0
  3  4  1  0
  4  5  2  0
  5  6  1  0
  6  7  2  0
  7  8  1  0
  8  9  2  0
  9 10  1  0
 10 11  2  0
 11  2  1  0
 11  6  1  0
  1 12  1  0
  3 13  1  0
  4 14  1  0
  5 15  1  0
  7 16  1  0
  8 17  1  0
  9 18  1  0
M  END
$$$$
