
     RDKit          3D

 34 36  0  0  0  0  0  0  0  0999 V2000
   -5.3439    1.1504    0.0537 C   0  0  0  0  0  0  0  0  0  0  0  0
   -4.4473   -0.0452   -0.0767 C   0  0  0  0  0  0  0  0  0  0  0  0
   -4.9456   -1.2778   -0.2526 C   0  0  0  0  0  0  0  0  0  0  0  0
   -4.1095   -2.4806   -0.3857 C   0  0  0  0  0  0  0  0  0  0  0  0
   -4.6197   -3.5835   -0.5450 O   0  0  0  0  0  0  0  0  0  0  0  0
   -2.7392   -2.2997   -0.3221 O   0  0  0  0  0  0  0  0  0  0  0  0
   -2.1811   -1.0183   -0.1381 C   0  0  0  0  0  0  0  0  0  0  0  0
   -0.7844   -0.9580   -0.0895 C   0  0  0  0  0  0  0  0  0  0  0  0
   -0.1629    0.2734    0.0897 C   0  0  0  0  0  0  0  0  0  0  0  0
    1.1830    0.4977    0.1583 O   0  0  0  0  0  0  0  0  0  0  0  0
    2.0392   -0.6358    0.0349 C   0  0  0  0  0  0  0  0  0  0  0  0
    3.4661   -0.1577    0.1394 C   0  0  0  0  0  0  0  0  0  0  0  0
    4.1699    0.2384   -1.0068 C   0  0  0  0  0  0  0  0  0  0  0  0
    5.4858    0.6933   -0.9074 C   0  0  0  0  0  0  0  0  0  0  0  0
    6.1074    0.7654    0.3379 C   0  0  0  0  0  0  0  0  0  0  0  0
    5.4125    0.3886    1.4857 C   0  0  0  0  0  0  0  0  0  0  0  0
    4.0965   -0.0667    1.3885 C   0  0  0  0  0  0  0  0  0  0  0  0
   -0.9516    1.4198    0.2168 C   0  0  0  0  0  0  0  0  0  0  0  0
   -2.3497    1.3446    0.1662 C   0  0  0  0  0  0  0  0  0  0  0  0
   -2.9884    0.1142   -0.0134 C   0  0  0  0  0  0  0  0  0  0  0  0
   -5.1984    1.6421    1.0215 H   0  0  0  0  0  0  0  0  0  0  0  0
   -6.4023    0.8748   -0.0131 H   0  0  0  0  0  0  0  0  0  0  0  0
   -5.1470    1.8734   -0.7450 H   0  0  0  0  0  0  0  0  0  0  0  0
   -6.0124   -1.4636   -0.3079 H   0  0  0  0  0  0  0  0  0  0  0  0
   -0.2256   -1.8810   -0.1941 H   0  0  0  0  0  0  0  0  0  0  0  0
    1.8915   -1.1289   -0.9343 H   0  0  0  0  0  0  0  0  0  0  0  0
    1.8399   -1.3605    0.8345 H   0  0  0  0  0  0  0  0  0  0  0  0
    3.6931    0.1996   -1.9838 H   0  0  0  0  0  0  0  0  0  0  0  0
    6.0241    0.9968   -1.8015 H   0  0  0  0  0  0  0  0  0  0  0  0
    7.1309    1.1225    0.4147 H   0  0  0  0  0  0  0  0  0  0  0  0
    5.8935    0.4544    2.4580 H   0  0  0  0  0  0  0  0  0  0  0  0
    3.5619   -0.3452    2.2940 H   0  0  0  0  0  0  0  0  0  0  0  0
   -0.4715    2.3864    0.3573 H   0  0  0  0  0  0  0  0  0  0  0  0
   -2.9148    2.2668    0.2705 H   0  0  0  0  0  0  0  0  0  0  0  0
  1  2  1  0
  2  3  2  0
  3  4  1  0
  4  5  2  0
  4  6  1  0
  6  7  1  0
  7  8  2  0
  8  9  1  0
  9 10  1  0
 10 11  1  0
 11 12  1  0
 12 13  2  0
 13 14  1  0
 14 15  2  0
 15 16  1  0
 16 17  2  0
  9 18  2  0
 18 19  1  0
 19 20  2  0
 20  2  1  0
 20  7  1  0
 17 12  1  0
  1 21  1  0
  1 22  1  0
  1 23  1  0
  3 24  1  0
  8 25  1  0
 11 26  1  0
 11 27  1  0
 13 28  1  0
 14 29  1  0
 15 30  1  0
 16 31  1  0
 17 32  1  0
 18 33  1  0
 19 34  1  0
M  END
$$$$
