
     RDKit          3D

 59 62  0  0  0  0  0  0  0  0999 V2000
    6.0127    1.4324    1.2383 C   0  0  0  0  0  0  0  0  0  0  0  0
    5.2036    2.4747    0.4799 C   0  0  0  0  0  0  0  0  0  0  0  0
    3.7233    2.1176    0.3966 C   0  0  0  0  0  0  0  0  0  0  0  0
    3.4986    0.9298   -0.4063 N   0  0  0  0  0  0  0  0  0  0  0  0
    2.2616    0.3325   -0.3971 C   0  0  0  0  0  0  0  0  0  0  0  0
    1.3356    0.7750    0.2702 O   0  0  0  0  0  0  0  0  0  0  0  0
    2.1671   -0.8035   -1.1896 N   0  0  0  0  0  0  0  0  0  0  0  0
    3.3596   -1.6131   -1.5022 C   0  0  0  0  0  0  0  0  0  0  0  0
    3.7589   -2.5326   -0.3445 C   0  0  0  0  0  0  0  0  0  0  0  0
    2.7170   -3.4519    0.0029 O   0  0  0  0  0  0  0  0  0  0  0  0
    1.6930   -2.8551    0.8025 C   0  0  0  0  0  0  0  0  0  0  0  0
    0.5048   -2.3683   -0.0340 C   0  0  1  0  0  0  0  0  0  0  0  0
   -0.5188   -1.6876    0.8754 C   0  0  0  0  0  0  0  0  0  0  0  0
   -1.6463   -1.1424    0.1310 N   0  0  0  0  0  0  0  0  0  0  0  0
   -2.8927   -1.1497    0.7687 C   0  0  0  0  0  0  0  0  0  0  0  0
   -3.1036   -1.7522    1.8195 O   0  0  0  0  0  0  0  0  0  0  0  0
   -4.0497   -0.4063    0.1263 C   0  0  0  0  0  0  0  0  0  0  0  0
   -4.2227    1.0588    0.5417 C   0  0  0  0  0  0  0  0  0  0  0  0
   -4.0535    2.1271   -0.3574 C   0  0  0  0  0  0  0  0  0  0  0  0
   -4.2114    3.4560    0.0470 C   0  0  0  0  0  0  0  0  0  0  0  0
   -4.5427    3.7486    1.3667 C   0  0  0  0  0  0  0  0  0  0  0  0
   -4.7174    2.7135    2.2793 C   0  0  0  0  0  0  0  0  0  0  0  0
   -4.5589    1.3876    1.8687 C   0  0  0  0  0  0  0  0  0  0  0  0
   -5.3586   -1.2039    0.0020 C   0  0  0  0  0  0  0  0  0  0  0  0
   -4.5715   -0.8936   -1.2250 C   0  0  0  0  0  0  0  0  0  0  0  0
   -1.2873   -0.1770   -0.8969 C   0  0  0  0  0  0  0  0  0  0  0  0
   -0.2730   -0.7377   -1.8852 C   0  0  0  0  0  0  0  0  0  0  0  0
    0.8892   -1.5452   -1.2790 C   0  0  1  0  0  0  0  0  0  0  0  0
    5.6282    1.3018    2.2551 H   0  0  0  0  0  0  0  0  0  0  0  0
    7.0587    1.7463    1.3089 H   0  0  0  0  0  0  0  0  0  0  0  0
    5.9865    0.4616    0.7329 H   0  0  0  0  0  0  0  0  0  0  0  0
    5.6206    2.5913   -0.5276 H   0  0  0  0  0  0  0  0  0  0  0  0
    5.3084    3.4404    0.9881 H   0  0  0  0  0  0  0  0  0  0  0  0
    3.1658    2.9377   -0.0699 H   0  0  0  0  0  0  0  0  0  0  0  0
    3.3062    1.9590    1.3977 H   0  0  0  0  0  0  0  0  0  0  0  0
    3.8979    0.9659   -1.3322 H   0  0  0  0  0  0  0  0  0  0  0  0
    3.1443   -2.2052   -2.3991 H   0  0  0  0  0  0  0  0  0  0  0  0
    4.2087   -0.9730   -1.7563 H   0  0  0  0  0  0  0  0  0  0  0  0
    4.0758   -1.9625    0.5369 H   0  0  0  0  0  0  0  0  0  0  0  0
    4.6182   -3.1343   -0.6596 H   0  0  0  0  0  0  0  0  0  0  0  0
    1.3410   -3.6374    1.4862 H   0  0  0  0  0  0  0  0  0  0  0  0
    2.1005   -2.0581    1.4375 H   0  0  0  0  0  0  0  0  0  0  0  0
    0.0077   -3.2665   -0.4331 H   0  0  0  0  0  0  0  0  0  0  0  0
   -0.0757   -0.8694    1.4532 H   0  0  0  0  0  0  0  0  0  0  0  0
   -0.8739   -2.4205    1.6096 H   0  0  0  0  0  0  0  0  0  0  0  0
   -3.7940    1.9272   -1.3940 H   0  0  0  0  0  0  0  0  0  0  0  0
   -4.0730    4.2610   -0.6697 H   0  0  0  0  0  0  0  0  0  0  0  0
   -4.6632    4.7809    1.6839 H   0  0  0  0  0  0  0  0  0  0  0  0
   -4.9725    2.9326    3.3127 H   0  0  0  0  0  0  0  0  0  0  0  0
   -4.6930    0.5887    2.5975 H   0  0  0  0  0  0  0  0  0  0  0  0
   -5.3670   -2.2276    0.3599 H   0  0  0  0  0  0  0  0  0  0  0  0
   -6.2981   -0.6835    0.1516 H   0  0  0  0  0  0  0  0  0  0  0  0
   -4.9947   -0.1785   -1.9200 H   0  0  0  0  0  0  0  0  0  0  0  0
   -4.0521   -1.7144   -1.7079 H   0  0  0  0  0  0  0  0  0  0  0  0
   -0.9233    0.7252   -0.3981 H   0  0  0  0  0  0  0  0  0  0  0  0
   -2.1664    0.1297   -1.4651 H   0  0  0  0  0  0  0  0  0  0  0  0
   -0.8285   -1.4222   -2.5425 H   0  0  0  0  0  0  0  0  0  0  0  0
    0.0994    0.0636   -2.5343 H   0  0  0  0  0  0  0  0  0  0  0  0
    1.0904   -2.2933   -2.0608 H   0  0  0  0  0  0  0  0  0  0  0  0
  1  2  1  0
  2  3  1  0
  3  4  1  0
  4  5  1  0
  5  6  2  0
  5  7  1  0
  7  8  1  0
  8  9  1  0
  9 10  1  0
 10 11  1  0
 11 12  1  0
 12 13  1  0
 13 14  1  0
 14 15  1  0
 15 16  2  0
 15 17  1  0
 17 18  1  0
 18 19  2  0
 19 20  1  0
 20 21  2  0
 21 22  1  0
 22 23  2  0
 17 24  1  0
 24 25  1  0
 14 26  1  0
 26 27  1  0
 27 28  1  0
 28  7  1  0
 28 12  1  0
 25 17  1  0
 23 18  1  0
  1 29  1  0
  1 30  1  0
  1 31  1  0
  2 32  1  0
  2 33  1  0
  3 34  1  0
  3 35  1  0
  4 36  1  0
  8 37  1  0
  8 38  1  0
  9 39  1  0
  9 40  1  0
 11 41  1  0
 11 42  1  0
 12 43  1  6
 13 44  1  0
 13 45  1  0
 19 46  1  0
 20 47  1  0
 21 48  1  0
 22 49  1  0
 23 50  1  0
 24 51  1  0
 24 52  1  0
 25 53  1  0
 25 54  1  0
 26 55  1  0
 26 56  1  0
 27 57  1  0
 27 58  1  0
 28 59  1  6
M  END
$$$$
