
     RDKit          3D

 49 52  0  0  0  0  0  0  0  0999 V2000
    8.0573    1.0394   -1.3664 C   0  0  0  0  0  0  0  0  0  0  0  0
    8.5328   -0.1949   -0.6120 C   0  0  0  0  0  0  0  0  0  0  0  0
    7.5967   -1.3942   -0.7717 C   0  0  0  0  0  0  0  0  0  0  0  0
    6.2782   -1.2055   -0.1170 C   0  0  0  0  0  0  0  0  0  0  0  0
    6.0891   -1.3995    1.1943 N   0  0  0  0  0  0  0  0  0  0  0  0
    4.7341   -1.1105    1.3649 O   0  0  0  0  0  0  0  0  0  0  0  0
    4.2462   -0.7741    0.1322 C   0  0  0  0  0  0  0  0  0  0  0  0
    2.8392   -0.4263    0.0468 C   0  0  0  0  0  0  0  0  0  0  0  0
    2.2660   -0.0691   -1.1759 C   0  0  0  0  0  0  0  0  0  0  0  0
    0.9112    0.2647   -1.2479 C   0  0  0  0  0  0  0  0  0  0  0  0
    0.1429    0.2357   -0.0840 C   0  0  0  0  0  0  0  0  0  0  0  0
   -1.2505    0.5812   -0.1644 N   0  0  0  0  0  0  0  0  0  0  0  0
   -1.8079    0.9158   -1.3663 N   0  0  0  0  0  0  0  0  0  0  0  0
   -3.0757    1.2024   -1.0825 C   0  0  0  0  0  0  0  0  0  0  0  0
   -3.3948    1.0139    0.2720 C   0  0  0  0  0  0  0  0  0  0  0  0
   -4.6603    1.2403    0.9490 C   0  0  0  0  0  0  0  0  0  0  0  0
   -4.7228    1.9676    1.9376 O   0  0  0  0  0  0  0  0  0  0  0  0
   -5.7755    0.5905    0.4460 N   0  0  0  0  0  0  0  0  0  0  0  0
   -7.0593    0.7159    1.1160 C   0  0  0  0  0  0  0  0  0  0  0  0
   -7.8378   -0.5217    0.6929 C   0  0  0  0  0  0  0  0  0  0  0  0
   -7.2811   -0.8176   -0.6920 C   0  0  0  0  0  0  0  0  0  0  0  0
   -5.8045   -0.4773   -0.5445 C   0  0  0  0  0  0  0  0  0  0  0  0
   -2.1951    0.6296    0.8570 C   0  0  0  0  0  0  0  0  0  0  0  0
   -1.8975    0.3176    2.2814 C   0  0  0  0  0  0  0  0  0  0  0  0
    0.6777   -0.1104    1.1166 N   0  0  0  0  0  0  0  0  0  0  0  0
    1.9974   -0.4278    1.1526 C   0  0  0  0  0  0  0  0  0  0  0  0
    5.1606   -0.8213   -0.8129 N   0  0  0  0  0  0  0  0  0  0  0  0
    7.1086    1.4118   -0.9683 H   0  0  0  0  0  0  0  0  0  0  0  0
    7.9239    0.8216   -2.4308 H   0  0  0  0  0  0  0  0  0  0  0  0
    8.7954    1.8427   -1.2753 H   0  0  0  0  0  0  0  0  0  0  0  0
    9.5235   -0.4723   -0.9917 H   0  0  0  0  0  0  0  0  0  0  0  0
    8.6560    0.0551    0.4487 H   0  0  0  0  0  0  0  0  0  0  0  0
    8.0819   -2.2798   -0.3425 H   0  0  0  0  0  0  0  0  0  0  0  0
    7.4490   -1.6099   -1.8368 H   0  0  0  0  0  0  0  0  0  0  0  0
    2.8697   -0.0464   -2.0819 H   0  0  0  0  0  0  0  0  0  0  0  0
    0.4809    0.5426   -2.2064 H   0  0  0  0  0  0  0  0  0  0  0  0
   -3.7220    1.5446   -1.8810 H   0  0  0  0  0  0  0  0  0  0  0  0
   -6.9464    0.7853    2.2022 H   0  0  0  0  0  0  0  0  0  0  0  0
   -7.5356    1.6311    0.7477 H   0  0  0  0  0  0  0  0  0  0  0  0
   -7.6117   -1.3558    1.3681 H   0  0  0  0  0  0  0  0  0  0  0  0
   -8.9193   -0.3612    0.6958 H   0  0  0  0  0  0  0  0  0  0  0  0
   -7.4458   -1.8508   -1.0093 H   0  0  0  0  0  0  0  0  0  0  0  0
   -7.7484   -0.1525   -1.4284 H   0  0  0  0  0  0  0  0  0  0  0  0
   -5.2332   -1.3252   -0.1508 H   0  0  0  0  0  0  0  0  0  0  0  0
   -5.3701   -0.1571   -1.4933 H   0  0  0  0  0  0  0  0  0  0  0  0
   -1.5257   -0.7063    2.3882 H   0  0  0  0  0  0  0  0  0  0  0  0
   -1.1614    1.0175    2.6889 H   0  0  0  0  0  0  0  0  0  0  0  0
   -2.7948    0.3931    2.9034 H   0  0  0  0  0  0  0  0  0  0  0  0
    2.3588   -0.6922    2.1441 H   0  0  0  0  0  0  0  0  0  0  0  0
  1  2  1  0
  2  3  1  0
  3  4  1  0
  4  5  2  0
  5  6  1  0
  6  7  1  0
  7  8  1  0
  8  9  2  0
  9 10  1  0
 10 11  2  0
 11 12  1  0
 12 13  1  0
 13 14  2  0
 14 15  1  0
 15 16  1  0
 16 17  2  0
 16 18  1  0
 18 19  1  0
 19 20  1  0
 20 21  1  0
 21 22  1  0
 15 23  2  0
 23 24  1  0
 11 25  1  0
 25 26  2  0
  7 27  2  0
 27  4  1  0
 26  8  1  0
 23 12  1  0
 22 18  1  0
  1 28  1  0
  1 29  1  0
  1 30  1  0
  2 31  1  0
  2 32  1  0
  3 33  1  0
  3 34  1  0
  9 35  1  0
 10 36  1  0
 14 37  1  0
 19 38  1  0
 19 39  1  0
 20 40  1  0
 20 41  1  0
 21 42  1  0
 21 43  1  0
 22 44  1  0
 22 45  1  0
 24 46  1  0
 24 47  1  0
 24 48  1  0
 26 49  1  0
M  END
$$$$
