
     RDKit          3D

 34 36  0  0  0  0  0  0  0  0999 V2000
    0.0137    3.8710    1.6491 O   0  0  0  0  0  0  0  0  0  0  0  0
    0.1551    2.6635    0.8591 S   0  0  0  0  0  6  0  0  0  0  0  0
    0.6401    2.7389   -0.5045 O   0  0  0  0  0  0  0  0  0  0  0  0
    1.1540    1.7457    1.7264 O   0  0  0  0  0  0  0  0  0  0  0  0
   -1.4036    1.7978    0.8528 C   0  0  0  0  0  0  0  0  0  0  0  0
   -2.4637    2.4803    1.4842 C   0  0  0  0  0  0  0  0  0  0  0  0
   -3.7216    1.9099    1.5569 C   0  0  0  0  0  0  0  0  0  0  0  0
   -3.9284    0.6570    1.0007 C   0  0  0  0  0  0  0  0  0  0  0  0
   -2.8945   -0.0427    0.3582 C   0  0  0  0  0  0  0  0  0  0  0  0
   -3.2146   -1.3019   -0.1679 C   0  0  0  0  0  0  0  0  0  0  0  0
   -2.2688   -2.0690   -0.8272 C   0  0  0  0  0  0  0  0  0  0  0  0
   -0.9818   -1.5795   -0.9685 C   0  0  0  0  0  0  0  0  0  0  0  0
   -0.6095   -0.3217   -0.4519 C   0  0  0  0  0  0  0  0  0  0  0  0
    0.7226    0.1089   -0.6538 N   0  0  0  0  0  0  0  0  0  0  0  0
    1.9249   -0.6192   -0.7534 C   0  0  0  0  0  0  0  0  0  0  0  0
    2.1201   -1.8422   -0.1003 C   0  0  0  0  0  0  0  0  0  0  0  0
    3.3274   -2.5367   -0.2194 C   0  0  0  0  0  0  0  0  0  0  0  0
    4.3610   -2.0115   -0.9906 C   0  0  0  0  0  0  0  0  0  0  0  0
    4.1897   -0.7895   -1.6356 C   0  0  0  0  0  0  0  0  0  0  0  0
    2.9814   -0.0979   -1.5133 C   0  0  0  0  0  0  0  0  0  0  0  0
   -1.5774    0.5018    0.2445 C   0  0  0  0  0  0  0  0  0  0  0  0
    1.5335    2.3005    2.4379 H   0  0  0  0  0  0  0  0  0  0  0  0
   -2.3182    3.4644    1.9266 H   0  0  0  0  0  0  0  0  0  0  0  0
   -4.5381    2.4355    2.0453 H   0  0  0  0  0  0  0  0  0  0  0  0
   -4.9257    0.2241    1.0724 H   0  0  0  0  0  0  0  0  0  0  0  0
   -4.2225   -1.7033   -0.0725 H   0  0  0  0  0  0  0  0  0  0  0  0
   -2.5343   -3.0385   -1.2389 H   0  0  0  0  0  0  0  0  0  0  0  0
   -0.2603   -2.1783   -1.5204 H   0  0  0  0  0  0  0  0  0  0  0  0
    0.7785    1.0355   -1.0857 H   0  0  0  0  0  0  0  0  0  0  0  0
    1.3376   -2.2559    0.5301 H   0  0  0  0  0  0  0  0  0  0  0  0
    3.4597   -3.4833    0.2975 H   0  0  0  0  0  0  0  0  0  0  0  0
    5.3005   -2.5497   -1.0826 H   0  0  0  0  0  0  0  0  0  0  0  0
    4.9949   -0.3707   -2.2331 H   0  0  0  0  0  0  0  0  0  0  0  0
    2.8685    0.8567   -2.0221 H   0  0  0  0  0  0  0  0  0  0  0  0
  1  2  2  0
  2  3  2  0
  2  4  1  0
  2  5  1  0
  5  6  2  0
  6  7  1  0
  7  8  2  0
  8  9  1  0
  9 10  2  0
 10 11  1  0
 11 12  2  0
 12 13  1  0
 13 14  1  0
 14 15  1  0
 15 16  2  0
 16 17  1  0
 17 18  2  0
 18 19  1  0
 19 20  2  0
 13 21  2  0
 21  5  1  0
 21  9  1  0
 20 15  1  0
  4 22  1  0
  6 23  1  0
  7 24  1  0
  8 25  1  0
 10 26  1  0
 11 27  1  0
 12 28  1  0
 14 29  1  0
 16 30  1  0
 17 31  1  0
 18 32  1  0
 19 33  1  0
 20 34  1  0
M  END
$$$$
