
     RDKit          3D

 45 46  0  0  0  0  0  0  0  0999 V2000
   -0.3554   -0.8170   -1.7264 C   0  0  0  0  0  0  0  0  0  0  0  0
   -0.1366    0.1342   -0.6444 N   0  0  0  0  0  0  0  0  0  0  0  0
    1.0197    0.9428   -0.9254 C   0  0  0  0  0  0  0  0  0  0  0  0
    2.2760    0.1161   -0.8763 C   0  0  0  0  0  0  0  0  0  0  0  0
    3.2151    0.4195   -0.0281 C   0  0  0  0  0  0  0  0  0  0  0  0
    4.4691   -0.3062    0.1085 C   0  0  0  0  0  0  0  0  0  0  0  0
    5.4104    0.0987    1.0413 C   0  0  0  0  0  0  0  0  0  0  0  0
    6.6174   -0.5539    1.2121 C   0  0  0  0  0  0  0  0  0  0  0  0
    6.9273   -1.6535    0.4405 C   0  0  0  0  0  0  0  0  0  0  0  0
    6.0048   -2.0792   -0.4991 C   0  0  0  0  0  0  0  0  0  0  0  0
    4.8101   -1.4058   -0.6443 C   0  0  0  0  0  0  0  0  0  0  0  0
   -1.3055    0.9231   -0.3376 C   0  0  0  0  0  0  0  0  0  0  0  0
   -2.4380    0.1728    0.2005 C   0  0  0  0  0  0  0  0  0  0  0  0
   -2.3224   -1.1798    0.4266 C   0  0  0  0  0  0  0  0  0  0  0  0
   -3.3751   -1.9428    0.9543 C   0  0  0  0  0  0  0  0  0  0  0  0
   -4.5738   -1.3405    1.2653 C   0  0  0  0  0  0  0  0  0  0  0  0
   -4.7029    0.0035    1.0465 C   0  0  0  0  0  0  0  0  0  0  0  0
   -5.8901    0.6617    1.3435 C   0  0  0  0  0  0  0  0  0  0  0  0
   -6.0204    2.0155    1.1242 C   0  0  0  0  0  0  0  0  0  0  0  0
   -4.9738    2.7520    0.6038 C   0  0  0  0  0  0  0  0  0  0  0  0
   -3.7833    2.1086    0.3025 C   0  0  0  0  0  0  0  0  0  0  0  0
   -3.6501    0.7566    0.5202 C   0  0  0  0  0  0  0  0  0  0  0  0
    0.6870    0.0000    0.0000 Cl  0  0  0  0  0  0  0  0  0  0  0  0
    0.1319   -0.3647   -2.6193 H   0  0  0  0  0  0  0  0  0  0  0  0
   -1.4373   -0.8925   -1.9771 H   0  0  0  0  0  0  0  0  0  0  0  0
    0.1265   -1.7843   -1.5800 H   0  0  0  0  0  0  0  0  0  0  0  0
    1.0950    1.7631   -0.1835 H   0  0  0  0  0  0  0  0  0  0  0  0
    0.8989    1.3961   -1.9331 H   0  0  0  0  0  0  0  0  0  0  0  0
    2.4166   -0.7275   -1.5317 H   0  0  0  0  0  0  0  0  0  0  0  0
    3.0382    1.2818    0.6223 H   0  0  0  0  0  0  0  0  0  0  0  0
    5.2093    0.9604    1.6703 H   0  0  0  0  0  0  0  0  0  0  0  0
    7.3613   -0.2329    1.9499 H   0  0  0  0  0  0  0  0  0  0  0  0
    7.8811   -2.1700    0.5735 H   0  0  0  0  0  0  0  0  0  0  0  0
    6.2602   -2.9553   -1.1086 H   0  0  0  0  0  0  0  0  0  0  0  0
    4.1328   -1.7786   -1.3864 H   0  0  0  0  0  0  0  0  0  0  0  0
   -1.5789    1.6064   -1.1714 H   0  0  0  0  0  0  0  0  0  0  0  0
   -0.9683    1.6255    0.4845 H   0  0  0  0  0  0  0  0  0  0  0  0
   -1.4258   -1.7386    0.2300 H   0  0  0  0  0  0  0  0  0  0  0  0
   -3.2871   -3.0057    1.1324 H   0  0  0  0  0  0  0  0  0  0  0  0
   -5.4292   -1.8581    1.6743 H   0  0  0  0  0  0  0  0  0  0  0  0
   -6.7180    0.0702    1.7559 H   0  0  0  0  0  0  0  0  0  0  0  0
   -6.9581    2.5173    1.3611 H   0  0  0  0  0  0  0  0  0  0  0  0
   -5.0299    3.8204    0.4152 H   0  0  0  0  0  0  0  0  0  0  0  0
   -2.9415    2.6405   -0.1028 H   0  0  0  0  0  0  0  0  0  0  0  0
   -0.6870    0.0000    0.0000 H   0  0  0  0  0  0  0  0  0  0  0  0
  1  2  1  0
  2  3  1  0
  3  4  1  0
  4  5  2  0
  5  6  1  0
  6  7  2  0
  7  8  1  0
  8  9  2  0
  9 10  1  0
 10 11  2  0
  2 12  1  0
 12 13  1  0
 13 14  2  0
 14 15  1  0
 15 16  2  0
 16 17  1  0
 17 18  2  0
 18 19  1  0
 19 20  2  0
 20 21  1  0
 21 22  2  0
 11  6  1  0
 22 13  1  0
 22 17  1  0
  1 24  1  0
  1 25  1  0
  1 26  1  0
  3 27  1  0
  3 28  1  0
  4 29  1  0
  5 30  1  0
  7 31  1  0
  8 32  1  0
  9 33  1  0
 10 34  1  0
 11 35  1  0
 12 36  1  0
 12 37  1  0
 14 38  1  0
 15 39  1  0
 16 40  1  0
 18 41  1  0
 19 42  1  0
 20 43  1  0
 21 44  1  0
 23 45  1  0
M  END
$$$$
