
     RDKit          3D

 66 69  0  0  0  0  0  0  0  0999 V2000
   -5.3983    1.6089    0.0202 C   0  0  0  0  0  0  0  0  0  0  0  0
   -5.8982    0.2483    0.2289 N   0  0  0  0  0  0  0  0  0  0  0  0
   -4.9233   -0.7010    0.8055 C   0  0  0  0  0  0  0  0  0  0  0  0
   -3.7802   -1.0926   -0.1496 C   0  0  0  0  0  0  0  0  0  0  0  0
   -2.8113   -0.0499   -0.2925 O   0  0  0  0  0  0  0  0  0  0  0  0
   -1.7879    0.0388    0.6068 C   0  0  0  0  0  0  0  0  0  0  0  0
   -1.6138   -0.7410    1.7483 C   0  0  0  0  0  0  0  0  0  0  0  0
   -0.5071   -0.5357    2.5821 C   0  0  0  0  0  0  0  0  0  0  0  0
    0.4445    0.4466    2.2827 C   0  0  0  0  0  0  0  0  0  0  0  0
    1.6492    0.6653    3.1672 C   0  0  0  0  0  0  0  0  0  0  0  0
    2.8593   -0.2768    2.9947 C   0  0  2  0  0  0  0  0  0  0  0  0
    3.5895   -0.0902    1.7173 N   0  0  0  0  0  0  0  0  0  0  0  0
    3.1066   -0.4080    0.4420 C   0  0  0  0  0  0  0  0  0  0  0  0
    2.2191   -1.4629    0.1973 C   0  0  0  0  0  0  0  0  0  0  0  0
    1.7900   -1.7850   -1.0975 C   0  0  0  0  0  0  0  0  0  0  0  0
    2.2574   -1.0701   -2.1929 C   0  0  0  0  0  0  0  0  0  0  0  0
    3.1736   -0.0436   -1.9963 C   0  0  0  0  0  0  0  0  0  0  0  0
    3.6172    0.2650   -0.6977 C   0  0  0  0  0  0  0  0  0  0  0  0
    4.5954    1.3742   -0.5277 C   0  0  0  0  0  0  0  0  0  0  0  0
    4.4258    2.1899    0.3781 O   0  0  0  0  0  0  0  0  0  0  0  0
    5.7763    1.5068   -1.4202 C   0  0  0  0  0  0  0  0  0  0  0  0
    6.2866    2.7866   -1.6670 C   0  0  0  0  0  0  0  0  0  0  0  0
    7.3989    2.9494   -2.4943 C   0  0  0  0  0  0  0  0  0  0  0  0
    8.0102    1.8347   -3.0676 C   0  0  0  0  0  0  0  0  0  0  0  0
    7.5171    0.5560   -2.8087 C   0  0  0  0  0  0  0  0  0  0  0  0
    6.4048    0.3882   -1.9811 C   0  0  0  0  0  0  0  0  0  0  0  0
    2.6509   -1.7296    3.4374 C   0  0  0  0  0  0  0  0  0  0  0  0
    3.1458   -2.7447    2.9714 O   0  0  0  0  0  0  0  0  0  0  0  0
    1.8983   -1.8433    4.5575 O   0  0  0  0  0  0  0  0  0  0  0  0
    0.2512    1.2408    1.1464 C   0  0  0  0  0  0  0  0  0  0  0  0
   -0.8529    1.0337    0.3171 C   0  0  0  0  0  0  0  0  0  0  0  0
   -6.6824   -0.2331   -0.8312 C   0  0  0  0  0  0  0  0  0  0  0  0
   -7.4112   -1.4170   -0.6900 C   0  0  0  0  0  0  0  0  0  0  0  0
   -8.1849   -1.8964   -1.7473 C   0  0  0  0  0  0  0  0  0  0  0  0
   -8.2286   -1.1800   -2.9316 C   0  0  0  0  0  0  0  0  0  0  0  0
   -7.5011   -0.0085   -2.9980 C   0  0  0  0  0  0  0  0  0  0  0  0
   -6.7480    0.4713   -1.9835 N   0  0  0  0  0  0  0  0  0  0  0  0
   -4.7215    1.6771   -0.8383 H   0  0  0  0  0  0  0  0  0  0  0  0
   -4.8525    1.9504    0.9071 H   0  0  0  0  0  0  0  0  0  0  0  0
   -6.2276    2.3113   -0.1246 H   0  0  0  0  0  0  0  0  0  0  0  0
   -4.5126   -0.2481    1.7155 H   0  0  0  0  0  0  0  0  0  0  0  0
   -5.4352   -1.6111    1.1372 H   0  0  0  0  0  0  0  0  0  0  0  0
   -3.3059   -2.0284    0.1674 H   0  0  0  0  0  0  0  0  0  0  0  0
   -4.1721   -1.2924   -1.1530 H   0  0  0  0  0  0  0  0  0  0  0  0
   -2.3191   -1.5142    2.0302 H   0  0  0  0  0  0  0  0  0  0  0  0
   -0.4028   -1.1493    3.4735 H   0  0  0  0  0  0  0  0  0  0  0  0
    1.9948    1.6993    3.0271 H   0  0  0  0  0  0  0  0  0  0  0  0
    1.3028    0.6293    4.2092 H   0  0  0  0  0  0  0  0  0  0  0  0
    3.5849    0.0744    3.7447 H   0  0  0  0  0  0  0  0  0  0  0  0
    3.9988    0.8541    1.6905 H   0  0  0  0  0  0  0  0  0  0  0  0
    1.8201   -2.0641    1.0051 H   0  0  0  0  0  0  0  0  0  0  0  0
    1.0808   -2.5966   -1.2392 H   0  0  0  0  0  0  0  0  0  0  0  0
    1.9093   -1.3138   -3.1934 H   0  0  0  0  0  0  0  0  0  0  0  0
    3.5281    0.5192   -2.8560 H   0  0  0  0  0  0  0  0  0  0  0  0
    5.8180    3.6584   -1.2154 H   0  0  0  0  0  0  0  0  0  0  0  0
    7.7906    3.9452   -2.6867 H   0  0  0  0  0  0  0  0  0  0  0  0
    8.8793    1.9621   -3.7090 H   0  0  0  0  0  0  0  0  0  0  0  0
    8.0055   -0.3126   -3.2439 H   0  0  0  0  0  0  0  0  0  0  0  0
    6.0533   -0.6187   -1.7703 H   0  0  0  0  0  0  0  0  0  0  0  0
    1.9391   -2.8048    4.7525 H   0  0  0  0  0  0  0  0  0  0  0  0
    0.9704    2.0151    0.8849 H   0  0  0  0  0  0  0  0  0  0  0  0
   -0.9791    1.6507   -0.5691 H   0  0  0  0  0  0  0  0  0  0  0  0
   -7.4108   -1.9577    0.2494 H   0  0  0  0  0  0  0  0  0  0  0  0
   -8.7550   -2.8138   -1.6367 H   0  0  0  0  0  0  0  0  0  0  0  0
   -8.8184   -1.5173   -3.7752 H   0  0  0  0  0  0  0  0  0  0  0  0
   -7.5013    0.6012   -3.8967 H   0  0  0  0  0  0  0  0  0  0  0  0
  1  2  1  0
  2  3  1  0
  3  4  1  0
  4  5  1  0
  5  6  1  0
  6  7  2  0
  7  8  1  0
  8  9  2  0
  9 10  1  0
 10 11  1  0
 11 12  1  0
 12 13  1  0
 13 14  2  0
 14 15  1  0
 15 16  2  0
 16 17  1  0
 17 18  2  0
 18 19  1  0
 19 20  2  0
 19 21  1  0
 21 22  2  0
 22 23  1  0
 23 24  2  0
 24 25  1  0
 25 26  2  0
 11 27  1  0
 27 28  2  0
 27 29  1  0
  9 30  1  0
 30 31  2  0
  2 32  1  0
 32 33  2  0
 33 34  1  0
 34 35  2  0
 35 36  1  0
 36 37  2  0
 31  6  1  0
 37 32  1  0
 18 13  1  0
 26 21  1  0
  1 38  1  0
  1 39  1  0
  1 40  1  0
  3 41  1  0
  3 42  1  0
  4 43  1  0
  4 44  1  0
  7 45  1  0
  8 46  1  0
 10 47  1  0
 10 48  1  0
 11 49  1  1
 12 50  1  0
 14 51  1  0
 15 52  1  0
 16 53  1  0
 17 54  1  0
 22 55  1  0
 23 56  1  0
 24 57  1  0
 25 58  1  0
 26 59  1  0
 29 60  1  0
 30 61  1  0
 31 62  1  0
 33 63  1  0
 34 64  1  0
 35 65  1  0
 36 66  1  0
M  END
$$$$
