
     RDKit          3D

 42 44  0  0  0  0  0  0  0  0999 V2000
    0.0030    0.7697    0.0824 O   0  0  0  0  0  0  0  0  0  0  0  0
   -0.3606    0.1079   -0.8873 C   0  0  0  0  0  0  0  0  0  0  0  0
   -1.4126    0.4509   -1.7087 N   0  0  0  0  0  0  0  0  0  0  0  0
   -2.3237    1.5452   -1.4140 C   0  0  0  0  0  0  0  0  0  0  0  0
   -3.3324    1.1231   -0.3371 C   0  0  0  0  0  0  0  0  0  0  0  0
   -4.5909    1.9781   -0.4050 C   0  0  0  0  0  0  0  0  0  0  0  0
   -5.2816    1.8975   -1.6923 N   0  0  0  0  0  0  0  0  0  0  0  0
   -4.4290    1.4921   -2.8101 C   0  0  0  0  0  0  0  0  0  0  0  0
   -3.0136    2.0459   -2.6896 C   0  0  0  0  0  0  0  0  0  0  0  0
    0.2920   -1.1527   -1.2699 C   0  0  0  0  0  0  0  0  0  0  0  0
   -0.1444   -1.9025   -2.3061 N   0  0  0  0  0  0  0  0  0  0  0  0
    0.7054   -2.9469   -2.3197 N   0  0  0  0  0  0  0  0  0  0  0  0
    1.6496   -2.9021   -1.3400 C   0  0  0  0  0  0  0  0  0  0  0  0
    1.4170   -1.7510   -0.6317 C   0  0  0  0  0  0  0  0  0  0  0  0
    2.1032   -1.2536    0.4632 N   0  0  0  0  0  0  0  0  0  0  0  0
    3.1867   -1.8591    1.0617 C   0  0  0  0  0  0  0  0  0  0  0  0
    3.7305   -2.9114    0.7527 O   0  0  0  0  0  0  0  0  0  0  0  0
    3.7215   -1.1112    2.2098 C   0  0  0  0  0  0  0  0  0  0  0  0
    3.2071   -1.3341    3.4918 C   0  0  0  0  0  0  0  0  0  0  0  0
    1.9180   -2.4440    3.7916 Cl  0  0  0  0  0  0  0  0  0  0  0  0
    3.7305   -0.6340    4.5832 C   0  0  0  0  0  0  0  0  0  0  0  0
    4.7654    0.2832    4.3975 C   0  0  0  0  0  0  0  0  0  0  0  0
    5.2785    0.5042    3.1190 C   0  0  0  0  0  0  0  0  0  0  0  0
    4.7599   -0.1923    2.0229 C   0  0  0  0  0  0  0  0  0  0  0  0
    5.4287    0.1446    0.4664 Cl  0  0  0  0  0  0  0  0  0  0  0  0
   -1.6636   -0.2651   -2.3872 H   0  0  0  0  0  0  0  0  0  0  0  0
   -1.7123    2.3665   -1.0180 H   0  0  0  0  0  0  0  0  0  0  0  0
   -2.8733    1.2077    0.6553 H   0  0  0  0  0  0  0  0  0  0  0  0
   -3.6053    0.0656   -0.4563 H   0  0  0  0  0  0  0  0  0  0  0  0
   -5.2830    1.6836    0.3919 H   0  0  0  0  0  0  0  0  0  0  0  0
   -4.3305    3.0264   -0.2152 H   0  0  0  0  0  0  0  0  0  0  0  0
   -6.0768    1.2618   -1.6272 H   0  0  0  0  0  0  0  0  0  0  0  0
   -4.3934    0.3972   -2.8696 H   0  0  0  0  0  0  0  0  0  0  0  0
   -4.8848    1.8452   -3.7413 H   0  0  0  0  0  0  0  0  0  0  0  0
   -2.4315    1.7913   -3.5834 H   0  0  0  0  0  0  0  0  0  0  0  0
   -3.0685    3.1425   -2.6594 H   0  0  0  0  0  0  0  0  0  0  0  0
    0.5824   -3.6622   -3.0294 H   0  0  0  0  0  0  0  0  0  0  0  0
    2.3910   -3.6823   -1.2373 H   0  0  0  0  0  0  0  0  0  0  0  0
    1.7479   -0.3721    0.8310 H   0  0  0  0  0  0  0  0  0  0  0  0
    3.3362   -0.8005    5.5837 H   0  0  0  0  0  0  0  0  0  0  0  0
    5.1723    0.8252    5.2487 H   0  0  0  0  0  0  0  0  0  0  0  0
    6.0853    1.2217    2.9826 H   0  0  0  0  0  0  0  0  0  0  0  0
  1  2  2  0
  2  3  1  0
  3  4  1  0
  4  5  1  0
  5  6  1  0
  6  7  1  0
  7  8  1  0
  8  9  1  0
  2 10  1  0
 10 11  2  0
 11 12  1  0
 12 13  1  0
 13 14  2  0
 14 15  1  0
 15 16  1  0
 16 17  2  0
 16 18  1  0
 18 19  2  0
 19 20  1  0
 19 21  1  0
 21 22  2  0
 22 23  1  0
 23 24  2  0
 24 25  1  0
  9  4  1  0
 14 10  1  0
 24 18  1  0
  3 26  1  0
  4 27  1  0
  5 28  1  0
  5 29  1  0
  6 30  1  0
  6 31  1  0
  7 32  1  0
  8 33  1  0
  8 34  1  0
  9 35  1  0
  9 36  1  0
 12 37  1  0
 13 38  1  0
 15 39  1  0
 21 40  1  0
 22 41  1  0
 23 42  1  0
M  END
$$$$
