
     RDKit          3D

 39 41  0  0  0  0  0  0  0  0999 V2000
    1.5560   -4.0310    0.5006 C   0  0  0  0  0  0  0  0  0  0  0  0
    1.8056   -2.5794    0.3524 C   0  0  0  0  0  0  0  0  0  0  0  0
    0.7553   -1.6747    0.2430 C   0  0  0  0  0  0  0  0  0  0  0  0
    0.9105   -0.3198    0.0817 C   0  0  0  0  0  0  0  0  0  0  0  0
   -0.1043    0.6119   -0.1021 N   0  0  0  0  0  0  0  0  0  0  0  0
   -1.4933    0.4287   -0.2964 C   0  0  0  0  0  0  0  0  0  0  0  0
   -2.0817   -0.6648   -0.8603 C   0  0  0  0  0  0  0  0  0  0  0  0
   -3.4774   -0.6937   -0.9840 C   0  0  0  0  0  0  0  0  0  0  0  0
   -4.3192    0.3193   -0.5750 C   0  0  0  0  0  0  0  0  0  0  0  0
   -6.0785    0.2522   -0.9999 S   0  0  0  0  0  6  0  0  0  0  0  0
   -7.0183    1.1069    1.0991 F   0  0  0  0  0  0  0  0  0  0  0  0
   -6.5658    0.2215   -2.1182 F   0  0  0  0  0  0  0  0  0  0  0  0
   -6.2578   -0.8670    1.0386 F   0  0  0  0  0  0  0  0  0  0  0  0
   -7.1375   -1.4082   -0.8561 F   0  0  0  0  0  0  0  0  0  0  0  0
   -7.1540    1.7952   -0.8403 F   0  0  0  0  0  0  0  0  0  0  0  0
   -3.7306    1.3773   -0.0247 C   0  0  0  0  0  0  0  0  0  0  0  0
   -2.3403    1.4561    0.1231 C   0  0  0  0  0  0  0  0  0  0  0  0
    2.2129    0.0919    0.0398 N   0  0  0  0  0  0  0  0  0  0  0  0
    2.7389    1.3122   -0.0942 N   0  0  0  0  0  0  0  0  0  0  0  0
    4.0888    1.2524   -0.0772 C   0  0  0  0  0  0  0  0  0  0  0  0
    5.1200    2.3021   -0.1938 C   0  0  0  0  0  0  0  0  0  0  0  0
    6.0668    2.2945    1.0078 C   0  0  0  0  0  0  0  0  0  0  0  0
    4.5266    3.5507   -0.2844 F   0  0  0  0  0  0  0  0  0  0  0  0
    5.9332    2.0918   -1.3025 F   0  0  0  0  0  0  0  0  0  0  0  0
    4.3811   -0.0570    0.0741 N   0  0  0  0  0  0  0  0  0  0  0  0
    3.2474   -0.7630    0.1451 C   0  0  0  0  0  0  0  0  0  0  0  0
    3.0461   -2.0798    0.2985 N   0  0  0  0  0  0  0  0  0  0  0  0
    0.4393   -4.1863    0.5195 H   0  0  0  0  0  0  0  0  0  0  0  0
    2.0470   -4.4819    1.3647 H   0  0  0  0  0  0  0  0  0  0  0  0
    1.8721   -4.4919   -0.4675 H   0  0  0  0  0  0  0  0  0  0  0  0
   -0.2252   -2.0882    0.3192 H   0  0  0  0  0  0  0  0  0  0  0  0
    0.2334    1.6481   -0.0846 H   0  0  0  0  0  0  0  0  0  0  0  0
   -1.5776   -1.5007   -1.2466 H   0  0  0  0  0  0  0  0  0  0  0  0
   -4.0198   -1.5398   -1.4141 H   0  0  0  0  0  0  0  0  0  0  0  0
   -4.3229    2.1990    0.3209 H   0  0  0  0  0  0  0  0  0  0  0  0
   -1.9649    2.3539    0.5778 H   0  0  0  0  0  0  0  0  0  0  0  0
    7.0011    2.8424    0.7687 H   0  0  0  0  0  0  0  0  0  0  0  0
    5.5450    2.7019    1.8934 H   0  0  0  0  0  0  0  0  0  0  0  0
    6.3421    1.2174    1.1954 H   0  0  0  0  0  0  0  0  0  0  0  0
  1  2  1  0
  2  3  1  0
  3  4  2  0
  4  5  1  0
  5  6  1  0
  6  7  2  0
  7  8  1  0
  8  9  2  0
  9 10  1  0
 10 11  1  0
 10 12  1  0
 10 13  1  0
 10 14  1  0
 10 15  1  0
  9 16  1  0
 16 17  2  0
  4 18  1  0
 18 19  1  0
 19 20  2  0
 20 21  1  0
 21 22  1  0
 21 23  1  0
 21 24  1  0
 20 25  1  0
 25 26  2  0
 26 27  1  0
 27  2  2  0
 17  6  1  0
 26 18  1  0
  1 28  1  0
  1 29  1  0
  1 30  1  0
  3 31  1  0
  5 32  1  0
  7 33  1  0
  8 34  1  0
 16 35  1  0
 17 36  1  0
 22 37  1  0
 22 38  1  0
 22 39  1  0
M  END
$$$$
