
     RDKit          3D

 25 25  0  0  0  0  0  0  0  0999 V2000
    0.6884    0.0000    0.0000 Cl  0  0  0  0  0  0  0  0  0  0  0  0
   -0.5506   -1.1900   -2.5345 Cl  0  0  0  0  0  0  0  0  0  0  0  0
   -1.6024   -0.6426   -1.2439 C   0  0  0  0  0  0  0  0  0  0  0  0
   -2.8580   -0.1716   -1.5530 C   0  0  0  0  0  0  0  0  0  0  0  0
   -3.6976    0.2623   -0.5544 C   0  0  0  0  0  0  0  0  0  0  0  0
   -3.2212    0.2004    0.7474 C   0  0  0  0  0  0  0  0  0  0  0  0
   -1.9663   -0.2688    1.0726 C   0  0  0  0  0  0  0  0  0  0  0  0
   -1.4091   -0.3269    2.7404 Cl  0  0  0  0  0  0  0  0  0  0  0  0
   -1.1340   -0.7009    0.0617 C   0  0  0  0  0  0  0  0  0  0  0  0
    0.1762   -1.2013    0.2952 N   0  0  0  0  0  0  0  0  0  0  0  0
    1.3298   -0.3509    0.3105 C   0  0  0  0  0  0  0  0  0  0  0  0
    1.2891    0.8677   -0.1149 N   0  0  0  0  0  0  0  0  0  0  0  0
    2.5645    1.5111    0.0030 C   0  0  0  0  0  0  0  0  0  0  0  0
    3.5050    0.3612    0.2346 C   0  0  0  0  0  0  0  0  0  0  0  0
    2.6358   -0.6715    0.7645 N   0  0  0  0  0  0  0  0  0  0  0  0
   -0.6884    0.0000    0.0000 H   0  0  0  0  0  0  0  0  0  0  0  0
   -3.2183   -0.1275   -2.5655 H   0  0  0  0  0  0  0  0  0  0  0  0
   -4.7104    0.6469   -0.7563 H   0  0  0  0  0  0  0  0  0  0  0  0
   -3.8765    0.5416    1.5528 H   0  0  0  0  0  0  0  0  0  0  0  0
    0.2773   -2.2220    0.4580 H   0  0  0  0  0  0  0  0  0  0  0  0
    2.5885    2.2638    0.8253 H   0  0  0  0  0  0  0  0  0  0  0  0
    2.7602    2.0344   -0.9608 H   0  0  0  0  0  0  0  0  0  0  0  0
    4.3218    0.6088    0.9406 H   0  0  0  0  0  0  0  0  0  0  0  0
    3.9329    0.0736   -0.7644 H   0  0  0  0  0  0  0  0  0  0  0  0
    2.8632   -1.4980    1.3583 H   0  0  0  0  0  0  0  0  0  0  0  0
  2  3  1  0
  3  4  2  0
  4  5  1  0
  5  6  2  0
  6  7  1  0
  7  8  1  0
  7  9  2  0
  9 10  1  0
 10 11  1  0
 11 12  2  0
 12 13  1  0
 13 14  1  0
 14 15  1  0
  9  3  1  0
 15 11  1  0
  1 16  1  0
  4 17  1  0
  5 18  1  0
  6 19  1  0
 10 20  1  0
 13 21  1  0
 13 22  1  0
 14 23  1  0
 14 24  1  0
 15 25  1  0
M  END
$$$$
