
     RDKit          3D

 45 48  0  0  0  0  0  0  0  0999 V2000
    4.7485    3.5303    0.5064 O   0  0  0  0  0  0  0  0  0  0  0  0
    3.7586    3.3011   -0.1631 C   0  0  0  0  0  0  0  0  0  0  0  0
    3.1896    4.2775   -0.9005 O   0  0  0  0  0  0  0  0  0  0  0  0
    3.0585    1.9961   -0.2786 C   0  0  0  0  0  0  0  0  0  0  0  0
    3.6116    0.9286    0.4319 C   0  0  0  0  0  0  0  0  0  0  0  0
    3.0530   -0.3520    0.3662 C   0  0  0  0  0  0  0  0  0  0  0  0
    3.6684   -1.4033    1.0672 C   0  0  0  0  0  0  0  0  0  0  0  0
    3.1705   -2.7008    0.9996 C   0  0  0  0  0  0  0  0  0  0  0  0
    2.0564   -2.9622    0.2188 C   0  0  0  0  0  0  0  0  0  0  0  0
    1.4332   -1.9223   -0.4774 C   0  0  0  0  0  0  0  0  0  0  0  0
    1.8887   -0.5850   -0.4125 C   0  0  0  0  0  0  0  0  0  0  0  0
    1.2710    0.5162   -1.0875 C   0  0  0  0  0  0  0  0  0  0  0  0
   -0.0204    0.3602   -1.8992 C   0  0  0  0  0  0  0  0  0  0  0  0
   -1.2667   -0.1350   -1.1568 C   0  0  0  0  0  0  0  0  0  0  0  0
   -1.9077   -1.3126   -1.6071 C   0  0  0  0  0  0  0  0  0  0  0  0
   -1.3893   -1.9316   -2.7222 O   0  0  0  0  0  0  0  0  0  0  0  0
   -3.0256   -1.8369   -0.9418 C   0  0  0  0  0  0  0  0  0  0  0  0
   -3.6574   -3.0855   -1.4274 C   0  0  0  0  0  0  0  0  0  0  0  0
   -3.2759   -3.7135   -2.4016 O   0  0  0  0  0  0  0  0  0  0  0  0
   -4.7107   -3.4882   -0.6981 O   0  0  0  0  0  0  0  0  0  0  0  0
   -3.5305   -1.1736    0.1771 C   0  0  0  0  0  0  0  0  0  0  0  0
   -2.9592    0.0240    0.6210 C   0  0  0  0  0  0  0  0  0  0  0  0
   -3.5224    0.6797    1.7293 C   0  0  0  0  0  0  0  0  0  0  0  0
   -3.0119    1.8917    2.1839 C   0  0  0  0  0  0  0  0  0  0  0  0
   -1.9376    2.4674    1.5256 C   0  0  0  0  0  0  0  0  0  0  0  0
   -1.3660    1.8210    0.4256 C   0  0  0  0  0  0  0  0  0  0  0  0
   -1.8346    0.5747   -0.0507 C   0  0  0  0  0  0  0  0  0  0  0  0
    1.9007    1.7832   -1.0398 C   0  0  0  0  0  0  0  0  0  0  0  0
    1.3265    2.7995   -1.7658 O   0  0  0  0  0  0  0  0  0  0  0  0
    3.7687    5.0521   -0.7170 H   0  0  0  0  0  0  0  0  0  0  0  0
    4.5074    1.0958    1.0296 H   0  0  0  0  0  0  0  0  0  0  0  0
    4.5551   -1.2198    1.6713 H   0  0  0  0  0  0  0  0  0  0  0  0
    3.6595   -3.5039    1.5437 H   0  0  0  0  0  0  0  0  0  0  0  0
    1.6678   -3.9742    0.1402 H   0  0  0  0  0  0  0  0  0  0  0  0
    0.5860   -2.1898   -1.0982 H   0  0  0  0  0  0  0  0  0  0  0  0
    0.2356   -0.2915   -2.7432 H   0  0  0  0  0  0  0  0  0  0  0  0
   -0.3147    1.3011   -2.3796 H   0  0  0  0  0  0  0  0  0  0  0  0
   -1.9276   -2.7229   -2.9425 H   0  0  0  0  0  0  0  0  0  0  0  0
   -5.0175   -4.3103   -1.1351 H   0  0  0  0  0  0  0  0  0  0  0  0
   -4.3934   -1.5810    0.7003 H   0  0  0  0  0  0  0  0  0  0  0  0
   -4.3775    0.2512    2.2488 H   0  0  0  0  0  0  0  0  0  0  0  0
   -3.4603    2.3880    3.0400 H   0  0  0  0  0  0  0  0  0  0  0  0
   -1.5400    3.4227    1.8579 H   0  0  0  0  0  0  0  0  0  0  0  0
   -0.5489    2.3318   -0.0702 H   0  0  0  0  0  0  0  0  0  0  0  0
    1.8807    3.6019   -1.6626 H   0  0  0  0  0  0  0  0  0  0  0  0
  1  2  2  0
  2  3  1  0
  2  4  1  0
  4  5  2  0
  5  6  1  0
  6  7  2  0
  7  8  1  0
  8  9  2  0
  9 10  1  0
 10 11  2  0
 11 12  1  0
 12 13  1  0
 13 14  1  0
 14 15  2  0
 15 16  1  0
 15 17  1  0
 17 18  1  0
 18 19  2  0
 18 20  1  0
 17 21  2  0
 21 22  1  0
 22 23  2  0
 23 24  1  0
 24 25  2  0
 25 26  1  0
 26 27  2  0
 12 28  2  0
 28 29  1  0
 28  4  1  0
 11  6  1  0
 27 14  1  0
 27 22  1  0
  3 30  1  0
  5 31  1  0
  7 32  1  0
  8 33  1  0
  9 34  1  0
 10 35  1  0
 13 36  1  0
 13 37  1  0
 16 38  1  0
 20 39  1  0
 21 40  1  0
 23 41  1  0
 24 42  1  0
 25 43  1  0
 26 44  1  0
 29 45  1  0
M  END
$$$$
