
     RDKit          3D

 35 35  0  0  0  0  0  0  0  0999 V2000
   -4.3579   -1.6992    0.4982 C   0  0  0  0  0  0  0  0  0  0  0  0
   -3.6590   -0.3659    0.7677 C   0  0  0  0  0  0  0  0  0  0  0  0
   -4.3662    0.7856    0.0520 C   0  0  0  0  0  0  0  0  0  0  0  0
   -2.2128   -0.4132    0.4940 N   0  0  0  0  0  0  0  0  0  0  0  0
   -1.8534   -0.6338   -0.9197 C   0  0  0  0  0  0  0  0  0  0  0  0
   -0.3342   -0.8764   -1.0620 C   0  0  2  0  0  0  0  0  0  0  0  0
    0.0346   -1.9176   -0.1402 O   0  0  0  0  0  0  0  0  0  0  0  0
    0.4923    0.3873   -0.7824 C   0  0  0  0  0  0  0  0  0  0  0  0
    1.7969    0.2538   -1.3732 O   0  0  0  0  0  0  0  0  0  0  0  0
    2.8242    0.4583   -0.4956 C   0  0  0  0  0  0  0  0  0  0  0  0
    3.7806    1.4106   -0.8480 C   0  0  0  0  0  0  0  0  0  0  0  0
    4.8739    1.6467   -0.0120 C   0  0  0  0  0  0  0  0  0  0  0  0
    5.0062    0.9100    1.1617 C   0  0  0  0  0  0  0  0  0  0  0  0
    6.0566    1.1069    2.0084 O   0  0  0  0  0  0  0  0  0  0  0  0
    4.0715   -0.0612    1.5043 C   0  0  0  0  0  0  0  0  0  0  0  0
    2.9799   -0.2963    0.6670 C   0  0  0  0  0  0  0  0  0  0  0  0
   -5.3786   -1.6799    0.8967 H   0  0  0  0  0  0  0  0  0  0  0  0
   -4.4289   -1.9213   -0.5714 H   0  0  0  0  0  0  0  0  0  0  0  0
   -3.8300   -2.5251    0.9874 H   0  0  0  0  0  0  0  0  0  0  0  0
   -3.7501   -0.1785    1.8453 H   0  0  0  0  0  0  0  0  0  0  0  0
   -4.3961    0.6388   -1.0329 H   0  0  0  0  0  0  0  0  0  0  0  0
   -5.4010    0.8729    0.4017 H   0  0  0  0  0  0  0  0  0  0  0  0
   -3.8676    1.7398    0.2560 H   0  0  0  0  0  0  0  0  0  0  0  0
   -1.8037    0.4682    0.8101 H   0  0  0  0  0  0  0  0  0  0  0  0
   -2.1572    0.2099   -1.5479 H   0  0  0  0  0  0  0  0  0  0  0  0
   -2.3560   -1.5348   -1.2863 H   0  0  0  0  0  0  0  0  0  0  0  0
   -0.1143   -1.2490   -2.0690 H   0  0  0  0  0  0  0  0  0  0  0  0
   -0.5924   -1.8247    0.6074 H   0  0  0  0  0  0  0  0  0  0  0  0
    0.5339    0.6049    0.2927 H   0  0  0  0  0  0  0  0  0  0  0  0
    0.0288    1.2494   -1.2760 H   0  0  0  0  0  0  0  0  0  0  0  0
    3.6712    1.9695   -1.7731 H   0  0  0  0  0  0  0  0  0  0  0  0
    5.6054    2.3965   -0.2938 H   0  0  0  0  0  0  0  0  0  0  0  0
    6.6339    1.7904    1.6309 H   0  0  0  0  0  0  0  0  0  0  0  0
    4.1981   -0.6428    2.4126 H   0  0  0  0  0  0  0  0  0  0  0  0
    2.2711   -1.0799    0.9184 H   0  0  0  0  0  0  0  0  0  0  0  0
  1  2  1  0
  2  3  1  0
  2  4  1  0
  4  5  1  0
  5  6  1  0
  6  7  1  0
  6  8  1  0
  8  9  1  0
  9 10  1  0
 10 11  2  0
 11 12  1  0
 12 13  2  0
 13 14  1  0
 13 15  1  0
 15 16  2  0
 16 10  1  0
  1 17  1  0
  1 18  1  0
  1 19  1  0
  2 20  1  0
  3 21  1  0
  3 22  1  0
  3 23  1  0
  4 24  1  0
  5 25  1  0
  5 26  1  0
  6 27  1  6
  7 28  1  0
  8 29  1  0
  8 30  1  0
 11 31  1  0
 12 32  1  0
 14 33  1  0
 15 34  1  0
 16 35  1  0
M  END
$$$$
