
     RDKit          3D

 47 49  0  0  0  0  0  0  0  0999 V2000
   -0.9447   -4.9425    3.4382 C   0  0  0  0  0  0  0  0  0  0  0  0
   -1.1396   -4.3832    2.0866 C   0  0  0  0  0  0  0  0  0  0  0  0
   -1.9344   -4.9540    1.1756 N   0  0  0  0  0  0  0  0  0  0  0  0
   -1.8084   -4.1069    0.1417 N   0  0  0  0  0  0  0  0  0  0  0  0
   -0.9589   -3.0749    0.4363 C   0  0  0  0  0  0  0  0  0  0  0  0
   -0.6163   -2.0120   -0.5578 C   0  0  2  0  0  0  0  0  0  0  0  0
    0.5046   -1.0967   -0.0478 C   0  0  0  0  0  0  0  0  0  0  0  0
    0.1989    0.2348   -0.7236 C   0  0  2  0  0  0  0  0  0  0  0  0
    0.8364    1.3582   -0.0644 N   0  0  0  0  0  0  0  0  0  0  0  0
    2.1572    1.6683   -0.3255 C   0  0  0  0  0  0  0  0  0  0  0  0
    2.8181    1.1041   -1.1893 O   0  0  0  0  0  0  0  0  0  0  0  0
    2.6944    2.7616    0.5829 C   0  0  0  0  0  0  0  0  0  0  0  0
    4.0910    3.2620    0.1842 C   0  0  0  0  0  0  0  0  0  0  0  0
    4.0358    4.1205   -1.0821 C   0  0  0  0  0  0  0  0  0  0  0  0
    4.7055    4.0708    1.3285 C   0  0  0  0  0  0  0  0  0  0  0  0
   -1.3309    0.2813   -0.6899 C   0  0  0  0  0  0  0  0  0  0  0  0
   -1.7459   -1.1116   -0.8055 N   0  0  0  0  0  0  0  0  0  0  0  0
   -2.8918   -1.5495   -1.4578 C   0  0  0  0  0  0  0  0  0  0  0  0
   -2.9749   -2.7147   -1.8570 O   0  0  0  0  0  0  0  0  0  0  0  0
   -4.0141   -0.6105   -1.6382 C   0  0  0  0  0  0  0  0  0  0  0  0
   -5.1179   -0.9129   -2.4217 C   0  0  0  0  0  0  0  0  0  0  0  0
   -6.2518    0.3702   -2.3969 S   0  0  0  0  0  0  0  0  0  0  0  0
   -5.2201    1.2321   -1.3378 C   0  0  0  0  0  0  0  0  0  0  0  0
   -4.0944    0.6366   -1.0119 N   0  0  0  0  0  0  0  0  0  0  0  0
   -0.5259   -3.2295    1.6728 N   0  0  0  0  0  0  0  0  0  0  0  0
   -0.9120   -6.0364    3.4106 H   0  0  0  0  0  0  0  0  0  0  0  0
   -0.0048   -4.5874    3.8725 H   0  0  0  0  0  0  0  0  0  0  0  0
   -1.7636   -4.6364    4.0966 H   0  0  0  0  0  0  0  0  0  0  0  0
   -2.3459   -4.2481   -0.7109 H   0  0  0  0  0  0  0  0  0  0  0  0
   -0.3278   -2.4643   -1.5152 H   0  0  0  0  0  0  0  0  0  0  0  0
    0.4726   -0.9711    1.0427 H   0  0  0  0  0  0  0  0  0  0  0  0
    1.4987   -1.4817   -0.2995 H   0  0  0  0  0  0  0  0  0  0  0  0
    0.5381    0.1926   -1.7673 H   0  0  0  0  0  0  0  0  0  0  0  0
    0.4448    1.6841    0.8116 H   0  0  0  0  0  0  0  0  0  0  0  0
    1.9811    3.5948    0.5969 H   0  0  0  0  0  0  0  0  0  0  0  0
    2.7308    2.3363    1.5941 H   0  0  0  0  0  0  0  0  0  0  0  0
    4.7461    2.4035   -0.0112 H   0  0  0  0  0  0  0  0  0  0  0  0
    3.4037    5.0032   -0.9366 H   0  0  0  0  0  0  0  0  0  0  0  0
    5.0379    4.4664   -1.3579 H   0  0  0  0  0  0  0  0  0  0  0  0
    3.6370    3.5565   -1.9309 H   0  0  0  0  0  0  0  0  0  0  0  0
    5.7084    4.4213    1.0626 H   0  0  0  0  0  0  0  0  0  0  0  0
    4.7961    3.4591    2.2325 H   0  0  0  0  0  0  0  0  0  0  0  0
    4.0930    4.9460    1.5712 H   0  0  0  0  0  0  0  0  0  0  0  0
   -1.7066    0.6669    0.2644 H   0  0  0  0  0  0  0  0  0  0  0  0
   -1.7112    0.8946   -1.5116 H   0  0  0  0  0  0  0  0  0  0  0  0
   -5.3019   -1.8136   -2.9917 H   0  0  0  0  0  0  0  0  0  0  0  0
   -5.4863    2.2120   -0.9626 H   0  0  0  0  0  0  0  0  0  0  0  0
  1  2  1  0
  2  3  2  0
  3  4  1  0
  4  5  1  0
  5  6  1  0
  6  7  1  0
  7  8  1  0
  8  9  1  0
  9 10  1  0
 10 11  2  0
 10 12  1  0
 12 13  1  0
 13 14  1  0
 13 15  1  0
  8 16  1  0
 16 17  1  0
 17 18  1  0
 18 19  2  0
 18 20  1  0
 20 21  2  0
 21 22  1  0
 22 23  1  0
 23 24  2  0
  5 25  2  0
 25  2  1  0
 17  6  1  0
 24 20  1  0
  1 26  1  0
  1 27  1  0
  1 28  1  0
  4 29  1  0
  6 30  1  6
  7 31  1  0
  7 32  1  0
  8 33  1  6
  9 34  1  0
 12 35  1  0
 12 36  1  0
 13 37  1  0
 14 38  1  0
 14 39  1  0
 14 40  1  0
 15 41  1  0
 15 42  1  0
 15 43  1  0
 16 44  1  0
 16 45  1  0
 21 46  1  0
 23 47  1  0
M  END
$$$$
