
     RDKit          3D

 65 69  0  0  0  0  0  0  0  0999 V2000
    8.9827    0.5414    0.1579 C   0  0  0  0  0  0  0  0  0  0  0  0
    7.7745    0.9187    0.8943 N   0  0  0  0  0  0  0  0  0  0  0  0
    8.1361    1.7800    2.0241 C   0  0  0  0  0  0  0  0  0  0  0  0
    6.7893    1.6044    0.0362 C   0  0  0  0  0  0  0  0  0  0  0  0
    6.1575    0.6807   -1.0149 C   0  0  0  0  0  0  0  0  0  0  0  0
    5.1094    1.4139   -1.8558 C   0  0  0  0  0  0  0  0  0  0  0  0
    4.0602    1.9622   -1.0562 O   0  0  0  0  0  0  0  0  0  0  0  0
    3.0445    1.0817   -0.7454 C   0  0  0  0  0  0  0  0  0  0  0  0
    2.0553    1.5632    0.0951 C   0  0  0  0  0  0  0  0  0  0  0  0
    1.0082    0.7121    0.4467 C   0  0  0  0  0  0  0  0  0  0  0  0
    0.9680   -0.5974   -0.0479 C   0  0  0  0  0  0  0  0  0  0  0  0
   -0.1169   -1.5263    0.2982 C   0  0  0  0  0  0  0  0  0  0  0  0
    0.1533   -2.7961    0.8063 C   0  0  0  0  0  0  0  0  0  0  0  0
   -0.8902   -3.6586    1.1494 C   0  0  0  0  0  0  0  0  0  0  0  0
   -2.2211   -3.3083    0.9944 C   0  0  0  0  0  0  0  0  0  0  0  0
   -3.1325   -4.2194    1.3931 N   0  0  0  0  0  0  0  0  0  0  0  0
   -4.4411   -3.9186    1.2899 C   0  0  0  0  0  0  0  0  0  0  0  0
   -4.8560   -2.7271    0.7635 C   0  0  0  0  0  0  0  0  0  0  0  0
   -3.9280   -1.7852    0.3123 C   0  0  0  0  0  0  0  0  0  0  0  0
   -2.5448   -2.0371    0.4503 C   0  0  0  0  0  0  0  0  0  0  0  0
   -1.4661   -1.1638    0.1329 C   0  0  0  0  0  0  0  0  0  0  0  0
   -4.6907   -0.6964   -0.2087 N   0  0  0  0  0  0  0  0  0  0  0  0
   -4.1989    0.5509   -0.7726 C   0  0  0  0  0  0  0  0  0  0  0  0
   -4.0530    1.6171    0.3177 C   0  0  0  0  0  0  0  0  0  0  0  0
   -3.8006    2.9831   -0.3004 C   0  0  0  0  0  0  0  0  0  0  0  0
   -4.7623    3.3822   -1.2745 O   0  0  0  0  0  0  0  0  0  0  0  0
   -5.7179    2.3849   -1.6335 C   0  0  0  0  0  0  0  0  0  0  0  0
   -5.0281    1.0715   -1.9664 C   0  0  0  0  0  0  0  0  0  0  0  0
   -6.0686   -0.9455    0.0427 C   0  0  0  0  0  0  0  0  0  0  0  0
   -7.0063   -0.1950   -0.1751 O   0  0  0  0  0  0  0  0  0  0  0  0
   -6.1475   -2.2271    0.5967 N   0  0  0  0  0  0  0  0  0  0  0  0
   -7.3530   -2.8802    1.0214 C   0  0  0  0  0  0  0  0  0  0  0  0
    2.0178   -0.9698   -0.8903 C   0  0  0  0  0  0  0  0  0  0  0  0
    3.0481   -0.1668   -1.2504 N   0  0  0  0  0  0  0  0  0  0  0  0
    9.4611    1.4036   -0.3209 H   0  0  0  0  0  0  0  0  0  0  0  0
    8.7640   -0.2075   -0.6094 H   0  0  0  0  0  0  0  0  0  0  0  0
    9.7128    0.0757    0.8305 H   0  0  0  0  0  0  0  0  0  0  0  0
    8.8338    1.2646    2.6948 H   0  0  0  0  0  0  0  0  0  0  0  0
    8.5996    2.7180    1.6967 H   0  0  0  0  0  0  0  0  0  0  0  0
    7.2508    2.0218    2.6242 H   0  0  0  0  0  0  0  0  0  0  0  0
    7.2444    2.4750   -0.4544 H   0  0  0  0  0  0  0  0  0  0  0  0
    5.9814    1.9867    0.6733 H   0  0  0  0  0  0  0  0  0  0  0  0
    6.9195    0.2890   -1.6960 H   0  0  0  0  0  0  0  0  0  0  0  0
    5.6991   -0.1752   -0.5062 H   0  0  0  0  0  0  0  0  0  0  0  0
    5.5909    2.2637   -2.3543 H   0  0  0  0  0  0  0  0  0  0  0  0
    4.7266    0.7802   -2.6653 H   0  0  0  0  0  0  0  0  0  0  0  0
    2.1035    2.5772    0.4754 H   0  0  0  0  0  0  0  0  0  0  0  0
    0.2364    1.0750    1.1210 H   0  0  0  0  0  0  0  0  0  0  0  0
    1.1782   -3.1256    0.9682 H   0  0  0  0  0  0  0  0  0  0  0  0
   -0.6508   -4.6369    1.5630 H   0  0  0  0  0  0  0  0  0  0  0  0
   -5.1288   -4.6755    1.6466 H   0  0  0  0  0  0  0  0  0  0  0  0
   -1.6569   -0.1677   -0.2425 H   0  0  0  0  0  0  0  0  0  0  0  0
   -3.2265    0.3392   -1.2166 H   0  0  0  0  0  0  0  0  0  0  0  0
   -3.2416    1.3575    1.0069 H   0  0  0  0  0  0  0  0  0  0  0  0
   -4.9679    1.6605    0.9228 H   0  0  0  0  0  0  0  0  0  0  0  0
   -3.7795    3.7508    0.4801 H   0  0  0  0  0  0  0  0  0  0  0  0
   -2.8190    2.9975   -0.7874 H   0  0  0  0  0  0  0  0  0  0  0  0
   -6.2599    2.7530   -2.5107 H   0  0  0  0  0  0  0  0  0  0  0  0
   -6.4488    2.2803   -0.8250 H   0  0  0  0  0  0  0  0  0  0  0  0
   -4.3334    1.2652   -2.7956 H   0  0  0  0  0  0  0  0  0  0  0  0
   -5.7438    0.3316   -2.3390 H   0  0  0  0  0  0  0  0  0  0  0  0
   -7.4020   -3.8802    0.5822 H   0  0  0  0  0  0  0  0  0  0  0  0
   -8.2281   -2.3077    0.7033 H   0  0  0  0  0  0  0  0  0  0  0  0
   -7.3555   -2.9534    2.1125 H   0  0  0  0  0  0  0  0  0  0  0  0
    2.0588   -1.9652   -1.3272 H   0  0  0  0  0  0  0  0  0  0  0  0
  1  2  1  0
  2  3  1  0
  2  4  1  0
  4  5  1  0
  5  6  1  0
  6  7  1  0
  7  8  1  0
  8  9  2  0
  9 10  1  0
 10 11  2  0
 11 12  1  0
 12 13  2  0
 13 14  1  0
 14 15  2  0
 15 16  1  0
 16 17  2  0
 17 18  1  0
 18 19  2  0
 19 20  1  0
 20 21  2  0
 19 22  1  0
 22 23  1  0
 23 24  1  0
 24 25  1  0
 25 26  1  0
 26 27  1  0
 27 28  1  0
 22 29  1  0
 29 30  2  0
 29 31  1  0
 31 32  1  0
 11 33  1  0
 33 34  2  0
 34  8  1  0
 21 12  1  0
 28 23  1  0
 20 15  1  0
 31 18  1  0
  1 35  1  0
  1 36  1  0
  1 37  1  0
  3 38  1  0
  3 39  1  0
  3 40  1  0
  4 41  1  0
  4 42  1  0
  5 43  1  0
  5 44  1  0
  6 45  1  0
  6 46  1  0
  9 47  1  0
 10 48  1  0
 13 49  1  0
 14 50  1  0
 17 51  1  0
 21 52  1  0
 23 53  1  0
 24 54  1  0
 24 55  1  0
 25 56  1  0
 25 57  1  0
 27 58  1  0
 27 59  1  0
 28 60  1  0
 28 61  1  0
 32 62  1  0
 32 63  1  0
 32 64  1  0
 33 65  1  0
M  END
$$$$
