
     RDKit          3D

 46 48  0  0  0  0  0  0  0  0999 V2000
   -0.1426   -5.5743    4.1066 C   0  0  0  0  0  0  0  0  0  0  0  0
   -0.5008   -4.6067    5.1286 N   0  0  0  0  0  0  0  0  0  0  0  0
   -0.6145   -3.2729    4.6806 C   0  0  0  0  0  0  0  0  0  0  0  0
   -0.1815   -2.9571    3.4412 N   0  0  0  0  0  0  0  0  0  0  0  0
   -0.2417   -1.6756    3.0356 C   0  0  0  0  0  0  0  0  0  0  0  0
    0.2179   -1.4441    1.7476 N   0  0  0  0  0  0  0  0  0  0  0  0
    0.3677   -0.3095    0.9342 C   0  0  0  0  0  0  0  0  0  0  0  0
    0.0180    0.9833    1.3432 C   0  0  0  0  0  0  0  0  0  0  0  0
    0.1757    2.0752    0.4865 C   0  0  0  0  0  0  0  0  0  0  0  0
    0.6695    1.8779   -0.8021 C   0  0  0  0  0  0  0  0  0  0  0  0
    0.8283    3.0487   -1.6923 C   0  0  0  0  0  0  0  0  0  0  0  0
    1.4965    3.9957   -1.2868 O   0  0  0  0  0  0  0  0  0  0  0  0
    0.2222    3.0224   -2.9419 N   0  0  0  0  0  0  0  0  0  0  0  0
   -0.8300    2.0839   -3.3523 C   0  0  0  0  0  0  0  0  0  0  0  0
   -1.8174    2.7509   -4.3163 C   0  0  0  0  0  0  0  0  0  0  0  0
   -1.1940    3.2636   -5.5011 O   0  0  0  0  0  0  0  0  0  0  0  0
    0.1414    3.7506   -5.2968 C   0  0  0  0  0  0  0  0  0  0  0  0
    0.4463    4.1469   -3.8502 C   0  0  0  0  0  0  0  0  0  0  0  0
    1.0522    0.6030   -1.2297 C   0  0  0  0  0  0  0  0  0  0  0  0
    0.8983   -0.4879   -0.3697 C   0  0  0  0  0  0  0  0  0  0  0  0
    1.2260   -1.7876   -0.6894 O   0  0  0  0  0  0  0  0  0  0  0  0
    1.8773   -2.0063   -1.9347 C   0  0  0  0  0  0  0  0  0  0  0  0
   -0.7149   -0.6854    3.8047 N   0  0  0  0  0  0  0  0  0  0  0  0
   -1.1288   -1.0161    5.0436 C   0  0  0  0  0  0  0  0  0  0  0  0
   -1.0993   -2.2962    5.5404 C   0  0  0  0  0  0  0  0  0  0  0  0
   -1.6665   -2.6287    7.1291 Cl  0  0  0  0  0  0  0  0  0  0  0  0
    0.8470   -5.3668    3.6854 H   0  0  0  0  0  0  0  0  0  0  0  0
   -0.1016   -6.5707    4.5583 H   0  0  0  0  0  0  0  0  0  0  0  0
   -0.8867   -5.6041    3.3032 H   0  0  0  0  0  0  0  0  0  0  0  0
   -1.3412   -4.8672    5.6398 H   0  0  0  0  0  0  0  0  0  0  0  0
    0.5480   -2.3033    1.3251 H   0  0  0  0  0  0  0  0  0  0  0  0
   -0.3764    1.1680    2.3376 H   0  0  0  0  0  0  0  0  0  0  0  0
   -0.0878    3.0742    0.8265 H   0  0  0  0  0  0  0  0  0  0  0  0
   -1.3628    1.6999   -2.4776 H   0  0  0  0  0  0  0  0  0  0  0  0
   -0.3269    1.2517   -3.8572 H   0  0  0  0  0  0  0  0  0  0  0  0
   -2.5822    2.0336   -4.6302 H   0  0  0  0  0  0  0  0  0  0  0  0
   -2.3320    3.5834   -3.8221 H   0  0  0  0  0  0  0  0  0  0  0  0
    0.8274    2.9600   -5.6224 H   0  0  0  0  0  0  0  0  0  0  0  0
    0.2869    4.6056   -5.9643 H   0  0  0  0  0  0  0  0  0  0  0  0
    1.4788    4.4998   -3.7565 H   0  0  0  0  0  0  0  0  0  0  0  0
   -0.2210    4.9549   -3.5275 H   0  0  0  0  0  0  0  0  0  0  0  0
    1.4714    0.4944   -2.2233 H   0  0  0  0  0  0  0  0  0  0  0  0
    1.2179   -1.7558   -2.7720 H   0  0  0  0  0  0  0  0  0  0  0  0
    2.8202   -1.4524   -1.9917 H   0  0  0  0  0  0  0  0  0  0  0  0
    2.1131   -3.0725   -2.0051 H   0  0  0  0  0  0  0  0  0  0  0  0
   -1.4971   -0.1867    5.6395 H   0  0  0  0  0  0  0  0  0  0  0  0
  1  2  1  0
  2  3  1  0
  3  4  2  0
  4  5  1  0
  5  6  1  0
  6  7  1  0
  7  8  2  0
  8  9  1  0
  9 10  2  0
 10 11  1  0
 11 12  2  0
 11 13  1  0
 13 14  1  0
 14 15  1  0
 15 16  1  0
 16 17  1  0
 17 18  1  0
 10 19  1  0
 19 20  2  0
 20 21  1  0
 21 22  1  0
  5 23  2  0
 23 24  1  0
 24 25  2  0
 25 26  1  0
 25  3  1  0
 20  7  1  0
 18 13  1  0
  1 27  1  0
  1 28  1  0
  1 29  1  0
  2 30  1  0
  6 31  1  0
  8 32  1  0
  9 33  1  0
 14 34  1  0
 14 35  1  0
 15 36  1  0
 15 37  1  0
 17 38  1  0
 17 39  1  0
 18 40  1  0
 18 41  1  0
 19 42  1  0
 22 43  1  0
 22 44  1  0
 22 45  1  0
 24 46  1  0
M  END
$$$$
