
     RDKit          3D

 35 36  0  0  0  0  0  0  0  0999 V2000
    0.6422    1.6387    0.8121 O   0  0  0  0  0  0  0  0  0  0  0  0
    0.3275    0.4644    0.6562 C   0  0  0  0  0  0  0  0  0  0  0  0
    1.1977   -0.5763    0.3716 N   0  0  0  0  0  0  0  0  0  0  0  0
    2.5943   -0.4983    0.1734 C   0  0  0  0  0  0  0  0  0  0  0  0
    3.3331    0.6848    0.2475 C   0  0  0  0  0  0  0  0  0  0  0  0
    4.7147    0.6654    0.0344 C   0  0  0  0  0  0  0  0  0  0  0  0
    5.6137    2.1314    0.1296 Cl  0  0  0  0  0  0  0  0  0  0  0  0
    5.3771   -0.5234   -0.2533 C   0  0  0  0  0  0  0  0  0  0  0  0
    4.6428   -1.7006   -0.3280 C   0  0  0  0  0  0  0  0  0  0  0  0
    5.4421   -3.1835   -0.6820 Cl  0  0  0  0  0  0  0  0  0  0  0  0
    3.2623   -1.6949   -0.1177 C   0  0  0  0  0  0  0  0  0  0  0  0
   -1.1329    0.0008    0.7627 C   0  0  1  0  0  0  0  0  0  0  0  0
   -2.0124    1.1072    1.3663 C   0  0  0  0  0  0  0  0  0  0  0  0
   -3.4755    0.6907    1.4467 C   0  0  0  0  0  0  0  0  0  0  0  0
   -4.0181    0.3114    0.0764 C   0  0  0  0  0  0  0  0  0  0  0  0
   -3.1841   -0.7846   -0.5810 C   0  0  0  0  0  0  0  0  0  0  0  0
   -1.6731   -0.5164   -0.5841 C   0  0  1  0  0  0  0  0  0  0  0  0
   -1.2416    0.3413   -1.7558 C   0  0  0  0  0  0  0  0  0  0  0  0
   -0.4112    0.0139   -2.5885 O   0  0  0  0  0  0  0  0  0  0  0  0
   -1.8310    1.5436   -1.8096 O   0  0  0  0  0  0  0  0  0  0  0  0
    0.7945   -1.5008    0.2831 H   0  0  0  0  0  0  0  0  0  0  0  0
    2.8621    1.6374    0.4676 H   0  0  0  0  0  0  0  0  0  0  0  0
    6.4506   -0.5301   -0.4178 H   0  0  0  0  0  0  0  0  0  0  0  0
    2.7160   -2.6319   -0.1868 H   0  0  0  0  0  0  0  0  0  0  0  0
   -1.1459   -0.8367    1.4756 H   0  0  0  0  0  0  0  0  0  0  0  0
   -1.6527    1.3531    2.3734 H   0  0  0  0  0  0  0  0  0  0  0  0
   -1.9302    2.0315    0.7814 H   0  0  0  0  0  0  0  0  0  0  0  0
   -3.5800   -0.1582    2.1334 H   0  0  0  0  0  0  0  0  0  0  0  0
   -4.0696    1.5124    1.8625 H   0  0  0  0  0  0  0  0  0  0  0  0
   -5.0546   -0.0317    0.1757 H   0  0  0  0  0  0  0  0  0  0  0  0
   -4.0472    1.1988   -0.5657 H   0  0  0  0  0  0  0  0  0  0  0  0
   -3.3636   -1.7197   -0.0339 H   0  0  0  0  0  0  0  0  0  0  0  0
   -3.5460   -0.9491   -1.6032 H   0  0  0  0  0  0  0  0  0  0  0  0
   -1.1991   -1.4894   -0.7815 H   0  0  0  0  0  0  0  0  0  0  0  0
   -1.4020    1.9986   -2.5653 H   0  0  0  0  0  0  0  0  0  0  0  0
  1  2  2  0
  2  3  1  0
  3  4  1  0
  4  5  2  0
  5  6  1  0
  6  7  1  0
  6  8  2  0
  8  9  1  0
  9 10  1  0
  9 11  2  0
  2 12  1  0
 12 13  1  0
 13 14  1  0
 14 15  1  0
 15 16  1  0
 16 17  1  0
 17 18  1  0
 18 19  2  0
 18 20  1  0
 11  4  1  0
 17 12  1  0
  3 21  1  0
  5 22  1  0
  8 23  1  0
 11 24  1  0
 12 25  1  1
 13 26  1  0
 13 27  1  0
 14 28  1  0
 14 29  1  0
 15 30  1  0
 15 31  1  0
 16 32  1  0
 16 33  1  0
 17 34  1  6
 20 35  1  0
M  END
$$$$
