
     RDKit          3D

 79 83  0  0  0  0  0  0  0  0999 V2000
    1.9249    4.2098   -0.9805 C   0  0  0  0  0  0  0  0  0  0  0  0
    0.6840    3.7789   -0.4314 O   0  0  0  0  0  0  0  0  0  0  0  0
    0.4019    2.4308   -0.5037 C   0  0  0  0  0  0  0  0  0  0  0  0
    1.3288    1.4414   -0.8699 C   0  0  0  0  0  0  0  0  0  0  0  0
    0.9806    0.0840   -0.8996 C   0  0  0  0  0  0  0  0  0  0  0  0
    1.8735   -0.9358   -1.2386 N   0  0  0  0  0  0  0  0  0  0  0  0
    2.9985   -0.6844   -2.1486 C   0  0  0  0  0  0  0  0  0  0  0  0
    4.3550   -0.9641   -1.4885 C   0  0  0  0  0  0  0  0  0  0  0  0
    4.3320   -0.6151    0.0067 C   0  0  0  0  0  0  0  0  0  0  0  0
    5.6233   -0.6999    0.7213 N   0  0  0  0  0  0  0  0  0  0  0  0
    6.3828   -1.9426    0.4953 C   0  0  0  0  0  0  0  0  0  0  0  0
    7.6928   -1.9818    1.3217 C   0  0  0  0  0  0  0  0  0  0  0  0
    8.5873   -0.8227    1.1258 N   0  0  0  0  0  0  0  0  0  0  0  0
    9.2623   -0.8712   -0.1687 C   0  0  0  0  0  0  0  0  0  0  0  0
    7.8026    0.4174    1.2864 C   0  0  0  0  0  0  0  0  0  0  0  0
    6.4858    0.4713    0.4723 C   0  0  0  0  0  0  0  0  0  0  0  0
    3.2506   -1.4333    0.7480 C   0  0  0  0  0  0  0  0  0  0  0  0
    2.1351   -1.9190   -0.1803 C   0  0  0  0  0  0  0  0  0  0  0  0
   -0.3386   -0.2429   -0.5573 C   0  0  0  0  0  0  0  0  0  0  0  0
   -1.2729    0.7338   -0.1920 C   0  0  0  0  0  0  0  0  0  0  0  0
   -0.9196    2.0813   -0.1499 C   0  0  0  0  0  0  0  0  0  0  0  0
   -1.8119    3.1065    0.1979 N   0  0  0  0  0  0  0  0  0  0  0  0
   -3.1754    3.1714    0.4397 C   0  0  0  0  0  0  0  0  0  0  0  0
   -3.6289    4.3680    0.8437 N   0  0  0  0  0  0  0  0  0  0  0  0
   -4.9529    4.4735    1.0742 C   0  0  0  0  0  0  0  0  0  0  0  0
   -5.8420    3.4403    0.9078 C   0  0  0  0  0  0  0  0  0  0  0  0
   -7.5161    3.6811    1.2164 Cl  0  0  0  0  0  0  0  0  0  0  0  0
   -5.3012    2.2342    0.4839 C   0  0  0  0  0  0  0  0  0  0  0  0
   -6.1648    1.1283    0.2635 N   0  0  0  0  0  0  0  0  0  0  0  0
   -5.8709   -0.1299   -0.3130 C   0  0  0  0  0  0  0  0  0  0  0  0
   -4.9268   -0.2550   -1.3440 C   0  0  0  0  0  0  0  0  0  0  0  0
   -4.6614   -1.4857   -1.9482 C   0  0  0  0  0  0  0  0  0  0  0  0
   -5.3571   -2.6175   -1.5463 C   0  0  0  0  0  0  0  0  0  0  0  0
   -6.3208   -2.5148   -0.5463 C   0  0  0  0  0  0  0  0  0  0  0  0
   -6.5922   -1.2804    0.0743 C   0  0  0  0  0  0  0  0  0  0  0  0
   -7.8370   -1.1999    1.3327 P   0  0  0  0  0  5  0  0  0  0  0  0
   -9.4298   -1.5926    0.5953 C   0  0  0  0  0  0  0  0  0  0  0  0
   -7.5945   -2.5238    2.5232 C   0  0  0  0  0  0  0  0  0  0  0  0
   -7.9254    0.1238    2.0589 O   0  0  0  0  0  0  0  0  0  0  0  0
   -3.9757    2.1121    0.2509 N   0  0  0  0  0  0  0  0  0  0  0  0
    1.9446    5.3029   -0.9424 H   0  0  0  0  0  0  0  0  0  0  0  0
    2.7686    3.8431   -0.3837 H   0  0  0  0  0  0  0  0  0  0  0  0
    2.0205    3.9111   -2.0309 H   0  0  0  0  0  0  0  0  0  0  0  0
    2.3482    1.7244   -1.0952 H   0  0  0  0  0  0  0  0  0  0  0  0
    2.8909   -1.3511   -3.0132 H   0  0  0  0  0  0  0  0  0  0  0  0
    2.9897    0.3269   -2.5693 H   0  0  0  0  0  0  0  0  0  0  0  0
    4.5943   -2.0273   -1.6217 H   0  0  0  0  0  0  0  0  0  0  0  0
    5.1305   -0.4013   -2.0204 H   0  0  0  0  0  0  0  0  0  0  0  0
    4.0041    0.4308    0.0844 H   0  0  0  0  0  0  0  0  0  0  0  0
    6.6347   -2.0630   -0.5650 H   0  0  0  0  0  0  0  0  0  0  0  0
    5.7817   -2.8120    0.7828 H   0  0  0  0  0  0  0  0  0  0  0  0
    8.2324   -2.9129    1.1089 H   0  0  0  0  0  0  0  0  0  0  0  0
    7.4311   -2.0300    2.3874 H   0  0  0  0  0  0  0  0  0  0  0  0
    8.5755   -0.8398   -1.0203 H   0  0  0  0  0  0  0  0  0  0  0  0
    9.8625   -1.7842   -0.2502 H   0  0  0  0  0  0  0  0  0  0  0  0
    9.9608   -0.0322   -0.2647 H   0  0  0  0  0  0  0  0  0  0  0  0
    8.4208    1.2907    1.0429 H   0  0  0  0  0  0  0  0  0  0  0  0
    7.5553    0.5220    2.3519 H   0  0  0  0  0  0  0  0  0  0  0  0
    6.7207    0.5625   -0.5951 H   0  0  0  0  0  0  0  0  0  0  0  0
    5.9546    1.3853    0.7651 H   0  0  0  0  0  0  0  0  0  0  0  0
    3.6679   -2.3089    1.2571 H   0  0  0  0  0  0  0  0  0  0  0  0
    2.8245   -0.8051    1.5417 H   0  0  0  0  0  0  0  0  0  0  0  0
    2.4455   -2.8581   -0.6563 H   0  0  0  0  0  0  0  0  0  0  0  0
    1.2445   -2.1727    0.4065 H   0  0  0  0  0  0  0  0  0  0  0  0
   -0.6662   -1.2797   -0.5889 H   0  0  0  0  0  0  0  0  0  0  0  0
   -2.2745    0.4089    0.0710 H   0  0  0  0  0  0  0  0  0  0  0  0
   -1.3778    4.0150    0.3025 H   0  0  0  0  0  0  0  0  0  0  0  0
   -5.2826    5.4530    1.4060 H   0  0  0  0  0  0  0  0  0  0  0  0
   -6.8287    1.0643    1.0484 H   0  0  0  0  0  0  0  0  0  0  0  0
   -4.3845    0.6182   -1.7000 H   0  0  0  0  0  0  0  0  0  0  0  0
   -3.9161   -1.5485   -2.7366 H   0  0  0  0  0  0  0  0  0  0  0  0
   -5.1542   -3.5761   -2.0172 H   0  0  0  0  0  0  0  0  0  0  0  0
   -6.8654   -3.4091   -0.2543 H   0  0  0  0  0  0  0  0  0  0  0  0
  -10.2130   -1.5686    1.3580 H   0  0  0  0  0  0  0  0  0  0  0  0
   -9.4183   -2.5889    0.1452 H   0  0  0  0  0  0  0  0  0  0  0  0
   -9.6767   -0.8593   -0.1791 H   0  0  0  0  0  0  0  0  0  0  0  0
   -6.6176   -2.4218    3.0041 H   0  0  0  0  0  0  0  0  0  0  0  0
   -8.3671   -2.4782    3.2963 H   0  0  0  0  0  0  0  0  0  0  0  0
   -7.6469   -3.5060    2.0463 H   0  0  0  0  0  0  0  0  0  0  0  0
  1  2  1  0
  2  3  1  0
  3  4  2  0
  4  5  1  0
  5  6  1  0
  6  7  1  0
  7  8  1  0
  8  9  1  0
  9 10  1  0
 10 11  1  0
 11 12  1  0
 12 13  1  0
 13 14  1  0
 13 15  1  0
 15 16  1  0
  9 17  1  0
 17 18  1  0
  5 19  2  0
 19 20  1  0
 20 21  2  0
 21 22  1  0
 22 23  1  0
 23 24  2  0
 24 25  1  0
 25 26  2  0
 26 27  1  0
 26 28  1  0
 28 29  1  0
 29 30  1  0
 30 31  2  0
 31 32  1  0
 32 33  2  0
 33 34  1  0
 34 35  2  0
 35 36  1  0
 36 37  1  0
 36 38  1  0
 36 39  2  0
 28 40  2  0
 21  3  1  0
 40 23  1  0
 18  6  1  0
 35 30  1  0
 16 10  1  0
  1 41  1  0
  1 42  1  0
  1 43  1  0
  4 44  1  0
  7 45  1  0
  7 46  1  0
  8 47  1  0
  8 48  1  0
  9 49  1  0
 11 50  1  0
 11 51  1  0
 12 52  1  0
 12 53  1  0
 14 54  1  0
 14 55  1  0
 14 56  1  0
 15 57  1  0
 15 58  1  0
 16 59  1  0
 16 60  1  0
 17 61  1  0
 17 62  1  0
 18 63  1  0
 18 64  1  0
 19 65  1  0
 20 66  1  0
 22 67  1  0
 25 68  1  0
 29 69  1  0
 31 70  1  0
 32 71  1  0
 33 72  1  0
 34 73  1  0
 37 74  1  0
 37 75  1  0
 37 76  1  0
 38 77  1  0
 38 78  1  0
 38 79  1  0
M  END
$$$$
