
     RDKit          3D

 36 36  0  0  0  0  0  0  0  0999 V2000
   -3.3938    1.4210   -1.6509 C   0  0  0  0  0  0  0  0  0  0  0  0
   -3.0597    0.7017   -0.3376 C   0  0  0  0  0  0  0  0  0  0  0  0
   -3.6104    1.4795    0.8614 C   0  0  0  0  0  0  0  0  0  0  0  0
   -1.5612    0.4490   -0.1841 C   0  0  0  0  0  0  0  0  0  0  0  0
   -0.6780    1.5459   -0.2684 C   0  0  0  0  0  0  0  0  0  0  0  0
    0.7050    1.3873   -0.1487 C   0  0  0  0  0  0  0  0  0  0  0  0
    1.2434    0.1168    0.0526 C   0  0  0  0  0  0  0  0  0  0  0  0
    2.7090   -0.1138    0.1893 C   0  0  0  0  0  0  0  0  0  0  0  0
    3.1125   -1.1033    0.7974 O   0  0  0  0  0  0  0  0  0  0  0  0
    3.5351    0.7896   -0.4542 N   0  0  0  0  0  0  0  0  0  0  0  0
    4.8921    0.8588   -0.3812 C   0  0  0  0  0  0  0  0  0  0  0  0
    5.4321    1.7491   -1.1279 N   0  0  0  0  0  0  0  0  0  0  0  0
    5.5890    0.0372    0.4276 N   0  0  0  0  0  0  0  0  0  0  0  0
    0.3875   -0.9860    0.1702 C   0  0  0  0  0  0  0  0  0  0  0  0
   -1.0027   -0.8279    0.0587 C   0  0  0  0  0  0  0  0  0  0  0  0
   -2.0573   -2.2610    0.2463 S   0  0  0  0  0  6  0  0  0  0  0  0
   -1.0512   -3.6375    0.7186 C   0  0  0  0  0  0  0  0  0  0  0  0
   -2.5857   -2.5501   -1.0734 O   0  0  0  0  0  0  0  0  0  0  0  0
   -2.9329   -1.9835    1.3697 O   0  0  0  0  0  0  0  0  0  0  0  0
   -2.9853    0.8760   -2.5092 H   0  0  0  0  0  0  0  0  0  0  0  0
   -2.9978    2.4413   -1.6801 H   0  0  0  0  0  0  0  0  0  0  0  0
   -4.4793    1.4885   -1.7833 H   0  0  0  0  0  0  0  0  0  0  0  0
   -3.6066   -0.2421   -0.3825 H   0  0  0  0  0  0  0  0  0  0  0  0
   -3.1763    2.4827    0.9333 H   0  0  0  0  0  0  0  0  0  0  0  0
   -4.6969    1.5930    0.7804 H   0  0  0  0  0  0  0  0  0  0  0  0
   -3.3974    0.9562    1.8001 H   0  0  0  0  0  0  0  0  0  0  0  0
   -1.0670    2.5525   -0.4193 H   0  0  0  0  0  0  0  0  0  0  0  0
    1.3324    2.2739   -0.1896 H   0  0  0  0  0  0  0  0  0  0  0  0
    3.1524    1.4829   -1.0790 H   0  0  0  0  0  0  0  0  0  0  0  0
    6.4435    1.7367   -0.9694 H   0  0  0  0  0  0  0  0  0  0  0  0
    6.5159   -0.2243    0.1216 H   0  0  0  0  0  0  0  0  0  0  0  0
    5.0459   -0.7593    0.7677 H   0  0  0  0  0  0  0  0  0  0  0  0
    0.8380   -1.9581    0.3460 H   0  0  0  0  0  0  0  0  0  0  0  0
   -0.5377   -3.4097    1.6545 H   0  0  0  0  0  0  0  0  0  0  0  0
   -0.3456   -3.8676   -0.0815 H   0  0  0  0  0  0  0  0  0  0  0  0
   -1.7112   -4.4953    0.8703 H   0  0  0  0  0  0  0  0  0  0  0  0
  1  2  1  0
  2  3  1  0
  2  4  1  0
  4  5  2  0
  5  6  1  0
  6  7  2  0
  7  8  1  0
  8  9  2  0
  8 10  1  0
 10 11  1  0
 11 12  2  3
 11 13  1  0
  7 14  1  0
 14 15  2  0
 15 16  1  0
 16 17  1  0
 16 18  2  0
 16 19  2  0
 15  4  1  0
  1 20  1  0
  1 21  1  0
  1 22  1  0
  2 23  1  0
  3 24  1  0
  3 25  1  0
  3 26  1  0
  5 27  1  0
  6 28  1  0
 10 29  1  0
 12 30  1  0
 13 31  1  0
 13 32  1  0
 14 33  1  0
 17 34  1  0
 17 35  1  0
 17 36  1  0
M  END
$$$$
