
     RDKit          3D

 30 32  0  0  0  0  0  0  0  0999 V2000
    3.9003   -1.0146   -2.9953 N   0  0  0  0  0  0  0  0  0  0  0  0
    3.1001   -0.1258   -2.2897 C   0  0  0  0  0  0  0  0  0  0  0  0
    3.2361    1.1961   -2.5419 N   0  0  0  0  0  0  0  0  0  0  0  0
    2.4611    2.0630   -1.8537 C   0  0  0  0  0  0  0  0  0  0  0  0
    1.5203    1.7910   -0.9272 N   0  0  0  0  0  0  0  0  0  0  0  0
    1.4192    0.4684   -0.7220 C   0  0  0  0  0  0  0  0  0  0  0  0
    2.1422   -0.5335   -1.3464 C   0  0  0  0  0  0  0  0  0  0  0  0
    1.7359   -1.7748   -0.9036 N   0  0  0  0  0  0  0  0  0  0  0  0
    0.8024   -1.5252   -0.0090 C   0  0  0  0  0  0  0  0  0  0  0  0
    0.5708   -0.1829    0.1370 N   0  0  0  0  0  0  0  0  0  0  0  0
   -0.3905    0.4842    0.9983 C   0  0  2  0  0  0  0  0  0  0  0  0
   -0.9597   -0.3669    2.1486 C   0  0  0  0  0  0  0  0  0  0  0  0
   -2.2743   -0.9676    1.6340 C   0  0  0  0  0  0  0  0  0  0  0  0
   -2.5056   -0.3642    0.2484 C   0  0  1  0  0  0  0  0  0  0  0  0
   -3.8784   -0.0514    0.0535 O   0  0  0  0  0  0  0  0  0  0  0  0
   -1.6498    0.9065    0.2331 C   0  0  1  0  0  0  0  0  0  0  0  0
   -2.3279    1.9504    0.9454 O   0  0  0  0  0  0  0  0  0  0  0  0
    3.5336   -1.9591   -3.0224 H   0  0  0  0  0  0  0  0  0  0  0  0
    4.2521   -0.6158   -3.8551 H   0  0  0  0  0  0  0  0  0  0  0  0
    2.6150    3.1145   -2.0796 H   0  0  0  0  0  0  0  0  0  0  0  0
    0.2710   -2.2866    0.5479 H   0  0  0  0  0  0  0  0  0  0  0  0
    0.1285    1.3496    1.4294 H   0  0  0  0  0  0  0  0  0  0  0  0
   -1.1898    0.2868    2.9999 H   0  0  0  0  0  0  0  0  0  0  0  0
   -0.2709   -1.1317    2.5202 H   0  0  0  0  0  0  0  0  0  0  0  0
   -3.0975   -0.7467    2.3231 H   0  0  0  0  0  0  0  0  0  0  0  0
   -2.2024   -2.0587    1.5648 H   0  0  0  0  0  0  0  0  0  0  0  0
   -2.1850   -1.0717   -0.5249 H   0  0  0  0  0  0  0  0  0  0  0  0
   -4.0029    0.1435   -0.8935 H   0  0  0  0  0  0  0  0  0  0  0  0
   -1.4691    1.2640   -0.7851 H   0  0  0  0  0  0  0  0  0  0  0  0
   -3.2848    1.7593    0.8619 H   0  0  0  0  0  0  0  0  0  0  0  0
  1  2  1  0
  2  3  2  0
  3  4  1  0
  4  5  2  0
  5  6  1  0
  6  7  2  0
  7  8  1  0
  8  9  2  0
  9 10  1  0
 10 11  1  0
 11 12  1  0
 12 13  1  0
 13 14  1  0
 14 15  1  0
 14 16  1  0
 16 17  1  0
  7  2  1  0
 16 11  1  0
 10  6  1  0
  1 18  1  0
  1 19  1  0
  4 20  1  0
  9 21  1  0
 11 22  1  1
 12 23  1  0
 12 24  1  0
 13 25  1  0
 13 26  1  0
 14 27  1  6
 15 28  1  0
 16 29  1  6
 17 30  1  0
M  END
$$$$
