
     RDKit          3D

 35 38  0  0  0  0  0  0  0  0999 V2000
    0.7651    2.4091    1.0532 F   0  0  0  0  0  0  0  0  0  0  0  0
    1.9203    2.2855    0.3832 C   0  0  0  0  0  0  0  0  0  0  0  0
    2.7393    3.4160    0.3183 C   0  0  0  0  0  0  0  0  0  0  0  0
    3.9652    3.3521   -0.3380 C   0  0  0  0  0  0  0  0  0  0  0  0
    4.3632    2.1537   -0.9211 C   0  0  0  0  0  0  0  0  0  0  0  0
    5.8778    2.0627   -1.7318 Cl  0  0  0  0  0  0  0  0  0  0  0  0
    3.5426    1.0247   -0.8544 C   0  0  0  0  0  0  0  0  0  0  0  0
    2.2909    1.0640   -0.2017 C   0  0  0  0  0  0  0  0  0  0  0  0
    1.4352   -0.1315   -0.1456 C   0  0  0  0  0  0  0  0  0  0  0  0
    0.1244    0.0214    0.0670 N   0  0  0  0  0  0  0  0  0  0  0  0
   -0.6398   -1.0865    0.0999 C   0  0  0  0  0  0  0  0  0  0  0  0
   -2.0493   -0.9976    0.2841 N   0  0  0  0  0  0  0  0  0  0  0  0
   -2.9098    0.0798    0.5490 C   0  0  0  0  0  0  0  0  0  0  0  0
   -2.5286    1.4178    0.4915 C   0  0  0  0  0  0  0  0  0  0  0  0
   -3.4741    2.4043    0.7345 C   0  0  0  0  0  0  0  0  0  0  0  0
   -4.7701    2.1565    1.0127 N   0  0  0  0  0  0  0  0  0  0  0  0
   -5.1333    0.8604    1.0411 C   0  0  0  0  0  0  0  0  0  0  0  0
   -4.2575   -0.1912    0.8138 C   0  0  0  0  0  0  0  0  0  0  0  0
   -0.1189   -2.3653   -0.0922 C   0  0  0  0  0  0  0  0  0  0  0  0
   -0.8925   -3.4959   -0.0519 N   0  0  0  0  0  0  0  0  0  0  0  0
   -0.2466   -4.6593   -0.2565 C   0  0  0  0  0  0  0  0  0  0  0  0
    1.1101   -4.6966   -0.4853 C   0  0  0  0  0  0  0  0  0  0  0  0
    1.8686   -3.5774   -0.5167 N   0  0  0  0  0  0  0  0  0  0  0  0
    1.2634   -2.4009   -0.3189 C   0  0  0  0  0  0  0  0  0  0  0  0
    2.0247   -1.3152   -0.3492 N   0  0  0  0  0  0  0  0  0  0  0  0
    2.4109    4.3386    0.7883 H   0  0  0  0  0  0  0  0  0  0  0  0
    4.6016    4.2316   -0.3874 H   0  0  0  0  0  0  0  0  0  0  0  0
    3.8805    0.0994   -1.3209 H   0  0  0  0  0  0  0  0  0  0  0  0
   -2.4227   -1.9135    0.5279 H   0  0  0  0  0  0  0  0  0  0  0  0
   -1.5154    1.7200    0.2630 H   0  0  0  0  0  0  0  0  0  0  0  0
   -3.1979    3.4545    0.7049 H   0  0  0  0  0  0  0  0  0  0  0  0
   -6.1823    0.6776    1.2549 H   0  0  0  0  0  0  0  0  0  0  0  0
   -4.6323   -1.2083    0.8446 H   0  0  0  0  0  0  0  0  0  0  0  0
   -0.8487   -5.5604   -0.2318 H   0  0  0  0  0  0  0  0  0  0  0  0
    1.6361   -5.6304   -0.6511 H   0  0  0  0  0  0  0  0  0  0  0  0
  1  2  1  0
  2  3  2  0
  3  4  1  0
  4  5  2  0
  5  6  1  0
  5  7  1  0
  7  8  2  0
  8  9  1  0
  9 10  2  0
 10 11  1  0
 11 12  1  0
 12 13  1  0
 13 14  2  0
 14 15  1  0
 15 16  2  0
 16 17  1  0
 17 18  2  0
 11 19  2  0
 19 20  1  0
 20 21  2  0
 21 22  1  0
 22 23  2  0
 23 24  1  0
 24 25  2  0
  8  2  1  0
 25  9  1  0
 18 13  1  0
 24 19  1  0
  3 26  1  0
  4 27  1  0
  7 28  1  0
 12 29  1  0
 14 30  1  0
 15 31  1  0
 17 32  1  0
 18 33  1  0
 21 34  1  0
 22 35  1  0
M  END
$$$$
