
     RDKit          3D

 49 50  0  0  0  0  0  0  0  0999 V2000
    7.3372    2.2780   -0.9431 C   0  0  0  0  0  0  0  0  0  0  0  0
    6.4376    1.2577   -0.4328 N   0  0  0  0  0  0  0  0  0  0  0  0
    6.9905    0.3690    0.5806 C   0  0  0  0  0  0  0  0  0  0  0  0
    5.2597    1.0158   -1.1374 C   0  0  0  0  0  0  0  0  0  0  0  0
    4.9840    1.5487   -2.2101 O   0  0  0  0  0  0  0  0  0  0  0  0
    4.2561    0.0900   -0.5653 C   0  0  0  0  0  0  0  0  0  0  0  0
    3.7572   -0.9442   -1.3661 C   0  0  0  0  0  0  0  0  0  0  0  0
    2.7817   -1.8055   -0.8614 C   0  0  0  0  0  0  0  0  0  0  0  0
    2.2938   -1.6053    0.4343 C   0  0  0  0  0  0  0  0  0  0  0  0
    1.0481   -2.6954    1.0871 S   0  0  0  0  0  6  0  0  0  0  0  0
    1.2919   -2.8093    2.5136 O   0  0  0  0  0  0  0  0  0  0  0  0
    1.0092   -3.8803    0.2508 O   0  0  0  0  0  0  0  0  0  0  0  0
   -0.5039   -1.8561    0.8719 C   0  0  0  0  0  0  0  0  0  0  0  0
   -1.0987   -1.8307   -0.3908 C   0  0  0  0  0  0  0  0  0  0  0  0
   -2.3221   -1.1757   -0.5704 C   0  0  0  0  0  0  0  0  0  0  0  0
   -2.9610   -0.5509    0.5057 C   0  0  0  0  0  0  0  0  0  0  0  0
   -4.1957    0.1246    0.3841 N   0  0  0  0  0  0  0  0  0  0  0  0
   -4.9349    0.3828   -0.7631 C   0  0  0  0  0  0  0  0  0  0  0  0
   -4.6141    0.0626   -1.9007 O   0  0  0  0  0  0  0  0  0  0  0  0
   -6.2571    1.0905   -0.4354 C   0  0  1  0  0  0  0  0  0  0  0  0
   -7.2573    0.0722    0.1103 C   0  0  0  0  0  0  0  0  0  0  0  0
   -6.0022    2.0452    0.6299 O   0  0  0  0  0  0  0  0  0  0  0  0
   -6.7951    1.7573   -1.7051 C   0  0  0  0  0  0  0  0  0  0  0  0
   -7.0862    0.8895   -2.6937 F   0  0  0  0  0  0  0  0  0  0  0  0
   -7.9398    2.4353   -1.4285 F   0  0  0  0  0  0  0  0  0  0  0  0
   -5.9178    2.6763   -2.1755 F   0  0  0  0  0  0  0  0  0  0  0  0
   -2.3506   -0.6072    1.7756 C   0  0  0  0  0  0  0  0  0  0  0  0
   -3.0930    0.1372    3.1520 Cl  0  0  0  0  0  0  0  0  0  0  0  0
   -1.1295   -1.2573    1.9648 C   0  0  0  0  0  0  0  0  0  0  0  0
    2.7834   -0.5686    1.2376 C   0  0  0  0  0  0  0  0  0  0  0  0
    3.7604    0.2891    0.7301 C   0  0  0  0  0  0  0  0  0  0  0  0
    6.8015    3.0174   -1.5455 H   0  0  0  0  0  0  0  0  0  0  0  0
    7.8140    2.7893   -0.1021 H   0  0  0  0  0  0  0  0  0  0  0  0
    8.0992    1.7965   -1.5637 H   0  0  0  0  0  0  0  0  0  0  0  0
    7.1256    0.9376    1.5053 H   0  0  0  0  0  0  0  0  0  0  0  0
    7.9630    0.0042    0.2337 H   0  0  0  0  0  0  0  0  0  0  0  0
    6.3591   -0.4996    0.7730 H   0  0  0  0  0  0  0  0  0  0  0  0
    4.1296   -1.0740   -2.3805 H   0  0  0  0  0  0  0  0  0  0  0  0
    2.4097   -2.6169   -1.4838 H   0  0  0  0  0  0  0  0  0  0  0  0
   -0.6279   -2.3208   -1.2415 H   0  0  0  0  0  0  0  0  0  0  0  0
   -2.7535   -1.1812   -1.5674 H   0  0  0  0  0  0  0  0  0  0  0  0
   -4.5592    0.5416    1.2426 H   0  0  0  0  0  0  0  0  0  0  0  0
   -8.2050    0.5579    0.3679 H   0  0  0  0  0  0  0  0  0  0  0  0
   -7.4579   -0.7240   -0.6149 H   0  0  0  0  0  0  0  0  0  0  0  0
   -6.8888   -0.3964    1.0309 H   0  0  0  0  0  0  0  0  0  0  0  0
   -5.6017    2.8361    0.2156 H   0  0  0  0  0  0  0  0  0  0  0  0
   -0.6788   -1.2953    2.9540 H   0  0  0  0  0  0  0  0  0  0  0  0
    2.4110   -0.4212    2.2492 H   0  0  0  0  0  0  0  0  0  0  0  0
    4.1282    1.1135    1.3367 H   0  0  0  0  0  0  0  0  0  0  0  0
  1  2  1  0
  2  3  1  0
  2  4  1  0
  4  5  2  0
  4  6  1  0
  6  7  2  0
  7  8  1  0
  8  9  2  0
  9 10  1  0
 10 11  2  0
 10 12  2  0
 10 13  1  0
 13 14  2  0
 14 15  1  0
 15 16  2  0
 16 17  1  0
 17 18  1  0
 18 19  2  0
 18 20  1  0
 20 21  1  0
 20 22  1  1
 20 23  1  0
 23 24  1  0
 23 25  1  0
 23 26  1  0
 16 27  1  0
 27 28  1  0
 27 29  2  0
  9 30  1  0
 30 31  2  0
 31  6  1  0
 29 13  1  0
  1 32  1  0
  1 33  1  0
  1 34  1  0
  3 35  1  0
  3 36  1  0
  3 37  1  0
  7 38  1  0
  8 39  1  0
 14 40  1  0
 15 41  1  0
 17 42  1  0
 21 43  1  0
 21 44  1  0
 21 45  1  0
 22 46  1  0
 29 47  1  0
 30 48  1  0
 31 49  1  0
M  END
$$$$
