
     RDKit          3D

 37 39  0  0  0  0  0  0  0  0999 V2000
    3.2863    3.0645   -0.8193 C   0  0  0  0  0  0  0  0  0  0  0  0
    2.4993    1.9052   -1.0611 O   0  0  0  0  0  0  0  0  0  0  0  0
    2.2628    1.0818    0.0074 C   0  0  0  0  0  0  0  0  0  0  0  0
    2.6966    1.2938    1.3150 C   0  0  0  0  0  0  0  0  0  0  0  0
    2.3909    0.3847    2.3371 C   0  0  0  0  0  0  0  0  0  0  0  0
    1.6295   -0.7404    2.0038 C   0  0  0  0  0  0  0  0  0  0  0  0
    1.1880   -1.7786    2.7898 N   0  0  0  0  0  0  0  0  0  0  0  0
    0.4559   -2.6603    2.0411 C   0  0  0  0  0  0  0  0  0  0  0  0
    0.4194   -2.2003    0.7390 C   0  0  0  0  0  0  0  0  0  0  0  0
   -0.2883   -2.8479   -0.4141 C   0  0  0  0  0  0  0  0  0  0  0  0
   -1.7603   -2.4402   -0.5201 C   0  0  0  0  0  0  0  0  0  0  0  0
   -1.9353   -1.0271   -0.8016 N   0  0  0  0  0  0  0  0  0  0  0  0
   -3.1189   -0.5411   -1.3013 C   0  0  0  0  0  0  0  0  0  0  0  0
   -4.0419   -1.2481   -1.6847 O   0  0  0  0  0  0  0  0  0  0  0  0
   -3.2629    0.9420   -1.3532 C   0  0  0  0  0  0  0  0  0  0  0  0
   -2.0880    1.8840   -1.4787 C   0  0  0  0  0  0  0  0  0  0  0  0
   -2.8589    1.8203   -0.1911 C   0  0  0  0  0  0  0  0  0  0  0  0
    1.1763   -0.9843    0.7089 C   0  0  0  0  0  0  0  0  0  0  0  0
    1.5074   -0.0574   -0.3011 C   0  0  0  0  0  0  0  0  0  0  0  0
    3.3920    3.6002   -1.7676 H   0  0  0  0  0  0  0  0  0  0  0  0
    2.7908    3.7366   -0.1110 H   0  0  0  0  0  0  0  0  0  0  0  0
    4.2906    2.7960   -0.4751 H   0  0  0  0  0  0  0  0  0  0  0  0
    3.2843    2.1663    1.5825 H   0  0  0  0  0  0  0  0  0  0  0  0
    2.7355    0.5561    3.3519 H   0  0  0  0  0  0  0  0  0  0  0  0
    1.3757   -1.8696    3.7787 H   0  0  0  0  0  0  0  0  0  0  0  0
    0.0202   -3.5392    2.4983 H   0  0  0  0  0  0  0  0  0  0  0  0
   -0.2299   -3.9375   -0.2988 H   0  0  0  0  0  0  0  0  0  0  0  0
    0.2314   -2.6049   -1.3489 H   0  0  0  0  0  0  0  0  0  0  0  0
   -2.2948   -2.6526    0.4131 H   0  0  0  0  0  0  0  0  0  0  0  0
   -2.2435   -3.0183   -1.3159 H   0  0  0  0  0  0  0  0  0  0  0  0
   -1.3378   -0.3789   -0.3061 H   0  0  0  0  0  0  0  0  0  0  0  0
   -4.1621    1.2445   -1.8857 H   0  0  0  0  0  0  0  0  0  0  0  0
   -1.0811    1.4857   -1.5009 H   0  0  0  0  0  0  0  0  0  0  0  0
   -2.2146    2.7616   -2.1039 H   0  0  0  0  0  0  0  0  0  0  0  0
   -3.5080    2.6535    0.0556 H   0  0  0  0  0  0  0  0  0  0  0  0
   -2.3837    1.3707    0.6726 H   0  0  0  0  0  0  0  0  0  0  0  0
    1.1769   -0.2208   -1.3232 H   0  0  0  0  0  0  0  0  0  0  0  0
  1  2  1  0
  2  3  1  0
  3  4  2  0
  4  5  1  0
  5  6  2  0
  6  7  1  0
  7  8  1  0
  8  9  2  0
  9 10  1  0
 10 11  1  0
 11 12  1  0
 12 13  1  0
 13 14  2  0
 13 15  1  0
 15 16  1  0
 16 17  1  0
  9 18  1  0
 18 19  2  0
 19  3  1  0
 18  6  1  0
 17 15  1  0
  1 20  1  0
  1 21  1  0
  1 22  1  0
  4 23  1  0
  5 24  1  0
  7 25  1  0
  8 26  1  0
 10 27  1  0
 10 28  1  0
 11 29  1  0
 11 30  1  0
 12 31  1  0
 15 32  1  0
 16 33  1  0
 16 34  1  0
 17 35  1  0
 17 36  1  0
 19 37  1  0
M  END
$$$$
