
     RDKit          3D

 22 25  0  0  0  0  0  0  0  0999 V2000
    0.7173   -0.4563   -1.2812 C   0  0  0  0  0  0  0  0  0  0  0  0
    0.1187   -0.1333    0.0357 C   0  0  0  0  0  0  0  0  0  0  0  0
   -1.1166   -0.0305    0.6742 C   0  0  0  0  0  0  0  0  0  0  0  0
   -2.5006   -0.2871    0.0467 C   0  0  0  0  0  0  0  0  0  0  0  0
   -2.7715   -0.6467   -1.1895 N   0  0  0  0  0  0  0  0  0  0  0  0
   -4.1439   -0.7471   -1.2562 N   0  0  0  0  0  0  0  0  0  0  0  0
   -4.7025   -0.4558   -0.0874 N   0  0  0  0  0  0  0  0  0  0  0  0
   -3.6739   -0.1690    0.7235 N   0  0  0  0  0  0  0  0  0  0  0  0
   -0.9774    0.3368    1.9675 N   0  0  0  0  0  0  0  0  0  0  0  0
    0.3681    0.4678    2.1335 N   0  0  0  0  0  0  0  0  0  0  0  0
    1.0316    0.1889    0.9979 C   0  0  0  0  0  0  0  0  0  0  0  0
    2.4640    0.1227    0.4457 C   0  0  2  0  0  0  0  0  0  0  0  0
    2.8754    1.0107   -0.6950 C   0  0  0  0  0  0  0  0  0  0  0  0
    2.2342   -0.3161   -1.0177 C   0  0  2  0  0  0  0  0  0  0  0  0
    0.4804   -1.4813   -1.5816 H   0  0  0  0  0  0  0  0  0  0  0  0
    0.3975    0.2428   -2.0593 H   0  0  0  0  0  0  0  0  0  0  0  0
   -3.8250    0.0905    1.6897 H   0  0  0  0  0  0  0  0  0  0  0  0
    0.7290    0.7472    3.0402 H   0  0  0  0  0  0  0  0  0  0  0  0
    3.2150   -0.4067    1.0176 H   0  0  0  0  0  0  0  0  0  0  0  0
    3.9366    1.1188   -0.8909 H   0  0  0  0  0  0  0  0  0  0  0  0
    2.3091    1.9178   -0.8766 H   0  0  0  0  0  0  0  0  0  0  0  0
    2.8344   -1.1141   -1.4299 H   0  0  0  0  0  0  0  0  0  0  0  0
  1  2  1  0
  2  3  1  0
  3  4  1  0
  4  5  2  0
  5  6  1  0
  6  7  2  0
  7  8  1  0
  3  9  2  0
  9 10  1  0
 10 11  1  0
 11 12  1  0
 12 13  1  0
 13 14  1  0
 14  1  1  0
 11  2  2  0
 14 12  1  0
  8  4  1  0
  1 15  1  0
  1 16  1  0
  8 17  1  0
 10 18  1  0
 12 19  1  1
 13 20  1  0
 13 21  1  0
 14 22  1  6
M  END
$$$$
