
     RDKit          3D

 49 52  0  0  0  0  0  0  0  0999 V2000
    4.5815   -2.4636   -0.2105 C   0  0  0  0  0  0  0  0  0  0  0  0
    5.4194   -1.3201    0.2245 C   0  0  0  0  0  0  0  0  0  0  0  0
    6.4467   -1.5211    1.0582 N   0  0  0  0  0  0  0  0  0  0  0  0
    7.0056   -0.2785    1.2754 O   0  0  0  0  0  0  0  0  0  0  0  0
    6.3140    0.6603    0.5794 C   0  0  0  0  0  0  0  0  0  0  0  0
    6.7926    2.0491    0.7097 C   0  0  0  0  0  0  0  0  0  0  0  0
    5.2882    0.0563   -0.1172 C   0  0  0  0  0  0  0  0  0  0  0  0
    4.2847    0.6884   -1.0168 C   0  0  0  0  0  0  0  0  0  0  0  0
    2.9174    0.6718   -0.4312 C   0  0  0  0  0  0  0  0  0  0  0  0
    2.2882    1.4184    0.5398 C   0  0  0  0  0  0  0  0  0  0  0  0
    0.9839    0.8797    0.6704 C   0  0  0  0  0  0  0  0  0  0  0  0
    0.8759   -0.1568   -0.2411 C   0  0  0  0  0  0  0  0  0  0  0  0
   -0.1711   -1.1084   -0.5735 C   0  0  0  0  0  0  0  0  0  0  0  0
    0.0869   -2.2504   -0.9596 O   0  0  0  0  0  0  0  0  0  0  0  0
   -1.4992   -0.7066   -0.4603 N   0  0  0  0  0  0  0  0  0  0  0  0
   -2.5624   -1.6319   -0.7897 C   0  0  0  0  0  0  0  0  0  0  0  0
   -3.8706   -0.8790   -0.5330 C   0  0  1  0  0  0  0  0  0  0  0  0
   -4.4151   -1.1027    0.8802 C   0  0  0  0  0  0  0  0  0  0  0  0
   -5.8802   -0.6741    1.0354 C   0  0  0  0  0  0  0  0  0  0  0  0
   -6.3790    0.3899    0.0621 C   0  0  0  0  0  0  0  0  0  0  0  0
   -5.5866    1.6682    0.1231 C   0  0  0  0  0  0  0  0  0  0  0  0
   -6.1074    2.7460    0.4034 O   0  0  0  0  0  0  0  0  0  0  0  0
   -4.2515    1.6282   -0.1350 N   0  0  0  0  0  0  0  0  0  0  0  0
   -3.4778    0.5876   -0.7995 C   0  0  1  0  0  0  0  0  0  0  0  0
   -2.0012    0.6497   -0.3589 C   0  0  0  0  0  0  0  0  0  0  0  0
    2.0687   -0.2800   -0.9075 O   0  0  0  0  0  0  0  0  0  0  0  0
    4.3118   -2.3698   -1.2670 H   0  0  0  0  0  0  0  0  0  0  0  0
    5.1089   -3.4151   -0.0857 H   0  0  0  0  0  0  0  0  0  0  0  0
    3.6605   -2.5046    0.3795 H   0  0  0  0  0  0  0  0  0  0  0  0
    7.3916    2.3273   -0.1626 H   0  0  0  0  0  0  0  0  0  0  0  0
    5.9501    2.7436    0.7851 H   0  0  0  0  0  0  0  0  0  0  0  0
    7.4111    2.1741    1.6041 H   0  0  0  0  0  0  0  0  0  0  0  0
    4.5671    1.7263   -1.2312 H   0  0  0  0  0  0  0  0  0  0  0  0
    4.2852    0.1678   -1.9825 H   0  0  0  0  0  0  0  0  0  0  0  0
    2.7263    2.2290    1.1059 H   0  0  0  0  0  0  0  0  0  0  0  0
    0.2296    1.1937    1.3767 H   0  0  0  0  0  0  0  0  0  0  0  0
   -2.4671   -1.8792   -1.8542 H   0  0  0  0  0  0  0  0  0  0  0  0
   -2.4601   -2.5569   -0.2132 H   0  0  0  0  0  0  0  0  0  0  0  0
   -4.6127   -1.2340   -1.2578 H   0  0  0  0  0  0  0  0  0  0  0  0
   -3.8007   -0.5663    1.6143 H   0  0  0  0  0  0  0  0  0  0  0  0
   -4.3434   -2.1636    1.1508 H   0  0  0  0  0  0  0  0  0  0  0  0
   -6.5139   -1.5613    0.9088 H   0  0  0  0  0  0  0  0  0  0  0  0
   -6.0363   -0.3359    2.0674 H   0  0  0  0  0  0  0  0  0  0  0  0
   -6.3955    0.0303   -0.9718 H   0  0  0  0  0  0  0  0  0  0  0  0
   -7.4195    0.6305    0.3131 H   0  0  0  0  0  0  0  0  0  0  0  0
   -3.8654    2.5667   -0.1413 H   0  0  0  0  0  0  0  0  0  0  0  0
   -3.5408    0.7802   -1.8781 H   0  0  0  0  0  0  0  0  0  0  0  0
   -1.9177    0.9618    0.6875 H   0  0  0  0  0  0  0  0  0  0  0  0
   -1.4206    1.3347   -0.9847 H   0  0  0  0  0  0  0  0  0  0  0  0
  1  2  1  0
  2  3  2  0
  3  4  1  0
  4  5  1  0
  5  6  1  0
  5  7  2  0
  7  8  1  0
  8  9  1  0
  9 10  2  0
 10 11  1  0
 11 12  2  0
 12 13  1  0
 13 14  2  0
 13 15  1  0
 15 16  1  0
 16 17  1  0
 17 18  1  0
 18 19  1  0
 19 20  1  0
 20 21  1  0
 21 22  2  0
 21 23  1  0
 23 24  1  0
 24 25  1  0
 12 26  1  0
  7  2  1  0
 26  9  1  0
 25 15  1  0
 24 17  1  0
  1 27  1  0
  1 28  1  0
  1 29  1  0
  6 30  1  0
  6 31  1  0
  6 32  1  0
  8 33  1  0
  8 34  1  0
 10 35  1  0
 11 36  1  0
 16 37  1  0
 16 38  1  0
 17 39  1  6
 18 40  1  0
 18 41  1  0
 19 42  1  0
 19 43  1  0
 20 44  1  0
 20 45  1  0
 23 46  1  0
 24 47  1  6
 25 48  1  0
 25 49  1  0
M  END
$$$$
