
     RDKit          3D

 70 73  0  0  0  0  0  0  0  0999 V2000
   -3.3492   -3.5334   -3.8001 C   0  0  0  0  0  0  0  0  0  0  0  0
   -3.4546   -2.1968   -3.7800 C   0  0  0  0  0  0  0  0  0  0  0  0
   -3.3330   -1.2843   -2.5838 C   0  0  0  0  0  0  0  0  0  0  0  0
   -2.7643   -1.9076   -1.3803 N   0  0  0  0  0  0  0  0  0  0  0  0
   -1.2969   -2.0854   -1.4829 C   0  0  0  0  0  0  0  0  0  0  0  0
   -0.4769   -0.7789   -1.4043 C   0  0  2  0  0  0  0  0  0  0  0  0
    1.0254   -1.1027   -1.4196 C   0  0  0  0  0  0  0  0  0  0  0  0
    1.4066   -2.2764   -1.3434 O   0  0  0  0  0  0  0  0  0  0  0  0
    1.9539   -0.0479   -1.4791 N   0  0  0  0  0  0  0  0  0  0  0  0
    3.3554   -0.4308   -1.2548 C   0  0  0  0  0  0  0  0  0  0  0  0
    3.6721   -0.5795    0.2384 C   0  0  0  0  0  0  0  0  0  0  0  0
    5.1492   -0.9376    0.4433 C   0  0  0  0  0  0  0  0  0  0  0  0
    5.6012   -1.0932    1.8310 N   0  0  0  0  0  0  0  0  0  0  0  0
    5.4962    0.1331    2.6149 C   0  0  0  0  0  0  0  0  0  0  0  0
    4.9569   -2.2118    2.5160 C   0  0  0  0  0  0  0  0  0  0  0  0
    1.6394    1.2541   -1.8769 C   0  0  0  0  0  0  0  0  0  0  0  0
    0.6595    1.5567   -2.5504 O   0  0  0  0  0  0  0  0  0  0  0  0
    2.5575    2.2109   -1.4901 N   0  0  0  0  0  0  0  0  0  0  0  0
    2.3243    3.6044   -1.8183 C   0  0  0  0  0  0  0  0  0  0  0  0
    3.5555    4.4460   -1.5458 C   0  0  0  0  0  0  0  0  0  0  0  0
   -0.8456    0.0085   -0.1381 C   0  0  0  0  0  0  0  0  0  0  0  0
   -2.3659    0.2056    0.0094 C   0  0  0  0  0  0  0  0  0  0  0  0
   -2.7355    0.9024    1.3117 C   0  0  0  0  0  0  0  0  0  0  0  0
   -2.0278    1.9446    1.9284 C   0  0  0  0  0  0  0  0  0  0  0  0
   -2.4818    2.5182    3.1262 C   0  0  0  0  0  0  0  0  0  0  0  0
   -3.6631    2.0917    3.7529 C   0  0  0  0  0  0  0  0  0  0  0  0
   -4.3765    1.0772    3.1148 C   0  0  0  0  0  0  0  0  0  0  0  0
   -5.5575    0.4349    3.4186 N   0  0  0  0  0  0  0  0  0  0  0  0
   -5.8614   -0.4967    2.4472 C   0  0  0  0  0  0  0  0  0  0  0  0
   -4.8568   -0.4590    1.5085 C   0  0  0  0  0  0  0  0  0  0  0  0
   -3.9299    0.5149    1.9346 C   0  0  0  0  0  0  0  0  0  0  0  0
   -4.6192   -1.1878    0.2279 C   0  0  0  0  0  0  0  0  0  0  0  0
   -3.0822   -1.2037   -0.1111 C   0  0  1  0  0  0  0  0  0  0  0  0
   -3.4637   -4.0893   -4.7241 H   0  0  0  0  0  0  0  0  0  0  0  0
   -3.1545   -4.1009   -2.8952 H   0  0  0  0  0  0  0  0  0  0  0  0
   -3.6715   -1.6894   -4.7182 H   0  0  0  0  0  0  0  0  0  0  0  0
   -2.7711   -0.3927   -2.8803 H   0  0  0  0  0  0  0  0  0  0  0  0
   -4.3534   -0.9357   -2.4000 H   0  0  0  0  0  0  0  0  0  0  0  0
   -0.9912   -2.7644   -0.6744 H   0  0  0  0  0  0  0  0  0  0  0  0
   -1.0380   -2.6208   -2.4043 H   0  0  0  0  0  0  0  0  0  0  0  0
   -0.7128   -0.2024   -2.3006 H   0  0  0  0  0  0  0  0  0  0  0  0
    4.0277    0.3023   -1.7143 H   0  0  0  0  0  0  0  0  0  0  0  0
    3.5538   -1.3790   -1.7691 H   0  0  0  0  0  0  0  0  0  0  0  0
    3.0302   -1.3550    0.6701 H   0  0  0  0  0  0  0  0  0  0  0  0
    3.4287    0.3540    0.7560 H   0  0  0  0  0  0  0  0  0  0  0  0
    5.7727   -0.1708   -0.0352 H   0  0  0  0  0  0  0  0  0  0  0  0
    5.3713   -1.8653   -0.0995 H   0  0  0  0  0  0  0  0  0  0  0  0
    6.0032    0.9629    2.1095 H   0  0  0  0  0  0  0  0  0  0  0  0
    5.9918    0.0081    3.5840 H   0  0  0  0  0  0  0  0  0  0  0  0
    4.4576    0.4244    2.8027 H   0  0  0  0  0  0  0  0  0  0  0  0
    3.8906   -2.0389    2.6954 H   0  0  0  0  0  0  0  0  0  0  0  0
    5.0662   -3.1355    1.9373 H   0  0  0  0  0  0  0  0  0  0  0  0
    5.4376   -2.3909    3.4842 H   0  0  0  0  0  0  0  0  0  0  0  0
    2.9820    2.0439   -0.5900 H   0  0  0  0  0  0  0  0  0  0  0  0
    2.0416    3.6793   -2.8740 H   0  0  0  0  0  0  0  0  0  0  0  0
    1.4785    3.9539   -1.2165 H   0  0  0  0  0  0  0  0  0  0  0  0
    3.8478    4.3859   -0.4924 H   0  0  0  0  0  0  0  0  0  0  0  0
    4.4033    4.1026   -2.1491 H   0  0  0  0  0  0  0  0  0  0  0  0
    3.3631    5.4948   -1.7906 H   0  0  0  0  0  0  0  0  0  0  0  0
   -0.4517   -0.5174    0.7434 H   0  0  0  0  0  0  0  0  0  0  0  0
   -0.3482    0.9831   -0.1461 H   0  0  0  0  0  0  0  0  0  0  0  0
   -2.7208    0.8536   -0.8035 H   0  0  0  0  0  0  0  0  0  0  0  0
   -1.1147    2.3308    1.4845 H   0  0  0  0  0  0  0  0  0  0  0  0
   -1.9041    3.3207    3.5808 H   0  0  0  0  0  0  0  0  0  0  0  0
   -4.0042    2.5425    4.6774 H   0  0  0  0  0  0  0  0  0  0  0  0
   -6.1235    0.6287    4.2320 H   0  0  0  0  0  0  0  0  0  0  0  0
   -6.7630   -1.0906    2.5153 H   0  0  0  0  0  0  0  0  0  0  0  0
   -5.1948   -0.6759   -0.5495 H   0  0  0  0  0  0  0  0  0  0  0  0
   -4.9916   -2.2160    0.3018 H   0  0  0  0  0  0  0  0  0  0  0  0
   -2.6499   -1.8302    0.6877 H   0  0  0  0  0  0  0  0  0  0  0  0
  1  2  2  3
  2  3  1  0
  3  4  1  0
  4  5  1  0
  5  6  1  0
  6  7  1  0
  7  8  2  0
  7  9  1  0
  9 10  1  0
 10 11  1  0
 11 12  1  0
 12 13  1  0
 13 14  1  0
 13 15  1  0
  9 16  1  0
 16 17  2  0
 16 18  1  0
 18 19  1  0
 19 20  1  0
  6 21  1  0
 21 22  1  0
 22 23  1  0
 23 24  2  0
 24 25  1  0
 25 26  2  0
 26 27  1  0
 27 28  1  0
 28 29  1  0
 29 30  2  0
 30 31  1  0
 30 32  1  0
 32 33  1  0
 33  4  1  0
 33 22  1  0
 31 23  1  0
 31 27  2  0
  1 34  1  0
  1 35  1  0
  2 36  1  0
  3 37  1  0
  3 38  1  0
  5 39  1  0
  5 40  1  0
  6 41  1  6
 10 42  1  0
 10 43  1  0
 11 44  1  0
 11 45  1  0
 12 46  1  0
 12 47  1  0
 14 48  1  0
 14 49  1  0
 14 50  1  0
 15 51  1  0
 15 52  1  0
 15 53  1  0
 18 54  1  0
 19 55  1  0
 19 56  1  0
 20 57  1  0
 20 58  1  0
 20 59  1  0
 21 60  1  0
 21 61  1  0
 22 62  1  0
 24 63  1  0
 25 64  1  0
 26 65  1  0
 28 66  1  0
 29 67  1  0
 32 68  1  0
 32 69  1  0
 33 70  1  1
M  END
$$$$
