
     RDKit          3D

 32 33  0  0  0  0  0  0  0  0999 V2000
   -1.0111    2.9194    0.3288 C   0  0  0  0  0  0  0  0  0  0  0  0
   -0.9752    1.7240    1.2693 C   0  0  0  0  0  0  0  0  0  0  0  0
   -0.7830    0.4799    0.5302 N   0  0  0  0  0  0  0  0  0  0  0  0
   -1.7827   -0.3310   -0.0361 C   0  0  0  0  0  0  0  0  0  0  0  0
   -3.1062   -0.1059    0.0391 C   0  0  0  0  0  0  0  0  0  0  0  0
   -4.2186   -0.9097   -0.5270 C   0  0  0  0  0  0  0  0  0  0  0  0
   -4.2599   -2.3999   -0.3172 C   0  0  0  0  0  0  0  0  0  0  0  0
   -5.1373   -0.3180   -1.0949 O   0  0  0  0  0  0  0  0  0  0  0  0
   -1.1297   -1.7099   -0.9619 S   0  0  0  0  0  0  0  0  0  0  0  0
    0.5197   -1.1325   -0.6010 C   0  0  0  0  0  0  0  0  0  0  0  0
    1.6979   -1.7229   -1.0342 C   0  0  0  0  0  0  0  0  0  0  0  0
    2.9129   -1.1361   -0.6741 C   0  0  0  0  0  0  0  0  0  0  0  0
    2.9327    0.0267    0.1072 C   0  0  0  0  0  0  0  0  0  0  0  0
    4.0568    0.6922    0.5197 O   0  0  0  0  0  0  0  0  0  0  0  0
    5.3099    0.1577    0.1112 C   0  0  0  0  0  0  0  0  0  0  0  0
    1.7289    0.6083    0.5355 C   0  0  0  0  0  0  0  0  0  0  0  0
    0.5100    0.0348    0.1879 C   0  0  0  0  0  0  0  0  0  0  0  0
   -1.8207    2.8243   -0.4022 H   0  0  0  0  0  0  0  0  0  0  0  0
   -0.0722    3.0215   -0.2246 H   0  0  0  0  0  0  0  0  0  0  0  0
   -1.1723    3.8417    0.8956 H   0  0  0  0  0  0  0  0  0  0  0  0
   -0.1963    1.8641    2.0273 H   0  0  0  0  0  0  0  0  0  0  0  0
   -1.9108    1.6866    1.8393 H   0  0  0  0  0  0  0  0  0  0  0  0
   -3.4771    0.7912    0.5217 H   0  0  0  0  0  0  0  0  0  0  0  0
   -3.9743   -2.9134   -1.2380 H   0  0  0  0  0  0  0  0  0  0  0  0
   -3.6082   -2.7042    0.5059 H   0  0  0  0  0  0  0  0  0  0  0  0
   -5.2800   -2.6875   -0.0444 H   0  0  0  0  0  0  0  0  0  0  0  0
    1.6785   -2.6211   -1.6433 H   0  0  0  0  0  0  0  0  0  0  0  0
    3.8269   -1.6077   -1.0200 H   0  0  0  0  0  0  0  0  0  0  0  0
    5.4047    0.1634   -0.9797 H   0  0  0  0  0  0  0  0  0  0  0  0
    6.0960    0.8019    0.5168 H   0  0  0  0  0  0  0  0  0  0  0  0
    5.4611   -0.8479    0.5172 H   0  0  0  0  0  0  0  0  0  0  0  0
    1.7797    1.5099    1.1358 H   0  0  0  0  0  0  0  0  0  0  0  0
  1  2  1  0
  2  3  1  0
  3  4  1  0
  4  5  2  0
  5  6  1  0
  6  7  1  0
  6  8  2  0
  4  9  1  0
  9 10  1  0
 10 11  2  0
 11 12  1  0
 12 13  2  0
 13 14  1  0
 14 15  1  0
 13 16  1  0
 16 17  2  0
 17  3  1  0
 17 10  1  0
  1 18  1  0
  1 19  1  0
  1 20  1  0
  2 21  1  0
  2 22  1  0
  5 23  1  0
  7 24  1  0
  7 25  1  0
  7 26  1  0
 11 27  1  0
 12 28  1  0
 15 29  1  0
 15 30  1  0
 15 31  1  0
 16 32  1  0
M  END
$$$$
