
     RDKit          3D

 59 59  0  0  0  0  0  0  0  0999 V2000
   -7.9490    2.2632   -0.6204 C   0  0  0  0  0  0  0  0  0  0  0  0
   -7.1778    1.0161   -0.4180 C   0  0  0  0  0  0  0  0  0  0  0  0
   -7.6231    0.0649    0.4449 C   0  0  0  0  0  0  0  0  0  0  0  0
   -6.8714   -1.0847    0.6039 C   0  0  0  0  0  0  0  0  0  0  0  0
   -5.6924   -1.2772   -0.0908 C   0  0  0  0  0  0  0  0  0  0  0  0
   -5.2821   -0.2852   -0.9537 C   0  0  0  0  0  0  0  0  0  0  0  0
   -4.0238   -0.3944   -1.7496 C   0  0  0  0  0  0  0  0  0  0  0  0
   -2.9280    0.1963   -0.9314 C   0  0  0  0  0  0  0  0  0  0  0  0
   -1.6319    0.1698   -1.5589 N   0  0  0  0  0  0  0  0  0  0  0  0
   -1.0925   -1.1585   -1.7042 C   0  0  0  0  0  0  0  0  0  0  0  0
   -0.4733   -1.6961   -0.4684 C   0  0  0  0  0  0  0  0  0  0  0  0
    0.6855   -0.8532    0.0755 C   0  0  0  0  0  0  0  0  0  0  0  0
    1.9666   -1.5833   -0.1159 C   0  0  0  0  0  0  0  0  0  0  0  0
    1.9004   -2.6754   -0.7829 O   0  0  0  0  0  0  0  0  0  0  0  0
    3.2484   -1.1723    0.3700 C   0  0  0  0  0  0  0  0  0  0  0  0
    4.3739   -1.8842    0.0422 C   0  0  0  0  0  0  0  0  0  0  0  0
    5.6103   -1.5462    0.4989 C   0  0  0  0  0  0  0  0  0  0  0  0
    5.7749   -0.4413    1.3326 C   0  0  0  0  0  0  0  0  0  0  0  0
    7.0569   -0.1149    1.7888 N   0  0  0  0  0  0  0  0  0  0  0  0
    7.6128    1.5134    1.7686 S   0  0  0  0  0  6  0  0  0  0  0  0
    7.6350    2.1041    0.0804 C   0  0  0  0  0  0  0  0  0  0  0  0
    9.0564    1.5905    2.2385 O   0  0  0  0  0  0  0  0  0  0  0  0
    6.7314    2.3726    2.6044 O   0  0  0  0  0  0  0  0  0  0  0  0
    4.6622    0.2826    1.6718 C   0  0  0  0  0  0  0  0  0  0  0  0
    3.4051   -0.0853    1.1901 C   0  0  0  0  0  0  0  0  0  0  0  0
    0.6866    0.3902   -0.7972 C   0  0  0  0  0  0  0  0  0  0  0  0
   -0.7009    0.9930   -0.8158 C   0  0  0  0  0  0  0  0  0  0  0  0
   -6.0270    0.8214   -1.0922 N   0  0  0  0  0  0  0  0  0  0  0  0
    0.6891    0.0000    0.0000 Cl  0  0  0  0  0  0  0  0  0  0  0  0
    0.6922    0.0000    0.0000 Cl  0  0  0  0  0  0  0  0  0  0  0  0
   -8.6982    2.1598   -1.4310 H   0  0  0  0  0  0  0  0  0  0  0  0
   -8.4530    2.5003    0.3424 H   0  0  0  0  0  0  0  0  0  0  0  0
   -7.2866    3.1140   -0.8837 H   0  0  0  0  0  0  0  0  0  0  0  0
   -8.5399    0.2020    0.9930 H   0  0  0  0  0  0  0  0  0  0  0  0
   -7.2294   -1.8323    1.2875 H   0  0  0  0  0  0  0  0  0  0  0  0
   -5.0882   -2.1469    0.0047 H   0  0  0  0  0  0  0  0  0  0  0  0
   -4.2120    0.1380   -2.7055 H   0  0  0  0  0  0  0  0  0  0  0  0
   -3.8849   -1.4865   -1.9261 H   0  0  0  0  0  0  0  0  0  0  0  0
   -2.9510   -0.2384    0.0685 H   0  0  0  0  0  0  0  0  0  0  0  0
   -3.1794    1.2901   -0.7994 H   0  0  0  0  0  0  0  0  0  0  0  0
   -1.8844   -1.8561   -2.0177 H   0  0  0  0  0  0  0  0  0  0  0  0
   -0.3561   -1.1379   -2.5295 H   0  0  0  0  0  0  0  0  0  0  0  0
   -0.0606   -2.7068   -0.6539 H   0  0  0  0  0  0  0  0  0  0  0  0
   -1.2360   -1.8557    0.3489 H   0  0  0  0  0  0  0  0  0  0  0  0
    0.5682   -0.6296    1.1326 H   0  0  0  0  0  0  0  0  0  0  0  0
    4.2750   -2.7593   -0.6126 H   0  0  0  0  0  0  0  0  0  0  0  0
    6.4619   -2.1405    0.2102 H   0  0  0  0  0  0  0  0  0  0  0  0
    7.6740   -0.8799    2.1440 H   0  0  0  0  0  0  0  0  0  0  0  0
    8.0641    1.2840   -0.5275 H   0  0  0  0  0  0  0  0  0  0  0  0
    8.3487    2.9484    0.0487 H   0  0  0  0  0  0  0  0  0  0  0  0
    6.6346    2.4160   -0.2578 H   0  0  0  0  0  0  0  0  0  0  0  0
    4.7752    1.1380    2.3152 H   0  0  0  0  0  0  0  0  0  0  0  0
    2.5812    0.5314    1.5179 H   0  0  0  0  0  0  0  0  0  0  0  0
    1.0376    0.1355   -1.7999 H   0  0  0  0  0  0  0  0  0  0  0  0
    1.3873    1.1186   -0.3621 H   0  0  0  0  0  0  0  0  0  0  0  0
   -1.0549    1.2017    0.2111 H   0  0  0  0  0  0  0  0  0  0  0  0
   -0.6266    1.9661   -1.3408 H   0  0  0  0  0  0  0  0  0  0  0  0
   -0.6891    0.0000    0.0000 H   0  0  0  0  0  0  0  0  0  0  0  0
   -0.6922    0.0000    0.0000 H   0  0  0  0  0  0  0  0  0  0  0  0
  1  2  1  0
  2  3  2  0
  3  4  1  0
  4  5  2  0
  5  6  1  0
  6  7  1  0
  7  8  1  0
  8  9  1  0
  9 10  1  0
 10 11  1  0
 11 12  1  0
 12 13  1  0
 13 14  2  0
 13 15  1  0
 15 16  2  0
 16 17  1  0
 17 18  2  0
 18 19  1  0
 19 20  1  0
 20 21  1  0
 20 22  2  0
 20 23  2  0
 18 24  1  0
 24 25  2  0
 12 26  1  0
 26 27  1  0
  6 28  2  0
 28  2  1  0
 27  9  1  0
 25 15  1  0
  1 31  1  0
  1 32  1  0
  1 33  1  0
  3 34  1  0
  4 35  1  0
  5 36  1  0
  7 37  1  0
  7 38  1  0
  8 39  1  0
  8 40  1  0
 10 41  1  0
 10 42  1  0
 11 43  1  0
 11 44  1  0
 12 45  1  0
 16 46  1  0
 17 47  1  0
 19 48  1  0
 21 49  1  0
 21 50  1  0
 21 51  1  0
 24 52  1  0
 25 53  1  0
 26 54  1  0
 26 55  1  0
 27 56  1  0
 27 57  1  0
 29 58  1  0
 30 59  1  0
M  END
$$$$
