
     RDKit          3D

 40 40  0  0  0  0  0  0  0  0999 V2000
   -2.5406    2.7188    0.9527 C   0  0  0  0  0  0  0  0  0  0  0  0
   -2.8193    1.3027    0.5415 C   0  0  0  0  0  0  0  0  0  0  0  0
   -4.1288    0.8738    0.3150 C   0  0  0  0  0  0  0  0  0  0  0  0
   -4.3813   -0.4484   -0.0495 C   0  0  0  0  0  0  0  0  0  0  0  0
   -3.3293   -1.3665   -0.1801 C   0  0  0  0  0  0  0  0  0  0  0  0
   -3.6246   -2.7865   -0.5773 C   0  0  0  0  0  0  0  0  0  0  0  0
   -2.0103   -0.9497    0.0733 C   0  0  0  0  0  0  0  0  0  0  0  0
   -1.0478   -1.9130   -0.0790 O   0  0  0  0  0  0  0  0  0  0  0  0
    0.2728   -1.6573    0.4037 C   0  0  0  0  0  0  0  0  0  0  0  0
    1.1302   -1.0376   -0.6997 C   0  0  0  0  0  0  0  0  0  0  0  0
    2.6161   -0.8879   -0.3444 C   0  0  0  0  0  0  0  0  0  0  0  0
    3.0462    0.4155    0.3783 C   0  0  0  0  0  0  0  0  0  0  0  0
    4.5801    0.4139    0.5349 C   0  0  0  0  0  0  0  0  0  0  0  0
    2.4368    0.5290    1.7834 C   0  0  0  0  0  0  0  0  0  0  0  0
    2.6435    1.6363   -0.4438 C   0  0  0  0  0  0  0  0  0  0  0  0
    1.8471    2.5024   -0.1192 O   0  0  0  0  0  0  0  0  0  0  0  0
    3.2416    1.6929   -1.6495 O   0  0  0  0  0  0  0  0  0  0  0  0
   -1.7673    0.3810    0.4297 C   0  0  0  0  0  0  0  0  0  0  0  0
   -1.5782    3.0577    0.5549 H   0  0  0  0  0  0  0  0  0  0  0  0
   -2.5202    2.7939    2.0442 H   0  0  0  0  0  0  0  0  0  0  0  0
   -3.3081    3.3977    0.5665 H   0  0  0  0  0  0  0  0  0  0  0  0
   -4.9608    1.5669    0.4145 H   0  0  0  0  0  0  0  0  0  0  0  0
   -5.4075   -0.7593   -0.2313 H   0  0  0  0  0  0  0  0  0  0  0  0
   -4.6943   -2.9404   -0.7545 H   0  0  0  0  0  0  0  0  0  0  0  0
   -3.3170   -3.4738    0.2173 H   0  0  0  0  0  0  0  0  0  0  0  0
   -3.0970   -3.0395   -1.5027 H   0  0  0  0  0  0  0  0  0  0  0  0
    0.6925   -2.6362    0.6645 H   0  0  0  0  0  0  0  0  0  0  0  0
    0.2568   -1.0872    1.3353 H   0  0  0  0  0  0  0  0  0  0  0  0
    1.0580   -1.7005   -1.5732 H   0  0  0  0  0  0  0  0  0  0  0  0
    0.7062   -0.0883   -1.0410 H   0  0  0  0  0  0  0  0  0  0  0  0
    2.9406   -1.7591    0.2396 H   0  0  0  0  0  0  0  0  0  0  0  0
    3.1705   -0.9471   -1.2918 H   0  0  0  0  0  0  0  0  0  0  0  0
    4.9098   -0.4026    1.1871 H   0  0  0  0  0  0  0  0  0  0  0  0
    4.9352    1.3569    0.9669 H   0  0  0  0  0  0  0  0  0  0  0  0
    5.0858    0.2914   -0.4297 H   0  0  0  0  0  0  0  0  0  0  0  0
    2.8860    1.3604    2.3402 H   0  0  0  0  0  0  0  0  0  0  0  0
    2.5999   -0.3857    2.3636 H   0  0  0  0  0  0  0  0  0  0  0  0
    1.3629    0.7308    1.7511 H   0  0  0  0  0  0  0  0  0  0  0  0
    2.8745    2.5040   -2.0602 H   0  0  0  0  0  0  0  0  0  0  0  0
   -0.7608    0.7408    0.6130 H   0  0  0  0  0  0  0  0  0  0  0  0
  1  2  1  0
  2  3  2  0
  3  4  1  0
  4  5  2  0
  5  6  1  0
  5  7  1  0
  7  8  1  0
  8  9  1  0
  9 10  1  0
 10 11  1  0
 11 12  1  0
 12 13  1  0
 12 14  1  0
 12 15  1  0
 15 16  2  0
 15 17  1  0
  7 18  2  0
 18  2  1  0
  1 19  1  0
  1 20  1  0
  1 21  1  0
  3 22  1  0
  4 23  1  0
  6 24  1  0
  6 25  1  0
  6 26  1  0
  9 27  1  0
  9 28  1  0
 10 29  1  0
 10 30  1  0
 11 31  1  0
 11 32  1  0
 13 33  1  0
 13 34  1  0
 13 35  1  0
 14 36  1  0
 14 37  1  0
 14 38  1  0
 17 39  1  0
 18 40  1  0
M  END
$$$$
