
     RDKit          3D

 63 67  0  0  0  0  0  0  0  0999 V2000
    5.3217    2.9656   -0.4516 C   0  0  0  0  0  0  0  0  0  0  0  0
    5.7495    1.5078   -0.4809 C   0  0  0  0  0  0  0  0  0  0  0  0
    4.7903    0.6433    0.1836 N   0  0  0  0  0  0  0  0  0  0  0  0
    4.8881    0.4770    1.5112 N   0  0  0  0  0  0  0  0  0  0  0  0
    3.9001   -0.3716    1.8092 C   0  0  0  0  0  0  0  0  0  0  0  0
    3.6724   -0.7824    3.2168 C   0  0  0  0  0  0  0  0  0  0  0  0
    3.1647   -0.7620    0.6553 C   0  0  0  0  0  0  0  0  0  0  0  0
    2.0122   -1.7151    0.6018 C   0  0  0  0  0  0  0  0  0  0  0  0
    0.8494   -1.1768    1.3294 N   0  0  0  0  0  0  0  0  0  0  0  0
   -0.1128   -2.2645    1.5907 C   0  0  0  0  0  0  0  0  0  0  0  0
   -1.5233   -1.7432    1.8711 C   0  0  0  0  0  0  0  0  0  0  0  0
   -2.0838   -1.0046    0.6363 C   0  0  1  0  0  0  0  0  0  0  0  0
   -2.8587   -1.9625   -0.2422 C   0  0  0  0  0  0  0  0  0  0  0  0
   -2.5256   -3.2001   -0.5431 N   0  0  0  0  0  0  0  0  0  0  0  0
   -3.5236   -3.6110   -1.3869 C   0  0  0  0  0  0  0  0  0  0  0  0
   -3.5706   -4.9654   -1.9686 C   0  0  0  0  0  0  0  0  0  0  0  0
   -4.4474   -2.6815   -1.6497 N   0  0  0  0  0  0  0  0  0  0  0  0
   -4.0151   -1.6504   -0.9091 N   0  0  0  0  0  0  0  0  0  0  0  0
   -2.9301    0.2081    1.0622 C   0  0  0  0  0  0  0  0  0  0  0  0
   -2.7979    1.1454   -0.0407 N   0  0  0  0  0  0  0  0  0  0  0  0
   -3.6802    2.1892   -0.2061 C   0  0  0  0  0  0  0  0  0  0  0  0
   -4.6710    2.3455    0.4978 O   0  0  0  0  0  0  0  0  0  0  0  0
   -3.3871    3.1298   -1.3196 C   0  0  0  0  0  0  0  0  0  0  0  0
   -2.4843    4.3193   -1.0729 C   0  0  0  0  0  0  0  0  0  0  0  0
   -3.9496    4.5354   -1.3135 C   0  0  0  0  0  0  0  0  0  0  0  0
   -1.5970    0.8930   -0.8221 C   0  0  0  0  0  0  0  0  0  0  0  0
   -0.9514   -0.3510   -0.2042 C   0  0  1  0  0  0  0  0  0  0  0  0
    0.2480   -0.0024    0.6798 C   0  0  0  0  0  0  0  0  0  0  0  0
    3.7653   -0.0699   -0.3880 C   0  0  0  0  0  0  0  0  0  0  0  0
    3.4556   -0.0297   -1.8393 C   0  0  0  0  0  0  0  0  0  0  0  0
    5.2536    3.3334    0.5792 H   0  0  0  0  0  0  0  0  0  0  0  0
    6.0417    3.5847   -0.9945 H   0  0  0  0  0  0  0  0  0  0  0  0
    4.3398    3.1023   -0.9152 H   0  0  0  0  0  0  0  0  0  0  0  0
    6.7175    1.3785    0.0166 H   0  0  0  0  0  0  0  0  0  0  0  0
    5.8668    1.1630   -1.5141 H   0  0  0  0  0  0  0  0  0  0  0  0
    3.4442   -1.8498    3.2802 H   0  0  0  0  0  0  0  0  0  0  0  0
    4.5549   -0.5937    3.8336 H   0  0  0  0  0  0  0  0  0  0  0  0
    2.8306   -0.2269    3.6400 H   0  0  0  0  0  0  0  0  0  0  0  0
    2.3460   -2.6503    1.0703 H   0  0  0  0  0  0  0  0  0  0  0  0
    1.7467   -1.9627   -0.4323 H   0  0  0  0  0  0  0  0  0  0  0  0
    0.2360   -2.8377    2.4585 H   0  0  0  0  0  0  0  0  0  0  0  0
   -0.1530   -2.9617    0.7443 H   0  0  0  0  0  0  0  0  0  0  0  0
   -2.1729   -2.5766    2.1648 H   0  0  0  0  0  0  0  0  0  0  0  0
   -1.4783   -1.0764    2.7430 H   0  0  0  0  0  0  0  0  0  0  0  0
   -3.6203   -4.9155   -3.0596 H   0  0  0  0  0  0  0  0  0  0  0  0
   -4.4476   -5.5104   -1.6055 H   0  0  0  0  0  0  0  0  0  0  0  0
   -2.6803   -5.5365   -1.6952 H   0  0  0  0  0  0  0  0  0  0  0  0
   -4.5348   -0.7781   -0.9182 H   0  0  0  0  0  0  0  0  0  0  0  0
   -3.9830   -0.0212    1.2650 H   0  0  0  0  0  0  0  0  0  0  0  0
   -2.5216    0.7145    1.9474 H   0  0  0  0  0  0  0  0  0  0  0  0
   -3.3436    2.6573   -2.2989 H   0  0  0  0  0  0  0  0  0  0  0  0
   -1.7878    4.5973   -1.8547 H   0  0  0  0  0  0  0  0  0  0  0  0
   -2.1161    4.4884   -0.0692 H   0  0  0  0  0  0  0  0  0  0  0  0
   -4.5671    4.8362   -0.4752 H   0  0  0  0  0  0  0  0  0  0  0  0
   -4.2586    4.9614   -2.2618 H   0  0  0  0  0  0  0  0  0  0  0  0
   -0.9453    1.7706   -0.8079 H   0  0  0  0  0  0  0  0  0  0  0  0
   -1.9047    0.7016   -1.8564 H   0  0  0  0  0  0  0  0  0  0  0  0
   -0.5966   -1.0055   -1.0126 H   0  0  0  0  0  0  0  0  0  0  0  0
    0.9758    0.5686    0.0997 H   0  0  0  0  0  0  0  0  0  0  0  0
   -0.0692    0.6839    1.4730 H   0  0  0  0  0  0  0  0  0  0  0  0
    4.2267   -0.5552   -2.4096 H   0  0  0  0  0  0  0  0  0  0  0  0
    2.4954   -0.5032   -2.0606 H   0  0  0  0  0  0  0  0  0  0  0  0
    3.3977    1.0043   -2.1955 H   0  0  0  0  0  0  0  0  0  0  0  0
  1  2  1  0
  2  3  1  0
  3  4  1  0
  4  5  2  0
  5  6  1  0
  5  7  1  0
  7  8  1  0
  8  9  1  0
  9 10  1  0
 10 11  1  0
 11 12  1  0
 12 13  1  6
 13 14  2  0
 14 15  1  0
 15 16  1  0
 15 17  2  0
 17 18  1  0
 12 19  1  0
 19 20  1  0
 20 21  1  0
 21 22  2  0
 21 23  1  0
 23 24  1  0
 24 25  1  0
 20 26  1  0
 26 27  1  0
 27 28  1  0
  7 29  2  0
 29 30  1  0
 29  3  1  0
 28  9  1  0
 27 12  1  0
 18 13  1  0
 25 23  1  0
  1 31  1  0
  1 32  1  0
  1 33  1  0
  2 34  1  0
  2 35  1  0
  6 36  1  0
  6 37  1  0
  6 38  1  0
  8 39  1  0
  8 40  1  0
 10 41  1  0
 10 42  1  0
 11 43  1  0
 11 44  1  0
 16 45  1  0
 16 46  1  0
 16 47  1  0
 18 48  1  0
 19 49  1  0
 19 50  1  0
 23 51  1  0
 24 52  1  0
 24 53  1  0
 25 54  1  0
 25 55  1  0
 26 56  1  0
 26 57  1  0
 27 58  1  6
 28 59  1  0
 28 60  1  0
 30 61  1  0
 30 62  1  0
 30 63  1  0
M  END
$$$$
