
     RDKit          3D

 40 42  0  0  0  0  0  0  0  0999 V2000
    1.8304   -3.3211   -0.6851 C   0  0  0  0  0  0  0  0  0  0  0  0
    0.5770   -2.1404   -1.1520 S   0  0  0  0  0  6  0  0  0  0  0  0
    0.9968   -1.4894   -2.3738 O   0  0  0  0  0  0  0  0  0  0  0  0
   -0.7060   -2.8050   -1.0769 O   0  0  0  0  0  0  0  0  0  0  0  0
    0.6248   -1.0013    0.1153 N   0  0  0  0  0  0  0  0  0  0  0  0
   -0.0500   -1.3903    1.3851 C   0  0  0  0  0  0  0  0  0  0  0  0
   -1.5507   -1.1150    1.3747 C   0  0  0  0  0  0  0  0  0  0  0  0
   -2.2694   -1.5967    2.2475 O   0  0  0  0  0  0  0  0  0  0  0  0
   -1.9485   -0.2491    0.3718 N   0  0  0  0  0  0  0  0  0  0  0  0
   -3.2415    0.2320    0.0979 C   0  0  0  0  0  0  0  0  0  0  0  0
   -4.3627   -0.0578    0.8815 C   0  0  0  0  0  0  0  0  0  0  0  0
   -5.6167    0.4630    0.5454 C   0  0  0  0  0  0  0  0  0  0  0  0
   -5.7509    1.2749   -0.5743 C   0  0  0  0  0  0  0  0  0  0  0  0
   -6.9620    1.7654   -0.8758 F   0  0  0  0  0  0  0  0  0  0  0  0
   -4.6440    1.5714   -1.3630 C   0  0  0  0  0  0  0  0  0  0  0  0
   -4.7992    2.5794   -2.7507 Cl  0  0  0  0  0  0  0  0  0  0  0  0
   -3.3908    1.0518   -1.0296 C   0  0  0  0  0  0  0  0  0  0  0  0
    1.7866   -0.1579    0.1928 C   0  0  0  0  0  0  0  0  0  0  0  0
    2.8407   -0.4568    1.0819 C   0  0  0  0  0  0  0  0  0  0  0  0
    3.9862    0.3449    1.1246 C   0  0  0  0  0  0  0  0  0  0  0  0
    4.0486    1.4186    0.2638 C   0  0  0  0  0  0  0  0  0  0  0  0
    3.0301    1.7014   -0.6149 C   0  0  0  0  0  0  0  0  0  0  0  0
    1.8900    0.9289   -0.6812 C   0  0  0  0  0  0  0  0  0  0  0  0
    3.2933    2.7962   -1.3771 O   0  0  0  0  0  0  0  0  0  0  0  0
    4.5976    3.1668   -0.8835 C   0  0  0  0  0  0  0  0  0  0  0  0
    5.0793    2.2986    0.1647 O   0  0  0  0  0  0  0  0  0  0  0  0
    1.6021   -3.7251    0.3017 H   0  0  0  0  0  0  0  0  0  0  0  0
    2.8080   -2.8378   -0.7009 H   0  0  0  0  0  0  0  0  0  0  0  0
    1.8133   -4.1279   -1.4219 H   0  0  0  0  0  0  0  0  0  0  0  0
    0.1124   -2.4523    1.5950 H   0  0  0  0  0  0  0  0  0  0  0  0
    0.3565   -0.8213    2.2296 H   0  0  0  0  0  0  0  0  0  0  0  0
   -1.2130    0.0075   -0.2803 H   0  0  0  0  0  0  0  0  0  0  0  0
   -4.2966   -0.6889    1.7627 H   0  0  0  0  0  0  0  0  0  0  0  0
   -6.4873    0.2362    1.1533 H   0  0  0  0  0  0  0  0  0  0  0  0
   -2.5359    1.2879   -1.6581 H   0  0  0  0  0  0  0  0  0  0  0  0
    2.7818   -1.3141    1.7472 H   0  0  0  0  0  0  0  0  0  0  0  0
    4.8014    0.1307    1.8071 H   0  0  0  0  0  0  0  0  0  0  0  0
    1.1107    1.1630   -1.3976 H   0  0  0  0  0  0  0  0  0  0  0  0
    4.5481    4.1906   -0.4954 H   0  0  0  0  0  0  0  0  0  0  0  0
    5.3094    3.1394   -1.7166 H   0  0  0  0  0  0  0  0  0  0  0  0
  1  2  1  0
  2  3  2  0
  2  4  2  0
  2  5  1  0
  5  6  1  0
  6  7  1  0
  7  8  2  0
  7  9  1  0
  9 10  1  0
 10 11  2  0
 11 12  1  0
 12 13  2  0
 13 14  1  0
 13 15  1  0
 15 16  1  0
 15 17  2  0
  5 18  1  0
 18 19  2  0
 19 20  1  0
 20 21  2  0
 21 22  1  0
 22 23  2  0
 22 24  1  0
 24 25  1  0
 25 26  1  0
 17 10  1  0
 23 18  1  0
 26 21  1  0
  1 27  1  0
  1 28  1  0
  1 29  1  0
  6 30  1  0
  6 31  1  0
  9 32  1  0
 11 33  1  0
 12 34  1  0
 17 35  1  0
 19 36  1  0
 20 37  1  0
 23 38  1  0
 25 39  1  0
 25 40  1  0
M  END
$$$$
