
     RDKit          3D

 41 43  0  0  0  0  0  0  0  0999 V2000
    3.9293    2.2025    2.1171 C   0  0  0  0  0  0  0  0  0  0  0  0
    2.9011    1.8764    1.0609 C   0  0  0  0  0  0  0  0  0  0  0  0
    3.1389    1.0658    0.0028 C   0  0  0  0  0  0  0  0  0  0  0  0
    4.4211    0.3110   -0.1174 C   0  0  0  0  0  0  0  0  0  0  0  0
    5.0041   -0.2844    0.7718 O   0  0  0  0  0  0  0  0  0  0  0  0
    4.9170    0.3880   -1.3677 O   0  0  0  0  0  0  0  0  0  0  0  0
    2.2088    0.8833   -0.9798 N   0  0  0  0  0  0  0  0  0  0  0  0
    1.8815   -0.1990   -1.7237 C   0  0  0  0  0  0  0  0  0  0  0  0
    2.4360   -1.2516   -1.9408 O   0  0  0  0  0  0  0  0  0  0  0  0
    0.4867    0.4201   -2.0386 C   0  0  1  0  0  0  0  0  0  0  0  0
   -0.6864   -0.4179   -1.6719 N   0  0  0  0  0  0  0  0  0  0  0  0
   -1.9751    0.0173   -1.8984 C   0  0  0  0  0  0  0  0  0  0  0  0
   -2.2060    1.1099   -2.4206 O   0  0  0  0  0  0  0  0  0  0  0  0
   -3.0952   -0.9971   -1.5404 C   0  0  2  0  0  0  0  0  0  0  0  0
   -4.4245   -0.3897   -1.7640 N   0  0  0  0  0  0  0  0  0  0  0  0
   -2.9877   -1.5520   -0.1329 C   0  0  0  0  0  0  0  0  0  0  0  0
   -3.0284   -2.9396    0.0779 C   0  0  0  0  0  0  0  0  0  0  0  0
   -2.9283   -3.4671    1.3680 C   0  0  0  0  0  0  0  0  0  0  0  0
   -2.7951   -2.6150    2.4640 C   0  0  0  0  0  0  0  0  0  0  0  0
   -2.7670   -1.2353    2.2713 C   0  0  0  0  0  0  0  0  0  0  0  0
   -2.8683   -0.7063    0.9827 C   0  0  0  0  0  0  0  0  0  0  0  0
    0.9277    1.5577   -1.0645 C   0  0  1  0  0  0  0  0  0  0  0  0
    0.1752    1.6030    0.5887 S   0  0  0  0  0  0  0  0  0  0  0  0
    1.5583    2.5257    1.3212 C   0  0  0  0  0  0  0  0  0  0  0  0
    3.7393    1.6186    3.0239 H   0  0  0  0  0  0  0  0  0  0  0  0
    4.9564    2.0175    1.7911 H   0  0  0  0  0  0  0  0  0  0  0  0
    3.8758    3.2674    2.3740 H   0  0  0  0  0  0  0  0  0  0  0  0
    5.6978   -0.2025   -1.3449 H   0  0  0  0  0  0  0  0  0  0  0  0
    0.4220    0.7391   -3.0886 H   0  0  0  0  0  0  0  0  0  0  0  0
   -0.5503   -1.2650   -1.1243 H   0  0  0  0  0  0  0  0  0  0  0  0
   -2.9880   -1.8141   -2.2670 H   0  0  0  0  0  0  0  0  0  0  0  0
   -4.5471    0.3604   -1.0825 H   0  0  0  0  0  0  0  0  0  0  0  0
   -4.3829    0.1012   -2.6598 H   0  0  0  0  0  0  0  0  0  0  0  0
   -3.1514   -3.6219   -0.7631 H   0  0  0  0  0  0  0  0  0  0  0  0
   -2.9648   -4.5434    1.5175 H   0  0  0  0  0  0  0  0  0  0  0  0
   -2.7242   -3.0215    3.4706 H   0  0  0  0  0  0  0  0  0  0  0  0
   -2.6729   -0.5675    3.1257 H   0  0  0  0  0  0  0  0  0  0  0  0
   -2.8533    0.3737    0.8611 H   0  0  0  0  0  0  0  0  0  0  0  0
    0.9974    2.5377   -1.5510 H   0  0  0  0  0  0  0  0  0  0  0  0
    1.3627    2.5568    2.4002 H   0  0  0  0  0  0  0  0  0  0  0  0
    1.5597    3.5579    0.9515 H   0  0  0  0  0  0  0  0  0  0  0  0
  1  2  1  0
  2  3  2  0
  3  4  1  0
  4  5  2  0
  4  6  1  0
  3  7  1  0
  7  8  1  0
  8  9  2  0
  8 10  1  0
 10 11  1  0
 11 12  1  0
 12 13  2  0
 12 14  1  0
 14 15  1  0
 14 16  1  0
 16 17  2  0
 17 18  1  0
 18 19  2  0
 19 20  1  0
 20 21  2  0
 10 22  1  0
 22 23  1  0
 23 24  1  0
 24  2  1  0
 22  7  1  0
 21 16  1  0
  1 25  1  0
  1 26  1  0
  1 27  1  0
  6 28  1  0
 10 29  1  6
 11 30  1  0
 14 31  1  6
 15 32  1  0
 15 33  1  0
 17 34  1  0
 18 35  1  0
 19 36  1  0
 20 37  1  0
 21 38  1  0
 22 39  1  6
 24 40  1  0
 24 41  1  0
M  END
$$$$
