
     RDKit          3D

 38 39  0  0  0  0  0  0  0  0999 V2000
   -3.9653   -0.0678   -1.3022 C   0  0  0  0  0  0  0  0  0  0  0  0
   -2.8124    0.4732   -0.4379 C   0  0  0  0  0  0  0  0  0  0  0  0
   -3.3938    1.2934    0.7224 C   0  0  0  0  0  0  0  0  0  0  0  0
   -1.9368    1.3800   -1.3156 C   0  0  0  0  0  0  0  0  0  0  0  0
   -2.0594   -0.7366    0.1575 C   0  0  0  0  0  0  0  0  0  0  0  0
   -2.6525   -1.6897    0.6648 O   0  0  0  0  0  0  0  0  0  0  0  0
   -0.5696   -0.7791    0.1168 C   0  0  0  0  0  0  0  0  0  0  0  0
    0.0043   -0.0866    1.1236 C   0  0  0  0  0  0  0  0  0  0  0  0
    1.4410    0.0475    1.3746 C   0  0  0  0  0  0  0  0  0  0  0  0
    2.0530   -0.7514    2.3484 C   0  0  0  0  0  0  0  0  0  0  0  0
    3.4240   -0.6425    2.5947 C   0  0  0  0  0  0  0  0  0  0  0  0
    4.1946    0.2659    1.8688 C   0  0  0  0  0  0  0  0  0  0  0  0
    3.5806    1.0666    0.8966 C   0  0  0  0  0  0  0  0  0  0  0  0
    4.3861    2.0216    0.1276 N   0  0  0  0  0  4  0  0  0  0  0  0
    5.6138    2.0100    0.2973 O   0  0  0  0  0  0  0  0  0  0  0  0
    3.7907    2.7920   -0.6400 O   0  0  0  0  0  1  0  0  0  0  0  0
    2.2048    0.9679    0.6496 C   0  0  0  0  0  0  0  0  0  0  0  0
    0.0711   -1.5310   -0.8822 N   0  0  0  0  0  0  0  0  0  0  0  0
   -0.5608   -2.3306   -1.8292 C   0  0  0  0  0  0  0  0  0  0  0  0
    0.2970   -2.8684   -2.6619 N   0  0  0  0  0  0  0  0  0  0  0  0
    1.4832   -2.4106   -2.1955 C   0  0  0  0  0  0  0  0  0  0  0  0
    1.4134   -1.6096   -1.1356 N   0  0  0  0  0  0  0  0  0  0  0  0
   -3.5852   -0.6934   -2.1178 H   0  0  0  0  0  0  0  0  0  0  0  0
   -4.6556   -0.6836   -0.7142 H   0  0  0  0  0  0  0  0  0  0  0  0
   -4.5473    0.7477   -1.7461 H   0  0  0  0  0  0  0  0  0  0  0  0
   -4.0073    2.1232    0.3540 H   0  0  0  0  0  0  0  0  0  0  0  0
   -4.0228    0.6749    1.3729 H   0  0  0  0  0  0  0  0  0  0  0  0
   -2.6004    1.7177    1.3472 H   0  0  0  0  0  0  0  0  0  0  0  0
   -1.4780    0.8198   -2.1379 H   0  0  0  0  0  0  0  0  0  0  0  0
   -2.5293    2.1889   -1.7590 H   0  0  0  0  0  0  0  0  0  0  0  0
   -1.1314    1.8500   -0.7413 H   0  0  0  0  0  0  0  0  0  0  0  0
   -0.6079    0.4169    1.8709 H   0  0  0  0  0  0  0  0  0  0  0  0
    1.4689   -1.4746    2.9150 H   0  0  0  0  0  0  0  0  0  0  0  0
    3.8913   -1.2735    3.3476 H   0  0  0  0  0  0  0  0  0  0  0  0
    5.2623    0.3342    2.0671 H   0  0  0  0  0  0  0  0  0  0  0  0
    1.7318    1.5834   -0.1125 H   0  0  0  0  0  0  0  0  0  0  0  0
   -1.6318   -2.4789   -1.8459 H   0  0  0  0  0  0  0  0  0  0  0  0
    2.4357   -2.6668   -2.6427 H   0  0  0  0  0  0  0  0  0  0  0  0
  1  2  1  0
  2  3  1  0
  2  4  1  0
  2  5  1  0
  5  6  2  0
  5  7  1  0
  7  8  2  0
  8  9  1  0
  9 10  2  0
 10 11  1  0
 11 12  2  0
 12 13  1  0
 13 14  1  0
 14 15  2  0
 14 16  1  0
 13 17  2  0
  7 18  1  0
 18 19  1  0
 19 20  2  0
 20 21  1  0
 21 22  2  0
 17  9  1  0
 22 18  1  0
  1 23  1  0
  1 24  1  0
  1 25  1  0
  3 26  1  0
  3 27  1  0
  3 28  1  0
  4 29  1  0
  4 30  1  0
  4 31  1  0
  8 32  1  0
 10 33  1  0
 11 34  1  0
 12 35  1  0
 17 36  1  0
 19 37  1  0
 21 38  1  0
M  CHG  2  14   1  16  -1
M  END
$$$$
