
     RDKit          3D

 43 45  0  0  0  0  0  0  0  0999 V2000
    8.3061   -0.0253   -0.7977 C   0  0  0  0  0  0  0  0  0  0  0  0
    7.2610    0.7529   -0.2284 O   0  0  0  0  0  0  0  0  0  0  0  0
    6.0397    0.1473   -0.0873 C   0  0  0  0  0  0  0  0  0  0  0  0
    5.7300   -1.1605   -0.4747 C   0  0  0  0  0  0  0  0  0  0  0  0
    4.4406   -1.6851   -0.2846 C   0  0  0  0  0  0  0  0  0  0  0  0
    3.4596   -0.8755    0.3035 C   0  0  0  0  0  0  0  0  0  0  0  0
    2.1440   -1.1517    0.5872 N   0  0  0  0  0  0  0  0  0  0  0  0
    1.6766   -0.0511    1.1349 C   0  0  0  0  0  0  0  0  0  0  0  0
   -0.0121    0.1963    1.7155 S   0  0  0  0  0  4  0  0  0  0  0  0
   -0.1980    1.6890    1.7098 O   0  0  0  0  0  0  0  0  0  0  0  0
   -0.8388   -0.5244    0.2663 C   0  0  0  0  0  0  0  0  0  0  0  0
   -2.3378   -0.5042    0.4263 C   0  0  0  0  0  0  0  0  0  0  0  0
   -2.8476   -1.5399    1.1475 N   0  0  0  0  0  0  0  0  0  0  0  0
   -4.1809   -1.5788    1.3544 C   0  0  0  0  0  0  0  0  0  0  0  0
   -5.0724   -0.6439    0.8589 C   0  0  0  0  0  0  0  0  0  0  0  0
   -6.5378   -0.7707    1.1321 C   0  0  0  0  0  0  0  0  0  0  0  0
   -4.5347    0.3765    0.0709 C   0  0  0  0  0  0  0  0  0  0  0  0
   -5.3839    1.3151   -0.4654 O   0  0  0  0  0  0  0  0  0  0  0  0
   -5.7934    0.9218   -1.7772 C   0  0  0  0  0  0  0  0  0  0  0  0
   -3.1480    0.5021   -0.1173 C   0  0  0  0  0  0  0  0  0  0  0  0
   -2.5778    1.6440   -0.9098 C   0  0  0  0  0  0  0  0  0  0  0  0
    2.6341    0.9237    1.2117 N   0  0  0  0  0  0  0  0  0  0  0  0
    3.7918    0.4206    0.6812 C   0  0  0  0  0  0  0  0  0  0  0  0
    5.0645    0.9660    0.5016 C   0  0  0  0  0  0  0  0  0  0  0  0
    8.0663   -0.3162   -1.8257 H   0  0  0  0  0  0  0  0  0  0  0  0
    9.2061    0.5963   -0.8294 H   0  0  0  0  0  0  0  0  0  0  0  0
    8.5282   -0.9012   -0.1793 H   0  0  0  0  0  0  0  0  0  0  0  0
    6.4700   -1.8092   -0.9326 H   0  0  0  0  0  0  0  0  0  0  0  0
    4.2004   -2.6993   -0.5845 H   0  0  0  0  0  0  0  0  0  0  0  0
   -0.5149   -0.0049   -0.6405 H   0  0  0  0  0  0  0  0  0  0  0  0
   -0.5139   -1.5673    0.1750 H   0  0  0  0  0  0  0  0  0  0  0  0
   -4.5191   -2.4185    1.9562 H   0  0  0  0  0  0  0  0  0  0  0  0
   -7.0375   -1.2643    0.2933 H   0  0  0  0  0  0  0  0  0  0  0  0
   -6.9942    0.2110    1.2951 H   0  0  0  0  0  0  0  0  0  0  0  0
   -6.7199   -1.3605    2.0369 H   0  0  0  0  0  0  0  0  0  0  0  0
   -6.3448   -0.0242   -1.7569 H   0  0  0  0  0  0  0  0  0  0  0  0
   -4.9388    0.8461   -2.4578 H   0  0  0  0  0  0  0  0  0  0  0  0
   -6.4648    1.6953   -2.1617 H   0  0  0  0  0  0  0  0  0  0  0  0
   -1.6648    2.0327   -0.4513 H   0  0  0  0  0  0  0  0  0  0  0  0
   -3.2685    2.4913   -0.9626 H   0  0  0  0  0  0  0  0  0  0  0  0
   -2.3544    1.3160   -1.9297 H   0  0  0  0  0  0  0  0  0  0  0  0
    2.4803    1.8515    1.5826 H   0  0  0  0  0  0  0  0  0  0  0  0
    5.2996    1.9812    0.8043 H   0  0  0  0  0  0  0  0  0  0  0  0
  1  2  1  0
  2  3  1  0
  3  4  2  0
  4  5  1  0
  5  6  2  0
  6  7  1  0
  7  8  2  0
  8  9  1  0
  9 10  2  0
  9 11  1  0
 11 12  1  0
 12 13  2  0
 13 14  1  0
 14 15  2  0
 15 16  1  0
 15 17  1  0
 17 18  1  0
 18 19  1  0
 17 20  2  0
 20 21  1  0
  8 22  1  0
 22 23  1  0
 23 24  2  0
 24  3  1  0
 23  6  1  0
 20 12  1  0
  1 25  1  0
  1 26  1  0
  1 27  1  0
  4 28  1  0
  5 29  1  0
 11 30  1  0
 11 31  1  0
 14 32  1  0
 16 33  1  0
 16 34  1  0
 16 35  1  0
 19 36  1  0
 19 37  1  0
 19 38  1  0
 21 39  1  0
 21 40  1  0
 21 41  1  0
 22 42  1  0
 24 43  1  0
M  END
$$$$
