
     RDKit          3D

 27 28  0  0  0  0  0  0  0  0999 V2000
   -1.7919    3.1378    0.7640 C   0  0  0  0  0  0  0  0  0  0  0  0
   -1.8920    1.6336    0.5631 C   0  0  0  0  0  0  0  0  0  0  0  0
   -0.5141    1.0055    0.3439 C   0  0  0  0  0  0  0  0  0  0  0  0
   -0.5364   -0.4831    0.1343 C   0  0  0  0  0  0  0  0  0  0  0  0
   -1.7569   -1.1476    0.1800 N   0  0  0  0  0  0  0  0  0  0  0  0
   -1.5876   -2.4336   -0.0275 C   0  0  0  0  0  0  0  0  0  0  0  0
   -2.6881   -3.4346   -0.0478 C   0  0  0  0  0  0  0  0  0  0  0  0
    0.0304   -2.9292   -0.2854 S   0  0  0  0  0  0  0  0  0  0  0  0
    0.5585   -1.3038   -0.1082 C   0  0  0  0  0  0  0  0  0  0  0  0
    1.9430   -0.9467   -0.2118 C   0  0  0  0  0  0  0  0  0  0  0  0
    2.9255   -1.7928   -0.4715 N   0  0  0  0  0  0  0  0  0  0  0  0
    4.0951   -1.0607   -0.4898 N   0  0  0  0  0  0  0  0  0  0  0  0
    3.7532    0.1784   -0.2403 C   0  0  0  0  0  0  0  0  0  0  0  0
    4.5079    1.2761   -0.1337 N   0  0  0  0  0  0  0  0  0  0  0  0
    2.4177    0.3361   -0.0432 O   0  0  0  0  0  0  0  0  0  0  0  0
   -2.7870    3.5664    0.9191 H   0  0  0  0  0  0  0  0  0  0  0  0
   -1.1790    3.3768    1.6390 H   0  0  0  0  0  0  0  0  0  0  0  0
   -1.3463    3.6217   -0.1109 H   0  0  0  0  0  0  0  0  0  0  0  0
   -2.3745    1.1872    1.4411 H   0  0  0  0  0  0  0  0  0  0  0  0
   -2.5403    1.4302   -0.2979 H   0  0  0  0  0  0  0  0  0  0  0  0
   -0.0456    1.4736   -0.5309 H   0  0  0  0  0  0  0  0  0  0  0  0
    0.1197    1.2252    1.2120 H   0  0  0  0  0  0  0  0  0  0  0  0
   -3.6515   -2.9472    0.1337 H   0  0  0  0  0  0  0  0  0  0  0  0
   -2.7418   -3.9348   -1.0200 H   0  0  0  0  0  0  0  0  0  0  0  0
   -2.5414   -4.1905    0.7302 H   0  0  0  0  0  0  0  0  0  0  0  0
    5.4959    1.1142    0.0267 H   0  0  0  0  0  0  0  0  0  0  0  0
    4.1276    2.0420    0.4081 H   0  0  0  0  0  0  0  0  0  0  0  0
  1  2  1  0
  2  3  1  0
  3  4  1  0
  4  5  1  0
  5  6  2  0
  6  7  1  0
  6  8  1  0
  8  9  1  0
  9 10  1  0
 10 11  2  0
 11 12  1  0
 12 13  2  0
 13 14  1  0
 13 15  1  0
  9  4  2  0
 15 10  1  0
  1 16  1  0
  1 17  1  0
  1 18  1  0
  2 19  1  0
  2 20  1  0
  3 21  1  0
  3 22  1  0
  7 23  1  0
  7 24  1  0
  7 25  1  0
 14 26  1  0
 14 27  1  0
M  END
$$$$
