
     RDKit          3D

 86 91  0  0  0  0  0  0  0  0999 V2000
   -0.4355   -1.8586   -4.7834 C   0  0  0  0  0  0  0  0  0  0  0  0
   -0.1704   -1.9579   -3.2926 C   0  0  0  0  0  0  0  0  0  0  0  0
    0.8299   -0.9886   -2.9549 O   0  0  0  0  0  0  0  0  0  0  0  0
    0.5730   -0.3675   -1.7579 C   0  0  0  0  0  0  0  0  0  0  0  0
   -0.4964    0.5199   -1.6488 C   0  0  0  0  0  0  0  0  0  0  0  0
   -0.7565    1.1273   -0.4208 C   0  0  0  0  0  0  0  0  0  0  0  0
   -1.9194    2.0369   -0.2468 C   0  0  0  0  0  0  0  0  0  0  0  0
   -1.7339    3.0878    0.3648 O   0  0  0  0  0  0  0  0  0  0  0  0
   -3.1480    1.6805   -0.8173 N   0  0  0  0  0  0  0  0  0  0  0  0
   -3.5960    0.2886   -0.9366 C   0  0  0  0  0  0  0  0  0  0  0  0
   -4.5229    0.1346   -2.1370 C   0  0  0  0  0  0  0  0  0  0  0  0
   -5.7635    1.0490   -2.0108 C   0  0  0  0  0  0  0  0  0  0  0  0
   -6.6651    0.6339   -0.9082 N   0  0  0  0  0  0  0  0  0  0  0  0
   -7.7689    1.5964   -0.6747 C   0  0  0  0  0  0  0  0  0  0  0  0
   -9.0294    1.0374    0.0409 C   0  0  0  0  0  0  0  0  0  0  0  0
   -8.7224   -0.1047    0.9014 N   0  0  0  0  0  0  0  0  0  0  0  0
   -9.8883   -0.5711    1.6391 C   0  0  0  0  0  0  0  0  0  0  0  0
   -8.1037   -1.1862    0.1182 C   0  0  0  0  0  0  0  0  0  0  0  0
   -7.2344   -0.7167   -1.0825 C   0  0  0  0  0  0  0  0  0  0  0  0
   -5.2307    2.4961   -1.8642 C   0  0  0  0  0  0  0  0  0  0  0  0
   -4.2386    2.6470   -0.7113 C   0  0  0  0  0  0  0  0  0  0  0  0
    0.1250    0.9373    0.6501 C   0  0  0  0  0  0  0  0  0  0  0  0
    1.2351    0.0954    0.5081 C   0  0  0  0  0  0  0  0  0  0  0  0
    1.4654   -0.5867   -0.6908 C   0  0  0  0  0  0  0  0  0  0  0  0
    2.5245   -1.4845   -0.8673 N   0  0  0  0  0  0  0  0  0  0  0  0
    3.7763   -1.6053   -0.2786 C   0  0  0  0  0  0  0  0  0  0  0  0
    4.4848   -2.6742   -0.6679 N   0  0  0  0  0  0  0  0  0  0  0  0
    5.7293   -2.8206   -0.1627 C   0  0  0  0  0  0  0  0  0  0  0  0
    6.3500   -1.9127    0.6685 C   0  0  0  0  0  0  0  0  0  0  0  0
    5.5279   -0.8425    0.9812 C   0  0  0  0  0  0  0  0  0  0  0  0
    4.2546   -0.6833    0.5604 N   0  0  0  0  0  0  0  0  0  0  0  0
    5.9308    0.1964    1.8609 N   0  0  0  0  0  0  0  0  0  0  0  0
    5.8205   -0.1600    3.5131 S   0  0  0  0  0  6  0  0  0  0  0  0
    4.2918    0.6705    3.8895 C   0  0  0  0  0  0  0  0  0  0  0  0
    6.8608    0.5437    4.2330 O   0  0  0  0  0  0  0  0  0  0  0  0
    5.6052   -1.5814    3.7092 O   0  0  0  0  0  0  0  0  0  0  0  0
    7.0746    0.9193    1.4174 C   0  0  0  0  0  0  0  0  0  0  0  0
    6.9049    2.2912    1.1797 C   0  0  0  0  0  0  0  0  0  0  0  0
    7.9788    3.0759    0.7575 C   0  0  0  0  0  0  0  0  0  0  0  0
    9.2312    2.4976    0.5898 C   0  0  0  0  0  0  0  0  0  0  0  0
    9.4070    1.1349    0.8395 C   0  0  0  0  0  0  0  0  0  0  0  0
    8.3263    0.3290    1.2440 C   0  0  0  0  0  0  0  0  0  0  0  0
    8.6051   -1.1069    1.4879 C   0  0  0  0  0  0  0  0  0  0  0  0
    9.7406   -1.3773    1.8871 O   0  0  0  0  0  0  0  0  0  0  0  0
    7.6808   -2.1099    1.1559 N   0  0  0  0  0  0  0  0  0  0  0  0
    8.1584   -3.4895    1.2508 C   0  0  0  0  0  0  0  0  0  0  0  0
   -1.1087   -2.6526   -5.1140 H   0  0  0  0  0  0  0  0  0  0  0  0
    0.5014   -1.9297   -5.3464 H   0  0  0  0  0  0  0  0  0  0  0  0
   -0.8820   -0.8888   -5.0306 H   0  0  0  0  0  0  0  0  0  0  0  0
    0.2309   -2.9509   -3.0537 H   0  0  0  0  0  0  0  0  0  0  0  0
   -1.1100   -1.8277   -2.7388 H   0  0  0  0  0  0  0  0  0  0  0  0
   -1.1202    0.7276   -2.5121 H   0  0  0  0  0  0  0  0  0  0  0  0
   -2.7599   -0.4050   -1.0274 H   0  0  0  0  0  0  0  0  0  0  0  0
   -4.1034    0.0261   -0.0007 H   0  0  0  0  0  0  0  0  0  0  0  0
   -4.7914   -0.9163   -2.2762 H   0  0  0  0  0  0  0  0  0  0  0  0
   -3.9718    0.4095   -3.0475 H   0  0  0  0  0  0  0  0  0  0  0  0
   -6.3221    0.9948   -2.9576 H   0  0  0  0  0  0  0  0  0  0  0  0
   -8.1060    2.0297   -1.6239 H   0  0  0  0  0  0  0  0  0  0  0  0
   -7.3705    2.4099   -0.0591 H   0  0  0  0  0  0  0  0  0  0  0  0
   -9.4775    1.8483    0.6296 H   0  0  0  0  0  0  0  0  0  0  0  0
   -9.7644    0.7405   -0.7201 H   0  0  0  0  0  0  0  0  0  0  0  0
  -10.2583    0.2186    2.3023 H   0  0  0  0  0  0  0  0  0  0  0  0
   -9.6238   -1.4213    2.2794 H   0  0  0  0  0  0  0  0  0  0  0  0
  -10.7039   -0.8817    0.9761 H   0  0  0  0  0  0  0  0  0  0  0  0
   -8.8665   -1.8745   -0.2756 H   0  0  0  0  0  0  0  0  0  0  0  0
   -7.4699   -1.7670    0.8000 H   0  0  0  0  0  0  0  0  0  0  0  0
   -7.8460   -0.7373   -1.9956 H   0  0  0  0  0  0  0  0  0  0  0  0
   -6.4504   -1.4722   -1.2020 H   0  0  0  0  0  0  0  0  0  0  0  0
   -6.0432    3.2211   -1.7532 H   0  0  0  0  0  0  0  0  0  0  0  0
   -4.7208    2.7688   -2.7981 H   0  0  0  0  0  0  0  0  0  0  0  0
   -3.8346    3.6648   -0.7177 H   0  0  0  0  0  0  0  0  0  0  0  0
   -4.7285    2.4989    0.2578 H   0  0  0  0  0  0  0  0  0  0  0  0
   -0.0550    1.4462    1.5957 H   0  0  0  0  0  0  0  0  0  0  0  0
    1.8955   -0.0404    1.3604 H   0  0  0  0  0  0  0  0  0  0  0  0
    2.4957   -2.0088   -1.7277 H   0  0  0  0  0  0  0  0  0  0  0  0
    6.2304   -3.7194   -0.5106 H   0  0  0  0  0  0  0  0  0  0  0  0
    4.3858    1.7272    3.6294 H   0  0  0  0  0  0  0  0  0  0  0  0
    3.4804    0.2010    3.3339 H   0  0  0  0  0  0  0  0  0  0  0  0
    4.1093    0.5692    4.9628 H   0  0  0  0  0  0  0  0  0  0  0  0
    5.9286    2.7534    1.3146 H   0  0  0  0  0  0  0  0  0  0  0  0
    7.8353    4.1367    0.5699 H   0  0  0  0  0  0  0  0  0  0  0  0
   10.0748    3.1050    0.2711 H   0  0  0  0  0  0  0  0  0  0  0  0
   10.3972    0.6967    0.7183 H   0  0  0  0  0  0  0  0  0  0  0  0
    7.3706   -4.1370    1.6551 H   0  0  0  0  0  0  0  0  0  0  0  0
    8.4564   -3.8290    0.2534 H   0  0  0  0  0  0  0  0  0  0  0  0
    9.0277   -3.5748    1.9071 H   0  0  0  0  0  0  0  0  0  0  0  0
  1  2  1  0
  2  3  1  0
  3  4  1  0
  4  5  2  0
  5  6  1  0
  6  7  1  0
  7  8  2  0
  7  9  1  0
  9 10  1  0
 10 11  1  0
 11 12  1  0
 12 13  1  0
 13 14  1  0
 14 15  1  0
 15 16  1  0
 16 17  1  0
 16 18  1  0
 18 19  1  0
 12 20  1  0
 20 21  1  0
  6 22  2  0
 22 23  1  0
 23 24  2  0
 24 25  1  0
 25 26  1  0
 26 27  2  0
 27 28  1  0
 28 29  2  0
 29 30  1  0
 30 31  2  0
 30 32  1  0
 32 33  1  0
 33 34  1  0
 33 35  2  0
 33 36  2  0
 32 37  1  0
 37 38  2  0
 38 39  1  0
 39 40  2  0
 40 41  1  0
 41 42  2  0
 42 43  1  0
 43 44  2  0
 43 45  1  0
 45 46  1  0
 24  4  1  0
 31 26  1  0
 42 37  1  0
 21  9  1  0
 45 29  1  0
 19 13  1  0
  1 47  1  0
  1 48  1  0
  1 49  1  0
  2 50  1  0
  2 51  1  0
  5 52  1  0
 10 53  1  0
 10 54  1  0
 11 55  1  0
 11 56  1  0
 12 57  1  0
 14 58  1  0
 14 59  1  0
 15 60  1  0
 15 61  1  0
 17 62  1  0
 17 63  1  0
 17 64  1  0
 18 65  1  0
 18 66  1  0
 19 67  1  0
 19 68  1  0
 20 69  1  0
 20 70  1  0
 21 71  1  0
 21 72  1  0
 22 73  1  0
 23 74  1  0
 25 75  1  0
 28 76  1  0
 34 77  1  0
 34 78  1  0
 34 79  1  0
 38 80  1  0
 39 81  1  0
 40 82  1  0
 41 83  1  0
 46 84  1  0
 46 85  1  0
 46 86  1  0
M  END
$$$$
