
     RDKit          3D

 47 50  0  0  0  0  0  0  0  0999 V2000
    2.4192   -2.5746   -1.2894 O   0  0  0  0  0  0  0  0  0  0  0  0
    2.2267   -1.3622   -1.3587 C   0  0  0  0  0  0  0  0  0  0  0  0
    1.0462   -0.7995   -2.1565 C   0  0  0  0  0  0  0  0  0  0  0  0
    0.1513    0.0104   -1.3309 N   0  0  0  0  0  0  0  0  0  0  0  0
   -1.0089   -0.5975   -0.9324 N   0  0  0  0  0  0  0  0  0  0  0  0
   -1.8973    0.0580   -0.2363 C   0  0  0  0  0  0  0  0  0  0  0  0
   -3.0889   -0.5756    0.1161 N   0  0  0  0  0  0  0  0  0  0  0  0
   -4.3519   -0.0987   -0.5000 C   0  0  0  0  0  0  0  0  0  0  0  0
   -5.0674   -1.2271   -1.2546 C   0  0  0  0  0  0  0  0  0  0  0  0
   -5.4235   -2.3267   -0.4045 O   0  0  0  0  0  0  0  0  0  0  0  0
   -4.4610   -2.5697    0.6346 C   0  0  0  0  0  0  0  0  0  0  0  0
   -3.0583   -2.0472    0.3013 C   0  0  0  0  0  0  0  0  0  0  0  0
   -1.6589    1.4652    0.1866 C   0  0  0  0  0  0  0  0  0  0  0  0
   -2.5335    2.1534    1.0377 C   0  0  0  0  0  0  0  0  0  0  0  0
   -2.2679    3.4773    1.3975 C   0  0  0  0  0  0  0  0  0  0  0  0
   -1.1230    4.1144    0.9221 C   0  0  0  0  0  0  0  0  0  0  0  0
   -0.2339    3.4219    0.1004 C   0  0  0  0  0  0  0  0  0  0  0  0
   -0.5022    2.0931   -0.2568 C   0  0  0  0  0  0  0  0  0  0  0  0
    0.4630    1.3353   -1.0657 C   0  0  0  0  0  0  0  0  0  0  0  0
    1.5134    1.8633   -1.4311 O   0  0  0  0  0  0  0  0  0  0  0  0
    3.0566   -0.3793   -0.8411 N   0  0  0  0  0  0  0  0  0  0  0  0
    4.2214   -0.5419   -0.0688 C   0  0  0  0  0  0  0  0  0  0  0  0
    4.8943    0.6272    0.3175 C   0  0  0  0  0  0  0  0  0  0  0  0
    6.0572    0.5570    1.0879 C   0  0  0  0  0  0  0  0  0  0  0  0
    6.5466   -0.6835    1.4734 C   0  0  0  0  0  0  0  0  0  0  0  0
    7.6611   -0.7536    2.2127 F   0  0  0  0  0  0  0  0  0  0  0  0
    5.8938   -1.8516    1.1027 C   0  0  0  0  0  0  0  0  0  0  0  0
    4.7293   -1.7811    0.3311 C   0  0  0  0  0  0  0  0  0  0  0  0
    1.4388   -0.1907   -2.9790 H   0  0  0  0  0  0  0  0  0  0  0  0
    0.4808   -1.6315   -2.5914 H   0  0  0  0  0  0  0  0  0  0  0  0
   -4.1636    0.7333   -1.1880 H   0  0  0  0  0  0  0  0  0  0  0  0
   -5.0014    0.2651    0.3042 H   0  0  0  0  0  0  0  0  0  0  0  0
   -4.4399   -1.6122   -2.0669 H   0  0  0  0  0  0  0  0  0  0  0  0
   -5.9910   -0.8509   -1.7059 H   0  0  0  0  0  0  0  0  0  0  0  0
   -4.8376   -2.0978    1.5496 H   0  0  0  0  0  0  0  0  0  0  0  0
   -4.4325   -3.6498    0.8093 H   0  0  0  0  0  0  0  0  0  0  0  0
   -2.7009   -2.5334   -0.6147 H   0  0  0  0  0  0  0  0  0  0  0  0
   -2.3695   -2.2941    1.1166 H   0  0  0  0  0  0  0  0  0  0  0  0
   -3.4152    1.6670    1.4438 H   0  0  0  0  0  0  0  0  0  0  0  0
   -2.9508    4.0086    2.0568 H   0  0  0  0  0  0  0  0  0  0  0  0
   -0.9139    5.1437    1.2048 H   0  0  0  0  0  0  0  0  0  0  0  0
    0.6711    3.9144   -0.2493 H   0  0  0  0  0  0  0  0  0  0  0  0
    2.7894    0.5833   -1.0530 H   0  0  0  0  0  0  0  0  0  0  0  0
    4.5205    1.6050    0.0220 H   0  0  0  0  0  0  0  0  0  0  0  0
    6.5806    1.4589    1.3873 H   0  0  0  0  0  0  0  0  0  0  0  0
    6.2899   -2.8129    1.4138 H   0  0  0  0  0  0  0  0  0  0  0  0
    4.2416   -2.7124    0.0611 H   0  0  0  0  0  0  0  0  0  0  0  0
  1  2  2  0
  2  3  1  0
  3  4  1  0
  4  5  1  0
  5  6  2  0
  6  7  1  0
  7  8  1  0
  8  9  1  0
  9 10  1  0
 10 11  1  0
 11 12  1  0
  6 13  1  0
 13 14  2  0
 14 15  1  0
 15 16  2  0
 16 17  1  0
 17 18  2  0
 18 19  1  0
 19 20  2  0
  2 21  1  0
 21 22  1  0
 22 23  2  0
 23 24  1  0
 24 25  2  0
 25 26  1  0
 25 27  1  0
 27 28  2  0
 19  4  1  0
 28 22  1  0
 12  7  1  0
 18 13  1  0
  3 29  1  0
  3 30  1  0
  8 31  1  0
  8 32  1  0
  9 33  1  0
  9 34  1  0
 11 35  1  0
 11 36  1  0
 12 37  1  0
 12 38  1  0
 14 39  1  0
 15 40  1  0
 16 41  1  0
 17 42  1  0
 21 43  1  0
 23 44  1  0
 24 45  1  0
 27 46  1  0
 28 47  1  0
M  END
$$$$
