
     RDKit          3D

 51 51  0  0  0  0  0  0  0  0999 V2000
    5.1869    2.7262    0.8072 C   0  0  0  0  0  0  0  0  0  0  0  0
    4.4030    1.8415   -0.1332 C   0  0  0  0  0  0  0  0  0  0  0  0
    3.3204    1.0941    0.6422 C   0  0  0  0  0  0  0  0  0  0  0  0
    2.5729    0.2362   -0.3225 C   0  0  0  0  0  0  0  0  0  0  0  0
    1.5283   -0.5137    0.2938 N   0  0  0  0  0  0  0  0  0  0  0  0
    1.9341   -1.5462    1.1882 C   0  0  0  0  0  0  0  0  0  0  0  0
    2.4534   -2.7592    0.4595 C   0  0  0  0  0  0  0  0  0  0  0  0
    1.4401   -3.1971   -0.5444 C   0  0  0  0  0  0  0  0  0  0  0  0
    0.2055   -2.3529   -0.5037 C   0  0  0  0  0  0  0  0  0  0  0  0
    0.4771   -0.8675   -0.6090 C   0  0  1  0  0  0  0  0  0  0  0  0
   -0.7687   -0.1907   -0.1689 C   0  0  0  0  0  0  0  0  0  0  0  0
   -0.7742    0.5361    0.8398 O   0  0  0  0  0  0  0  0  0  0  0  0
   -2.0053   -0.3307   -0.8604 N   0  0  0  0  0  0  0  0  0  0  0  0
   -3.1780    0.3294   -0.4128 C   0  0  0  0  0  0  0  0  0  0  0  0
   -3.4674    1.5888   -0.8750 C   0  0  0  0  0  0  0  0  0  0  0  0
   -2.5388    2.2195   -1.8364 C   0  0  0  0  0  0  0  0  0  0  0  0
   -4.6060    2.2814   -0.4639 C   0  0  0  0  0  0  0  0  0  0  0  0
   -5.4571    1.6858    0.4256 C   0  0  0  0  0  0  0  0  0  0  0  0
   -5.1915    0.4193    0.9078 C   0  0  0  0  0  0  0  0  0  0  0  0
   -4.0428   -0.2587    0.4822 C   0  0  0  0  0  0  0  0  0  0  0  0
   -3.8062   -1.6054    1.0240 C   0  0  0  0  0  0  0  0  0  0  0  0
    0.6919    0.0000    0.0000 Cl  0  0  0  0  0  0  0  0  0  0  0  0
    6.2746    2.5271    0.7299 H   0  0  0  0  0  0  0  0  0  0  0  0
    5.0202    3.8045    0.6175 H   0  0  0  0  0  0  0  0  0  0  0  0
    4.8879    2.5056    1.8575 H   0  0  0  0  0  0  0  0  0  0  0  0
    5.0341    1.0781   -0.6160 H   0  0  0  0  0  0  0  0  0  0  0  0
    3.9580    2.4643   -0.9231 H   0  0  0  0  0  0  0  0  0  0  0  0
    3.7496    0.4864    1.4459 H   0  0  0  0  0  0  0  0  0  0  0  0
    2.6301    1.8548    1.0792 H   0  0  0  0  0  0  0  0  0  0  0  0
    3.2924   -0.4048   -0.8779 H   0  0  0  0  0  0  0  0  0  0  0  0
    2.0807    0.9266   -1.0614 H   0  0  0  0  0  0  0  0  0  0  0  0
    1.0076   -1.8660    1.7495 H   0  0  0  0  0  0  0  0  0  0  0  0
    2.6623   -1.1663    1.9039 H   0  0  0  0  0  0  0  0  0  0  0  0
    3.4464   -2.5269    0.0432 H   0  0  0  0  0  0  0  0  0  0  0  0
    2.5913   -3.5713    1.2107 H   0  0  0  0  0  0  0  0  0  0  0  0
    1.0910   -4.2487   -0.3213 H   0  0  0  0  0  0  0  0  0  0  0  0
    1.8653   -3.2655   -1.5677 H   0  0  0  0  0  0  0  0  0  0  0  0
   -0.4394   -2.5456    0.3538 H   0  0  0  0  0  0  0  0  0  0  0  0
   -0.3954   -2.6195   -1.4230 H   0  0  0  0  0  0  0  0  0  0  0  0
    0.7229   -0.6362   -1.6723 H   0  0  0  0  0  0  0  0  0  0  0  0
   -2.0133   -0.9374   -1.7084 H   0  0  0  0  0  0  0  0  0  0  0  0
   -3.0425    3.0917   -2.3335 H   0  0  0  0  0  0  0  0  0  0  0  0
   -1.6778    2.6612   -1.2725 H   0  0  0  0  0  0  0  0  0  0  0  0
   -2.2133    1.5322   -2.6430 H   0  0  0  0  0  0  0  0  0  0  0  0
   -4.8176    3.2861   -0.8461 H   0  0  0  0  0  0  0  0  0  0  0  0
   -6.3581    2.2064    0.7651 H   0  0  0  0  0  0  0  0  0  0  0  0
   -5.8593   -0.0783    1.6215 H   0  0  0  0  0  0  0  0  0  0  0  0
   -3.4649   -2.3187    0.2349 H   0  0  0  0  0  0  0  0  0  0  0  0
   -4.7114   -2.0055    1.5238 H   0  0  0  0  0  0  0  0  0  0  0  0
   -3.0071   -1.5704    1.7898 H   0  0  0  0  0  0  0  0  0  0  0  0
   -0.6919    0.0000    0.0000 H   0  0  0  0  0  0  0  0  0  0  0  0
  1  2  1  0
  2  3  1  0
  3  4  1  0
  4  5  1  0
  5  6  1  0
  6  7  1  0
  7  8  1  0
  8  9  1  0
  9 10  1  0
 10 11  1  0
 11 12  2  0
 11 13  1  0
 13 14  1  0
 14 15  2  0
 15 16  1  0
 15 17  1  0
 17 18  2  0
 18 19  1  0
 19 20  2  0
 20 21  1  0
 10  5  1  0
 20 14  1  0
  1 23  1  0
  1 24  1  0
  1 25  1  0
  2 26  1  0
  2 27  1  0
  3 28  1  0
  3 29  1  0
  4 30  1  0
  4 31  1  0
  6 32  1  0
  6 33  1  0
  7 34  1  0
  7 35  1  0
  8 36  1  0
  8 37  1  0
  9 38  1  0
  9 39  1  0
 10 40  1  6
 13 41  1  0
 16 42  1  0
 16 43  1  0
 16 44  1  0
 17 45  1  0
 18 46  1  0
 19 47  1  0
 21 48  1  0
 21 49  1  0
 21 50  1  0
 22 51  1  0
M  END
$$$$
