
     RDKit          3D

 37 40  0  0  0  0  0  0  0  0999 V2000
    7.6480    1.1072    0.6013 C   0  0  0  0  0  0  0  0  0  0  0  0
    7.1234    0.1373   -0.2964 O   0  0  0  0  0  0  0  0  0  0  0  0
    5.7836   -0.1227   -0.2178 C   0  0  0  0  0  0  0  0  0  0  0  0
    5.3297   -1.1112   -1.0951 C   0  0  0  0  0  0  0  0  0  0  0  0
    3.9820   -1.4773   -1.1208 C   0  0  0  0  0  0  0  0  0  0  0  0
    3.0693   -0.8432   -0.2728 C   0  0  0  0  0  0  0  0  0  0  0  0
    1.6380   -1.2552   -0.3312 C   0  0  0  0  0  0  0  0  0  0  0  0
    1.3838   -2.4281   -0.5721 O   0  0  0  0  0  0  0  0  0  0  0  0
    0.7417   -0.2289   -0.1394 N   0  0  0  0  0  0  0  0  0  0  0  0
   -0.6114   -0.4279   -0.1399 C   0  0  0  0  0  0  0  0  0  0  0  0
   -1.2939   -1.5407   -0.2396 N   0  0  0  0  0  0  0  0  0  0  0  0
   -2.6432   -1.2539   -0.1878 C   0  0  0  0  0  0  0  0  0  0  0  0
   -3.7283   -2.1526   -0.2633 C   0  0  0  0  0  0  0  0  0  0  0  0
   -5.0820   -1.7171   -0.1947 C   0  0  0  0  0  0  0  0  0  0  0  0
   -5.4304   -0.3574   -0.0464 C   0  0  0  0  0  0  0  0  0  0  0  0
   -6.6954    0.1946    0.0332 N   0  0  0  0  0  0  0  0  0  0  0  0
   -6.6006    1.5030    0.1681 C   0  0  0  0  0  0  0  0  0  0  0  0
   -7.7646    2.4230    0.2836 C   0  0  0  0  0  0  0  0  0  0  0  0
   -4.9967    2.1372    0.2076 S   0  0  0  0  0  0  0  0  0  0  0  0
   -4.4044    0.5639    0.0326 C   0  0  0  0  0  0  0  0  0  0  0  0
   -2.9308    0.0902   -0.0421 C   0  0  0  0  0  0  0  0  0  0  0  0
   -1.5172    1.0169    0.0315 S   0  0  0  0  0  0  0  0  0  0  0  0
    3.5222    0.1368    0.6200 C   0  0  0  0  0  0  0  0  0  0  0  0
    4.8759    0.4970    0.6431 C   0  0  0  0  0  0  0  0  0  0  0  0
    8.7238    1.1860    0.4174 H   0  0  0  0  0  0  0  0  0  0  0  0
    7.5097    0.7973    1.6425 H   0  0  0  0  0  0  0  0  0  0  0  0
    7.2059    2.0924    0.4196 H   0  0  0  0  0  0  0  0  0  0  0  0
    6.0332   -1.6061   -1.7610 H   0  0  0  0  0  0  0  0  0  0  0  0
    3.6474   -2.2563   -1.8034 H   0  0  0  0  0  0  0  0  0  0  0  0
    1.0519    0.7271   -0.0671 H   0  0  0  0  0  0  0  0  0  0  0  0
   -3.5160   -3.2135   -0.3783 H   0  0  0  0  0  0  0  0  0  0  0  0
   -5.8790   -2.4545   -0.2586 H   0  0  0  0  0  0  0  0  0  0  0  0
   -8.7024    1.8599    0.2405 H   0  0  0  0  0  0  0  0  0  0  0  0
   -7.7695    3.1490   -0.5355 H   0  0  0  0  0  0  0  0  0  0  0  0
   -7.7400    2.9641    1.2348 H   0  0  0  0  0  0  0  0  0  0  0  0
    2.8455    0.6076    1.3278 H   0  0  0  0  0  0  0  0  0  0  0  0
    5.1909    1.2563    1.3517 H   0  0  0  0  0  0  0  0  0  0  0  0
  1  2  1  0
  2  3  1  0
  3  4  2  0
  4  5  1  0
  5  6  2  0
  6  7  1  0
  7  8  2  0
  7  9  1  0
  9 10  1  0
 10 11  2  0
 11 12  1  0
 12 13  2  0
 13 14  1  0
 14 15  2  0
 15 16  1  0
 16 17  2  0
 17 18  1  0
 17 19  1  0
 19 20  1  0
 20 21  2  0
 21 22  1  0
  6 23  1  0
 23 24  2  0
 24  3  1  0
 22 10  1  0
 21 12  1  0
 20 15  1  0
  1 25  1  0
  1 26  1  0
  1 27  1  0
  4 28  1  0
  5 29  1  0
  9 30  1  0
 13 31  1  0
 14 32  1  0
 18 33  1  0
 18 34  1  0
 18 35  1  0
 23 36  1  0
 24 37  1  0
M  END
$$$$
