
     RDKit          3D

 43 45  0  0  0  0  0  0  0  0999 V2000
   -2.7955   -2.8292   -2.4064 C   0  0  0  0  0  0  0  0  0  0  0  0
   -2.7346   -1.9456   -1.1960 C   0  0  0  0  0  0  0  0  0  0  0  0
   -3.3163   -2.3487    0.0082 C   0  0  0  0  0  0  0  0  0  0  0  0
   -3.2359   -1.5361    1.1413 C   0  0  0  0  0  0  0  0  0  0  0  0
   -2.5543   -0.3104    1.1019 C   0  0  0  0  0  0  0  0  0  0  0  0
   -2.4963    0.5364    2.3443 C   0  0  0  0  0  0  0  0  0  0  0  0
   -1.9476    0.0924   -0.1043 C   0  0  0  0  0  0  0  0  0  0  0  0
   -1.2401    1.3656   -0.2218 C   0  0  0  0  0  0  0  0  0  0  0  0
   -1.8221    2.6105   -0.3742 C   0  0  0  0  0  0  0  0  0  0  0  0
   -0.7659    3.5239   -0.5584 C   0  0  0  0  0  0  0  0  0  0  0  0
   -0.8883    5.0069   -0.7826 C   0  0  0  0  0  0  0  0  0  0  0  0
   -2.1884    5.4143   -0.7620 F   0  0  0  0  0  0  0  0  0  0  0  0
   -0.3854    5.3950   -1.9844 F   0  0  0  0  0  0  0  0  0  0  0  0
   -0.2467    5.7317    0.1720 F   0  0  0  0  0  0  0  0  0  0  0  0
    0.4163    2.8897   -0.5279 N   0  0  0  0  0  0  0  0  0  0  0  0
    0.1395    1.5741   -0.2829 N   0  0  0  0  0  0  0  0  0  0  0  0
    1.2416    0.6680   -0.1276 C   0  0  0  0  0  0  0  0  0  0  0  0
    2.5402    1.1282   -0.4277 C   0  0  0  0  0  0  0  0  0  0  0  0
    3.6513    0.2896   -0.2970 C   0  0  0  0  0  0  0  0  0  0  0  0
    3.4746   -1.0172    0.1535 C   0  0  0  0  0  0  0  0  0  0  0  0
    4.8706   -2.0930    0.2913 S   0  0  0  0  0  6  0  0  0  0  0  0
    5.4086   -1.7657    1.8473 N   0  0  0  0  0  0  0  0  0  0  0  0
    4.4156   -3.4637    0.3100 O   0  0  0  0  0  0  0  0  0  0  0  0
    5.9137   -1.6354   -0.5963 O   0  0  0  0  0  0  0  0  0  0  0  0
    2.1984   -1.4926    0.4568 C   0  0  0  0  0  0  0  0  0  0  0  0
    1.0874   -0.6494    0.3236 C   0  0  0  0  0  0  0  0  0  0  0  0
   -2.0474   -0.7269   -1.2421 C   0  0  0  0  0  0  0  0  0  0  0  0
   -3.7005   -3.4458   -2.3963 H   0  0  0  0  0  0  0  0  0  0  0  0
   -2.8201   -2.2322   -3.3241 H   0  0  0  0  0  0  0  0  0  0  0  0
   -1.9207   -3.4862   -2.4339 H   0  0  0  0  0  0  0  0  0  0  0  0
   -3.8436   -3.2984    0.0726 H   0  0  0  0  0  0  0  0  0  0  0  0
   -3.7110   -1.8718    2.0611 H   0  0  0  0  0  0  0  0  0  0  0  0
   -2.8930   -0.0003    3.2128 H   0  0  0  0  0  0  0  0  0  0  0  0
   -1.4617    0.8069    2.5792 H   0  0  0  0  0  0  0  0  0  0  0  0
   -3.0926    1.4446    2.2129 H   0  0  0  0  0  0  0  0  0  0  0  0
   -2.8835    2.8243   -0.3806 H   0  0  0  0  0  0  0  0  0  0  0  0
    2.7067    2.1457   -0.7807 H   0  0  0  0  0  0  0  0  0  0  0  0
    4.6408    0.6651   -0.5484 H   0  0  0  0  0  0  0  0  0  0  0  0
    6.3470   -1.3664    1.8119 H   0  0  0  0  0  0  0  0  0  0  0  0
    5.3396   -2.6062    2.4215 H   0  0  0  0  0  0  0  0  0  0  0  0
    2.0550   -2.5146    0.8027 H   0  0  0  0  0  0  0  0  0  0  0  0
    0.1290   -1.0661    0.6064 H   0  0  0  0  0  0  0  0  0  0  0  0
   -1.5842   -0.4108   -2.1758 H   0  0  0  0  0  0  0  0  0  0  0  0
  1  2  1  0
  2  3  2  0
  3  4  1  0
  4  5  2  0
  5  6  1  0
  5  7  1  0
  7  8  1  0
  8  9  2  0
  9 10  1  0
 10 11  1  0
 11 12  1  0
 11 13  1  0
 11 14  1  0
 10 15  2  0
 15 16  1  0
 16 17  1  0
 17 18  2  0
 18 19  1  0
 19 20  2  0
 20 21  1  0
 21 22  1  0
 21 23  2  0
 21 24  2  0
 20 25  1  0
 25 26  2  0
  7 27  2  0
 27  2  1  0
 16  8  1  0
 26 17  1  0
  1 28  1  0
  1 29  1  0
  1 30  1  0
  3 31  1  0
  4 32  1  0
  6 33  1  0
  6 34  1  0
  6 35  1  0
  9 36  1  0
 18 37  1  0
 19 38  1  0
 22 39  1  0
 22 40  1  0
 25 41  1  0
 26 42  1  0
 27 43  1  0
M  END
$$$$
