
     RDKit          3D

 53 55  0  0  0  0  0  0  0  0999 V2000
    4.3350   -0.3450    3.2024 C   0  0  0  0  0  0  0  0  0  0  0  0
    4.5121    0.5322    1.9676 C   0  0  0  0  0  0  0  0  0  0  0  0
    3.9882   -0.1517    0.7696 N   0  0  0  0  0  0  0  0  0  0  0  0
    4.7478    0.2296   -0.4363 C   0  0  0  0  0  0  0  0  0  0  0  0
    6.0876   -0.4964   -0.5099 C   0  0  0  0  0  0  0  0  0  0  0  0
    2.5484    0.1420    0.6047 C   0  0  0  0  0  0  0  0  0  0  0  0
    1.8099   -0.9040   -0.2523 C   0  0  0  0  0  0  0  0  0  0  0  0
    0.4335   -0.5176   -0.5016 N   0  0  0  0  0  0  0  0  0  0  0  0
   -0.6376   -0.8510    0.3470 C   0  0  0  0  0  0  0  0  0  0  0  0
   -0.5678   -1.5313    1.3607 O   0  0  0  0  0  0  0  0  0  0  0  0
   -1.9066   -0.1838   -0.2626 C   0  0  0  0  0  0  0  0  0  0  0  0
   -2.4397    1.1215    0.9308 S   0  0  0  0  0  0  0  0  0  0  0  0
   -4.0030    0.3819    0.9790 C   0  0  0  0  0  0  0  0  0  0  0  0
   -4.8787    1.0399    1.7909 N   0  0  0  0  0  0  0  0  0  0  0  0
   -6.2033    0.7139    2.0161 C   0  0  0  0  0  0  0  0  0  0  0  0
   -6.8494    1.6069    3.0460 C   0  0  0  0  0  0  0  0  0  0  0  0
   -6.8472   -0.1509    1.4364 O   0  0  0  0  0  0  0  0  0  0  0  0
   -4.2154   -0.6676    0.2678 N   0  0  0  0  0  0  0  0  0  0  0  0
   -3.0683   -1.0625   -0.4203 N   0  0  0  0  0  0  0  0  0  0  0  0
   -3.1918   -2.1679   -1.2527 C   0  0  0  0  0  0  0  0  0  0  0  0
   -1.9502   -2.6855   -1.9338 C   0  0  0  0  0  0  0  0  0  0  0  0
   -4.2591   -2.7525   -1.4579 O   0  0  0  0  0  0  0  0  0  0  0  0
   -1.3788    0.4563   -1.5186 C   0  0  0  0  0  0  0  0  0  0  0  0
   -2.0542    1.1584   -2.5086 C   0  0  0  0  0  0  0  0  0  0  0  0
   -1.3116    1.6672   -3.5752 C   0  0  0  0  0  0  0  0  0  0  0  0
    0.0783    1.4732   -3.6381 C   0  0  0  0  0  0  0  0  0  0  0  0
    0.7498    0.7615   -2.6387 C   0  0  0  0  0  0  0  0  0  0  0  0
    0.0043    0.2559   -1.5903 C   0  0  0  0  0  0  0  0  0  0  0  0
    4.7258    0.1722    4.0863 H   0  0  0  0  0  0  0  0  0  0  0  0
    3.2829   -0.5777    3.3936 H   0  0  0  0  0  0  0  0  0  0  0  0
    4.8796   -1.2894    3.0975 H   0  0  0  0  0  0  0  0  0  0  0  0
    4.0149    1.5008    2.1220 H   0  0  0  0  0  0  0  0  0  0  0  0
    5.5843    0.7546    1.8723 H   0  0  0  0  0  0  0  0  0  0  0  0
    4.8954    1.3165   -0.4900 H   0  0  0  0  0  0  0  0  0  0  0  0
    4.1967   -0.0494   -1.3403 H   0  0  0  0  0  0  0  0  0  0  0  0
    6.7932   -0.1410    0.2477 H   0  0  0  0  0  0  0  0  0  0  0  0
    6.5474   -0.3348   -1.4917 H   0  0  0  0  0  0  0  0  0  0  0  0
    5.9593   -1.5775   -0.3755 H   0  0  0  0  0  0  0  0  0  0  0  0
    2.4116    1.1490    0.1885 H   0  0  0  0  0  0  0  0  0  0  0  0
    2.0488    0.1525    1.5825 H   0  0  0  0  0  0  0  0  0  0  0  0
    1.8056   -1.8621    0.2828 H   0  0  0  0  0  0  0  0  0  0  0  0
    2.3012   -1.0842   -1.2123 H   0  0  0  0  0  0  0  0  0  0  0  0
   -4.4904    1.8362    2.2727 H   0  0  0  0  0  0  0  0  0  0  0  0
   -6.1122    2.0092    3.7464 H   0  0  0  0  0  0  0  0  0  0  0  0
   -7.5769    1.0253    3.6200 H   0  0  0  0  0  0  0  0  0  0  0  0
   -7.3564    2.4323    2.5384 H   0  0  0  0  0  0  0  0  0  0  0  0
   -1.6158   -1.9987   -2.7140 H   0  0  0  0  0  0  0  0  0  0  0  0
   -2.1862   -3.6406   -2.4171 H   0  0  0  0  0  0  0  0  0  0  0  0
   -1.1578   -2.8856   -1.2110 H   0  0  0  0  0  0  0  0  0  0  0  0
   -3.1307    1.3059   -2.4649 H   0  0  0  0  0  0  0  0  0  0  0  0
   -1.8132    2.2193   -4.3684 H   0  0  0  0  0  0  0  0  0  0  0  0
    0.6384    1.8787   -4.4791 H   0  0  0  0  0  0  0  0  0  0  0  0
    1.8222    0.6156   -2.7086 H   0  0  0  0  0  0  0  0  0  0  0  0
  1  2  1  0
  2  3  1  0
  3  4  1  0
  4  5  1  0
  3  6  1  0
  6  7  1  0
  7  8  1  0
  8  9  1  0
  9 10  2  0
  9 11  1  0
 11 12  1  0
 12 13  1  0
 13 14  1  0
 14 15  1  0
 15 16  1  0
 15 17  2  0
 13 18  2  0
 18 19  1  0
 19 20  1  0
 20 21  1  0
 20 22  2  0
 11 23  1  0
 23 24  2  0
 24 25  1  0
 25 26  2  0
 26 27  1  0
 27 28  2  0
 28  8  1  0
 19 11  1  0
 28 23  1  0
  1 29  1  0
  1 30  1  0
  1 31  1  0
  2 32  1  0
  2 33  1  0
  4 34  1  0
  4 35  1  0
  5 36  1  0
  5 37  1  0
  5 38  1  0
  6 39  1  0
  6 40  1  0
  7 41  1  0
  7 42  1  0
 14 43  1  0
 16 44  1  0
 16 45  1  0
 16 46  1  0
 21 47  1  0
 21 48  1  0
 21 49  1  0
 24 50  1  0
 25 51  1  0
 26 52  1  0
 27 53  1  0
M  END
$$$$
