
     RDKit          3D

 39 41  0  0  0  0  0  0  0  0999 V2000
   -6.7580   -1.4462    0.1201 C   0  0  0  0  0  0  0  0  0  0  0  0
   -5.4125   -0.9421    0.0405 N   0  0  0  0  0  0  0  0  0  0  0  0
   -5.0960    0.1555   -0.7384 C   0  0  0  0  0  0  0  0  0  0  0  0
   -5.9770    0.8003   -1.3046 O   0  0  0  0  0  0  0  0  0  0  0  0
   -3.6721    0.4525   -0.8357 C   0  0  0  0  0  0  0  0  0  0  0  0
   -3.1533    1.6261   -1.9721 S   0  0  0  0  0  0  0  0  0  0  0  0
   -1.4925    1.3955   -1.5985 C   0  0  0  0  0  0  0  0  0  0  0  0
   -0.3929    2.0417   -2.1899 C   0  0  0  0  0  0  0  0  0  0  0  0
    0.9013    1.7135   -1.7675 C   0  0  0  0  0  0  0  0  0  0  0  0
    1.1135    0.7590   -0.7808 C   0  0  0  0  0  0  0  0  0  0  0  0
    2.3896    0.3771   -0.3117 N   0  0  0  0  0  0  0  0  0  0  0  0
    3.6187    0.7979   -0.7898 C   0  0  0  0  0  0  0  0  0  0  0  0
    3.8207    1.5324   -1.7486 O   0  0  0  0  0  0  0  0  0  0  0  0
    4.7956    0.2577   -0.0666 C   0  0  0  0  0  0  0  0  0  0  0  0
    4.7946   -0.0139    1.3045 C   0  0  0  0  0  0  0  0  0  0  0  0
    5.9501   -0.5176    1.9007 C   0  0  0  0  0  0  0  0  0  0  0  0
    7.0668   -0.7264    1.1060 C   0  0  0  0  0  0  0  0  0  0  0  0
    7.1039   -0.4620   -0.2175 N   0  0  0  0  0  0  0  0  0  0  0  0
    5.9708    0.0359   -0.7738 C   0  0  0  0  0  0  0  0  0  0  0  0
    0.0046    0.1305   -0.1932 C   0  0  0  0  0  0  0  0  0  0  0  0
   -1.3213    0.4458   -0.5931 C   0  0  0  0  0  0  0  0  0  0  0  0
   -2.5911   -0.0496   -0.1368 C   0  0  0  0  0  0  0  0  0  0  0  0
   -2.7349   -0.9776    0.8458 O   0  0  0  0  0  0  0  0  0  0  0  0
   -2.6747   -0.3656    2.1363 C   0  0  0  0  0  0  0  0  0  0  0  0
   -6.8269   -2.1194    0.9776 H   0  0  0  0  0  0  0  0  0  0  0  0
   -6.9824   -1.9930   -0.7995 H   0  0  0  0  0  0  0  0  0  0  0  0
   -7.4664   -0.6217    0.2358 H   0  0  0  0  0  0  0  0  0  0  0  0
   -4.6476   -1.5289    0.3549 H   0  0  0  0  0  0  0  0  0  0  0  0
   -0.5388    2.7844   -2.9702 H   0  0  0  0  0  0  0  0  0  0  0  0
    1.7267    2.2340   -2.2447 H   0  0  0  0  0  0  0  0  0  0  0  0
    2.3933   -0.3396    0.4017 H   0  0  0  0  0  0  0  0  0  0  0  0
    3.9258    0.1893    1.9227 H   0  0  0  0  0  0  0  0  0  0  0  0
    5.9849   -0.7322    2.9635 H   0  0  0  0  0  0  0  0  0  0  0  0
    7.9903   -1.1160    1.5261 H   0  0  0  0  0  0  0  0  0  0  0  0
    6.0390    0.2501   -1.8380 H   0  0  0  0  0  0  0  0  0  0  0  0
    0.1411   -0.6217    0.5787 H   0  0  0  0  0  0  0  0  0  0  0  0
   -3.4490    0.4020    2.2455 H   0  0  0  0  0  0  0  0  0  0  0  0
   -1.6856    0.0630    2.3270 H   0  0  0  0  0  0  0  0  0  0  0  0
   -2.8583   -1.1428    2.8839 H   0  0  0  0  0  0  0  0  0  0  0  0
  1  2  1  0
  2  3  1  0
  3  4  2  0
  3  5  1  0
  5  6  1  0
  6  7  1  0
  7  8  2  0
  8  9  1  0
  9 10  2  0
 10 11  1  0
 11 12  1  0
 12 13  2  0
 12 14  1  0
 14 15  2  0
 15 16  1  0
 16 17  2  0
 17 18  1  0
 18 19  2  0
 10 20  1  0
 20 21  2  0
 21 22  1  0
 22 23  1  0
 23 24  1  0
 22  5  2  0
 21  7  1  0
 19 14  1  0
  1 25  1  0
  1 26  1  0
  1 27  1  0
  2 28  1  0
  8 29  1  0
  9 30  1  0
 11 31  1  0
 15 32  1  0
 16 33  1  0
 17 34  1  0
 19 35  1  0
 20 36  1  0
 24 37  1  0
 24 38  1  0
 24 39  1  0
M  END
$$$$
