
     RDKit          3D

 44 45  0  0  0  0  0  0  0  0999 V2000
    4.6283   -3.7537    0.5260 Cl  0  0  0  0  0  0  0  0  0  0  0  0
    3.8126   -2.2533    0.3172 C   0  0  0  0  0  0  0  0  0  0  0  0
    3.0760   -1.7115    1.3676 C   0  0  0  0  0  0  0  0  0  0  0  0
    2.4151   -0.4921    1.1985 C   0  0  0  0  0  0  0  0  0  0  0  0
    2.4792    0.1883   -0.0265 C   0  0  0  0  0  0  0  0  0  0  0  0
    1.7445    1.4897   -0.2273 C   0  0  0  0  0  0  0  0  0  0  0  0
    0.2991    1.3092   -1.3232 S   0  0  0  0  0  0  0  0  0  0  0  0
   -0.9179    0.5839   -0.1320 C   0  0  0  0  0  0  0  0  0  0  0  0
   -1.6393   -0.6336   -0.7457 C   0  0  0  0  0  0  0  0  0  0  0  0
   -0.8521   -1.8513   -0.6876 N   0  0  0  0  0  0  0  0  0  0  0  0
   -0.0721   -2.3701   -1.6804 C   0  0  0  0  0  0  0  0  0  0  0  0
    0.4484   -3.5283   -1.1509 C   0  0  0  0  0  0  0  0  0  0  0  0
   -0.0152   -3.7327    0.1234 N   0  0  0  0  0  0  0  0  0  0  0  0
   -0.7989   -2.7096    0.3741 C   0  0  0  0  0  0  0  0  0  0  0  0
   -1.9144    1.6572    0.2993 C   0  0  0  0  0  0  0  0  0  0  0  0
   -2.7829    2.2297   -0.6552 C   0  0  0  0  0  0  0  0  0  0  0  0
   -3.7104    3.2095   -0.2939 C   0  0  0  0  0  0  0  0  0  0  0  0
   -3.7872    3.6332    1.0278 C   0  0  0  0  0  0  0  0  0  0  0  0
   -4.9294    4.8391    1.4736 Cl  0  0  0  0  0  0  0  0  0  0  0  0
   -2.9459    3.0868    1.9910 C   0  0  0  0  0  0  0  0  0  0  0  0
   -2.0156    2.1056    1.6307 C   0  0  0  0  0  0  0  0  0  0  0  0
   -1.0194    1.4785    2.8971 Cl  0  0  0  0  0  0  0  0  0  0  0  0
    3.2321   -0.3697   -1.0730 C   0  0  0  0  0  0  0  0  0  0  0  0
    3.8969   -1.5855   -0.9015 C   0  0  0  0  0  0  0  0  0  0  0  0
   -1.1423   -1.0887    0.0724 O   0  0  0  0  0  0  0  0  0  0  0  0
   -0.3942   -0.1280   -0.0583 N   0  0  0  0  0  4  0  0  0  0  0  0
   -0.5701    1.0080   -0.4850 O   0  0  0  0  0  1  0  0  0  0  0  0
    0.9085   -0.3441    0.3489 O   0  0  0  0  0  0  0  0  0  0  0  0
    3.0041   -2.2383    2.3154 H   0  0  0  0  0  0  0  0  0  0  0  0
    1.8438   -0.0864    2.0305 H   0  0  0  0  0  0  0  0  0  0  0  0
    1.4358    1.9301    0.7267 H   0  0  0  0  0  0  0  0  0  0  0  0
    2.4291    2.2114   -0.6877 H   0  0  0  0  0  0  0  0  0  0  0  0
   -0.3540    0.2248    0.7293 H   0  0  0  0  0  0  0  0  0  0  0  0
   -2.5634   -0.8506   -0.1929 H   0  0  0  0  0  0  0  0  0  0  0  0
   -1.9310   -0.4694   -1.7905 H   0  0  0  0  0  0  0  0  0  0  0  0
    0.0613   -1.8886   -2.6389 H   0  0  0  0  0  0  0  0  0  0  0  0
    1.1314   -4.2256   -1.6186 H   0  0  0  0  0  0  0  0  0  0  0  0
   -1.3412   -2.5465    1.2965 H   0  0  0  0  0  0  0  0  0  0  0  0
   -2.7351    1.9267   -1.7009 H   0  0  0  0  0  0  0  0  0  0  0  0
   -4.3637    3.6394   -1.0496 H   0  0  0  0  0  0  0  0  0  0  0  0
   -3.0142    3.4245    3.0223 H   0  0  0  0  0  0  0  0  0  0  0  0
    3.2957    0.1373   -2.0341 H   0  0  0  0  0  0  0  0  0  0  0  0
    4.4701   -2.0081   -1.7219 H   0  0  0  0  0  0  0  0  0  0  0  0
    1.1981    0.5527    0.1220 H   0  0  0  0  0  0  0  0  0  0  0  0
  1  2  1  0
  2  3  2  0
  3  4  1  0
  4  5  2  0
  5  6  1  0
  6  7  1  0
  7  8  1  0
  8  9  1  0
  9 10  1  0
 10 11  1  0
 11 12  2  0
 12 13  1  0
 13 14  2  0
  8 15  1  0
 15 16  2  0
 16 17  1  0
 17 18  2  0
 18 19  1  0
 18 20  1  0
 20 21  2  0
 21 22  1  0
  5 23  1  0
 23 24  2  0
 25 26  2  0
 26 27  1  0
 26 28  1  0
 24  2  1  0
 14 10  1  0
 21 15  1  0
  3 29  1  0
  4 30  1  0
  6 31  1  0
  6 32  1  0
  8 33  1  0
  9 34  1  0
  9 35  1  0
 11 36  1  0
 12 37  1  0
 14 38  1  0
 16 39  1  0
 17 40  1  0
 20 41  1  0
 23 42  1  0
 24 43  1  0
 28 44  1  0
M  CHG  2  26   1  27  -1
M  END
$$$$
