
     RDKit          3D

 38 40  0  0  0  0  0  0  0  0999 V2000
   -2.4730   -0.3001   -1.9415 O   0  0  0  0  0  0  0  0  0  0  0  0
   -2.7353   -0.0438   -0.7701 C   0  0  0  0  0  0  0  0  0  0  0  0
   -1.8420    0.3549    0.2076 N   0  0  0  0  0  0  0  0  0  0  0  0
   -0.4734    0.6593    0.0368 C   0  0  0  0  0  0  0  0  0  0  0  0
    0.1587    0.7335   -1.2072 C   0  0  0  0  0  0  0  0  0  0  0  0
    1.5188    1.0471   -1.2958 C   0  0  0  0  0  0  0  0  0  0  0  0
    2.2611    1.2733   -0.1369 C   0  0  0  0  0  0  0  0  0  0  0  0
    3.5846    1.6080   -0.2822 O   0  0  0  0  0  0  0  0  0  0  0  0
    4.5246    0.6321   -0.0235 C   0  0  0  0  0  0  0  0  0  0  0  0
    4.2858   -0.7451   -0.0703 C   0  0  0  0  0  0  0  0  0  0  0  0
    5.3242   -1.6429    0.1962 C   0  0  0  0  0  0  0  0  0  0  0  0
    6.5975   -1.1638    0.5003 C   0  0  0  0  0  0  0  0  0  0  0  0
    7.8720   -2.2719    0.8273 Cl  0  0  0  0  0  0  0  0  0  0  0  0
    6.8450    0.2066    0.5362 C   0  0  0  0  0  0  0  0  0  0  0  0
    5.8081    1.1033    0.2697 C   0  0  0  0  0  0  0  0  0  0  0  0
    1.6331    1.2357    1.1095 C   0  0  0  0  0  0  0  0  0  0  0  0
    2.4846    1.5849    2.5697 Cl  0  0  0  0  0  0  0  0  0  0  0  0
    0.2724    0.9228    1.1940 C   0  0  0  0  0  0  0  0  0  0  0  0
   -4.1454   -0.2430   -0.3275 C   0  0  0  0  0  0  0  0  0  0  0  0
   -4.6901    0.5394    0.7022 C   0  0  0  0  0  0  0  0  0  0  0  0
   -6.0062    0.3249    1.1136 C   0  0  0  0  0  0  0  0  0  0  0  0
   -6.8041    1.4822    2.6469 I   0  0  0  0  0  0  0  0  0  0  0  0
   -6.7926   -0.6530    0.5066 C   0  0  0  0  0  0  0  0  0  0  0  0
   -6.2626   -1.4155   -0.5383 C   0  0  0  0  0  0  0  0  0  0  0  0
   -7.5041   -2.8512   -1.4252 I   0  0  0  0  0  0  0  0  0  0  0  0
   -4.9464   -1.2066   -0.9685 C   0  0  0  0  0  0  0  0  0  0  0  0
   -4.4644   -1.9569   -2.0119 O   0  0  0  0  0  0  0  0  0  0  0  0
   -2.1693    0.3493    1.1655 H   0  0  0  0  0  0  0  0  0  0  0  0
   -0.3805    0.5647   -2.1347 H   0  0  0  0  0  0  0  0  0  0  0  0
    1.9968    1.1101   -2.2705 H   0  0  0  0  0  0  0  0  0  0  0  0
    3.3067   -1.1442   -0.3176 H   0  0  0  0  0  0  0  0  0  0  0  0
    5.1331   -2.7123    0.1616 H   0  0  0  0  0  0  0  0  0  0  0  0
    7.8372    0.5829    0.7698 H   0  0  0  0  0  0  0  0  0  0  0  0
    5.9992    2.1733    0.2980 H   0  0  0  0  0  0  0  0  0  0  0  0
   -0.1982    0.8907    2.1733 H   0  0  0  0  0  0  0  0  0  0  0  0
   -4.1078    1.3322    1.1641 H   0  0  0  0  0  0  0  0  0  0  0  0
   -7.8168   -0.8139    0.8357 H   0  0  0  0  0  0  0  0  0  0  0  0
   -3.6312   -1.5474   -2.3370 H   0  0  0  0  0  0  0  0  0  0  0  0
  1  2  2  0
  2  3  1  0
  3  4  1  0
  4  5  2  0
  5  6  1  0
  6  7  2  0
  7  8  1  0
  8  9  1  0
  9 10  2  0
 10 11  1  0
 11 12  2  0
 12 13  1  0
 12 14  1  0
 14 15  2  0
  7 16  1  0
 16 17  1  0
 16 18  2  0
  2 19  1  0
 19 20  2  0
 20 21  1  0
 21 22  1  0
 21 23  2  0
 23 24  1  0
 24 25  1  0
 24 26  2  0
 26 27  1  0
 18  4  1  0
 26 19  1  0
 15  9  1  0
  3 28  1  0
  5 29  1  0
  6 30  1  0
 10 31  1  0
 11 32  1  0
 14 33  1  0
 15 34  1  0
 18 35  1  0
 20 36  1  0
 23 37  1  0
 27 38  1  0
M  END
$$$$
