
     RDKit          3D

 33 34  0  0  0  0  0  0  0  0999 V2000
   -4.3529    0.2370    1.2816 C   0  0  0  0  0  0  0  0  0  0  0  0
   -3.1828    0.0350    0.3563 C   0  0  0  0  0  0  0  0  0  0  0  0
   -3.4368   -0.2975   -0.9823 C   0  0  0  0  0  0  0  0  0  0  0  0
   -2.3894   -0.5033   -1.8734 C   0  0  0  0  0  0  0  0  0  0  0  0
   -1.0723   -0.3803   -1.4377 C   0  0  0  0  0  0  0  0  0  0  0  0
   -0.7785   -0.0331   -0.1113 C   0  0  0  0  0  0  0  0  0  0  0  0
    0.5595    0.0573    0.3495 N   0  0  0  0  0  0  0  0  0  0  0  0
    1.7588    0.2404   -0.3805 C   0  0  0  0  0  0  0  0  0  0  0  0
    1.7873    1.1558   -1.4496 C   0  0  0  0  0  0  0  0  0  0  0  0
    2.9507    1.3825   -2.1883 C   0  0  0  0  0  0  0  0  0  0  0  0
    4.1197    0.7047   -1.8660 C   0  0  0  0  0  0  0  0  0  0  0  0
    4.1254   -0.1917   -0.7983 C   0  0  0  0  0  0  0  0  0  0  0  0
    2.9588   -0.4256   -0.0450 C   0  0  0  0  0  0  0  0  0  0  0  0
    3.0976   -1.4010    1.0717 C   0  0  0  0  0  0  0  0  0  0  0  0
    4.1067   -2.0283    1.3429 O   0  0  0  0  0  0  0  0  0  0  0  0
    1.9860   -1.5592    1.8175 O   0  0  0  0  0  0  0  0  0  0  0  0
   -1.8454    0.1950    0.7938 C   0  0  0  0  0  0  0  0  0  0  0  0
   -1.5499    0.5615    2.2290 C   0  0  0  0  0  0  0  0  0  0  0  0
   -5.2898   -0.0969    0.8227 H   0  0  0  0  0  0  0  0  0  0  0  0
   -4.4599    1.2978    1.5289 H   0  0  0  0  0  0  0  0  0  0  0  0
   -4.2224   -0.3444    2.2000 H   0  0  0  0  0  0  0  0  0  0  0  0
   -4.4590   -0.4069   -1.3383 H   0  0  0  0  0  0  0  0  0  0  0  0
   -2.5966   -0.7740   -2.9050 H   0  0  0  0  0  0  0  0  0  0  0  0
   -0.2738   -0.5870   -2.1447 H   0  0  0  0  0  0  0  0  0  0  0  0
    0.7023   -0.5862    1.1350 H   0  0  0  0  0  0  0  0  0  0  0  0
    0.8912    1.7199   -1.7019 H   0  0  0  0  0  0  0  0  0  0  0  0
    2.9402    2.0954   -3.0090 H   0  0  0  0  0  0  0  0  0  0  0  0
    5.0282    0.8785   -2.4371 H   0  0  0  0  0  0  0  0  0  0  0  0
    5.0507   -0.7097   -0.5504 H   0  0  0  0  0  0  0  0  0  0  0  0
    2.2639   -2.2239    2.4855 H   0  0  0  0  0  0  0  0  0  0  0  0
   -0.6310    1.1505    2.3147 H   0  0  0  0  0  0  0  0  0  0  0  0
   -1.4472   -0.3472    2.8301 H   0  0  0  0  0  0  0  0  0  0  0  0
   -2.3392    1.1848    2.6596 H   0  0  0  0  0  0  0  0  0  0  0  0
  1  2  1  0
  2  3  2  0
  3  4  1  0
  4  5  2  0
  5  6  1  0
  6  7  1  0
  7  8  1  0
  8  9  2  0
  9 10  1  0
 10 11  2  0
 11 12  1  0
 12 13  2  0
 13 14  1  0
 14 15  2  0
 14 16  1  0
  6 17  2  0
 17 18  1  0
 17  2  1  0
 13  8  1  0
  1 19  1  0
  1 20  1  0
  1 21  1  0
  3 22  1  0
  4 23  1  0
  5 24  1  0
  7 25  1  0
  9 26  1  0
 10 27  1  0
 11 28  1  0
 12 29  1  0
 16 30  1  0
 18 31  1  0
 18 32  1  0
 18 33  1  0
M  END
$$$$
