
     RDKit          3D

 54 56  0  0  0  0  0  0  0  0999 V2000
   -8.1700    2.5207   -1.0945 C   0  0  0  0  0  0  0  0  0  0  0  0
   -6.9435    1.7949   -0.6233 C   0  0  0  0  0  0  0  0  0  0  0  0
   -7.0003    1.0162    0.4069 N   0  0  0  0  0  0  0  0  0  0  0  0
   -5.8179    0.3684    0.8046 C   0  0  0  0  0  0  0  0  0  0  0  0
   -5.8536   -0.4794    1.9098 C   0  0  0  0  0  0  0  0  0  0  0  0
   -4.6960   -1.1361    2.3442 C   0  0  0  0  0  0  0  0  0  0  0  0
   -3.4746   -0.9621    1.6745 C   0  0  0  0  0  0  0  0  0  0  0  0
   -2.2240   -1.6438    2.1953 C   0  0  0  0  0  0  0  0  0  0  0  0
   -1.3835   -2.1533    1.1083 N   0  0  0  0  0  0  0  0  0  0  0  0
   -1.7722   -3.4516    0.5615 C   0  0  0  0  0  0  0  0  0  0  0  0
   -0.1202   -1.6504    0.8984 C   0  0  0  0  0  0  0  0  0  0  0  0
    0.3524   -0.3964    1.2495 C   0  0  0  0  0  0  0  0  0  0  0  0
    1.7117   -0.1660    0.8826 C   0  0  0  0  0  0  0  0  0  0  0  0
    2.2767   -1.2538    0.2487 C   0  0  0  0  0  0  0  0  0  0  0  0
    3.6185   -1.4433   -0.2876 C   0  0  0  0  0  0  0  0  0  0  0  0
    3.9718   -2.4132   -0.9552 O   0  0  0  0  0  0  0  0  0  0  0  0
    4.5141   -0.4358    0.0046 N   0  0  0  0  0  0  0  0  0  0  0  0
    5.9218   -0.5040   -0.3797 C   0  0  1  0  0  0  0  0  0  0  0  0
    6.1383   -0.2607   -1.8856 C   0  0  0  0  0  0  0  0  0  0  0  0
    5.3632    0.9053   -2.4937 C   0  0  0  0  0  0  0  0  0  0  0  0
    5.8225    2.2361   -1.9829 C   0  0  0  0  0  0  0  0  0  0  0  0
    5.4373    2.7818   -0.9625 O   0  0  0  0  0  0  0  0  0  0  0  0
    6.7711    2.7962   -2.7530 O   0  0  0  0  0  0  0  0  0  0  0  0
    6.7075    0.4350    0.5408 C   0  0  0  0  0  0  0  0  0  0  0  0
    6.3119    0.8687    1.6138 O   0  0  0  0  0  0  0  0  0  0  0  0
    7.9529    0.7185    0.1171 O   0  0  0  0  0  0  0  0  0  0  0  0
    1.1356   -2.5199    0.0936 S   0  0  0  0  0  0  0  0  0  0  0  0
   -3.4363   -0.0996    0.5699 C   0  0  0  0  0  0  0  0  0  0  0  0
   -4.6011    0.5483    0.1445 C   0  0  0  0  0  0  0  0  0  0  0  0
   -4.5904    1.4542   -1.0163 C   0  0  0  0  0  0  0  0  0  0  0  0
   -3.5750    1.6894   -1.6594 O   0  0  0  0  0  0  0  0  0  0  0  0
   -5.7974    2.0239   -1.3331 N   0  0  0  0  0  0  0  0  0  0  0  0
   -9.0019    1.8152   -1.1777 H   0  0  0  0  0  0  0  0  0  0  0  0
   -8.4328    3.2886   -0.3611 H   0  0  0  0  0  0  0  0  0  0  0  0
   -8.0085    2.9968   -2.0656 H   0  0  0  0  0  0  0  0  0  0  0  0
   -6.7914   -0.6244    2.4403 H   0  0  0  0  0  0  0  0  0  0  0  0
   -4.7584   -1.7844    3.2159 H   0  0  0  0  0  0  0  0  0  0  0  0
   -1.6967   -0.9388    2.8495 H   0  0  0  0  0  0  0  0  0  0  0  0
   -2.5055   -2.4859    2.8423 H   0  0  0  0  0  0  0  0  0  0  0  0
   -2.8487   -3.6227    0.6741 H   0  0  0  0  0  0  0  0  0  0  0  0
   -1.5609   -3.5123   -0.5117 H   0  0  0  0  0  0  0  0  0  0  0  0
   -1.2530   -4.2639    1.0812 H   0  0  0  0  0  0  0  0  0  0  0  0
   -0.2561    0.3555    1.7346 H   0  0  0  0  0  0  0  0  0  0  0  0
    2.2225    0.7699    1.0710 H   0  0  0  0  0  0  0  0  0  0  0  0
    4.2711    0.2634    0.6983 H   0  0  0  0  0  0  0  0  0  0  0  0
    6.2790   -1.5149   -0.1429 H   0  0  0  0  0  0  0  0  0  0  0  0
    7.2068   -0.1412   -2.1004 H   0  0  0  0  0  0  0  0  0  0  0  0
    5.8246   -1.1643   -2.4240 H   0  0  0  0  0  0  0  0  0  0  0  0
    4.2856    0.8203   -2.3175 H   0  0  0  0  0  0  0  0  0  0  0  0
    5.4825    0.8950   -3.5834 H   0  0  0  0  0  0  0  0  0  0  0  0
    6.9695    3.6513   -2.3187 H   0  0  0  0  0  0  0  0  0  0  0  0
    8.3142    1.2961    0.8231 H   0  0  0  0  0  0  0  0  0  0  0  0
   -2.5049    0.0666    0.0352 H   0  0  0  0  0  0  0  0  0  0  0  0
   -5.7881    2.6460   -2.1272 H   0  0  0  0  0  0  0  0  0  0  0  0
  1  2  1  0
  2  3  2  0
  3  4  1  0
  4  5  2  0
  5  6  1  0
  6  7  2  0
  7  8  1  0
  8  9  1  0
  9 10  1  0
  9 11  1  0
 11 12  2  0
 12 13  1  0
 13 14  2  0
 14 15  1  0
 15 16  2  0
 15 17  1  0
 17 18  1  0
 18 19  1  0
 19 20  1  0
 20 21  1  0
 21 22  2  0
 21 23  1  0
 18 24  1  0
 24 25  2  0
 24 26  1  0
 14 27  1  0
  7 28  1  0
 28 29  2  0
 29 30  1  0
 30 31  2  0
 30 32  1  0
 32  2  1  0
 29  4  1  0
 27 11  1  0
  1 33  1  0
  1 34  1  0
  1 35  1  0
  5 36  1  0
  6 37  1  0
  8 38  1  0
  8 39  1  0
 10 40  1  0
 10 41  1  0
 10 42  1  0
 12 43  1  0
 13 44  1  0
 17 45  1  0
 18 46  1  1
 19 47  1  0
 19 48  1  0
 20 49  1  0
 20 50  1  0
 23 51  1  0
 26 52  1  0
 28 53  1  0
 32 54  1  0
M  END
$$$$
