
     RDKit          3D

 57 60  0  0  0  0  0  0  0  0999 V2000
    4.1059   -2.0305   -0.7469 C   0  0  0  0  0  0  0  0  0  0  0  0
    3.0832   -0.9428   -1.0520 C   0  0  1  0  0  0  0  0  0  0  0  0
    1.6711   -1.5556   -1.2319 C   0  0  0  0  0  0  0  0  0  0  0  0
    0.7366   -0.4651   -0.7236 C   0  0  1  0  0  0  0  0  0  0  0  0
   -0.7419   -0.8165   -0.4899 C   0  0  2  0  0  0  0  0  0  0  0  0
   -1.3713   -1.3827   -1.7770 C   0  0  0  0  0  0  0  0  0  0  0  0
   -2.8653   -1.6469   -1.6251 C   0  0  0  0  0  0  0  0  0  0  0  0
   -3.5765   -0.4066   -1.1490 C   0  0  0  0  0  0  0  0  0  0  0  0
   -4.5682    0.1319   -1.8808 C   0  0  0  0  0  0  0  0  0  0  0  0
   -5.2470    1.3800   -1.4779 C   0  0  0  0  0  0  0  0  0  0  0  0
   -6.1625    1.8506   -2.1412 O   0  0  0  0  0  0  0  0  0  0  0  0
   -4.7780    2.0362   -0.2435 C   0  0  0  0  0  0  0  0  0  0  0  0
   -3.7915    1.5034    0.4896 C   0  0  0  0  0  0  0  0  0  0  0  0
   -3.0538    0.2041    0.1652 C   0  0  1  0  0  0  0  0  0  0  0  0
   -3.4005   -0.7770    1.3091 C   0  0  0  0  0  0  0  0  0  0  0  0
   -1.5010    0.4655   -0.0097 C   0  0  2  0  0  0  0  0  0  0  0  0
   -1.3780    1.3809   -1.0462 F   0  0  0  0  0  0  0  0  0  0  0  0
   -0.7913    1.1447    1.2031 C   0  0  1  0  0  0  0  0  0  0  0  0
   -1.0149    0.4508    2.4260 O   0  0  0  0  0  0  0  0  0  0  0  0
    0.7279    1.3376    0.9885 C   0  0  0  0  0  0  0  0  0  0  0  0
    1.4602    0.0520    0.5423 C   0  0  1  0  0  0  0  0  0  0  0  0
    1.4662   -0.9817    1.7012 C   0  0  0  0  0  0  0  0  0  0  0  0
    2.9168    0.2416   -0.0242 C   0  0  2  0  0  0  0  0  0  0  0  0
    2.9485    1.4596   -0.8047 O   0  0  0  0  0  0  0  0  0  0  0  0
    3.9939    0.3646    1.0902 C   0  0  0  0  0  0  0  0  0  0  0  0
    4.4531   -0.6136    1.6851 O   0  0  0  0  0  0  0  0  0  0  0  0
    4.5162    1.7668    1.4217 C   0  0  0  0  0  0  0  0  0  0  0  0
    3.5446    2.7925    1.4640 O   0  0  0  0  0  0  0  0  0  0  0  0
    4.1237   -2.7696   -1.5559 H   0  0  0  0  0  0  0  0  0  0  0  0
    5.1136   -1.6103   -0.6701 H   0  0  0  0  0  0  0  0  0  0  0  0
    3.8758   -2.5694    0.1764 H   0  0  0  0  0  0  0  0  0  0  0  0
    3.3673   -0.5253   -2.0281 H   0  0  0  0  0  0  0  0  0  0  0  0
    1.5493   -2.4825   -0.6601 H   0  0  0  0  0  0  0  0  0  0  0  0
    1.4860   -1.7944   -2.2848 H   0  0  0  0  0  0  0  0  0  0  0  0
    0.7502    0.3299   -1.4867 H   0  0  0  0  0  0  0  0  0  0  0  0
   -0.8144   -1.5957    0.2752 H   0  0  0  0  0  0  0  0  0  0  0  0
   -1.2082   -0.6861   -2.6099 H   0  0  0  0  0  0  0  0  0  0  0  0
   -0.8791   -2.3228   -2.0525 H   0  0  0  0  0  0  0  0  0  0  0  0
   -3.2637   -1.9902   -2.5877 H   0  0  0  0  0  0  0  0  0  0  0  0
   -3.0327   -2.4658   -0.9160 H   0  0  0  0  0  0  0  0  0  0  0  0
   -4.9153   -0.3021   -2.8114 H   0  0  0  0  0  0  0  0  0  0  0  0
   -5.2801    2.9549    0.0339 H   0  0  0  0  0  0  0  0  0  0  0  0
   -3.5075    2.0202    1.4037 H   0  0  0  0  0  0  0  0  0  0  0  0
   -4.4435   -1.1134    1.2381 H   0  0  0  0  0  0  0  0  0  0  0  0
   -3.2987   -0.3178    2.2981 H   0  0  0  0  0  0  0  0  0  0  0  0
   -2.7752   -1.6746    1.2994 H   0  0  0  0  0  0  0  0  0  0  0  0
   -1.2123    2.1484    1.3332 H   0  0  0  0  0  0  0  0  0  0  0  0
   -0.5731    0.9511    3.1360 H   0  0  0  0  0  0  0  0  0  0  0  0
    1.1814    1.7121    1.9135 H   0  0  0  0  0  0  0  0  0  0  0  0
    0.8507    2.1219    0.2319 H   0  0  0  0  0  0  0  0  0  0  0  0
    2.0813   -1.8582    1.4809 H   0  0  0  0  0  0  0  0  0  0  0  0
    0.4742   -1.3670    1.9427 H   0  0  0  0  0  0  0  0  0  0  0  0
    1.8628   -0.5308    2.6182 H   0  0  0  0  0  0  0  0  0  0  0  0
    3.6856    1.3976   -1.4405 H   0  0  0  0  0  0  0  0  0  0  0  0
    5.2807    2.0321    0.6845 H   0  0  0  0  0  0  0  0  0  0  0  0
    4.9939    1.7274    2.4057 H   0  0  0  0  0  0  0  0  0  0  0  0
    3.1449    2.8272    0.5701 H   0  0  0  0  0  0  0  0  0  0  0  0
  1  2  1  0
  2  3  1  0
  3  4  1  0
  4  5  1  0
  5  6  1  0
  6  7  1  0
  7  8  1  0
  8  9  2  0
  9 10  1  0
 10 11  2  0
 10 12  1  0
 12 13  2  0
 13 14  1  0
 14 15  1  1
 14 16  1  0
 16 17  1  6
 16 18  1  0
 18 19  1  0
 18 20  1  0
 20 21  1  0
 21 22  1  1
 21 23  1  0
 23 24  1  6
 23 25  1  0
 25 26  2  0
 25 27  1  0
 27 28  1  0
 23  2  1  0
 21  4  1  0
 16  5  1  0
 14  8  1  0
  1 29  1  0
  1 30  1  0
  1 31  1  0
  2 32  1  6
  3 33  1  0
  3 34  1  0
  4 35  1  6
  5 36  1  1
  6 37  1  0
  6 38  1  0
  7 39  1  0
  7 40  1  0
  9 41  1  0
 12 42  1  0
 13 43  1  0
 15 44  1  0
 15 45  1  0
 15 46  1  0
 18 47  1  1
 19 48  1  0
 20 49  1  0
 20 50  1  0
 22 51  1  0
 22 52  1  0
 22 53  1  0
 24 54  1  0
 27 55  1  0
 27 56  1  0
 28 57  1  0
M  END
$$$$
