
     RDKit          3D

 30 31  0  0  0  0  0  0  0  0999 V2000
   -4.8572    1.7535    0.6105 C   0  0  0  0  0  0  0  0  0  0  0  0
   -3.5790    1.0752    0.2188 C   0  0  0  0  0  0  0  0  0  0  0  0
   -3.3977    0.6241   -1.0746 C   0  0  0  0  0  0  0  0  0  0  0  0
   -2.1854    0.0310   -1.3447 C   0  0  0  0  0  0  0  0  0  0  0  0
   -1.2164   -0.1250   -0.4273 N   0  0  0  0  0  0  0  0  0  0  0  0
   -1.5165    0.2996    0.7994 C   0  0  0  0  0  0  0  0  0  0  0  0
   -0.5243    0.3255    1.7704 N   0  0  0  0  0  0  0  0  0  0  0  0
    0.4416   -1.0157    1.9169 S   0  0  0  0  0  6  0  0  0  0  0  0
   -0.3249   -2.2159    1.6552 O   0  0  0  0  0  0  0  0  0  0  0  0
    1.1395   -0.8646    3.1796 O   0  0  0  0  0  0  0  0  0  0  0  0
    1.6632   -0.8056    0.6456 C   0  0  0  0  0  0  0  0  0  0  0  0
    2.6291    0.1936    0.7840 C   0  0  0  0  0  0  0  0  0  0  0  0
    3.6078    0.3448   -0.2019 C   0  0  0  0  0  0  0  0  0  0  0  0
    3.6608   -0.5246   -1.2966 C   0  0  0  0  0  0  0  0  0  0  0  0
    4.5698   -0.2922   -2.3356 N   0  0  0  0  0  0  0  0  0  0  0  0
    2.6579   -1.4888   -1.4429 C   0  0  0  0  0  0  0  0  0  0  0  0
    1.6738   -1.6516   -0.4641 C   0  0  0  0  0  0  0  0  0  0  0  0
   -2.6312    0.9390    1.1693 N   0  0  0  0  0  0  0  0  0  0  0  0
   -5.0008    2.6614    0.0164 H   0  0  0  0  0  0  0  0  0  0  0  0
   -5.7063    1.0814    0.4521 H   0  0  0  0  0  0  0  0  0  0  0  0
   -4.8399    2.0369    1.6678 H   0  0  0  0  0  0  0  0  0  0  0  0
   -4.1556    0.7352   -1.8388 H   0  0  0  0  0  0  0  0  0  0  0  0
   -1.9494   -0.3403   -2.3379 H   0  0  0  0  0  0  0  0  0  0  0  0
   -0.8413    0.7010    2.6558 H   0  0  0  0  0  0  0  0  0  0  0  0
    2.6196    0.8588    1.6438 H   0  0  0  0  0  0  0  0  0  0  0  0
    4.3348    1.1470   -0.1052 H   0  0  0  0  0  0  0  0  0  0  0  0
    5.4221    0.1721   -2.0377 H   0  0  0  0  0  0  0  0  0  0  0  0
    4.7578   -1.1113   -2.9053 H   0  0  0  0  0  0  0  0  0  0  0  0
    2.6357   -2.1261   -2.3230 H   0  0  0  0  0  0  0  0  0  0  0  0
    0.9125   -2.4185   -0.5854 H   0  0  0  0  0  0  0  0  0  0  0  0
  1  2  1  0
  2  3  2  0
  3  4  1  0
  4  5  2  0
  5  6  1  0
  6  7  1  0
  7  8  1  0
  8  9  2  0
  8 10  2  0
  8 11  1  0
 11 12  2  0
 12 13  1  0
 13 14  2  0
 14 15  1  0
 14 16  1  0
 16 17  2  0
  6 18  2  0
 18  2  1  0
 17 11  1  0
  1 19  1  0
  1 20  1  0
  1 21  1  0
  3 22  1  0
  4 23  1  0
  7 24  1  0
 12 25  1  0
 13 26  1  0
 15 27  1  0
 15 28  1  0
 16 29  1  0
 17 30  1  0
M  END
$$$$
