
     RDKit          3D

 28 28  0  0  0  0  0  0  0  0999 V2000
    0.9162    2.4110   -1.5865 C   0  0  0  0  0  0  0  0  0  0  0  0
    1.3103    1.2114   -0.7698 C   0  0  0  0  0  0  0  0  0  0  0  0
    2.6325    0.7411   -0.8778 C   0  0  0  0  0  0  0  0  0  0  0  0
    3.0758   -0.3533   -0.1306 C   0  0  0  0  0  0  0  0  0  0  0  0
    2.1927   -0.9955    0.7420 C   0  0  0  0  0  0  0  0  0  0  0  0
    2.6553   -2.1446    1.5299 N   0  0  0  0  0  4  0  0  0  0  0  0
    3.8605   -2.4283    1.4816 O   0  0  0  0  0  0  0  0  0  0  0  0
    1.8113   -2.7676    2.1889 O   0  0  0  0  0  1  0  0  0  0  0  0
    0.8710   -0.5571    0.8625 C   0  0  0  0  0  0  0  0  0  0  0  0
    0.4279    0.5350    0.0953 C   0  0  0  0  0  0  0  0  0  0  0  0
   -1.2864    1.0060    0.2948 S   0  0  0  0  0  6  0  0  0  0  0  0
   -1.7446    1.7034   -0.8870 O   0  0  0  0  0  0  0  0  0  0  0  0
   -1.3928    1.5923    1.6126 O   0  0  0  0  0  0  0  0  0  0  0  0
   -2.1002   -0.5047    0.3053 N   0  0  0  0  0  0  0  0  0  0  0  0
   -2.1071   -1.2162   -0.9945 C   0  0  0  0  0  0  0  0  0  0  0  0
   -3.4626   -0.4219    0.8818 C   0  0  0  0  0  0  0  0  0  0  0  0
    1.7955    2.9084   -2.0112 H   0  0  0  0  0  0  0  0  0  0  0  0
    0.2755    2.1108   -2.4208 H   0  0  0  0  0  0  0  0  0  0  0  0
    0.4104    3.1561   -0.9648 H   0  0  0  0  0  0  0  0  0  0  0  0
    3.3373    1.2361   -1.5460 H   0  0  0  0  0  0  0  0  0  0  0  0
    4.1074   -0.6842   -0.2377 H   0  0  0  0  0  0  0  0  0  0  0  0
    0.1818   -1.0502    1.5473 H   0  0  0  0  0  0  0  0  0  0  0  0
   -2.7742   -0.7255   -1.7096 H   0  0  0  0  0  0  0  0  0  0  0  0
   -2.4525   -2.2444   -0.8442 H   0  0  0  0  0  0  0  0  0  0  0  0
   -1.1017   -1.2760   -1.4192 H   0  0  0  0  0  0  0  0  0  0  0  0
   -3.4188   -0.0726    1.9174 H   0  0  0  0  0  0  0  0  0  0  0  0
   -3.9222   -1.4156    0.8975 H   0  0  0  0  0  0  0  0  0  0  0  0
   -4.0984    0.2461    0.2930 H   0  0  0  0  0  0  0  0  0  0  0  0
  1  2  1  0
  2  3  2  0
  3  4  1  0
  4  5  2  0
  5  6  1  0
  6  7  2  0
  6  8  1  0
  5  9  1  0
  9 10  2  0
 10 11  1  0
 11 12  2  0
 11 13  2  0
 11 14  1  0
 14 15  1  0
 14 16  1  0
 10  2  1  0
  1 17  1  0
  1 18  1  0
  1 19  1  0
  3 20  1  0
  4 21  1  0
  9 22  1  0
 15 23  1  0
 15 24  1  0
 15 25  1  0
 16 26  1  0
 16 27  1  0
 16 28  1  0
M  CHG  2   6   1   8  -1
M  END
$$$$
