
     RDKit          3D

 55 59  0  0  0  0  0  0  0  0999 V2000
   -2.3264   -2.8534    0.0431 C   0  0  0  0  0  0  0  0  0  0  0  0
   -3.0224   -1.5198    0.1477 C   0  0  0  0  0  0  0  0  0  0  0  0
   -4.4185   -1.5451    0.3566 C   0  0  0  0  0  0  0  0  0  0  0  0
   -5.0932   -0.3450    0.3873 C   0  0  0  0  0  0  0  0  0  0  0  0
   -4.4330    0.8684    0.2226 C   0  0  0  0  0  0  0  0  0  0  0  0
   -3.0687    0.9352    0.0375 C   0  0  0  0  0  0  0  0  0  0  0  0
   -2.3360   -0.2701    0.0201 C   0  0  0  0  0  0  0  0  0  0  0  0
   -0.9028   -0.2056   -0.1207 N   0  0  0  0  0  0  0  0  0  0  0  0
   -0.3676    0.6042   -1.1319 C   0  0  0  0  0  0  0  0  0  0  0  0
   -1.0267    1.2580   -1.9398 O   0  0  0  0  0  0  0  0  0  0  0  0
    1.1096    0.6481   -1.2542 C   0  0  0  0  0  0  0  0  0  0  0  0
    1.6771    1.4003   -2.2912 C   0  0  0  0  0  0  0  0  0  0  0  0
    3.0551    1.4412   -2.4455 C   0  0  0  0  0  0  0  0  0  0  0  0
    3.8696    0.7283   -1.5670 C   0  0  0  0  0  0  0  0  0  0  0  0
    3.3323   -0.0404   -0.5099 C   0  0  0  0  0  0  0  0  0  0  0  0
    4.1381   -0.7772    0.4032 C   0  0  0  0  0  0  0  0  0  0  0  0
    5.6540   -0.8023    0.3257 C   0  0  0  0  0  0  0  0  0  0  0  0
    6.2803    0.4097    1.0229 C   0  0  0  0  0  0  0  0  0  0  0  0
    7.7988    0.4039    0.9139 C   0  0  0  0  0  0  0  0  0  0  0  0
    8.1797    0.5116   -0.4505 O   0  0  0  0  0  0  0  0  0  0  0  0
    3.5307   -1.4986    1.4423 C   0  0  0  0  0  0  0  0  0  0  0  0
    2.1484   -1.5090    1.5818 C   0  0  0  0  0  0  0  0  0  0  0  0
    1.3462   -0.7988    0.6821 C   0  0  0  0  0  0  0  0  0  0  0  0
    1.9172   -0.0668   -0.3616 C   0  0  0  0  0  0  0  0  0  0  0  0
   -0.1229   -0.8171    0.8694 C   0  0  0  0  0  0  0  0  0  0  0  0
   -0.5600   -1.3218    1.9030 O   0  0  0  0  0  0  0  0  0  0  0  0
   -5.3873    1.8917    0.2934 N   0  0  0  0  0  0  0  0  0  0  0  0
   -5.1123    3.2919    0.1543 C   0  0  0  0  0  0  0  0  0  0  0  0
   -6.6612    1.3199    0.5015 C   0  0  0  0  0  0  0  0  0  0  0  0
   -7.7240    1.9111    0.6083 O   0  0  0  0  0  0  0  0  0  0  0  0
   -6.4563   -0.0761    0.5602 N   0  0  0  0  0  0  0  0  0  0  0  0
   -7.4785   -1.0615    0.7563 C   0  0  0  0  0  0  0  0  0  0  0  0
   -2.0619   -3.2265    1.0364 H   0  0  0  0  0  0  0  0  0  0  0  0
   -2.9817   -3.5900   -0.4359 H   0  0  0  0  0  0  0  0  0  0  0  0
   -1.4288   -2.7954   -0.5797 H   0  0  0  0  0  0  0  0  0  0  0  0
   -4.9479   -2.4846    0.4721 H   0  0  0  0  0  0  0  0  0  0  0  0
   -2.5784    1.8966   -0.0638 H   0  0  0  0  0  0  0  0  0  0  0  0
    1.0461    1.9533   -2.9852 H   0  0  0  0  0  0  0  0  0  0  0  0
    3.4991    2.0242   -3.2491 H   0  0  0  0  0  0  0  0  0  0  0  0
    4.9455    0.7902   -1.7231 H   0  0  0  0  0  0  0  0  0  0  0  0
    5.9714   -0.8759   -0.7206 H   0  0  0  0  0  0  0  0  0  0  0  0
    6.0264   -1.7226    0.7953 H   0  0  0  0  0  0  0  0  0  0  0  0
    5.8941    1.3336    0.5757 H   0  0  0  0  0  0  0  0  0  0  0  0
    5.9942    0.4193    2.0816 H   0  0  0  0  0  0  0  0  0  0  0  0
    8.2201   -0.5182    1.3269 H   0  0  0  0  0  0  0  0  0  0  0  0
    8.2172    1.2567    1.4577 H   0  0  0  0  0  0  0  0  0  0  0  0
    9.1520    0.5464   -0.4734 H   0  0  0  0  0  0  0  0  0  0  0  0
    4.1358   -2.0564    2.1550 H   0  0  0  0  0  0  0  0  0  0  0  0
    1.6994   -2.0719    2.3987 H   0  0  0  0  0  0  0  0  0  0  0  0
   -4.6738    3.4784   -0.8303 H   0  0  0  0  0  0  0  0  0  0  0  0
   -4.4135    3.6031    0.9361 H   0  0  0  0  0  0  0  0  0  0  0  0
   -6.0342    3.8722    0.2489 H   0  0  0  0  0  0  0  0  0  0  0  0
   -7.2581   -1.6370    1.6600 H   0  0  0  0  0  0  0  0  0  0  0  0
   -8.4543   -0.5813    0.8690 H   0  0  0  0  0  0  0  0  0  0  0  0
   -7.5082   -1.7291   -0.1097 H   0  0  0  0  0  0  0  0  0  0  0  0
  1  2  1  0
  2  3  2  0
  3  4  1  0
  4  5  2  0
  5  6  1  0
  6  7  2  0
  7  8  1  0
  8  9  1  0
  9 10  2  0
  9 11  1  0
 11 12  2  0
 12 13  1  0
 13 14  2  0
 14 15  1  0
 15 16  2  0
 16 17  1  0
 17 18  1  0
 18 19  1  0
 19 20  1  0
 16 21  1  0
 21 22  2  0
 22 23  1  0
 23 24  2  0
 23 25  1  0
 25 26  2  0
  5 27  1  0
 27 28  1  0
 27 29  1  0
 29 30  2  0
 29 31  1  0
 31 32  1  0
  7  2  1  0
 25  8  1  0
 31  4  1  0
 24 11  1  0
 24 15  1  0
  1 33  1  0
  1 34  1  0
  1 35  1  0
  3 36  1  0
  6 37  1  0
 12 38  1  0
 13 39  1  0
 14 40  1  0
 17 41  1  0
 17 42  1  0
 18 43  1  0
 18 44  1  0
 19 45  1  0
 19 46  1  0
 20 47  1  0
 21 48  1  0
 22 49  1  0
 28 50  1  0
 28 51  1  0
 28 52  1  0
 32 53  1  0
 32 54  1  0
 32 55  1  0
M  END
$$$$
