
     RDKit          3D

 49 50  0  0  0  0  0  0  0  0999 V2000
    1.5308    1.2685   -3.3440 C   0  0  0  0  0  0  0  0  0  0  0  0
    0.7274   -0.0071   -3.2698 C   0  0  0  0  0  0  0  0  0  0  0  0
    1.1213   -0.9264   -2.2002 C   0  0  0  0  0  0  0  0  0  0  0  0
    1.0728   -0.4842   -0.8367 N   0  0  0  0  0  0  0  0  0  0  0  0
    1.6793   -1.6332   -0.1194 C   0  0  0  0  0  0  0  0  0  0  0  0
    1.9368   -1.4297    1.3079 C   0  0  0  0  0  0  0  0  0  0  0  0
    2.8815   -0.3001    1.5830 C   0  0  0  0  0  0  0  0  0  0  0  0
    2.6501    1.0023    1.8159 C   0  0  0  0  0  0  0  0  0  0  0  0
    3.6745    1.8336    2.0251 C   0  0  0  0  0  0  0  0  0  0  0  0
    4.9532    1.3412    1.9990 C   0  0  0  0  0  0  0  0  0  0  0  0
    4.6457   -0.4329    1.6498 S   0  0  0  0  0  0  0  0  0  0  0  0
   -0.2436   -0.3839   -0.2615 C   0  0  0  0  0  0  0  0  0  0  0  0
   -0.9613   -1.6866   -0.1697 C   0  0  0  0  0  0  0  0  0  0  0  0
   -2.4532   -1.5262   -0.0293 C   0  0  0  0  0  0  0  0  0  0  0  0
   -2.8450   -0.2579    0.6277 C   0  0  0  0  0  0  0  0  0  0  0  0
   -3.8393   -0.2202    1.6003 C   0  0  0  0  0  0  0  0  0  0  0  0
   -4.4644   -1.4006    1.9691 O   0  0  0  0  0  0  0  0  0  0  0  0
   -4.1339    1.0152    2.1349 C   0  0  0  0  0  0  0  0  0  0  0  0
   -3.4684    2.1740    1.7224 C   0  0  0  0  0  0  0  0  0  0  0  0
   -2.4842    2.1034    0.7534 C   0  0  0  0  0  0  0  0  0  0  0  0
   -2.1954    0.8923    0.2288 C   0  0  0  0  0  0  0  0  0  0  0  0
   -1.1524    0.6454   -0.8411 C   0  0  0  0  0  0  0  0  0  0  0  0
    0.6890    0.0000    0.0000 Cl  0  0  0  0  0  0  0  0  0  0  0  0
    2.6023    1.1377   -3.1692 H   0  0  0  0  0  0  0  0  0  0  0  0
    1.3776    1.6703   -4.3844 H   0  0  0  0  0  0  0  0  0  0  0  0
    1.0437    1.9968   -2.6670 H   0  0  0  0  0  0  0  0  0  0  0  0
    0.9951   -0.5477   -4.2434 H   0  0  0  0  0  0  0  0  0  0  0  0
   -0.3192    0.2422   -3.4191 H   0  0  0  0  0  0  0  0  0  0  0  0
    0.6229   -1.9073   -2.3866 H   0  0  0  0  0  0  0  0  0  0  0  0
    2.2146   -1.1763   -2.3848 H   0  0  0  0  0  0  0  0  0  0  0  0
    1.1018   -2.5548   -0.3466 H   0  0  0  0  0  0  0  0  0  0  0  0
    2.6720   -1.7826   -0.6356 H   0  0  0  0  0  0  0  0  0  0  0  0
    1.1180   -1.3246    2.0011 H   0  0  0  0  0  0  0  0  0  0  0  0
    2.5064   -2.3424    1.6571 H   0  0  0  0  0  0  0  0  0  0  0  0
    1.5732    1.3540    1.8291 H   0  0  0  0  0  0  0  0  0  0  0  0
    3.5289    2.9304    2.2246 H   0  0  0  0  0  0  0  0  0  0  0  0
    5.9353    1.7748    2.1312 H   0  0  0  0  0  0  0  0  0  0  0  0
   -0.0652   -0.0506    0.8092 H   0  0  0  0  0  0  0  0  0  0  0  0
   -0.6293   -2.2878    0.7274 H   0  0  0  0  0  0  0  0  0  0  0  0
   -0.8091   -2.3476   -1.0516 H   0  0  0  0  0  0  0  0  0  0  0  0
   -2.8717   -2.3526    0.5870 H   0  0  0  0  0  0  0  0  0  0  0  0
   -2.9207   -1.5704   -1.0492 H   0  0  0  0  0  0  0  0  0  0  0  0
   -5.1765   -1.3395    2.6704 H   0  0  0  0  0  0  0  0  0  0  0  0
   -4.9102    1.0444    2.8911 H   0  0  0  0  0  0  0  0  0  0  0  0
   -3.7577    3.0994    2.1817 H   0  0  0  0  0  0  0  0  0  0  0  0
   -1.9555    2.9820    0.4183 H   0  0  0  0  0  0  0  0  0  0  0  0
   -0.7307    1.6038   -1.0908 H   0  0  0  0  0  0  0  0  0  0  0  0
   -1.7787    0.1618   -1.6456 H   0  0  0  0  0  0  0  0  0  0  0  0
   -0.6890    0.0000    0.0000 H   0  0  0  0  0  0  0  0  0  0  0  0
  1  2  1  0
  2  3  1  0
  3  4  1  0
  4  5  1  0
  5  6  1  0
  6  7  1  0
  7  8  2  0
  8  9  1  0
  9 10  2  0
 10 11  1  0
  4 12  1  0
 12 13  1  0
 13 14  1  0
 14 15  1  0
 15 16  2  0
 16 17  1  0
 16 18  1  0
 18 19  2  0
 19 20  1  0
 20 21  2  0
 21 22  1  0
 11  7  1  0
 22 12  1  0
 21 15  1  0
  1 24  1  0
  1 25  1  0
  1 26  1  0
  2 27  1  0
  2 28  1  0
  3 29  1  0
  3 30  1  0
  5 31  1  0
  5 32  1  0
  6 33  1  0
  6 34  1  0
  8 35  1  0
  9 36  1  0
 10 37  1  0
 12 38  1  0
 13 39  1  0
 13 40  1  0
 14 41  1  0
 14 42  1  0
 17 43  1  0
 18 44  1  0
 19 45  1  0
 20 46  1  0
 22 47  1  0
 22 48  1  0
 23 49  1  0
M  END
$$$$
