
     RDKit          3D

 47 50  0  0  0  0  0  0  0  0999 V2000
    0.6122    2.4718   -3.5860 C   0  0  0  0  0  0  0  0  0  0  0  0
   -0.2918    2.6372   -2.3928 C   0  0  0  0  0  0  0  0  0  0  0  0
   -0.3980    1.7842   -1.3545 C   0  0  0  0  0  0  0  0  0  0  0  0
    0.3845    0.5167   -1.3609 C   0  0  0  0  0  0  0  0  0  0  0  0
    0.1848   -0.3189   -2.2327 O   0  0  0  0  0  0  0  0  0  0  0  0
    1.2960    0.4595   -0.3331 N   0  0  0  0  0  0  0  0  0  0  0  0
    2.1475   -0.6164    0.0015 C   0  0  0  0  0  0  0  0  0  0  0  0
    2.1769   -1.8351   -0.6870 C   0  0  0  0  0  0  0  0  0  0  0  0
    3.0660   -2.8411   -0.2566 C   0  0  0  0  0  0  0  0  0  0  0  0
    3.3837   -4.1566   -0.6624 C   0  0  0  0  0  0  0  0  0  0  0  0
    4.3325   -4.7146    0.0938 N   0  0  0  0  0  0  0  0  0  0  0  0
    4.6220   -3.7573    0.9920 N   0  0  0  0  0  0  0  0  0  0  0  0
    3.8927   -2.6071    0.8374 C   0  0  0  0  0  0  0  0  0  0  0  0
    3.8851   -1.4069    1.5497 C   0  0  0  0  0  0  0  0  0  0  0  0
    2.9947   -0.4287    1.1035 C   0  0  0  0  0  0  0  0  0  0  0  0
    2.9510    0.7410    1.7645 F   0  0  0  0  0  0  0  0  0  0  0  0
   -1.2803    2.1012   -0.1650 C   0  0  0  0  0  0  0  0  0  0  0  0
   -1.8232    0.8863    0.5798 C   0  0  0  0  0  0  0  0  0  0  0  0
   -2.5729   -0.1021   -0.0770 C   0  0  0  0  0  0  0  0  0  0  0  0
   -3.0469   -1.2165    0.6190 C   0  0  0  0  0  0  0  0  0  0  0  0
   -2.7929   -1.3638    1.9894 C   0  0  0  0  0  0  0  0  0  0  0  0
   -3.2798   -2.5818    2.7348 C   0  0  0  0  0  0  0  0  0  0  0  0
   -2.3643   -3.5896    2.7363 F   0  0  0  0  0  0  0  0  0  0  0  0
   -3.5572   -2.3283    4.0451 F   0  0  0  0  0  0  0  0  0  0  0  0
   -4.4208   -3.1118    2.2118 F   0  0  0  0  0  0  0  0  0  0  0  0
   -2.0437   -0.3781    2.6465 C   0  0  0  0  0  0  0  0  0  0  0  0
   -1.5682    0.7368    1.9512 C   0  0  0  0  0  0  0  0  0  0  0  0
   -2.4381    3.0284   -0.5503 C   0  0  0  0  0  0  0  0  0  0  0  0
   -1.9891    4.1383   -1.4662 C   0  0  0  0  0  0  0  0  0  0  0  0
   -2.5200    5.2451   -1.4764 O   0  0  0  0  0  0  0  0  0  0  0  0
   -1.0123    3.8124   -2.3708 N   0  0  0  0  0  0  0  0  0  0  0  0
    1.2155    3.3748   -3.7327 H   0  0  0  0  0  0  0  0  0  0  0  0
    1.3127    1.6380   -3.4919 H   0  0  0  0  0  0  0  0  0  0  0  0
    0.0142    2.3101   -4.4893 H   0  0  0  0  0  0  0  0  0  0  0  0
    1.3721    1.2631    0.2805 H   0  0  0  0  0  0  0  0  0  0  0  0
    1.5363   -2.0342   -1.5385 H   0  0  0  0  0  0  0  0  0  0  0  0
    2.9586   -4.7276   -1.4783 H   0  0  0  0  0  0  0  0  0  0  0  0
    5.3325   -3.9534    1.6889 H   0  0  0  0  0  0  0  0  0  0  0  0
    4.5255   -1.2304    2.4050 H   0  0  0  0  0  0  0  0  0  0  0  0
   -0.6367    2.6599    0.5317 H   0  0  0  0  0  0  0  0  0  0  0  0
   -2.7802   -0.0248   -1.1434 H   0  0  0  0  0  0  0  0  0  0  0  0
   -3.6140   -1.9761    0.0818 H   0  0  0  0  0  0  0  0  0  0  0  0
   -1.8270   -0.4761    3.7094 H   0  0  0  0  0  0  0  0  0  0  0  0
   -0.9924    1.4845    2.4936 H   0  0  0  0  0  0  0  0  0  0  0  0
   -3.2399    2.4897   -1.0711 H   0  0  0  0  0  0  0  0  0  0  0  0
   -2.8739    3.4747    0.3517 H   0  0  0  0  0  0  0  0  0  0  0  0
   -0.8332    4.5235   -3.0730 H   0  0  0  0  0  0  0  0  0  0  0  0
  1  2  1  0
  2  3  2  0
  3  4  1  0
  4  5  2  0
  4  6  1  0
  6  7  1  0
  7  8  2  0
  8  9  1  0
  9 10  1  0
 10 11  2  0
 11 12  1  0
 12 13  1  0
 13 14  1  0
 14 15  2  0
 15 16  1  0
  3 17  1  0
 17 18  1  0
 18 19  2  0
 19 20  1  0
 20 21  2  0
 21 22  1  0
 22 23  1  0
 22 24  1  0
 22 25  1  0
 21 26  1  0
 26 27  2  0
 17 28  1  0
 28 29  1  0
 29 30  2  0
 29 31  1  0
 31  2  1  0
 15  7  1  0
 27 18  1  0
 13  9  2  0
  1 32  1  0
  1 33  1  0
  1 34  1  0
  6 35  1  0
  8 36  1  0
 10 37  1  0
 12 38  1  0
 14 39  1  0
 17 40  1  0
 19 41  1  0
 20 42  1  0
 26 43  1  0
 27 44  1  0
 28 45  1  0
 28 46  1  0
 31 47  1  0
M  END
$$$$
