
     RDKit          3D

 50 55  0  0  0  0  0  0  0  0999 V2000
    2.2628   -2.0676   -1.7418 O   0  0  0  0  0  0  0  0  0  0  0  0
    1.6961   -1.2851   -0.9842 C   0  0  0  0  0  0  0  0  0  0  0  0
    2.2783   -0.1862   -0.3946 N   0  0  0  0  0  0  0  0  0  0  0  0
    3.6286    0.2178   -0.4566 C   0  0  0  0  0  0  0  0  0  0  0  0
    4.6534   -0.5600   -1.0299 C   0  0  0  0  0  0  0  0  0  0  0  0
    5.9793   -0.1059   -1.0534 C   0  0  0  0  0  0  0  0  0  0  0  0
    6.2486    1.1220   -0.4947 C   0  0  0  0  0  0  0  0  0  0  0  0
    5.2576    1.8847    0.0720 C   0  0  0  0  0  0  0  0  0  0  0  0
    3.9442    1.4626    0.1093 C   0  0  0  0  0  0  0  0  0  0  0  0
    5.7276    3.0603    0.5695 O   0  0  0  0  0  0  0  0  0  0  0  0
    7.1301    2.9487    0.2465 C   0  0  0  0  0  0  0  0  0  0  0  0
    7.4676    1.7187   -0.4267 O   0  0  0  0  0  0  0  0  0  0  0  0
    0.3641   -1.4615   -0.6562 N   0  0  0  0  0  0  0  0  0  0  0  0
   -0.3775   -2.5850   -1.2015 C   0  0  0  0  0  0  0  0  0  0  0  0
   -1.8345   -2.3008   -0.8735 C   0  0  0  0  0  0  0  0  0  0  0  0
   -1.7442   -1.5100    0.4347 C   0  0  0  0  0  0  0  0  0  0  0  0
   -2.8921   -0.6982    0.7688 N   0  0  0  0  0  0  0  0  0  0  0  0
   -3.4695    0.3652    0.0972 C   0  0  0  0  0  0  0  0  0  0  0  0
   -3.0411    0.9707   -1.1346 C   0  0  0  0  0  0  0  0  0  0  0  0
   -3.6799    1.9813   -1.8394 C   0  0  0  0  0  0  0  0  0  0  0  0
   -2.8970    2.2677   -2.9829 C   0  0  0  0  0  0  0  0  0  0  0  0
   -1.8191    1.4217   -2.9190 C   0  0  0  0  0  0  0  0  0  0  0  0
   -1.8958    0.6434   -1.8119 O   0  0  0  0  0  0  0  0  0  0  0  0
   -4.5323    0.8169    0.7467 N   0  0  0  0  0  0  0  0  0  0  0  0
   -4.6410    0.0484    1.8696 C   0  0  0  0  0  0  0  0  0  0  0  0
   -5.5639    0.0769    2.9202 C   0  0  0  0  0  0  0  0  0  0  0  0
   -5.3936   -0.8576    3.9437 C   0  0  0  0  0  0  0  0  0  0  0  0
   -4.3329   -1.7552    3.8713 C   0  0  0  0  0  0  0  0  0  0  0  0
   -3.4156   -1.8201    2.8758 N   0  0  0  0  0  0  0  0  0  0  0  0
   -3.6303   -0.8984    1.9145 C   0  0  0  0  0  0  0  0  0  0  0  0
   -0.4071   -0.7681    0.3697 C   0  0  0  0  0  0  0  0  0  0  0  0
    1.6444    0.4717    0.0272 H   0  0  0  0  0  0  0  0  0  0  0  0
    4.4477   -1.5344   -1.4636 H   0  0  0  0  0  0  0  0  0  0  0  0
    6.7660   -0.7058   -1.4967 H   0  0  0  0  0  0  0  0  0  0  0  0
    3.1918    2.0944    0.5667 H   0  0  0  0  0  0  0  0  0  0  0  0
    7.7092    3.0109    1.1751 H   0  0  0  0  0  0  0  0  0  0  0  0
    7.4089    3.7898   -0.3986 H   0  0  0  0  0  0  0  0  0  0  0  0
   -0.0292   -3.4931   -0.6961 H   0  0  0  0  0  0  0  0  0  0  0  0
   -0.1999   -2.6910   -2.2762 H   0  0  0  0  0  0  0  0  0  0  0  0
   -2.4147   -3.2229   -0.7612 H   0  0  0  0  0  0  0  0  0  0  0  0
   -2.3011   -1.7325   -1.6816 H   0  0  0  0  0  0  0  0  0  0  0  0
   -1.6369   -2.2614    1.2296 H   0  0  0  0  0  0  0  0  0  0  0  0
   -4.6102    2.4495   -1.5454 H   0  0  0  0  0  0  0  0  0  0  0  0
   -3.0952    2.9984   -3.7542 H   0  0  0  0  0  0  0  0  0  0  0  0
   -0.9548    1.2574   -3.5484 H   0  0  0  0  0  0  0  0  0  0  0  0
   -6.3724    0.7977    2.9309 H   0  0  0  0  0  0  0  0  0  0  0  0
   -6.0783   -0.8839    4.7850 H   0  0  0  0  0  0  0  0  0  0  0  0
   -4.1889   -2.4886    4.6624 H   0  0  0  0  0  0  0  0  0  0  0  0
   -0.4855    0.2903    0.1120 H   0  0  0  0  0  0  0  0  0  0  0  0
    0.1278   -0.8333    1.3244 H   0  0  0  0  0  0  0  0  0  0  0  0
  1  2  2  0
  2  3  1  0
  3  4  1  0
  4  5  2  0
  5  6  1  0
  6  7  2  0
  7  8  1  0
  8  9  2  0
  8 10  1  0
 10 11  1  0
 11 12  1  0
  2 13  1  0
 13 14  1  0
 14 15  1  0
 15 16  1  0
 16 17  1  0
 17 18  1  0
 18 19  1  0
 19 20  2  0
 20 21  1  0
 21 22  2  0
 22 23  1  0
 18 24  2  0
 24 25  1  0
 25 26  2  0
 26 27  1  0
 27 28  2  0
 28 29  1  0
 29 30  2  0
 16 31  1  0
  9  4  1  0
 31 13  1  0
 12  7  1  0
 30 17  1  0
 23 19  1  0
 30 25  1  0
  3 32  1  0
  5 33  1  0
  6 34  1  0
  9 35  1  0
 11 36  1  0
 11 37  1  0
 14 38  1  0
 14 39  1  0
 15 40  1  0
 15 41  1  0
 16 42  1  0
 20 43  1  0
 21 44  1  0
 22 45  1  0
 26 46  1  0
 27 47  1  0
 28 48  1  0
 31 49  1  0
 31 50  1  0
M  END
$$$$
