
     RDKit          3D

 59 62  0  0  0  0  0  0  0  0999 V2000
   -6.8977    4.5448   -0.5264 C   0  0  0  0  0  0  0  0  0  0  0  0
   -5.9043    3.5572   -0.2969 O   0  0  0  0  0  0  0  0  0  0  0  0
   -6.3895    2.2442   -0.5666 C   0  0  0  0  0  0  0  0  0  0  0  0
   -5.2666    1.2408   -0.3370 C   0  0  0  0  0  0  0  0  0  0  0  0
   -4.1015    1.4661   -1.3010 C   0  0  0  0  0  0  0  0  0  0  0  0
   -3.0510    0.4796   -1.1107 N   0  0  0  0  0  0  0  0  0  0  0  0
   -3.1354   -0.7825   -1.6416 C   0  0  0  0  0  0  0  0  0  0  0  0
   -4.0775   -1.1606   -2.3369 O   0  0  0  0  0  0  0  0  0  0  0  0
   -1.9858   -1.7233   -1.3116 C   0  0  0  0  0  0  0  0  0  0  0  0
   -1.9128   -2.0193    0.1878 C   0  0  0  0  0  0  0  0  0  0  0  0
   -0.6545   -2.8244    0.4857 C   0  0  0  0  0  0  0  0  0  0  0  0
    0.5701   -2.0847    0.1129 N   0  0  0  0  0  0  0  0  0  0  0  0
    1.8331   -2.4551    0.6303 C   0  0  0  0  0  0  0  0  0  0  0  0
    2.1000   -3.7200    1.0138 C   0  0  0  0  0  0  0  0  0  0  0  0
    3.4662   -4.0270    1.5425 C   0  0  0  0  0  0  0  0  0  0  0  0
    3.7442   -5.4563    1.9591 C   0  0  0  0  0  0  0  0  0  0  0  0
    4.4339   -3.1649    1.6537 N   0  0  0  0  0  0  0  0  0  0  0  0
    4.1443   -1.8863    1.2739 C   0  0  0  0  0  0  0  0  0  0  0  0
    4.9316   -0.7618    1.2697 C   0  0  0  0  0  0  0  0  0  0  0  0
    4.1127    0.2892    0.8006 C   0  0  0  0  0  0  0  0  0  0  0  0
    4.4835    1.6968    0.6107 C   0  0  0  0  0  0  0  0  0  0  0  0
    3.4946    2.6903    0.5242 C   0  0  0  0  0  0  0  0  0  0  0  0
    3.8421    4.0337    0.3509 C   0  0  0  0  0  0  0  0  0  0  0  0
    5.1814    4.3872    0.2617 C   0  0  0  0  0  0  0  0  0  0  0  0
    5.5166    5.6750    0.0917 F   0  0  0  0  0  0  0  0  0  0  0  0
    6.1792    3.4239    0.3418 C   0  0  0  0  0  0  0  0  0  0  0  0
    5.8312    2.0804    0.5121 C   0  0  0  0  0  0  0  0  0  0  0  0
    2.8744   -0.1510    0.5395 N   0  0  0  0  0  0  0  0  0  0  0  0
    2.8897   -1.4970    0.7826 N   0  0  0  0  0  0  0  0  0  0  0  0
    0.3926   -0.9315   -0.7905 C   0  0  0  0  0  0  0  0  0  0  0  0
   -0.6456   -1.2360   -1.8775 C   0  0  0  0  0  0  0  0  0  0  0  0
   -7.0428    4.6722   -1.6006 H   0  0  0  0  0  0  0  0  0  0  0  0
   -6.5529    5.4936   -0.1129 H   0  0  0  0  0  0  0  0  0  0  0  0
   -7.8438    4.2662   -0.0534 H   0  0  0  0  0  0  0  0  0  0  0  0
   -6.7505    2.1919   -1.6001 H   0  0  0  0  0  0  0  0  0  0  0  0
   -7.2195    2.0203    0.1078 H   0  0  0  0  0  0  0  0  0  0  0  0
   -5.6640    0.2233   -0.4506 H   0  0  0  0  0  0  0  0  0  0  0  0
   -4.8950    1.3324    0.6927 H   0  0  0  0  0  0  0  0  0  0  0  0
   -4.4509    1.4061   -2.3390 H   0  0  0  0  0  0  0  0  0  0  0  0
   -3.6464    2.4497   -1.1483 H   0  0  0  0  0  0  0  0  0  0  0  0
   -2.2680    0.7293   -0.5154 H   0  0  0  0  0  0  0  0  0  0  0  0
   -2.2248   -2.6711   -1.8199 H   0  0  0  0  0  0  0  0  0  0  0  0
   -1.9126   -1.0953    0.7855 H   0  0  0  0  0  0  0  0  0  0  0  0
   -2.8000   -2.5862    0.4981 H   0  0  0  0  0  0  0  0  0  0  0  0
   -0.6443   -3.0600    1.5614 H   0  0  0  0  0  0  0  0  0  0  0  0
   -0.6844   -3.7758   -0.0625 H   0  0  0  0  0  0  0  0  0  0  0  0
    1.3893   -4.5307    0.9366 H   0  0  0  0  0  0  0  0  0  0  0  0
    4.2932   -5.4643    2.9093 H   0  0  0  0  0  0  0  0  0  0  0  0
    2.8199   -6.0219    2.0948 H   0  0  0  0  0  0  0  0  0  0  0  0
    4.3462   -5.9385    1.1906 H   0  0  0  0  0  0  0  0  0  0  0  0
    5.9659   -0.7244    1.5874 H   0  0  0  0  0  0  0  0  0  0  0  0
    2.4426    2.4237    0.5968 H   0  0  0  0  0  0  0  0  0  0  0  0
    3.0766    4.7997    0.2864 H   0  0  0  0  0  0  0  0  0  0  0  0
    7.2208    3.7201    0.2665 H   0  0  0  0  0  0  0  0  0  0  0  0
    6.6270    1.3424    0.5531 H   0  0  0  0  0  0  0  0  0  0  0  0
    0.1000   -0.0475   -0.2063 H   0  0  0  0  0  0  0  0  0  0  0  0
    1.3284   -0.6981   -1.3150 H   0  0  0  0  0  0  0  0  0  0  0  0
   -0.7740   -0.3540   -2.5275 H   0  0  0  0  0  0  0  0  0  0  0  0
   -0.2349   -2.0302   -2.5276 H   0  0  0  0  0  0  0  0  0  0  0  0
  1  2  1  0
  2  3  1  0
  3  4  1  0
  4  5  1  0
  5  6  1  0
  6  7  1  0
  7  8  2  0
  7  9  1  0
  9 10  1  0
 10 11  1  0
 11 12  1  0
 12 13  1  0
 13 14  2  0
 14 15  1  0
 15 16  1  0
 15 17  2  0
 17 18  1  0
 18 19  2  0
 19 20  1  0
 20 21  1  0
 21 22  2  0
 22 23  1  0
 23 24  2  0
 24 25  1  0
 24 26  1  0
 26 27  2  0
 20 28  2  0
 28 29  1  0
 12 30  1  0
 30 31  1  0
 31  9  1  0
 29 13  1  0
 29 18  1  0
 27 21  1  0
  1 32  1  0
  1 33  1  0
  1 34  1  0
  3 35  1  0
  3 36  1  0
  4 37  1  0
  4 38  1  0
  5 39  1  0
  5 40  1  0
  6 41  1  0
  9 42  1  0
 10 43  1  0
 10 44  1  0
 11 45  1  0
 11 46  1  0
 14 47  1  0
 16 48  1  0
 16 49  1  0
 16 50  1  0
 19 51  1  0
 22 52  1  0
 23 53  1  0
 26 54  1  0
 27 55  1  0
 30 56  1  0
 30 57  1  0
 31 58  1  0
 31 59  1  0
M  END
$$$$
