
     RDKit          3D

 49 52  0  0  0  0  0  0  0  0999 V2000
   -6.4860    1.2988   -0.3489 C   0  0  0  0  0  0  0  0  0  0  0  0
   -5.6682    0.1583    0.2402 C   0  0  0  0  0  0  0  0  0  0  0  0
   -4.8721   -0.5761   -0.8020 C   0  0  0  0  0  0  0  0  0  0  0  0
   -5.5145   -1.3731   -1.7344 C   0  0  0  0  0  0  0  0  0  0  0  0
   -4.8916   -2.0396   -2.7207 N   0  0  0  0  0  0  0  0  0  0  0  0
   -3.5656   -1.8806   -2.7623 C   0  0  0  0  0  0  0  0  0  0  0  0
   -2.8305   -1.1418   -1.9203 N   0  0  0  0  0  0  0  0  0  0  0  0
   -3.4884   -0.4898   -0.9391 C   0  0  0  0  0  0  0  0  0  0  0  0
   -2.7375    0.2718   -0.0129 N   0  0  0  0  0  0  0  0  0  0  0  0
   -2.3533   -0.6027    1.1235 C   0  0  0  0  0  0  0  0  0  0  0  0
   -1.1422   -0.0103    1.8748 C   0  0  0  0  0  0  0  0  0  0  0  0
    0.0945    0.0357    1.0550 N   0  0  0  0  0  0  0  0  0  0  0  0
    0.9846    1.0952    1.5668 C   0  0  0  0  0  0  0  0  0  0  0  0
    2.3942    0.9333    1.0897 C   0  0  0  0  0  0  0  0  0  0  0  0
    3.2631    1.8878    0.8194 N   0  0  0  0  0  0  0  0  0  0  0  0
    4.4191    1.2405    0.4581 C   0  0  0  0  0  0  0  0  0  0  0  0
    5.6656    1.7668    0.0937 C   0  0  0  0  0  0  0  0  0  0  0  0
    6.7075    0.8802   -0.2153 C   0  0  0  0  0  0  0  0  0  0  0  0
    6.5186   -0.5132   -0.1795 C   0  0  0  0  0  0  0  0  0  0  0  0
    7.6724   -1.4383   -0.4914 C   0  0  0  0  0  0  0  0  0  0  0  0
    7.2728   -2.6612   -0.9396 F   0  0  0  0  0  0  0  0  0  0  0  0
    8.5068   -0.9476   -1.4498 F   0  0  0  0  0  0  0  0  0  0  0  0
    8.4531   -1.6769    0.5982 F   0  0  0  0  0  0  0  0  0  0  0  0
    5.2653   -1.0460    0.1806 C   0  0  0  0  0  0  0  0  0  0  0  0
    4.2520   -0.1384    0.4985 C   0  0  0  0  0  0  0  0  0  0  0  0
    2.9535   -0.3076    0.8990 N   0  0  0  0  0  0  0  0  0  0  0  0
   -0.2427    0.2456   -0.3814 C   0  0  0  0  0  0  0  0  0  0  0  0
   -1.5857    0.9660   -0.6406 C   0  0  0  0  0  0  0  0  0  0  0  0
   -7.2286    0.9312   -1.0650 H   0  0  0  0  0  0  0  0  0  0  0  0
   -7.0220    1.8273    0.4461 H   0  0  0  0  0  0  0  0  0  0  0  0
   -5.8460    2.0212   -0.8658 H   0  0  0  0  0  0  0  0  0  0  0  0
   -6.3393   -0.5527    0.7402 H   0  0  0  0  0  0  0  0  0  0  0  0
   -5.0267    0.5656    1.0287 H   0  0  0  0  0  0  0  0  0  0  0  0
   -6.5941   -1.4991   -1.7150 H   0  0  0  0  0  0  0  0  0  0  0  0
   -3.0325   -2.4003   -3.5518 H   0  0  0  0  0  0  0  0  0  0  0  0
   -2.1011   -1.6201    0.7915 H   0  0  0  0  0  0  0  0  0  0  0  0
   -3.1950   -0.6841    1.8207 H   0  0  0  0  0  0  0  0  0  0  0  0
   -0.9415   -0.6149    2.7668 H   0  0  0  0  0  0  0  0  0  0  0  0
   -1.4170    0.9962    2.2190 H   0  0  0  0  0  0  0  0  0  0  0  0
    0.6096    2.0911    1.3023 H   0  0  0  0  0  0  0  0  0  0  0  0
    1.0240    1.0457    2.6631 H   0  0  0  0  0  0  0  0  0  0  0  0
    5.8152    2.8404    0.0694 H   0  0  0  0  0  0  0  0  0  0  0  0
    7.6834    1.2881   -0.4775 H   0  0  0  0  0  0  0  0  0  0  0  0
    5.0990   -2.1180    0.2279 H   0  0  0  0  0  0  0  0  0  0  0  0
    2.4579   -1.1803    1.0233 H   0  0  0  0  0  0  0  0  0  0  0  0
    0.5575    0.7785   -0.9078 H   0  0  0  0  0  0  0  0  0  0  0  0
   -0.2827   -0.7485   -0.8452 H   0  0  0  0  0  0  0  0  0  0  0  0
   -1.5345    1.9709   -0.2030 H   0  0  0  0  0  0  0  0  0  0  0  0
   -1.7305    1.1247   -1.7169 H   0  0  0  0  0  0  0  0  0  0  0  0
  1  2  1  0
  2  3  1  0
  3  4  2  0
  4  5  1  0
  5  6  2  0
  6  7  1  0
  7  8  2  0
  8  9  1  0
  9 10  1  0
 10 11  1  0
 11 12  1  0
 12 13  1  0
 13 14  1  0
 14 15  2  0
 15 16  1  0
 16 17  2  0
 17 18  1  0
 18 19  2  0
 19 20  1  0
 20 21  1  0
 20 22  1  0
 20 23  1  0
 19 24  1  0
 24 25  2  0
 25 26  1  0
 12 27  1  0
 27 28  1  0
  8  3  1  0
 28  9  1  0
 26 14  1  0
 25 16  1  0
  1 29  1  0
  1 30  1  0
  1 31  1  0
  2 32  1  0
  2 33  1  0
  4 34  1  0
  6 35  1  0
 10 36  1  0
 10 37  1  0
 11 38  1  0
 11 39  1  0
 13 40  1  0
 13 41  1  0
 17 42  1  0
 18 43  1  0
 24 44  1  0
 26 45  1  0
 27 46  1  0
 27 47  1  0
 28 48  1  0
 28 49  1  0
M  END
$$$$
