
     RDKit          3D

 72 73  0  0  0  0  0  0  0  0999 V2000
   -5.0821    3.5569   -0.6121 C   0  0  0  0  0  0  0  0  0  0  0  0
   -3.9297    2.5731   -0.4461 C   0  0  0  0  0  0  0  0  0  0  0  0
   -3.5025    2.1538   -1.8246 C   0  0  0  0  0  0  0  0  0  0  0  0
   -4.3669    1.3751    0.2995 C   0  0  0  0  0  0  0  0  0  0  0  0
   -5.6940    1.1915    0.6374 C   0  0  0  0  0  0  0  0  0  0  0  0
   -6.1311    0.0958    1.3480 C   0  0  0  0  0  0  0  0  0  0  0  0
   -5.1773   -0.8360    1.7212 C   0  0  0  0  0  0  0  0  0  0  0  0
   -3.8278   -0.6886    1.4002 C   0  0  0  0  0  0  0  0  0  0  0  0
   -2.8075   -1.6718    1.7877 C   0  0  0  0  0  0  0  0  0  0  0  0
   -3.5452   -2.8785    2.3886 C   0  0  0  0  0  0  0  0  0  0  0  0
   -1.8339   -1.1722    2.8311 C   0  0  0  0  0  0  0  0  0  0  0  0
   -3.4492    0.4365    0.6825 C   0  0  0  0  0  0  0  0  0  0  0  0
   -2.1007    0.5840    0.3355 N   0  0  0  0  0  0  0  0  0  0  0  0
   -1.4342   -0.0352   -0.7274 C   0  0  0  0  0  0  0  0  0  0  0  0
   -2.0604   -0.8260   -1.4650 O   0  0  0  0  0  0  0  0  0  0  0  0
   -0.0373    0.2365   -0.9697 N   0  0  0  0  0  0  0  0  0  0  0  0
    0.6209   -0.4232   -2.0679 C   0  0  0  0  0  0  0  0  0  0  0  0
    2.0733    0.0117   -2.1652 C   0  0  0  0  0  0  0  0  0  0  0  0
    2.8543   -0.2753   -0.9657 C   0  0  0  0  0  0  0  0  0  0  0  0
    3.5338    0.6971   -0.2733 C   0  0  0  0  0  0  0  0  0  0  0  0
    4.2452    0.3762    0.8392 C   0  0  0  0  0  0  0  0  0  0  0  0
    4.3303   -0.9062    1.3333 C   0  0  0  0  0  0  0  0  0  0  0  0
    5.0933   -1.1871    2.5015 N   0  0  0  0  0  0  0  0  0  0  0  0
    6.4780   -1.5941    2.4397 C   0  0  0  0  0  0  0  0  0  0  0  0
    4.4400   -1.0465    3.7775 C   0  0  0  0  0  0  0  0  0  0  0  0
    3.6496   -1.9003    0.6473 C   0  0  0  0  0  0  0  0  0  0  0  0
    2.9213   -1.5665   -0.4940 C   0  0  0  0  0  0  0  0  0  0  0  0
    2.7236   -0.7822   -3.3096 C   0  0  0  0  0  0  0  0  0  0  0  0
    3.1575    0.2288   -4.3206 C   0  0  0  0  0  0  0  0  0  0  0  0
    3.3096    1.5199   -3.5342 C   0  0  0  0  0  0  0  0  0  0  0  0
    2.1039    1.4340   -2.6223 C   0  0  0  0  0  0  0  0  0  0  0  0
    0.6887    0.0000    0.0000 Cl  0  0  0  0  0  0  0  0  0  0  0  0
   -4.6656    4.3770   -1.2588 H   0  0  0  0  0  0  0  0  0  0  0  0
   -5.3858    4.0275    0.3293 H   0  0  0  0  0  0  0  0  0  0  0  0
   -5.9185    3.1161   -1.1975 H   0  0  0  0  0  0  0  0  0  0  0  0
   -3.1423    3.1258    0.1077 H   0  0  0  0  0  0  0  0  0  0  0  0
   -3.8356    1.1317   -2.0279 H   0  0  0  0  0  0  0  0  0  0  0  0
   -2.4197    2.3182   -2.0075 H   0  0  0  0  0  0  0  0  0  0  0  0
   -4.0620    2.7916   -2.5726 H   0  0  0  0  0  0  0  0  0  0  0  0
   -6.4493    1.9102    0.3508 H   0  0  0  0  0  0  0  0  0  0  0  0
   -7.1770   -0.0673    1.6221 H   0  0  0  0  0  0  0  0  0  0  0  0
   -5.5157   -1.7041    2.2845 H   0  0  0  0  0  0  0  0  0  0  0  0
   -2.2206   -2.0919    0.9516 H   0  0  0  0  0  0  0  0  0  0  0  0
   -2.8354   -3.7332    2.5663 H   0  0  0  0  0  0  0  0  0  0  0  0
   -3.9985   -2.5347    3.3410 H   0  0  0  0  0  0  0  0  0  0  0  0
   -4.3382   -3.2236    1.6931 H   0  0  0  0  0  0  0  0  0  0  0  0
   -2.3415   -0.6810    3.6882 H   0  0  0  0  0  0  0  0  0  0  0  0
   -1.0318   -0.5913    2.3826 H   0  0  0  0  0  0  0  0  0  0  0  0
   -1.3432   -2.0969    3.2571 H   0  0  0  0  0  0  0  0  0  0  0  0
   -1.5326    1.2343    0.9380 H   0  0  0  0  0  0  0  0  0  0  0  0
    0.4559    0.9049   -0.3401 H   0  0  0  0  0  0  0  0  0  0  0  0
    0.1191   -0.1028   -3.0083 H   0  0  0  0  0  0  0  0  0  0  0  0
    0.5068   -1.5160   -1.9100 H   0  0  0  0  0  0  0  0  0  0  0  0
    3.5354    1.7390   -0.5710 H   0  0  0  0  0  0  0  0  0  0  0  0
    4.7851    1.1569    1.3937 H   0  0  0  0  0  0  0  0  0  0  0  0
    6.9271   -1.2834    1.4662 H   0  0  0  0  0  0  0  0  0  0  0  0
    7.0296   -1.1966    3.3205 H   0  0  0  0  0  0  0  0  0  0  0  0
    6.5277   -2.7059    2.4725 H   0  0  0  0  0  0  0  0  0  0  0  0
    4.1973    0.0528    3.8900 H   0  0  0  0  0  0  0  0  0  0  0  0
    3.4906   -1.6046    3.8531 H   0  0  0  0  0  0  0  0  0  0  0  0
    5.1278   -1.2638    4.6363 H   0  0  0  0  0  0  0  0  0  0  0  0
    3.6974   -2.9288    1.0135 H   0  0  0  0  0  0  0  0  0  0  0  0
    2.4146   -2.4035   -0.9783 H   0  0  0  0  0  0  0  0  0  0  0  0
    3.5813   -1.3935   -2.9399 H   0  0  0  0  0  0  0  0  0  0  0  0
    1.9704   -1.4922   -3.7272 H   0  0  0  0  0  0  0  0  0  0  0  0
    2.3450    0.4108   -5.0547 H   0  0  0  0  0  0  0  0  0  0  0  0
    4.1171   -0.0564   -4.7670 H   0  0  0  0  0  0  0  0  0  0  0  0
    3.2897    2.3961   -4.1857 H   0  0  0  0  0  0  0  0  0  0  0  0
    4.2705    1.4728   -3.0230 H   0  0  0  0  0  0  0  0  0  0  0  0
    1.2227    1.6237   -3.3051 H   0  0  0  0  0  0  0  0  0  0  0  0
    2.0475    2.2001   -1.8565 H   0  0  0  0  0  0  0  0  0  0  0  0
   -0.6887    0.0000    0.0000 H   0  0  0  0  0  0  0  0  0  0  0  0
  1  2  1  0
  2  3  1  0
  2  4  1  0
  4  5  2  0
  5  6  1  0
  6  7  2  0
  7  8  1  0
  8  9  1  0
  9 10  1  0
  9 11  1  0
  8 12  2  0
 12 13  1  0
 13 14  1  0
 14 15  2  0
 14 16  1  0
 16 17  1  0
 17 18  1  0
 18 19  1  0
 19 20  2  0
 20 21  1  0
 21 22  2  0
 22 23  1  0
 23 24  1  0
 23 25  1  0
 22 26  1  0
 26 27  2  0
 18 28  1  0
 28 29  1  0
 29 30  1  0
 30 31  1  0
 12  4  1  0
 31 18  1  0
 27 19  1  0
  1 33  1  0
  1 34  1  0
  1 35  1  0
  2 36  1  0
  3 37  1  0
  3 38  1  0
  3 39  1  0
  5 40  1  0
  6 41  1  0
  7 42  1  0
  9 43  1  0
 10 44  1  0
 10 45  1  0
 10 46  1  0
 11 47  1  0
 11 48  1  0
 11 49  1  0
 13 50  1  0
 16 51  1  0
 17 52  1  0
 17 53  1  0
 20 54  1  0
 21 55  1  0
 24 56  1  0
 24 57  1  0
 24 58  1  0
 25 59  1  0
 25 60  1  0
 25 61  1  0
 26 62  1  0
 27 63  1  0
 28 64  1  0
 28 65  1  0
 29 66  1  0
 29 67  1  0
 30 68  1  0
 30 69  1  0
 31 70  1  0
 31 71  1  0
 32 72  1  0
M  END
$$$$
