
     RDKit          3D

 54 56  0  0  0  0  0  0  0  0999 V2000
    8.9192    1.8311   -0.4066 C   0  0  0  0  0  0  0  0  0  0  0  0
    7.7259    2.4659    0.2825 C   0  0  0  0  0  0  0  0  0  0  0  0
    6.5208    1.7783   -0.0846 O   0  0  0  0  0  0  0  0  0  0  0  0
    6.2022    0.7009    0.6751 C   0  0  0  0  0  0  0  0  0  0  0  0
    6.8441    0.2740    1.6218 O   0  0  0  0  0  0  0  0  0  0  0  0
    4.9372    0.0788    0.1973 C   0  0  0  0  0  0  0  0  0  0  0  0
    4.4518   -1.0445    0.8793 C   0  0  0  0  0  0  0  0  0  0  0  0
    3.2673   -1.6714    0.4716 C   0  0  0  0  0  0  0  0  0  0  0  0
    2.5565   -1.1825   -0.6231 C   0  0  0  0  0  0  0  0  0  0  0  0
    1.3935   -1.6876   -1.1296 O   0  0  0  0  0  0  0  0  0  0  0  0
    0.8149   -2.8425   -0.5247 C   0  0  0  0  0  0  0  0  0  0  0  0
   -0.0756   -2.4826    0.6680 C   0  0  0  0  0  0  0  0  0  0  0  0
   -1.1110   -1.3746    0.3887 C   0  0  0  0  0  0  0  0  0  0  0  0
   -2.0847   -1.7469   -0.7404 C   0  0  0  0  0  0  0  0  0  0  0  0
   -3.1660   -0.6798   -0.9302 C   0  0  0  0  0  0  0  0  0  0  0  0
   -3.8680   -0.4553    0.3429 N   0  0  0  0  0  0  0  0  0  0  0  0
   -4.9768    0.4134    0.1789 C   0  0  0  0  0  0  0  0  0  0  0  0
   -6.0662   -0.0046   -0.5798 C   0  0  0  0  0  0  0  0  0  0  0  0
   -7.1682    0.8321   -0.7426 C   0  0  0  0  0  0  0  0  0  0  0  0
   -7.1554    2.0735   -0.1328 C   0  0  0  0  0  0  0  0  0  0  0  0
   -8.3078    3.0155   -0.2682 C   0  0  0  0  0  0  0  0  0  0  0  0
   -6.1040    2.4669    0.6095 N   0  0  0  0  0  0  0  0  0  0  0  0
   -5.0202    1.6286    0.7679 N   0  0  0  0  0  0  0  0  0  0  0  0
   -2.9766   -0.0045    1.4242 C   0  0  0  0  0  0  0  0  0  0  0  0
   -1.9033   -1.0655    1.6710 C   0  0  0  0  0  0  0  0  0  0  0  0
    3.0405   -0.0603   -1.3024 C   0  0  0  0  0  0  0  0  0  0  0  0
    4.2222    0.5702   -0.8999 C   0  0  0  0  0  0  0  0  0  0  0  0
    8.7746    1.8190   -1.4919 H   0  0  0  0  0  0  0  0  0  0  0  0
    9.8365    2.3812   -0.1788 H   0  0  0  0  0  0  0  0  0  0  0  0
    9.0477    0.7909   -0.0910 H   0  0  0  0  0  0  0  0  0  0  0  0
    7.8568    2.4895    1.3704 H   0  0  0  0  0  0  0  0  0  0  0  0
    7.6167    3.5030   -0.0510 H   0  0  0  0  0  0  0  0  0  0  0  0
    4.9950   -1.4398    1.7364 H   0  0  0  0  0  0  0  0  0  0  0  0
    2.9342   -2.5347    1.0373 H   0  0  0  0  0  0  0  0  0  0  0  0
    0.2030   -3.3226   -1.2967 H   0  0  0  0  0  0  0  0  0  0  0  0
    1.5693   -3.5913   -0.2575 H   0  0  0  0  0  0  0  0  0  0  0  0
    0.5599   -2.1473    1.4963 H   0  0  0  0  0  0  0  0  0  0  0  0
   -0.5825   -3.3922    1.0131 H   0  0  0  0  0  0  0  0  0  0  0  0
   -0.5769   -0.4607    0.0962 H   0  0  0  0  0  0  0  0  0  0  0  0
   -2.5611   -2.7093   -0.5129 H   0  0  0  0  0  0  0  0  0  0  0  0
   -1.5469   -1.8682   -1.6869 H   0  0  0  0  0  0  0  0  0  0  0  0
   -3.8484   -1.0343   -1.7117 H   0  0  0  0  0  0  0  0  0  0  0  0
   -2.7099    0.2534   -1.2874 H   0  0  0  0  0  0  0  0  0  0  0  0
   -6.0729   -0.9929   -1.0266 H   0  0  0  0  0  0  0  0  0  0  0  0
   -8.0193    0.5067   -1.3306 H   0  0  0  0  0  0  0  0  0  0  0  0
   -8.1159    3.9480    0.2718 H   0  0  0  0  0  0  0  0  0  0  0  0
   -9.2160    2.5643    0.1435 H   0  0  0  0  0  0  0  0  0  0  0  0
   -8.4753    3.2602   -1.3217 H   0  0  0  0  0  0  0  0  0  0  0  0
   -3.5395    0.1314    2.3566 H   0  0  0  0  0  0  0  0  0  0  0  0
   -2.4965    0.9500    1.1698 H   0  0  0  0  0  0  0  0  0  0  0  0
   -1.2237   -0.7163    2.4573 H   0  0  0  0  0  0  0  0  0  0  0  0
   -2.3796   -1.9828    2.0412 H   0  0  0  0  0  0  0  0  0  0  0  0
    2.4905    0.3284   -2.1570 H   0  0  0  0  0  0  0  0  0  0  0  0
    4.5680    1.4396   -1.4530 H   0  0  0  0  0  0  0  0  0  0  0  0
  1  2  1  0
  2  3  1  0
  3  4  1  0
  4  5  2  0
  4  6  1  0
  6  7  2  0
  7  8  1  0
  8  9  2  0
  9 10  1  0
 10 11  1  0
 11 12  1  0
 12 13  1  0
 13 14  1  0
 14 15  1  0
 15 16  1  0
 16 17  1  0
 17 18  2  0
 18 19  1  0
 19 20  2  0
 20 21  1  0
 20 22  1  0
 22 23  2  0
 16 24  1  0
 24 25  1  0
  9 26  1  0
 26 27  2  0
 27  6  1  0
 25 13  1  0
 23 17  1  0
  1 28  1  0
  1 29  1  0
  1 30  1  0
  2 31  1  0
  2 32  1  0
  7 33  1  0
  8 34  1  0
 11 35  1  0
 11 36  1  0
 12 37  1  0
 12 38  1  0
 13 39  1  0
 14 40  1  0
 14 41  1  0
 15 42  1  0
 15 43  1  0
 18 44  1  0
 19 45  1  0
 21 46  1  0
 21 47  1  0
 21 48  1  0
 24 49  1  0
 24 50  1  0
 25 51  1  0
 25 52  1  0
 26 53  1  0
 27 54  1  0
M  END
$$$$
