
     RDKit          3D

 46 49  0  0  0  0  0  0  0  0999 V2000
    7.8752   -0.8470    1.3837 C   0  0  0  0  0  0  0  0  0  0  0  0
    6.5225   -0.6272    0.9395 N   0  0  0  0  0  0  0  0  0  0  0  0
    6.1507    0.1793   -0.0915 C   0  0  0  0  0  0  0  0  0  0  0  0
    4.8499    0.1539   -0.2835 N   0  0  0  0  0  0  0  0  0  0  0  0
    4.3650   -0.7298    0.6667 C   0  0  0  0  0  0  0  0  0  0  0  0
    2.6876   -1.1962    0.7944 S   0  0  0  0  0  6  0  0  0  0  0  0
    2.4854   -1.4732    2.1997 O   0  0  0  0  0  0  0  0  0  0  0  0
    2.5297   -2.2282   -0.2051 O   0  0  0  0  0  0  0  0  0  0  0  0
    1.6825    0.1055    0.3684 N   0  0  0  0  0  0  0  0  0  0  0  0
    1.9318    0.7262   -0.9457 C   0  0  0  0  0  0  0  0  0  0  0  0
    0.5778    1.2963   -1.3531 C   0  0  1  0  0  0  0  0  0  0  0  0
    0.5369    1.5904   -2.8386 C   0  0  0  0  0  0  0  0  0  0  0  0
   -0.6489    2.1861   -3.1291 F   0  0  0  0  0  0  0  0  0  0  0  0
   -0.3749    0.1937   -0.8911 C   0  0  2  0  0  0  0  0  0  0  0  0
   -1.8210    0.5450   -0.7754 C   0  0  0  0  0  0  0  0  0  0  0  0
   -2.7603   -0.1953   -0.2235 N   0  0  0  0  0  0  0  0  0  0  0  0
   -3.9187    0.5321   -0.3928 C   0  0  0  0  0  0  0  0  0  0  0  0
   -5.2320    0.0319    0.0063 C   0  0  0  0  0  0  0  0  0  0  0  0
   -5.4055   -1.3135    0.3346 C   0  0  0  0  0  0  0  0  0  0  0  0
   -6.6719   -1.8100    0.6606 C   0  0  0  0  0  0  0  0  0  0  0  0
   -7.7759   -0.9619    0.6705 C   0  0  0  0  0  0  0  0  0  0  0  0
   -7.6158    0.3814    0.3558 C   0  0  0  0  0  0  0  0  0  0  0  0
   -6.3517    0.8750    0.0209 C   0  0  0  0  0  0  0  0  0  0  0  0
   -3.7157    1.7118   -0.9953 N   0  0  0  0  0  0  0  0  0  0  0  0
   -2.4081    1.6696   -1.2800 N   0  0  0  0  0  0  0  0  0  0  0  0
    0.2194   -0.1762    0.4783 C   0  0  0  0  0  0  0  0  0  0  0  0
    5.3993   -1.2099    1.4426 C   0  0  0  0  0  0  0  0  0  0  0  0
    8.4397   -1.3000    0.5676 H   0  0  0  0  0  0  0  0  0  0  0  0
    8.3120    0.1157    1.6605 H   0  0  0  0  0  0  0  0  0  0  0  0
    7.8683   -1.5173    2.2479 H   0  0  0  0  0  0  0  0  0  0  0  0
    6.8647    0.7530   -0.6709 H   0  0  0  0  0  0  0  0  0  0  0  0
    2.2746   -0.0125   -1.6714 H   0  0  0  0  0  0  0  0  0  0  0  0
    2.6718    1.5221   -0.8622 H   0  0  0  0  0  0  0  0  0  0  0  0
    0.3762    2.2205   -0.7962 H   0  0  0  0  0  0  0  0  0  0  0  0
    1.3332    2.2849   -3.1216 H   0  0  0  0  0  0  0  0  0  0  0  0
    0.6220    0.6890   -3.4477 H   0  0  0  0  0  0  0  0  0  0  0  0
   -0.2846   -0.6720   -1.5618 H   0  0  0  0  0  0  0  0  0  0  0  0
   -4.5516   -1.9924    0.3331 H   0  0  0  0  0  0  0  0  0  0  0  0
   -6.7962   -2.8638    0.8996 H   0  0  0  0  0  0  0  0  0  0  0  0
   -8.7612   -1.3488    0.9217 H   0  0  0  0  0  0  0  0  0  0  0  0
   -8.4742    1.0442    0.3596 H   0  0  0  0  0  0  0  0  0  0  0  0
   -6.2475    1.9288   -0.2442 H   0  0  0  0  0  0  0  0  0  0  0  0
   -1.9913    2.4108   -1.8356 H   0  0  0  0  0  0  0  0  0  0  0  0
   -0.1809    0.4494    1.2859 H   0  0  0  0  0  0  0  0  0  0  0  0
    0.0065   -1.2226    0.7257 H   0  0  0  0  0  0  0  0  0  0  0  0
    5.4049   -1.8989    2.2723 H   0  0  0  0  0  0  0  0  0  0  0  0
  1  2  1  0
  2  3  1  0
  3  4  2  0
  4  5  1  0
  5  6  1  0
  6  7  2  0
  6  8  2  0
  6  9  1  0
  9 10  1  0
 10 11  1  0
 11 12  1  0
 12 13  1  0
 11 14  1  0
 14 15  1  0
 15 16  2  0
 16 17  1  0
 17 18  1  0
 18 19  2  0
 19 20  1  0
 20 21  2  0
 21 22  1  0
 22 23  2  0
 17 24  2  0
 24 25  1  0
 14 26  1  0
  5 27  2  0
 27  2  1  0
 26  9  1  0
 25 15  1  0
 23 18  1  0
  1 28  1  0
  1 29  1  0
  1 30  1  0
  3 31  1  0
 10 32  1  0
 10 33  1  0
 11 34  1  1
 12 35  1  0
 12 36  1  0
 14 37  1  6
 19 38  1  0
 20 39  1  0
 21 40  1  0
 22 41  1  0
 23 42  1  0
 25 43  1  0
 26 44  1  0
 26 45  1  0
 27 46  1  0
M  END
$$$$
