
     RDKit          3D

 18 18  0  0  0  0  0  0  0  0999 V2000
    2.1206    0.3178    1.5218 O   0  0  0  0  0  0  0  0  0  0  0  0
    1.6054   -0.2410    0.5594 C   0  0  0  0  0  0  0  0  0  0  0  0
    2.3161   -1.0535   -0.2990 N   0  0  0  0  0  0  0  0  0  0  0  0
    3.7195   -1.0306   -0.1054 O   0  0  0  0  0  0  0  0  0  0  0  0
    0.1720   -0.0954    0.2286 C   0  0  0  0  0  0  0  0  0  0  0  0
   -0.6223   -1.2472    0.1438 C   0  0  0  0  0  0  0  0  0  0  0  0
   -1.9829   -1.1327   -0.1438 C   0  0  0  0  0  0  0  0  0  0  0  0
   -2.5489    0.1268   -0.3459 C   0  0  0  0  0  0  0  0  0  0  0  0
   -1.7586    1.2760   -0.2637 C   0  0  0  0  0  0  0  0  0  0  0  0
   -0.3976    1.1636    0.0227 C   0  0  0  0  0  0  0  0  0  0  0  0
    0.3802    2.2848    0.0582 O   0  0  0  0  0  0  0  0  0  0  0  0
    1.9979   -1.2212   -1.2476 H   0  0  0  0  0  0  0  0  0  0  0  0
    3.8098   -0.4252    0.6646 H   0  0  0  0  0  0  0  0  0  0  0  0
   -0.1920   -2.2300    0.3231 H   0  0  0  0  0  0  0  0  0  0  0  0
   -2.6042   -2.0236   -0.2020 H   0  0  0  0  0  0  0  0  0  0  0  0
   -3.6102    0.2137   -0.5684 H   0  0  0  0  0  0  0  0  0  0  0  0
   -2.2174    2.2454   -0.4358 H   0  0  0  0  0  0  0  0  0  0  0  0
   -0.1873    3.0723    0.0895 H   0  0  0  0  0  0  0  0  0  0  0  0
  1  2  2  0
  2  3  1  0
  3  4  1  0
  2  5  1  0
  5  6  2  0
  6  7  1  0
  7  8  2  0
  8  9  1  0
  9 10  2  0
 10 11  1  0
 10  5  1  0
  3 12  1  0
  4 13  1  0
  6 14  1  0
  7 15  1  0
  8 16  1  0
  9 17  1  0
 11 18  1  0
M  END
$$$$
