
     RDKit          3D

 44 43  0  0  0  0  0  0  0  0999 V2000
    6.1533   -0.2886   -0.3969 C   0  0  0  0  0  0  0  0  0  0  0  0
    6.0098    0.6758    0.7677 C   0  0  0  0  0  0  0  0  0  0  0  0
    4.6970    1.4644    0.7792 C   0  0  0  0  0  0  0  0  0  0  0  0
    3.4394    0.6053    0.9588 C   0  0  0  0  0  0  0  0  0  0  0  0
    2.7445    0.2844   -0.3684 C   0  0  0  0  0  0  0  0  0  0  0  0
    1.5788   -0.7008   -0.2245 C   0  0  0  0  0  0  0  0  0  0  0  0
    0.4077   -0.1442    0.5890 C   0  0  0  0  0  0  0  0  0  0  0  0
   -0.7619   -1.1260    0.7205 C   0  0  0  0  0  0  0  0  0  0  0  0
   -1.4346   -1.5431   -0.5913 C   0  0  0  0  0  0  0  0  0  0  0  0
   -1.9654   -0.3965   -1.4573 C   0  0  0  0  0  0  0  0  0  0  0  0
   -2.9681    0.5352   -0.7754 C   0  0  0  0  0  0  0  0  0  0  0  0
   -4.2357   -0.1674   -0.3057 C   0  0  0  0  0  0  0  0  0  0  0  0
   -5.1182    0.8075    0.2259 O   0  0  0  0  0  0  0  0  0  0  0  0
   -6.5259    0.2809    0.7715 P   0  0  0  0  0  5  0  0  0  0  0  0
   -6.4988   -0.7658    1.8282 O   0  0  0  0  0  0  0  0  0  0  0  0
   -7.2637    1.6246    1.2146 O   0  0  0  0  0  0  0  0  0  0  0  0
   -7.3433   -0.1185   -0.5387 O   0  0  0  0  0  0  0  0  0  0  0  0
    7.1590   -0.7213   -0.4036 H   0  0  0  0  0  0  0  0  0  0  0  0
    5.9982    0.2207   -1.3530 H   0  0  0  0  0  0  0  0  0  0  0  0
    5.4418   -1.1157   -0.3187 H   0  0  0  0  0  0  0  0  0  0  0  0
    6.8396    1.3919    0.7297 H   0  0  0  0  0  0  0  0  0  0  0  0
    6.1172    0.1236    1.7089 H   0  0  0  0  0  0  0  0  0  0  0  0
    4.6203    2.0830   -0.1229 H   0  0  0  0  0  0  0  0  0  0  0  0
    4.7515    2.1617    1.6254 H   0  0  0  0  0  0  0  0  0  0  0  0
    2.7395    1.1695    1.5865 H   0  0  0  0  0  0  0  0  0  0  0  0
    3.6775   -0.3162    1.5026 H   0  0  0  0  0  0  0  0  0  0  0  0
    3.4633   -0.1473   -1.0721 H   0  0  0  0  0  0  0  0  0  0  0  0
    2.3825    1.2135   -0.8258 H   0  0  0  0  0  0  0  0  0  0  0  0
    1.2363   -0.9548   -1.2339 H   0  0  0  0  0  0  0  0  0  0  0  0
    1.9387   -1.6307    0.2320 H   0  0  0  0  0  0  0  0  0  0  0  0
    0.7483    0.0950    1.6029 H   0  0  0  0  0  0  0  0  0  0  0  0
    0.0627    0.7978    0.1484 H   0  0  0  0  0  0  0  0  0  0  0  0
   -1.5126   -0.6846    1.3868 H   0  0  0  0  0  0  0  0  0  0  0  0
   -0.4070   -2.0320    1.2281 H   0  0  0  0  0  0  0  0  0  0  0  0
   -2.2572   -2.2289   -0.3547 H   0  0  0  0  0  0  0  0  0  0  0  0
   -0.7298   -2.1323   -1.1900 H   0  0  0  0  0  0  0  0  0  0  0  0
   -2.4359   -0.8293   -2.3493 H   0  0  0  0  0  0  0  0  0  0  0  0
   -1.1236    0.2027   -1.8239 H   0  0  0  0  0  0  0  0  0  0  0  0
   -3.2460    1.3294   -1.4804 H   0  0  0  0  0  0  0  0  0  0  0  0
   -2.5022    1.0558    0.0695 H   0  0  0  0  0  0  0  0  0  0  0  0
   -4.7228   -0.6785   -1.1426 H   0  0  0  0  0  0  0  0  0  0  0  0
   -4.0113   -0.9003    0.4751 H   0  0  0  0  0  0  0  0  0  0  0  0
   -6.9144    1.9485    2.0640 H   0  0  0  0  0  0  0  0  0  0  0  0
   -8.2288   -0.4486   -0.3064 H   0  0  0  0  0  0  0  0  0  0  0  0
  1  2  1  0
  2  3  1  0
  3  4  1  0
  4  5  1  0
  5  6  1  0
  6  7  1  0
  7  8  1  0
  8  9  1  0
  9 10  1  0
 10 11  1  0
 11 12  1  0
 12 13  1  0
 13 14  1  0
 14 15  2  0
 14 16  1  0
 14 17  1  0
  1 18  1  0
  1 19  1  0
  1 20  1  0
  2 21  1  0
  2 22  1  0
  3 23  1  0
  3 24  1  0
  4 25  1  0
  4 26  1  0
  5 27  1  0
  5 28  1  0
  6 29  1  0
  6 30  1  0
  7 31  1  0
  7 32  1  0
  8 33  1  0
  8 34  1  0
  9 35  1  0
  9 36  1  0
 10 37  1  0
 10 38  1  0
 11 39  1  0
 11 40  1  0
 12 41  1  0
 12 42  1  0
 16 43  1  0
 17 44  1  0
M  END
$$$$
