
     RDKit          3D

 82 87  0  0  0  0  0  0  0  0999 V2000
   -2.2629   -1.6385   -3.7125 O   0  0  0  0  0  0  0  0  0  0  0  0
   -2.0357   -1.1855   -2.5929 C   0  0  0  0  0  0  0  0  0  0  0  0
   -0.7114   -1.4516   -2.0046 C   0  0  0  0  0  0  0  0  0  0  0  0
    0.4041   -0.7850   -2.5062 C   0  0  0  0  0  0  0  0  0  0  0  0
    1.6405   -0.9807   -1.8944 C   0  0  0  0  0  0  0  0  0  0  0  0
    1.7566   -1.8595   -0.8031 C   0  0  0  0  0  0  0  0  0  0  0  0
    3.0711   -2.0044   -0.1280 C   0  0  0  0  0  0  0  0  0  0  0  0
    3.4933   -3.1453    0.0612 O   0  0  0  0  0  0  0  0  0  0  0  0
    3.7563   -0.8627    0.2833 N   0  0  0  0  0  0  0  0  0  0  0  0
    5.1065   -1.0293    0.8126 C   0  0  0  0  0  0  0  0  0  0  0  0
    5.8963    0.2683    0.6977 C   0  0  0  0  0  0  0  0  0  0  0  0
    5.2535    1.4142    1.5210 C   0  0  0  0  0  0  0  0  0  0  0  0
    5.6021    2.7327    0.9432 N   0  0  0  0  0  0  0  0  0  0  0  0
    5.1230    3.8733    1.7413 C   0  0  0  0  0  0  0  0  0  0  0  0
    6.0595    5.0315    1.4129 C   0  0  0  0  0  0  0  0  0  0  0  0
    7.1387    4.4331    0.5278 C   0  0  0  0  0  0  0  0  0  0  0  0
    7.0515    2.9471    0.8125 C   0  0  0  0  0  0  0  0  0  0  0  0
    3.7277    1.1990    1.6511 C   0  0  0  0  0  0  0  0  0  0  0  0
    3.1387    0.4576    0.4541 C   0  0  0  0  0  0  0  0  0  0  0  0
    0.6569   -2.6395   -0.3794 C   0  0  0  0  0  0  0  0  0  0  0  0
    0.7682   -3.5595    0.7031 N   0  0  0  0  0  0  0  0  0  0  0  0
    0.0640   -4.7895    0.8353 C   0  0  0  0  0  0  0  0  0  0  0  0
   -0.3242   -5.5601   -0.2697 C   0  0  0  0  0  0  0  0  0  0  0  0
   -0.9264   -6.8088   -0.0985 C   0  0  0  0  0  0  0  0  0  0  0  0
   -1.1184   -7.3178    1.1832 C   0  0  0  0  0  0  0  0  0  0  0  0
   -0.7052   -6.5805    2.2921 C   0  0  0  0  0  0  0  0  0  0  0  0
   -0.1065   -5.3287    2.1173 C   0  0  0  0  0  0  0  0  0  0  0  0
   -0.5922   -2.3791   -0.9629 C   0  0  0  0  0  0  0  0  0  0  0  0
   -2.9447   -0.4530   -1.8366 N   0  0  0  0  0  0  0  0  0  0  0  0
   -2.6272    0.1766   -0.5506 C   0  0  0  0  0  0  0  0  0  0  0  0
   -3.5578    1.3433   -0.2438 C   0  0  0  0  0  0  0  0  0  0  0  0
   -5.0259    0.8771   -0.1971 C   0  0  0  0  0  0  0  0  0  0  0  0
   -5.9201    2.0442   -0.1529 N   0  0  0  0  0  0  0  0  0  0  0  0
   -7.2880    1.7469    0.2733 C   0  0  0  0  0  0  0  0  0  0  0  0
   -7.9903    3.0774    0.0586 C   0  0  0  0  0  0  0  0  0  0  0  0
   -7.2311    3.7453   -1.0839 C   0  0  0  0  0  0  0  0  0  0  0  0
   -6.0581    2.8163   -1.3874 C   0  0  0  0  0  0  0  0  0  0  0  0
   -5.3294   -0.1951   -1.2679 C   0  0  0  0  0  0  0  0  0  0  0  0
   -4.2842   -0.2419   -2.3736 C   0  0  0  0  0  0  0  0  0  0  0  0
    0.3066   -0.1069   -3.3495 H   0  0  0  0  0  0  0  0  0  0  0  0
    2.5119   -0.4519   -2.2711 H   0  0  0  0  0  0  0  0  0  0  0  0
    5.0212   -1.3501    1.8595 H   0  0  0  0  0  0  0  0  0  0  0  0
    5.6197   -1.8304    0.2638 H   0  0  0  0  0  0  0  0  0  0  0  0
    5.9448    0.5450   -0.3655 H   0  0  0  0  0  0  0  0  0  0  0  0
    6.9285    0.1040    1.0311 H   0  0  0  0  0  0  0  0  0  0  0  0
    5.6668    1.3633    2.5384 H   0  0  0  0  0  0  0  0  0  0  0  0
    4.0914    4.1340    1.4820 H   0  0  0  0  0  0  0  0  0  0  0  0
    5.1672    3.6641    2.8164 H   0  0  0  0  0  0  0  0  0  0  0  0
    5.5444    5.8548    0.9033 H   0  0  0  0  0  0  0  0  0  0  0  0
    6.4973    5.4294    2.3367 H   0  0  0  0  0  0  0  0  0  0  0  0
    8.1294    4.8426    0.7456 H   0  0  0  0  0  0  0  0  0  0  0  0
    6.9148    4.6348   -0.5271 H   0  0  0  0  0  0  0  0  0  0  0  0
    7.4901    2.3721   -0.0094 H   0  0  0  0  0  0  0  0  0  0  0  0
    7.5823    2.7047    1.7416 H   0  0  0  0  0  0  0  0  0  0  0  0
    3.1850    2.1375    1.8023 H   0  0  0  0  0  0  0  0  0  0  0  0
    3.5429    0.6054    2.5576 H   0  0  0  0  0  0  0  0  0  0  0  0
    2.0584    0.3483    0.6006 H   0  0  0  0  0  0  0  0  0  0  0  0
    3.3056    1.0264   -0.4689 H   0  0  0  0  0  0  0  0  0  0  0  0
    1.7669   -3.7841    0.8303 H   0  0  0  0  0  0  0  0  0  0  0  0
   -0.1436   -5.2030   -1.2817 H   0  0  0  0  0  0  0  0  0  0  0  0
   -1.2241   -7.3877   -0.9685 H   0  0  0  0  0  0  0  0  0  0  0  0
   -1.5779   -8.2930    1.3191 H   0  0  0  0  0  0  0  0  0  0  0  0
   -0.8468   -6.9834    3.2950 H   0  0  0  0  0  0  0  0  0  0  0  0
    0.2168   -4.7681    2.9894 H   0  0  0  0  0  0  0  0  0  0  0  0
   -1.4823   -2.8891   -0.6050 H   0  0  0  0  0  0  0  0  0  0  0  0
   -2.7106   -0.5953    0.2259 H   0  0  0  0  0  0  0  0  0  0  0  0
   -1.5915    0.5330   -0.5606 H   0  0  0  0  0  0  0  0  0  0  0  0
   -3.4061    2.1141   -1.0125 H   0  0  0  0  0  0  0  0  0  0  0  0
   -3.2811    1.7974    0.7167 H   0  0  0  0  0  0  0  0  0  0  0  0
   -5.1427    0.3740    0.7763 H   0  0  0  0  0  0  0  0  0  0  0  0
   -7.3366    1.4351    1.3211 H   0  0  0  0  0  0  0  0  0  0  0  0
   -7.7598    0.9771   -0.3459 H   0  0  0  0  0  0  0  0  0  0  0  0
   -9.0503    2.9462   -0.1792 H   0  0  0  0  0  0  0  0  0  0  0  0
   -7.9198    3.6963    0.9633 H   0  0  0  0  0  0  0  0  0  0  0  0
   -7.8666    3.8844   -1.9656 H   0  0  0  0  0  0  0  0  0  0  0  0
   -6.8742    4.7321   -0.7680 H   0  0  0  0  0  0  0  0  0  0  0  0
   -6.3024    2.1839   -2.2494 H   0  0  0  0  0  0  0  0  0  0  0  0
   -5.1597    3.3970   -1.6255 H   0  0  0  0  0  0  0  0  0  0  0  0
   -5.3557   -1.1757   -0.7722 H   0  0  0  0  0  0  0  0  0  0  0  0
   -6.3225   -0.0682   -1.7080 H   0  0  0  0  0  0  0  0  0  0  0  0
   -4.2710    0.7009   -2.9346 H   0  0  0  0  0  0  0  0  0  0  0  0
   -4.5355   -1.0385   -3.0834 H   0  0  0  0  0  0  0  0  0  0  0  0
  1  2  2  0
  2  3  1  0
  3  4  2  0
  4  5  1  0
  5  6  2  0
  6  7  1  0
  7  8  2  0
  7  9  1  0
  9 10  1  0
 10 11  1  0
 11 12  1  0
 12 13  1  0
 13 14  1  0
 14 15  1  0
 15 16  1  0
 16 17  1  0
 12 18  1  0
 18 19  1  0
  6 20  1  0
 20 21  1  0
 21 22  1  0
 22 23  2  0
 23 24  1  0
 24 25  2  0
 25 26  1  0
 26 27  2  0
 20 28  2  0
  2 29  1  0
 29 30  1  0
 30 31  1  0
 31 32  1  0
 32 33  1  0
 33 34  1  0
 34 35  1  0
 35 36  1  0
 36 37  1  0
 32 38  1  0
 38 39  1  0
 28  3  1  0
 39 29  1  0
 19  9  1  0
 27 22  1  0
 37 33  1  0
 17 13  1  0
  4 40  1  0
  5 41  1  0
 10 42  1  0
 10 43  1  0
 11 44  1  0
 11 45  1  0
 12 46  1  0
 14 47  1  0
 14 48  1  0
 15 49  1  0
 15 50  1  0
 16 51  1  0
 16 52  1  0
 17 53  1  0
 17 54  1  0
 18 55  1  0
 18 56  1  0
 19 57  1  0
 19 58  1  0
 21 59  1  0
 23 60  1  0
 24 61  1  0
 25 62  1  0
 26 63  1  0
 27 64  1  0
 28 65  1  0
 30 66  1  0
 30 67  1  0
 31 68  1  0
 31 69  1  0
 32 70  1  0
 34 71  1  0
 34 72  1  0
 35 73  1  0
 35 74  1  0
 36 75  1  0
 36 76  1  0
 37 77  1  0
 37 78  1  0
 38 79  1  0
 38 80  1  0
 39 81  1  0
 39 82  1  0
M  END
$$$$
