
     RDKit          3D

 17 18  0  0  0  0  0  0  0  0999 V2000
   -1.6002    2.5558    0.5345 O   0  0  0  0  0  0  0  0  0  0  0  0
   -1.3918    1.3665    0.4097 C   0  0  0  0  0  0  0  0  0  0  0  0
   -2.3988    0.3848    0.3330 N   0  0  0  0  0  0  0  0  0  0  0  0
   -1.8319   -1.1178   -0.1378 S   0  0  0  0  0  6  0  0  0  0  0  0
   -2.0421   -2.0592    0.9336 O   0  0  0  0  0  0  0  0  0  0  0  0
   -2.2348   -1.3430   -1.5041 O   0  0  0  0  0  0  0  0  0  0  0  0
   -0.1692   -0.6089   -0.1178 C   0  0  0  0  0  0  0  0  0  0  0  0
    0.9398   -1.3968   -0.3634 C   0  0  0  0  0  0  0  0  0  0  0  0
    2.1907   -0.7819   -0.2738 C   0  0  0  0  0  0  0  0  0  0  0  0
    2.3008    0.5831    0.0555 C   0  0  0  0  0  0  0  0  0  0  0  0
    1.1607    1.3559    0.3032 C   0  0  0  0  0  0  0  0  0  0  0  0
   -0.0748    0.7346    0.2197 C   0  0  0  0  0  0  0  0  0  0  0  0
   -3.3141    0.6860    0.0139 H   0  0  0  0  0  0  0  0  0  0  0  0
    0.8441   -2.4489   -0.6134 H   0  0  0  0  0  0  0  0  0  0  0  0
    3.0930   -1.3624   -0.4601 H   0  0  0  0  0  0  0  0  0  0  0  0
    3.2867    1.0416    0.1161 H   0  0  0  0  0  0  0  0  0  0  0  0
    1.2420    2.4105    0.5513 H   0  0  0  0  0  0  0  0  0  0  0  0
  1  2  2  0
  2  3  1  0
  3  4  1  0
  4  5  2  0
  4  6  2  0
  4  7  1  0
  7  8  2  0
  8  9  1  0
  9 10  2  0
 10 11  1  0
 11 12  2  0
 12  2  1  0
 12  7  1  0
  3 13  1  0
  8 14  1  0
  9 15  1  0
 10 16  1  0
 11 17  1  0
M  END
$$$$
