
     RDKit          3D

 34 36  0  0  0  0  0  0  0  0999 V2000
    4.4799    2.0162    1.0423 O   0  0  0  0  0  0  0  0  0  0  0  0
    4.3383    1.1322    0.2013 C   0  0  0  0  0  0  0  0  0  0  0  0
    5.3428    0.8010   -0.6836 N   0  0  0  0  0  0  0  0  0  0  0  0
    6.5737    1.4618   -0.4453 O   0  0  0  0  0  0  0  0  0  0  0  0
    3.0928    0.3532    0.1345 C   0  0  0  0  0  0  0  0  0  0  0  0
    2.6932   -0.3896   -0.9509 C   0  0  0  0  0  0  0  0  0  0  0  0
    1.5447   -1.1020   -0.9894 N   0  0  0  0  0  0  0  0  0  0  0  0
    0.7527   -1.0524    0.0961 C   0  0  0  0  0  0  0  0  0  0  0  0
   -0.4219   -1.8050    0.0238 N   0  0  0  0  0  0  0  0  0  0  0  0
   -1.6153   -1.3799    0.7753 C   0  0  0  0  0  0  0  0  0  0  0  0
   -2.3349   -0.1777    0.1702 C   0  0  0  0  0  0  0  0  0  0  0  0
   -2.0721    1.1318    0.6098 C   0  0  0  0  0  0  0  0  0  0  0  0
   -2.7177    2.2358    0.0472 C   0  0  0  0  0  0  0  0  0  0  0  0
   -3.6425    2.0528   -0.9766 C   0  0  0  0  0  0  0  0  0  0  0  0
   -3.9177    0.7689   -1.4381 C   0  0  0  0  0  0  0  0  0  0  0  0
   -3.2678   -0.3311   -0.8716 C   0  0  0  0  0  0  0  0  0  0  0  0
   -2.4815   -2.4803    1.3711 C   0  0  0  0  0  0  0  0  0  0  0  0
   -1.6802   -1.6002    2.2743 C   0  0  0  0  0  0  0  0  0  0  0  0
    1.0533   -0.3426    1.1965 N   0  0  0  0  0  0  0  0  0  0  0  0
    2.2130    0.3517    1.1911 C   0  0  0  0  0  0  0  0  0  0  0  0
    5.4239   -0.1158   -1.1111 H   0  0  0  0  0  0  0  0  0  0  0  0
    6.3554    2.0599    0.3042 H   0  0  0  0  0  0  0  0  0  0  0  0
    3.2735   -0.4410   -1.8666 H   0  0  0  0  0  0  0  0  0  0  0  0
   -0.5504   -2.0267   -0.9569 H   0  0  0  0  0  0  0  0  0  0  0  0
   -1.3437    1.2895    1.4034 H   0  0  0  0  0  0  0  0  0  0  0  0
   -2.4941    3.2358    0.4089 H   0  0  0  0  0  0  0  0  0  0  0  0
   -4.1458    2.9100   -1.4156 H   0  0  0  0  0  0  0  0  0  0  0  0
   -4.6367    0.6210   -2.2393 H   0  0  0  0  0  0  0  0  0  0  0  0
   -3.4918   -1.3276   -1.2459 H   0  0  0  0  0  0  0  0  0  0  0  0
   -2.1562   -3.5070    1.2510 H   0  0  0  0  0  0  0  0  0  0  0  0
   -3.5581   -2.3567    1.3800 H   0  0  0  0  0  0  0  0  0  0  0  0
   -0.8087   -2.0235    2.7602 H   0  0  0  0  0  0  0  0  0  0  0  0
   -2.2116   -0.8788    2.8835 H   0  0  0  0  0  0  0  0  0  0  0  0
    2.4116    0.9166    2.0986 H   0  0  0  0  0  0  0  0  0  0  0  0
  1  2  2  0
  2  3  1  0
  3  4  1  0
  2  5  1  0
  5  6  2  0
  6  7  1  0
  7  8  2  0
  8  9  1  0
  9 10  1  0
 10 11  1  0
 11 12  2  0
 12 13  1  0
 13 14  2  0
 14 15  1  0
 15 16  2  0
 10 17  1  0
 17 18  1  0
  8 19  1  0
 19 20  2  0
 20  5  1  0
 18 10  1  0
 16 11  1  0
  3 21  1  0
  4 22  1  0
  6 23  1  0
  9 24  1  0
 12 25  1  0
 13 26  1  0
 14 27  1  0
 15 28  1  0
 16 29  1  0
 17 30  1  0
 17 31  1  0
 18 32  1  0
 18 33  1  0
 20 34  1  0
M  END
$$$$
