
     RDKit          3D

 59 64  0  0  0  0  0  0  0  0999 V2000
   -3.0200   -4.1412    0.1707 C   0  0  0  0  0  0  0  0  0  0  0  0
   -2.8307   -2.7340    0.1208 O   0  0  0  0  0  0  0  0  0  0  0  0
   -1.5543   -2.2412    0.1951 C   0  0  0  0  0  0  0  0  0  0  0  0
   -0.4291   -3.0687    0.3174 C   0  0  0  0  0  0  0  0  0  0  0  0
    0.8553   -2.5293    0.3910 C   0  0  0  0  0  0  0  0  0  0  0  0
    1.0509   -1.1492    0.3456 C   0  0  0  0  0  0  0  0  0  0  0  0
    2.4023   -0.5719    0.4259 C   0  0  0  0  0  0  0  0  0  0  0  0
    2.7280    0.3655    1.4158 C   0  0  0  0  0  0  0  0  0  0  0  0
    4.0116    0.9137    1.4946 C   0  0  0  0  0  0  0  0  0  0  0  0
    5.0075    0.5395    0.5820 C   0  0  0  0  0  0  0  0  0  0  0  0
    6.3016    1.0828    0.6489 C   0  0  0  0  0  0  0  0  0  0  0  0
    7.2850    0.6994   -0.2717 C   0  0  0  0  0  0  0  0  0  0  0  0
    8.6601    1.2523   -0.2304 C   0  0  0  0  0  0  0  0  0  0  0  0
    9.5660    0.9676   -0.9918 O   0  0  0  0  0  0  0  0  0  0  0  0
    8.8389    2.1386    0.7649 O   0  0  0  0  0  0  0  0  0  0  0  0
    6.9764   -0.2324   -1.2668 C   0  0  0  0  0  0  0  0  0  0  0  0
    5.6932   -0.7787   -1.3420 C   0  0  0  0  0  0  0  0  0  0  0  0
    4.6994   -0.4031   -0.4244 C   0  0  0  0  0  0  0  0  0  0  0  0
    3.4033   -0.9448   -0.4873 C   0  0  0  0  0  0  0  0  0  0  0  0
   -0.0833   -0.3254    0.2216 C   0  0  0  0  0  0  0  0  0  0  0  0
   -1.4027   -0.8328    0.1434 C   0  0  0  0  0  0  0  0  0  0  0  0
   -2.6110    0.1312    0.0061 C   0  0  0  0  0  0  0  0  0  0  0  0
   -3.5827   -0.0220    1.2162 C   0  0  0  0  0  0  0  0  0  0  0  0
   -4.8126    0.8916    1.0688 C   0  0  0  0  0  0  0  0  0  0  0  0
   -5.5470    0.5486   -0.2377 C   0  0  0  0  0  0  0  0  0  0  0  0
   -4.6202    0.7767   -1.4431 C   0  0  0  0  0  0  0  0  0  0  0  0
   -4.1666    2.2417   -1.4670 C   0  0  0  0  0  0  0  0  0  0  0  0
   -3.4223    2.5731   -0.1675 C   0  0  0  0  0  0  0  0  0  0  0  0
   -4.3576    2.3558    1.0284 C   0  0  0  0  0  0  0  0  0  0  0  0
   -2.2026    1.6453   -0.0319 C   0  0  0  0  0  0  0  0  0  0  0  0
   -3.3886   -0.1381   -1.3186 C   0  0  0  0  0  0  0  0  0  0  0  0
   -2.5360   -4.6355   -0.6779 H   0  0  0  0  0  0  0  0  0  0  0  0
   -4.0945   -4.3353    0.0979 H   0  0  0  0  0  0  0  0  0  0  0  0
   -2.6729   -4.5532    1.1239 H   0  0  0  0  0  0  0  0  0  0  0  0
   -0.5155   -4.1492    0.3623 H   0  0  0  0  0  0  0  0  0  0  0  0
    1.7046   -3.2010    0.4972 H   0  0  0  0  0  0  0  0  0  0  0  0
    1.9805    0.6700    2.1462 H   0  0  0  0  0  0  0  0  0  0  0  0
    4.2252    1.6360    2.2798 H   0  0  0  0  0  0  0  0  0  0  0  0
    6.5407    1.8085    1.4234 H   0  0  0  0  0  0  0  0  0  0  0  0
    9.7750    2.4129    0.6681 H   0  0  0  0  0  0  0  0  0  0  0  0
    7.7324   -0.5372   -1.9881 H   0  0  0  0  0  0  0  0  0  0  0  0
    5.4751   -1.5018   -2.1254 H   0  0  0  0  0  0  0  0  0  0  0  0
    3.1623   -1.6631   -1.2698 H   0  0  0  0  0  0  0  0  0  0  0  0
    0.0990    0.7452    0.1749 H   0  0  0  0  0  0  0  0  0  0  0  0
   -3.9415   -1.0499    1.3260 H   0  0  0  0  0  0  0  0  0  0  0  0
   -3.0553    0.2139    2.1505 H   0  0  0  0  0  0  0  0  0  0  0  0
   -5.4857    0.7402    1.9203 H   0  0  0  0  0  0  0  0  0  0  0  0
   -6.4449    1.1712   -0.3349 H   0  0  0  0  0  0  0  0  0  0  0  0
   -5.8846   -0.4949   -0.2158 H   0  0  0  0  0  0  0  0  0  0  0  0
   -5.1572    0.5441   -2.3697 H   0  0  0  0  0  0  0  0  0  0  0  0
   -5.0344    2.9026   -1.5827 H   0  0  0  0  0  0  0  0  0  0  0  0
   -3.5140    2.4194   -2.3306 H   0  0  0  0  0  0  0  0  0  0  0  0
   -3.0903    3.6172   -0.1898 H   0  0  0  0  0  0  0  0  0  0  0  0
   -3.8425    2.6155    1.9614 H   0  0  0  0  0  0  0  0  0  0  0  0
   -5.2283    3.0184    0.9506 H   0  0  0  0  0  0  0  0  0  0  0  0
   -1.5270    1.8369   -0.8763 H   0  0  0  0  0  0  0  0  0  0  0  0
   -1.6609    1.9172    0.8840 H   0  0  0  0  0  0  0  0  0  0  0  0
   -3.7338   -1.1742   -1.3877 H   0  0  0  0  0  0  0  0  0  0  0  0
   -2.7238    0.0157   -2.1794 H   0  0  0  0  0  0  0  0  0  0  0  0
  1  2  1  0
  2  3  1  0
  3  4  2  0
  4  5  1  0
  5  6  2  0
  6  7  1  0
  7  8  2  0
  8  9  1  0
  9 10  2  0
 10 11  1  0
 11 12  2  0
 12 13  1  0
 13 14  2  0
 13 15  1  0
 12 16  1  0
 16 17  2  0
 17 18  1  0
 18 19  2  0
  6 20  1  0
 20 21  2  0
 21 22  1  0
 22 23  1  0
 23 24  1  0
 24 25  1  0
 25 26  1  0
 26 27  1  0
 27 28  1  0
 28 29  1  0
 28 30  1  0
 26 31  1  0
 21  3  1  0
 30 22  1  0
 19  7  1  0
 31 22  1  0
 18 10  1  0
 29 24  1  0
  1 32  1  0
  1 33  1  0
  1 34  1  0
  4 35  1  0
  5 36  1  0
  8 37  1  0
  9 38  1  0
 11 39  1  0
 15 40  1  0
 16 41  1  0
 17 42  1  0
 19 43  1  0
 20 44  1  0
 23 45  1  0
 23 46  1  0
 24 47  1  0
 25 48  1  0
 25 49  1  0
 26 50  1  0
 27 51  1  0
 27 52  1  0
 28 53  1  0
 29 54  1  0
 29 55  1  0
 30 56  1  0
 30 57  1  0
 31 58  1  0
 31 59  1  0
M  END
$$$$
