
     RDKit          3D

 65 68  0  0  0  0  0  0  0  0999 V2000
    7.3434    0.8713    2.4570 C   0  0  0  0  0  0  0  0  0  0  0  0
    7.3564    1.5228    1.1855 O   0  0  0  0  0  0  0  0  0  0  0  0
    7.2057    0.6042    0.1782 C   0  0  0  0  0  0  0  0  0  0  0  0
    5.9074    0.2665   -0.2172 C   0  0  0  0  0  0  0  0  0  0  0  0
    5.6951   -0.6370   -1.2685 C   0  0  0  0  0  0  0  0  0  0  0  0
    4.3793   -1.0374   -1.6316 N   0  0  0  0  0  0  0  0  0  0  0  0
    3.2112   -0.2240   -1.5486 C   0  0  0  0  0  0  0  0  0  0  0  0
    3.1102    1.0053   -2.2181 C   0  0  0  0  0  0  0  0  0  0  0  0
    4.1655    1.5590   -3.0082 C   0  0  0  0  0  0  0  0  0  0  0  0
    5.0149    2.0127   -3.6563 N   0  0  0  0  0  0  0  0  0  0  0  0
    1.9191    1.7015   -2.1211 C   0  0  0  0  0  0  0  0  0  0  0  0
    0.8397    1.2633   -1.4380 N   0  0  0  0  0  0  0  0  0  0  0  0
    0.9125    0.0681   -0.8314 C   0  0  0  0  0  0  0  0  0  0  0  0
   -0.2034   -0.3884   -0.1476 C   0  0  0  0  0  0  0  0  0  0  0  0
   -0.2204   -1.6333    0.4882 C   0  0  0  0  0  0  0  0  0  0  0  0
   -1.3061   -2.0890    1.1936 O   0  0  0  0  0  0  0  0  0  0  0  0
   -2.5772   -1.8969    0.5663 C   0  0  0  0  0  0  0  0  0  0  0  0
   -3.3790   -0.8389    1.3220 C   0  0  0  0  0  0  0  0  0  0  0  0
   -4.7039   -0.5543    0.6082 C   0  0  0  0  0  0  0  0  0  0  0  0
   -5.4699    0.5169    1.2568 N   0  0  0  0  0  0  0  0  0  0  0  0
   -4.9029    1.8635    1.0190 C   0  0  0  0  0  0  0  0  0  0  0  0
   -5.6724    2.7030   -0.0251 C   0  0  0  0  0  0  0  0  0  0  0  0
   -7.0706    2.9492    0.3687 N   0  0  0  0  0  0  0  0  0  0  0  0
   -7.8705    3.3754   -0.7703 C   0  0  0  0  0  0  0  0  0  0  0  0
   -7.6510    1.7891    1.0696 C   0  0  0  0  0  0  0  0  0  0  0  0
   -6.8909    0.4601    0.8522 C   0  0  0  0  0  0  0  0  0  0  0  0
    0.9207   -2.4397    0.4625 C   0  0  0  0  0  0  0  0  0  0  0  0
    0.8519   -3.6385    1.1242 O   0  0  0  0  0  0  0  0  0  0  0  0
    1.6737   -4.6793    0.6089 C   0  0  0  0  0  0  0  0  0  0  0  0
    2.0609   -1.9815   -0.2000 C   0  0  0  0  0  0  0  0  0  0  0  0
    2.0734   -0.7315   -0.8634 C   0  0  0  0  0  0  0  0  0  0  0  0
    6.8212   -1.2182   -1.8839 C   0  0  0  0  0  0  0  0  0  0  0  0
    6.6200   -2.3801   -3.1497 Cl  0  0  0  0  0  0  0  0  0  0  0  0
    8.1193   -0.8597   -1.5117 C   0  0  0  0  0  0  0  0  0  0  0  0
    8.3105    0.0648   -0.4863 C   0  0  0  0  0  0  0  0  0  0  0  0
    9.9232    0.5002   -0.0573 Cl  0  0  0  0  0  0  0  0  0  0  0  0
    8.1530    0.1366    2.5388 H   0  0  0  0  0  0  0  0  0  0  0  0
    6.3767    0.3924    2.6448 H   0  0  0  0  0  0  0  0  0  0  0  0
    7.4954    1.6323    3.2264 H   0  0  0  0  0  0  0  0  0  0  0  0
    5.0681    0.7133    0.3072 H   0  0  0  0  0  0  0  0  0  0  0  0
    4.4013   -1.5502   -2.5177 H   0  0  0  0  0  0  0  0  0  0  0  0
    1.7812    2.6656   -2.6080 H   0  0  0  0  0  0  0  0  0  0  0  0
   -1.0707    0.2638   -0.1090 H   0  0  0  0  0  0  0  0  0  0  0  0
   -3.1044   -2.8573    0.6198 H   0  0  0  0  0  0  0  0  0  0  0  0
   -2.4874   -1.6536   -0.5010 H   0  0  0  0  0  0  0  0  0  0  0  0
   -3.5656   -1.1882    2.3456 H   0  0  0  0  0  0  0  0  0  0  0  0
   -2.7758    0.0674    1.4286 H   0  0  0  0  0  0  0  0  0  0  0  0
   -5.2887   -1.4842    0.6300 H   0  0  0  0  0  0  0  0  0  0  0  0
   -4.5304   -0.3145   -0.4489 H   0  0  0  0  0  0  0  0  0  0  0  0
   -4.9199    2.3984    1.9780 H   0  0  0  0  0  0  0  0  0  0  0  0
   -3.8479    1.8206    0.7226 H   0  0  0  0  0  0  0  0  0  0  0  0
   -5.1643    3.6658   -0.1497 H   0  0  0  0  0  0  0  0  0  0  0  0
   -5.6202    2.1835   -0.9910 H   0  0  0  0  0  0  0  0  0  0  0  0
   -7.9477    2.5980   -1.5376 H   0  0  0  0  0  0  0  0  0  0  0  0
   -7.4369    4.2703   -1.2282 H   0  0  0  0  0  0  0  0  0  0  0  0
   -8.8838    3.6460   -0.4518 H   0  0  0  0  0  0  0  0  0  0  0  0
   -7.6432    2.0180    2.1431 H   0  0  0  0  0  0  0  0  0  0  0  0
   -8.7056    1.6466    0.8046 H   0  0  0  0  0  0  0  0  0  0  0  0
   -7.3855   -0.3260    1.4369 H   0  0  0  0  0  0  0  0  0  0  0  0
   -6.9862    0.1818   -0.2077 H   0  0  0  0  0  0  0  0  0  0  0  0
    1.5995   -4.7490   -0.4824 H   0  0  0  0  0  0  0  0  0  0  0  0
    2.7134   -4.5454    0.9247 H   0  0  0  0  0  0  0  0  0  0  0  0
    1.3167   -5.6252    1.0277 H   0  0  0  0  0  0  0  0  0  0  0  0
    2.9681   -2.5778   -0.1921 H   0  0  0  0  0  0  0  0  0  0  0  0
    8.9739   -1.2980   -2.0188 H   0  0  0  0  0  0  0  0  0  0  0  0
  1  2  1  0
  2  3  1  0
  3  4  2  0
  4  5  1  0
  5  6  1  0
  6  7  1  0
  7  8  2  0
  8  9  1  0
  9 10  3  0
  8 11  1  0
 11 12  2  0
 12 13  1  0
 13 14  2  0
 14 15  1  0
 15 16  1  0
 16 17  1  0
 17 18  1  0
 18 19  1  0
 19 20  1  0
 20 21  1  0
 21 22  1  0
 22 23  1  0
 23 24  1  0
 23 25  1  0
 25 26  1  0
 15 27  2  0
 27 28  1  0
 28 29  1  0
 27 30  1  0
 30 31  2  0
  5 32  2  0
 32 33  1  0
 32 34  1  0
 34 35  2  0
 35 36  1  0
 35  3  1  0
 31  7  1  0
 31 13  1  0
 26 20  1  0
  1 37  1  0
  1 38  1  0
  1 39  1  0
  4 40  1  0
  6 41  1  0
 11 42  1  0
 14 43  1  0
 17 44  1  0
 17 45  1  0
 18 46  1  0
 18 47  1  0
 19 48  1  0
 19 49  1  0
 21 50  1  0
 21 51  1  0
 22 52  1  0
 22 53  1  0
 24 54  1  0
 24 55  1  0
 24 56  1  0
 25 57  1  0
 25 58  1  0
 26 59  1  0
 26 60  1  0
 29 61  1  0
 29 62  1  0
 29 63  1  0
 30 64  1  0
 34 65  1  0
M  END
$$$$
