
     RDKit          3D

 38 39  0  0  0  0  0  0  0  0999 V2000
    6.6649    0.7550   -0.3076 C   0  0  0  0  0  0  0  0  0  0  0  0
    6.0172   -0.5089   -0.2308 O   0  0  0  0  0  0  0  0  0  0  0  0
    4.6812   -0.5040    0.0615 C   0  0  0  0  0  0  0  0  0  0  0  0
    4.1053   -1.7753    0.1691 C   0  0  0  0  0  0  0  0  0  0  0  0
    2.7484   -1.9231    0.4627 C   0  0  0  0  0  0  0  0  0  0  0  0
    1.9637   -0.7834    0.6401 C   0  0  0  0  0  0  0  0  0  0  0  0
    0.2324   -0.9334    1.0168 S   0  0  0  0  0  6  0  0  0  0  0  0
   -0.0333   -0.0312    2.1184 O   0  0  0  0  0  0  0  0  0  0  0  0
   -0.0863   -2.3448    1.1121 O   0  0  0  0  0  0  0  0  0  0  0  0
   -0.5029   -0.3181   -0.4088 N   0  0  0  0  0  0  0  0  0  0  0  0
   -0.2753   -1.1273   -1.6309 C   0  0  0  0  0  0  0  0  0  0  0  0
   -1.8701    0.1014   -0.2361 C   0  0  0  0  0  0  0  0  0  0  0  0
   -2.2159    1.3786   -0.6816 C   0  0  0  0  0  0  0  0  0  0  0  0
   -3.5412    1.8140   -0.6047 C   0  0  0  0  0  0  0  0  0  0  0  0
   -4.5318    0.9682   -0.0910 C   0  0  0  0  0  0  0  0  0  0  0  0
   -5.9282    1.4742   -0.0255 C   0  0  0  0  0  0  0  0  0  0  0  0
   -6.7659    0.8917    0.8850 N   0  0  0  0  0  0  0  0  0  0  0  0
   -6.3106    2.3983   -0.7314 O   0  0  0  0  0  0  0  0  0  0  0  0
   -4.1921   -0.3288    0.3137 C   0  0  0  0  0  0  0  0  0  0  0  0
   -2.8649   -0.7632    0.2313 C   0  0  0  0  0  0  0  0  0  0  0  0
    2.5267    0.4925    0.5450 C   0  0  0  0  0  0  0  0  0  0  0  0
    3.8871    0.6296    0.2523 C   0  0  0  0  0  0  0  0  0  0  0  0
    7.7216    0.5761   -0.5285 H   0  0  0  0  0  0  0  0  0  0  0  0
    6.6097    1.2862    0.6483 H   0  0  0  0  0  0  0  0  0  0  0  0
    6.2524    1.3602   -1.1216 H   0  0  0  0  0  0  0  0  0  0  0  0
    4.7251   -2.6583    0.0279 H   0  0  0  0  0  0  0  0  0  0  0  0
    2.3223   -2.9195    0.5516 H   0  0  0  0  0  0  0  0  0  0  0  0
   -0.7272   -2.1201   -1.5420 H   0  0  0  0  0  0  0  0  0  0  0  0
    0.7934   -1.2312   -1.8347 H   0  0  0  0  0  0  0  0  0  0  0  0
   -0.7132   -0.6261   -2.5013 H   0  0  0  0  0  0  0  0  0  0  0  0
   -1.4546    2.0431   -1.0813 H   0  0  0  0  0  0  0  0  0  0  0  0
   -3.7996    2.8155   -0.9441 H   0  0  0  0  0  0  0  0  0  0  0  0
   -6.4126    0.3593    1.6675 H   0  0  0  0  0  0  0  0  0  0  0  0
   -7.6629    1.3456    1.0055 H   0  0  0  0  0  0  0  0  0  0  0  0
   -4.9485   -1.0234    0.6673 H   0  0  0  0  0  0  0  0  0  0  0  0
   -2.6233   -1.7800    0.5315 H   0  0  0  0  0  0  0  0  0  0  0  0
    1.9136    1.3780    0.7010 H   0  0  0  0  0  0  0  0  0  0  0  0
    4.2956    1.6327    0.1838 H   0  0  0  0  0  0  0  0  0  0  0  0
  1  2  1  0
  2  3  1  0
  3  4  2  0
  4  5  1  0
  5  6  2  0
  6  7  1  0
  7  8  2  0
  7  9  2  0
  7 10  1  0
 10 11  1  0
 10 12  1  0
 12 13  2  0
 13 14  1  0
 14 15  2  0
 15 16  1  0
 16 17  1  0
 16 18  2  0
 15 19  1  0
 19 20  2  0
  6 21  1  0
 21 22  2  0
 22  3  1  0
 20 12  1  0
  1 23  1  0
  1 24  1  0
  1 25  1  0
  4 26  1  0
  5 27  1  0
 11 28  1  0
 11 29  1  0
 11 30  1  0
 13 31  1  0
 14 32  1  0
 17 33  1  0
 17 34  1  0
 19 35  1  0
 20 36  1  0
 21 37  1  0
 22 38  1  0
M  END
$$$$
