
     RDKit          3D

 48 51  0  0  0  0  0  0  0  0999 V2000
    3.0089   -3.6458   -1.6235 C   0  0  0  0  0  0  0  0  0  0  0  0
    2.9132   -3.7179   -0.1098 C   0  0  0  0  0  0  0  0  0  0  0  0
    3.4226   -2.5419    0.5108 O   0  0  0  0  0  0  0  0  0  0  0  0
    2.5439   -1.4268    0.4419 C   0  0  0  0  0  0  0  0  0  0  0  0
    3.0427   -0.2076    1.2450 C   0  0  0  0  0  0  0  0  0  0  0  0
    4.1173   -0.2240    1.8481 O   0  0  0  0  0  0  0  0  0  0  0  0
    2.2213    0.9260    1.2415 N   0  0  0  0  0  0  0  0  0  0  0  0
    2.6152    2.0561    2.1135 C   0  0  0  0  0  0  0  0  0  0  0  0
    2.3131    3.4375    1.4926 C   0  0  0  0  0  0  0  0  0  0  0  0
    0.9589    3.3952    0.8906 C   0  0  0  0  0  0  0  0  0  0  0  0
    0.2857    2.2372    0.5698 C   0  0  0  0  0  0  0  0  0  0  0  0
   -0.9450    2.6781    0.0347 C   0  0  0  0  0  0  0  0  0  0  0  0
   -2.0971    1.7423   -0.4793 C   0  0  0  0  0  0  0  0  0  0  0  0
   -2.0321    0.4244   -0.4601 N   0  0  0  0  0  0  0  0  0  0  0  0
   -3.2444    0.0494   -0.9981 C   0  0  0  0  0  0  0  0  0  0  0  0
   -3.6154   -1.3523   -1.1730 C   0  0  0  0  0  0  0  0  0  0  0  0
   -2.7429   -2.3722   -0.7557 C   0  0  0  0  0  0  0  0  0  0  0  0
   -3.0895   -3.7161   -0.9196 C   0  0  0  0  0  0  0  0  0  0  0  0
   -4.3082   -4.0436   -1.5010 C   0  0  0  0  0  0  0  0  0  0  0  0
   -4.6390   -5.3316   -1.6579 F   0  0  0  0  0  0  0  0  0  0  0  0
   -5.1877   -3.0538   -1.9212 C   0  0  0  0  0  0  0  0  0  0  0  0
   -4.8427   -1.7092   -1.7576 C   0  0  0  0  0  0  0  0  0  0  0  0
   -4.0318    1.0805   -1.3389 N   0  0  0  0  0  0  0  0  0  0  0  0
   -3.2774    2.2005   -0.9961 O   0  0  0  0  0  0  0  0  0  0  0  0
   -1.0247    4.0182    0.0162 N   0  0  0  0  0  0  0  0  0  0  0  0
    0.1544    4.4310    0.5283 N   0  0  0  0  0  0  0  0  0  0  0  0
    0.4169    5.8458    0.6403 C   0  0  0  0  0  0  0  0  0  0  0  0
    0.8145    0.8688    0.7904 C   0  0  0  0  0  0  0  0  0  0  0  0
    2.3397   -2.8807   -2.0282 H   0  0  0  0  0  0  0  0  0  0  0  0
    4.0252   -3.3835   -1.9344 H   0  0  0  0  0  0  0  0  0  0  0  0
    2.7373   -4.6057   -2.0723 H   0  0  0  0  0  0  0  0  0  0  0  0
    3.5268   -4.5535    0.2429 H   0  0  0  0  0  0  0  0  0  0  0  0
    1.8844   -3.9104    0.2146 H   0  0  0  0  0  0  0  0  0  0  0  0
    2.4455   -1.1141   -0.6022 H   0  0  0  0  0  0  0  0  0  0  0  0
    1.5688   -1.7212    0.8448 H   0  0  0  0  0  0  0  0  0  0  0  0
    3.6803    2.0080    2.3631 H   0  0  0  0  0  0  0  0  0  0  0  0
    2.0589    1.9324    3.0519 H   0  0  0  0  0  0  0  0  0  0  0  0
    3.0459    3.6538    0.7065 H   0  0  0  0  0  0  0  0  0  0  0  0
    2.3935    4.2146    2.2594 H   0  0  0  0  0  0  0  0  0  0  0  0
   -1.7872   -2.1266   -0.2976 H   0  0  0  0  0  0  0  0  0  0  0  0
   -2.4192   -4.5066   -0.5973 H   0  0  0  0  0  0  0  0  0  0  0  0
   -6.1350   -3.3317   -2.3727 H   0  0  0  0  0  0  0  0  0  0  0  0
   -5.5413   -0.9435   -2.0913 H   0  0  0  0  0  0  0  0  0  0  0  0
    1.4927    6.0133    0.7275 H   0  0  0  0  0  0  0  0  0  0  0  0
    0.0425    6.3451   -0.2571 H   0  0  0  0  0  0  0  0  0  0  0  0
   -0.0993    6.2172    1.5287 H   0  0  0  0  0  0  0  0  0  0  0  0
    0.2406    0.3550    1.5696 H   0  0  0  0  0  0  0  0  0  0  0  0
    0.7491    0.2898   -0.1345 H   0  0  0  0  0  0  0  0  0  0  0  0
  1  2  1  0
  2  3  1  0
  3  4  1  0
  4  5  1  0
  5  6  2  0
  5  7  1  0
  7  8  1  0
  8  9  1  0
  9 10  1  0
 10 11  2  0
 11 12  1  0
 12 13  1  0
 13 14  2  0
 14 15  1  0
 15 16  1  0
 16 17  2  0
 17 18  1  0
 18 19  2  0
 19 20  1  0
 19 21  1  0
 21 22  2  0
 15 23  2  0
 23 24  1  0
 12 25  2  0
 25 26  1  0
 26 27  1  0
 11 28  1  0
 28  7  1  0
 26 10  1  0
 24 13  1  0
 22 16  1  0
  1 29  1  0
  1 30  1  0
  1 31  1  0
  2 32  1  0
  2 33  1  0
  4 34  1  0
  4 35  1  0
  8 36  1  0
  8 37  1  0
  9 38  1  0
  9 39  1  0
 17 40  1  0
 18 41  1  0
 21 42  1  0
 22 43  1  0
 27 44  1  0
 27 45  1  0
 27 46  1  0
 28 47  1  0
 28 48  1  0
M  END
$$$$
