
     RDKit          3D

 49 52  0  0  0  0  0  0  0  0999 V2000
   -0.5481    4.2456    0.0757 O   0  0  0  0  0  0  0  0  0  0  0  0
   -0.6490    3.0553   -0.2270 C   0  0  0  0  0  0  0  0  0  0  0  0
    0.5389    2.3448   -0.8372 C   0  0  0  0  0  0  0  0  0  0  0  0
    1.4339    1.8235    0.2740 C   0  0  0  0  0  0  0  0  0  0  0  0
    2.6509    2.5606    0.4148 N   0  0  0  0  0  0  0  0  0  0  0  0
    3.7630    1.7483    0.3663 C   0  0  0  0  0  0  0  0  0  0  0  0
    4.8701    2.2017    0.6100 O   0  0  0  0  0  0  0  0  0  0  0  0
    3.3670    0.4652    0.0513 N   0  0  0  0  0  0  0  0  0  0  0  0
    4.2429   -0.6513   -0.1311 C   0  0  0  0  0  0  0  0  0  0  0  0
    3.7527   -1.9588   -0.2920 C   0  0  0  0  0  0  0  0  0  0  0  0
    4.6115   -3.0519   -0.4711 C   0  0  0  0  0  0  0  0  0  0  0  0
    5.9869   -2.8648   -0.4954 C   0  0  0  0  0  0  0  0  0  0  0  0
    6.5012   -1.5847   -0.3409 C   0  0  0  0  0  0  0  0  0  0  0  0
    5.6395   -0.4943   -0.1616 C   0  0  0  0  0  0  0  0  0  0  0  0
    1.9876    0.4342   -0.0382 C   0  0  0  0  0  0  0  0  0  0  0  0
    1.2453   -0.5053   -0.3060 O   0  0  0  0  0  0  0  0  0  0  0  0
   -1.8026    2.3332    0.0085 N   0  0  0  0  0  0  0  0  0  0  0  0
   -2.9957    3.0291    0.4917 C   0  0  0  0  0  0  0  0  0  0  0  0
   -4.2543    2.3938   -0.0977 C   0  0  0  0  0  0  0  0  0  0  0  0
   -4.4160    1.0155    0.2524 O   0  0  0  0  0  0  0  0  0  0  0  0
   -3.1892    0.2951    0.5015 C   0  0  0  0  0  0  0  0  0  0  0  0
   -3.4470   -1.1847    0.2430 C   0  0  0  0  0  0  0  0  0  0  0  0
   -2.5041   -2.0369   -0.3555 C   0  0  0  0  0  0  0  0  0  0  0  0
   -2.7777   -3.3966   -0.5392 C   0  0  0  0  0  0  0  0  0  0  0  0
   -3.9922   -3.9320   -0.1203 C   0  0  0  0  0  0  0  0  0  0  0  0
   -4.9347   -3.1101    0.4881 C   0  0  0  0  0  0  0  0  0  0  0  0
   -4.6617   -1.7528    0.6722 C   0  0  0  0  0  0  0  0  0  0  0  0
   -1.9878    0.9010   -0.2667 C   0  0  0  0  0  0  0  0  0  0  0  0
    1.0630    3.0690   -1.4741 H   0  0  0  0  0  0  0  0  0  0  0  0
    0.1936    1.5570   -1.5137 H   0  0  0  0  0  0  0  0  0  0  0  0
    0.9460    1.7859    1.2545 H   0  0  0  0  0  0  0  0  0  0  0  0
    2.7290    3.5100    0.7622 H   0  0  0  0  0  0  0  0  0  0  0  0
    2.6913   -2.1834   -0.2711 H   0  0  0  0  0  0  0  0  0  0  0  0
    4.1965   -4.0500   -0.5886 H   0  0  0  0  0  0  0  0  0  0  0  0
    6.6541   -3.7111   -0.6337 H   0  0  0  0  0  0  0  0  0  0  0  0
    7.5765   -1.4234   -0.3605 H   0  0  0  0  0  0  0  0  0  0  0  0
    6.1111    0.4789   -0.0609 H   0  0  0  0  0  0  0  0  0  0  0  0
   -2.9950    2.9342    1.5835 H   0  0  0  0  0  0  0  0  0  0  0  0
   -2.9525    4.0928    0.2375 H   0  0  0  0  0  0  0  0  0  0  0  0
   -4.2390    2.4585   -1.1920 H   0  0  0  0  0  0  0  0  0  0  0  0
   -5.1451    2.9268    0.2492 H   0  0  0  0  0  0  0  0  0  0  0  0
   -2.9863    0.3942    1.5767 H   0  0  0  0  0  0  0  0  0  0  0  0
   -1.5347   -1.6753   -0.6895 H   0  0  0  0  0  0  0  0  0  0  0  0
   -2.0360   -4.0386   -1.0082 H   0  0  0  0  0  0  0  0  0  0  0  0
   -4.2018   -4.9883   -0.2647 H   0  0  0  0  0  0  0  0  0  0  0  0
   -5.8838   -3.5216    0.8210 H   0  0  0  0  0  0  0  0  0  0  0  0
   -5.4134   -1.1281    1.1529 H   0  0  0  0  0  0  0  0  0  0  0  0
   -2.1363    0.8081   -1.3494 H   0  0  0  0  0  0  0  0  0  0  0  0
   -1.0687    0.3819    0.0058 H   0  0  0  0  0  0  0  0  0  0  0  0
  1  2  2  0
  2  3  1  0
  3  4  1  0
  4  5  1  0
  5  6  1  0
  6  7  2  0
  6  8  1  0
  8  9  1  0
  9 10  2  0
 10 11  1  0
 11 12  2  0
 12 13  1  0
 13 14  2  0
  8 15  1  0
 15 16  2  0
  2 17  1  0
 17 18  1  0
 18 19  1  0
 19 20  1  0
 20 21  1  0
 21 22  1  0
 22 23  2  0
 23 24  1  0
 24 25  2  0
 25 26  1  0
 26 27  2  0
 21 28  1  0
 15  4  1  0
 28 17  1  0
 14  9  1  0
 27 22  1  0
  3 29  1  0
  3 30  1  0
  4 31  1  0
  5 32  1  0
 10 33  1  0
 11 34  1  0
 12 35  1  0
 13 36  1  0
 14 37  1  0
 18 38  1  0
 18 39  1  0
 19 40  1  0
 19 41  1  0
 21 42  1  0
 23 43  1  0
 24 44  1  0
 25 45  1  0
 26 46  1  0
 27 47  1  0
 28 48  1  0
 28 49  1  0
M  END
$$$$
