
     RDKit          3D

 53 56  0  0  0  0  0  0  0  0999 V2000
   -2.4800   -0.6597   -2.0841 O   0  0  0  0  0  0  0  0  0  0  0  0
   -2.9081   -0.7476   -0.9315 C   0  0  0  0  0  0  0  0  0  0  0  0
   -1.9865   -0.6010    0.1971 C   0  0  0  0  0  0  0  0  0  0  0  0
   -0.6074   -0.5359    0.1076 C   0  0  0  0  0  0  0  0  0  0  0  0
   -0.1905   -0.3623    1.3885 N   0  0  0  0  0  0  0  0  0  0  0  0
    1.1621   -0.2585    1.8870 C   0  0  0  0  0  0  0  0  0  0  0  0
    1.7439    1.1664    1.8932 C   0  0  2  0  0  0  0  0  0  0  0  0
    0.9873    2.0989    2.8587 C   0  0  0  0  0  0  0  0  0  0  0  0
    1.2548    3.4718    2.2840 C   0  0  0  0  0  0  0  0  0  0  0  0
    0.3548    4.3766    2.7045 F   0  0  0  0  0  0  0  0  0  0  0  0
    2.4836    3.8946    2.6639 F   0  0  0  0  0  0  0  0  0  0  0  0
    1.2057    3.2397    0.7840 C   0  0  0  0  0  0  0  0  0  0  0  0
    1.7514    1.8885    0.6041 N   0  0  0  0  0  0  0  0  0  0  0  0
    2.4814    1.6234   -0.5389 C   0  0  0  0  0  0  0  0  0  0  0  0
    2.4894    2.4023   -1.4911 O   0  0  0  0  0  0  0  0  0  0  0  0
    3.2622    0.3313   -0.5902 C   0  0  0  0  0  0  0  0  0  0  0  0
    4.2175    0.3196   -1.7793 C   0  0  0  0  0  0  0  0  0  0  0  0
    4.9989   -0.9005   -1.8108 N   0  0  0  0  0  0  0  0  0  0  0  0
    4.6424   -2.0737   -2.4127 C   0  0  0  0  0  0  0  0  0  0  0  0
    5.6767   -2.9381   -2.1383 C   0  0  0  0  0  0  0  0  0  0  0  0
    6.6427   -2.3177   -1.3882 N   0  0  0  0  0  0  0  0  0  0  0  0
    6.2155   -1.0866   -1.2211 C   0  0  0  0  0  0  0  0  0  0  0  0
   -1.2273   -0.3461    2.2404 N   0  0  0  0  0  0  0  0  0  0  0  0
   -2.3340   -0.4594    1.5200 N   0  0  0  0  0  0  0  0  0  0  0  0
   -4.2622   -0.9753   -0.6896 N   0  0  0  0  0  0  0  0  0  0  0  0
   -5.1970   -0.9439   -1.8145 C   0  0  0  0  0  0  0  0  0  0  0  0
   -6.5698   -0.4378   -1.3629 C   0  0  0  0  0  0  0  0  0  0  0  0
   -7.1638   -1.2170   -0.3153 O   0  0  0  0  0  0  0  0  0  0  0  0
   -6.2237   -1.9774    0.4526 C   0  0  0  0  0  0  0  0  0  0  0  0
   -4.8617   -1.2912    0.6116 C   0  0  0  0  0  0  0  0  0  0  0  0
    0.0573   -0.5889   -0.7417 H   0  0  0  0  0  0  0  0  0  0  0  0
    1.1671   -0.6637    2.9068 H   0  0  0  0  0  0  0  0  0  0  0  0
    1.7724   -0.9383    1.2871 H   0  0  0  0  0  0  0  0  0  0  0  0
    2.7913    1.1076    2.2168 H   0  0  0  0  0  0  0  0  0  0  0  0
    1.3550    1.9955    3.8841 H   0  0  0  0  0  0  0  0  0  0  0  0
   -0.0918    1.9216    2.8661 H   0  0  0  0  0  0  0  0  0  0  0  0
    0.1767    3.2383    0.4093 H   0  0  0  0  0  0  0  0  0  0  0  0
    1.7905    3.9866    0.2393 H   0  0  0  0  0  0  0  0  0  0  0  0
    2.5553   -0.4976   -0.6908 H   0  0  0  0  0  0  0  0  0  0  0  0
    3.8269    0.2045    0.3391 H   0  0  0  0  0  0  0  0  0  0  0  0
    3.6756    0.3883   -2.7301 H   0  0  0  0  0  0  0  0  0  0  0  0
    4.9178    1.1623   -1.7368 H   0  0  0  0  0  0  0  0  0  0  0  0
    3.7225   -2.1969   -2.9671 H   0  0  0  0  0  0  0  0  0  0  0  0
    5.7777   -3.9726   -2.4404 H   0  0  0  0  0  0  0  0  0  0  0  0
    6.7396   -0.3066   -0.6836 H   0  0  0  0  0  0  0  0  0  0  0  0
   -4.8092   -0.3116   -2.6196 H   0  0  0  0  0  0  0  0  0  0  0  0
   -5.2731   -1.9703   -2.1919 H   0  0  0  0  0  0  0  0  0  0  0  0
   -7.2682   -0.4310   -2.2056 H   0  0  0  0  0  0  0  0  0  0  0  0
   -6.4889    0.5919   -0.9956 H   0  0  0  0  0  0  0  0  0  0  0  0
   -6.6703   -2.1621    1.4347 H   0  0  0  0  0  0  0  0  0  0  0  0
   -6.1039   -2.9505   -0.0383 H   0  0  0  0  0  0  0  0  0  0  0  0
   -4.1959   -1.9480    1.1780 H   0  0  0  0  0  0  0  0  0  0  0  0
   -4.9824   -0.3416    1.1445 H   0  0  0  0  0  0  0  0  0  0  0  0
  1  2  2  0
  2  3  1  0
  3  4  2  0
  4  5  1  0
  5  6  1  0
  6  7  1  0
  7  8  1  0
  8  9  1  0
  9 10  1  0
  9 11  1  0
  9 12  1  0
 12 13  1  0
 13 14  1  0
 14 15  2  0
 14 16  1  0
 16 17  1  0
 17 18  1  0
 18 19  1  0
 19 20  2  0
 20 21  1  0
 21 22  2  0
  5 23  1  0
 23 24  2  0
  2 25  1  0
 25 26  1  0
 26 27  1  0
 27 28  1  0
 28 29  1  0
 29 30  1  0
 24  3  1  0
 30 25  1  0
 13  7  1  0
 22 18  1  0
  4 31  1  0
  6 32  1  0
  6 33  1  0
  7 34  1  1
  8 35  1  0
  8 36  1  0
 12 37  1  0
 12 38  1  0
 16 39  1  0
 16 40  1  0
 17 41  1  0
 17 42  1  0
 19 43  1  0
 20 44  1  0
 22 45  1  0
 26 46  1  0
 26 47  1  0
 27 48  1  0
 27 49  1  0
 29 50  1  0
 29 51  1  0
 30 52  1  0
 30 53  1  0
M  END
$$$$
