
     RDKit          3D

 55 54  0  0  0  0  0  0  0  0999 V2000
    8.1007   -0.2595   -3.8925 C   0  0  0  0  0  0  0  0  0  0  0  0
    8.1108    0.4422   -2.5476 C   0  0  0  0  0  0  0  0  0  0  0  0
    6.7847    0.4842   -2.0006 O   0  0  0  0  0  0  0  0  0  0  0  0
    6.4076   -0.6042   -1.2843 C   0  0  0  0  0  0  0  0  0  0  0  0
    7.0878   -1.5953   -1.0727 O   0  0  0  0  0  0  0  0  0  0  0  0
    5.0178   -0.4410   -0.7755 C   0  0  0  0  0  0  0  0  0  0  0  0
    4.2696    0.7271   -0.9892 C   0  0  0  0  0  0  0  0  0  0  0  0
    2.9693    0.8322   -0.4874 C   0  0  0  0  0  0  0  0  0  0  0  0
    2.4150   -0.2402    0.2102 C   0  0  0  0  0  0  0  0  0  0  0  0
    1.1351   -0.1717    0.7794 O   0  0  0  0  0  0  0  0  0  0  0  0
    0.0754    0.1605   -0.0661 C   0  0  0  0  0  0  0  0  0  0  0  0
    0.1435    0.3803   -1.2671 O   0  0  0  0  0  0  0  0  0  0  0  0
   -1.1929    0.1837    0.7597 C   0  0  0  0  0  0  0  0  0  0  0  0
   -2.3873    0.6873   -0.0500 C   0  0  0  0  0  0  0  0  0  0  0  0
   -3.6605    0.8619    0.7839 C   0  0  0  0  0  0  0  0  0  0  0  0
   -4.2266   -0.4623    1.3075 C   0  0  0  0  0  0  0  0  0  0  0  0
   -5.5193   -0.2857    2.1081 C   0  0  0  0  0  0  0  0  0  0  0  0
   -6.6325    0.0479    1.2314 N   0  0  0  0  0  0  0  0  0  0  0  0
   -7.8961    0.0734    1.7154 C   0  0  0  0  0  0  0  0  0  0  0  0
   -8.2474   -0.3127    2.8848 N   0  0  0  0  0  0  0  0  0  0  0  0
   -8.7592    0.5535    0.7990 N   0  0  0  0  0  0  0  0  0  0  0  0
    3.1514   -1.3988    0.4490 C   0  0  0  0  0  0  0  0  0  0  0  0
    4.4517   -1.5007   -0.0498 C   0  0  0  0  0  0  0  0  0  0  0  0
   -1.0878   -0.2777    0.1268 C   0  0  0  0  0  0  0  0  0  0  0  0
    0.4974    0.5269    0.1466 S   0  0  0  0  0  6  0  0  0  0  0  0
    0.6175    1.3860   -1.0086 O   0  0  0  0  0  0  0  0  0  0  0  0
    0.7995    0.9731    1.4852 O   0  0  0  0  0  0  0  0  0  0  0  0
    1.4092   -0.7661   -0.1718 O   0  0  0  0  0  0  0  0  0  0  0  0
    7.7850   -1.3020   -3.7886 H   0  0  0  0  0  0  0  0  0  0  0  0
    9.0950   -0.2397   -4.3478 H   0  0  0  0  0  0  0  0  0  0  0  0
    7.3907    0.2218   -4.5724 H   0  0  0  0  0  0  0  0  0  0  0  0
    8.4366    1.4798   -2.6761 H   0  0  0  0  0  0  0  0  0  0  0  0
    8.8136   -0.0319   -1.8526 H   0  0  0  0  0  0  0  0  0  0  0  0
    4.6861    1.5650   -1.5431 H   0  0  0  0  0  0  0  0  0  0  0  0
    2.4009    1.7435   -0.6523 H   0  0  0  0  0  0  0  0  0  0  0  0
   -1.3741   -0.8351    1.1170 H   0  0  0  0  0  0  0  0  0  0  0  0
   -1.0291    0.8437    1.6191 H   0  0  0  0  0  0  0  0  0  0  0  0
   -2.5837    0.0056   -0.8868 H   0  0  0  0  0  0  0  0  0  0  0  0
   -2.1348    1.6574   -0.4967 H   0  0  0  0  0  0  0  0  0  0  0  0
   -4.4065    1.3591    0.1534 H   0  0  0  0  0  0  0  0  0  0  0  0
   -3.4589    1.5361    1.6250 H   0  0  0  0  0  0  0  0  0  0  0  0
   -3.4886   -0.9325    1.9672 H   0  0  0  0  0  0  0  0  0  0  0  0
   -4.3968   -1.1509    0.4709 H   0  0  0  0  0  0  0  0  0  0  0  0
   -5.3930    0.4905    2.8708 H   0  0  0  0  0  0  0  0  0  0  0  0
   -5.7319   -1.2298    2.6228 H   0  0  0  0  0  0  0  0  0  0  0  0
   -6.4462    0.8448    0.6350 H   0  0  0  0  0  0  0  0  0  0  0  0
   -9.2495   -0.1716    3.0093 H   0  0  0  0  0  0  0  0  0  0  0  0
   -9.7313    0.3616    1.0023 H   0  0  0  0  0  0  0  0  0  0  0  0
   -8.5272    0.2499   -0.1400 H   0  0  0  0  0  0  0  0  0  0  0  0
    2.7209   -2.2186    1.0163 H   0  0  0  0  0  0  0  0  0  0  0  0
    5.0243   -2.4088    0.1305 H   0  0  0  0  0  0  0  0  0  0  0  0
   -1.1089   -1.0335    0.9141 H   0  0  0  0  0  0  0  0  0  0  0  0
   -1.2410   -0.7315   -0.8541 H   0  0  0  0  0  0  0  0  0  0  0  0
   -1.8530    0.4788    0.3132 H   0  0  0  0  0  0  0  0  0  0  0  0
    1.9671   -0.5559   -0.9515 H   0  0  0  0  0  0  0  0  0  0  0  0
  1  2  1  0
  2  3  1  0
  3  4  1  0
  4  5  2  0
  4  6  1  0
  6  7  2  0
  7  8  1  0
  8  9  2  0
  9 10  1  0
 10 11  1  0
 11 12  2  0
 11 13  1  0
 13 14  1  0
 14 15  1  0
 15 16  1  0
 16 17  1  0
 17 18  1  0
 18 19  1  0
 19 20  2  3
 19 21  1  0
  9 22  1  0
 22 23  2  0
 24 25  1  0
 25 26  2  0
 25 27  2  0
 25 28  1  0
 23  6  1  0
  1 29  1  0
  1 30  1  0
  1 31  1  0
  2 32  1  0
  2 33  1  0
  7 34  1  0
  8 35  1  0
 13 36  1  0
 13 37  1  0
 14 38  1  0
 14 39  1  0
 15 40  1  0
 15 41  1  0
 16 42  1  0
 16 43  1  0
 17 44  1  0
 17 45  1  0
 18 46  1  0
 20 47  1  0
 21 48  1  0
 21 49  1  0
 22 50  1  0
 23 51  1  0
 24 52  1  0
 24 53  1  0
 24 54  1  0
 28 55  1  0
M  END
$$$$
