
     RDKit          3D

 56 60  0  0  0  0  0  0  0  0999 V2000
   -5.3260    4.8043   -1.1767 C   0  0  0  0  0  0  0  0  0  0  0  0
   -3.8848    4.3722   -1.0916 C   0  0  0  0  0  0  0  0  0  0  0  0
   -2.9949    5.0977   -1.5370 O   0  0  0  0  0  0  0  0  0  0  0  0
   -3.6193    3.1389   -0.5097 N   0  0  0  0  0  0  0  0  0  0  0  0
   -4.5858    2.4173    0.3474 C   0  0  0  0  0  0  0  0  0  0  0  0
   -4.4996    0.8832    0.1957 C   0  0  0  0  0  0  0  0  0  0  0  0
   -3.0719    0.4870    0.1757 C   0  0  0  0  0  0  0  0  0  0  0  0
   -2.0237    1.3444   -0.0826 C   0  0  0  0  0  0  0  0  0  0  0  0
   -0.8572    0.5409    0.0023 C   0  0  0  0  0  0  0  0  0  0  0  0
    0.3829    1.0496   -0.1860 N   0  0  0  0  0  0  0  0  0  0  0  0
    1.6639    0.4517   -0.1398 C   0  0  0  0  0  0  0  0  0  0  0  0
    1.8978   -0.8930    0.1500 C   0  0  0  0  0  0  0  0  0  0  0  0
    3.2029   -1.4097    0.1803 C   0  0  0  0  0  0  0  0  0  0  0  0
    4.3114   -0.5929   -0.0808 C   0  0  0  0  0  0  0  0  0  0  0  0
    5.6547   -1.1459   -0.0404 C   0  0  0  0  0  0  0  0  0  0  0  0
    6.1758   -2.2617    0.6576 C   0  0  0  0  0  0  0  0  0  0  0  0
    7.4757   -2.4603    0.4227 N   0  0  0  0  0  0  0  0  0  0  0  0
    7.7938   -1.4726   -0.4316 N   0  0  0  0  0  0  0  0  0  0  0  0
    9.1458   -1.3678   -0.9233 C   0  0  0  0  0  0  0  0  0  0  0  0
    6.7408   -0.6605   -0.7409 C   0  0  0  0  0  0  0  0  0  0  0  0
    4.0885    0.7556   -0.3688 C   0  0  0  0  0  0  0  0  0  0  0  0
    2.7871    1.2553   -0.3944 C   0  0  0  0  0  0  0  0  0  0  0  0
    2.6050    2.5577   -0.6711 F   0  0  0  0  0  0  0  0  0  0  0  0
   -1.1832   -0.7239    0.2895 N   0  0  0  0  0  0  0  0  0  0  0  0
   -2.5260   -0.7447    0.3646 N   0  0  0  0  0  0  0  0  0  0  0  0
   -3.2105   -1.9856    0.6271 C   0  0  1  0  0  0  0  0  0  0  0  0
   -2.8402   -3.1450   -0.2773 C   0  0  0  0  0  0  0  0  0  0  0  0
   -3.3299   -4.3319    0.5264 C   0  0  0  0  0  0  0  0  0  0  0  0
   -3.2673   -3.9681    1.9145 O   0  0  0  0  0  0  0  0  0  0  0  0
   -2.9291   -2.5715    1.9982 C   0  0  0  0  0  0  0  0  0  0  0  0
   -2.1916    2.7957   -0.3598 C   0  0  0  0  0  0  0  0  0  0  0  0
   -5.3943    5.7170   -1.7767 H   0  0  0  0  0  0  0  0  0  0  0  0
   -5.9260    4.0343   -1.6688 H   0  0  0  0  0  0  0  0  0  0  0  0
   -5.7138    5.0200   -0.1779 H   0  0  0  0  0  0  0  0  0  0  0  0
   -5.6126    2.7326    0.1482 H   0  0  0  0  0  0  0  0  0  0  0  0
   -4.3586    2.7088    1.3812 H   0  0  0  0  0  0  0  0  0  0  0  0
   -4.9660    0.5825   -0.7497 H   0  0  0  0  0  0  0  0  0  0  0  0
   -5.0444    0.4027    1.0146 H   0  0  0  0  0  0  0  0  0  0  0  0
    0.4698    2.0335   -0.4263 H   0  0  0  0  0  0  0  0  0  0  0  0
    1.0748   -1.5704    0.3570 H   0  0  0  0  0  0  0  0  0  0  0  0
    3.3290   -2.4676    0.4008 H   0  0  0  0  0  0  0  0  0  0  0  0
    5.6628   -2.9352    1.3318 H   0  0  0  0  0  0  0  0  0  0  0  0
    9.8135   -1.2298   -0.0693 H   0  0  0  0  0  0  0  0  0  0  0  0
    9.3902   -2.2887   -1.4585 H   0  0  0  0  0  0  0  0  0  0  0  0
    9.2223   -0.5121   -1.5986 H   0  0  0  0  0  0  0  0  0  0  0  0
    6.8525    0.1668   -1.4274 H   0  0  0  0  0  0  0  0  0  0  0  0
    4.9070    1.4404   -0.5636 H   0  0  0  0  0  0  0  0  0  0  0  0
   -4.2890   -1.8099    0.5286 H   0  0  0  0  0  0  0  0  0  0  0  0
   -3.2965   -3.0884   -1.2700 H   0  0  0  0  0  0  0  0  0  0  0  0
   -1.7547   -3.2189   -0.4150 H   0  0  0  0  0  0  0  0  0  0  0  0
   -4.3743   -4.5635    0.2920 H   0  0  0  0  0  0  0  0  0  0  0  0
   -2.7291   -5.2296    0.3549 H   0  0  0  0  0  0  0  0  0  0  0  0
   -1.8736   -2.5023    2.2845 H   0  0  0  0  0  0  0  0  0  0  0  0
   -3.5274   -2.1011    2.7846 H   0  0  0  0  0  0  0  0  0  0  0  0
   -1.7949    3.3885    0.4727 H   0  0  0  0  0  0  0  0  0  0  0  0
   -1.6515    3.0743   -1.2716 H   0  0  0  0  0  0  0  0  0  0  0  0
  1  2  1  0
  2  3  2  0
  2  4  1  0
  4  5  1  0
  5  6  1  0
  6  7  1  0
  7  8  2  0
  8  9  1  0
  9 10  1  0
 10 11  1  0
 11 12  2  0
 12 13  1  0
 13 14  2  0
 14 15  1  0
 15 16  1  0
 16 17  2  0
 17 18  1  0
 18 19  1  0
 18 20  1  0
 14 21  1  0
 21 22  2  0
 22 23  1  0
  9 24  2  0
 24 25  1  0
 25 26  1  0
 26 27  1  0
 27 28  1  0
 28 29  1  0
 29 30  1  0
  8 31  1  0
 31  4  1  0
 25  7  1  0
 30 26  1  0
 22 11  1  0
 20 15  2  0
  1 32  1  0
  1 33  1  0
  1 34  1  0
  5 35  1  0
  5 36  1  0
  6 37  1  0
  6 38  1  0
 10 39  1  0
 12 40  1  0
 13 41  1  0
 16 42  1  0
 19 43  1  0
 19 44  1  0
 19 45  1  0
 20 46  1  0
 21 47  1  0
 26 48  1  1
 27 49  1  0
 27 50  1  0
 28 51  1  0
 28 52  1  0
 30 53  1  0
 30 54  1  0
 31 55  1  0
 31 56  1  0
M  END
$$$$
