
     RDKit          3D

 33 34  0  0  0  0  0  0  0  0999 V2000
    4.3588   -1.2597    0.2491 N   0  0  0  0  0  0  0  0  0  0  0  0
    3.3522   -1.3157   -0.8157 C   0  0  0  0  0  0  0  0  0  0  0  0
    2.0880   -0.7225   -0.2288 C   0  0  0  0  0  0  0  0  0  0  0  0
    1.0451   -0.7217   -1.1615 O   0  0  0  0  0  0  0  0  0  0  0  0
   -0.1102   -0.1276   -0.4744 B   0  0  0  0  0  0  0  0  0  0  0  0
   -0.1598    1.4030   -0.2286 C   0  0  0  0  0  0  0  0  0  0  0  0
   -0.7759    2.2460   -1.1426 C   0  0  0  0  0  0  0  0  0  0  0  0
   -0.8188    3.6022   -0.9230 C   0  0  0  0  0  0  0  0  0  0  0  0
   -0.2569    4.1771    0.2039 C   0  0  0  0  0  0  0  0  0  0  0  0
    0.3575    3.3457    1.1174 C   0  0  0  0  0  0  0  0  0  0  0  0
    0.3989    1.9848    0.8941 C   0  0  0  0  0  0  0  0  0  0  0  0
   -1.3228   -1.0575   -0.1252 C   0  0  0  0  0  0  0  0  0  0  0  0
   -1.1369   -2.4225   -0.0620 C   0  0  0  0  0  0  0  0  0  0  0  0
   -2.1576   -3.3091    0.2399 C   0  0  0  0  0  0  0  0  0  0  0  0
   -3.4078   -2.7767    0.4844 C   0  0  0  0  0  0  0  0  0  0  0  0
   -3.5952   -1.4175    0.4221 C   0  0  0  0  0  0  0  0  0  0  0  0
   -2.5755   -0.5521    0.1220 C   0  0  0  0  0  0  0  0  0  0  0  0
    4.2980   -0.3641    0.7801 H   0  0  0  0  0  0  0  0  0  0  0  0
    4.2118   -2.0315    0.9161 H   0  0  0  0  0  0  0  0  0  0  0  0
    3.6529   -0.7440   -1.6978 H   0  0  0  0  0  0  0  0  0  0  0  0
    3.1290   -2.3800   -1.0637 H   0  0  0  0  0  0  0  0  0  0  0  0
    1.8301   -1.2848    0.6760 H   0  0  0  0  0  0  0  0  0  0  0  0
    2.3244    0.3560   -0.0120 H   0  0  0  0  0  0  0  0  0  0  0  0
   -1.2209    1.8052   -2.0320 H   0  0  0  0  0  0  0  0  0  0  0  0
   -1.3005    4.2896   -1.6315 H   0  0  0  0  0  0  0  0  0  0  0  0
   -0.2731    5.2239    0.4036 H   0  0  0  0  0  0  0  0  0  0  0  0
    0.8050    3.7922    2.0124 H   0  0  0  0  0  0  0  0  0  0  0  0
    0.8960    1.3780    1.6476 H   0  0  0  0  0  0  0  0  0  0  0  0
   -0.1566   -2.8706   -0.2514 H   0  0  0  0  0  0  0  0  0  0  0  0
   -1.9713   -4.3812    0.2803 H   0  0  0  0  0  0  0  0  0  0  0  0
   -4.2483   -3.3950    0.7244 H   0  0  0  0  0  0  0  0  0  0  0  0
   -4.5729   -0.9971    0.6130 H   0  0  0  0  0  0  0  0  0  0  0  0
   -2.6865    0.5272    0.0638 H   0  0  0  0  0  0  0  0  0  0  0  0
  1  2  1  0
  2  3  1  0
  3  4  1  0
  4  5  1  0
  5  6  1  0
  6  7  2  0
  7  8  1  0
  8  9  2  0
  9 10  1  0
 10 11  2  0
  5 12  1  0
 12 13  2  0
 13 14  1  0
 14 15  2  0
 15 16  1  0
 16 17  2  0
 11  6  1  0
 17 12  1  0
  1 18  1  0
  1 19  1  0
  2 20  1  0
  2 21  1  0
  3 22  1  0
  3 23  1  0
  7 24  1  0
  8 25  1  0
  9 26  1  0
 10 27  1  0
 11 28  1  0
 13 29  1  0
 14 30  1  0
 15 31  1  0
 16 32  1  0
 17 33  1  0
M  END
$$$$
