
     RDKit          3D

 48 50  0  0  0  0  0  0  0  0999 V2000
    5.3909    2.6047   -1.3211 C   0  0  0  0  0  0  0  0  0  0  0  0
    4.6095    1.5070   -1.7790 O   0  0  0  0  0  0  0  0  0  0  0  0
    5.3694    0.3083   -1.8570 C   0  0  0  0  0  0  0  0  0  0  0  0
    5.7823   -0.3208   -0.5145 C   0  0  0  0  0  0  0  0  0  0  0  0
    6.9653   -0.5977   -0.3019 O   0  0  0  0  0  0  0  0  0  0  0  0
    4.7840   -0.5690    0.4229 N   0  0  0  0  0  0  0  0  0  0  0  0
    5.1686   -1.0897    1.7336 C   0  0  0  0  0  0  0  0  0  0  0  0
    4.2237   -0.6078    2.8277 C   0  0  0  0  0  0  0  0  0  0  0  0
    2.7722   -1.0175    2.5663 C   0  0  0  0  0  0  0  0  0  0  0  0
    2.4554   -1.1839    1.0698 C   0  0  0  0  0  0  0  0  0  0  0  0
    0.9937   -0.9965    0.7688 C   0  0  0  0  0  0  0  0  0  0  0  0
    0.1905   -1.9781    0.4068 N   0  0  0  0  0  0  0  0  0  0  0  0
   -1.1016   -1.5491    0.1881 N   0  0  0  0  0  0  0  0  0  0  0  0
   -1.2306   -0.2524    0.3953 C   0  0  0  0  0  0  0  0  0  0  0  0
   -2.4946    0.4557    0.2371 C   0  0  0  0  0  0  0  0  0  0  0  0
   -2.6175    1.6616    0.4347 O   0  0  0  0  0  0  0  0  0  0  0  0
   -3.5212   -0.3928   -0.1568 N   0  0  0  0  0  0  0  0  0  0  0  0
   -4.8703   -0.0809   -0.4078 C   0  0  0  0  0  0  0  0  0  0  0  0
   -5.4129    1.1989   -0.2976 C   0  0  0  0  0  0  0  0  0  0  0  0
   -6.7691    1.4206   -0.5663 C   0  0  0  0  0  0  0  0  0  0  0  0
   -7.6060    0.3644   -0.9393 C   0  0  0  0  0  0  0  0  0  0  0  0
   -9.0498    0.6131   -1.2588 C   0  0  0  0  0  0  0  0  0  0  0  0
   -7.0598   -0.9154   -1.0644 C   0  0  0  0  0  0  0  0  0  0  0  0
   -5.7052   -1.1358   -0.7957 C   0  0  0  0  0  0  0  0  0  0  0  0
    0.2113    0.5365    0.8676 S   0  0  0  0  0  0  0  0  0  0  0  0
    3.3570   -0.3100    0.1880 C   0  0  0  0  0  0  0  0  0  0  0  0
    4.7554    3.4943   -1.3099 H   0  0  0  0  0  0  0  0  0  0  0  0
    6.2321    2.7871   -1.9968 H   0  0  0  0  0  0  0  0  0  0  0  0
    5.7534    2.4271   -0.3044 H   0  0  0  0  0  0  0  0  0  0  0  0
    6.2721    0.4843   -2.4551 H   0  0  0  0  0  0  0  0  0  0  0  0
    4.7786   -0.4348   -2.4037 H   0  0  0  0  0  0  0  0  0  0  0  0
    5.1542   -2.1840    1.6670 H   0  0  0  0  0  0  0  0  0  0  0  0
    6.1941   -0.7885    1.9732 H   0  0  0  0  0  0  0  0  0  0  0  0
    4.2758    0.4873    2.8842 H   0  0  0  0  0  0  0  0  0  0  0  0
    4.5450   -0.9888    3.8035 H   0  0  0  0  0  0  0  0  0  0  0  0
    2.5675   -1.9705    3.0722 H   0  0  0  0  0  0  0  0  0  0  0  0
    2.1160   -0.2835    3.0492 H   0  0  0  0  0  0  0  0  0  0  0  0
    2.6925   -2.2285    0.8155 H   0  0  0  0  0  0  0  0  0  0  0  0
   -3.2477   -1.3651   -0.2744 H   0  0  0  0  0  0  0  0  0  0  0  0
   -4.8119    2.0546   -0.0073 H   0  0  0  0  0  0  0  0  0  0  0  0
   -7.1645    2.4306   -0.4797 H   0  0  0  0  0  0  0  0  0  0  0  0
   -9.6576   -0.2694   -1.0329 H   0  0  0  0  0  0  0  0  0  0  0  0
   -9.4452    1.4409   -0.6607 H   0  0  0  0  0  0  0  0  0  0  0  0
   -9.1616    0.8577   -2.3196 H   0  0  0  0  0  0  0  0  0  0  0  0
   -7.6842   -1.7516   -1.3712 H   0  0  0  0  0  0  0  0  0  0  0  0
   -5.3155   -2.1456   -0.8980 H   0  0  0  0  0  0  0  0  0  0  0  0
    3.1205   -0.4819   -0.8669 H   0  0  0  0  0  0  0  0  0  0  0  0
    3.1961    0.7550    0.3940 H   0  0  0  0  0  0  0  0  0  0  0  0
  1  2  1  0
  2  3  1  0
  3  4  1  0
  4  5  2  0
  4  6  1  0
  6  7  1  0
  7  8  1  0
  8  9  1  0
  9 10  1  0
 10 11  1  0
 11 12  2  0
 12 13  1  0
 13 14  2  0
 14 15  1  0
 15 16  2  0
 15 17  1  0
 17 18  1  0
 18 19  2  0
 19 20  1  0
 20 21  2  0
 21 22  1  0
 21 23  1  0
 23 24  2  0
 14 25  1  0
 10 26  1  0
 26  6  1  0
 25 11  1  0
 24 18  1  0
  1 27  1  0
  1 28  1  0
  1 29  1  0
  3 30  1  0
  3 31  1  0
  7 32  1  0
  7 33  1  0
  8 34  1  0
  8 35  1  0
  9 36  1  0
  9 37  1  0
 10 38  1  0
 17 39  1  0
 19 40  1  0
 20 41  1  0
 22 42  1  0
 22 43  1  0
 22 44  1  0
 23 45  1  0
 24 46  1  0
 26 47  1  0
 26 48  1  0
M  END
$$$$
