
     RDKit          3D

 27 28  0  0  0  0  0  0  0  0999 V2000
   -3.2855    1.8466   -1.7498 C   0  0  0  0  0  0  0  0  0  0  0  0
   -2.4474    0.6025   -1.7984 C   0  0  0  0  0  0  0  0  0  0  0  0
   -2.5649   -0.2872   -2.8738 C   0  0  0  0  0  0  0  0  0  0  0  0
   -1.7833   -1.4421   -2.9281 C   0  0  0  0  0  0  0  0  0  0  0  0
   -0.8608   -1.7087   -1.9172 C   0  0  0  0  0  0  0  0  0  0  0  0
   -0.7062   -0.8112   -0.8550 C   0  0  0  0  0  0  0  0  0  0  0  0
    0.3013   -1.1245    0.1971 C   0  0  0  0  0  0  0  0  0  0  0  0
    0.5311   -2.2968    0.4635 O   0  0  0  0  0  0  0  0  0  0  0  0
    0.9502   -0.0223    0.7240 N   0  0  0  0  0  0  0  0  0  0  0  0
    1.7976   -0.0052    1.7886 C   0  0  0  0  0  0  0  0  0  0  0  0
    2.1533   -0.9892    2.5329 N   0  0  0  0  0  0  0  0  0  0  0  0
    3.0350   -0.4888    3.6058 C   0  0  0  0  0  0  0  0  0  0  0  0
    3.7033    0.8060    3.1667 C   0  0  0  0  0  0  0  0  0  0  0  0
    2.4480    1.5714    2.1201 S   0  0  0  0  0  0  0  0  0  0  0  0
   -1.5068    0.3392   -0.7920 C   0  0  0  0  0  0  0  0  0  0  0  0
   -3.4967    2.1346   -0.7146 H   0  0  0  0  0  0  0  0  0  0  0  0
   -2.7623    2.6691   -2.2469 H   0  0  0  0  0  0  0  0  0  0  0  0
   -4.2491    1.6888   -2.2455 H   0  0  0  0  0  0  0  0  0  0  0  0
   -3.2785   -0.0927   -3.6724 H   0  0  0  0  0  0  0  0  0  0  0  0
   -1.8948   -2.1368   -3.7571 H   0  0  0  0  0  0  0  0  0  0  0  0
   -0.2586   -2.6145   -1.9604 H   0  0  0  0  0  0  0  0  0  0  0  0
    0.8008    0.8787    0.2986 H   0  0  0  0  0  0  0  0  0  0  0  0
    2.4383   -0.3351    4.5137 H   0  0  0  0  0  0  0  0  0  0  0  0
    3.7943   -1.2422    3.8409 H   0  0  0  0  0  0  0  0  0  0  0  0
    3.9819    1.4396    4.0125 H   0  0  0  0  0  0  0  0  0  0  0  0
    4.5917    0.6000    2.5615 H   0  0  0  0  0  0  0  0  0  0  0  0
   -1.4318    1.0206    0.0516 H   0  0  0  0  0  0  0  0  0  0  0  0
  1  2  1  0
  2  3  2  0
  3  4  1  0
  4  5  2  0
  5  6  1  0
  6  7  1  0
  7  8  2  0
  7  9  1  0
  9 10  1  0
 10 11  2  0
 11 12  1  0
 12 13  1  0
 13 14  1  0
  6 15  2  0
 15  2  1  0
 14 10  1  0
  1 16  1  0
  1 17  1  0
  1 18  1  0
  3 19  1  0
  4 20  1  0
  5 21  1  0
  9 22  1  0
 12 23  1  0
 12 24  1  0
 13 25  1  0
 13 26  1  0
 15 27  1  0
M  END
$$$$
