
     RDKit          3D

 45 48  0  0  0  0  0  0  0  0999 V2000
    1.5944   -0.5658    1.3820 O   0  0  0  0  0  0  0  0  0  0  0  0
    2.0971   -0.1433    0.3452 C   0  0  0  0  0  0  0  0  0  0  0  0
    3.4344   -0.2990    0.0597 N   0  0  0  0  0  0  0  0  0  0  0  0
    4.2868   -1.0497    0.9503 C   0  0  0  0  0  0  0  0  0  0  0  0
    5.7263   -0.9185    0.5562 C   0  0  0  0  0  0  0  0  0  0  0  0
    6.4333    0.2694    0.7665 C   0  0  0  0  0  0  0  0  0  0  0  0
    7.7642    0.3605    0.3705 C   0  0  0  0  0  0  0  0  0  0  0  0
    8.3460   -0.7430   -0.2301 C   0  0  0  0  0  0  0  0  0  0  0  0
    7.6950   -1.9042   -0.4555 N   0  0  0  0  0  0  0  0  0  0  0  0
    6.4045   -1.9665   -0.0569 C   0  0  0  0  0  0  0  0  0  0  0  0
    1.3207    0.5429   -0.6721 C   0  0  0  0  0  0  0  0  0  0  0  0
    1.7038    1.1436   -1.9133 C   0  0  0  0  0  0  0  0  0  0  0  0
    0.6753    1.6808   -2.5930 N   0  0  0  0  0  0  0  0  0  0  0  0
   -0.3428    1.4389   -1.7776 N   0  0  0  0  0  0  0  0  0  0  0  0
   -0.0341    0.7746   -0.6436 C   0  0  0  0  0  0  0  0  0  0  0  0
   -1.2402    0.5492    0.1760 C   0  0  0  0  0  0  0  0  0  0  0  0
   -2.3007    1.4594   -0.5353 C   0  0  2  0  0  0  0  0  0  0  0  0
   -3.6250    0.8618   -0.5622 N   0  0  0  0  0  0  0  0  0  0  0  0
   -4.4471    0.8699    0.5520 C   0  0  0  0  0  0  0  0  0  0  0  0
   -4.1974    1.5174    1.5594 O   0  0  0  0  0  0  0  0  0  0  0  0
   -5.6567   -0.0025    0.4181 C   0  0  0  0  0  0  0  0  0  0  0  0
   -5.7257   -0.7338   -0.7413 N   0  0  0  0  0  0  0  0  0  0  0  0
   -6.8056   -1.5346   -0.8814 C   0  0  0  0  0  0  0  0  0  0  0  0
   -7.8130   -1.6454    0.0666 C   0  0  0  0  0  0  0  0  0  0  0  0
   -7.7144   -0.8909    1.2337 C   0  0  0  0  0  0  0  0  0  0  0  0
   -6.6190   -0.0548    1.4159 C   0  0  0  0  0  0  0  0  0  0  0  0
   -6.5381    0.6672    2.5404 F   0  0  0  0  0  0  0  0  0  0  0  0
   -1.7436    1.7606   -1.9471 C   0  0  0  0  0  0  0  0  0  0  0  0
    3.7794   -0.0862   -0.8643 H   0  0  0  0  0  0  0  0  0  0  0  0
    4.1416   -0.6953    1.9778 H   0  0  0  0  0  0  0  0  0  0  0  0
    3.9623   -2.0968    0.9245 H   0  0  0  0  0  0  0  0  0  0  0  0
    5.9505    1.1222    1.2388 H   0  0  0  0  0  0  0  0  0  0  0  0
    8.3339    1.2698    0.5268 H   0  0  0  0  0  0  0  0  0  0  0  0
    9.3820   -0.7219   -0.5562 H   0  0  0  0  0  0  0  0  0  0  0  0
    5.9172   -2.9177   -0.2567 H   0  0  0  0  0  0  0  0  0  0  0  0
    2.6901    1.2118   -2.3530 H   0  0  0  0  0  0  0  0  0  0  0  0
   -1.1016    0.8533    1.2177 H   0  0  0  0  0  0  0  0  0  0  0  0
   -1.5326   -0.5060    0.1486 H   0  0  0  0  0  0  0  0  0  0  0  0
   -2.3660    2.4042    0.0220 H   0  0  0  0  0  0  0  0  0  0  0  0
   -3.8620    0.1582   -1.2603 H   0  0  0  0  0  0  0  0  0  0  0  0
   -6.8453   -2.1067   -1.8054 H   0  0  0  0  0  0  0  0  0  0  0  0
   -8.6581   -2.3059   -0.0994 H   0  0  0  0  0  0  0  0  0  0  0  0
   -8.4803   -0.9476    2.0011 H   0  0  0  0  0  0  0  0  0  0  0  0
   -1.8419    2.8135   -2.2229 H   0  0  0  0  0  0  0  0  0  0  0  0
   -2.1473    1.1066   -2.7255 H   0  0  0  0  0  0  0  0  0  0  0  0
  1  2  2  0
  2  3  1  0
  3  4  1  0
  4  5  1  0
  5  6  2  0
  6  7  1  0
  7  8  2  0
  8  9  1  0
  9 10  2  0
  2 11  1  0
 11 12  1  0
 12 13  2  0
 13 14  1  0
 14 15  1  0
 15 16  1  0
 16 17  1  0
 17 18  1  0
 18 19  1  0
 19 20  2  0
 19 21  1  0
 21 22  2  0
 22 23  1  0
 23 24  2  0
 24 25  1  0
 25 26  2  0
 26 27  1  0
 17 28  1  0
 10  5  1  0
 15 11  2  0
 26 21  1  0
 28 14  1  0
  3 29  1  0
  4 30  1  0
  4 31  1  0
  6 32  1  0
  7 33  1  0
  8 34  1  0
 10 35  1  0
 12 36  1  0
 16 37  1  0
 16 38  1  0
 17 39  1  1
 18 40  1  0
 23 41  1  0
 24 42  1  0
 25 43  1  0
 28 44  1  0
 28 45  1  0
M  END
$$$$
