
     RDKit          3D

 52 56  0  0  0  0  0  0  0  0999 V2000
    1.6064   -2.2761   -4.1766 C   0  0  0  0  0  0  0  0  0  0  0  0
    1.8915   -0.8952   -3.9584 O   0  0  0  0  0  0  0  0  0  0  0  0
    1.5791   -0.4953   -2.6832 C   0  0  0  0  0  0  0  0  0  0  0  0
    0.2912   -0.6631   -2.1616 C   0  0  0  0  0  0  0  0  0  0  0  0
   -0.0280   -0.2408   -0.8582 C   0  0  0  0  0  0  0  0  0  0  0  0
   -1.4368   -0.4892   -0.3224 C   0  0  2  0  0  0  0  0  0  0  0  0
   -1.9188    0.5918    0.6626 C   0  0  0  0  0  0  0  0  0  0  0  0
   -2.2700    1.8556    0.1493 C   0  0  0  0  0  0  0  0  0  0  0  0
   -2.7087    2.8201    1.0294 C   0  0  0  0  0  0  0  0  0  0  0  0
   -2.8116    2.5787    2.3764 C   0  0  0  0  0  0  0  0  0  0  0  0
   -2.4786    1.3598    2.9258 C   0  0  0  0  0  0  0  0  0  0  0  0
   -2.0073    0.3442    2.0724 C   0  0  0  0  0  0  0  0  0  0  0  0
   -1.6702   -1.0156    2.6778 C   0  0  2  0  0  0  0  0  0  0  0  0
   -0.8309   -0.8905    3.8202 O   0  0  0  0  0  0  0  0  0  0  0  0
   -0.9519   -1.9039    1.6799 C   0  0  1  0  0  0  0  0  0  0  0  0
   -0.9462   -3.3835    1.9613 C   0  0  0  0  0  0  0  0  0  0  0  0
   -0.7124   -3.9721    0.6703 O   0  0  0  0  0  0  0  0  0  0  0  0
   -1.1101   -3.0958   -0.3100 C   0  0  0  0  0  0  0  0  0  0  0  0
   -1.1042   -3.3492   -1.5020 O   0  0  0  0  0  0  0  0  0  0  0  0
   -1.6426   -1.8532    0.3378 C   0  0  2  0  0  0  0  0  0  0  0  0
   -3.2716    3.6572    3.0644 O   0  0  0  0  0  0  0  0  0  0  0  0
   -3.4485    4.6068    1.9930 C   0  0  0  0  0  0  0  0  0  0  0  0
   -3.0908    4.0819    0.6983 O   0  0  0  0  0  0  0  0  0  0  0  0
    0.9792    0.3811   -0.1011 C   0  0  0  0  0  0  0  0  0  0  0  0
    2.2658    0.5529   -0.6202 C   0  0  0  0  0  0  0  0  0  0  0  0
    3.1754    1.1903    0.1841 O   0  0  0  0  0  0  0  0  0  0  0  0
    4.2032    0.2930    0.6061 C   0  0  0  0  0  0  0  0  0  0  0  0
    2.5592    0.1508   -1.9257 C   0  0  0  0  0  0  0  0  0  0  0  0
    3.8195    0.3337   -2.4357 O   0  0  0  0  0  0  0  0  0  0  0  0
    3.8644    1.5484   -3.1832 C   0  0  0  0  0  0  0  0  0  0  0  0
    2.1846   -2.6015   -5.0456 H   0  0  0  0  0  0  0  0  0  0  0  0
    0.5492   -2.4278   -4.4045 H   0  0  0  0  0  0  0  0  0  0  0  0
    1.9089   -2.8935   -3.3239 H   0  0  0  0  0  0  0  0  0  0  0  0
   -0.4755   -1.1255   -2.7801 H   0  0  0  0  0  0  0  0  0  0  0  0
   -2.1213   -0.4467   -1.1827 H   0  0  0  0  0  0  0  0  0  0  0  0
   -2.2005    2.0779   -0.9112 H   0  0  0  0  0  0  0  0  0  0  0  0
   -2.5887    1.1970    3.9942 H   0  0  0  0  0  0  0  0  0  0  0  0
   -2.6082   -1.4829    3.0011 H   0  0  0  0  0  0  0  0  0  0  0  0
   -0.3929   -0.0245    3.7825 H   0  0  0  0  0  0  0  0  0  0  0  0
    0.0994   -1.5975    1.5948 H   0  0  0  0  0  0  0  0  0  0  0  0
   -1.8982   -3.7608    2.3494 H   0  0  0  0  0  0  0  0  0  0  0  0
   -0.1414   -3.6732    2.6422 H   0  0  0  0  0  0  0  0  0  0  0  0
   -2.7222   -2.0277    0.4664 H   0  0  0  0  0  0  0  0  0  0  0  0
   -2.8301    5.4875    2.1987 H   0  0  0  0  0  0  0  0  0  0  0  0
   -4.4999    4.9140    1.9686 H   0  0  0  0  0  0  0  0  0  0  0  0
    0.7833    0.7426    0.9053 H   0  0  0  0  0  0  0  0  0  0  0  0
    3.7877   -0.6552    0.9659 H   0  0  0  0  0  0  0  0  0  0  0  0
    4.7247    0.7623    1.4464 H   0  0  0  0  0  0  0  0  0  0  0  0
    4.9316    0.1158   -0.1873 H   0  0  0  0  0  0  0  0  0  0  0  0
    3.5485    2.4032   -2.5775 H   0  0  0  0  0  0  0  0  0  0  0  0
    3.2624    1.4762   -4.0940 H   0  0  0  0  0  0  0  0  0  0  0  0
    4.9033    1.7177   -3.4797 H   0  0  0  0  0  0  0  0  0  0  0  0
  1  2  1  0
  2  3  1  0
  3  4  2  0
  4  5  1  0
  5  6  1  0
  6  7  1  0
  7  8  2  0
  8  9  1  0
  9 10  2  0
 10 11  1  0
 11 12  2  0
 12 13  1  0
 13 14  1  0
 13 15  1  0
 15 16  1  0
 16 17  1  0
 17 18  1  0
 18 19  2  0
 18 20  1  0
 10 21  1  0
 21 22  1  0
 22 23  1  0
  5 24  2  0
 24 25  1  0
 25 26  1  0
 26 27  1  0
 25 28  2  0
 28 29  1  0
 29 30  1  0
 28  3  1  0
 20  6  1  0
 12  7  1  0
 20 15  1  0
 23  9  1  0
  1 31  1  0
  1 32  1  0
  1 33  1  0
  4 34  1  0
  6 35  1  6
  8 36  1  0
 11 37  1  0
 13 38  1  1
 14 39  1  0
 15 40  1  6
 16 41  1  0
 16 42  1  0
 20 43  1  1
 22 44  1  0
 22 45  1  0
 24 46  1  0
 27 47  1  0
 27 48  1  0
 27 49  1  0
 30 50  1  0
 30 51  1  0
 30 52  1  0
M  END
$$$$
