
     RDKit          3D

 53 57  0  0  0  0  0  0  0  0999 V2000
   -9.7141   -0.4140    0.7578 C   0  0  0  0  0  0  0  0  0  0  0  0
   -8.7569   -0.9084   -0.2944 C   0  0  0  0  0  0  0  0  0  0  0  0
   -9.1429   -1.6169   -1.2234 O   0  0  0  0  0  0  0  0  0  0  0  0
   -7.3174   -0.5281   -0.1965 C   0  0  0  0  0  0  0  0  0  0  0  0
   -6.4504   -0.9146   -1.2192 C   0  0  0  0  0  0  0  0  0  0  0  0
   -5.0917   -0.5721   -1.1682 C   0  0  0  0  0  0  0  0  0  0  0  0
   -4.5479    0.1614   -0.1028 C   0  0  0  0  0  0  0  0  0  0  0  0
   -3.2063    0.4973   -0.0533 N   0  0  0  0  0  0  0  0  0  0  0  0
   -2.1976   -0.2046   -0.8666 C   0  0  0  0  0  0  0  0  0  0  0  0
   -0.8108   -0.1440   -0.1994 C   0  0  0  0  0  0  0  0  0  0  0  0
   -0.3344    1.2593    0.0283 N   0  0  0  0  0  0  0  0  0  0  0  0
    0.9061    1.7798   -1.0126 S   0  0  0  0  0  6  0  0  0  0  0  0
    1.2365    3.1484   -0.6747 O   0  0  0  0  0  0  0  0  0  0  0  0
    0.5555    1.3904   -2.3622 O   0  0  0  0  0  0  0  0  0  0  0  0
    2.3932    0.8536   -0.6246 C   0  0  0  0  0  0  0  0  0  0  0  0
    3.7234    1.1049   -0.9484 C   0  0  0  0  0  0  0  0  0  0  0  0
    4.4972    0.0711   -0.3797 C   0  0  0  0  0  0  0  0  0  0  0  0
    6.0304   -0.1206   -0.4319 C   0  0  0  0  0  0  0  0  0  0  0  0
    6.8563    0.6928   -1.0604 N   0  0  0  0  0  0  0  0  0  0  0  0
    8.1282    0.1916   -0.8727 N   0  0  0  0  0  0  0  0  0  0  0  0
    7.9966   -0.8903   -0.1395 C   0  0  0  0  0  0  0  0  0  0  0  0
    9.1850   -1.7748    0.3267 C   0  0  0  0  0  0  0  0  0  0  0  0
   10.4626   -1.1239    0.7845 C   0  0  0  0  0  0  0  0  0  0  0  0
    9.5534   -1.7717    1.7881 C   0  0  0  0  0  0  0  0  0  0  0  0
    6.6919   -1.1576    0.1749 O   0  0  0  0  0  0  0  0  0  0  0  0
    3.6219   -0.7683    0.2576 C   0  0  0  0  0  0  0  0  0  0  0  0
    2.3508   -0.3138    0.1195 O   0  0  0  0  0  0  0  0  0  0  0  0
   -1.4519    2.2478    0.1514 C   0  0  0  0  0  0  0  0  0  0  0  0
   -2.7204    1.6245    0.7607 C   0  0  0  0  0  0  0  0  0  0  0  0
   -5.4421    0.5336    0.9148 C   0  0  0  0  0  0  0  0  0  0  0  0
   -6.8051    0.1993    0.8769 C   0  0  0  0  0  0  0  0  0  0  0  0
  -10.7286   -0.7147    0.4882 H   0  0  0  0  0  0  0  0  0  0  0  0
   -9.4737   -0.8550    1.7257 H   0  0  0  0  0  0  0  0  0  0  0  0
   -9.6929    0.6761    0.8119 H   0  0  0  0  0  0  0  0  0  0  0  0
   -6.8232   -1.4786   -2.0720 H   0  0  0  0  0  0  0  0  0  0  0  0
   -4.4714   -0.8744   -2.0079 H   0  0  0  0  0  0  0  0  0  0  0  0
   -2.4570   -1.2632   -0.9796 H   0  0  0  0  0  0  0  0  0  0  0  0
   -2.1573    0.2479   -1.8639 H   0  0  0  0  0  0  0  0  0  0  0  0
   -0.8463   -0.6353    0.7802 H   0  0  0  0  0  0  0  0  0  0  0  0
   -0.0980   -0.7129   -0.8041 H   0  0  0  0  0  0  0  0  0  0  0  0
    4.0727    1.9536   -1.5219 H   0  0  0  0  0  0  0  0  0  0  0  0
    9.2668   -2.7159   -0.2009 H   0  0  0  0  0  0  0  0  0  0  0  0
   11.3954   -1.6213    0.5445 H   0  0  0  0  0  0  0  0  0  0  0  0
   10.5238   -0.0398    0.7698 H   0  0  0  0  0  0  0  0  0  0  0  0
    9.8719   -2.7082    2.2320 H   0  0  0  0  0  0  0  0  0  0  0  0
    9.0044   -1.1219    2.4663 H   0  0  0  0  0  0  0  0  0  0  0  0
    3.7347   -1.6821    0.8272 H   0  0  0  0  0  0  0  0  0  0  0  0
   -1.6947    2.6561   -0.8367 H   0  0  0  0  0  0  0  0  0  0  0  0
   -1.1173    3.0697    0.7924 H   0  0  0  0  0  0  0  0  0  0  0  0
   -3.4752    2.4166    0.8235 H   0  0  0  0  0  0  0  0  0  0  0  0
   -2.5115    1.2688    1.7760 H   0  0  0  0  0  0  0  0  0  0  0  0
   -5.0877    1.0825    1.7840 H   0  0  0  0  0  0  0  0  0  0  0  0
   -7.4340    0.5200    1.7028 H   0  0  0  0  0  0  0  0  0  0  0  0
  1  2  1  0
  2  3  2  0
  2  4  1  0
  4  5  2  0
  5  6  1  0
  6  7  2  0
  7  8  1  0
  8  9  1  0
  9 10  1  0
 10 11  1  0
 11 12  1  0
 12 13  2  0
 12 14  2  0
 12 15  1  0
 15 16  2  0
 16 17  1  0
 17 18  1  0
 18 19  2  0
 19 20  1  0
 20 21  2  0
 21 22  1  0
 22 23  1  0
 23 24  1  0
 21 25  1  0
 17 26  2  0
 26 27  1  0
 11 28  1  0
 28 29  1  0
  7 30  1  0
 30 31  2  0
 31  4  1  0
 29  8  1  0
 27 15  1  0
 25 18  1  0
 24 22  1  0
  1 32  1  0
  1 33  1  0
  1 34  1  0
  5 35  1  0
  6 36  1  0
  9 37  1  0
  9 38  1  0
 10 39  1  0
 10 40  1  0
 16 41  1  0
 22 42  1  0
 23 43  1  0
 23 44  1  0
 24 45  1  0
 24 46  1  0
 26 47  1  0
 28 48  1  0
 28 49  1  0
 29 50  1  0
 29 51  1  0
 30 52  1  0
 31 53  1  0
M  END
$$$$
