
     RDKit          3D

 55 57  0  0  0  0  0  0  0  0999 V2000
    1.6567   -3.8787    0.2939 C   0  0  0  0  0  0  0  0  0  0  0  0
    2.0319   -2.4793    0.7880 C   0  0  0  0  0  0  0  0  0  0  0  0
    3.3260   -2.5499    1.6033 C   0  0  0  0  0  0  0  0  0  0  0  0
    2.1034   -1.4636   -0.3866 C   0  0  2  0  0  0  0  0  0  0  0  0
    3.2756   -1.7369   -1.3690 C   0  0  0  0  0  0  0  0  0  0  0  0
    3.2760   -0.7512   -2.4107 O   0  0  0  0  0  0  0  0  0  0  0  0
    2.2605   -0.1056    0.1588 N   0  0  0  0  0  0  0  0  0  0  0  0
    1.1348    0.7079    0.0637 C   0  0  0  0  0  0  0  0  0  0  0  0
   -0.0947    0.1764    0.2103 N   0  0  0  0  0  0  0  0  0  0  0  0
   -1.2013    0.9538    0.0614 C   0  0  0  0  0  0  0  0  0  0  0  0
   -2.5052    0.4406    0.1202 N   0  0  0  0  0  0  0  0  0  0  0  0
   -2.9968   -0.8398    0.4028 C   0  0  0  0  0  0  0  0  0  0  0  0
   -4.2824   -1.1742   -0.0382 C   0  0  0  0  0  0  0  0  0  0  0  0
   -4.8055   -2.4561    0.1659 C   0  0  0  0  0  0  0  0  0  0  0  0
   -4.0477   -3.4364    0.8178 C   0  0  0  0  0  0  0  0  0  0  0  0
   -4.6171   -4.7928    0.9721 C   0  0  0  0  0  0  0  0  0  0  0  0
   -4.0423   -5.8605    0.8554 O   0  0  0  0  0  0  0  0  0  0  0  0
   -5.9311   -4.7384    1.2593 O   0  0  0  0  0  0  0  0  0  0  0  0
   -2.7628   -3.1194    1.2584 C   0  0  0  0  0  0  0  0  0  0  0  0
   -1.7643   -4.2382    2.1119 Cl  0  0  0  0  0  0  0  0  0  0  0  0
   -2.2460   -1.8328    1.0453 C   0  0  0  0  0  0  0  0  0  0  0  0
   -1.0013    2.3138   -0.2236 C   0  0  0  0  0  0  0  0  0  0  0  0
   -1.8819    3.3549   -0.4483 N   0  0  0  0  0  0  0  0  0  0  0  0
   -1.1109    4.3984   -0.6704 C   0  0  0  0  0  0  0  0  0  0  0  0
    0.2201    4.0757   -0.6082 N   0  0  0  0  0  0  0  0  0  0  0  0
    1.3446    4.9711   -0.8224 C   0  0  0  0  0  0  0  0  0  0  0  0
    1.4291    6.0378    0.2723 C   0  0  0  0  0  0  0  0  0  0  0  0
    1.3064    5.6106   -2.2148 C   0  0  0  0  0  0  0  0  0  0  0  0
    0.3058    2.7404   -0.3250 C   0  0  0  0  0  0  0  0  0  0  0  0
    1.4097    1.9963   -0.1916 N   0  0  0  0  0  0  0  0  0  0  0  0
    0.7391   -3.8465   -0.3004 H   0  0  0  0  0  0  0  0  0  0  0  0
    2.4482   -4.3235   -0.3189 H   0  0  0  0  0  0  0  0  0  0  0  0
    1.4780   -4.5516    1.1431 H   0  0  0  0  0  0  0  0  0  0  0  0
    1.2311   -2.1503    1.4710 H   0  0  0  0  0  0  0  0  0  0  0  0
    4.1689   -2.9050    0.9974 H   0  0  0  0  0  0  0  0  0  0  0  0
    3.5909   -1.5732    2.0162 H   0  0  0  0  0  0  0  0  0  0  0  0
    3.2308   -3.2384    2.4447 H   0  0  0  0  0  0  0  0  0  0  0  0
    1.1815   -1.5360   -0.9732 H   0  0  0  0  0  0  0  0  0  0  0  0
    4.2495   -1.6720   -0.8713 H   0  0  0  0  0  0  0  0  0  0  0  0
    3.1811   -2.7199   -1.8349 H   0  0  0  0  0  0  0  0  0  0  0  0
    3.9925   -0.9877   -3.0263 H   0  0  0  0  0  0  0  0  0  0  0  0
    2.9715    0.4312   -0.3321 H   0  0  0  0  0  0  0  0  0  0  0  0
   -3.1901    1.1501   -0.1219 H   0  0  0  0  0  0  0  0  0  0  0  0
   -4.8850   -0.4378   -0.5700 H   0  0  0  0  0  0  0  0  0  0  0  0
   -5.7997   -2.6864   -0.2054 H   0  0  0  0  0  0  0  0  0  0  0  0
   -6.1867   -5.6835    1.3391 H   0  0  0  0  0  0  0  0  0  0  0  0
   -1.2491   -1.6043    1.4094 H   0  0  0  0  0  0  0  0  0  0  0  0
   -1.4606    5.4010   -0.8837 H   0  0  0  0  0  0  0  0  0  0  0  0
    2.2505    4.3597   -0.7660 H   0  0  0  0  0  0  0  0  0  0  0  0
    1.4995    5.5699    1.2664 H   0  0  0  0  0  0  0  0  0  0  0  0
    0.5491    6.6931    0.2654 H   0  0  0  0  0  0  0  0  0  0  0  0
    2.3165    6.6644    0.1296 H   0  0  0  0  0  0  0  0  0  0  0  0
    2.2188    6.1886   -2.4024 H   0  0  0  0  0  0  0  0  0  0  0  0
    1.2301    4.8486   -2.9950 H   0  0  0  0  0  0  0  0  0  0  0  0
    0.4543    6.2856   -2.3291 H   0  0  0  0  0  0  0  0  0  0  0  0
  1  2  1  0
  2  3  1  0
  2  4  1  0
  4  5  1  0
  5  6  1  0
  4  7  1  0
  7  8  1  0
  8  9  2  0
  9 10  1  0
 10 11  1  0
 11 12  1  0
 12 13  2  0
 13 14  1  0
 14 15  2  0
 15 16  1  0
 16 17  2  0
 16 18  1  0
 15 19  1  0
 19 20  1  0
 19 21  2  0
 10 22  2  0
 22 23  1  0
 23 24  2  0
 24 25  1  0
 25 26  1  0
 26 27  1  0
 26 28  1  0
 25 29  1  0
 29 30  2  0
 30  8  1  0
 21 12  1  0
 29 22  1  0
  1 31  1  0
  1 32  1  0
  1 33  1  0
  2 34  1  0
  3 35  1  0
  3 36  1  0
  3 37  1  0
  4 38  1  6
  5 39  1  0
  5 40  1  0
  6 41  1  0
  7 42  1  0
 11 43  1  0
 13 44  1  0
 14 45  1  0
 18 46  1  0
 21 47  1  0
 24 48  1  0
 26 49  1  0
 27 50  1  0
 27 51  1  0
 27 52  1  0
 28 53  1  0
 28 54  1  0
 28 55  1  0
M  END
$$$$
