
     RDKit          3D

 54 56  0  0  0  0  0  0  0  0999 V2000
    2.1065    1.4358    0.6950 C   0  0  0  0  0  0  0  0  0  0  0  0
    1.6818    0.0813    0.1906 C   0  0  0  0  0  0  0  0  0  0  0  0
    2.5140   -0.8524   -0.3123 C   0  0  0  0  0  0  0  0  0  0  0  0
    3.9609   -0.6856   -0.4588 C   0  0  0  0  0  0  0  0  0  0  0  0
    4.4839    0.0263   -1.5431 C   0  0  0  0  0  0  0  0  0  0  0  0
    5.8655    0.1886   -1.6761 C   0  0  0  0  0  0  0  0  0  0  0  0
    6.7337   -0.3597   -0.7237 C   0  0  0  0  0  0  0  0  0  0  0  0
    8.1917   -0.1588   -0.9043 C   0  0  0  0  0  0  0  0  0  0  0  0
    8.7205    0.4515   -1.8149 O   0  0  0  0  0  0  0  0  0  0  0  0
    8.9232   -0.7326    0.0671 O   0  0  0  0  0  0  0  0  0  0  0  0
    6.2101   -1.0733    0.3613 C   0  0  0  0  0  0  0  0  0  0  0  0
    4.8273   -1.2351    0.4917 C   0  0  0  0  0  0  0  0  0  0  0  0
    0.2316   -0.2120    0.2588 C   0  0  0  0  0  0  0  0  0  0  0  0
   -0.2387   -1.3710    0.8717 C   0  0  0  0  0  0  0  0  0  0  0  0
   -1.6097   -1.6211    0.9535 C   0  0  0  0  0  0  0  0  0  0  0  0
   -2.5635   -0.7220    0.4316 C   0  0  0  0  0  0  0  0  0  0  0  0
   -2.1005    0.4410   -0.2270 C   0  0  0  0  0  0  0  0  0  0  0  0
   -0.7056    0.6803   -0.2773 C   0  0  0  0  0  0  0  0  0  0  0  0
   -3.0562    1.4681   -0.8513 C   0  0  0  0  0  0  0  0  0  0  0  0
   -2.6052    1.8866   -2.2712 C   0  0  0  0  0  0  0  0  0  0  0  0
   -3.0798    2.7280    0.0423 C   0  0  0  0  0  0  0  0  0  0  0  0
   -4.4859    0.9017   -0.9987 C   0  0  0  0  0  0  0  0  0  0  0  0
   -4.9413    0.1726    0.2539 C   0  0  0  0  0  0  0  0  0  0  0  0
   -4.0560   -1.0552    0.5614 C   0  0  0  0  0  0  0  0  0  0  0  0
   -4.4233   -1.5114    1.9940 C   0  0  0  0  0  0  0  0  0  0  0  0
   -4.3924   -2.2050   -0.4142 C   0  0  0  0  0  0  0  0  0  0  0  0
    1.8572    2.2172   -0.0303 H   0  0  0  0  0  0  0  0  0  0  0  0
    1.6062    1.6689    1.6421 H   0  0  0  0  0  0  0  0  0  0  0  0
    3.1817    1.4952    0.8895 H   0  0  0  0  0  0  0  0  0  0  0  0
    2.1374   -1.8102   -0.6674 H   0  0  0  0  0  0  0  0  0  0  0  0
    3.8194    0.4580   -2.2886 H   0  0  0  0  0  0  0  0  0  0  0  0
    6.2606    0.7448   -2.5241 H   0  0  0  0  0  0  0  0  0  0  0  0
    9.8473   -0.5204   -0.1813 H   0  0  0  0  0  0  0  0  0  0  0  0
    6.8675   -1.5055    1.1115 H   0  0  0  0  0  0  0  0  0  0  0  0
    4.4315   -1.7866    1.3414 H   0  0  0  0  0  0  0  0  0  0  0  0
    0.4537   -2.0870    1.3077 H   0  0  0  0  0  0  0  0  0  0  0  0
   -1.9235   -2.5437    1.4361 H   0  0  0  0  0  0  0  0  0  0  0  0
   -0.3375    1.5854   -0.7547 H   0  0  0  0  0  0  0  0  0  0  0  0
   -1.6622    2.4435   -2.2666 H   0  0  0  0  0  0  0  0  0  0  0  0
   -2.4685    1.0107   -2.9168 H   0  0  0  0  0  0  0  0  0  0  0  0
   -3.3516    2.5367   -2.7432 H   0  0  0  0  0  0  0  0  0  0  0  0
   -2.1012    3.2224    0.0667 H   0  0  0  0  0  0  0  0  0  0  0  0
   -3.3418    2.4908    1.0794 H   0  0  0  0  0  0  0  0  0  0  0  0
   -3.8043    3.4620   -0.3282 H   0  0  0  0  0  0  0  0  0  0  0  0
   -4.5374    0.2169   -1.8544 H   0  0  0  0  0  0  0  0  0  0  0  0
   -5.1926    1.7112   -1.2227 H   0  0  0  0  0  0  0  0  0  0  0  0
   -5.9872   -0.1370    0.1305 H   0  0  0  0  0  0  0  0  0  0  0  0
   -4.9347    0.8699    1.1012 H   0  0  0  0  0  0  0  0  0  0  0  0
   -5.5071   -1.6426    2.0971 H   0  0  0  0  0  0  0  0  0  0  0  0
   -4.1031   -0.7736    2.7394 H   0  0  0  0  0  0  0  0  0  0  0  0
   -3.9647   -2.4698    2.2595 H   0  0  0  0  0  0  0  0  0  0  0  0
   -3.8627   -3.1272   -0.1469 H   0  0  0  0  0  0  0  0  0  0  0  0
   -4.1103   -1.9646   -1.4450 H   0  0  0  0  0  0  0  0  0  0  0  0
   -5.4644   -2.4321   -0.4030 H   0  0  0  0  0  0  0  0  0  0  0  0
  1  2  1  0
  2  3  2  0
  3  4  1  0
  4  5  2  0
  5  6  1  0
  6  7  2  0
  7  8  1  0
  8  9  2  0
  8 10  1  0
  7 11  1  0
 11 12  2  0
  2 13  1  0
 13 14  2  0
 14 15  1  0
 15 16  2  0
 16 17  1  0
 17 18  2  0
 17 19  1  0
 19 20  1  0
 19 21  1  0
 19 22  1  0
 22 23  1  0
 23 24  1  0
 24 25  1  0
 24 26  1  0
 12  4  1  0
 18 13  1  0
 24 16  1  0
  1 27  1  0
  1 28  1  0
  1 29  1  0
  3 30  1  0
  5 31  1  0
  6 32  1  0
 10 33  1  0
 11 34  1  0
 12 35  1  0
 14 36  1  0
 15 37  1  0
 18 38  1  0
 20 39  1  0
 20 40  1  0
 20 41  1  0
 21 42  1  0
 21 43  1  0
 21 44  1  0
 22 45  1  0
 22 46  1  0
 23 47  1  0
 23 48  1  0
 25 49  1  0
 25 50  1  0
 25 51  1  0
 26 52  1  0
 26 53  1  0
 26 54  1  0
M  END
$$$$
