
     RDKit          3D

 70 73  0  0  0  0  0  0  0  0999 V2000
   -6.5965    0.8335   -1.5304 N   0  0  0  0  0  0  0  0  0  0  0  0
   -7.4302    0.2812   -0.4899 C   0  0  0  0  0  0  0  0  0  0  0  0
   -6.8044   -0.2008    0.6870 C   0  0  0  0  0  0  0  0  0  0  0  0
   -5.3960   -0.1801    0.8075 N   0  0  0  0  0  0  0  0  0  0  0  0
   -4.8848   -1.2197    0.3286 N   0  0  0  0  0  0  0  0  0  0  0  0
   -3.4819   -1.1224    0.4201 C   0  0  0  0  0  0  0  0  0  0  0  0
   -2.7450   -0.5419   -0.6182 C   0  0  0  0  0  0  0  0  0  0  0  0
   -1.3553   -0.4135   -0.5136 C   0  0  0  0  0  0  0  0  0  0  0  0
   -0.6699   -0.8672    0.6267 C   0  0  0  0  0  0  0  0  0  0  0  0
    0.7830   -0.6798    0.7340 C   0  0  0  0  0  0  0  0  0  0  0  0
    1.6718   -1.7408    0.5145 C   0  0  0  0  0  0  0  0  0  0  0  0
    3.0607   -1.5300    0.5251 C   0  0  0  0  0  0  0  0  0  0  0  0
    3.5992   -0.2548    0.7569 C   0  0  0  0  0  0  0  0  0  0  0  0
    4.9636    0.0874    0.6551 N   0  0  0  0  0  0  0  0  0  0  0  0
    5.7193   -0.8683    0.3669 N   0  0  0  0  0  0  0  0  0  0  0  0
    6.9370   -0.3523   -0.1481 C   0  0  0  0  0  0  0  0  0  0  0  0
    7.1083   -0.3012   -1.5281 C   0  0  0  0  0  0  0  0  0  0  0  0
    8.2880    0.2103   -2.0859 C   0  0  0  0  0  0  0  0  0  0  0  0
    8.3996    0.2195   -3.9101 S   0  0  0  0  0  6  0  0  0  0  0  0
    9.6497   -0.4923   -4.1695 O   0  0  0  0  0  0  0  0  0  0  0  0
    8.4053    1.6503   -4.2102 O   0  0  0  0  0  0  0  0  0  0  0  0
    7.1997   -0.4978   -4.3347 O   0  0  0  0  0  1  0  0  0  0  0  0
    9.3625    0.6612   -1.2704 C   0  0  0  0  0  0  0  0  0  0  0  0
   10.5840    1.1886   -1.7733 C   0  0  0  0  0  0  0  0  0  0  0  0
   11.6398    1.5591   -0.9393 C   0  0  0  0  0  0  0  0  0  0  0  0
   11.5016    1.4324    0.4329 C   0  0  0  0  0  0  0  0  0  0  0  0
   10.3025    0.9531    0.9634 C   0  0  0  0  0  0  0  0  0  0  0  0
    9.2083    0.5743    0.1436 C   0  0  0  0  0  0  0  0  0  0  0  0
    7.9730    0.1157    0.6967 C   0  0  0  0  0  0  0  0  0  0  0  0
    7.8006    0.0103    2.1205 N   0  0  0  0  0  0  0  0  0  0  0  0
    2.7072    0.7909    1.0178 C   0  0  0  0  0  0  0  0  0  0  0  0
    1.3188    0.5888    1.0018 C   0  0  0  0  0  0  0  0  0  0  0  0
   -1.4098   -1.4822    1.6477 C   0  0  0  0  0  0  0  0  0  0  0  0
   -2.8032   -1.6070    1.5455 C   0  0  0  0  0  0  0  0  0  0  0  0
   -7.5882   -0.6016    1.7643 C   0  0  0  0  0  0  0  0  0  0  0  0
   -8.9843   -0.4807    1.7022 C   0  0  0  0  0  0  0  0  0  0  0  0
   -9.9142   -0.9961    3.1849 S   0  0  0  0  0  6  0  0  0  0  0  0
   -8.9415   -1.7519    3.9699 O   0  0  0  0  0  0  0  0  0  0  0  0
  -10.9945   -1.8116    2.6385 O   0  0  0  0  0  0  0  0  0  0  0  0
  -10.3012    0.2877    3.7555 O   0  0  0  0  0  1  0  0  0  0  0  0
   -9.6469    0.0540    0.5563 C   0  0  0  0  0  0  0  0  0  0  0  0
  -11.0515    0.2594    0.4422 C   0  0  0  0  0  0  0  0  0  0  0  0
  -11.6468    0.7861   -0.7069 C   0  0  0  0  0  0  0  0  0  0  0  0
  -10.8512    1.1440   -1.7819 C   0  0  0  0  0  0  0  0  0  0  0  0
   -9.4676    0.9755   -1.6990 C   0  0  0  0  0  0  0  0  0  0  0  0
   -8.8423    0.4387   -0.5502 C   0  0  0  0  0  0  0  0  0  0  0  0
    0.0000    0.0000    0.0000 Na  0  0  0  0  0 15  0  0  0  0  0  0
    0.0000    0.0000    0.0000 Na  0  0  0  0  0 15  0  0  0  0  0  0
   -5.6751    0.4051   -1.4275 H   0  0  0  0  0  0  0  0  0  0  0  0
   -6.5036    1.8330   -1.3495 H   0  0  0  0  0  0  0  0  0  0  0  0
   -3.2562   -0.1760   -1.5054 H   0  0  0  0  0  0  0  0  0  0  0  0
   -0.8028    0.0549   -1.3298 H   0  0  0  0  0  0  0  0  0  0  0  0
    1.2927   -2.7398    0.2922 H   0  0  0  0  0  0  0  0  0  0  0  0
    3.7118   -2.3708    0.3068 H   0  0  0  0  0  0  0  0  0  0  0  0
    6.3084   -0.6573   -2.1691 H   0  0  0  0  0  0  0  0  0  0  0  0
   10.7308    1.2947   -2.8491 H   0  0  0  0  0  0  0  0  0  0  0  0
   12.5688    1.9316   -1.3710 H   0  0  0  0  0  0  0  0  0  0  0  0
   12.3239    1.7027    1.0924 H   0  0  0  0  0  0  0  0  0  0  0  0
   10.2384    0.8571    2.0452 H   0  0  0  0  0  0  0  0  0  0  0  0
    6.8125   -0.1609    2.3100 H   0  0  0  0  0  0  0  0  0  0  0  0
    8.1162    0.8638    2.5741 H   0  0  0  0  0  0  0  0  0  0  0  0
    3.0941    1.7963    1.1886 H   0  0  0  0  0  0  0  0  0  0  0  0
    0.6570    1.4369    1.1701 H   0  0  0  0  0  0  0  0  0  0  0  0
   -0.9070   -1.8485    2.5378 H   0  0  0  0  0  0  0  0  0  0  0  0
   -3.3715   -2.0663    2.3545 H   0  0  0  0  0  0  0  0  0  0  0  0
   -7.1103   -0.9757    2.6664 H   0  0  0  0  0  0  0  0  0  0  0  0
  -11.7153    0.0133    1.2723 H   0  0  0  0  0  0  0  0  0  0  0  0
  -12.7304    0.9070   -0.7432 H   0  0  0  0  0  0  0  0  0  0  0  0
  -11.2989    1.5458   -2.6861 H   0  0  0  0  0  0  0  0  0  0  0  0
   -8.8598    1.2453   -2.5628 H   0  0  0  0  0  0  0  0  0  0  0  0
  1  2  1  0
  2  3  2  0
  3  4  1  0
  4  5  2  3
  5  6  1  0
  6  7  2  0
  7  8  1  0
  8  9  2  0
  9 10  1  0
 10 11  2  0
 11 12  1  0
 12 13  2  0
 13 14  1  0
 14 15  2  3
 15 16  1  0
 16 17  2  0
 17 18  1  0
 18 19  1  0
 19 20  2  0
 19 21  2  0
 19 22  1  0
 18 23  2  0
 23 24  1  0
 24 25  2  0
 25 26  1  0
 26 27  2  0
 27 28  1  0
 28 29  2  0
 29 30  1  0
 13 31  1  0
 31 32  2  0
  9 33  1  0
 33 34  2  0
  3 35  1  0
 35 36  2  0
 36 37  1  0
 37 38  2  0
 37 39  2  0
 37 40  1  0
 36 41  1  0
 41 42  2  0
 42 43  1  0
 43 44  2  0
 44 45  1  0
 45 46  2  0
 46  2  1  0
 34  6  1  0
 46 41  1  0
 32 10  1  0
 29 16  1  0
 28 23  1  0
  1 49  1  0
  1 50  1  0
  7 51  1  0
  8 52  1  0
 11 53  1  0
 12 54  1  0
 17 55  1  0
 24 56  1  0
 25 57  1  0
 26 58  1  0
 27 59  1  0
 30 60  1  0
 30 61  1  0
 31 62  1  0
 32 63  1  0
 33 64  1  0
 34 65  1  0
 35 66  1  0
 42 67  1  0
 43 68  1  0
 44 69  1  0
 45 70  1  0
M  CHG  4  22  -1  40  -1  47   1  48   1
M  END
$$$$
