
     RDKit          3D

 29 29  0  0  0  0  0  0  0  0999 V2000
    6.6947   -0.1224   -0.1013 O   0  0  0  0  0  0  0  0  0  0  0  0
    5.7332   -0.7202   -0.6646 C   0  0  0  0  0  0  0  0  0  0  0  0
    5.7455   -1.6934   -1.4674 O   0  0  0  0  0  1  0  0  0  0  0  0
    4.3611   -0.1517   -0.2992 C   0  0  0  0  0  0  0  0  0  0  0  0
    3.2161   -0.6766   -0.7632 C   0  0  0  0  0  0  0  0  0  0  0  0
    1.8763   -0.1600   -0.4572 C   0  0  0  0  0  0  0  0  0  0  0  0
    0.8669   -0.2828   -1.4184 C   0  0  0  0  0  0  0  0  0  0  0  0
   -0.4253    0.1879   -1.1645 C   0  0  0  0  0  0  0  0  0  0  0  0
   -0.7385    0.7801    0.0668 C   0  0  0  0  0  0  0  0  0  0  0  0
   -2.1163    1.3235    0.3363 C   0  0  0  0  0  0  0  0  0  0  0  0
   -3.1272    0.2809    0.3784 N   0  0  0  0  0  0  0  0  0  0  0  0
   -4.1321    0.0879   -0.5303 C   0  0  0  0  0  0  0  0  0  0  0  0
   -4.8746   -0.9515   -0.0207 C   0  0  0  0  0  0  0  0  0  0  0  0
   -4.3578   -1.3807    1.1741 N   0  0  0  0  0  0  0  0  0  0  0  0
   -3.2993   -0.6290    1.3833 C   0  0  0  0  0  0  0  0  0  0  0  0
    0.2660    0.8816    1.0389 C   0  0  0  0  0  0  0  0  0  0  0  0
    1.5572    0.4112    0.7793 C   0  0  0  0  0  0  0  0  0  0  0  0
    0.0000    0.0000    0.0000 Na  0  0  0  0  0 15  0  0  0  0  0  0
    4.3763    0.7168    0.3502 H   0  0  0  0  0  0  0  0  0  0  0  0
    3.2659   -1.5334   -1.4340 H   0  0  0  0  0  0  0  0  0  0  0  0
    1.0896   -0.7374   -2.3816 H   0  0  0  0  0  0  0  0  0  0  0  0
   -1.1804    0.0861   -1.9405 H   0  0  0  0  0  0  0  0  0  0  0  0
   -2.3931    2.0441   -0.4423 H   0  0  0  0  0  0  0  0  0  0  0  0
   -2.1624    1.8498    1.2972 H   0  0  0  0  0  0  0  0  0  0  0  0
   -4.2320    0.6791   -1.4292 H   0  0  0  0  0  0  0  0  0  0  0  0
   -5.7566   -1.4103   -0.4478 H   0  0  0  0  0  0  0  0  0  0  0  0
   -2.6332   -0.6987    2.2338 H   0  0  0  0  0  0  0  0  0  0  0  0
    0.0625    1.3290    2.0088 H   0  0  0  0  0  0  0  0  0  0  0  0
    2.3174    0.4902    1.5535 H   0  0  0  0  0  0  0  0  0  0  0  0
  1  2  2  0
  2  3  1  0
  2  4  1  0
  4  5  2  0
  5  6  1  0
  6  7  2  0
  7  8  1  0
  8  9  2  0
  9 10  1  0
 10 11  1  0
 11 12  1  0
 12 13  2  0
 13 14  1  0
 14 15  2  0
  9 16  1  0
 16 17  2  0
 17  6  1  0
 15 11  1  0
  4 19  1  0
  5 20  1  0
  7 21  1  0
  8 22  1  0
 10 23  1  0
 10 24  1  0
 12 25  1  0
 13 26  1  0
 15 27  1  0
 16 28  1  0
 17 29  1  0
M  CHG  2   3  -1  18   1
M  END
$$$$
