
     RDKit          3D

 56 58  0  0  0  0  0  0  0  0999 V2000
    7.8214   -1.2779    1.1449 C   0  0  0  0  0  0  0  0  0  0  0  0
    6.9315   -0.7441    0.0614 C   0  0  0  0  0  0  0  0  0  0  0  0
    7.3987    0.2373   -0.8221 C   0  0  0  0  0  0  0  0  0  0  0  0
    6.5589    0.7605   -1.8077 C   0  0  0  0  0  0  0  0  0  0  0  0
    5.2450    0.3086   -1.9092 C   0  0  0  0  0  0  0  0  0  0  0  0
    4.3713    0.8635   -2.8835 N   0  0  0  0  0  0  0  0  0  0  0  0
    3.5468    2.2861   -2.4856 S   0  0  0  0  0  6  0  0  0  0  0  0
    2.9619    2.7624   -3.7228 O   0  0  0  0  0  0  0  0  0  0  0  0
    4.4037    3.1432   -1.6957 O   0  0  0  0  0  0  0  0  0  0  0  0
    2.2191    1.6957   -1.4665 C   0  0  0  0  0  0  0  0  0  0  0  0
    1.0584    1.2029   -2.0637 C   0  0  0  0  0  0  0  0  0  0  0  0
    0.0069    0.7506   -1.2621 C   0  0  0  0  0  0  0  0  0  0  0  0
    0.1095    0.7957    0.1332 C   0  0  0  0  0  0  0  0  0  0  0  0
   -0.8589    0.3715    1.0033 O   0  0  0  0  0  0  0  0  0  0  0  0
   -2.1063   -0.0408    0.4611 C   0  0  0  0  0  0  0  0  0  0  0  0
   -3.0873   -0.4406    1.5731 C   0  0  0  0  0  0  0  0  0  0  0  0
   -2.7329   -0.5480    2.7483 O   0  0  0  0  0  0  0  0  0  0  0  0
   -4.4027   -0.6789    1.1857 N   0  0  0  0  0  0  0  0  0  0  0  0
   -4.9020   -0.5995   -0.1906 C   0  0  0  0  0  0  0  0  0  0  0  0
   -6.2009   -1.4029   -0.3951 C   0  0  0  0  0  0  0  0  0  0  0  0
   -7.2914   -1.0889    0.5459 N   0  0  0  0  0  0  0  0  0  0  0  0
   -8.3084   -0.2293   -0.0528 C   0  0  0  0  0  0  0  0  0  0  0  0
   -6.8003   -0.5138    1.8155 C   0  0  0  0  0  0  0  0  0  0  0  0
   -5.3977   -1.0058    2.2121 C   0  0  0  0  0  0  0  0  0  0  0  0
    1.2799    1.3017    0.7323 C   0  0  0  0  0  0  0  0  0  0  0  0
    1.4104    1.3636    2.2304 C   0  0  0  0  0  0  0  0  0  0  0  0
    2.3300    1.7622   -0.0760 C   0  0  0  0  0  0  0  0  0  0  0  0
    4.7624   -0.6520   -1.0234 C   0  0  0  0  0  0  0  0  0  0  0  0
    5.6029   -1.1756   -0.0390 C   0  0  0  0  0  0  0  0  0  0  0  0
    7.6959   -0.6868    2.0571 H   0  0  0  0  0  0  0  0  0  0  0  0
    8.8729   -1.2410    0.8419 H   0  0  0  0  0  0  0  0  0  0  0  0
    7.5834   -2.3241    1.3637 H   0  0  0  0  0  0  0  0  0  0  0  0
    8.4181    0.6084   -0.7419 H   0  0  0  0  0  0  0  0  0  0  0  0
    6.9325    1.5343   -2.4724 H   0  0  0  0  0  0  0  0  0  0  0  0
    4.7134    0.9060   -3.8426 H   0  0  0  0  0  0  0  0  0  0  0  0
    0.9661    1.1667   -3.1471 H   0  0  0  0  0  0  0  0  0  0  0  0
   -0.8772    0.3675   -1.7604 H   0  0  0  0  0  0  0  0  0  0  0  0
   -2.5504    0.7868   -0.1033 H   0  0  0  0  0  0  0  0  0  0  0  0
   -1.9581   -0.9230   -0.1719 H   0  0  0  0  0  0  0  0  0  0  0  0
   -4.1358   -0.9637   -0.8816 H   0  0  0  0  0  0  0  0  0  0  0  0
   -5.0742    0.4607   -0.4107 H   0  0  0  0  0  0  0  0  0  0  0  0
   -6.5301   -1.3117   -1.4376 H   0  0  0  0  0  0  0  0  0  0  0  0
   -5.9614   -2.4653   -0.2550 H   0  0  0  0  0  0  0  0  0  0  0  0
   -9.1239   -0.0452    0.6555 H   0  0  0  0  0  0  0  0  0  0  0  0
   -8.7564   -0.7152   -0.9266 H   0  0  0  0  0  0  0  0  0  0  0  0
   -7.8976    0.7366   -0.3677 H   0  0  0  0  0  0  0  0  0  0  0  0
   -6.7588    0.5819    1.7448 H   0  0  0  0  0  0  0  0  0  0  0  0
   -7.5102   -0.7616    2.6128 H   0  0  0  0  0  0  0  0  0  0  0  0
   -5.3923   -2.0954    2.3364 H   0  0  0  0  0  0  0  0  0  0  0  0
   -5.1094   -0.5621    3.1712 H   0  0  0  0  0  0  0  0  0  0  0  0
    2.3910    1.7467    2.5325 H   0  0  0  0  0  0  0  0  0  0  0  0
    1.2996    0.3640    2.6633 H   0  0  0  0  0  0  0  0  0  0  0  0
    0.6485    2.0292    2.6491 H   0  0  0  0  0  0  0  0  0  0  0  0
    3.2350    2.1616    0.3794 H   0  0  0  0  0  0  0  0  0  0  0  0
    3.7363   -1.0026   -1.0919 H   0  0  0  0  0  0  0  0  0  0  0  0
    5.2131   -1.9206    0.6514 H   0  0  0  0  0  0  0  0  0  0  0  0
  1  2  1  0
  2  3  2  0
  3  4  1  0
  4  5  2  0
  5  6  1  0
  6  7  1  0
  7  8  2  0
  7  9  2  0
  7 10  1  0
 10 11  2  0
 11 12  1  0
 12 13  2  0
 13 14  1  0
 14 15  1  0
 15 16  1  0
 16 17  2  0
 16 18  1  0
 18 19  1  0
 19 20  1  0
 20 21  1  0
 21 22  1  0
 21 23  1  0
 23 24  1  0
 13 25  1  0
 25 26  1  0
 25 27  2  0
  5 28  1  0
 28 29  2  0
 29  2  1  0
 27 10  1  0
 24 18  1  0
  1 30  1  0
  1 31  1  0
  1 32  1  0
  3 33  1  0
  4 34  1  0
  6 35  1  0
 11 36  1  0
 12 37  1  0
 15 38  1  0
 15 39  1  0
 19 40  1  0
 19 41  1  0
 20 42  1  0
 20 43  1  0
 22 44  1  0
 22 45  1  0
 22 46  1  0
 23 47  1  0
 23 48  1  0
 24 49  1  0
 24 50  1  0
 26 51  1  0
 26 52  1  0
 26 53  1  0
 27 54  1  0
 28 55  1  0
 29 56  1  0
M  END
$$$$
