
     RDKit          3D

 49 51  0  0  0  0  0  0  0  0999 V2000
   -3.4566   -1.7547   -2.3864 C   0  0  0  0  0  0  0  0  0  0  0  0
   -2.0579   -1.6312   -1.8377 C   0  0  0  0  0  0  0  0  0  0  0  0
   -1.1245   -2.1731   -2.4318 O   0  0  0  0  0  0  0  0  0  0  0  0
   -1.8747   -0.9052   -0.6591 N   0  0  0  0  0  0  0  0  0  0  0  0
   -2.9654   -0.1859    0.0417 C   0  0  0  0  0  0  0  0  0  0  0  0
   -2.7652    1.3321    0.0493 C   0  0  0  0  0  0  0  0  0  0  0  0
   -3.9622    2.0257    0.6978 C   0  0  0  0  0  0  0  0  0  0  0  0
   -4.6734    1.1857    1.6098 O   0  0  0  0  0  0  0  0  0  0  0  0
   -3.8135    0.3419    2.3665 C   0  0  0  0  0  0  0  0  0  0  0  0
   -3.2043   -0.7237    1.4622 C   0  0  0  0  0  0  0  0  0  0  0  0
   -0.4940   -0.7712   -0.1331 C   0  0  0  0  0  0  0  0  0  0  0  0
    0.1243   -2.1275    0.2785 C   0  0  0  0  0  0  0  0  0  0  0  0
    1.5486   -2.3096   -0.2430 C   0  0  0  0  0  0  0  0  0  0  0  0
    2.3987   -1.0659    0.0031 C   0  0  0  0  0  0  0  0  0  0  0  0
    1.7822    0.1639   -0.5031 N   0  0  0  0  0  0  0  0  0  0  0  0
    2.4933    1.3361   -0.7608 C   0  0  0  0  0  0  0  0  0  0  0  0
    2.0450    2.2737   -1.4158 O   0  0  0  0  0  0  0  0  0  0  0  0
    3.8576    1.4793   -0.2250 C   0  0  0  0  0  0  0  0  0  0  0  0
    4.1394    1.3795    1.1373 C   0  0  0  0  0  0  0  0  0  0  0  0
    5.4521    1.5516    1.5699 C   0  0  0  0  0  0  0  0  0  0  0  0
    6.4277    1.8289    0.6228 C   0  0  0  0  0  0  0  0  0  0  0  0
    6.1790    1.9518   -0.7003 N   0  0  0  0  0  0  0  0  0  0  0  0
    4.8918    1.7900   -1.0953 C   0  0  0  0  0  0  0  0  0  0  0  0
    0.4329    0.0428   -1.0623 C   0  0  0  0  0  0  0  0  0  0  0  0
   -4.1127   -2.2315   -1.6535 H   0  0  0  0  0  0  0  0  0  0  0  0
   -3.8380   -0.7724   -2.6766 H   0  0  0  0  0  0  0  0  0  0  0  0
   -3.4382   -2.3867   -3.2801 H   0  0  0  0  0  0  0  0  0  0  0  0
   -3.8988   -0.3544   -0.5026 H   0  0  0  0  0  0  0  0  0  0  0  0
   -2.6064    1.7227   -0.9626 H   0  0  0  0  0  0  0  0  0  0  0  0
   -1.8644    1.5938    0.6176 H   0  0  0  0  0  0  0  0  0  0  0  0
   -4.6777    2.3331   -0.0723 H   0  0  0  0  0  0  0  0  0  0  0  0
   -3.6435    2.9330    1.2228 H   0  0  0  0  0  0  0  0  0  0  0  0
   -4.4010   -0.1309    3.1600 H   0  0  0  0  0  0  0  0  0  0  0  0
   -3.0375    0.9469    2.8511 H   0  0  0  0  0  0  0  0  0  0  0  0
   -3.8899   -1.5779    1.3888 H   0  0  0  0  0  0  0  0  0  0  0  0
   -2.2972   -1.1150    1.9341 H   0  0  0  0  0  0  0  0  0  0  0  0
   -0.5611   -0.1939    0.7982 H   0  0  0  0  0  0  0  0  0  0  0  0
    0.1430   -2.1782    1.3755 H   0  0  0  0  0  0  0  0  0  0  0  0
   -0.4906   -2.9776   -0.0378 H   0  0  0  0  0  0  0  0  0  0  0  0
    2.0121   -3.1785    0.2377 H   0  0  0  0  0  0  0  0  0  0  0  0
    1.5165   -2.5249   -1.3182 H   0  0  0  0  0  0  0  0  0  0  0  0
    3.3834   -1.1927   -0.4595 H   0  0  0  0  0  0  0  0  0  0  0  0
    2.5449   -0.9379    1.0809 H   0  0  0  0  0  0  0  0  0  0  0  0
    3.3479    1.1901    1.8556 H   0  0  0  0  0  0  0  0  0  0  0  0
    5.7094    1.4819    2.6212 H   0  0  0  0  0  0  0  0  0  0  0  0
    7.4652    1.9718    0.9127 H   0  0  0  0  0  0  0  0  0  0  0  0
    4.7135    1.9167   -2.1600 H   0  0  0  0  0  0  0  0  0  0  0  0
    0.0022    1.0378   -1.2227 H   0  0  0  0  0  0  0  0  0  0  0  0
    0.5380   -0.4101   -2.0539 H   0  0  0  0  0  0  0  0  0  0  0  0
  1  2  1  0
  2  3  2  0
  2  4  1  0
  4  5  1  0
  5  6  1  0
  6  7  1  0
  7  8  1  0
  8  9  1  0
  9 10  1  0
  4 11  1  0
 11 12  1  0
 12 13  1  0
 13 14  1  0
 14 15  1  0
 15 16  1  0
 16 17  2  0
 16 18  1  0
 18 19  2  0
 19 20  1  0
 20 21  2  0
 21 22  1  0
 22 23  2  0
 15 24  1  0
 10  5  1  0
 24 11  1  0
 23 18  1  0
  1 25  1  0
  1 26  1  0
  1 27  1  0
  5 28  1  0
  6 29  1  0
  6 30  1  0
  7 31  1  0
  7 32  1  0
  9 33  1  0
  9 34  1  0
 10 35  1  0
 10 36  1  0
 11 37  1  0
 12 38  1  0
 12 39  1  0
 13 40  1  0
 13 41  1  0
 14 42  1  0
 14 43  1  0
 19 44  1  0
 20 45  1  0
 21 46  1  0
 23 47  1  0
 24 48  1  0
 24 49  1  0
M  END
$$$$
