
     RDKit          3D

 46 49  0  0  0  0  0  0  0  0999 V2000
   -6.8586    2.9066    0.3474 C   0  0  0  0  0  0  0  0  0  0  0  0
   -5.8674    1.7826    0.3059 C   0  0  0  0  0  0  0  0  0  0  0  0
   -4.5012    2.0537    0.2438 C   0  0  0  0  0  0  0  0  0  0  0  0
   -3.5701    1.0073    0.2061 C   0  0  0  0  0  0  0  0  0  0  0  0
   -3.9653   -0.3463    0.2306 C   0  0  0  0  0  0  0  0  0  0  0  0
   -2.9656   -1.3912    0.1933 N   0  0  0  0  0  0  0  0  0  0  0  0
   -1.6792   -0.8947    0.1044 N   0  0  0  0  0  0  0  0  0  0  0  0
   -0.6835   -1.7085   -0.0696 C   0  0  0  0  0  0  0  0  0  0  0  0
    0.6550   -1.1322   -0.0800 C   0  0  0  0  0  0  0  0  0  0  0  0
    1.7763   -1.8547    0.0811 N   0  0  0  0  0  0  0  0  0  0  0  0
    2.7981   -0.9108    0.0361 O   0  0  0  0  0  0  0  0  0  0  0  0
    2.2022    0.3052   -0.1295 C   0  0  0  0  0  0  0  0  0  0  0  0
    3.0189    1.5042   -0.2024 C   0  0  0  0  0  0  0  0  0  0  0  0
    2.5634    2.6403   -0.3260 O   0  0  0  0  0  0  0  0  0  0  0  0
    4.3847    1.2956   -0.1146 N   0  0  0  0  0  0  0  0  0  0  0  0
    5.2939    2.4113   -0.0118 C   0  0  0  0  0  0  0  0  0  0  0  0
    6.6753    1.9147   -0.2058 C   0  0  0  0  0  0  0  0  0  0  0  0
    7.6093    2.0814   -1.2065 C   0  0  0  0  0  0  0  0  0  0  0  0
    8.7554    1.3501   -0.8075 C   0  0  0  0  0  0  0  0  0  0  0  0
    8.4465    0.7809    0.4047 C   0  0  0  0  0  0  0  0  0  0  0  0
    7.1812    1.1076    0.7731 O   0  0  0  0  0  0  0  0  0  0  0  0
    0.8904    0.2249   -0.1942 N   0  0  0  0  0  0  0  0  0  0  0  0
   -0.9227   -3.1829   -0.2383 C   0  0  0  0  0  0  0  0  0  0  0  0
   -0.0974   -3.8847   -0.8064 O   0  0  0  0  0  0  0  0  0  0  0  0
   -2.1405   -3.6165    0.2346 N   0  0  0  0  0  0  0  0  0  0  0  0
   -2.3885   -5.0447    0.2383 C   0  0  0  0  0  0  0  0  0  0  0  0
   -3.2469   -2.7702    0.3161 C   0  0  0  0  0  0  0  0  0  0  0  0
   -4.3694   -3.2585    0.4596 O   0  0  0  0  0  0  0  0  0  0  0  0
   -5.3440   -0.5959    0.2800 C   0  0  0  0  0  0  0  0  0  0  0  0
   -6.2810    0.4500    0.3168 C   0  0  0  0  0  0  0  0  0  0  0  0
   -6.8158    3.4826   -0.5834 H   0  0  0  0  0  0  0  0  0  0  0  0
   -7.8822    2.5355    0.4685 H   0  0  0  0  0  0  0  0  0  0  0  0
   -6.6428    3.5690    1.1919 H   0  0  0  0  0  0  0  0  0  0  0  0
   -4.1435    3.0812    0.2271 H   0  0  0  0  0  0  0  0  0  0  0  0
   -2.5174    1.2820    0.1614 H   0  0  0  0  0  0  0  0  0  0  0  0
    4.7341    0.3773    0.1402 H   0  0  0  0  0  0  0  0  0  0  0  0
    5.0341    3.1654   -0.7625 H   0  0  0  0  0  0  0  0  0  0  0  0
    5.1757    2.8596    0.9804 H   0  0  0  0  0  0  0  0  0  0  0  0
    7.4761    2.6565   -2.1132 H   0  0  0  0  0  0  0  0  0  0  0  0
    9.6917    1.2498   -1.3373 H   0  0  0  0  0  0  0  0  0  0  0  0
    8.9884    0.1486    1.0945 H   0  0  0  0  0  0  0  0  0  0  0  0
   -2.8131   -5.3300   -0.7311 H   0  0  0  0  0  0  0  0  0  0  0  0
   -1.4603   -5.5979    0.4004 H   0  0  0  0  0  0  0  0  0  0  0  0
   -3.1013   -5.3058    1.0269 H   0  0  0  0  0  0  0  0  0  0  0  0
   -5.7526   -1.6007    0.2838 H   0  0  0  0  0  0  0  0  0  0  0  0
   -7.3403    0.2025    0.3550 H   0  0  0  0  0  0  0  0  0  0  0  0
  1  2  1  0
  2  3  2  0
  3  4  1  0
  4  5  2  0
  5  6  1  0
  6  7  1  0
  7  8  2  0
  8  9  1  0
  9 10  2  0
 10 11  1  0
 11 12  1  0
 12 13  1  0
 13 14  2  0
 13 15  1  0
 15 16  1  0
 16 17  1  0
 17 18  2  0
 18 19  1  0
 19 20  2  0
 20 21  1  0
 12 22  2  0
  8 23  1  0
 23 24  2  0
 23 25  1  0
 25 26  1  0
 25 27  1  0
 27 28  2  0
  5 29  1  0
 29 30  2  0
 30  2  1  0
 27  6  1  0
 22  9  1  0
 21 17  1  0
  1 31  1  0
  1 32  1  0
  1 33  1  0
  3 34  1  0
  4 35  1  0
 15 36  1  0
 16 37  1  0
 16 38  1  0
 18 39  1  0
 19 40  1  0
 20 41  1  0
 26 42  1  0
 26 43  1  0
 26 44  1  0
 29 45  1  0
 30 46  1  0
M  END
$$$$
