
     RDKit          3D

 34 35  0  0  0  0  0  0  0  0999 V2000
    1.3409   -1.2374    0.7781 C   0  0  0  0  0  0  0  0  0  0  0  0
    0.9658    0.0534    0.0952 C   0  0  0  0  0  0  0  0  0  0  0  0
   -0.4397    0.4741    0.0361 C   0  0  0  0  0  0  0  0  0  0  0  0
   -1.5755   -0.0839    0.4852 C   0  0  0  0  0  0  0  0  0  0  0  0
   -1.8362   -1.5544    1.3277 S   0  0  0  0  0  0  0  0  0  0  0  0
   -3.5778   -1.3356    1.3979 C   0  0  0  0  0  0  0  0  0  0  0  0
   -4.5905   -2.4600    2.0994 S   0  0  0  0  0  0  0  0  0  0  0  0
   -3.9163   -0.1357    0.8167 N   0  0  0  0  0  0  0  0  0  0  0  0
   -5.2835    0.3516    0.6439 C   0  0  0  0  0  0  0  0  0  0  0  0
   -5.8316   -0.1510   -0.6790 C   0  0  0  0  0  0  0  0  0  0  0  0
   -5.2862   -0.9100   -1.4642 O   0  0  0  0  0  0  0  0  0  0  0  0
   -7.0677    0.3249   -0.9353 O   0  0  0  0  0  0  0  0  0  0  0  0
   -2.8844    0.6013    0.2681 C   0  0  0  0  0  0  0  0  0  0  0  0
   -3.0117    1.6688   -0.3171 O   0  0  0  0  0  0  0  0  0  0  0  0
    1.8860    0.8609   -0.4774 C   0  0  0  0  0  0  0  0  0  0  0  0
    3.3296    0.6128   -0.5236 C   0  0  0  0  0  0  0  0  0  0  0  0
    3.8835   -0.1251   -1.5750 C   0  0  0  0  0  0  0  0  0  0  0  0
    5.2585   -0.3629   -1.6159 C   0  0  0  0  0  0  0  0  0  0  0  0
    6.0834    0.1353   -0.6077 C   0  0  0  0  0  0  0  0  0  0  0  0
    5.5353    0.8712    0.4425 C   0  0  0  0  0  0  0  0  0  0  0  0
    4.1606    1.1103    0.4855 C   0  0  0  0  0  0  0  0  0  0  0  0
    0.8689   -2.0899    0.2792 H   0  0  0  0  0  0  0  0  0  0  0  0
    1.0482   -1.2159    1.8327 H   0  0  0  0  0  0  0  0  0  0  0  0
    2.4164   -1.4372    0.7677 H   0  0  0  0  0  0  0  0  0  0  0  0
   -0.5703    1.4305   -0.4798 H   0  0  0  0  0  0  0  0  0  0  0  0
   -5.9257   -0.0003    1.4549 H   0  0  0  0  0  0  0  0  0  0  0  0
   -5.2839    1.4463    0.6279 H   0  0  0  0  0  0  0  0  0  0  0  0
   -7.3024   -0.0660   -1.8044 H   0  0  0  0  0  0  0  0  0  0  0  0
    1.5987    1.7907   -0.9654 H   0  0  0  0  0  0  0  0  0  0  0  0
    3.2480   -0.5197   -2.3641 H   0  0  0  0  0  0  0  0  0  0  0  0
    5.6855   -0.9375   -2.4337 H   0  0  0  0  0  0  0  0  0  0  0  0
    7.1538   -0.0509   -0.6402 H   0  0  0  0  0  0  0  0  0  0  0  0
    6.1782    1.2583    1.2287 H   0  0  0  0  0  0  0  0  0  0  0  0
    3.7422    1.6827    1.3098 H   0  0  0  0  0  0  0  0  0  0  0  0
  1  2  1  0
  2  3  1  0
  3  4  2  0
  4  5  1  0
  5  6  1  0
  6  7  2  0
  6  8  1  0
  8  9  1  0
  9 10  1  0
 10 11  2  0
 10 12  1  0
  8 13  1  0
 13 14  2  0
  2 15  2  0
 15 16  1  0
 16 17  2  0
 17 18  1  0
 18 19  2  0
 19 20  1  0
 20 21  2  0
 13  4  1  0
 21 16  1  0
  1 22  1  0
  1 23  1  0
  1 24  1  0
  3 25  1  0
  9 26  1  0
  9 27  1  0
 12 28  1  0
 15 29  1  0
 17 30  1  0
 18 31  1  0
 19 32  1  0
 20 33  1  0
 21 34  1  0
M  END
$$$$
