
     RDKit          3D

 46 49  0  0  0  0  0  0  0  0999 V2000
    1.5146    0.7953   -1.4537 O   0  0  0  0  0  0  0  0  0  0  0  0
    1.5422    0.1293   -0.4250 C   0  0  0  0  0  0  0  0  0  0  0  0
    0.2935   -0.1082    0.4019 C   0  0  0  0  0  0  0  0  0  0  0  0
   -0.9480    0.4057   -0.3045 C   0  0  2  0  0  0  0  0  0  0  0  0
   -1.0905    1.8393   -0.2773 N   0  0  0  0  0  0  0  0  0  0  0  0
   -2.3290    2.2213    0.1882 C   0  0  0  0  0  0  0  0  0  0  0  0
   -2.7428    3.3673    0.1598 O   0  0  0  0  0  0  0  0  0  0  0  0
   -2.9685    1.1166    0.6590 N   0  0  0  0  0  0  0  0  0  0  0  0
   -4.2933    1.1221    1.2318 C   0  0  0  0  0  0  0  0  0  0  0  0
   -5.3543    0.8818    0.1828 C   0  0  0  0  0  0  0  0  0  0  0  0
   -5.8196   -0.4153   -0.0771 C   0  0  0  0  0  0  0  0  0  0  0  0
   -6.7833   -0.6370   -1.0622 C   0  0  0  0  0  0  0  0  0  0  0  0
   -7.2833    0.4326   -1.8030 C   0  0  0  0  0  0  0  0  0  0  0  0
   -6.8190    1.7250   -1.5619 C   0  0  0  0  0  0  0  0  0  0  0  0
   -5.8579    1.9486   -0.5754 C   0  0  0  0  0  0  0  0  0  0  0  0
   -2.2175   -0.0025    0.4396 C   0  0  0  0  0  0  0  0  0  0  0  0
   -2.4985   -1.1490    0.7627 O   0  0  0  0  0  0  0  0  0  0  0  0
    2.6517   -0.4793    0.1425 N   0  0  0  0  0  0  0  0  0  0  0  0
    3.9997   -0.4436   -0.3098 C   0  0  0  0  0  0  0  0  0  0  0  0
    4.3836    0.3566   -1.3923 C   0  0  0  0  0  0  0  0  0  0  0  0
    5.7084    0.3942   -1.8114 C   0  0  0  0  0  0  0  0  0  0  0  0
    6.6647   -0.3702   -1.1516 C   0  0  0  0  0  0  0  0  0  0  0  0
    6.3359   -1.1784   -0.0781 C   0  0  0  0  0  0  0  0  0  0  0  0
    7.3334   -1.8794    0.4884 N   0  0  0  0  0  0  0  0  0  0  0  0
    7.0449   -2.6800    1.5317 C   0  0  0  0  0  0  0  0  0  0  0  0
    5.7788   -2.8195    2.0537 C   0  0  0  0  0  0  0  0  0  0  0  0
    4.7482   -2.0909    1.4668 C   0  0  0  0  0  0  0  0  0  0  0  0
    4.9909   -1.2306    0.3656 C   0  0  0  0  0  0  0  0  0  0  0  0
    0.4223    0.3822    1.3739 H   0  0  0  0  0  0  0  0  0  0  0  0
    0.2025   -1.1866    0.5773 H   0  0  0  0  0  0  0  0  0  0  0  0
   -1.0250    0.0683   -1.3438 H   0  0  0  0  0  0  0  0  0  0  0  0
   -0.5429    2.4730   -0.8491 H   0  0  0  0  0  0  0  0  0  0  0  0
   -4.4733    2.0851    1.7247 H   0  0  0  0  0  0  0  0  0  0  0  0
   -4.3511    0.3449    2.0036 H   0  0  0  0  0  0  0  0  0  0  0  0
   -5.4293   -1.2632    0.4847 H   0  0  0  0  0  0  0  0  0  0  0  0
   -7.1424   -1.6455   -1.2536 H   0  0  0  0  0  0  0  0  0  0  0  0
   -8.0315    0.2599   -2.5716 H   0  0  0  0  0  0  0  0  0  0  0  0
   -7.2008    2.5579   -2.1458 H   0  0  0  0  0  0  0  0  0  0  0  0
   -5.4987    2.9628   -0.4048 H   0  0  0  0  0  0  0  0  0  0  0  0
    2.4723   -1.0374    0.9636 H   0  0  0  0  0  0  0  0  0  0  0  0
    3.6772    0.9788   -1.9325 H   0  0  0  0  0  0  0  0  0  0  0  0
    5.9963    1.0224   -2.6500 H   0  0  0  0  0  0  0  0  0  0  0  0
    7.6990   -0.3344   -1.4856 H   0  0  0  0  0  0  0  0  0  0  0  0
    7.8891   -3.2230    1.9466 H   0  0  0  0  0  0  0  0  0  0  0  0
    5.5946   -3.4794    2.8938 H   0  0  0  0  0  0  0  0  0  0  0  0
    3.7566   -2.2178    1.8871 H   0  0  0  0  0  0  0  0  0  0  0  0
  1  2  2  0
  2  3  1  0
  3  4  1  0
  4  5  1  0
  5  6  1  0
  6  7  2  0
  6  8  1  0
  8  9  1  0
  9 10  1  0
 10 11  2  0
 11 12  1  0
 12 13  2  0
 13 14  1  0
 14 15  2  0
  8 16  1  0
 16 17  2  0
  2 18  1  0
 18 19  1  0
 19 20  2  0
 20 21  1  0
 21 22  2  0
 22 23  1  0
 23 24  2  0
 24 25  1  0
 25 26  2  0
 26 27  1  0
 27 28  2  0
 16  4  1  0
 28 19  1  0
 15 10  1  0
 28 23  1  0
  3 29  1  0
  3 30  1  0
  4 31  1  6
  5 32  1  0
  9 33  1  0
  9 34  1  0
 11 35  1  0
 12 36  1  0
 13 37  1  0
 14 38  1  0
 15 39  1  0
 18 40  1  0
 20 41  1  0
 21 42  1  0
 22 43  1  0
 25 44  1  0
 26 45  1  0
 27 46  1  0
M  END
$$$$
