
     RDKit          3D

 80 84  0  0  0  0  0  0  0  0999 V2000
    5.6618   -1.7073    1.1647 C   0  0  0  0  0  0  0  0  0  0  0  0
    5.1460   -0.4334    0.4377 C   0  0  0  0  0  0  0  0  0  0  0  0
    5.8986   -0.3790   -0.9071 C   0  0  0  0  0  0  0  0  0  0  0  0
    5.5057    0.7821    1.3403 C   0  0  1  0  0  0  0  0  0  0  0  0
    6.9203    0.9617    1.3980 O   0  0  0  0  0  0  0  0  0  0  0  0
    4.8607    2.0883    0.8927 C   0  0  0  0  0  0  0  0  0  0  0  0
    3.3439    1.9709    0.7513 C   0  0  0  0  0  0  0  0  0  0  0  0
    2.8698    0.8235   -0.1988 C   0  0  1  0  0  0  0  0  0  0  0  0
    3.2360    1.2180   -1.6508 C   0  0  0  0  0  0  0  0  0  0  0  0
    3.5798   -0.4981    0.2907 C   0  0  1  0  0  0  0  0  0  0  0  0
    3.0537   -1.7283   -0.4728 C   0  0  0  0  0  0  0  0  0  0  0  0
    1.5577   -1.9204   -0.2154 C   0  0  0  0  0  0  0  0  0  0  0  0
    0.6764   -0.7074   -0.6168 C   0  0  2  0  0  0  0  0  0  0  0  0
    0.6559   -0.6640   -2.1784 C   0  0  0  0  0  0  0  0  0  0  0  0
    1.3004    0.6141   -0.0240 C   0  0  2  0  0  0  0  0  0  0  0  0
    0.4246    1.8069   -0.4259 C   0  0  0  0  0  0  0  0  0  0  0  0
    0.8500    2.9417   -0.6269 O   0  0  0  0  0  0  0  0  0  0  0  0
   -1.0426    1.6036   -0.5108 C   0  0  0  0  0  0  0  0  0  0  0  0
   -1.6461    0.4124   -0.3302 C   0  0  0  0  0  0  0  0  0  0  0  0
   -3.1756    0.3772   -0.4081 C   0  0  2  0  0  0  0  0  0  0  0  0
   -3.8378    0.7352    0.9414 C   0  0  0  0  0  0  0  0  0  0  0  0
   -5.3516    1.0510    0.7820 C   0  0  1  0  0  0  0  0  0  0  0  0
   -6.0578    0.6691    2.0985 C   0  0  0  0  0  0  0  0  0  0  0  0
   -5.6077    2.5399    0.5488 C   0  0  0  0  0  0  0  0  0  0  0  0
   -6.6305    3.1469    0.8248 O   0  0  0  0  0  0  0  0  0  0  0  0
   -4.6061    3.1846   -0.0775 O   0  0  0  0  0  0  0  0  0  0  0  0
   -5.9732    0.2816   -0.4061 C   0  0  0  0  0  0  0  0  0  0  0  0
   -5.2910   -1.0670   -0.6310 C   0  0  0  0  0  0  0  0  0  0  0  0
   -3.7860   -0.9257   -1.0057 C   0  0  1  0  0  0  0  0  0  0  0  0
   -3.6754   -0.8660   -2.5497 C   0  0  0  0  0  0  0  0  0  0  0  0
   -3.0482   -2.1763   -0.4791 C   0  0  0  0  0  0  0  0  0  0  0  0
   -1.5378   -2.1095   -0.6954 C   0  0  0  0  0  0  0  0  0  0  0  0
   -0.8462   -0.8704   -0.0517 C   0  0  1  0  0  0  0  0  0  0  0  0
   -0.8701   -1.0863    1.4911 C   0  0  0  0  0  0  0  0  0  0  0  0
    5.5789   -2.6000    0.5363 H   0  0  0  0  0  0  0  0  0  0  0  0
    5.1033   -1.8900    2.0897 H   0  0  0  0  0  0  0  0  0  0  0  0
    6.7203   -1.6150    1.4345 H   0  0  0  0  0  0  0  0  0  0  0  0
    5.7934    0.5817   -1.4130 H   0  0  0  0  0  0  0  0  0  0  0  0
    6.9755   -0.5321   -0.7639 H   0  0  0  0  0  0  0  0  0  0  0  0
    5.5586   -1.1635   -1.5907 H   0  0  0  0  0  0  0  0  0  0  0  0
    5.1737    0.5718    2.3659 H   0  0  0  0  0  0  0  0  0  0  0  0
    7.0982    1.7220    1.9780 H   0  0  0  0  0  0  0  0  0  0  0  0
    5.3229    2.4443   -0.0345 H   0  0  0  0  0  0  0  0  0  0  0  0
    5.0888    2.8704    1.6290 H   0  0  0  0  0  0  0  0  0  0  0  0
    2.9709    2.9420    0.4115 H   0  0  0  0  0  0  0  0  0  0  0  0
    2.9221    1.8144    1.7532 H   0  0  0  0  0  0  0  0  0  0  0  0
    3.5193    0.3610   -2.2647 H   0  0  0  0  0  0  0  0  0  0  0  0
    2.4153    1.7261   -2.1648 H   0  0  0  0  0  0  0  0  0  0  0  0
    4.0755    1.9162   -1.6992 H   0  0  0  0  0  0  0  0  0  0  0  0
    3.2274   -0.6399    1.3268 H   0  0  0  0  0  0  0  0  0  0  0  0
    3.5508   -2.6403   -0.1287 H   0  0  0  0  0  0  0  0  0  0  0  0
    3.2573   -1.6633   -1.5448 H   0  0  0  0  0  0  0  0  0  0  0  0
    1.4533   -2.1358    0.8520 H   0  0  0  0  0  0  0  0  0  0  0  0
    1.2268   -2.8247   -0.7405 H   0  0  0  0  0  0  0  0  0  0  0  0
   -0.0432    0.0771   -2.5748 H   0  0  0  0  0  0  0  0  0  0  0  0
    0.3846   -1.6334   -2.6080 H   0  0  0  0  0  0  0  0  0  0  0  0
    1.6287   -0.4450   -2.6112 H   0  0  0  0  0  0  0  0  0  0  0  0
    1.1740    0.5609    1.0650 H   0  0  0  0  0  0  0  0  0  0  0  0
   -1.6077    2.5096   -0.7131 H   0  0  0  0  0  0  0  0  0  0  0  0
   -3.4536    1.1838   -1.1032 H   0  0  0  0  0  0  0  0  0  0  0  0
   -3.3232    1.5807    1.4159 H   0  0  0  0  0  0  0  0  0  0  0  0
   -3.7162   -0.1079    1.6307 H   0  0  0  0  0  0  0  0  0  0  0  0
   -5.9430   -0.3971    2.3218 H   0  0  0  0  0  0  0  0  0  0  0  0
   -7.1323    0.8818    2.0571 H   0  0  0  0  0  0  0  0  0  0  0  0
   -5.6471    1.2362    2.9420 H   0  0  0  0  0  0  0  0  0  0  0  0
   -4.9405    4.1024   -0.1716 H   0  0  0  0  0  0  0  0  0  0  0  0
   -5.9073    0.8731   -1.3286 H   0  0  0  0  0  0  0  0  0  0  0  0
   -7.0457    0.1222   -0.2363 H   0  0  0  0  0  0  0  0  0  0  0  0
   -5.4046   -1.6625    0.2840 H   0  0  0  0  0  0  0  0  0  0  0  0
   -5.8279   -1.6218   -1.4107 H   0  0  0  0  0  0  0  0  0  0  0  0
   -4.3028   -0.0661   -2.9592 H   0  0  0  0  0  0  0  0  0  0  0  0
   -4.0039   -1.8068   -3.0054 H   0  0  0  0  0  0  0  0  0  0  0  0
   -2.6516   -0.6736   -2.8851 H   0  0  0  0  0  0  0  0  0  0  0  0
   -3.2564   -2.3231    0.5870 H   0  0  0  0  0  0  0  0  0  0  0  0
   -3.4353   -3.0735   -0.9806 H   0  0  0  0  0  0  0  0  0  0  0  0
   -1.0941   -3.0303   -0.2960 H   0  0  0  0  0  0  0  0  0  0  0  0
   -1.3729   -2.1509   -1.7732 H   0  0  0  0  0  0  0  0  0  0  0  0
   -0.4144   -0.2615    2.0448 H   0  0  0  0  0  0  0  0  0  0  0  0
   -0.3670   -2.0115    1.7849 H   0  0  0  0  0  0  0  0  0  0  0  0
   -1.8868   -1.1775    1.8807 H   0  0  0  0  0  0  0  0  0  0  0  0
  1  2  1  0
  2  3  1  0
  2  4  1  0
  4  5  1  0
  4  6  1  0
  6  7  1  0
  7  8  1  0
  8  9  1  6
  8 10  1  0
 10 11  1  0
 11 12  1  0
 12 13  1  0
 13 14  1  6
 13 15  1  0
 15 16  1  0
 16 17  2  0
 16 18  1  0
 18 19  2  0
 19 20  1  0
 20 21  1  0
 21 22  1  0
 22 23  1  1
 22 24  1  0
 24 25  2  0
 24 26  1  0
 22 27  1  0
 27 28  1  0
 28 29  1  0
 29 30  1  6
 29 31  1  0
 31 32  1  0
 32 33  1  0
 33 34  1  1
 10  2  1  0
 33 13  1  0
 15  8  1  0
 33 19  1  0
 29 20  1  0
  1 35  1  0
  1 36  1  0
  1 37  1  0
  3 38  1  0
  3 39  1  0
  3 40  1  0
  4 41  1  1
  5 42  1  0
  6 43  1  0
  6 44  1  0
  7 45  1  0
  7 46  1  0
  9 47  1  0
  9 48  1  0
  9 49  1  0
 10 50  1  1
 11 51  1  0
 11 52  1  0
 12 53  1  0
 12 54  1  0
 14 55  1  0
 14 56  1  0
 14 57  1  0
 15 58  1  1
 18 59  1  0
 20 60  1  6
 21 61  1  0
 21 62  1  0
 23 63  1  0
 23 64  1  0
 23 65  1  0
 26 66  1  0
 27 67  1  0
 27 68  1  0
 28 69  1  0
 28 70  1  0
 30 71  1  0
 30 72  1  0
 30 73  1  0
 31 74  1  0
 31 75  1  0
 32 76  1  0
 32 77  1  0
 34 78  1  0
 34 79  1  0
 34 80  1  0
M  END
$$$$
