
     RDKit          3D

 24 25  0  0  0  0  0  0  0  0999 V2000
    5.5294    1.5177    0.7284 O   0  0  0  0  0  0  0  0  0  0  0  0
    4.3825    1.1865    0.4828 C   0  0  0  0  0  0  0  0  0  0  0  0
    3.5733    0.4591    1.2906 N   0  0  0  0  0  0  0  0  0  0  0  0
    2.3146    0.1641    0.8560 C   0  0  0  0  0  0  0  0  0  0  0  0
    1.5146   -0.4903    1.5029 O   0  0  0  0  0  0  0  0  0  0  0  0
    2.0939    0.7579   -0.4948 C   0  0  0  0  0  0  0  0  0  0  0  0
    1.0021    0.6880   -1.2697 C   0  0  0  0  0  0  0  0  0  0  0  0
   -0.2554    0.0066   -0.9498 C   0  0  0  0  0  0  0  0  0  0  0  0
   -0.6903   -1.0416   -1.7679 C   0  0  0  0  0  0  0  0  0  0  0  0
   -1.8953   -1.6927   -1.5011 C   0  0  0  0  0  0  0  0  0  0  0  0
   -2.6792   -1.2945   -0.4187 C   0  0  0  0  0  0  0  0  0  0  0  0
   -2.2706   -0.2335    0.4034 C   0  0  0  0  0  0  0  0  0  0  0  0
   -3.1128    0.1799    1.5840 C   0  0  0  0  0  0  0  0  0  0  0  0
   -4.4439    0.2165    1.2911 F   0  0  0  0  0  0  0  0  0  0  0  0
   -2.9882   -0.6696    2.6402 F   0  0  0  0  0  0  0  0  0  0  0  0
   -2.8079    1.4198    2.0608 F   0  0  0  0  0  0  0  0  0  0  0  0
   -1.0545    0.4130    0.1257 C   0  0  0  0  0  0  0  0  0  0  0  0
    3.5333    1.5898   -0.9929 S   0  0  0  0  0  0  0  0  0  0  0  0
    3.8990    0.1332    2.1856 H   0  0  0  0  0  0  0  0  0  0  0  0
    1.0094    1.1539   -2.2541 H   0  0  0  0  0  0  0  0  0  0  0  0
   -0.0906   -1.3673   -2.6152 H   0  0  0  0  0  0  0  0  0  0  0  0
   -2.2208   -2.5139   -2.1353 H   0  0  0  0  0  0  0  0  0  0  0  0
   -3.6143   -1.8149   -0.2154 H   0  0  0  0  0  0  0  0  0  0  0  0
   -0.7283    1.2323    0.7654 H   0  0  0  0  0  0  0  0  0  0  0  0
  1  2  2  0
  2  3  1  0
  3  4  1  0
  4  5  2  0
  4  6  1  0
  6  7  2  0
  7  8  1  0
  8  9  2  0
  9 10  1  0
 10 11  2  0
 11 12  1  0
 12 13  1  0
 13 14  1  0
 13 15  1  0
 13 16  1  0
 12 17  2  0
  6 18  1  0
 18  2  1  0
 17  8  1  0
  3 19  1  0
  7 20  1  0
  9 21  1  0
 10 22  1  0
 11 23  1  0
 17 24  1  0
M  END
$$$$
