
     RDKit          3D

 25 27  0  0  0  0  0  0  0  0999 V2000
   -4.7656    2.2935    0.8052 Cl  0  0  0  0  0  0  0  0  0  0  0  0
   -3.7170    1.0487    0.2440 C   0  0  0  0  0  0  0  0  0  0  0  0
   -4.2537   -0.1099   -0.3045 C   0  0  0  0  0  0  0  0  0  0  0  0
   -3.3961   -1.1086   -0.7545 C   0  0  0  0  0  0  0  0  0  0  0  0
   -2.0090   -0.9436   -0.6538 C   0  0  0  0  0  0  0  0  0  0  0  0
   -1.4500    0.2156   -0.1046 C   0  0  0  0  0  0  0  0  0  0  0  0
   -0.0675    0.4411    0.0242 N   0  0  0  0  0  0  0  0  0  0  0  0
    1.0622   -0.3232   -0.3121 C   0  0  0  0  0  0  0  0  0  0  0  0
    0.9467   -1.5461   -0.8833 N   0  0  0  0  0  0  0  0  0  0  0  0
    2.0515   -2.2428   -1.1885 C   0  0  0  0  0  0  0  0  0  0  0  0
    3.3195   -1.8795   -0.9975 N   0  0  0  0  0  0  0  0  0  0  0  0
    3.4172   -0.6671   -0.4316 C   0  0  0  0  0  0  0  0  0  0  0  0
    4.9488    0.0024   -0.0935 S   0  0  0  0  0  0  0  0  0  0  0  0
    4.2526    1.4211    0.5548 C   0  0  0  0  0  0  0  0  0  0  0  0
    2.8757    1.3820    0.5128 C   0  0  0  0  0  0  0  0  0  0  0  0
    2.3686    0.1628   -0.0634 C   0  0  0  0  0  0  0  0  0  0  0  0
   -2.3332    1.2128    0.3442 C   0  0  0  0  0  0  0  0  0  0  0  0
   -5.3291   -0.2408   -0.3840 H   0  0  0  0  0  0  0  0  0  0  0  0
   -3.7997   -2.0212   -1.1862 H   0  0  0  0  0  0  0  0  0  0  0  0
   -1.3799   -1.7495   -1.0180 H   0  0  0  0  0  0  0  0  0  0  0  0
    0.1655    1.3305    0.4421 H   0  0  0  0  0  0  0  0  0  0  0  0
    1.8925   -3.2154   -1.6439 H   0  0  0  0  0  0  0  0  0  0  0  0
    4.8845    2.2130    0.9342 H   0  0  0  0  0  0  0  0  0  0  0  0
    2.2608    2.1938    0.8800 H   0  0  0  0  0  0  0  0  0  0  0  0
   -1.9453    2.1304    0.7780 H   0  0  0  0  0  0  0  0  0  0  0  0
  1  2  1  0
  2  3  2  0
  3  4  1  0
  4  5  2  0
  5  6  1  0
  6  7  1  0
  7  8  1  0
  8  9  2  0
  9 10  1  0
 10 11  2  0
 11 12  1  0
 12 13  1  0
 13 14  1  0
 14 15  2  0
 15 16  1  0
  6 17  2  0
 17  2  1  0
 16  8  1  0
 16 12  2  0
  3 18  1  0
  4 19  1  0
  5 20  1  0
  7 21  1  0
 10 22  1  0
 14 23  1  0
 15 24  1  0
 17 25  1  0
M  END
$$$$
