
     RDKit          3D

 43 46  0  0  0  0  0  0  0  0999 V2000
   -0.2151   -0.7194    2.1490 C   0  0  0  0  0  0  0  0  0  0  0  0
   -0.1398    0.3916    1.1104 C   0  0  0  0  0  0  0  0  0  0  0  0
   -0.1827   -0.1406   -0.3135 C   0  0  0  0  0  0  0  0  0  0  0  0
    1.0151   -0.4770   -0.9860 C   0  0  0  0  0  0  0  0  0  0  0  0
    2.3550   -0.3006   -0.4112 C   0  0  0  0  0  0  0  0  0  0  0  0
    3.0051   -1.3735    0.2210 C   0  0  0  0  0  0  0  0  0  0  0  0
    4.2868   -1.2446    0.7713 C   0  0  0  0  0  0  0  0  0  0  0  0
    4.9001    0.0049    0.6596 C   0  0  0  0  0  0  0  0  0  0  0  0
    6.1221    0.4626    1.0788 N   0  0  0  0  0  0  0  0  0  0  0  0
    6.3588    1.7524    0.7785 N   0  0  0  0  0  0  0  0  0  0  0  0
    5.2466    2.1311    0.1433 C   0  0  0  0  0  0  0  0  0  0  0  0
    4.2976    1.0906    0.0365 C   0  0  0  0  0  0  0  0  0  0  0  0
    3.0110    0.9424   -0.5107 C   0  0  0  0  0  0  0  0  0  0  0  0
    0.9009   -1.0065   -2.2717 C   0  0  0  0  0  0  0  0  0  0  0  0
   -0.2609   -1.2262   -2.9218 N   0  0  0  0  0  0  0  0  0  0  0  0
   -1.3928   -0.9017   -2.2756 C   0  0  0  0  0  0  0  0  0  0  0  0
   -2.5595   -1.1993   -2.9812 N   0  0  0  0  0  0  0  0  0  0  0  0
   -1.4240   -0.3564   -0.9746 C   0  0  0  0  0  0  0  0  0  0  0  0
   -2.7155   -0.0175   -0.3473 C   0  0  0  0  0  0  0  0  0  0  0  0
   -3.1893    1.3065   -0.3509 C   0  0  0  0  0  0  0  0  0  0  0  0
   -4.4159    1.6314    0.2349 C   0  0  0  0  0  0  0  0  0  0  0  0
   -5.1784    0.6281    0.8224 C   0  0  0  0  0  0  0  0  0  0  0  0
   -6.3804    0.8986    1.4058 O   0  0  0  0  0  0  0  0  0  0  0  0
   -4.7371   -0.6889    0.8300 C   0  0  0  0  0  0  0  0  0  0  0  0
   -3.5111   -1.0112    0.2446 C   0  0  0  0  0  0  0  0  0  0  0  0
    0.6184   -1.4212    2.0494 H   0  0  0  0  0  0  0  0  0  0  0  0
   -1.1428   -1.2924    2.0611 H   0  0  0  0  0  0  0  0  0  0  0  0
   -0.1774   -0.2941    3.1570 H   0  0  0  0  0  0  0  0  0  0  0  0
    0.7695    0.9796    1.2746 H   0  0  0  0  0  0  0  0  0  0  0  0
   -0.9503    1.1071    1.2817 H   0  0  0  0  0  0  0  0  0  0  0  0
    2.5027   -2.3381    0.2946 H   0  0  0  0  0  0  0  0  0  0  0  0
    4.7731   -2.0825    1.2599 H   0  0  0  0  0  0  0  0  0  0  0  0
    6.8392   -0.0546    1.5740 H   0  0  0  0  0  0  0  0  0  0  0  0
    5.1694    3.1487   -0.2167 H   0  0  0  0  0  0  0  0  0  0  0  0
    2.5288    1.7832   -1.0025 H   0  0  0  0  0  0  0  0  0  0  0  0
    1.7877   -1.2840   -2.8383 H   0  0  0  0  0  0  0  0  0  0  0  0
   -3.2026   -0.4168   -2.9973 H   0  0  0  0  0  0  0  0  0  0  0  0
   -2.2816   -1.5059   -3.9088 H   0  0  0  0  0  0  0  0  0  0  0  0
   -2.5953    2.0941   -0.8106 H   0  0  0  0  0  0  0  0  0  0  0  0
   -4.7543    2.6624    0.2220 H   0  0  0  0  0  0  0  0  0  0  0  0
   -6.5583    1.8497    1.3258 H   0  0  0  0  0  0  0  0  0  0  0  0
   -5.3452   -1.4650    1.2858 H   0  0  0  0  0  0  0  0  0  0  0  0
   -3.1776   -2.0472    0.2452 H   0  0  0  0  0  0  0  0  0  0  0  0
  1  2  1  0
  2  3  1  0
  3  4  2  0
  4  5  1  0
  5  6  2  0
  6  7  1  0
  7  8  2  0
  8  9  1  0
  9 10  1  0
 10 11  2  0
 11 12  1  0
 12 13  2  0
  4 14  1  0
 14 15  2  0
 15 16  1  0
 16 17  1  0
 16 18  2  0
 18 19  1  0
 19 20  2  0
 20 21  1  0
 21 22  2  0
 22 23  1  0
 22 24  1  0
 24 25  2  0
 18  3  1  0
 25 19  1  0
 13  5  1  0
 12  8  1  0
  1 26  1  0
  1 27  1  0
  1 28  1  0
  2 29  1  0
  2 30  1  0
  6 31  1  0
  7 32  1  0
  9 33  1  0
 11 34  1  0
 13 35  1  0
 14 36  1  0
 17 37  1  0
 17 38  1  0
 20 39  1  0
 21 40  1  0
 23 41  1  0
 24 42  1  0
 25 43  1  0
M  END
$$$$
