
     RDKit          3D

 48 51  0  0  0  0  0  0  0  0999 V2000
   -5.0947    3.2392    0.3635 C   0  0  0  0  0  0  0  0  0  0  0  0
   -3.7936    2.5503    0.4408 C   0  0  0  0  0  0  0  0  0  0  0  0
   -3.2250    2.2185    1.6068 N   0  0  0  0  0  0  0  0  0  0  0  0
   -2.0271    1.6200    1.2187 O   0  0  0  0  0  0  0  0  0  0  0  0
   -2.0120    1.6318   -0.1472 C   0  0  0  0  0  0  0  0  0  0  0  0
   -0.8461    1.0015   -0.8291 C   0  0  1  0  0  0  0  0  0  0  0  0
    0.3747    1.9337   -0.7406 C   0  0  0  0  0  0  0  0  0  0  0  0
    1.6843    1.1510   -0.7632 C   0  0  0  0  0  0  0  0  0  0  0  0
    1.8086    0.2691    0.4084 N   0  0  0  0  0  0  0  0  0  0  0  0
    2.8836   -0.7270    0.2262 C   0  0  0  0  0  0  0  0  0  0  0  0
    4.2568   -0.1177    0.0968 C   0  0  0  0  0  0  0  0  0  0  0  0
    4.7857    0.7165    1.0871 C   0  0  0  0  0  0  0  0  0  0  0  0
    6.0631    1.2468    0.9357 C   0  0  0  0  0  0  0  0  0  0  0  0
    6.7762    0.9207   -0.2056 C   0  0  0  0  0  0  0  0  0  0  0  0
    6.3051    0.1154   -1.1818 N   0  0  0  0  0  0  0  0  0  0  0  0
    5.0611   -0.3865   -1.0063 C   0  0  0  0  0  0  0  0  0  0  0  0
    0.5427   -0.3860    0.7913 C   0  0  0  0  0  0  0  0  0  0  0  0
   -0.5210   -0.4272   -0.3285 C   0  0  1  0  0  0  0  0  0  0  0  0
   -1.6905   -1.2170    0.0511 N   0  0  0  0  0  0  0  0  0  0  0  0
   -1.6604   -2.5899    0.0261 C   0  0  0  0  0  0  0  0  0  0  0  0
   -0.7267   -3.2603   -0.3896 O   0  0  0  0  0  0  0  0  0  0  0  0
   -2.8628   -3.2380    0.6048 C   0  0  0  0  0  0  0  0  0  0  0  0
   -3.7168   -4.1298   -0.2658 C   0  0  0  0  0  0  0  0  0  0  0  0
   -4.2586   -2.8141    0.2093 C   0  0  0  0  0  0  0  0  0  0  0  0
   -3.0785    2.1918   -0.6723 N   0  0  0  0  0  0  0  0  0  0  0  0
   -5.4072    3.3682   -0.6774 H   0  0  0  0  0  0  0  0  0  0  0  0
   -5.8681    2.6630    0.8807 H   0  0  0  0  0  0  0  0  0  0  0  0
   -5.0327    4.2297    0.8247 H   0  0  0  0  0  0  0  0  0  0  0  0
   -1.1229    0.9049   -1.8889 H   0  0  0  0  0  0  0  0  0  0  0  0
    0.3440    2.5462    0.1713 H   0  0  0  0  0  0  0  0  0  0  0  0
    0.3523    2.6425   -1.5781 H   0  0  0  0  0  0  0  0  0  0  0  0
    1.7413    0.5808   -1.7001 H   0  0  0  0  0  0  0  0  0  0  0  0
    2.5126    1.8688   -0.7713 H   0  0  0  0  0  0  0  0  0  0  0  0
    2.6626   -1.3687   -0.6371 H   0  0  0  0  0  0  0  0  0  0  0  0
    2.9282   -1.3898    1.1010 H   0  0  0  0  0  0  0  0  0  0  0  0
    4.1983    0.9565    1.9703 H   0  0  0  0  0  0  0  0  0  0  0  0
    6.4906    1.8982    1.6893 H   0  0  0  0  0  0  0  0  0  0  0  0
    7.7769    1.3096   -0.3696 H   0  0  0  0  0  0  0  0  0  0  0  0
    4.7200   -1.0334   -1.8104 H   0  0  0  0  0  0  0  0  0  0  0  0
    0.1361    0.1667    1.6479 H   0  0  0  0  0  0  0  0  0  0  0  0
    0.7188   -1.3976    1.1791 H   0  0  0  0  0  0  0  0  0  0  0  0
   -0.0619   -0.9645   -1.1714 H   0  0  0  0  0  0  0  0  0  0  0  0
   -2.4305   -0.7878    0.5966 H   0  0  0  0  0  0  0  0  0  0  0  0
   -2.7148   -3.5797    1.6246 H   0  0  0  0  0  0  0  0  0  0  0  0
   -4.1101   -5.0379    0.1765 H   0  0  0  0  0  0  0  0  0  0  0  0
   -3.4501   -4.2278   -1.3128 H   0  0  0  0  0  0  0  0  0  0  0  0
   -5.0278   -2.8288    0.9730 H   0  0  0  0  0  0  0  0  0  0  0  0
   -4.3840   -2.0319   -0.5312 H   0  0  0  0  0  0  0  0  0  0  0  0
  1  2  1  0
  2  3  2  0
  3  4  1  0
  4  5  1  0
  5  6  1  0
  6  7  1  0
  7  8  1  0
  8  9  1  0
  9 10  1  0
 10 11  1  0
 11 12  2  0
 12 13  1  0
 13 14  2  0
 14 15  1  0
 15 16  2  0
  9 17  1  0
 17 18  1  0
 18 19  1  0
 19 20  1  0
 20 21  2  0
 20 22  1  0
 22 23  1  0
 23 24  1  0
  5 25  2  0
 25  2  1  0
 18  6  1  0
 24 22  1  0
 16 11  1  0
  1 26  1  0
  1 27  1  0
  1 28  1  0
  6 29  1  6
  7 30  1  0
  7 31  1  0
  8 32  1  0
  8 33  1  0
 10 34  1  0
 10 35  1  0
 12 36  1  0
 13 37  1  0
 14 38  1  0
 16 39  1  0
 17 40  1  0
 17 41  1  0
 18 42  1  6
 19 43  1  0
 22 44  1  0
 23 45  1  0
 23 46  1  0
 24 47  1  0
 24 48  1  0
M  END
$$$$
