
     RDKit          3D

 56 57  0  0  0  0  0  0  0  0999 V2000
   -0.6070   -0.8951    2.0545 C   0  0  0  0  0  0  0  0  0  0  0  0
   -0.7115   -0.6970    0.5805 C   0  0  0  0  0  0  0  0  0  0  0  0
   -0.4274    0.7558    0.1722 C   0  0  0  0  0  0  0  0  0  0  0  0
   -2.1380   -1.0001    0.1234 C   0  0  0  0  0  0  0  0  0  0  0  0
   -3.1820   -0.1835    0.6745 C   0  0  0  0  0  0  0  0  0  0  0  0
   -3.8657   -0.5843    1.8270 C   0  0  0  0  0  0  0  0  0  0  0  0
   -4.9058    0.2175    2.3052 C   0  0  0  0  0  0  0  0  0  0  0  0
   -5.2907    1.3666    1.7177 C   0  0  0  0  0  0  0  0  0  0  0  0
   -6.3168    2.1930    2.1051 C   0  0  0  0  0  0  0  0  0  0  0  0
   -6.7245    3.3411    1.4922 C   0  0  0  0  0  0  0  0  0  0  0  0
   -6.0331    3.7734    0.3127 C   0  0  0  0  0  0  0  0  0  0  0  0
   -5.0342    2.9199   -0.0191 C   0  0  0  0  0  0  0  0  0  0  0  0
   -4.5968    1.7995    0.5253 C   0  0  0  0  0  0  0  0  0  0  0  0
   -3.6010    0.9840    0.1089 C   0  0  0  0  0  0  0  0  0  0  0  0
    0.1041   -1.5134   -0.2447 N   0  0  0  0  0  0  0  0  0  0  0  0
    1.5000   -1.4241   -0.1954 C   0  0  0  0  0  0  0  0  0  0  0  0
    2.0799   -2.4384   -1.1179 C   0  0  1  0  0  0  0  0  0  0  0  0
    1.7604   -2.2317   -2.4415 O   0  0  0  0  0  0  0  0  0  0  0  0
    3.5080   -2.8380   -0.9315 C   0  0  0  0  0  0  0  0  0  0  0  0
    4.4516   -2.0319   -1.3949 O   0  0  0  0  0  0  0  0  0  0  0  0
    5.0301   -0.8477   -1.3294 C   0  0  0  0  0  0  0  0  0  0  0  0
    4.6841    0.1859   -0.4606 C   0  0  0  0  0  0  0  0  0  0  0  0
    5.3480    1.4005   -0.4854 C   0  0  0  0  0  0  0  0  0  0  0  0
    6.3709    1.5950   -1.3710 C   0  0  0  0  0  0  0  0  0  0  0  0
    6.7415    0.6077   -2.2361 C   0  0  0  0  0  0  0  0  0  0  0  0
    8.0481    0.9012   -3.4005 Cl  0  0  0  0  0  0  0  0  0  0  0  0
    6.0893   -0.5970   -2.2230 C   0  0  0  0  0  0  0  0  0  0  0  0
    6.5571   -1.6364   -3.1021 C   0  0  0  0  0  0  0  0  0  0  0  0
    6.9437   -2.4863   -3.7990 N   0  0  0  0  0  0  0  0  0  0  0  0
    0.6883    0.0000    0.0000 Cl  0  0  0  0  0  0  0  0  0  0  0  0
   -1.1701   -1.8139    2.3559 H   0  0  0  0  0  0  0  0  0  0  0  0
   -1.1119   -0.0750    2.6107 H   0  0  0  0  0  0  0  0  0  0  0  0
    0.4457   -1.0652    2.3727 H   0  0  0  0  0  0  0  0  0  0  0  0
   -0.3896    0.8356   -0.9390 H   0  0  0  0  0  0  0  0  0  0  0  0
   -1.1499    1.4685    0.6395 H   0  0  0  0  0  0  0  0  0  0  0  0
    0.5777    1.0621    0.5415 H   0  0  0  0  0  0  0  0  0  0  0  0
   -2.1528   -1.0543   -0.9929 H   0  0  0  0  0  0  0  0  0  0  0  0
   -2.2778   -2.0799    0.4204 H   0  0  0  0  0  0  0  0  0  0  0  0
   -3.6324   -1.4757    2.3651 H   0  0  0  0  0  0  0  0  0  0  0  0
   -5.4412   -0.1037    3.2079 H   0  0  0  0  0  0  0  0  0  0  0  0
   -6.8568    1.8531    3.0305 H   0  0  0  0  0  0  0  0  0  0  0  0
   -7.5314    3.9413    1.8197 H   0  0  0  0  0  0  0  0  0  0  0  0
   -6.3318    4.6736   -0.1827 H   0  0  0  0  0  0  0  0  0  0  0  0
   -4.4712    3.2731   -0.9274 H   0  0  0  0  0  0  0  0  0  0  0  0
   -3.0789    1.2854   -0.7961 H   0  0  0  0  0  0  0  0  0  0  0  0
   -0.3038   -1.9083   -1.0844 H   0  0  0  0  0  0  0  0  0  0  0  0
    1.8014   -0.4136   -0.6510 H   0  0  0  0  0  0  0  0  0  0  0  0
    1.9500   -1.3697    0.8110 H   0  0  0  0  0  0  0  0  0  0  0  0
    1.4260   -3.4200   -0.8818 H   0  0  0  0  0  0  0  0  0  0  0  0
    0.8555   -1.9516   -2.5726 H   0  0  0  0  0  0  0  0  0  0  0  0
    3.6392   -3.1945    0.1267 H   0  0  0  0  0  0  0  0  0  0  0  0
    3.5965   -3.8437   -1.5011 H   0  0  0  0  0  0  0  0  0  0  0  0
    3.8929    0.0030    0.2589 H   0  0  0  0  0  0  0  0  0  0  0  0
    5.0424    2.1867    0.2000 H   0  0  0  0  0  0  0  0  0  0  0  0
    6.8898    2.5501   -1.4020 H   0  0  0  0  0  0  0  0  0  0  0  0
   -0.6883    0.0000    0.0000 H   0  0  0  0  0  0  0  0  0  0  0  0
  1  2  1  0
  2  3  1  0
  2  4  1  0
  4  5  1  0
  5  6  2  0
  6  7  1  0
  7  8  2  0
  8  9  1  0
  9 10  2  0
 10 11  1  0
 11 12  2  0
 12 13  1  0
 13 14  2  0
  2 15  1  0
 15 16  1  0
 16 17  1  0
 17 18  1  0
 17 19  1  0
 19 20  1  0
 20 21  1  0
 21 22  2  0
 22 23  1  0
 23 24  2  0
 24 25  1  0
 25 26  1  0
 25 27  2  0
 27 28  1  0
 28 29  3  0
 14  5  1  0
 27 21  1  0
 13  8  1  0
  1 31  1  0
  1 32  1  0
  1 33  1  0
  3 34  1  0
  3 35  1  0
  3 36  1  0
  4 37  1  0
  4 38  1  0
  6 39  1  0
  7 40  1  0
  9 41  1  0
 10 42  1  0
 11 43  1  0
 12 44  1  0
 14 45  1  0
 15 46  1  0
 16 47  1  0
 16 48  1  0
 17 49  1  1
 18 50  1  0
 19 51  1  0
 19 52  1  0
 22 53  1  0
 23 54  1  0
 24 55  1  0
 30 56  1  0
M  END
$$$$
