
     RDKit          3D

 79 80  0  0  0  0  0  0  0  0999 V2000
    0.1445    1.9490   -0.3403 C   0  0  0  0  0  0  0  0  0  0  0  0
    0.5044    0.5780   -0.8528 C   0  0  0  0  0  0  0  0  0  0  0  0
    1.5509   -0.1493   -0.4090 C   0  0  0  0  0  0  0  0  0  0  0  0
    2.4439    0.2193    0.7164 C   0  0  0  0  0  0  0  0  0  0  0  0
    2.1966    1.0314    1.5894 O   0  0  0  0  0  0  0  0  0  0  0  0
    3.5710   -0.5294    0.6068 O   0  0  0  0  0  0  0  0  0  0  0  0
    4.5479   -0.3242    1.6381 C   0  0  0  0  0  0  0  0  0  0  0  0
    5.4507    0.8677    1.3210 C   0  0  0  0  0  0  0  0  0  0  0  0
    6.1718    0.7751   -0.0285 C   0  0  0  0  0  0  0  0  0  0  0  0
    7.1754   -0.3792   -0.0972 C   0  0  0  0  0  0  0  0  0  0  0  0
    7.9608   -0.3519   -1.4105 C   0  0  0  0  0  0  0  0  0  0  0  0
    8.9022   -1.5483   -1.5823 C   0  0  0  0  0  0  0  0  0  0  0  0
    9.9861   -1.7007   -0.5110 C   0  0  0  0  0  0  0  0  0  0  0  0
   10.9353   -0.5058   -0.4324 C   0  0  0  0  0  0  0  0  0  0  0  0
   12.0492   -0.7496    0.5501 C   0  0  0  0  0  0  0  0  0  0  0  0
   12.1768   -1.6932    1.3114 O   0  0  0  0  0  0  0  0  0  0  0  0
   12.9621    0.2416    0.5328 O   0  0  0  0  0  0  0  0  0  0  0  0
   -0.3800    0.0421   -1.9719 C   0  0  0  0  0  0  0  0  0  0  0  0
   -1.8533   -0.2424   -1.5988 C   0  0  2  0  0  0  0  0  0  0  0  0
   -2.5155    0.9872   -1.2994 O   0  0  0  0  0  0  0  0  0  0  0  0
   -3.9320    0.8560   -1.1497 C   0  0  0  0  0  0  0  0  0  0  0  0
   -4.3477   -0.3189   -0.2480 C   0  0  2  0  0  0  0  0  0  0  0  0
   -5.5031    0.0718    0.6938 C   0  0  0  0  0  0  0  0  0  0  0  0
   -6.8095    0.1993   -0.0287 C   0  0  2  0  0  0  0  0  0  0  0  0
   -6.9583    1.3751   -0.8352 O   0  0  0  0  0  0  0  0  0  0  0  0
   -7.7769    1.2995    0.3400 C   0  0  1  0  0  0  0  0  0  0  0  0
   -9.2725    1.1974    0.1166 C   0  0  1  0  0  0  0  0  0  0  0  0
   -9.6532    0.5246   -1.2058 C   0  0  0  0  0  0  0  0  0  0  0  0
   -9.9178    0.4981    1.3402 C   0  0  2  0  0  0  0  0  0  0  0  0
  -11.4215    0.2767    1.2214 C   0  0  0  0  0  0  0  0  0  0  0  0
   -9.6896    1.2905    2.5114 O   0  0  0  0  0  0  0  0  0  0  0  0
   -3.1329   -0.8454    0.5239 C   0  0  1  0  0  0  0  0  0  0  0  0
   -3.5088   -1.9815    1.3108 O   0  0  0  0  0  0  0  0  0  0  0  0
   -1.9956   -1.2419   -0.4358 C   0  0  1  0  0  0  0  0  0  0  0  0
   -2.2472   -2.5671   -0.9490 O   0  0  0  0  0  0  0  0  0  0  0  0
    1.0038    2.4851    0.0706 H   0  0  0  0  0  0  0  0  0  0  0  0
   -0.2326    2.5759   -1.1562 H   0  0  0  0  0  0  0  0  0  0  0  0
   -0.6287    1.8787    0.4311 H   0  0  0  0  0  0  0  0  0  0  0  0
    1.7789   -1.1120   -0.8575 H   0  0  0  0  0  0  0  0  0  0  0  0
    5.1361   -1.2443    1.7139 H   0  0  0  0  0  0  0  0  0  0  0  0
    4.0621   -0.1919    2.6128 H   0  0  0  0  0  0  0  0  0  0  0  0
    4.8438    1.7811    1.3077 H   0  0  0  0  0  0  0  0  0  0  0  0
    6.1859    0.9865    2.1254 H   0  0  0  0  0  0  0  0  0  0  0  0
    5.4399    0.6814   -0.8401 H   0  0  0  0  0  0  0  0  0  0  0  0
    6.7032    1.7206   -0.1947 H   0  0  0  0  0  0  0  0  0  0  0  0
    6.6521   -1.3376   -0.0118 H   0  0  0  0  0  0  0  0  0  0  0  0
    7.8642   -0.3049    0.7518 H   0  0  0  0  0  0  0  0  0  0  0  0
    7.2539   -0.3538   -2.2498 H   0  0  0  0  0  0  0  0  0  0  0  0
    8.5257    0.5841   -1.4876 H   0  0  0  0  0  0  0  0  0  0  0  0
    8.3052   -2.4688   -1.6040 H   0  0  0  0  0  0  0  0  0  0  0  0
    9.3844   -1.4720   -2.5650 H   0  0  0  0  0  0  0  0  0  0  0  0
   10.5656   -2.6050   -0.7397 H   0  0  0  0  0  0  0  0  0  0  0  0
    9.5289   -1.8810    0.4694 H   0  0  0  0  0  0  0  0  0  0  0  0
   11.3815   -0.3263   -1.4173 H   0  0  0  0  0  0  0  0  0  0  0  0
   10.3980    0.3931   -0.1109 H   0  0  0  0  0  0  0  0  0  0  0  0
   13.6218   -0.0372    1.2012 H   0  0  0  0  0  0  0  0  0  0  0  0
    0.0512   -0.8827   -2.3777 H   0  0  0  0  0  0  0  0  0  0  0  0
   -0.3577    0.7742   -2.7900 H   0  0  0  0  0  0  0  0  0  0  0  0
   -2.3234   -0.6540   -2.5029 H   0  0  0  0  0  0  0  0  0  0  0  0
   -4.3796    0.7498   -2.1449 H   0  0  0  0  0  0  0  0  0  0  0  0
   -4.2798    1.8125   -0.7457 H   0  0  0  0  0  0  0  0  0  0  0  0
   -4.7176   -1.1296   -0.8909 H   0  0  0  0  0  0  0  0  0  0  0  0
   -5.6428   -0.6967    1.4628 H   0  0  0  0  0  0  0  0  0  0  0  0
   -5.2543    0.9968    1.2293 H   0  0  0  0  0  0  0  0  0  0  0  0
   -7.1814   -0.7406   -0.4116 H   0  0  0  0  0  0  0  0  0  0  0  0
   -7.5262    1.9562    1.1653 H   0  0  0  0  0  0  0  0  0  0  0  0
   -9.6416    2.2316    0.0779 H   0  0  0  0  0  0  0  0  0  0  0  0
  -10.7268    0.6151   -1.3986 H   0  0  0  0  0  0  0  0  0  0  0  0
   -9.1407    0.9885   -2.0542 H   0  0  0  0  0  0  0  0  0  0  0  0
   -9.3995   -0.5404   -1.2025 H   0  0  0  0  0  0  0  0  0  0  0  0
   -9.4304   -0.4681    1.5154 H   0  0  0  0  0  0  0  0  0  0  0  0
  -11.6654   -0.4540    0.4452 H   0  0  0  0  0  0  0  0  0  0  0  0
  -11.8296   -0.0889    2.1708 H   0  0  0  0  0  0  0  0  0  0  0  0
  -11.9398    1.2161    0.9978 H   0  0  0  0  0  0  0  0  0  0  0  0
  -10.1965    2.1169    2.4217 H   0  0  0  0  0  0  0  0  0  0  0  0
   -2.7756   -0.0698    1.2124 H   0  0  0  0  0  0  0  0  0  0  0  0
   -3.0951   -2.7638    0.8907 H   0  0  0  0  0  0  0  0  0  0  0  0
   -1.0777   -1.3392    0.1499 H   0  0  0  0  0  0  0  0  0  0  0  0
   -3.0576   -2.5333   -1.4890 H   0  0  0  0  0  0  0  0  0  0  0  0
  1  2  1  0
  2  3  2  0
  3  4  1  0
  4  5  2  0
  4  6  1  0
  6  7  1  0
  7  8  1  0
  8  9  1  0
  9 10  1  0
 10 11  1  0
 11 12  1  0
 12 13  1  0
 13 14  1  0
 14 15  1  0
 15 16  2  0
 15 17  1  0
  2 18  1  0
 18 19  1  0
 19 20  1  0
 20 21  1  0
 21 22  1  0
 22 23  1  0
 23 24  1  0
 24 25  1  0
 25 26  1  0
 26 27  1  0
 27 28  1  0
 27 29  1  0
 29 30  1  0
 29 31  1  0
 22 32  1  0
 32 33  1  0
 32 34  1  0
 34 35  1  0
 34 19  1  0
 26 24  1  0
  1 36  1  0
  1 37  1  0
  1 38  1  0
  3 39  1  0
  7 40  1  0
  7 41  1  0
  8 42  1  0
  8 43  1  0
  9 44  1  0
  9 45  1  0
 10 46  1  0
 10 47  1  0
 11 48  1  0
 11 49  1  0
 12 50  1  0
 12 51  1  0
 13 52  1  0
 13 53  1  0
 14 54  1  0
 14 55  1  0
 17 56  1  0
 18 57  1  0
 18 58  1  0
 19 59  1  6
 21 60  1  0
 21 61  1  0
 22 62  1  6
 23 63  1  0
 23 64  1  0
 24 65  1  6
 26 66  1  1
 27 67  1  6
 28 68  1  0
 28 69  1  0
 28 70  1  0
 29 71  1  1
 30 72  1  0
 30 73  1  0
 30 74  1  0
 31 75  1  0
 32 76  1  1
 33 77  1  0
 34 78  1  1
 35 79  1  0
M  END
$$$$
