
     RDKit          3D

 28 29  0  0  0  0  0  0  0  0999 V2000
    4.0933    0.2797    1.2253 C   0  0  0  0  0  0  0  0  0  0  0  0
    3.9878    0.7128   -0.2304 C   0  0  0  0  0  0  0  0  0  0  0  0
    2.6879    0.2479   -0.8882 C   0  0  0  0  0  0  0  0  0  0  0  0
    1.4596    0.9819   -0.3714 C   0  0  0  0  0  0  0  0  0  0  0  0
    1.5447    2.0969    0.1484 O   0  0  0  0  0  0  0  0  0  0  0  0
    0.1247    0.3168   -0.4861 C   0  0  0  0  0  0  0  0  0  0  0  0
   -0.7913    0.6572    0.4360 C   0  0  0  0  0  0  0  0  0  0  0  0
   -2.1134    0.0537    0.4248 C   0  0  0  0  0  0  0  0  0  0  0  0
   -3.0934    0.3893    1.3614 C   0  0  0  0  0  0  0  0  0  0  0  0
   -4.3450   -0.2298    1.3042 C   0  0  0  0  0  0  0  0  0  0  0  0
   -5.5518    0.1836    2.4591 Cl  0  0  0  0  0  0  0  0  0  0  0  0
   -4.6277   -1.1809    0.3214 C   0  0  0  0  0  0  0  0  0  0  0  0
   -3.6517   -1.5183   -0.6155 C   0  0  0  0  0  0  0  0  0  0  0  0
   -2.4078   -0.8948   -0.5494 C   0  0  0  0  0  0  0  0  0  0  0  0
   -1.4482   -1.2556   -1.5111 O   0  0  0  0  0  0  0  0  0  0  0  0
   -0.1841   -0.6721   -1.5418 C   0  0  0  0  0  0  0  0  0  0  0  0
    0.6208   -0.9730   -2.4155 O   0  0  0  0  0  0  0  0  0  0  0  0
    4.0320   -0.8096    1.3153 H   0  0  0  0  0  0  0  0  0  0  0  0
    3.2972    0.7195    1.8337 H   0  0  0  0  0  0  0  0  0  0  0  0
    5.0524    0.5999    1.6446 H   0  0  0  0  0  0  0  0  0  0  0  0
    4.8330    0.2845   -0.7822 H   0  0  0  0  0  0  0  0  0  0  0  0
    4.0848    1.8027   -0.2942 H   0  0  0  0  0  0  0  0  0  0  0  0
    2.5706   -0.8288   -0.7247 H   0  0  0  0  0  0  0  0  0  0  0  0
    2.7532    0.4374   -1.9654 H   0  0  0  0  0  0  0  0  0  0  0  0
   -0.5726    1.3858    1.2131 H   0  0  0  0  0  0  0  0  0  0  0  0
   -2.8920    1.1277    2.1337 H   0  0  0  0  0  0  0  0  0  0  0  0
   -5.6034   -1.6589    0.2816 H   0  0  0  0  0  0  0  0  0  0  0  0
   -3.8595   -2.2555   -1.3861 H   0  0  0  0  0  0  0  0  0  0  0  0
  1  2  1  0
  2  3  1  0
  3  4  1  0
  4  5  2  0
  4  6  1  0
  6  7  2  0
  7  8  1  0
  8  9  2  0
  9 10  1  0
 10 11  1  0
 10 12  2  0
 12 13  1  0
 13 14  2  0
 14 15  1  0
 15 16  1  0
 16 17  2  0
 16  6  1  0
 14  8  1  0
  1 18  1  0
  1 19  1  0
  1 20  1  0
  2 21  1  0
  2 22  1  0
  3 23  1  0
  3 24  1  0
  7 25  1  0
  9 26  1  0
 12 27  1  0
 13 28  1  0
M  END
$$$$
