
     RDKit          3D

 40 40  0  0  0  0  0  0  0  0999 V2000
    0.6925    0.0000    0.0000 Cl  0  0  0  0  0  0  0  0  0  0  0  0
   -6.4075   -0.3682    1.0986 O   0  0  0  0  0  0  0  0  0  0  0  0
   -6.1302   -0.0261   -0.2031 C   0  0  0  0  0  0  0  0  0  0  0  0
   -5.1549    1.1150   -0.2010 C   0  0  0  0  0  0  0  0  0  0  0  0
   -3.9862    0.8020    0.4334 O   0  0  0  0  0  0  0  0  0  0  0  0
   -3.3378   -0.3028   -0.1382 C   0  0  0  0  0  0  0  0  0  0  0  0
   -2.0439   -0.3961    0.5843 C   0  0  0  0  0  0  0  0  0  0  0  0
   -1.1079   -1.3779    0.2861 N   0  0  0  0  0  0  0  0  0  0  0  0
   -0.5383   -1.2917   -1.0470 C   0  0  0  0  0  0  0  0  0  0  0  0
    0.7080   -0.5045   -0.8557 C   0  0  0  0  0  0  0  0  0  0  0  0
    0.8985    0.8002   -1.3176 C   0  0  0  0  0  0  0  0  0  0  0  0
    2.1540    1.1630   -0.9322 C   0  0  0  0  0  0  0  0  0  0  0  0
    2.6755    0.0750   -0.2575 C   0  0  0  0  0  0  0  0  0  0  0  0
    4.0118    0.0356    0.3379 C   0  0  0  0  0  0  0  0  0  0  0  0
    4.8346    1.1587    0.2388 C   0  0  0  0  0  0  0  0  0  0  0  0
    6.0901    1.1783    0.7989 C   0  0  0  0  0  0  0  0  0  0  0  0
    7.0715    2.6258    0.6420 Cl  0  0  0  0  0  0  0  0  0  0  0  0
    6.5679    0.0866    1.4758 C   0  0  0  0  0  0  0  0  0  0  0  0
    5.7490   -1.0308    1.5726 C   0  0  0  0  0  0  0  0  0  0  0  0
    6.4243   -2.4008    2.4659 Cl  0  0  0  0  0  0  0  0  0  0  0  0
    4.5052   -1.0497    1.0163 C   0  0  0  0  0  0  0  0  0  0  0  0
    1.7870   -0.8625   -0.2470 O   0  0  0  0  0  0  0  0  0  0  0  0
   -0.6925    0.0000    0.0000 H   0  0  0  0  0  0  0  0  0  0  0  0
   -7.1552    0.1500    1.4450 H   0  0  0  0  0  0  0  0  0  0  0  0
   -7.0660    0.2978   -0.7505 H   0  0  0  0  0  0  0  0  0  0  0  0
   -5.7342   -0.8556   -0.7966 H   0  0  0  0  0  0  0  0  0  0  0  0
   -4.9965    1.4079   -1.2694 H   0  0  0  0  0  0  0  0  0  0  0  0
   -5.6559    2.0174    0.2825 H   0  0  0  0  0  0  0  0  0  0  0  0
   -3.2095   -0.1085   -1.2189 H   0  0  0  0  0  0  0  0  0  0  0  0
   -3.9844   -1.1862    0.0711 H   0  0  0  0  0  0  0  0  0  0  0  0
   -1.5260    0.6105    0.4454 H   0  0  0  0  0  0  0  0  0  0  0  0
   -2.2703   -0.4370    1.6931 H   0  0  0  0  0  0  0  0  0  0  0  0
   -0.4880   -1.7396    0.9957 H   0  0  0  0  0  0  0  0  0  0  0  0
   -0.2216   -2.3140   -1.3572 H   0  0  0  0  0  0  0  0  0  0  0  0
   -1.2169   -0.9006   -1.7920 H   0  0  0  0  0  0  0  0  0  0  0  0
    0.1638    1.3418   -1.8551 H   0  0  0  0  0  0  0  0  0  0  0  0
    2.6705    2.0967   -1.0926 H   0  0  0  0  0  0  0  0  0  0  0  0
    4.4701    2.0396   -0.3041 H   0  0  0  0  0  0  0  0  0  0  0  0
    7.5581    0.1035    1.9236 H   0  0  0  0  0  0  0  0  0  0  0  0
    3.8915   -1.9529    1.1159 H   0  0  0  0  0  0  0  0  0  0  0  0
  2  3  1  0
  3  4  1  0
  4  5  1  0
  5  6  1  0
  6  7  1  0
  7  8  1  0
  8  9  1  0
  9 10  1  0
 10 11  2  0
 11 12  1  0
 12 13  2  0
 13 14  1  0
 14 15  2  0
 15 16  1  0
 16 17  1  0
 16 18  2  0
 18 19  1  0
 19 20  1  0
 19 21  2  0
 13 22  1  0
 22 10  1  0
 21 14  1  0
  1 23  1  0
  2 24  1  0
  3 25  1  0
  3 26  1  0
  4 27  1  0
  4 28  1  0
  6 29  1  0
  6 30  1  0
  7 31  1  0
  7 32  1  0
  8 33  1  0
  9 34  1  0
  9 35  1  0
 11 36  1  0
 12 37  1  0
 15 38  1  0
 18 39  1  0
 21 40  1  0
M  END
$$$$
