
     RDKit          3D

 47 50  0  0  0  0  0  0  0  0999 V2000
    4.1979    1.2491    1.2292 O   0  0  0  0  0  0  0  0  0  0  0  0
    5.0144    0.4166    0.8419 C   0  0  0  0  0  0  0  0  0  0  0  0
    4.6296   -0.8917    0.5912 N   0  0  0  0  0  0  0  0  0  0  0  0
    3.2316   -1.2929    0.6328 C   0  0  0  0  0  0  0  0  0  0  0  0
    2.6377   -1.4645   -0.7731 C   0  0  1  0  0  0  0  0  0  0  0  0
    1.1651   -1.8092   -0.7333 C   0  0  0  0  0  0  0  0  0  0  0  0
    0.5286   -0.5398   -0.9154 N   0  0  0  0  0  0  0  0  0  0  0  0
   -0.8632   -0.3329   -0.7359 C   0  0  0  0  0  0  0  0  0  0  0  0
   -1.4533    0.9216   -0.8976 C   0  0  0  0  0  0  0  0  0  0  0  0
   -2.8337    1.1122   -0.7125 C   0  0  0  0  0  0  0  0  0  0  0  0
   -3.6822    0.0551   -0.3587 C   0  0  0  0  0  0  0  0  0  0  0  0
   -5.0927    0.2605   -0.1555 N   0  0  0  0  0  0  0  0  0  0  0  0
   -5.5846    1.6365   -0.0091 C   0  0  0  0  0  0  0  0  0  0  0  0
   -6.9072    1.7123    0.7422 C   0  0  0  0  0  0  0  0  0  0  0  0
   -7.8818    0.9611    0.0301 O   0  0  0  0  0  0  0  0  0  0  0  0
   -7.5010   -0.4024   -0.0116 C   0  0  0  0  0  0  0  0  0  0  0  0
   -6.0329   -0.7750   -0.3157 C   0  0  0  0  0  0  0  0  0  0  0  0
   -5.7748   -1.9360   -0.6391 O   0  0  0  0  0  0  0  0  0  0  0  0
   -3.0850   -1.1971   -0.1862 C   0  0  0  0  0  0  0  0  0  0  0  0
   -1.7052   -1.3892   -0.3723 C   0  0  0  0  0  0  0  0  0  0  0  0
    1.4479    0.3565   -1.4478 C   0  0  0  0  0  0  0  0  0  0  0  0
    1.2615    1.4864   -1.8680 O   0  0  0  0  0  0  0  0  0  0  0  0
    2.6878   -0.2322   -1.4987 O   0  0  0  0  0  0  0  0  0  0  0  0
    6.4292    0.7012    0.6228 C   0  0  0  0  0  0  0  0  0  0  0  0
    7.4952   -0.1466    0.3563 C   0  0  0  0  0  0  0  0  0  0  0  0
    8.7321    0.5539    0.2062 C   0  0  0  0  0  0  0  0  0  0  0  0
    8.5579    1.9018    0.3696 C   0  0  0  0  0  0  0  0  0  0  0  0
    9.7754    3.1087    0.2754 Cl  0  0  0  0  0  0  0  0  0  0  0  0
    6.9616    2.3398    0.6983 S   0  0  0  0  0  0  0  0  0  0  0  0
    5.2961   -1.5270    0.1804 H   0  0  0  0  0  0  0  0  0  0  0  0
    3.1956   -2.2469    1.1698 H   0  0  0  0  0  0  0  0  0  0  0  0
    2.6570   -0.5595    1.2086 H   0  0  0  0  0  0  0  0  0  0  0  0
    3.2043   -2.2225   -1.3254 H   0  0  0  0  0  0  0  0  0  0  0  0
    0.8963   -2.4485   -1.5824 H   0  0  0  0  0  0  0  0  0  0  0  0
    0.8750   -2.2969    0.2024 H   0  0  0  0  0  0  0  0  0  0  0  0
   -0.8679    1.7961   -1.1684 H   0  0  0  0  0  0  0  0  0  0  0  0
   -3.2110    2.1152   -0.8894 H   0  0  0  0  0  0  0  0  0  0  0  0
   -4.8571    2.2381    0.5457 H   0  0  0  0  0  0  0  0  0  0  0  0
   -5.7087    2.0410   -1.0208 H   0  0  0  0  0  0  0  0  0  0  0  0
   -7.2514    2.7498    0.7960 H   0  0  0  0  0  0  0  0  0  0  0  0
   -6.8172    1.3305    1.7664 H   0  0  0  0  0  0  0  0  0  0  0  0
   -7.7552   -0.8594    0.9523 H   0  0  0  0  0  0  0  0  0  0  0  0
   -8.1222   -0.8809   -0.7765 H   0  0  0  0  0  0  0  0  0  0  0  0
   -3.6644   -2.0626    0.1233 H   0  0  0  0  0  0  0  0  0  0  0  0
   -1.3284   -2.3968   -0.2271 H   0  0  0  0  0  0  0  0  0  0  0  0
    7.4160   -1.2229    0.2779 H   0  0  0  0  0  0  0  0  0  0  0  0
    9.6871    0.0892   -0.0046 H   0  0  0  0  0  0  0  0  0  0  0  0
  1  2  2  0
  2  3  1  0
  3  4  1  0
  4  5  1  0
  5  6  1  0
  6  7  1  0
  7  8  1  0
  8  9  2  0
  9 10  1  0
 10 11  2  0
 11 12  1  0
 12 13  1  0
 13 14  1  0
 14 15  1  0
 15 16  1  0
 16 17  1  0
 17 18  2  0
 11 19  1  0
 19 20  2  0
  7 21  1  0
 21 22  2  0
 21 23  1  0
  2 24  1  0
 24 25  2  0
 25 26  1  0
 26 27  2  0
 27 28  1  0
 27 29  1  0
 23  5  1  0
 29 24  1  0
 20  8  1  0
 17 12  1  0
  3 30  1  0
  4 31  1  0
  4 32  1  0
  5 33  1  6
  6 34  1  0
  6 35  1  0
  9 36  1  0
 10 37  1  0
 13 38  1  0
 13 39  1  0
 14 40  1  0
 14 41  1  0
 16 42  1  0
 16 43  1  0
 19 44  1  0
 20 45  1  0
 25 46  1  0
 26 47  1  0
M  END
$$$$
