
     RDKit          3D

 15 14  0  0  0  0  0  0  0  0999 V2000
    2.8679    0.1066   -0.8947 C   0  0  0  0  0  0  0  0  0  0  0  0
    1.5007   -0.1634   -0.5813 O   0  0  0  0  0  0  0  0  0  0  0  0
    0.8448    0.8884   -0.0354 C   0  0  0  0  0  0  0  0  0  0  0  0
    1.3174    1.9913    0.1942 O   0  0  0  0  0  0  0  0  0  0  0  0
   -0.5598    0.5614    0.2699 C   0  0  0  0  0  0  0  0  0  0  0  0
   -1.1165   -0.6348    0.0338 C   0  0  0  0  0  0  0  0  0  0  0  0
   -2.5162   -0.9397    0.3451 C   0  0  0  0  0  0  0  0  0  0  0  0
   -3.0456   -2.0167    0.1409 O   0  0  0  0  0  0  0  0  0  0  0  0
   -3.1883    0.0859    0.8870 O   0  0  0  0  0  0  0  0  0  0  0  0
    3.4264    0.3601    0.0119 H   0  0  0  0  0  0  0  0  0  0  0  0
    2.9404    0.9110   -1.6335 H   0  0  0  0  0  0  0  0  0  0  0  0
    3.3016   -0.7997   -1.3263 H   0  0  0  0  0  0  0  0  0  0  0  0
   -1.1186    1.3810    0.7094 H   0  0  0  0  0  0  0  0  0  0  0  0
   -0.5653   -1.4590   -0.4049 H   0  0  0  0  0  0  0  0  0  0  0  0
   -4.0889   -0.2724    1.0331 H   0  0  0  0  0  0  0  0  0  0  0  0
  1  2  1  0
  2  3  1  0
  3  4  2  0
  3  5  1  0
  5  6  2  3
  6  7  1  0
  7  8  2  0
  7  9  1  0
  1 10  1  0
  1 11  1  0
  1 12  1  0
  5 13  1  0
  6 14  1  0
  9 15  1  0
M  END
$$$$
