
     RDKit          3D

 40 44  0  0  0  0  0  0  0  0999 V2000
   -0.0743    3.9237   -1.1314 C   0  0  0  0  0  0  0  0  0  0  0  0
   -0.2088    2.6412   -0.3104 C   0  0  1  0  0  0  0  0  0  0  0  0
   -1.5258    1.9014   -0.6906 C   0  0  0  0  0  0  0  0  0  0  0  0
   -1.5090    0.5091   -0.1556 C   0  0  0  0  0  0  0  0  0  0  0  0
   -0.3367   -0.0711    0.2867 C   0  0  0  0  0  0  0  0  0  0  0  0
   -0.6306   -1.3323    0.7320 N   0  0  0  0  0  0  0  0  0  0  0  0
   -1.9750   -1.5875    0.5563 C   0  0  0  0  0  0  0  0  0  0  0  0
   -2.7170   -2.7398    0.8512 C   0  0  0  0  0  0  0  0  0  0  0  0
   -4.0862   -2.7139    0.5670 C   0  0  0  0  0  0  0  0  0  0  0  0
   -5.0327   -4.1131    0.9133 Cl  0  0  0  0  0  0  0  0  0  0  0  0
   -4.6793   -1.5822    0.0143 C   0  0  0  0  0  0  0  0  0  0  0  0
   -5.9939   -1.5662   -0.2560 F   0  0  0  0  0  0  0  0  0  0  0  0
   -3.9318   -0.4389   -0.2749 C   0  0  0  0  0  0  0  0  0  0  0  0
   -2.5517   -0.4404    0.0004 C   0  0  0  0  0  0  0  0  0  0  0  0
    1.0118    0.5850    0.3095 C   0  0  1  0  0  0  0  0  0  0  0  0
    1.0083    1.8142   -0.5308 N   0  0  0  0  0  0  0  0  0  0  0  0
    1.4333    0.9260    1.7977 C   0  0  0  0  0  0  0  0  0  0  0  0
    0.8520    1.6163    2.6225 O   0  0  0  0  0  0  0  0  0  0  0  0
    2.6331    0.2572    2.0492 N   0  0  0  0  0  0  0  0  0  0  0  0
    3.0489   -0.4751    0.9508 C   0  0  0  0  0  0  0  0  0  0  0  0
    4.1827   -1.2559    0.8576 C   0  0  0  0  0  0  0  0  0  0  0  0
    4.4039   -1.9277   -0.3482 C   0  0  0  0  0  0  0  0  0  0  0  0
    3.4948   -1.8020   -1.4136 C   0  0  0  0  0  0  0  0  0  0  0  0
    3.7927   -2.6489   -2.8824 Cl  0  0  0  0  0  0  0  0  0  0  0  0
    2.3524   -1.0060   -1.3005 C   0  0  0  0  0  0  0  0  0  0  0  0
    2.1408   -0.3387   -0.1015 C   0  0  0  0  0  0  0  0  0  0  0  0
    0.8229    4.4818   -0.8416 H   0  0  0  0  0  0  0  0  0  0  0  0
   -0.9386    4.5768   -0.9699 H   0  0  0  0  0  0  0  0  0  0  0  0
   -0.0086    3.7109   -2.2044 H   0  0  0  0  0  0  0  0  0  0  0  0
   -0.2569    2.9346    0.7450 H   0  0  0  0  0  0  0  0  0  0  0  0
   -1.6333    1.8535   -1.7815 H   0  0  0  0  0  0  0  0  0  0  0  0
   -2.3861    2.4523   -0.2935 H   0  0  0  0  0  0  0  0  0  0  0  0
    0.0313   -1.9889    1.1258 H   0  0  0  0  0  0  0  0  0  0  0  0
   -2.2492   -3.6178    1.2842 H   0  0  0  0  0  0  0  0  0  0  0  0
   -4.4204    0.4294   -0.7037 H   0  0  0  0  0  0  0  0  0  0  0  0
    1.0009    1.5126   -1.5033 H   0  0  0  0  0  0  0  0  0  0  0  0
    3.1147    0.3337    2.9325 H   0  0  0  0  0  0  0  0  0  0  0  0
    4.8816   -1.3500    1.6814 H   0  0  0  0  0  0  0  0  0  0  0  0
    5.2883   -2.5512   -0.4599 H   0  0  0  0  0  0  0  0  0  0  0  0
    1.6515   -0.9123   -2.1239 H   0  0  0  0  0  0  0  0  0  0  0  0
  1  2  1  0
  2  3  1  0
  3  4  1  0
  4  5  2  0
  5  6  1  0
  6  7  1  0
  7  8  2  0
  8  9  1  0
  9 10  1  0
  9 11  2  0
 11 12  1  0
 11 13  1  0
 13 14  2  0
  5 15  1  0
 15 16  1  6
 15 17  1  0
 17 18  2  0
 17 19  1  0
 19 20  1  0
 20 21  2  0
 21 22  1  0
 22 23  2  0
 23 24  1  0
 23 25  1  0
 25 26  2  0
 16  2  1  0
 26 20  1  0
 14  4  1  0
 26 15  1  0
 14  7  1  0
  1 27  1  0
  1 28  1  0
  1 29  1  0
  2 30  1  1
  3 31  1  0
  3 32  1  0
  6 33  1  0
  8 34  1  0
 13 35  1  0
 16 36  1  0
 19 37  1  0
 21 38  1  0
 22 39  1  0
 25 40  1  0
M  END
$$$$
