
     RDKit          3D

 34 35  0  0  0  0  0  0  0  0999 V2000
    0.4582    1.0259   -1.0120 O   0  0  0  0  0  0  0  0  0  0  0  0
    0.6001    0.4371    0.0504 C   0  0  0  0  0  0  0  0  0  0  0  0
    1.7832    0.2151    0.7221 N   0  0  0  0  0  0  0  0  0  0  0  0
    3.0875    0.5207    0.2874 C   0  0  0  0  0  0  0  0  0  0  0  0
    4.1277    0.3563    1.2116 C   0  0  0  0  0  0  0  0  0  0  0  0
    5.4519    0.6295    0.8537 C   0  0  0  0  0  0  0  0  0  0  0  0
    5.7422    1.0658   -0.4367 C   0  0  0  0  0  0  0  0  0  0  0  0
    7.7066    1.4730   -0.9750 I   0  0  0  0  0  0  0  0  0  0  0  0
    4.7186    1.2274   -1.3672 C   0  0  0  0  0  0  0  0  0  0  0  0
    3.3947    0.9527   -1.0047 C   0  0  0  0  0  0  0  0  0  0  0  0
   -0.4629   -0.0920    0.7617 N   0  0  0  0  0  0  0  0  0  0  0  0
   -1.8180   -0.0299    0.2265 C   0  0  0  0  0  0  0  0  0  0  0  0
   -2.8423   -0.1641    1.3653 C   0  0  0  0  0  0  0  0  0  0  0  0
   -4.1989   -0.7090    0.9111 C   0  0  0  0  0  0  0  0  0  0  0  0
   -4.4876   -0.3802   -0.5465 C   0  0  0  0  0  0  0  0  0  0  0  0
   -3.4356   -0.9779   -1.4820 C   0  0  0  0  0  0  0  0  0  0  0  0
   -2.0477   -1.0975   -0.8478 C   0  0  0  0  0  0  0  0  0  0  0  0
    1.6803   -0.0569    1.6877 H   0  0  0  0  0  0  0  0  0  0  0  0
    3.9240    0.0169    2.2238 H   0  0  0  0  0  0  0  0  0  0  0  0
    6.2402    0.4975    1.5901 H   0  0  0  0  0  0  0  0  0  0  0  0
    4.9273    1.5649   -2.3793 H   0  0  0  0  0  0  0  0  0  0  0  0
    2.6241    1.0825   -1.7590 H   0  0  0  0  0  0  0  0  0  0  0  0
   -0.2395   -0.9152    1.3008 H   0  0  0  0  0  0  0  0  0  0  0  0
   -1.9418    0.9576   -0.2380 H   0  0  0  0  0  0  0  0  0  0  0  0
   -2.4603   -0.8126    2.1644 H   0  0  0  0  0  0  0  0  0  0  0  0
   -2.9787    0.8225    1.8268 H   0  0  0  0  0  0  0  0  0  0  0  0
   -4.9899   -0.3084    1.5552 H   0  0  0  0  0  0  0  0  0  0  0  0
   -4.2129   -1.7985    1.0418 H   0  0  0  0  0  0  0  0  0  0  0  0
   -4.5092    0.7098   -0.6718 H   0  0  0  0  0  0  0  0  0  0  0  0
   -5.4812   -0.7457   -0.8296 H   0  0  0  0  0  0  0  0  0  0  0  0
   -3.7562   -1.9729   -1.8140 H   0  0  0  0  0  0  0  0  0  0  0  0
   -3.3783   -0.3590   -2.3856 H   0  0  0  0  0  0  0  0  0  0  0  0
   -1.9396   -2.0932   -0.3969 H   0  0  0  0  0  0  0  0  0  0  0  0
   -1.2859   -1.0420   -1.6344 H   0  0  0  0  0  0  0  0  0  0  0  0
  1  2  2  0
  2  3  1  0
  3  4  1  0
  4  5  2  0
  5  6  1  0
  6  7  2  0
  7  8  1  0
  7  9  1  0
  9 10  2  0
  2 11  1  0
 11 12  1  0
 12 13  1  0
 13 14  1  0
 14 15  1  0
 15 16  1  0
 16 17  1  0
 10  4  1  0
 17 12  1  0
  3 18  1  0
  5 19  1  0
  6 20  1  0
  9 21  1  0
 10 22  1  0
 11 23  1  0
 12 24  1  0
 13 25  1  0
 13 26  1  0
 14 27  1  0
 14 28  1  0
 15 29  1  0
 15 30  1  0
 16 31  1  0
 16 32  1  0
 17 33  1  0
 17 34  1  0
M  END
$$$$
