
     RDKit          3D

 59 62  0  0  0  0  0  0  0  0999 V2000
   10.2938   -0.3265   -2.3476 C   0  0  0  0  0  0  0  0  0  0  0  0
    9.5654    0.2036   -1.2467 O   0  0  0  0  0  0  0  0  0  0  0  0
    8.3681   -0.3880   -0.9572 C   0  0  0  0  0  0  0  0  0  0  0  0
    7.7158   -1.3411   -1.7355 C   0  0  0  0  0  0  0  0  0  0  0  0
    6.4817   -1.8537   -1.3223 C   0  0  0  0  0  0  0  0  0  0  0  0
    5.8921   -1.4370   -0.1254 C   0  0  0  0  0  0  0  0  0  0  0  0
    4.6866   -2.0187    0.1529 O   0  0  0  0  0  0  0  0  0  0  0  0
    4.2322   -1.9684    1.4960 C   0  0  0  0  0  0  0  0  0  0  0  0
    3.5154   -0.6882    1.9558 C   0  0  0  0  0  0  0  0  0  0  0  0
    3.8750   -0.1353    2.9981 O   0  0  0  0  0  0  0  0  0  0  0  0
    2.4377   -0.2240    1.2061 N   0  0  0  0  0  0  0  0  0  0  0  0
    1.7715    1.0100    1.6036 C   0  0  0  0  0  0  0  0  0  0  0  0
    0.2693    0.7948    1.7493 C   0  0  0  0  0  0  0  0  0  0  0  0
   -0.3320   -0.0447    0.6058 C   0  0  0  0  0  0  0  0  0  0  0  0
   -1.6085    0.5479    0.1195 C   0  0  0  0  0  0  0  0  0  0  0  0
   -2.8354    0.1067    0.2601 N   0  0  0  0  0  0  0  0  0  0  0  0
   -3.5841    1.0936   -0.3484 C   0  0  0  0  0  0  0  0  0  0  0  0
   -5.0414    1.0416   -0.4091 C   0  0  0  0  0  0  0  0  0  0  0  0
   -5.7326   -0.0753    0.0773 C   0  0  0  0  0  0  0  0  0  0  0  0
   -7.1332   -0.1331    0.0336 C   0  0  0  0  0  0  0  0  0  0  0  0
   -7.8698    0.9249   -0.4975 C   0  0  0  0  0  0  0  0  0  0  0  0
   -9.2770    0.9472   -0.5797 N   0  0  0  0  0  0  0  0  0  0  0  0
  -10.1618   -0.0375   -0.1755 C   0  0  0  0  0  0  0  0  0  0  0  0
  -11.5945    0.3551   -0.4379 C   0  0  0  0  0  0  0  0  0  0  0  0
   -9.8862   -1.1191    0.3297 O   0  0  0  0  0  0  0  0  0  0  0  0
   -7.1834    2.0433   -0.9845 C   0  0  0  0  0  0  0  0  0  0  0  0
   -5.7842    2.1018   -0.9422 C   0  0  0  0  0  0  0  0  0  0  0  0
   -2.8459    2.0934   -0.8582 N   0  0  0  0  0  0  0  0  0  0  0  0
   -1.5373    1.7341   -0.5465 O   0  0  0  0  0  0  0  0  0  0  0  0
    0.6597   -0.2655   -0.5409 C   0  0  0  0  0  0  0  0  0  0  0  0
    1.9635   -0.8662   -0.0187 C   0  0  0  0  0  0  0  0  0  0  0  0
    6.5413   -0.4788    0.6490 C   0  0  0  0  0  0  0  0  0  0  0  0
    7.7698    0.0428    0.2290 C   0  0  0  0  0  0  0  0  0  0  0  0
    9.7594   -0.1664   -3.2897 H   0  0  0  0  0  0  0  0  0  0  0  0
   11.2450    0.2093   -2.4096 H   0  0  0  0  0  0  0  0  0  0  0  0
   10.5212   -1.3867   -2.1942 H   0  0  0  0  0  0  0  0  0  0  0  0
    8.1322   -1.7021   -2.6704 H   0  0  0  0  0  0  0  0  0  0  0  0
    5.9800   -2.5938   -1.9375 H   0  0  0  0  0  0  0  0  0  0  0  0
    5.0518   -2.1895    2.1906 H   0  0  0  0  0  0  0  0  0  0  0  0
    3.5192   -2.7888    1.6233 H   0  0  0  0  0  0  0  0  0  0  0  0
    2.1735    1.3998    2.5429 H   0  0  0  0  0  0  0  0  0  0  0  0
    1.9845    1.7613    0.8341 H   0  0  0  0  0  0  0  0  0  0  0  0
    0.0748    0.2704    2.6927 H   0  0  0  0  0  0  0  0  0  0  0  0
   -0.2165    1.7721    1.8471 H   0  0  0  0  0  0  0  0  0  0  0  0
   -0.5770   -1.0333    1.0202 H   0  0  0  0  0  0  0  0  0  0  0  0
   -5.1884   -0.9187    0.4991 H   0  0  0  0  0  0  0  0  0  0  0  0
   -7.6138   -1.0224    0.4284 H   0  0  0  0  0  0  0  0  0  0  0  0
   -9.6834    1.7755   -0.9939 H   0  0  0  0  0  0  0  0  0  0  0  0
  -12.2659   -0.3971   -0.0150 H   0  0  0  0  0  0  0  0  0  0  0  0
  -11.7685    0.4193   -1.5151 H   0  0  0  0  0  0  0  0  0  0  0  0
  -11.8125    1.3184    0.0306 H   0  0  0  0  0  0  0  0  0  0  0  0
   -7.7213    2.8893   -1.4034 H   0  0  0  0  0  0  0  0  0  0  0  0
   -5.2841    2.9876   -1.3290 H   0  0  0  0  0  0  0  0  0  0  0  0
    0.2310   -0.9236   -1.3071 H   0  0  0  0  0  0  0  0  0  0  0  0
    0.8750    0.6875   -1.0428 H   0  0  0  0  0  0  0  0  0  0  0  0
    1.8268   -1.9333    0.1897 H   0  0  0  0  0  0  0  0  0  0  0  0
    2.7375   -0.7680   -0.7866 H   0  0  0  0  0  0  0  0  0  0  0  0
    6.1238   -0.1017    1.5783 H   0  0  0  0  0  0  0  0  0  0  0  0
    8.2647    0.7954    0.8367 H   0  0  0  0  0  0  0  0  0  0  0  0
  1  2  1  0
  2  3  1  0
  3  4  2  0
  4  5  1  0
  5  6  2  0
  6  7  1  0
  7  8  1  0
  8  9  1  0
  9 10  2  0
  9 11  1  0
 11 12  1  0
 12 13  1  0
 13 14  1  0
 14 15  1  0
 15 16  2  0
 16 17  1  0
 17 18  1  0
 18 19  2  0
 19 20  1  0
 20 21  2  0
 21 22  1  0
 22 23  1  0
 23 24  1  0
 23 25  2  0
 21 26  1  0
 26 27  2  0
 17 28  2  0
 28 29  1  0
 14 30  1  0
 30 31  1  0
  6 32  1  0
 32 33  2  0
 33  3  1  0
 31 11  1  0
 29 15  1  0
 27 18  1  0
  1 34  1  0
  1 35  1  0
  1 36  1  0
  4 37  1  0
  5 38  1  0
  8 39  1  0
  8 40  1  0
 12 41  1  0
 12 42  1  0
 13 43  1  0
 13 44  1  0
 14 45  1  0
 19 46  1  0
 20 47  1  0
 22 48  1  0
 24 49  1  0
 24 50  1  0
 24 51  1  0
 26 52  1  0
 27 53  1  0
 30 54  1  0
 30 55  1  0
 31 56  1  0
 31 57  1  0
 32 58  1  0
 33 59  1  0
M  END
$$$$
