
     RDKit          3D

 55 58  0  0  0  0  0  0  0  0999 V2000
    8.1937    0.1667    2.0050 C   0  0  0  0  0  0  0  0  0  0  0  0
    7.1215    0.7195    1.1442 C   0  0  0  0  0  0  0  0  0  0  0  0
    7.2530    1.3657   -0.1059 C   0  0  0  0  0  0  0  0  0  0  0  0
    5.9706    1.6890   -0.4771 C   0  0  0  0  0  0  0  0  0  0  0  0
    5.1582    1.2104    0.5117 N   0  0  0  0  0  0  0  0  0  0  0  0
    3.7188    1.3799    0.6259 C   0  0  0  0  0  0  0  0  0  0  0  0
    2.9441    0.4888   -0.3274 C   0  0  0  0  0  0  0  0  0  0  0  0
    3.4064    0.1400   -1.4171 O   0  0  0  0  0  0  0  0  0  0  0  0
    1.6550    0.1109    0.0560 N   0  0  0  0  0  0  0  0  0  0  0  0
    0.9703    0.5800    1.2632 C   0  0  0  0  0  0  0  0  0  0  0  0
   -0.5435    0.6144    1.0826 C   0  0  0  0  0  0  0  0  0  0  0  0
   -1.1638   -0.7508    0.6680 C   0  0  2  0  0  0  0  0  0  0  0  0
   -0.0647   -1.6540    0.0376 C   0  0  1  0  0  0  0  0  0  0  0  0
   -0.5210   -2.9174   -0.6943 C   0  0  0  0  0  0  0  0  0  0  0  0
   -1.7571   -3.3809   -0.1677 O   0  0  0  0  0  0  0  0  0  0  0  0
   -2.8887   -2.8119   -0.8296 C   0  0  0  0  0  0  0  0  0  0  0  0
   -2.7494   -1.3209   -1.1841 C   0  0  0  0  0  0  0  0  0  0  0  0
   -2.3937   -0.4090   -0.0899 N   0  0  0  0  0  0  0  0  0  0  0  0
   -3.5308   -0.1810    0.8307 C   0  0  0  0  0  0  0  0  0  0  0  0
   -4.6991    0.5436    0.1941 C   0  0  0  0  0  0  0  0  0  0  0  0
   -5.9943    0.0102    0.2678 C   0  0  0  0  0  0  0  0  0  0  0  0
   -7.0732    0.6888   -0.3025 C   0  0  0  0  0  0  0  0  0  0  0  0
   -6.8702    1.9078   -0.9475 C   0  0  0  0  0  0  0  0  0  0  0  0
   -5.5892    2.4518   -1.0213 C   0  0  0  0  0  0  0  0  0  0  0  0
   -4.5097    1.7758   -0.4507 C   0  0  0  0  0  0  0  0  0  0  0  0
    0.9318   -0.8448   -0.7880 C   0  0  0  0  0  0  0  0  0  0  0  0
    5.8420    0.6497    1.5326 N   0  0  0  0  0  0  0  0  0  0  0  0
    8.2722    0.7413    2.9339 H   0  0  0  0  0  0  0  0  0  0  0  0
    9.1641    0.2039    1.4995 H   0  0  0  0  0  0  0  0  0  0  0  0
    7.9851   -0.8776    2.2596 H   0  0  0  0  0  0  0  0  0  0  0  0
    8.1593    1.5677   -0.6583 H   0  0  0  0  0  0  0  0  0  0  0  0
    5.5722    2.1838   -1.3522 H   0  0  0  0  0  0  0  0  0  0  0  0
    3.4625    1.1644    1.6679 H   0  0  0  0  0  0  0  0  0  0  0  0
    3.4901    2.4283    0.4069 H   0  0  0  0  0  0  0  0  0  0  0  0
    1.3188    1.5856    1.5194 H   0  0  0  0  0  0  0  0  0  0  0  0
    1.2497   -0.0892    2.0850 H   0  0  0  0  0  0  0  0  0  0  0  0
   -0.7618    1.3723    0.3152 H   0  0  0  0  0  0  0  0  0  0  0  0
   -1.0103    0.9708    2.0095 H   0  0  0  0  0  0  0  0  0  0  0  0
   -1.4633   -1.2788    1.5861 H   0  0  0  0  0  0  0  0  0  0  0  0
    0.4961   -2.0446    0.9032 H   0  0  0  0  0  0  0  0  0  0  0  0
   -0.5701   -2.7981   -1.7832 H   0  0  0  0  0  0  0  0  0  0  0  0
    0.2175   -3.7088   -0.5209 H   0  0  0  0  0  0  0  0  0  0  0  0
   -3.0635   -3.3855   -1.7470 H   0  0  0  0  0  0  0  0  0  0  0  0
   -3.7583   -2.9755   -0.1843 H   0  0  0  0  0  0  0  0  0  0  0  0
   -3.6773   -0.9986   -1.6718 H   0  0  0  0  0  0  0  0  0  0  0  0
   -1.9967   -1.1938   -1.9712 H   0  0  0  0  0  0  0  0  0  0  0  0
   -3.2201    0.4482    1.6747 H   0  0  0  0  0  0  0  0  0  0  0  0
   -3.8616   -1.1299    1.2707 H   0  0  0  0  0  0  0  0  0  0  0  0
   -6.1729   -0.9367    0.7717 H   0  0  0  0  0  0  0  0  0  0  0  0
   -8.0736    0.2675   -0.2410 H   0  0  0  0  0  0  0  0  0  0  0  0
   -7.7107    2.4354   -1.3914 H   0  0  0  0  0  0  0  0  0  0  0  0
   -5.4294    3.4033   -1.5227 H   0  0  0  0  0  0  0  0  0  0  0  0
   -3.5120    2.2061   -0.5154 H   0  0  0  0  0  0  0  0  0  0  0  0
    0.4245   -0.2740   -1.5741 H   0  0  0  0  0  0  0  0  0  0  0  0
    1.6524   -1.5100   -1.2765 H   0  0  0  0  0  0  0  0  0  0  0  0
  1  2  1  0
  2  3  1  0
  3  4  2  0
  4  5  1  0
  5  6  1  0
  6  7  1  0
  7  8  2  0
  7  9  1  0
  9 10  1  0
 10 11  1  0
 11 12  1  0
 12 13  1  0
 13 14  1  0
 14 15  1  0
 15 16  1  0
 16 17  1  0
 17 18  1  0
 18 19  1  0
 19 20  1  0
 20 21  2  0
 21 22  1  0
 22 23  2  0
 23 24  1  0
 24 25  2  0
 13 26  1  0
  5 27  1  0
 27  2  2  0
 26  9  1  0
 18 12  1  0
 25 20  1  0
  1 28  1  0
  1 29  1  0
  1 30  1  0
  3 31  1  0
  4 32  1  0
  6 33  1  0
  6 34  1  0
 10 35  1  0
 10 36  1  0
 11 37  1  0
 11 38  1  0
 12 39  1  1
 13 40  1  1
 14 41  1  0
 14 42  1  0
 16 43  1  0
 16 44  1  0
 17 45  1  0
 17 46  1  0
 19 47  1  0
 19 48  1  0
 21 49  1  0
 22 50  1  0
 23 51  1  0
 24 52  1  0
 25 53  1  0
 26 54  1  0
 26 55  1  0
M  END
$$$$
