
     RDKit          3D

 60 63  0  0  0  0  0  0  0  0999 V2000
   -3.7245    1.5407    2.6176 C   0  0  0  0  0  0  0  0  0  0  0  0
   -3.7069    1.2541    1.1478 C   0  0  0  0  0  0  0  0  0  0  0  0
   -4.0641    2.0412    0.2870 O   0  0  0  0  0  0  0  0  0  0  0  0
   -3.2429   -0.0029    0.9270 O   0  0  0  0  0  0  0  0  0  0  0  0
   -3.0931   -0.4930   -0.4329 C   0  0  2  0  0  0  0  0  0  0  0  0
   -4.3437   -0.2209   -1.3179 C   0  0  0  0  0  0  0  0  0  0  0  0
   -5.6942   -0.5682   -0.7318 C   0  0  0  0  0  0  0  0  0  0  0  0
   -4.2846    0.2537   -2.4525 O   0  0  0  0  0  0  0  0  0  0  0  0
   -2.9599   -2.0435   -0.2624 C   0  0  0  0  0  0  0  0  0  0  0  0
   -1.4574   -2.3665   -0.1556 C   0  0  0  0  0  0  0  0  0  0  0  0
   -0.7746   -1.0040   -0.1036 C   0  0  1  0  0  0  0  0  0  0  0  0
    0.7206   -0.9179   -0.4557 C   0  0  2  0  0  0  0  0  0  0  0  0
    1.5868   -1.8178    0.3837 C   0  0  0  0  0  0  0  0  0  0  0  0
    2.8076   -1.4918    0.8502 C   0  0  0  0  0  0  0  0  0  0  0  0
    3.5726   -2.5053    1.6687 C   0  0  0  0  0  0  0  0  0  0  0  0
    3.4282   -0.1882    0.5469 C   0  0  0  0  0  0  0  0  0  0  0  0
    4.5575    0.2072    1.1665 C   0  0  0  0  0  0  0  0  0  0  0  0
    5.2203    1.5009    0.8837 C   0  0  0  0  0  0  0  0  0  0  0  0
    6.2690    1.7755    1.4634 O   0  0  0  0  0  0  0  0  0  0  0  0
    4.6171    2.4155   -0.1459 C   0  0  0  0  0  0  0  0  0  0  0  0
    3.1166    2.1943   -0.2628 C   0  0  0  0  0  0  0  0  0  0  0  0
    2.7202    0.7088   -0.4946 C   0  0  1  0  0  0  0  0  0  0  0  0
    3.1740    0.2844   -1.9116 C   0  0  0  0  0  0  0  0  0  0  0  0
    1.1705    0.5622   -0.3083 C   0  0  1  0  0  0  0  0  0  0  0  0
    0.2964    1.4959   -1.1797 C   0  0  0  0  0  0  0  0  0  0  0  0
   -1.2045    1.3317   -0.8677 C   0  0  0  0  0  0  0  0  0  0  0  0
   -1.6769   -0.1255   -1.0201 C   0  0  2  0  0  0  0  0  0  0  0  0
   -1.5584   -0.5287   -2.5212 C   0  0  0  0  0  0  0  0  0  0  0  0
   -4.4037    0.8491    3.1222 H   0  0  0  0  0  0  0  0  0  0  0  0
   -4.0781    2.5626    2.7829 H   0  0  0  0  0  0  0  0  0  0  0  0
   -2.7133    1.4533    3.0234 H   0  0  0  0  0  0  0  0  0  0  0  0
   -5.5990   -1.2981    0.0749 H   0  0  0  0  0  0  0  0  0  0  0  0
   -6.3205   -1.0086   -1.5128 H   0  0  0  0  0  0  0  0  0  0  0  0
   -6.1693    0.3370   -0.3469 H   0  0  0  0  0  0  0  0  0  0  0  0
   -3.3888   -2.5914   -1.1103 H   0  0  0  0  0  0  0  0  0  0  0  0
   -3.4742   -2.3904    0.6423 H   0  0  0  0  0  0  0  0  0  0  0  0
   -1.2478   -2.9626    0.7386 H   0  0  0  0  0  0  0  0  0  0  0  0
   -1.1308   -2.9491   -1.0245 H   0  0  0  0  0  0  0  0  0  0  0  0
   -0.8679   -0.6488    0.9356 H   0  0  0  0  0  0  0  0  0  0  0  0
    0.8578   -1.2573   -1.4869 H   0  0  0  0  0  0  0  0  0  0  0  0
    1.1952   -2.8121    0.5875 H   0  0  0  0  0  0  0  0  0  0  0  0
    3.7228   -2.1447    2.6918 H   0  0  0  0  0  0  0  0  0  0  0  0
    4.5476   -2.7150    1.2153 H   0  0  0  0  0  0  0  0  0  0  0  0
    3.0430   -3.4621    1.7409 H   0  0  0  0  0  0  0  0  0  0  0  0
    5.0746   -0.3875    1.9102 H   0  0  0  0  0  0  0  0  0  0  0  0
    5.1260    2.2507   -1.1006 H   0  0  0  0  0  0  0  0  0  0  0  0
    4.8015    3.4511    0.1613 H   0  0  0  0  0  0  0  0  0  0  0  0
    2.7452    2.8259   -1.0783 H   0  0  0  0  0  0  0  0  0  0  0  0
    2.6409    2.5587    0.6585 H   0  0  0  0  0  0  0  0  0  0  0  0
    2.7317    0.9264   -2.6803 H   0  0  0  0  0  0  0  0  0  0  0  0
    4.2622    0.3468   -2.0238 H   0  0  0  0  0  0  0  0  0  0  0  0
    2.9043   -0.7496   -2.1474 H   0  0  0  0  0  0  0  0  0  0  0  0
    0.9598    0.8592    0.7335 H   0  0  0  0  0  0  0  0  0  0  0  0
    0.4823    1.3180   -2.2434 H   0  0  0  0  0  0  0  0  0  0  0  0
    0.5537    2.5433   -0.9900 H   0  0  0  0  0  0  0  0  0  0  0  0
   -1.3550    1.6827    0.1585 H   0  0  0  0  0  0  0  0  0  0  0  0
   -1.7893    1.9941   -1.5167 H   0  0  0  0  0  0  0  0  0  0  0  0
   -2.0249    0.2223   -3.1672 H   0  0  0  0  0  0  0  0  0  0  0  0
   -0.5249   -0.6051   -2.8662 H   0  0  0  0  0  0  0  0  0  0  0  0
   -2.0326   -1.4902   -2.7402 H   0  0  0  0  0  0  0  0  0  0  0  0
  1  2  1  0
  2  3  2  0
  2  4  1  0
  5  4  1  1
  5  6  1  0
  6  7  1  0
  6  8  2  0
  5  9  1  0
  9 10  1  0
 10 11  1  0
 11 12  1  0
 12 13  1  0
 13 14  2  0
 14 15  1  0
 14 16  1  0
 16 17  2  0
 17 18  1  0
 18 19  2  0
 18 20  1  0
 20 21  1  0
 21 22  1  0
 22 23  1  6
 22 24  1  0
 24 25  1  0
 25 26  1  0
 26 27  1  0
 27 28  1  6
 27  5  1  0
 27 11  1  0
 24 12  1  0
 22 16  1  0
  1 29  1  0
  1 30  1  0
  1 31  1  0
  7 32  1  0
  7 33  1  0
  7 34  1  0
  9 35  1  0
  9 36  1  0
 10 37  1  0
 10 38  1  0
 11 39  1  1
 12 40  1  6
 13 41  1  0
 15 42  1  0
 15 43  1  0
 15 44  1  0
 17 45  1  0
 20 46  1  0
 20 47  1  0
 21 48  1  0
 21 49  1  0
 23 50  1  0
 23 51  1  0
 23 52  1  0
 24 53  1  1
 25 54  1  0
 25 55  1  0
 26 56  1  0
 26 57  1  0
 28 58  1  0
 28 59  1  0
 28 60  1  0
M  END
$$$$
