
     RDKit          3D

 37 38  0  0  0  0  0  0  0  0999 V2000
   -0.2738   -3.1330   -0.4342 C   0  0  0  0  0  0  0  0  0  0  0  0
   -0.0948   -1.8539   -1.0252 O   0  0  0  0  0  0  0  0  0  0  0  0
    0.9589   -1.0899   -0.6195 C   0  0  0  0  0  0  0  0  0  0  0  0
    1.9394   -1.5347    0.2762 C   0  0  0  0  0  0  0  0  0  0  0  0
    3.0028   -0.7062    0.6531 C   0  0  0  0  0  0  0  0  0  0  0  0
    3.1210    0.5818    0.1296 C   0  0  0  0  0  0  0  0  0  0  0  0
    4.2492    1.4774    0.5475 C   0  0  0  0  0  0  0  0  0  0  0  0
    2.1398    1.0399   -0.7542 C   0  0  0  0  0  0  0  0  0  0  0  0
    1.0611    0.2134   -1.1222 C   0  0  0  0  0  0  0  0  0  0  0  0
   -0.1262    0.8841   -2.2732 S   0  0  0  0  0  6  0  0  0  0  0  0
   -0.6804   -0.1656   -3.0993 O   0  0  0  0  0  0  0  0  0  0  0  0
    0.5011    2.0335   -2.9018 O   0  0  0  0  0  0  0  0  0  0  0  0
   -1.3226    1.5466   -1.2831 N   0  0  0  0  0  0  0  0  0  0  0  0
   -2.0341    0.7339   -0.3566 C   0  0  0  0  0  0  0  0  0  0  0  0
   -2.8604   -0.2873   -0.8339 C   0  0  0  0  0  0  0  0  0  0  0  0
   -3.5682   -1.0973    0.0535 C   0  0  0  0  0  0  0  0  0  0  0  0
   -3.4550   -0.8872    1.4241 C   0  0  0  0  0  0  0  0  0  0  0  0
   -2.6382    0.1360    1.9074 C   0  0  0  0  0  0  0  0  0  0  0  0
   -1.9201    0.9609    1.0258 C   0  0  0  0  0  0  0  0  0  0  0  0
   -1.0617    2.0587    1.5870 C   0  0  0  0  0  0  0  0  0  0  0  0
    0.5544   -3.8027   -0.6871 H   0  0  0  0  0  0  0  0  0  0  0  0
   -1.1895   -3.5669   -0.8472 H   0  0  0  0  0  0  0  0  0  0  0  0
   -0.4035   -3.0534    0.6502 H   0  0  0  0  0  0  0  0  0  0  0  0
    1.9103   -2.5326    0.7028 H   0  0  0  0  0  0  0  0  0  0  0  0
    3.7448   -1.0838    1.3542 H   0  0  0  0  0  0  0  0  0  0  0  0
    3.9526    2.0708    1.4179 H   0  0  0  0  0  0  0  0  0  0  0  0
    5.1387    0.8927    0.8046 H   0  0  0  0  0  0  0  0  0  0  0  0
    4.5304    2.1554   -0.2652 H   0  0  0  0  0  0  0  0  0  0  0  0
    2.2195    2.0471   -1.1607 H   0  0  0  0  0  0  0  0  0  0  0  0
   -1.1303    2.5136   -1.0363 H   0  0  0  0  0  0  0  0  0  0  0  0
   -2.9601   -0.4598   -1.9032 H   0  0  0  0  0  0  0  0  0  0  0  0
   -4.2058   -1.8895   -0.3296 H   0  0  0  0  0  0  0  0  0  0  0  0
   -4.0070   -1.5164    2.1177 H   0  0  0  0  0  0  0  0  0  0  0  0
   -2.5686    0.2875    2.9826 H   0  0  0  0  0  0  0  0  0  0  0  0
   -1.4273    3.0345    1.2518 H   0  0  0  0  0  0  0  0  0  0  0  0
   -1.0748    2.0603    2.6822 H   0  0  0  0  0  0  0  0  0  0  0  0
   -0.0216    1.9320    1.2742 H   0  0  0  0  0  0  0  0  0  0  0  0
  1  2  1  0
  2  3  1  0
  3  4  2  0
  4  5  1  0
  5  6  2  0
  6  7  1  0
  6  8  1  0
  8  9  2  0
  9 10  1  0
 10 11  2  0
 10 12  2  0
 10 13  1  0
 13 14  1  0
 14 15  2  0
 15 16  1  0
 16 17  2  0
 17 18  1  0
 18 19  2  0
 19 20  1  0
  9  3  1  0
 19 14  1  0
  1 21  1  0
  1 22  1  0
  1 23  1  0
  4 24  1  0
  5 25  1  0
  7 26  1  0
  7 27  1  0
  7 28  1  0
  8 29  1  0
 13 30  1  0
 15 31  1  0
 16 32  1  0
 17 33  1  0
 18 34  1  0
 20 35  1  0
 20 36  1  0
 20 37  1  0
M  END
$$$$
