
     RDKit          3D

 82 85  0  0  0  0  0  0  0  0999 V2000
    0.4189    8.0166    1.0776 C   0  0  0  0  0  0  0  0  0  0  0  0
    0.3463    7.3543   -0.1785 O   0  0  0  0  0  0  0  0  0  0  0  0
   -0.1902    6.0960   -0.1836 C   0  0  0  0  0  0  0  0  0  0  0  0
   -0.7089    5.4182    0.9192 C   0  0  0  0  0  0  0  0  0  0  0  0
   -1.2312    4.1281    0.7715 C   0  0  0  0  0  0  0  0  0  0  0  0
   -1.2431    3.5011   -0.4812 C   0  0  0  0  0  0  0  0  0  0  0  0
   -1.7952    2.1046   -0.6395 C   0  0  0  0  0  0  0  0  0  0  0  0
   -0.8532    1.0148   -0.1050 C   0  0  2  0  0  0  0  0  0  0  0  0
    0.3888    0.9422   -0.8728 N   0  0  0  0  0  0  0  0  0  0  0  0
    1.5848    0.6342   -0.2590 C   0  0  0  0  0  0  0  0  0  0  0  0
    1.7161    0.5748    0.9633 O   0  0  0  0  0  0  0  0  0  0  0  0
    2.7368    0.3339   -1.2361 C   0  0  2  0  0  0  0  0  0  0  0  0
    2.5877   -1.0792   -1.7900 C   0  0  0  0  0  0  0  0  0  0  0  0
    4.0011    0.4973   -0.5402 N   0  0  0  0  0  0  0  0  0  0  0  0
    5.1990    0.6590   -1.1925 C   0  0  0  0  0  0  0  0  0  0  0  0
    5.2968    0.7516   -2.4122 O   0  0  0  0  0  0  0  0  0  0  0  0
    6.4101    0.7514   -0.2578 C   0  0  0  0  0  0  0  0  0  0  0  0
    6.3723   -0.3093    0.7785 N   0  0  0  0  0  0  0  0  0  0  0  0
    6.5071   -1.6504    0.1550 C   0  0  0  0  0  0  0  0  0  0  0  0
    7.1015   -2.6804    1.1249 C   0  0  0  0  0  0  0  0  0  0  0  0
    8.4429   -2.3563    1.5114 O   0  0  0  0  0  0  0  0  0  0  0  0
    8.6946   -0.9455    1.5488 C   0  0  0  0  0  0  0  0  0  0  0  0
    7.4320   -0.1038    1.7911 C   0  0  0  0  0  0  0  0  0  0  0  0
   -1.5534   -0.3487   -0.2537 C   0  0  0  0  0  0  0  0  0  0  0  0
   -1.3115   -1.1115   -1.1886 O   0  0  0  0  0  0  0  0  0  0  0  0
   -2.5091   -0.6201    0.7019 N   0  0  0  0  0  0  0  0  0  0  0  0
   -3.4858   -1.6974    0.5055 C   0  0  1  0  0  0  0  0  0  0  0  0
   -3.7323   -2.4288    1.8325 C   0  0  0  0  0  0  0  0  0  0  0  0
   -4.6677   -3.6056    1.6981 C   0  0  0  0  0  0  0  0  0  0  0  0
   -6.0099   -3.4927    2.0875 C   0  0  0  0  0  0  0  0  0  0  0  0
   -6.8811   -4.5730    1.9408 C   0  0  0  0  0  0  0  0  0  0  0  0
   -6.4205   -5.7735    1.4057 C   0  0  0  0  0  0  0  0  0  0  0  0
   -5.0875   -5.8967    1.0184 C   0  0  0  0  0  0  0  0  0  0  0  0
   -4.2136   -4.8182    1.1622 C   0  0  0  0  0  0  0  0  0  0  0  0
   -4.7640   -1.0001    0.0372 C   0  0  0  0  0  0  0  0  0  0  0  0
   -5.3272   -0.1314    0.7041 O   0  0  0  0  0  0  0  0  0  0  0  0
   -5.2619   -1.3393   -1.3282 C   0  0  1  0  0  0  0  0  0  0  0  0
   -5.7831   -2.7113   -1.6277 C   0  0  0  0  0  0  0  0  0  0  0  0
   -5.7314   -0.1924   -2.2117 C   0  0  0  0  0  0  0  0  0  0  0  0
   -4.4468   -0.7969   -2.3870 O   0  0  0  0  0  0  0  0  0  0  0  0
   -0.7215    4.1860   -1.5838 C   0  0  0  0  0  0  0  0  0  0  0  0
   -0.2012    5.4728   -1.4324 C   0  0  0  0  0  0  0  0  0  0  0  0
    1.0636    7.4707    1.7710 H   0  0  0  0  0  0  0  0  0  0  0  0
   -0.5777    8.1698    1.5047 H   0  0  0  0  0  0  0  0  0  0  0  0
    0.8619    9.0016    0.9105 H   0  0  0  0  0  0  0  0  0  0  0  0
   -0.7201    5.8612    1.9092 H   0  0  0  0  0  0  0  0  0  0  0  0
   -1.6242    3.6178    1.6488 H   0  0  0  0  0  0  0  0  0  0  0  0
   -2.7643    2.0614   -0.1257 H   0  0  0  0  0  0  0  0  0  0  0  0
   -2.0241    1.9166   -1.6973 H   0  0  0  0  0  0  0  0  0  0  0  0
   -0.6248    1.1790    0.9545 H   0  0  0  0  0  0  0  0  0  0  0  0
    0.2819    0.6483   -1.8385 H   0  0  0  0  0  0  0  0  0  0  0  0
    2.7044    1.0610   -2.0556 H   0  0  0  0  0  0  0  0  0  0  0  0
    1.6219   -1.2181   -2.2832 H   0  0  0  0  0  0  0  0  0  0  0  0
    3.3696   -1.3019   -2.5199 H   0  0  0  0  0  0  0  0  0  0  0  0
    2.6594   -1.8221   -0.9889 H   0  0  0  0  0  0  0  0  0  0  0  0
    4.0295    0.3140    0.4603 H   0  0  0  0  0  0  0  0  0  0  0  0
    7.3299    0.7004   -0.8542 H   0  0  0  0  0  0  0  0  0  0  0  0
    6.3627    1.7418    0.2115 H   0  0  0  0  0  0  0  0  0  0  0  0
    5.5226   -1.9944   -0.1790 H   0  0  0  0  0  0  0  0  0  0  0  0
    7.1626   -1.6018   -0.7240 H   0  0  0  0  0  0  0  0  0  0  0  0
    7.1269   -3.6695    0.6545 H   0  0  0  0  0  0  0  0  0  0  0  0
    6.4901   -2.7665    2.0308 H   0  0  0  0  0  0  0  0  0  0  0  0
    9.4226   -0.7691    2.3473 H   0  0  0  0  0  0  0  0  0  0  0  0
    9.1735   -0.6570    0.6050 H   0  0  0  0  0  0  0  0  0  0  0  0
    7.0039   -0.3917    2.7577 H   0  0  0  0  0  0  0  0  0  0  0  0
    7.7031    0.9533    1.8802 H   0  0  0  0  0  0  0  0  0  0  0  0
   -2.7894    0.1260    1.3288 H   0  0  0  0  0  0  0  0  0  0  0  0
   -3.1306   -2.3895   -0.2650 H   0  0  0  0  0  0  0  0  0  0  0  0
   -4.1239   -1.7335    2.5873 H   0  0  0  0  0  0  0  0  0  0  0  0
   -2.7774   -2.7865    2.2412 H   0  0  0  0  0  0  0  0  0  0  0  0
   -6.3875   -2.5623    2.5089 H   0  0  0  0  0  0  0  0  0  0  0  0
   -7.9200   -4.4787    2.2477 H   0  0  0  0  0  0  0  0  0  0  0  0
   -7.1002   -6.6145    1.2965 H   0  0  0  0  0  0  0  0  0  0  0  0
   -4.7279   -6.8367    0.6089 H   0  0  0  0  0  0  0  0  0  0  0  0
   -3.1752   -4.9332    0.8557 H   0  0  0  0  0  0  0  0  0  0  0  0
   -6.1481   -2.7942   -2.6574 H   0  0  0  0  0  0  0  0  0  0  0  0
   -4.9983   -3.4621   -1.4972 H   0  0  0  0  0  0  0  0  0  0  0  0
   -6.6177   -2.9533   -0.9623 H   0  0  0  0  0  0  0  0  0  0  0  0
   -6.4921   -0.3887   -2.9601 H   0  0  0  0  0  0  0  0  0  0  0  0
   -5.7670    0.8074   -1.7953 H   0  0  0  0  0  0  0  0  0  0  0  0
   -0.7090    3.7255   -2.5690 H   0  0  0  0  0  0  0  0  0  0  0  0
    0.2036    5.9952   -2.2962 H   0  0  0  0  0  0  0  0  0  0  0  0
  1  2  1  0
  2  3  1  0
  3  4  2  0
  4  5  1  0
  5  6  2  0
  6  7  1  0
  7  8  1  0
  8  9  1  0
  9 10  1  0
 10 11  2  0
 10 12  1  0
 12 13  1  0
 12 14  1  0
 14 15  1  0
 15 16  2  0
 15 17  1  0
 17 18  1  0
 18 19  1  0
 19 20  1  0
 20 21  1  0
 21 22  1  0
 22 23  1  0
  8 24  1  0
 24 25  2  0
 24 26  1  0
 26 27  1  0
 27 28  1  0
 28 29  1  0
 29 30  2  0
 30 31  1  0
 31 32  2  0
 32 33  1  0
 33 34  2  0
 27 35  1  0
 35 36  2  0
 35 37  1  0
 37 38  1  1
 37 39  1  0
 39 40  1  0
  6 41  1  0
 41 42  2  0
 42  3  1  0
 23 18  1  0
 34 29  1  0
 40 37  1  0
  1 43  1  0
  1 44  1  0
  1 45  1  0
  4 46  1  0
  5 47  1  0
  7 48  1  0
  7 49  1  0
  8 50  1  1
  9 51  1  0
 12 52  1  6
 13 53  1  0
 13 54  1  0
 13 55  1  0
 14 56  1  0
 17 57  1  0
 17 58  1  0
 19 59  1  0
 19 60  1  0
 20 61  1  0
 20 62  1  0
 22 63  1  0
 22 64  1  0
 23 65  1  0
 23 66  1  0
 26 67  1  0
 27 68  1  6
 28 69  1  0
 28 70  1  0
 30 71  1  0
 31 72  1  0
 32 73  1  0
 33 74  1  0
 34 75  1  0
 38 76  1  0
 38 77  1  0
 38 78  1  0
 39 79  1  0
 39 80  1  0
 41 81  1  0
 42 82  1  0
M  END
$$$$
