
     RDKit          3D

 40 42  0  0  0  0  0  0  0  0999 V2000
    3.1505   -1.8549   -0.5811 O   0  0  0  0  0  0  0  0  0  0  0  0
    2.2311   -1.1552   -0.1729 C   0  0  0  0  0  0  0  0  0  0  0  0
    2.3743    0.0232    0.5451 N   0  0  0  0  0  0  0  0  0  0  0  0
    3.6369    0.6206    0.8203 C   0  0  0  0  0  0  0  0  0  0  0  0
    3.8626    1.1004    2.1193 C   0  0  0  0  0  0  0  0  0  0  0  0
    2.6534    0.9972    3.3517 Cl  0  0  0  0  0  0  0  0  0  0  0  0
    5.0974    1.6559    2.4271 C   0  0  0  0  0  0  0  0  0  0  0  0
    6.1056    1.7913    1.5350 N   0  0  0  0  0  0  0  0  0  0  0  0
    5.8503    1.3721    0.2731 C   0  0  0  0  0  0  0  0  0  0  0  0
    4.6488    0.8020   -0.1374 C   0  0  0  0  0  0  0  0  0  0  0  0
    4.4327    0.5527   -1.8305 Cl  0  0  0  0  0  0  0  0  0  0  0  0
    0.8267   -1.6209   -0.3430 C   0  0  0  0  0  0  0  0  0  0  0  0
    0.5796   -2.9942   -0.3879 C   0  0  0  0  0  0  0  0  0  0  0  0
   -0.7280   -3.4577   -0.5172 C   0  0  0  0  0  0  0  0  0  0  0  0
   -1.7922   -2.5576   -0.6337 C   0  0  0  0  0  0  0  0  0  0  0  0
   -3.0216   -3.1561   -0.7043 O   0  0  0  0  0  0  0  0  0  0  0  0
   -3.9430   -2.5651   -1.6077 C   0  0  0  0  0  0  0  0  0  0  0  0
   -4.8674   -1.8764   -0.8920 F   0  0  0  0  0  0  0  0  0  0  0  0
   -4.6137   -3.5849   -2.2090 F   0  0  0  0  0  0  0  0  0  0  0  0
   -1.5510   -1.1715   -0.6088 C   0  0  0  0  0  0  0  0  0  0  0  0
   -2.6409   -0.3508   -0.6655 O   0  0  0  0  0  0  0  0  0  0  0  0
   -2.4779    1.0179   -1.0421 C   0  0  0  0  0  0  0  0  0  0  0  0
   -2.4559    1.8860    0.1783 C   0  0  0  0  0  0  0  0  0  0  0  0
   -3.0517    3.2705    0.1373 C   0  0  0  0  0  0  0  0  0  0  0  0
   -3.7312    2.1832    0.9235 C   0  0  0  0  0  0  0  0  0  0  0  0
   -0.2365   -0.7116   -0.4590 C   0  0  0  0  0  0  0  0  0  0  0  0
    1.6602    0.1798    1.2511 H   0  0  0  0  0  0  0  0  0  0  0  0
    5.3177    2.0227    3.4274 H   0  0  0  0  0  0  0  0  0  0  0  0
    6.6607    1.5454   -0.4316 H   0  0  0  0  0  0  0  0  0  0  0  0
    1.3994   -3.7053   -0.3107 H   0  0  0  0  0  0  0  0  0  0  0  0
   -0.9197   -4.5290   -0.5276 H   0  0  0  0  0  0  0  0  0  0  0  0
   -3.5043   -1.9388   -2.3919 H   0  0  0  0  0  0  0  0  0  0  0  0
   -3.3442    1.2661   -1.6664 H   0  0  0  0  0  0  0  0  0  0  0  0
   -1.6003    1.1855   -1.6768 H   0  0  0  0  0  0  0  0  0  0  0  0
   -1.5604    1.7418    0.7701 H   0  0  0  0  0  0  0  0  0  0  0  0
   -2.5524    4.0556    0.6934 H   0  0  0  0  0  0  0  0  0  0  0  0
   -3.5308    3.6021   -0.7753 H   0  0  0  0  0  0  0  0  0  0  0  0
   -4.6591    1.7716    0.5420 H   0  0  0  0  0  0  0  0  0  0  0  0
   -3.6860    2.2350    2.0053 H   0  0  0  0  0  0  0  0  0  0  0  0
   -0.0199    0.3515   -0.4275 H   0  0  0  0  0  0  0  0  0  0  0  0
  1  2  2  0
  2  3  1  0
  3  4  1  0
  4  5  2  0
  5  6  1  0
  5  7  1  0
  7  8  2  0
  8  9  1  0
  9 10  2  0
 10 11  1  0
  2 12  1  0
 12 13  2  0
 13 14  1  0
 14 15  2  0
 15 16  1  0
 16 17  1  0
 17 18  1  0
 17 19  1  0
 15 20  1  0
 20 21  1  0
 21 22  1  0
 22 23  1  0
 23 24  1  0
 24 25  1  0
 20 26  2  0
 10  4  1  0
 26 12  1  0
 25 23  1  0
  3 27  1  0
  7 28  1  0
  9 29  1  0
 13 30  1  0
 14 31  1  0
 17 32  1  0
 22 33  1  0
 22 34  1  0
 23 35  1  0
 24 36  1  0
 24 37  1  0
 25 38  1  0
 25 39  1  0
 26 40  1  0
M  END
$$$$
