
     RDKit          3D

 50 52  0  0  0  0  0  0  0  0999 V2000
   -1.3188   -0.9652   -2.1886 O   0  0  0  0  0  0  0  0  0  0  0  0
   -0.9193   -0.8456   -1.0397 C   0  0  0  0  0  0  0  0  0  0  0  0
   -1.7179   -0.8810    0.0823 N   0  0  0  0  0  0  0  0  0  0  0  0
   -3.1353   -1.1924   -0.0019 C   0  0  0  0  0  0  0  0  0  0  0  0
   -3.9702   -0.0209   -0.5567 C   0  0  0  0  0  0  0  0  0  0  0  0
   -5.4244   -0.2682   -0.5437 N   0  0  0  0  0  0  0  0  0  0  0  0
   -5.9553   -0.4057    0.8307 C   0  0  0  0  0  0  0  0  0  0  0  0
   -7.4431   -0.0322    0.9183 C   0  0  0  0  0  0  0  0  0  0  0  0
   -7.6809    1.3455    0.5990 O   0  0  0  0  0  0  0  0  0  0  0  0
   -6.7591    1.8645   -0.3701 C   0  0  0  0  0  0  0  0  0  0  0  0
   -6.1606    0.7823   -1.2822 C   0  0  0  0  0  0  0  0  0  0  0  0
    0.5121   -0.6099   -0.7696 C   0  0  0  0  0  0  0  0  0  0  0  0
    0.8798    0.6022   -0.1692 C   0  0  0  0  0  0  0  0  0  0  0  0
    2.2250    0.8675    0.0878 C   0  0  0  0  0  0  0  0  0  0  0  0
    3.2024   -0.0655   -0.2646 C   0  0  0  0  0  0  0  0  0  0  0  0
    4.5685    0.2296    0.0761 N   0  0  0  0  0  0  0  0  0  0  0  0
    5.5625    0.0967   -1.0203 C   0  0  0  0  0  0  0  0  0  0  0  0
    6.8313    0.8681   -0.6589 C   0  0  0  0  0  0  0  0  0  0  0  0
    7.4985    0.3398    0.6116 C   0  0  0  0  0  0  0  0  0  0  0  0
    6.5800    0.4291    1.8219 C   0  0  0  0  0  0  0  0  0  0  0  0
    5.0641   -0.4730    1.5607 S   0  0  0  0  0  6  0  0  0  0  0  0
    4.1249   -0.0891    2.5936 O   0  0  0  0  0  0  0  0  0  0  0  0
    5.3852   -1.8637    1.3157 O   0  0  0  0  0  0  0  0  0  0  0  0
    2.8331   -1.2842   -0.8418 C   0  0  0  0  0  0  0  0  0  0  0  0
    1.4866   -1.5545   -1.1063 C   0  0  0  0  0  0  0  0  0  0  0  0
    1.0953   -3.0907   -1.7903 Cl  0  0  0  0  0  0  0  0  0  0  0  0
   -1.2832   -0.8771    0.9968 H   0  0  0  0  0  0  0  0  0  0  0  0
   -3.2598   -2.0789   -0.6344 H   0  0  0  0  0  0  0  0  0  0  0  0
   -3.4473   -1.4517    1.0146 H   0  0  0  0  0  0  0  0  0  0  0  0
   -3.7319    0.8976   -0.0039 H   0  0  0  0  0  0  0  0  0  0  0  0
   -3.6490    0.1517   -1.5915 H   0  0  0  0  0  0  0  0  0  0  0  0
   -5.4042    0.2480    1.5196 H   0  0  0  0  0  0  0  0  0  0  0  0
   -5.8235   -1.4403    1.1649 H   0  0  0  0  0  0  0  0  0  0  0  0
   -7.8134   -0.2002    1.9347 H   0  0  0  0  0  0  0  0  0  0  0  0
   -8.0463   -0.6539    0.2461 H   0  0  0  0  0  0  0  0  0  0  0  0
   -7.2992    2.6044   -0.9696 H   0  0  0  0  0  0  0  0  0  0  0  0
   -5.9670    2.3981    0.1678 H   0  0  0  0  0  0  0  0  0  0  0  0
   -6.9835    0.2829   -1.8095 H   0  0  0  0  0  0  0  0  0  0  0  0
   -5.5404    1.2449   -2.0589 H   0  0  0  0  0  0  0  0  0  0  0  0
    0.1258    1.3418    0.0897 H   0  0  0  0  0  0  0  0  0  0  0  0
    2.5106    1.8009    0.5671 H   0  0  0  0  0  0  0  0  0  0  0  0
    5.1481    0.5240   -1.9416 H   0  0  0  0  0  0  0  0  0  0  0  0
    5.7897   -0.9567   -1.2201 H   0  0  0  0  0  0  0  0  0  0  0  0
    6.5926    1.9310   -0.5279 H   0  0  0  0  0  0  0  0  0  0  0  0
    7.5414    0.7993   -1.4910 H   0  0  0  0  0  0  0  0  0  0  0  0
    8.4093    0.9168    0.8077 H   0  0  0  0  0  0  0  0  0  0  0  0
    7.8073   -0.7004    0.4528 H   0  0  0  0  0  0  0  0  0  0  0  0
    6.3113    1.4675    2.0415 H   0  0  0  0  0  0  0  0  0  0  0  0
    7.0613    0.0014    2.7066 H   0  0  0  0  0  0  0  0  0  0  0  0
    3.5866   -2.0344   -1.0671 H   0  0  0  0  0  0  0  0  0  0  0  0
  1  2  2  0
  2  3  1  0
  3  4  1  0
  4  5  1  0
  5  6  1  0
  6  7  1  0
  7  8  1  0
  8  9  1  0
  9 10  1  0
 10 11  1  0
  2 12  1  0
 12 13  2  0
 13 14  1  0
 14 15  2  0
 15 16  1  0
 16 17  1  0
 17 18  1  0
 18 19  1  0
 19 20  1  0
 20 21  1  0
 21 22  2  0
 21 23  2  0
 15 24  1  0
 24 25  2  0
 25 26  1  0
 11  6  1  0
 25 12  1  0
 21 16  1  0
  3 27  1  0
  4 28  1  0
  4 29  1  0
  5 30  1  0
  5 31  1  0
  7 32  1  0
  7 33  1  0
  8 34  1  0
  8 35  1  0
 10 36  1  0
 10 37  1  0
 11 38  1  0
 11 39  1  0
 13 40  1  0
 14 41  1  0
 17 42  1  0
 17 43  1  0
 18 44  1  0
 18 45  1  0
 19 46  1  0
 19 47  1  0
 20 48  1  0
 20 49  1  0
 24 50  1  0
M  END
$$$$
