
     RDKit          3D

 45 47  0  0  0  0  0  0  0  0999 V2000
    0.9959    2.3503    0.6703 O   0  0  0  0  0  0  0  0  0  0  0  0
    0.8211    1.2269    1.1111 C   0  0  0  0  0  0  0  0  0  0  0  0
    1.5896    0.7509    2.1180 O   0  0  0  0  0  0  0  0  0  0  0  0
   -0.2054    0.2077    0.6309 C   0  0  2  0  0  0  0  0  0  0  0  0
   -0.3100   -0.9290    1.4997 O   0  0  0  0  0  0  0  0  0  0  0  0
    0.1748   -0.2350   -0.7818 C   0  0  1  0  0  0  0  0  0  0  0  0
    1.0785   -1.3462   -0.7241 O   0  0  0  0  0  0  0  0  0  0  0  0
   -1.0886   -0.5810   -1.5581 C   0  0  0  0  0  0  0  0  0  0  0  0
   -1.4170   -1.6917   -1.9453 O   0  0  0  0  0  0  0  0  0  0  0  0
   -1.8630    0.4903   -1.8225 O   0  0  0  0  0  0  0  0  0  0  0  0
    4.3096   -0.6560    0.8256 C   0  0  0  0  0  0  0  0  0  0  0  0
    4.3388    0.7101    0.6325 C   0  0  0  0  0  0  0  0  0  0  0  0
    3.2578    1.4059    0.2193 N   0  0  0  0  0  0  0  0  0  0  0  0
    2.1359    0.6939    0.0004 C   0  0  0  0  0  0  0  0  0  0  0  0
    0.9904    1.3597   -0.4225 C   0  0  0  0  0  0  0  0  0  0  0  0
   -0.1621    0.6349   -0.6524 C   0  0  0  0  0  0  0  0  0  0  0  0
   -0.1918   -0.7513   -0.4564 C   0  0  0  0  0  0  0  0  0  0  0  0
    0.9308   -1.4316   -0.0279 C   0  0  0  0  0  0  0  0  0  0  0  0
    2.1056   -0.7233    0.2008 C   0  0  0  0  0  0  0  0  0  0  0  0
    3.1980   -1.3931    0.6151 N   0  0  0  0  0  0  0  0  0  0  0  0
   -1.5868   -1.2549   -0.7426 C   0  0  0  0  0  0  0  0  0  0  0  0
   -2.5055   -1.1095    0.4933 C   0  0  0  0  0  0  0  0  0  0  0  0
   -2.4874    0.2292    1.1291 N   0  0  0  0  0  0  0  0  0  0  0  0
   -2.4532    1.3387    0.1471 C   0  0  0  0  0  0  0  0  0  0  0  0
   -1.5366    1.0974   -1.0751 C   0  0  0  0  0  0  0  0  0  0  0  0
   -2.0115   -0.1909   -1.7702 C   0  0  0  0  0  0  0  0  0  0  0  0
    2.2039    1.4891    2.3219 H   0  0  0  0  0  0  0  0  0  0  0  0
   -1.1747    0.7167    0.6661 H   0  0  0  0  0  0  0  0  0  0  0  0
    0.5797   -1.0284    1.8987 H   0  0  0  0  0  0  0  0  0  0  0  0
    0.6822    0.5560   -1.3457 H   0  0  0  0  0  0  0  0  0  0  0  0
    0.5448   -2.0995   -0.3990 H   0  0  0  0  0  0  0  0  0  0  0  0
   -2.6118    0.1228   -2.3403 H   0  0  0  0  0  0  0  0  0  0  0  0
    5.1856   -1.2010    1.1580 H   0  0  0  0  0  0  0  0  0  0  0  0
    5.2388    1.2887    0.8060 H   0  0  0  0  0  0  0  0  0  0  0  0
    1.0143    2.4351   -0.5648 H   0  0  0  0  0  0  0  0  0  0  0  0
    0.9087   -2.5044    0.1336 H   0  0  0  0  0  0  0  0  0  0  0  0
   -1.6011   -2.2633   -1.1651 H   0  0  0  0  0  0  0  0  0  0  0  0
   -3.5384   -1.3417    0.2069 H   0  0  0  0  0  0  0  0  0  0  0  0
   -2.2181   -1.8456    1.2534 H   0  0  0  0  0  0  0  0  0  0  0  0
   -1.6270    0.2886    1.6796 H   0  0  0  0  0  0  0  0  0  0  0  0
   -3.4771    1.5256   -0.1984 H   0  0  0  0  0  0  0  0  0  0  0  0
   -2.1307    2.2439    0.6752 H   0  0  0  0  0  0  0  0  0  0  0  0
   -1.5111    1.9488   -1.7607 H   0  0  0  0  0  0  0  0  0  0  0  0
   -3.0879   -0.1968   -1.9742 H   0  0  0  0  0  0  0  0  0  0  0  0
   -1.4878   -0.3372   -2.7256 H   0  0  0  0  0  0  0  0  0  0  0  0
  1  2  2  0
  2  3  1  0
  2  4  1  0
  4  5  1  0
  4  6  1  0
  6  7  1  0
  6  8  1  0
  8  9  2  0
  8 10  1  0
 11 12  2  0
 12 13  1  0
 13 14  2  0
 14 15  1  0
 15 16  2  0
 16 17  1  0
 17 18  2  0
 18 19  1  0
 19 20  2  0
 17 21  1  0
 21 22  1  0
 22 23  1  0
 23 24  1  0
 24 25  1  0
 25 26  1  0
 20 11  1  0
 26 21  1  0
 19 14  1  0
 25 16  1  0
  3 27  1  0
  4 28  1  6
  5 29  1  0
  6 30  1  6
  7 31  1  0
 10 32  1  0
 11 33  1  0
 12 34  1  0
 15 35  1  0
 18 36  1  0
 21 37  1  0
 22 38  1  0
 22 39  1  0
 23 40  1  0
 24 41  1  0
 24 42  1  0
 25 43  1  0
 26 44  1  0
 26 45  1  0
M  END
$$$$
