
     RDKit          3D

 42 45  0  0  0  0  0  0  0  0999 V2000
   -1.5044   -2.9510   -0.9075 C   0  0  0  0  0  0  0  0  0  0  0  0
   -0.5963   -2.2841    0.1367 C   0  0  2  0  0  0  0  0  0  0  0  0
   -1.4431   -1.6537    1.2425 C   0  0  0  0  0  0  0  0  0  0  0  0
   -2.1476   -0.3549    0.8470 C   0  0  0  0  0  0  0  0  0  0  0  0
   -1.4294    0.4709   -0.2395 C   0  0  1  0  0  0  0  0  0  0  0  0
   -1.6853    1.9839   -0.1247 C   0  0  1  0  0  0  0  0  0  0  0  0
   -3.1797    2.3154   -0.0805 C   0  0  0  0  0  0  0  0  0  0  0  0
   -0.9485    2.6136    1.0461 C   0  0  0  0  0  0  0  0  0  0  0  0
   -1.4197    3.5368    1.7026 O   0  0  0  0  0  0  0  0  0  0  0  0
    0.3138    2.1868    1.2702 O   0  0  0  0  0  0  0  0  0  0  0  0
    0.7021    0.8216    1.0187 C   0  0  2  0  0  0  0  0  0  0  0  0
    2.1302    0.7389    1.0432 O   0  0  0  0  0  0  0  0  0  0  0  0
    2.6592    0.7961   -0.2788 C   0  0  1  0  0  0  0  0  0  0  0  0
    4.0035    1.5171   -0.1999 C   0  0  0  0  0  0  0  0  0  0  0  0
    2.8595   -0.6370   -0.8183 C   0  0  0  0  0  0  0  0  0  0  0  0
    1.8452   -1.6529   -0.2677 C   0  0  0  0  0  0  0  0  0  0  0  0
    0.3770   -1.2806   -0.5418 C   0  0  2  0  0  0  0  0  0  0  0  0
    0.0813    0.2188   -0.2670 C   0  0  1  0  0  0  0  0  0  0  0  0
    0.6011    0.8769   -1.4520 O   0  0  0  0  0  0  0  0  0  0  0  0
    1.8280    1.6025   -1.1237 O   0  0  0  0  0  0  0  0  0  0  0  0
   -2.1278   -2.2216   -1.4336 H   0  0  0  0  0  0  0  0  0  0  0  0
   -0.9057   -3.4848   -1.6536 H   0  0  0  0  0  0  0  0  0  0  0  0
   -2.1680   -3.6828   -0.4343 H   0  0  0  0  0  0  0  0  0  0  0  0
   -0.0178   -3.0981    0.5936 H   0  0  0  0  0  0  0  0  0  0  0  0
   -0.7962   -1.4633    2.1066 H   0  0  0  0  0  0  0  0  0  0  0  0
   -2.1904   -2.3695    1.6083 H   0  0  0  0  0  0  0  0  0  0  0  0
   -2.2937    0.2351    1.7601 H   0  0  0  0  0  0  0  0  0  0  0  0
   -3.1560   -0.5942    0.4852 H   0  0  0  0  0  0  0  0  0  0  0  0
   -1.8403    0.1620   -1.2121 H   0  0  0  0  0  0  0  0  0  0  0  0
   -1.2848    2.4793   -1.0198 H   0  0  0  0  0  0  0  0  0  0  0  0
   -3.3363    3.3968   -0.1657 H   0  0  0  0  0  0  0  0  0  0  0  0
   -3.7115    1.8374   -0.9096 H   0  0  0  0  0  0  0  0  0  0  0  0
   -3.6434    1.9976    0.8591 H   0  0  0  0  0  0  0  0  0  0  0  0
    0.3812    0.2723    1.9056 H   0  0  0  0  0  0  0  0  0  0  0  0
    3.8684    2.5371    0.1793 H   0  0  0  0  0  0  0  0  0  0  0  0
    4.4697    1.5980   -1.1876 H   0  0  0  0  0  0  0  0  0  0  0  0
    4.6925    1.0099    0.4839 H   0  0  0  0  0  0  0  0  0  0  0  0
    2.8338   -0.6372   -1.9147 H   0  0  0  0  0  0  0  0  0  0  0  0
    3.8502   -1.0067   -0.5237 H   0  0  0  0  0  0  0  0  0  0  0  0
    2.0568   -2.6326   -0.7152 H   0  0  0  0  0  0  0  0  0  0  0  0
    2.0041   -1.7766    0.8114 H   0  0  0  0  0  0  0  0  0  0  0  0
    0.2682   -1.4233   -1.6289 H   0  0  0  0  0  0  0  0  0  0  0  0
  1  2  1  0
  2  3  1  0
  3  4  1  0
  4  5  1  0
  5  6  1  0
  6  7  1  0
  6  8  1  0
  8  9  2  0
  8 10  1  0
 10 11  1  0
 11 12  1  0
 12 13  1  0
 13 14  1  1
 13 15  1  0
 15 16  1  0
 16 17  1  0
 17 18  1  0
 18 19  1  6
 19 20  1  0
 17  2  1  0
 18  5  1  0
 18 11  1  0
 20 13  1  0
  1 21  1  0
  1 22  1  0
  1 23  1  0
  2 24  1  1
  3 25  1  0
  3 26  1  0
  4 27  1  0
  4 28  1  0
  5 29  1  6
  6 30  1  6
  7 31  1  0
  7 32  1  0
  7 33  1  0
 11 34  1  1
 14 35  1  0
 14 36  1  0
 14 37  1  0
 15 38  1  0
 15 39  1  0
 16 40  1  0
 16 41  1  0
 17 42  1  6
M  END
$$$$
