
     RDKit          3D

 62 65  0  0  0  0  0  0  0  0999 V2000
   -7.9998    0.1895   -3.6773 C   0  0  0  0  0  0  0  0  0  0  0  0
   -6.9446    0.0605   -2.5914 C   0  0  0  0  0  0  0  0  0  0  0  0
   -6.1409    1.3536   -2.4362 C   0  0  0  0  0  0  0  0  0  0  0  0
   -5.1233    1.2330   -1.3980 N   0  0  0  0  0  0  0  0  0  0  0  0
   -3.8695    0.7493   -1.7862 C   0  0  0  0  0  0  0  0  0  0  0  0
   -3.5623    0.4278   -2.9301 O   0  0  0  0  0  0  0  0  0  0  0  0
   -2.9632    0.6500   -0.7036 C   0  0  0  0  0  0  0  0  0  0  0  0
   -1.6630    0.2439   -0.6692 N   0  0  0  0  0  0  0  0  0  0  0  0
   -1.2334    0.3251    0.6425 C   0  0  0  0  0  0  0  0  0  0  0  0
    0.1163   -0.0275    1.1004 C   0  0  0  0  0  0  0  0  0  0  0  0
    1.1383   -0.4199    0.2245 C   0  0  0  0  0  0  0  0  0  0  0  0
    2.4161   -0.7460    0.7047 C   0  0  0  0  0  0  0  0  0  0  0  0
    2.6915   -0.6890    2.0692 C   0  0  0  0  0  0  0  0  0  0  0  0
    3.8878   -0.9717    2.6642 O   0  0  0  0  0  0  0  0  0  0  0  0
    4.8527   -1.6887    1.9143 C   0  0  0  0  0  0  0  0  0  0  0  0
    5.7680   -0.8598    0.9949 C   0  0  0  0  0  0  0  0  0  0  0  0
    5.6254    0.3476    0.8394 O   0  0  0  0  0  0  0  0  0  0  0  0
    6.7311   -1.6529    0.3786 N   0  0  0  0  0  0  0  0  0  0  0  0
    7.7325   -1.2392   -0.5241 C   0  0  0  0  0  0  0  0  0  0  0  0
    8.5934   -2.2285   -1.0191 C   0  0  0  0  0  0  0  0  0  0  0  0
    9.6146   -1.9040   -1.9188 C   0  0  0  0  0  0  0  0  0  0  0  0
    9.7884   -0.5819   -2.3338 C   0  0  0  0  0  0  0  0  0  0  0  0
   10.8350   -0.2461   -3.2533 C   0  0  0  0  0  0  0  0  0  0  0  0
   11.6848    0.0171   -3.9984 N   0  0  0  0  0  0  0  0  0  0  0  0
    8.9348    0.4085   -1.8440 C   0  0  0  0  0  0  0  0  0  0  0  0
    7.9124    0.0802   -0.9446 C   0  0  0  0  0  0  0  0  0  0  0  0
    1.6852   -0.2849    2.9456 C   0  0  0  0  0  0  0  0  0  0  0  0
    0.4112    0.0379    2.4684 C   0  0  0  0  0  0  0  0  0  0  0  0
   -2.2243    0.7614    1.4124 N   0  0  0  0  0  0  0  0  0  0  0  0
   -3.2775    0.9646    0.5767 C   0  0  0  0  0  0  0  0  0  0  0  0
   -4.5293    1.4146    0.9198 N   0  0  0  0  0  0  0  0  0  0  0  0
   -4.8669    1.6998    2.3101 C   0  0  0  0  0  0  0  0  0  0  0  0
   -5.3821    0.4565    3.0351 C   0  0  0  0  0  0  0  0  0  0  0  0
   -5.7434    0.7649    4.4787 C   0  0  0  0  0  0  0  0  0  0  0  0
   -5.5099    1.5258   -0.0721 C   0  0  0  0  0  0  0  0  0  0  0  0
   -6.6666    1.8603    0.2000 O   0  0  0  0  0  0  0  0  0  0  0  0
   -8.7056    0.9934   -3.4453 H   0  0  0  0  0  0  0  0  0  0  0  0
   -7.5399    0.4052   -4.6470 H   0  0  0  0  0  0  0  0  0  0  0  0
   -8.5651   -0.7431   -3.7693 H   0  0  0  0  0  0  0  0  0  0  0  0
   -7.4310   -0.1965   -1.6434 H   0  0  0  0  0  0  0  0  0  0  0  0
   -6.2740   -0.7716   -2.8357 H   0  0  0  0  0  0  0  0  0  0  0  0
   -5.6585    1.6065   -3.3882 H   0  0  0  0  0  0  0  0  0  0  0  0
   -6.8134    2.1846   -2.1916 H   0  0  0  0  0  0  0  0  0  0  0  0
   -1.1223   -0.0630   -1.4654 H   0  0  0  0  0  0  0  0  0  0  0  0
    0.9776   -0.4675   -0.8483 H   0  0  0  0  0  0  0  0  0  0  0  0
    3.1768   -1.0122   -0.0218 H   0  0  0  0  0  0  0  0  0  0  0  0
    5.5090   -2.1691    2.6511 H   0  0  0  0  0  0  0  0  0  0  0  0
    4.3895   -2.5022    1.3406 H   0  0  0  0  0  0  0  0  0  0  0  0
    6.7273   -2.6392    0.6096 H   0  0  0  0  0  0  0  0  0  0  0  0
    8.4850   -3.2668   -0.7142 H   0  0  0  0  0  0  0  0  0  0  0  0
   10.2706   -2.6893   -2.2906 H   0  0  0  0  0  0  0  0  0  0  0  0
    9.0540    1.4458   -2.1533 H   0  0  0  0  0  0  0  0  0  0  0  0
    7.2772    0.8868   -0.5908 H   0  0  0  0  0  0  0  0  0  0  0  0
    1.8896   -0.2183    4.0111 H   0  0  0  0  0  0  0  0  0  0  0  0
   -0.3551    0.3488    3.1769 H   0  0  0  0  0  0  0  0  0  0  0  0
   -5.6323    2.4844    2.3351 H   0  0  0  0  0  0  0  0  0  0  0  0
   -3.9836    2.1068    2.8171 H   0  0  0  0  0  0  0  0  0  0  0  0
   -4.6213   -0.3325    3.0139 H   0  0  0  0  0  0  0  0  0  0  0  0
   -6.2633    0.0583    2.5184 H   0  0  0  0  0  0  0  0  0  0  0  0
   -4.8721    1.1304    5.0314 H   0  0  0  0  0  0  0  0  0  0  0  0
   -6.1091   -0.1371    4.9789 H   0  0  0  0  0  0  0  0  0  0  0  0
   -6.5291    1.5253    4.5327 H   0  0  0  0  0  0  0  0  0  0  0  0
  1  2  1  0
  2  3  1  0
  3  4  1  0
  4  5  1  0
  5  6  2  0
  5  7  1  0
  7  8  1  0
  8  9  1  0
  9 10  1  0
 10 11  2  0
 11 12  1  0
 12 13  2  0
 13 14  1  0
 14 15  1  0
 15 16  1  0
 16 17  2  0
 16 18  1  0
 18 19  1  0
 19 20  2  0
 20 21  1  0
 21 22  2  0
 22 23  1  0
 23 24  3  0
 22 25  1  0
 25 26  2  0
 13 27  1  0
 27 28  2  0
  9 29  2  0
 29 30  1  0
 30 31  1  0
 31 32  1  0
 32 33  1  0
 33 34  1  0
 31 35  1  0
 35 36  2  0
 35  4  1  0
 30  7  2  0
 28 10  1  0
 26 19  1  0
  1 37  1  0
  1 38  1  0
  1 39  1  0
  2 40  1  0
  2 41  1  0
  3 42  1  0
  3 43  1  0
  8 44  1  0
 11 45  1  0
 12 46  1  0
 15 47  1  0
 15 48  1  0
 18 49  1  0
 20 50  1  0
 21 51  1  0
 25 52  1  0
 26 53  1  0
 27 54  1  0
 28 55  1  0
 32 56  1  0
 32 57  1  0
 33 58  1  0
 33 59  1  0
 34 60  1  0
 34 61  1  0
 34 62  1  0
M  END
$$$$
