
     RDKit          3D

 34 36  0  0  0  0  0  0  0  0999 V2000
   -0.7088    3.3906    0.1027 N   0  0  0  0  0  0  0  0  0  0  0  0
   -0.7972    2.2355    0.1897 C   0  0  0  0  0  0  0  0  0  0  0  0
   -1.0114    0.8336    0.4178 C   0  0  0  0  0  0  0  0  0  0  0  0
   -0.1162   -0.1875    0.1682 C   0  0  0  0  0  0  0  0  0  0  0  0
    1.1308   -0.3099   -0.4076 N   0  0  0  0  0  0  0  0  0  0  0  0
    1.6864    0.6132   -1.2655 C   0  0  0  0  0  0  0  0  0  0  0  0
    1.1278    1.6049   -1.7134 O   0  0  0  0  0  0  0  0  0  0  0  0
    3.0677    0.2945   -1.7308 C   0  0  0  0  0  0  0  0  0  0  0  0
    3.4644    0.7413   -3.0005 C   0  0  0  0  0  0  0  0  0  0  0  0
    4.7491    0.4651   -3.4722 C   0  0  0  0  0  0  0  0  0  0  0  0
    5.6343   -0.2460   -2.6705 C   0  0  0  0  0  0  0  0  0  0  0  0
    6.8670   -0.5104   -3.1214 F   0  0  0  0  0  0  0  0  0  0  0  0
    5.2626   -0.6809   -1.4023 C   0  0  0  0  0  0  0  0  0  0  0  0
    3.9777   -0.4080   -0.9253 C   0  0  0  0  0  0  0  0  0  0  0  0
   -0.6713   -1.6972    0.7483 S   0  0  0  0  0  0  0  0  0  0  0  0
   -2.1454   -1.0306    1.2579 C   0  0  0  0  0  0  0  0  0  0  0  0
   -2.2167    0.3307    1.0311 C   0  0  0  0  0  0  0  0  0  0  0  0
   -3.4162    1.1373    1.4493 C   0  0  0  0  0  0  0  0  0  0  0  0
   -4.6345    0.2457    1.7371 C   0  0  0  0  0  0  0  0  0  0  0  0
   -4.2554   -0.9765    2.5844 C   0  0  0  0  0  0  0  0  0  0  0  0
   -3.2280   -1.8663    1.8689 C   0  0  0  0  0  0  0  0  0  0  0  0
    1.5467   -1.2304   -0.3432 H   0  0  0  0  0  0  0  0  0  0  0  0
    2.7724    1.3064   -3.6233 H   0  0  0  0  0  0  0  0  0  0  0  0
    5.0639    0.8048   -4.4541 H   0  0  0  0  0  0  0  0  0  0  0  0
    5.9808   -1.2187   -0.7905 H   0  0  0  0  0  0  0  0  0  0  0  0
    3.7168   -0.7218    0.0817 H   0  0  0  0  0  0  0  0  0  0  0  0
   -3.6788    1.8644    0.6726 H   0  0  0  0  0  0  0  0  0  0  0  0
   -3.1575    1.7001    2.3549 H   0  0  0  0  0  0  0  0  0  0  0  0
   -5.4036    0.8337    2.2504 H   0  0  0  0  0  0  0  0  0  0  0  0
   -5.0711   -0.0962    0.7899 H   0  0  0  0  0  0  0  0  0  0  0  0
   -5.1505   -1.5652    2.8150 H   0  0  0  0  0  0  0  0  0  0  0  0
   -3.8419   -0.6341    3.5419 H   0  0  0  0  0  0  0  0  0  0  0  0
   -2.8149   -2.5896    2.5811 H   0  0  0  0  0  0  0  0  0  0  0  0
   -3.7293   -2.4322    1.0740 H   0  0  0  0  0  0  0  0  0  0  0  0
  1  2  3  0
  2  3  1  0
  3  4  2  0
  4  5  1  0
  5  6  1  0
  6  7  2  0
  6  8  1  0
  8  9  2  0
  9 10  1  0
 10 11  2  0
 11 12  1  0
 11 13  1  0
 13 14  2  0
  4 15  1  0
 15 16  1  0
 16 17  2  0
 17 18  1  0
 18 19  1  0
 19 20  1  0
 20 21  1  0
 17  3  1  0
 14  8  1  0
 21 16  1  0
  5 22  1  0
  9 23  1  0
 10 24  1  0
 13 25  1  0
 14 26  1  0
 18 27  1  0
 18 28  1  0
 19 29  1  0
 19 30  1  0
 20 31  1  0
 20 32  1  0
 21 33  1  0
 21 34  1  0
M  END
$$$$
