
     RDKit          3D

 57 60  0  0  0  0  0  0  0  0999 V2000
   -3.0760   -0.6642   -3.1886 C   0  0  0  0  0  0  0  0  0  0  0  0
   -2.1703   -0.8920   -1.9700 C   0  0  0  0  0  0  0  0  0  0  0  0
   -1.0189   -1.6809   -2.4479 N   0  0  0  0  0  0  0  0  0  0  0  0
   -2.9361   -1.7035   -0.9115 C   0  0  0  0  0  0  0  0  0  0  0  0
   -2.2615   -1.6856    0.4572 C   0  0  0  0  0  0  0  0  0  0  0  0
   -1.9024   -0.3200    0.8747 N   0  0  0  0  0  0  0  0  0  0  0  0
   -2.1357    0.0007    2.2306 C   0  0  0  0  0  0  0  0  0  0  0  0
   -3.3764   -0.2010    2.8469 C   0  0  0  0  0  0  0  0  0  0  0  0
   -3.5544    0.1512    4.1815 C   0  0  0  0  0  0  0  0  0  0  0  0
   -2.4871    0.7198    4.8590 C   0  0  0  0  0  0  0  0  0  0  0  0
   -1.2836    0.9603    4.3012 N   0  0  0  0  0  0  0  0  0  0  0  0
   -1.1176    0.5939    3.0153 C   0  0  0  0  0  0  0  0  0  0  0  0
    0.1107    0.7878    2.3735 N   0  0  0  0  0  0  0  0  0  0  0  0
    1.2216    1.4208    2.8795 C   0  0  0  0  0  0  0  0  0  0  0  0
    1.3598    1.8879    4.0050 O   0  0  0  0  0  0  0  0  0  0  0  0
    2.3400    1.5347    1.8854 C   0  0  0  0  0  0  0  0  0  0  0  0
    2.1571    0.8488    0.7094 N   0  0  0  0  0  0  0  0  0  0  0  0
    3.1492    0.9789   -0.2056 C   0  0  0  0  0  0  0  0  0  0  0  0
    2.9939    0.2399   -1.4677 C   0  0  0  0  0  0  0  0  0  0  0  0
    3.2222    0.9875   -2.5864 N   0  0  0  0  0  0  0  0  0  0  0  0
    3.0538    0.4079   -3.7946 C   0  0  0  0  0  0  0  0  0  0  0  0
    2.6782   -0.9062   -3.9606 C   0  0  0  0  0  0  0  0  0  0  0  0
    2.4771   -1.6727   -2.8209 C   0  0  0  0  0  0  0  0  0  0  0  0
    2.6299   -1.1054   -1.5444 C   0  0  0  0  0  0  0  0  0  0  0  0
    2.4380   -1.9404   -0.3135 C   0  0  0  0  0  0  0  0  0  0  0  0
    2.5066   -3.2781   -0.5858 F   0  0  0  0  0  0  0  0  0  0  0  0
    3.3806   -1.7259    0.6493 F   0  0  0  0  0  0  0  0  0  0  0  0
    1.2151   -1.7580    0.2690 F   0  0  0  0  0  0  0  0  0  0  0  0
    4.2544    1.7845    0.0506 C   0  0  0  0  0  0  0  0  0  0  0  0
    4.4423    2.4498    1.2189 N   0  0  0  0  0  0  0  0  0  0  0  0
    3.4816    2.3132    2.1591 C   0  0  0  0  0  0  0  0  0  0  0  0
    3.6594    3.0761    3.3255 N   0  0  0  0  0  0  0  0  0  0  0  0
   -2.2638    0.7747   -0.0358 C   0  0  0  0  0  0  0  0  0  0  0  0
   -1.6733    0.4642   -1.4128 C   0  0  0  0  0  0  0  0  0  0  0  0
   -2.5634   -0.0851   -3.9678 H   0  0  0  0  0  0  0  0  0  0  0  0
   -3.3894   -1.6157   -3.6362 H   0  0  0  0  0  0  0  0  0  0  0  0
   -3.9820   -0.1124   -2.9109 H   0  0  0  0  0  0  0  0  0  0  0  0
   -0.3832   -1.8400   -1.6688 H   0  0  0  0  0  0  0  0  0  0  0  0
   -0.4928   -1.1307   -3.1291 H   0  0  0  0  0  0  0  0  0  0  0  0
   -3.0669   -2.7441   -1.2356 H   0  0  0  0  0  0  0  0  0  0  0  0
   -3.9516   -1.2978   -0.8024 H   0  0  0  0  0  0  0  0  0  0  0  0
   -1.3440   -2.2816    0.4274 H   0  0  0  0  0  0  0  0  0  0  0  0
   -2.9251   -2.1899    1.1664 H   0  0  0  0  0  0  0  0  0  0  0  0
   -4.2117   -0.6248    2.2934 H   0  0  0  0  0  0  0  0  0  0  0  0
   -4.4986   -0.0077    4.6799 H   0  0  0  0  0  0  0  0  0  0  0  0
   -2.5723    1.0131    5.9004 H   0  0  0  0  0  0  0  0  0  0  0  0
    0.1536    0.4271    1.4235 H   0  0  0  0  0  0  0  0  0  0  0  0
    3.2288    1.0515   -4.6490 H   0  0  0  0  0  0  0  0  0  0  0  0
    2.5583   -1.3319   -4.9522 H   0  0  0  0  0  0  0  0  0  0  0  0
    2.2058   -2.7232   -2.9268 H   0  0  0  0  0  0  0  0  0  0  0  0
    5.0358    1.9237   -0.6898 H   0  0  0  0  0  0  0  0  0  0  0  0
    3.3781    2.5071    4.1294 H   0  0  0  0  0  0  0  0  0  0  0  0
    2.9801    3.8347    3.3236 H   0  0  0  0  0  0  0  0  0  0  0  0
   -1.8364    1.7270    0.3084 H   0  0  0  0  0  0  0  0  0  0  0  0
   -3.3545    0.9050   -0.0903 H   0  0  0  0  0  0  0  0  0  0  0  0
   -1.9039    1.2870   -2.1014 H   0  0  0  0  0  0  0  0  0  0  0  0
   -0.5793    0.4599   -1.3151 H   0  0  0  0  0  0  0  0  0  0  0  0
  1  2  1  0
  2  3  1  0
  2  4  1  0
  4  5  1  0
  5  6  1  0
  6  7  1  0
  7  8  2  0
  8  9  1  0
  9 10  2  0
 10 11  1  0
 11 12  2  0
 12 13  1  0
 13 14  1  0
 14 15  2  0
 14 16  1  0
 16 17  2  0
 17 18  1  0
 18 19  1  0
 19 20  2  0
 20 21  1  0
 21 22  2  0
 22 23  1  0
 23 24  2  0
 24 25  1  0
 25 26  1  0
 25 27  1  0
 25 28  1  0
 18 29  2  0
 29 30  1  0
 30 31  2  0
 31 32  1  0
  6 33  1  0
 33 34  1  0
 34  2  1  0
 12  7  1  0
 31 16  1  0
 24 19  1  0
  1 35  1  0
  1 36  1  0
  1 37  1  0
  3 38  1  0
  3 39  1  0
  4 40  1  0
  4 41  1  0
  5 42  1  0
  5 43  1  0
  8 44  1  0
  9 45  1  0
 10 46  1  0
 13 47  1  0
 21 48  1  0
 22 49  1  0
 23 50  1  0
 29 51  1  0
 32 52  1  0
 32 53  1  0
 33 54  1  0
 33 55  1  0
 34 56  1  0
 34 57  1  0
M  END
$$$$
