
     RDKit          3D

 43 45  0  0  0  0  0  0  0  0999 V2000
   -4.1575   -0.9782    0.7300 C   0  0  0  0  0  0  0  0  0  0  0  0
   -3.5296   -0.5953   -0.6153 C   0  0  2  0  0  0  0  0  0  0  0  0
   -2.1343   -0.2133   -0.4654 N   0  0  0  0  0  0  0  0  0  0  0  0
   -1.1455   -1.1395   -0.2295 C   0  0  0  0  0  0  0  0  0  0  0  0
   -1.3626   -2.3337   -0.0538 O   0  0  0  0  0  0  0  0  0  0  0  0
    0.2371   -0.5269   -0.1770 C   0  0  0  0  0  0  0  0  0  0  0  0
    1.3184   -1.5924   -0.0459 C   0  0  0  0  0  0  0  0  0  0  0  0
    2.6575   -0.9504    0.2619 C   0  0  0  0  0  0  0  0  0  0  0  0
    3.1790   -0.1985   -0.6549 N   0  0  0  0  0  0  0  0  0  0  0  0
    4.4006    0.3975   -0.4177 C   0  0  0  0  0  0  0  0  0  0  0  0
    4.9329    1.1444   -1.2327 O   0  0  0  0  0  0  0  0  0  0  0  0
    5.1075    0.1369    0.8635 C   0  0  0  0  0  0  0  0  0  0  0  0
    6.3581    0.7004    1.1374 C   0  0  0  0  0  0  0  0  0  0  0  0
    6.9773    0.4361    2.3581 C   0  0  0  0  0  0  0  0  0  0  0  0
    6.3472   -0.3839    3.2959 C   0  0  0  0  0  0  0  0  0  0  0  0
    5.0958   -0.9422    3.0181 C   0  0  0  0  0  0  0  0  0  0  0  0
    4.4715   -0.6898    1.7949 C   0  0  0  0  0  0  0  0  0  0  0  0
    3.2151   -1.2095    1.4877 N   0  0  0  0  0  0  0  0  0  0  0  0
   -4.2859    0.5215   -1.3151 C   0  0  0  0  0  0  0  0  0  0  0  0
   -4.5857    0.4043   -2.6830 C   0  0  0  0  0  0  0  0  0  0  0  0
   -5.2617    1.4243   -3.3550 C   0  0  0  0  0  0  0  0  0  0  0  0
   -5.6423    2.5782   -2.6724 C   0  0  0  0  0  0  0  0  0  0  0  0
   -5.3383    2.7176   -1.3203 C   0  0  0  0  0  0  0  0  0  0  0  0
   -4.6582    1.7002   -0.6472 C   0  0  0  0  0  0  0  0  0  0  0  0
   -5.2251   -1.1958    0.6179 H   0  0  0  0  0  0  0  0  0  0  0  0
   -3.6784   -1.8706    1.1474 H   0  0  0  0  0  0  0  0  0  0  0  0
   -4.0487   -0.1814    1.4746 H   0  0  0  0  0  0  0  0  0  0  0  0
   -3.5557   -1.4914   -1.2486 H   0  0  0  0  0  0  0  0  0  0  0  0
   -1.8700    0.7199   -0.7546 H   0  0  0  0  0  0  0  0  0  0  0  0
    0.3986    0.0631   -1.0862 H   0  0  0  0  0  0  0  0  0  0  0  0
    0.2722    0.1578    0.6793 H   0  0  0  0  0  0  0  0  0  0  0  0
    1.4075   -2.1629   -0.9780 H   0  0  0  0  0  0  0  0  0  0  0  0
    1.0701   -2.3055    0.7488 H   0  0  0  0  0  0  0  0  0  0  0  0
    6.8425    1.3442    0.4064 H   0  0  0  0  0  0  0  0  0  0  0  0
    7.9488    0.8720    2.5789 H   0  0  0  0  0  0  0  0  0  0  0  0
    6.8301   -0.5822    4.2499 H   0  0  0  0  0  0  0  0  0  0  0  0
    4.6199   -1.5724    3.7659 H   0  0  0  0  0  0  0  0  0  0  0  0
    2.7919   -1.8713    2.1250 H   0  0  0  0  0  0  0  0  0  0  0  0
   -4.2898   -0.4849   -3.2373 H   0  0  0  0  0  0  0  0  0  0  0  0
   -5.4915    1.3182   -4.4125 H   0  0  0  0  0  0  0  0  0  0  0  0
   -6.1712    3.3716   -3.1951 H   0  0  0  0  0  0  0  0  0  0  0  0
   -5.6262    3.6217   -0.7900 H   0  0  0  0  0  0  0  0  0  0  0  0
   -4.4208    1.8421    0.4051 H   0  0  0  0  0  0  0  0  0  0  0  0
  1  2  1  0
  2  3  1  0
  3  4  1  0
  4  5  2  0
  4  6  1  0
  6  7  1  0
  7  8  1  0
  8  9  2  0
  9 10  1  0
 10 11  2  0
 10 12  1  0
 12 13  2  0
 13 14  1  0
 14 15  2  0
 15 16  1  0
 16 17  2  0
 17 18  1  0
  2 19  1  0
 19 20  2  0
 20 21  1  0
 21 22  2  0
 22 23  1  0
 23 24  2  0
 18  8  1  0
 24 19  1  0
 17 12  1  0
  1 25  1  0
  1 26  1  0
  1 27  1  0
  2 28  1  6
  3 29  1  0
  6 30  1  0
  6 31  1  0
  7 32  1  0
  7 33  1  0
 13 34  1  0
 14 35  1  0
 15 36  1  0
 16 37  1  0
 18 38  1  0
 20 39  1  0
 21 40  1  0
 22 41  1  0
 23 42  1  0
 24 43  1  0
M  END
$$$$
