
     RDKit          3D

 41 42  0  0  0  0  0  0  0  0999 V2000
    6.0499    0.5714    1.5018 C   0  0  0  0  0  0  0  0  0  0  0  0
    5.0917   -0.6055    1.4631 C   0  0  0  0  0  0  0  0  0  0  0  0
    4.3882   -0.7348    0.1260 C   0  0  0  0  0  0  0  0  0  0  0  0
    4.5707    0.0278   -0.8159 O   0  0  0  0  0  0  0  0  0  0  0  0
    3.5237   -1.8071    0.0830 N   0  0  0  0  0  0  0  0  0  0  0  0
    2.6685   -2.0482   -1.0568 C   0  0  0  0  0  0  0  0  0  0  0  0
    1.2809   -1.5161   -0.8063 C   0  0  0  0  0  0  0  0  0  0  0  0
    1.0060   -0.1539   -0.9774 C   0  0  0  0  0  0  0  0  0  0  0  0
   -0.2725    0.3570   -0.7286 C   0  0  0  0  0  0  0  0  0  0  0  0
   -1.3029   -0.4881   -0.3069 C   0  0  0  0  0  0  0  0  0  0  0  0
   -2.6115    0.0116   -0.0342 N   0  0  0  0  0  0  0  0  0  0  0  0
   -3.4902   -0.5533    0.8725 C   0  0  0  0  0  0  0  0  0  0  0  0
   -4.5965    0.2596    0.9156 C   0  0  0  0  0  0  0  0  0  0  0  0
   -5.8113    0.1461    1.7502 C   0  0  0  0  0  0  0  0  0  0  0  0
   -4.4576    1.2826    0.0239 N   0  0  0  0  0  0  0  0  0  0  0  0
   -3.2873    1.1099   -0.5679 C   0  0  0  0  0  0  0  0  0  0  0  0
   -2.8678    1.9294   -1.7470 C   0  0  0  0  0  0  0  0  0  0  0  0
   -2.4778    3.3421   -1.3394 C   0  0  0  0  0  0  0  0  0  0  0  0
   -1.0227   -1.8494   -0.1091 C   0  0  0  0  0  0  0  0  0  0  0  0
    0.2567   -2.3577   -0.3600 C   0  0  0  0  0  0  0  0  0  0  0  0
    6.8269    0.4711    0.7368 H   0  0  0  0  0  0  0  0  0  0  0  0
    5.5223    1.5140    1.3221 H   0  0  0  0  0  0  0  0  0  0  0  0
    6.5381    0.6337    2.4792 H   0  0  0  0  0  0  0  0  0  0  0  0
    4.3331   -0.4843    2.2445 H   0  0  0  0  0  0  0  0  0  0  0  0
    5.6425   -1.5326    1.6573 H   0  0  0  0  0  0  0  0  0  0  0  0
    3.2961   -2.2814    0.9459 H   0  0  0  0  0  0  0  0  0  0  0  0
    2.6389   -3.1316   -1.2165 H   0  0  0  0  0  0  0  0  0  0  0  0
    3.0895   -1.5985   -1.9631 H   0  0  0  0  0  0  0  0  0  0  0  0
    1.7993    0.5241   -1.2928 H   0  0  0  0  0  0  0  0  0  0  0  0
   -0.4062    1.4283   -0.8246 H   0  0  0  0  0  0  0  0  0  0  0  0
   -3.2443   -1.4310    1.4506 H   0  0  0  0  0  0  0  0  0  0  0  0
   -6.6843   -0.0590    1.1229 H   0  0  0  0  0  0  0  0  0  0  0  0
   -5.9882    1.0788    2.2947 H   0  0  0  0  0  0  0  0  0  0  0  0
   -5.7174   -0.6627    2.4816 H   0  0  0  0  0  0  0  0  0  0  0  0
   -2.0702    1.4568   -2.3250 H   0  0  0  0  0  0  0  0  0  0  0  0
   -3.7218    1.9931   -2.4339 H   0  0  0  0  0  0  0  0  0  0  0  0
   -3.3212    3.8640   -0.8739 H   0  0  0  0  0  0  0  0  0  0  0  0
   -2.1698    3.9179   -2.2179 H   0  0  0  0  0  0  0  0  0  0  0  0
   -1.6517    3.3453   -0.6216 H   0  0  0  0  0  0  0  0  0  0  0  0
   -1.7921   -2.5499    0.2061 H   0  0  0  0  0  0  0  0  0  0  0  0
    0.4423   -3.4192   -0.2101 H   0  0  0  0  0  0  0  0  0  0  0  0
  1  2  1  0
  2  3  1  0
  3  4  2  0
  3  5  1  0
  5  6  1  0
  6  7  1  0
  7  8  2  0
  8  9  1  0
  9 10  2  0
 10 11  1  0
 11 12  1  0
 12 13  2  0
 13 14  1  0
 13 15  1  0
 15 16  2  0
 16 17  1  0
 17 18  1  0
 10 19  1  0
 19 20  2  0
 20  7  1  0
 16 11  1  0
  1 21  1  0
  1 22  1  0
  1 23  1  0
  2 24  1  0
  2 25  1  0
  5 26  1  0
  6 27  1  0
  6 28  1  0
  8 29  1  0
  9 30  1  0
 12 31  1  0
 14 32  1  0
 14 33  1  0
 14 34  1  0
 17 35  1  0
 17 36  1  0
 18 37  1  0
 18 38  1  0
 18 39  1  0
 19 40  1  0
 20 41  1  0
M  END
$$$$
