
     RDKit          3D

 46 49  0  0  0  0  0  0  0  0999 V2000
    9.9093    0.2816    0.9311 O   0  0  0  0  0  0  0  0  0  0  0  0
    9.1896    0.9103    0.1409 N   0  0  0  0  0  4  0  0  0  0  0  0
    9.5586    1.8976   -0.5122 O   0  0  0  0  0  1  0  0  0  0  0  0
    7.8075    0.4508   -0.0379 C   0  0  0  0  0  0  0  0  0  0  0  0
    7.0129    1.0171   -1.0421 C   0  0  0  0  0  0  0  0  0  0  0  0
    5.6987    0.5744   -1.2094 C   0  0  0  0  0  0  0  0  0  0  0  0
    5.1715   -0.4316   -0.3828 C   0  0  0  0  0  0  0  0  0  0  0  0
    3.7428   -0.8941   -0.5594 C   0  0  0  0  0  0  0  0  0  0  0  0
    2.5848    0.1998    0.3163 S   0  0  0  0  0  0  0  0  0  0  0  0
    1.0468   -0.5140   -0.1786 C   0  0  0  0  0  0  0  0  0  0  0  0
    1.0069   -1.7101   -0.8219 N   0  0  0  0  0  0  0  0  0  0  0  0
   -0.1993   -2.2007   -1.1728 C   0  0  0  0  0  0  0  0  0  0  0  0
   -1.4126   -1.6492   -0.9728 N   0  0  0  0  0  0  0  0  0  0  0  0
   -1.3075   -0.4731   -0.3325 C   0  0  0  0  0  0  0  0  0  0  0  0
   -0.1492    0.1593    0.0942 C   0  0  0  0  0  0  0  0  0  0  0  0
   -0.4612    1.3570    0.7084 N   0  0  0  0  0  0  0  0  0  0  0  0
   -1.7729    1.4475    0.6488 C   0  0  0  0  0  0  0  0  0  0  0  0
   -2.3287    0.3576    0.0406 N   0  0  0  0  0  0  0  0  0  0  0  0
   -3.7272    0.0893   -0.1964 C   0  0  0  0  0  0  0  0  0  0  0  0
   -4.5230    1.2664    0.0910 O   0  0  0  0  0  0  0  0  0  0  0  0
   -5.7977    0.8120    0.6207 C   0  0  1  0  0  0  0  0  0  0  0  0
   -6.9315    1.4639   -0.1666 C   0  0  0  0  0  0  0  0  0  0  0  0
   -6.8556    2.8826   -0.0337 O   0  0  0  0  0  0  0  0  0  0  0  0
   -5.8026   -0.7121    0.5195 C   0  0  2  0  0  0  0  0  0  0  0  0
   -6.5863   -1.3220    1.5326 O   0  0  0  0  0  0  0  0  0  0  0  0
   -4.3224   -1.0322    0.6589 C   0  0  2  0  0  0  0  0  0  0  0  0
   -3.9867   -0.9633    2.0585 O   0  0  0  0  0  0  0  0  0  0  0  0
    5.9788   -0.9828    0.6249 C   0  0  0  0  0  0  0  0  0  0  0  0
    7.2956   -0.5489    0.7979 C   0  0  0  0  0  0  0  0  0  0  0  0
    7.3964    1.7987   -1.6944 H   0  0  0  0  0  0  0  0  0  0  0  0
    5.0807    1.0248   -1.9850 H   0  0  0  0  0  0  0  0  0  0  0  0
    3.6393   -1.9179   -0.1830 H   0  0  0  0  0  0  0  0  0  0  0  0
    3.5046   -0.9160   -1.6296 H   0  0  0  0  0  0  0  0  0  0  0  0
   -0.1906   -3.1610   -1.6819 H   0  0  0  0  0  0  0  0  0  0  0  0
   -2.3593    2.2760    1.0277 H   0  0  0  0  0  0  0  0  0  0  0  0
   -3.8495   -0.1198   -1.2667 H   0  0  0  0  0  0  0  0  0  0  0  0
   -5.8439    1.1495    1.6634 H   0  0  0  0  0  0  0  0  0  0  0  0
   -7.9091    1.1364    0.1985 H   0  0  0  0  0  0  0  0  0  0  0  0
   -6.8552    1.2340   -1.2343 H   0  0  0  0  0  0  0  0  0  0  0  0
   -5.9329    3.1311   -0.2313 H   0  0  0  0  0  0  0  0  0  0  0  0
   -6.1712   -1.0402   -0.4595 H   0  0  0  0  0  0  0  0  0  0  0  0
   -5.9803   -1.5084    2.2805 H   0  0  0  0  0  0  0  0  0  0  0  0
   -4.0670   -2.0364    0.3102 H   0  0  0  0  0  0  0  0  0  0  0  0
   -3.7845   -0.0397    2.2990 H   0  0  0  0  0  0  0  0  0  0  0  0
    5.5822   -1.7522    1.2857 H   0  0  0  0  0  0  0  0  0  0  0  0
    7.9009   -0.9921    1.5862 H   0  0  0  0  0  0  0  0  0  0  0  0
  1  2  2  0
  2  3  1  0
  2  4  1  0
  4  5  2  0
  5  6  1  0
  6  7  2  0
  7  8  1  0
  8  9  1  0
  9 10  1  0
 10 11  2  0
 11 12  1  0
 12 13  2  0
 13 14  1  0
 14 15  2  0
 15 16  1  0
 16 17  2  0
 17 18  1  0
 18 19  1  0
 19 20  1  0
 20 21  1  0
 21 22  1  0
 22 23  1  0
 21 24  1  0
 24 25  1  0
 24 26  1  0
 26 27  1  0
  7 28  1  0
 28 29  2  0
 29  4  1  0
 15 10  1  0
 26 19  1  0
 18 14  1  0
  5 30  1  0
  6 31  1  0
  8 32  1  0
  8 33  1  0
 12 34  1  0
 17 35  1  0
 19 36  1  0
 21 37  1  1
 22 38  1  0
 22 39  1  0
 23 40  1  0
 24 41  1  6
 25 42  1  0
 26 43  1  6
 27 44  1  0
 28 45  1  0
 29 46  1  0
M  CHG  2   2   1   3  -1
M  END
$$$$
