
     RDKit          3D

 26 25  0  0  0  0  0  0  0  0999 V2000
    0.7639    0.0000    0.0000 Br  0  0  0  0  0  0  0  0  0  0  0  0
    4.1217    0.1494   -0.3274 C   0  0  0  0  0  0  0  0  0  0  0  0
    2.7211    0.3313   -0.2237 O   0  0  0  0  0  0  0  0  0  0  0  0
    1.8428   -0.7115    0.0270 C   0  0  0  0  0  0  0  0  0  0  0  0
    2.3859   -1.8613    0.1601 O   0  0  0  0  0  0  0  0  0  0  0  0
    0.4030   -0.5331    0.1349 C   0  0  0  0  0  0  0  0  0  0  0  0
   -0.3408   -1.6003    0.3768 C   0  0  0  0  0  0  0  0  0  0  0  0
   -1.8170   -1.3906    0.4831 C   0  0  0  0  0  0  0  0  0  0  0  0
   -2.1739   -0.3654   -0.5819 C   0  0  0  0  0  0  0  0  0  0  0  0
   -1.5212    0.8737   -0.3652 N   0  0  0  0  0  0  0  0  0  0  0  0
   -2.3077    1.8183    0.3682 C   0  0  0  0  0  0  0  0  0  0  0  0
   -0.1491    0.8223   -0.0304 C   0  0  0  0  0  0  0  0  0  0  0  0
   -0.7639    0.0000    0.0000 H   0  0  0  0  0  0  0  0  0  0  0  0
    4.5913    0.5747    0.6026 H   0  0  0  0  0  0  0  0  0  0  0  0
    4.4088   -0.9183   -0.4214 H   0  0  0  0  0  0  0  0  0  0  0  0
    4.5004    0.6957   -1.2238 H   0  0  0  0  0  0  0  0  0  0  0  0
    0.1390   -2.5515    0.4841 H   0  0  0  0  0  0  0  0  0  0  0  0
   -2.3231   -2.3393    0.3195 H   0  0  0  0  0  0  0  0  0  0  0  0
   -2.0622   -0.9177    1.4576 H   0  0  0  0  0  0  0  0  0  0  0  0
   -3.2833   -0.1926   -0.4609 H   0  0  0  0  0  0  0  0  0  0  0  0
   -1.9951   -0.8363   -1.5583 H   0  0  0  0  0  0  0  0  0  0  0  0
   -1.6579    2.6103    0.7971 H   0  0  0  0  0  0  0  0  0  0  0  0
   -3.0505    2.2540   -0.3497 H   0  0  0  0  0  0  0  0  0  0  0  0
   -2.8863    1.3645    1.1967 H   0  0  0  0  0  0  0  0  0  0  0  0
    0.4355    1.3366   -0.8371 H   0  0  0  0  0  0  0  0  0  0  0  0
    0.0184    1.3874    0.9215 H   0  0  0  0  0  0  0  0  0  0  0  0
  2  3  1  0
  3  4  1  0
  4  5  2  0
  4  6  1  0
  6  7  2  0
  7  8  1  0
  8  9  1  0
  9 10  1  0
 10 11  1  0
 10 12  1  0
 12  6  1  0
  1 13  1  0
  2 14  1  0
  2 15  1  0
  2 16  1  0
  7 17  1  0
  8 18  1  0
  8 19  1  0
  9 20  1  0
  9 21  1  0
 11 22  1  0
 11 23  1  0
 11 24  1  0
 12 25  1  0
 12 26  1  0
M  END
$$$$
