
     RDKit          3D

 62 66  0  0  0  0  0  0  0  0999 V2000
   -5.0081   -0.8231   -1.1595 C   0  0  0  0  0  0  0  0  0  0  0  0
   -3.4994   -0.7138   -1.3623 C   0  0  0  0  0  0  0  0  0  0  0  0
   -2.9777   -1.9177   -2.1361 C   0  0  0  0  0  0  0  0  0  0  0  0
   -3.2281    0.4723   -2.1015 O   0  0  0  0  0  0  0  0  0  0  0  0
   -2.4728    1.3374   -1.2560 C   0  0  2  0  0  0  0  0  0  0  0  0
   -1.0057    1.3870   -1.7333 C   0  0  0  0  0  0  0  0  0  0  0  0
   -0.2644    0.5097   -0.7272 C   0  0  1  0  0  0  0  0  0  0  0  0
    1.2657    0.6070   -0.6382 C   0  0  2  0  0  0  0  0  0  0  0  0
    1.9025    0.3670   -2.0177 C   0  0  0  0  0  0  0  0  0  0  0  0
    3.4237    0.3341   -1.9577 C   0  0  2  0  0  0  0  0  0  0  0  0
    3.8802    0.0380   -3.2081 F   0  0  0  0  0  0  0  0  0  0  0  0
    3.8976   -0.6746   -0.9437 C   0  0  0  0  0  0  0  0  0  0  0  0
    4.6962   -1.6950   -1.3063 C   0  0  0  0  0  0  0  0  0  0  0  0
    5.1269   -2.7299   -0.3468 C   0  0  0  0  0  0  0  0  0  0  0  0
    5.8711   -3.6429   -0.6801 O   0  0  0  0  0  0  0  0  0  0  0  0
    4.6253   -2.6185    1.0355 C   0  0  0  0  0  0  0  0  0  0  0  0
    3.8304   -1.6049    1.4032 C   0  0  0  0  0  0  0  0  0  0  0  0
    3.3584   -0.4776    0.4849 C   0  0  1  0  0  0  0  0  0  0  0  0
    3.9840    0.8182    1.0514 C   0  0  0  0  0  0  0  0  0  0  0  0
    1.7759   -0.4449    0.4040 C   0  0  2  0  0  0  0  0  0  0  0  0
    1.3917   -1.6796   -0.0972 F   0  0  0  0  0  0  0  0  0  0  0  0
    1.0295   -0.3219    1.7694 C   0  0  1  0  0  0  0  0  0  0  0  0
    1.4766    0.7972    2.5269 O   0  0  0  0  0  0  0  0  0  0  0  0
   -0.5097   -0.2566    1.6231 C   0  0  0  0  0  0  0  0  0  0  0  0
   -0.9856    0.8057    0.6096 C   0  0  1  0  0  0  0  0  0  0  0  0
   -0.7081    2.2360    1.1460 C   0  0  0  0  0  0  0  0  0  0  0  0
   -2.4731    0.6960    0.1422 C   0  0  1  0  0  0  0  0  0  0  0  0
   -3.4794    1.3571    1.0957 C   0  0  0  0  0  0  0  0  0  0  0  0
   -3.8389    2.5328    0.9789 O   0  0  0  0  0  0  0  0  0  0  0  0
   -4.0249    0.5033    2.2349 C   0  0  0  0  0  0  0  0  0  0  0  0
   -4.6524    1.3053    3.2276 O   0  0  0  0  0  0  0  0  0  0  0  0
   -2.8493   -0.6647   -0.0878 O   0  0  0  0  0  0  0  0  0  0  0  0
   -5.5320   -0.9086   -2.1180 H   0  0  0  0  0  0  0  0  0  0  0  0
   -5.4012    0.0716   -0.6645 H   0  0  0  0  0  0  0  0  0  0  0  0
   -5.2640   -1.6830   -0.5318 H   0  0  0  0  0  0  0  0  0  0  0  0
   -1.8987   -1.8355   -2.3017 H   0  0  0  0  0  0  0  0  0  0  0  0
   -3.4462   -1.9896   -3.1238 H   0  0  0  0  0  0  0  0  0  0  0  0
   -3.1501   -2.8495   -1.5868 H   0  0  0  0  0  0  0  0  0  0  0  0
   -2.9105    2.3386   -1.3099 H   0  0  0  0  0  0  0  0  0  0  0  0
   -0.6275    2.4146   -1.6931 H   0  0  0  0  0  0  0  0  0  0  0  0
   -0.8902    1.0196   -2.7581 H   0  0  0  0  0  0  0  0  0  0  0  0
   -0.4812   -0.5295   -1.0162 H   0  0  0  0  0  0  0  0  0  0  0  0
    1.5503    1.6140   -0.3182 H   0  0  0  0  0  0  0  0  0  0  0  0
    1.5362   -0.5738   -2.4501 H   0  0  0  0  0  0  0  0  0  0  0  0
    1.5998    1.1533   -2.7197 H   0  0  0  0  0  0  0  0  0  0  0  0
    3.8167    1.3259   -1.7117 H   0  0  0  0  0  0  0  0  0  0  0  0
    5.0530   -1.8257   -2.3227 H   0  0  0  0  0  0  0  0  0  0  0  0
    4.9451   -3.3900    1.7253 H   0  0  0  0  0  0  0  0  0  0  0  0
    3.5171   -1.5647    2.4443 H   0  0  0  0  0  0  0  0  0  0  0  0
    3.5614    1.7223    0.6035 H   0  0  0  0  0  0  0  0  0  0  0  0
    5.0662    0.8463    0.8677 H   0  0  0  0  0  0  0  0  0  0  0  0
    3.8595    0.9016    2.1363 H   0  0  0  0  0  0  0  0  0  0  0  0
    1.2458   -1.2151    2.3667 H   0  0  0  0  0  0  0  0  0  0  0  0
    1.0510    0.7557    3.4031 H   0  0  0  0  0  0  0  0  0  0  0  0
   -0.8579   -1.2498    1.3132 H   0  0  0  0  0  0  0  0  0  0  0  0
   -0.9559   -0.0552    2.6037 H   0  0  0  0  0  0  0  0  0  0  0  0
   -1.1455    3.0120    0.5099 H   0  0  0  0  0  0  0  0  0  0  0  0
    0.3547    2.4717    1.2213 H   0  0  0  0  0  0  0  0  0  0  0  0
   -1.1348    2.3611    2.1476 H   0  0  0  0  0  0  0  0  0  0  0  0
   -3.2163   -0.0489    2.7161 H   0  0  0  0  0  0  0  0  0  0  0  0
   -4.7640   -0.1979    1.8378 H   0  0  0  0  0  0  0  0  0  0  0  0
   -5.0388    2.0700    2.7559 H   0  0  0  0  0  0  0  0  0  0  0  0
  1  2  1  0
  2  3  1  0
  2  4  1  0
  4  5  1  0
  5  6  1  0
  6  7  1  0
  7  8  1  0
  8  9  1  0
  9 10  1  0
 10 11  1  0
 10 12  1  0
 12 13  2  0
 13 14  1  0
 14 15  2  0
 14 16  1  0
 16 17  2  0
 17 18  1  0
 18 19  1  1
 18 20  1  0
 20 21  1  6
 20 22  1  0
 22 23  1  0
 22 24  1  0
 24 25  1  0
 25 26  1  1
 25 27  1  0
 27 28  1  1
 28 29  2  0
 28 30  1  0
 30 31  1  0
 27 32  1  0
 32  2  1  0
 27  5  1  0
 25  7  1  0
 20  8  1  0
 18 12  1  0
  1 33  1  0
  1 34  1  0
  1 35  1  0
  3 36  1  0
  3 37  1  0
  3 38  1  0
  5 39  1  1
  6 40  1  0
  6 41  1  0
  7 42  1  6
  8 43  1  1
  9 44  1  0
  9 45  1  0
 10 46  1  1
 13 47  1  0
 16 48  1  0
 17 49  1  0
 19 50  1  0
 19 51  1  0
 19 52  1  0
 22 53  1  1
 23 54  1  0
 24 55  1  0
 24 56  1  0
 26 57  1  0
 26 58  1  0
 26 59  1  0
 30 60  1  0
 30 61  1  0
 31 62  1  0
M  END
$$$$
