
     RDKit          3D

 53 57  0  0  0  0  0  0  0  0999 V2000
   -3.8744    3.6023    2.9636 C   0  0  0  0  0  0  0  0  0  0  0  0
   -4.2733    2.6007    1.8924 C   0  0  0  0  0  0  0  0  0  0  0  0
   -3.2885    1.5657    1.8608 O   0  0  0  0  0  0  0  0  0  0  0  0
   -3.4854    0.6403    0.9193 C   0  0  0  0  0  0  0  0  0  0  0  0
   -4.4452    0.6570    0.0295 N   0  0  0  0  0  0  0  0  0  0  0  0
   -4.2454   -0.4599   -0.7304 C   0  0  0  0  0  0  0  0  0  0  0  0
   -4.9988   -0.8861   -1.8366 C   0  0  0  0  0  0  0  0  0  0  0  0
   -4.6479   -2.0612   -2.4888 C   0  0  0  0  0  0  0  0  0  0  0  0
   -3.5663   -2.8104   -2.0377 C   0  0  0  0  0  0  0  0  0  0  0  0
   -2.7933   -2.4098   -0.9273 C   0  0  0  0  0  0  0  0  0  0  0  0
   -1.7225   -3.3099   -0.4621 C   0  0  0  0  0  0  0  0  0  0  0  0
   -1.4304   -3.5653    0.6894 O   0  0  0  0  0  0  0  0  0  0  0  0
   -1.0706   -3.8761   -1.4909 O   0  0  0  0  0  0  0  0  0  0  0  0
   -3.1464   -1.2059   -0.2833 C   0  0  0  0  0  0  0  0  0  0  0  0
   -2.6513   -0.4420    0.7600 N   0  0  0  0  0  0  0  0  0  0  0  0
   -1.4567   -0.6404    1.5676 C   0  0  0  0  0  0  0  0  0  0  0  0
   -0.1843   -0.3209    0.8162 C   0  0  0  0  0  0  0  0  0  0  0  0
    0.0295    0.9491    0.2640 C   0  0  0  0  0  0  0  0  0  0  0  0
    1.2210    1.2457   -0.4065 C   0  0  0  0  0  0  0  0  0  0  0  0
    2.2369    0.2839   -0.5488 C   0  0  0  0  0  0  0  0  0  0  0  0
    3.4698    0.5963   -1.3055 C   0  0  0  0  0  0  0  0  0  0  0  0
    3.3354    1.0513   -2.6366 C   0  0  0  0  0  0  0  0  0  0  0  0
    4.4454    1.3379   -3.4338 C   0  0  0  0  0  0  0  0  0  0  0  0
    5.7250    1.1644   -2.9262 C   0  0  0  0  0  0  0  0  0  0  0  0
    5.8906    0.7142   -1.6186 C   0  0  0  0  0  0  0  0  0  0  0  0
    4.7794    0.4409   -0.7942 C   0  0  0  0  0  0  0  0  0  0  0  0
    5.0567    0.0152    0.5712 C   0  0  0  0  0  0  0  0  0  0  0  0
    5.9986   -0.9522    0.8601 N   0  0  0  0  0  0  0  0  0  0  0  0
    6.0279   -1.0786    2.1789 N   0  0  0  0  0  0  0  0  0  0  0  0
    5.1323   -0.1841    2.6190 N   0  0  0  0  0  0  0  0  0  0  0  0
    4.5133    0.5479    1.6810 N   0  0  0  0  0  0  0  0  0  0  0  0
    2.0213   -0.9845    0.0184 C   0  0  0  0  0  0  0  0  0  0  0  0
    0.8377   -1.2751    0.7068 C   0  0  0  0  0  0  0  0  0  0  0  0
   -4.6021    4.4095    3.0307 H   0  0  0  0  0  0  0  0  0  0  0  0
   -2.8958    4.0326    2.7446 H   0  0  0  0  0  0  0  0  0  0  0  0
   -3.7956    3.1167    3.9389 H   0  0  0  0  0  0  0  0  0  0  0  0
   -4.3234    3.1123    0.9214 H   0  0  0  0  0  0  0  0  0  0  0  0
   -5.2545    2.1776    2.1356 H   0  0  0  0  0  0  0  0  0  0  0  0
   -5.8463   -0.2964   -2.1699 H   0  0  0  0  0  0  0  0  0  0  0  0
   -5.2276   -2.3979   -3.3438 H   0  0  0  0  0  0  0  0  0  0  0  0
   -3.3281   -3.7384   -2.5525 H   0  0  0  0  0  0  0  0  0  0  0  0
   -0.3832   -4.4346   -1.0707 H   0  0  0  0  0  0  0  0  0  0  0  0
   -1.4820   -1.6570    1.9615 H   0  0  0  0  0  0  0  0  0  0  0  0
   -1.5112    0.0087    2.4492 H   0  0  0  0  0  0  0  0  0  0  0  0
   -0.7271    1.7283    0.3497 H   0  0  0  0  0  0  0  0  0  0  0  0
    1.3534    2.2465   -0.8188 H   0  0  0  0  0  0  0  0  0  0  0  0
    2.3426    1.1722   -3.0715 H   0  0  0  0  0  0  0  0  0  0  0  0
    4.3044    1.6899   -4.4527 H   0  0  0  0  0  0  0  0  0  0  0  0
    6.5933    1.3808   -3.5433 H   0  0  0  0  0  0  0  0  0  0  0  0
    6.9010    0.5883   -1.2326 H   0  0  0  0  0  0  0  0  0  0  0  0
    4.9380   -0.0649    3.6138 H   0  0  0  0  0  0  0  0  0  0  0  0
    2.7820   -1.7664   -0.0652 H   0  0  0  0  0  0  0  0  0  0  0  0
    0.7221   -2.2581    1.1520 H   0  0  0  0  0  0  0  0  0  0  0  0
  1  2  1  0
  2  3  1  0
  3  4  1  0
  4  5  2  0
  5  6  1  0
  6  7  2  0
  7  8  1  0
  8  9  2  0
  9 10  1  0
 10 11  1  0
 11 12  2  0
 11 13  1  0
 10 14  2  0
 14 15  1  0
 15 16  1  0
 16 17  1  0
 17 18  2  0
 18 19  1  0
 19 20  2  0
 20 21  1  0
 21 22  2  0
 22 23  1  0
 23 24  2  0
 24 25  1  0
 25 26  2  0
 26 27  1  0
 27 28  1  0
 28 29  2  0
 29 30  1  0
 30 31  1  0
 20 32  1  0
 32 33  2  0
 15  4  1  0
 33 17  1  0
 14  6  1  0
 26 21  1  0
 31 27  2  0
  1 34  1  0
  1 35  1  0
  1 36  1  0
  2 37  1  0
  2 38  1  0
  7 39  1  0
  8 40  1  0
  9 41  1  0
 13 42  1  0
 16 43  1  0
 16 44  1  0
 18 45  1  0
 19 46  1  0
 22 47  1  0
 23 48  1  0
 24 49  1  0
 25 50  1  0
 30 51  1  0
 32 52  1  0
 33 53  1  0
M  END
$$$$
