
     RDKit          3D

 36 39  0  0  0  0  0  0  0  0999 V2000
   -6.3101    1.2740    1.3533 C   0  0  0  0  0  0  0  0  0  0  0  0
   -5.1540    0.6937    0.7161 N   0  0  0  0  0  0  0  0  0  0  0  0
   -5.1790    0.1099   -0.5208 C   0  0  0  0  0  0  0  0  0  0  0  0
   -6.1146   -0.0505   -1.2798 O   0  0  0  0  0  0  0  0  0  0  0  0
   -3.8057   -0.3024   -0.8101 C   0  0  0  0  0  0  0  0  0  0  0  0
   -3.2763   -0.9556   -1.9042 C   0  0  0  0  0  0  0  0  0  0  0  0
   -1.9005   -1.2162   -1.8865 C   0  0  0  0  0  0  0  0  0  0  0  0
   -1.0896   -0.8144   -0.7939 C   0  0  0  0  0  0  0  0  0  0  0  0
    0.3657   -1.1406   -0.8442 C   0  0  0  0  0  0  0  0  0  0  0  0
    0.7012   -2.1589   -1.4359 O   0  0  0  0  0  0  0  0  0  0  0  0
    1.1976   -0.2207   -0.2327 N   0  0  0  0  0  0  0  0  0  0  0  0
    2.6016   -0.2958   -0.0958 C   0  0  0  0  0  0  0  0  0  0  0  0
    3.3711   -1.4007   -0.5089 C   0  0  0  0  0  0  0  0  0  0  0  0
    4.7626   -1.4167   -0.3402 C   0  0  0  0  0  0  0  0  0  0  0  0
    5.3528   -0.3200    0.2439 C   0  0  0  0  0  0  0  0  0  0  0  0
    4.6107    0.7600    0.6529 C   0  0  0  0  0  0  0  0  0  0  0  0
    3.2398    0.8031    0.4996 C   0  0  0  0  0  0  0  0  0  0  0  0
    5.3781    1.7377    1.2059 O   0  0  0  0  0  0  0  0  0  0  0  0
    6.6903    1.1458    1.0965 C   0  0  0  0  0  0  0  0  0  0  0  0
    6.6803   -0.1613    0.4865 O   0  0  0  0  0  0  0  0  0  0  0  0
   -1.6591   -0.1634    0.3103 C   0  0  0  0  0  0  0  0  0  0  0  0
   -3.0198    0.0793    0.2630 C   0  0  0  0  0  0  0  0  0  0  0  0
   -3.8908    0.7350    1.2361 C   0  0  0  0  0  0  0  0  0  0  0  0
   -3.4934    1.2194    2.2779 O   0  0  0  0  0  0  0  0  0  0  0  0
   -6.1763    1.2922    2.4382 H   0  0  0  0  0  0  0  0  0  0  0  0
   -6.4228    2.2997    0.9896 H   0  0  0  0  0  0  0  0  0  0  0  0
   -7.2066    0.7055    1.0913 H   0  0  0  0  0  0  0  0  0  0  0  0
   -3.9018   -1.2583   -2.7382 H   0  0  0  0  0  0  0  0  0  0  0  0
   -1.4464   -1.7393   -2.7290 H   0  0  0  0  0  0  0  0  0  0  0  0
    0.7789    0.6359    0.1055 H   0  0  0  0  0  0  0  0  0  0  0  0
    2.9118   -2.2725   -0.9654 H   0  0  0  0  0  0  0  0  0  0  0  0
    5.3533   -2.2680   -0.6595 H   0  0  0  0  0  0  0  0  0  0  0  0
    2.6927    1.6755    0.8375 H   0  0  0  0  0  0  0  0  0  0  0  0
    7.3245    1.8084    0.4962 H   0  0  0  0  0  0  0  0  0  0  0  0
    7.1213    1.0612    2.1008 H   0  0  0  0  0  0  0  0  0  0  0  0
   -1.0876    0.1192    1.1879 H   0  0  0  0  0  0  0  0  0  0  0  0
  1  2  1  0
  2  3  1  0
  3  4  2  0
  3  5  1  0
  5  6  2  0
  6  7  1  0
  7  8  2  0
  8  9  1  0
  9 10  2  0
  9 11  1  0
 11 12  1  0
 12 13  2  0
 13 14  1  0
 14 15  2  0
 15 16  1  0
 16 17  2  0
 16 18  1  0
 18 19  1  0
 19 20  1  0
  8 21  1  0
 21 22  2  0
 22 23  1  0
 23 24  2  0
 23  2  1  0
 22  5  1  0
 17 12  1  0
 20 15  1  0
  1 25  1  0
  1 26  1  0
  1 27  1  0
  6 28  1  0
  7 29  1  0
 11 30  1  0
 13 31  1  0
 14 32  1  0
 17 33  1  0
 19 34  1  0
 19 35  1  0
 21 36  1  0
M  END
$$$$
