
     RDKit          3D

 59 63  0  0  0  0  0  0  0  0999 V2000
    4.2693    0.9183    1.8730 O   0  0  0  0  0  0  0  0  0  0  0  0
    3.9947    0.4980    0.7578 C   0  0  0  0  0  0  0  0  0  0  0  0
    4.9110    0.4062   -0.2410 O   0  0  0  0  0  0  0  0  0  0  0  0
    6.2632    0.7846    0.1280 C   0  0  0  0  0  0  0  0  0  0  0  0
    7.0229   -0.3780    0.7116 C   0  0  0  0  0  0  0  0  0  0  0  0
    6.4178   -0.8636    1.8205 F   0  0  0  0  0  0  0  0  0  0  0  0
    7.1267   -1.4103   -0.1543 F   0  0  0  0  0  0  0  0  0  0  0  0
    8.2751   -0.0273    1.0796 F   0  0  0  0  0  0  0  0  0  0  0  0
    7.0140    1.2273   -1.0970 C   0  0  0  0  0  0  0  0  0  0  0  0
    7.0962    0.2662   -2.0405 F   0  0  0  0  0  0  0  0  0  0  0  0
    6.3927    2.2897   -1.6694 F   0  0  0  0  0  0  0  0  0  0  0  0
    8.2699    1.6305   -0.8071 F   0  0  0  0  0  0  0  0  0  0  0  0
    2.7443    0.0710    0.3596 N   0  0  0  0  0  0  0  0  0  0  0  0
    2.5158   -0.5262   -0.9515 C   0  0  0  0  0  0  0  0  0  0  0  0
    1.0759   -0.9949   -1.1596 C   0  0  0  0  0  0  0  0  0  0  0  0
    0.0868    0.1064   -0.7229 C   0  0  0  0  0  0  0  0  0  0  0  0
   -1.4159   -0.1784   -1.0859 C   0  0  0  0  0  0  0  0  0  0  0  0
   -1.3957   -0.4277   -2.5138 O   0  0  0  0  0  0  0  0  0  0  0  0
   -2.2254    1.1236   -0.8791 C   0  0  0  0  0  0  0  0  0  0  0  0
   -2.2480    2.1251   -1.8870 C   0  0  0  0  0  0  0  0  0  0  0  0
   -2.9482    3.3251   -1.7178 C   0  0  0  0  0  0  0  0  0  0  0  0
   -3.6169    3.5128   -0.5308 C   0  0  0  0  0  0  0  0  0  0  0  0
   -3.6035    2.5632    0.4608 C   0  0  0  0  0  0  0  0  0  0  0  0
   -2.9225    1.3708    0.3220 C   0  0  0  0  0  0  0  0  0  0  0  0
   -4.3185    2.9437    1.5537 O   0  0  0  0  0  0  0  0  0  0  0  0
   -4.7924    4.2386    1.1289 C   0  0  0  0  0  0  0  0  0  0  0  0
   -4.3434    4.6103   -0.1905 O   0  0  0  0  0  0  0  0  0  0  0  0
   -2.1192   -1.4060   -0.4721 C   0  0  0  0  0  0  0  0  0  0  0  0
   -1.5859   -2.1843    0.5814 C   0  0  0  0  0  0  0  0  0  0  0  0
   -2.2739   -3.2890    1.1045 C   0  0  0  0  0  0  0  0  0  0  0  0
   -3.4998   -3.6024    0.5659 C   0  0  0  0  0  0  0  0  0  0  0  0
   -4.0444   -2.8633   -0.4515 C   0  0  0  0  0  0  0  0  0  0  0  0
   -3.3893   -1.7728   -0.9840 C   0  0  0  0  0  0  0  0  0  0  0  0
   -5.2592   -3.3312   -0.8418 O   0  0  0  0  0  0  0  0  0  0  0  0
   -5.4211   -4.4472    0.0583 C   0  0  0  0  0  0  0  0  0  0  0  0
   -4.3004   -4.6312    0.9490 O   0  0  0  0  0  0  0  0  0  0  0  0
    0.3500    0.5709    0.7295 C   0  0  0  0  0  0  0  0  0  0  0  0
    1.6557    0.0398    1.3208 C   0  0  0  0  0  0  0  0  0  0  0  0
    6.2456    1.6237    0.8334 H   0  0  0  0  0  0  0  0  0  0  0  0
    2.7805    0.2240   -1.7065 H   0  0  0  0  0  0  0  0  0  0  0  0
    3.2048   -1.3700   -1.0749 H   0  0  0  0  0  0  0  0  0  0  0  0
    0.9143   -1.9159   -0.5916 H   0  0  0  0  0  0  0  0  0  0  0  0
    0.9445   -1.2522   -2.2163 H   0  0  0  0  0  0  0  0  0  0  0  0
    0.3759    0.9675   -1.3496 H   0  0  0  0  0  0  0  0  0  0  0  0
   -1.4322   -1.3894   -2.6498 H   0  0  0  0  0  0  0  0  0  0  0  0
   -1.7109    1.9652   -2.8214 H   0  0  0  0  0  0  0  0  0  0  0  0
   -2.9625    4.0808   -2.4947 H   0  0  0  0  0  0  0  0  0  0  0  0
   -2.9403    0.6532    1.1358 H   0  0  0  0  0  0  0  0  0  0  0  0
   -4.4410    4.9917    1.8436 H   0  0  0  0  0  0  0  0  0  0  0  0
   -5.8885    4.2308    1.1373 H   0  0  0  0  0  0  0  0  0  0  0  0
   -0.6264   -1.9521    1.0295 H   0  0  0  0  0  0  0  0  0  0  0  0
   -1.8561   -3.8790    1.9132 H   0  0  0  0  0  0  0  0  0  0  0  0
   -3.8580   -1.2025   -1.7829 H   0  0  0  0  0  0  0  0  0  0  0  0
   -6.3239   -4.2860    0.6587 H   0  0  0  0  0  0  0  0  0  0  0  0
   -5.5509   -5.3598   -0.5346 H   0  0  0  0  0  0  0  0  0  0  0  0
    0.3886    1.6688    0.7306 H   0  0  0  0  0  0  0  0  0  0  0  0
   -0.4669    0.3045    1.4064 H   0  0  0  0  0  0  0  0  0  0  0  0
    1.9085    0.6121    2.2198 H   0  0  0  0  0  0  0  0  0  0  0  0
    1.5367   -1.0037    1.6359 H   0  0  0  0  0  0  0  0  0  0  0  0
  1  2  2  0
  2  3  1  0
  3  4  1  0
  4  5  1  0
  5  6  1  0
  5  7  1  0
  5  8  1  0
  4  9  1  0
  9 10  1  0
  9 11  1  0
  9 12  1  0
  2 13  1  0
 13 14  1  0
 14 15  1  0
 15 16  1  0
 16 17  1  0
 17 18  1  0
 17 19  1  0
 19 20  2  0
 20 21  1  0
 21 22  2  0
 22 23  1  0
 23 24  2  0
 23 25  1  0
 25 26  1  0
 26 27  1  0
 17 28  1  0
 28 29  2  0
 29 30  1  0
 30 31  2  0
 31 32  1  0
 32 33  2  0
 32 34  1  0
 34 35  1  0
 35 36  1  0
 16 37  1  0
 37 38  1  0
 38 13  1  0
 24 19  1  0
 33 28  1  0
 27 22  1  0
 36 31  1  0
  4 39  1  0
 14 40  1  0
 14 41  1  0
 15 42  1  0
 15 43  1  0
 16 44  1  0
 18 45  1  0
 20 46  1  0
 21 47  1  0
 24 48  1  0
 26 49  1  0
 26 50  1  0
 29 51  1  0
 30 52  1  0
 33 53  1  0
 35 54  1  0
 35 55  1  0
 37 56  1  0
 37 57  1  0
 38 58  1  0
 38 59  1  0
M  END
$$$$
