
     RDKit          3D

 59 62  0  0  0  0  0  0  0  0999 V2000
   -8.1670    0.5187   -2.5445 C   0  0  0  0  0  0  0  0  0  0  0  0
   -6.9567   -0.2251   -2.6092 O   0  0  0  0  0  0  0  0  0  0  0  0
   -6.4153   -0.6267   -1.4192 C   0  0  0  0  0  0  0  0  0  0  0  0
   -6.9020   -0.3171   -0.1497 C   0  0  0  0  0  0  0  0  0  0  0  0
   -6.2443   -0.7925    0.9902 C   0  0  0  0  0  0  0  0  0  0  0  0
   -5.0966   -1.5889    0.8767 C   0  0  0  0  0  0  0  0  0  0  0  0
   -4.3713   -2.0592    2.1117 C   0  0  0  0  0  0  0  0  0  0  0  0
   -3.4159   -1.0637    2.5334 N   0  0  0  0  0  0  0  0  0  0  0  0
   -3.7229   -0.1070    3.4738 C   0  0  0  0  0  0  0  0  0  0  0  0
   -4.7302   -0.1583    4.1776 O   0  0  0  0  0  0  0  0  0  0  0  0
   -2.6707    0.9913    3.6636 C   0  0  0  0  0  0  0  0  0  0  0  0
   -1.8394    1.2311    2.4743 N   0  0  0  0  0  0  0  0  0  0  0  0
   -2.3763    1.9588    1.4257 C   0  0  0  0  0  0  0  0  0  0  0  0
   -1.6655    2.2027    0.3211 C   0  0  0  0  0  0  0  0  0  0  0  0
   -0.3125    1.7214    0.2160 C   0  0  0  0  0  0  0  0  0  0  0  0
    0.2594    1.0089    1.2040 C   0  0  0  0  0  0  0  0  0  0  0  0
    1.6038    0.5511    1.0714 C   0  0  0  0  0  0  0  0  0  0  0  0
    2.3861    0.7127    0.0116 N   0  0  0  0  0  0  0  0  0  0  0  0
    3.5723    0.1099    0.3634 C   0  0  0  0  0  0  0  0  0  0  0  0
    4.7211    0.0623   -0.5354 C   0  0  0  0  0  0  0  0  0  0  0  0
    4.6383    0.6282   -1.8130 C   0  0  0  0  0  0  0  0  0  0  0  0
    5.7307    0.5887   -2.6851 C   0  0  0  0  0  0  0  0  0  0  0  0
    6.9264   -0.0189   -2.2922 C   0  0  0  0  0  0  0  0  0  0  0  0
    8.0478   -0.1048   -3.0790 O   0  0  0  0  0  0  0  0  0  0  0  0
    7.9812    0.4456   -4.3861 C   0  0  0  0  0  0  0  0  0  0  0  0
    7.0242   -0.5912   -1.0079 C   0  0  0  0  0  0  0  0  0  0  0  0
    8.2316   -1.1677   -0.6971 O   0  0  0  0  0  0  0  0  0  0  0  0
    8.3767   -1.7458    0.5924 C   0  0  0  0  0  0  0  0  0  0  0  0
    5.9233   -0.5467   -0.1420 C   0  0  0  0  0  0  0  0  0  0  0  0
    3.5568   -0.4168    1.5925 N   0  0  0  0  0  0  0  0  0  0  0  0
    2.2818   -0.1348    2.0598 O   0  0  0  0  0  0  0  0  0  0  0  0
   -0.5438    0.7009    2.4353 C   0  0  0  0  0  0  0  0  0  0  0  0
   -0.0910    0.0018    3.3375 O   0  0  0  0  0  0  0  0  0  0  0  0
   -4.6070   -1.8882   -0.3999 C   0  0  0  0  0  0  0  0  0  0  0  0
   -5.2654   -1.4110   -1.5360 C   0  0  0  0  0  0  0  0  0  0  0  0
   -8.9625   -0.0601   -2.0633 H   0  0  0  0  0  0  0  0  0  0  0  0
   -8.4844    0.7312   -3.5702 H   0  0  0  0  0  0  0  0  0  0  0  0
   -8.0131    1.4774   -2.0385 H   0  0  0  0  0  0  0  0  0  0  0  0
   -7.7871    0.2938   -0.0077 H   0  0  0  0  0  0  0  0  0  0  0  0
   -6.6300   -0.5331    1.9757 H   0  0  0  0  0  0  0  0  0  0  0  0
   -5.0831   -2.2801    2.9149 H   0  0  0  0  0  0  0  0  0  0  0  0
   -3.8176   -2.9807    1.9015 H   0  0  0  0  0  0  0  0  0  0  0  0
   -2.6304   -0.8830    1.9238 H   0  0  0  0  0  0  0  0  0  0  0  0
   -3.1867    1.9258    3.9141 H   0  0  0  0  0  0  0  0  0  0  0  0
   -2.0466    0.7100    4.5182 H   0  0  0  0  0  0  0  0  0  0  0  0
   -3.3980    2.3165    1.5310 H   0  0  0  0  0  0  0  0  0  0  0  0
   -2.0857    2.7676   -0.5056 H   0  0  0  0  0  0  0  0  0  0  0  0
    0.2276    1.9664   -0.6957 H   0  0  0  0  0  0  0  0  0  0  0  0
    3.7185    1.1074   -2.1437 H   0  0  0  0  0  0  0  0  0  0  0  0
    5.6135    1.0423   -3.6634 H   0  0  0  0  0  0  0  0  0  0  0  0
    8.9497    0.2815   -4.8682 H   0  0  0  0  0  0  0  0  0  0  0  0
    7.2203   -0.0598   -4.9897 H   0  0  0  0  0  0  0  0  0  0  0  0
    7.8067    1.5259   -4.3513 H   0  0  0  0  0  0  0  0  0  0  0  0
    9.3918   -2.1480    0.6658 H   0  0  0  0  0  0  0  0  0  0  0  0
    7.6792   -2.5781    0.7330 H   0  0  0  0  0  0  0  0  0  0  0  0
    8.2605   -0.9928    1.3786 H   0  0  0  0  0  0  0  0  0  0  0  0
    5.9818   -0.9838    0.8503 H   0  0  0  0  0  0  0  0  0  0  0  0
   -3.7122   -2.4942   -0.5215 H   0  0  0  0  0  0  0  0  0  0  0  0
   -4.8803   -1.6538   -2.5237 H   0  0  0  0  0  0  0  0  0  0  0  0
  1  2  1  0
  2  3  1  0
  3  4  2  0
  4  5  1  0
  5  6  2  0
  6  7  1  0
  7  8  1  0
  8  9  1  0
  9 10  2  0
  9 11  1  0
 11 12  1  0
 12 13  1  0
 13 14  2  0
 14 15  1  0
 15 16  2  0
 16 17  1  0
 17 18  2  0
 18 19  1  0
 19 20  1  0
 20 21  2  0
 21 22  1  0
 22 23  2  0
 23 24  1  0
 24 25  1  0
 23 26  1  0
 26 27  1  0
 27 28  1  0
 26 29  2  0
 19 30  2  0
 30 31  1  0
 16 32  1  0
 32 33  2  0
  6 34  1  0
 34 35  2  0
 35  3  1  0
 32 12  1  0
 31 17  1  0
 29 20  1  0
  1 36  1  0
  1 37  1  0
  1 38  1  0
  4 39  1  0
  5 40  1  0
  7 41  1  0
  7 42  1  0
  8 43  1  0
 11 44  1  0
 11 45  1  0
 13 46  1  0
 14 47  1  0
 15 48  1  0
 21 49  1  0
 22 50  1  0
 25 51  1  0
 25 52  1  0
 25 53  1  0
 28 54  1  0
 28 55  1  0
 28 56  1  0
 29 57  1  0
 34 58  1  0
 35 59  1  0
M  END
$$$$
