
     RDKit          3D

 46 48  0  0  0  0  0  0  0  0999 V2000
   -2.3451    1.3979    4.9954 C   0  0  0  0  0  0  0  0  0  0  0  0
   -2.8250    0.9847    3.7242 O   0  0  0  0  0  0  0  0  0  0  0  0
   -2.1095    1.3689    2.6169 C   0  0  0  0  0  0  0  0  0  0  0  0
   -0.9158    2.0965    2.6613 C   0  0  0  0  0  0  0  0  0  0  0  0
   -0.2503    2.4389    1.4811 C   0  0  0  0  0  0  0  0  0  0  0  0
   -0.7603    2.0532    0.2366 C   0  0  0  0  0  0  0  0  0  0  0  0
   -0.0353    2.4440   -1.0362 C   0  0  0  0  0  0  0  0  0  0  0  0
    0.1110    1.3393   -2.0670 C   0  0  0  0  0  0  0  0  0  0  0  0
   -0.6493    1.5033   -3.1855 N   0  0  0  0  0  0  0  0  0  0  0  0
   -0.5700    0.5601   -4.1414 C   0  0  0  0  0  0  0  0  0  0  0  0
    0.2331   -0.5597   -4.0480 C   0  0  0  0  0  0  0  0  0  0  0  0
    1.0119   -0.7407   -2.9016 C   0  0  0  0  0  0  0  0  0  0  0  0
    1.8410   -1.8725   -2.7758 C   0  0  0  0  0  0  0  0  0  0  0  0
    2.6172   -2.0789   -1.6324 C   0  0  0  0  0  0  0  0  0  0  0  0
    3.4372   -3.1575   -1.4247 O   0  0  0  0  0  0  0  0  0  0  0  0
    3.6405   -4.0481   -2.5124 C   0  0  0  0  0  0  0  0  0  0  0  0
    2.5499   -1.1436   -0.5932 C   0  0  0  0  0  0  0  0  0  0  0  0
    3.3262   -1.3585    0.5199 O   0  0  0  0  0  0  0  0  0  0  0  0
    2.6127   -1.1992    1.7436 C   0  0  0  0  0  0  0  0  0  0  0  0
    1.7592    0.0033   -0.7239 C   0  0  0  0  0  0  0  0  0  0  0  0
    0.9625    0.2231   -1.8706 C   0  0  0  0  0  0  0  0  0  0  0  0
   -1.9720    1.3438    0.1933 C   0  0  0  0  0  0  0  0  0  0  0  0
   -2.6423    0.9876    1.3707 C   0  0  0  0  0  0  0  0  0  0  0  0
   -3.8180    0.2796    1.4090 O   0  0  0  0  0  0  0  0  0  0  0  0
   -4.3424   -0.1885    0.1748 C   0  0  0  0  0  0  0  0  0  0  0  0
   -1.3644    0.9598    5.2069 H   0  0  0  0  0  0  0  0  0  0  0  0
   -2.3181    2.4902    5.0728 H   0  0  0  0  0  0  0  0  0  0  0  0
   -3.0432    1.0291    5.7530 H   0  0  0  0  0  0  0  0  0  0  0  0
   -0.4751    2.4126    3.6003 H   0  0  0  0  0  0  0  0  0  0  0  0
    0.6734    3.0104    1.5454 H   0  0  0  0  0  0  0  0  0  0  0  0
    0.9653    2.8331   -0.8083 H   0  0  0  0  0  0  0  0  0  0  0  0
   -0.5835    3.2852   -1.4815 H   0  0  0  0  0  0  0  0  0  0  0  0
   -1.1897    0.7331   -5.0168 H   0  0  0  0  0  0  0  0  0  0  0  0
    0.2447   -1.2770   -4.8621 H   0  0  0  0  0  0  0  0  0  0  0  0
    1.8581   -2.5922   -3.5883 H   0  0  0  0  0  0  0  0  0  0  0  0
    4.3674   -4.8026   -2.1965 H   0  0  0  0  0  0  0  0  0  0  0  0
    2.7143   -4.5696   -2.7723 H   0  0  0  0  0  0  0  0  0  0  0  0
    4.0581   -3.5262   -3.3790 H   0  0  0  0  0  0  0  0  0  0  0  0
    1.6105   -1.6378    1.6942 H   0  0  0  0  0  0  0  0  0  0  0  0
    3.1720   -1.7232    2.5251 H   0  0  0  0  0  0  0  0  0  0  0  0
    2.5588   -0.1414    2.0209 H   0  0  0  0  0  0  0  0  0  0  0  0
    1.7735    0.7364    0.0748 H   0  0  0  0  0  0  0  0  0  0  0  0
   -2.3760    1.0797   -0.7800 H   0  0  0  0  0  0  0  0  0  0  0  0
   -5.2457   -0.7655    0.3936 H   0  0  0  0  0  0  0  0  0  0  0  0
   -4.6314    0.6456   -0.4722 H   0  0  0  0  0  0  0  0  0  0  0  0
   -3.6362   -0.8566   -0.3302 H   0  0  0  0  0  0  0  0  0  0  0  0
  1  2  1  0
  2  3  1  0
  3  4  2  0
  4  5  1  0
  5  6  2  0
  6  7  1  0
  7  8  1  0
  8  9  2  0
  9 10  1  0
 10 11  2  0
 11 12  1  0
 12 13  2  0
 13 14  1  0
 14 15  1  0
 15 16  1  0
 14 17  2  0
 17 18  1  0
 18 19  1  0
 17 20  1  0
 20 21  2  0
  6 22  1  0
 22 23  2  0
 23 24  1  0
 24 25  1  0
 23  3  1  0
 21  8  1  0
 21 12  1  0
  1 26  1  0
  1 27  1  0
  1 28  1  0
  4 29  1  0
  5 30  1  0
  7 31  1  0
  7 32  1  0
 10 33  1  0
 11 34  1  0
 13 35  1  0
 16 36  1  0
 16 37  1  0
 16 38  1  0
 19 39  1  0
 19 40  1  0
 19 41  1  0
 20 42  1  0
 22 43  1  0
 25 44  1  0
 25 45  1  0
 25 46  1  0
M  END
$$$$
