
     RDKit          3D

 82 83  0  0  0  0  0  0  0  0999 V2000
    1.3857   -3.7013   -0.1254 C   0  0  0  0  0  0  0  0  0  0  0  0
    0.5184   -2.6977    0.6401 C   0  0  0  0  0  0  0  0  0  0  0  0
   -0.4203   -3.4190    1.6122 C   0  0  0  0  0  0  0  0  0  0  0  0
   -0.2271   -1.6288   -0.2173 C   0  0  1  0  0  0  0  0  0  0  0  0
    0.7234   -0.8071   -1.1334 C   0  0  0  0  0  0  0  0  0  0  0  0
    0.7302   -0.9632   -2.3584 O   0  0  0  0  0  0  0  0  0  0  0  0
    1.5582    0.1552   -0.6439 N   0  0  0  0  0  0  0  0  0  0  0  0
    1.8570    0.5704    0.7266 C   0  0  1  0  0  0  0  0  0  0  0  0
    3.2180    1.2835    0.8195 C   0  0  0  0  0  0  0  0  0  0  0  0
    4.4105    0.3333    0.9915 C   0  0  0  0  0  0  0  0  0  0  0  0
    4.6638   -0.5808   -0.2083 C   0  0  0  0  0  0  0  0  0  0  0  0
    5.8852   -1.3409   -0.0150 N   0  0  0  0  0  0  0  0  0  0  0  0
    7.1316   -0.8285   -0.1119 C   0  0  0  0  0  0  0  0  0  0  0  0
    7.5079    0.2698   -0.6479 N   0  0  0  0  0  0  0  0  0  0  0  0
    8.0485   -1.6412    0.4453 N   0  0  0  0  0  0  0  0  0  0  0  0
    0.7434    1.4201    1.3798 C   0  0  0  0  0  0  0  0  0  0  0  0
    0.1730    1.0085    2.3951 O   0  0  0  0  0  0  0  0  0  0  0  0
    0.3577    2.6283    0.8897 N   0  0  0  0  0  0  0  0  0  0  0  0
    0.9929    3.4369   -0.1348 C   0  0  0  0  0  0  0  0  0  0  0  0
    0.1350    4.5781   -0.6982 C   0  0  0  0  0  0  0  0  0  0  0  0
    0.6488    5.6663   -0.9677 O   0  0  0  0  0  0  0  0  0  0  0  0
   -1.1718    4.3850   -1.0411 N   0  0  0  0  0  0  0  0  0  0  0  0
   -2.0013    3.1713   -0.9566 C   0  0  1  0  0  0  0  0  0  0  0  0
   -3.4481    3.4789   -1.3366 C   0  0  0  0  0  0  0  0  0  0  0  0
   -3.6129    3.6686   -2.8153 C   0  0  0  0  0  0  0  0  0  0  0  0
   -4.1773    2.8990   -3.5730 O   0  0  0  0  0  0  0  0  0  0  0  0
   -3.0714    4.8187   -3.2546 O   0  0  0  0  0  0  0  0  0  0  0  0
   -1.4103    2.0575   -1.8360 C   0  0  0  0  0  0  0  0  0  0  0  0
   -0.6005    2.3138   -2.7310 O   0  0  0  0  0  0  0  0  0  0  0  0
   -1.7127    0.7518   -1.6274 N   0  0  0  0  0  0  0  0  0  0  0  0
   -2.7767    0.0525   -0.8781 C   0  0  2  0  0  0  0  0  0  0  0  0
   -2.9045    0.4005    0.6129 C   0  0  0  0  0  0  0  0  0  0  0  0
   -3.7013   -0.5337    1.4909 C   0  0  0  0  0  0  0  0  0  0  0  0
   -4.9594   -1.0150    1.1053 C   0  0  0  0  0  0  0  0  0  0  0  0
   -5.6887   -1.8522    1.9515 C   0  0  0  0  0  0  0  0  0  0  0  0
   -5.1782   -2.2038    3.1993 C   0  0  0  0  0  0  0  0  0  0  0  0
   -3.9404   -1.7119    3.6057 C   0  0  0  0  0  0  0  0  0  0  0  0
   -3.2091   -0.8768    2.7597 C   0  0  0  0  0  0  0  0  0  0  0  0
   -2.6192   -1.4612   -1.1888 C   0  0  0  0  0  0  0  0  0  0  0  0
   -3.6043   -2.0573   -1.6452 O   0  0  0  0  0  0  0  0  0  0  0  0
   -1.4014   -2.1236   -1.0081 N   0  0  0  0  0  0  0  0  0  0  0  0
   -1.2508   -3.3522   -1.7825 C   0  0  0  0  0  0  0  0  0  0  0  0
    1.9796   -3.2160   -0.9053 H   0  0  0  0  0  0  0  0  0  0  0  0
    2.0890   -4.1827    0.5641 H   0  0  0  0  0  0  0  0  0  0  0  0
    0.8030   -4.5065   -0.5787 H   0  0  0  0  0  0  0  0  0  0  0  0
    1.2264   -2.1629    1.2771 H   0  0  0  0  0  0  0  0  0  0  0  0
    0.1447   -4.0961    2.2625 H   0  0  0  0  0  0  0  0  0  0  0  0
   -0.9324   -2.6982    2.2552 H   0  0  0  0  0  0  0  0  0  0  0  0
   -1.1786   -4.0138    1.0973 H   0  0  0  0  0  0  0  0  0  0  0  0
   -0.6330   -0.9134    0.4937 H   0  0  0  0  0  0  0  0  0  0  0  0
    1.9976    0.6644   -1.4053 H   0  0  0  0  0  0  0  0  0  0  0  0
    1.9152   -0.3306    1.3382 H   0  0  0  0  0  0  0  0  0  0  0  0
    3.3926    1.9144   -0.0599 H   0  0  0  0  0  0  0  0  0  0  0  0
    3.2171    1.9542    1.6883 H   0  0  0  0  0  0  0  0  0  0  0  0
    5.3002    0.9478    1.1781 H   0  0  0  0  0  0  0  0  0  0  0  0
    4.2707   -0.2753    1.8938 H   0  0  0  0  0  0  0  0  0  0  0  0
    3.8417   -1.2951   -0.3152 H   0  0  0  0  0  0  0  0  0  0  0  0
    4.7103   -0.0060   -1.1395 H   0  0  0  0  0  0  0  0  0  0  0  0
    5.8169   -2.0191    0.7371 H   0  0  0  0  0  0  0  0  0  0  0  0
    6.7037    0.7547   -1.0453 H   0  0  0  0  0  0  0  0  0  0  0  0
    8.9744   -1.2732    0.2420 H   0  0  0  0  0  0  0  0  0  0  0  0
    7.9797   -2.5935    0.1068 H   0  0  0  0  0  0  0  0  0  0  0  0
   -0.2662    3.1170    1.5230 H   0  0  0  0  0  0  0  0  0  0  0  0
    1.3240    2.8085   -0.9637 H   0  0  0  0  0  0  0  0  0  0  0  0
    1.8788    3.8849    0.3287 H   0  0  0  0  0  0  0  0  0  0  0  0
   -1.5269    5.1485   -1.6130 H   0  0  0  0  0  0  0  0  0  0  0  0
   -1.9675    2.8647    0.0875 H   0  0  0  0  0  0  0  0  0  0  0  0
   -3.8195    4.3739   -0.8239 H   0  0  0  0  0  0  0  0  0  0  0  0
   -4.1135    2.6599   -1.0466 H   0  0  0  0  0  0  0  0  0  0  0  0
   -3.2074    4.7982   -4.2274 H   0  0  0  0  0  0  0  0  0  0  0  0
   -1.2788    0.1896   -2.3633 H   0  0  0  0  0  0  0  0  0  0  0  0
   -3.7067    0.3604   -1.3739 H   0  0  0  0  0  0  0  0  0  0  0  0
   -3.3957    1.3750    0.7109 H   0  0  0  0  0  0  0  0  0  0  0  0
   -1.9149    0.5505    1.0441 H   0  0  0  0  0  0  0  0  0  0  0  0
   -5.3871   -0.7582    0.1383 H   0  0  0  0  0  0  0  0  0  0  0  0
   -6.6564   -2.2334    1.6330 H   0  0  0  0  0  0  0  0  0  0  0  0
   -5.7475   -2.8565    3.8551 H   0  0  0  0  0  0  0  0  0  0  0  0
   -3.5446   -1.9768    4.5831 H   0  0  0  0  0  0  0  0  0  0  0  0
   -2.2481   -0.4950    3.1023 H   0  0  0  0  0  0  0  0  0  0  0  0
   -2.0021   -3.4337   -2.5743 H   0  0  0  0  0  0  0  0  0  0  0  0
   -0.2739   -3.3689   -2.2715 H   0  0  0  0  0  0  0  0  0  0  0  0
   -1.3664   -4.2134   -1.1217 H   0  0  0  0  0  0  0  0  0  0  0  0
  1  2  1  0
  2  3  1  0
  2  4  1  0
  4  5  1  0
  5  6  2  0
  5  7  1  0
  7  8  1  0
  8  9  1  0
  9 10  1  0
 10 11  1  0
 11 12  1  0
 12 13  1  0
 13 14  2  3
 13 15  1  0
  8 16  1  0
 16 17  2  0
 16 18  1  0
 18 19  1  0
 19 20  1  0
 20 21  2  0
 20 22  1  0
 22 23  1  0
 23 24  1  0
 24 25  1  0
 25 26  2  0
 25 27  1  0
 23 28  1  0
 28 29  2  0
 28 30  1  0
 30 31  1  0
 31 32  1  0
 32 33  1  0
 33 34  2  0
 34 35  1  0
 35 36  2  0
 36 37  1  0
 37 38  2  0
 31 39  1  0
 39 40  2  0
 39 41  1  0
 41 42  1  0
 41  4  1  0
 38 33  1  0
  1 43  1  0
  1 44  1  0
  1 45  1  0
  2 46  1  0
  3 47  1  0
  3 48  1  0
  3 49  1  0
  4 50  1  1
  7 51  1  0
  8 52  1  1
  9 53  1  0
  9 54  1  0
 10 55  1  0
 10 56  1  0
 11 57  1  0
 11 58  1  0
 12 59  1  0
 14 60  1  0
 15 61  1  0
 15 62  1  0
 18 63  1  0
 19 64  1  0
 19 65  1  0
 22 66  1  0
 23 67  1  1
 24 68  1  0
 24 69  1  0
 27 70  1  0
 30 71  1  0
 31 72  1  6
 32 73  1  0
 32 74  1  0
 34 75  1  0
 35 76  1  0
 36 77  1  0
 37 78  1  0
 38 79  1  0
 42 80  1  0
 42 81  1  0
 42 82  1  0
M  END
$$$$
