
     RDKit          3D

 36 39  0  0  0  0  0  0  0  0999 V2000
    2.2809    0.5630    2.4182 C   0  0  0  0  0  0  0  0  0  0  0  0
    2.5737    0.0834    1.0286 C   0  0  0  0  0  0  0  0  0  0  0  0
    3.8718    0.1143    0.5327 C   0  0  0  0  0  0  0  0  0  0  0  0
    4.1023   -0.3340   -0.7630 C   0  0  0  0  0  0  0  0  0  0  0  0
    3.0331   -0.7959   -1.5253 C   0  0  0  0  0  0  0  0  0  0  0  0
    1.7588   -0.7975   -0.9658 C   0  0  0  0  0  0  0  0  0  0  0  0
    0.5905   -1.2671   -1.7311 C   0  0  0  0  0  0  0  0  0  0  0  0
    0.7098   -1.7656   -2.9809 N   0  0  0  0  0  0  0  0  0  0  0  0
   -0.5402   -2.0893   -3.3412 N   0  0  0  0  0  0  0  0  0  0  0  0
   -1.4746   -1.8222   -2.3916 C   0  0  0  0  0  0  0  0  0  0  0  0
   -0.7846   -1.2802   -1.3303 C   0  0  0  0  0  0  0  0  0  0  0  0
   -1.4386   -0.8543   -0.1058 C   0  0  0  0  0  0  0  0  0  0  0  0
   -1.7136   -1.8244    0.8576 C   0  0  0  0  0  0  0  0  0  0  0  0
   -2.3310   -1.4236    2.0226 C   0  0  0  0  0  0  0  0  0  0  0  0
   -2.6910   -0.1505    2.2836 N   0  0  0  0  0  0  0  0  0  0  0  0
   -2.4193    0.7876    1.3595 C   0  0  0  0  0  0  0  0  0  0  0  0
   -2.7817    2.1001    1.6330 C   0  0  0  0  0  0  0  0  0  0  0  0
   -2.5397    3.1399    0.7322 C   0  0  0  0  0  0  0  0  0  0  0  0
   -1.9185    2.8689   -0.4779 C   0  0  0  0  0  0  0  0  0  0  0  0
   -1.5456    1.5602   -0.7788 C   0  0  0  0  0  0  0  0  0  0  0  0
   -1.7883    0.4985    0.1297 C   0  0  0  0  0  0  0  0  0  0  0  0
    1.5275   -0.3679    0.3001 N   0  0  0  0  0  0  0  0  0  0  0  0
    1.2139    0.4697    2.6460 H   0  0  0  0  0  0  0  0  0  0  0  0
    2.8387   -0.0310    3.1487 H   0  0  0  0  0  0  0  0  0  0  0  0
    2.5602    1.6161    2.5212 H   0  0  0  0  0  0  0  0  0  0  0  0
    4.6917    0.4813    1.1414 H   0  0  0  0  0  0  0  0  0  0  0  0
    5.1053   -0.3227   -1.1792 H   0  0  0  0  0  0  0  0  0  0  0  0
    3.1949   -1.1464   -2.5397 H   0  0  0  0  0  0  0  0  0  0  0  0
   -0.6835   -2.4922   -4.2614 H   0  0  0  0  0  0  0  0  0  0  0  0
   -2.5236   -2.0292   -2.5492 H   0  0  0  0  0  0  0  0  0  0  0  0
   -1.4419   -2.8635    0.7101 H   0  0  0  0  0  0  0  0  0  0  0  0
   -2.5615   -2.1384    2.8072 H   0  0  0  0  0  0  0  0  0  0  0  0
   -3.2676    2.3200    2.5810 H   0  0  0  0  0  0  0  0  0  0  0  0
   -2.8354    4.1548    0.9829 H   0  0  0  0  0  0  0  0  0  0  0  0
   -1.7197    3.6693   -1.1854 H   0  0  0  0  0  0  0  0  0  0  0  0
   -1.0532    1.3691   -1.7297 H   0  0  0  0  0  0  0  0  0  0  0  0
  1  2  1  0
  2  3  2  0
  3  4  1  0
  4  5  2  0
  5  6  1  0
  6  7  1  0
  7  8  2  0
  8  9  1  0
  9 10  1  0
 10 11  2  0
 11 12  1  0
 12 13  2  0
 13 14  1  0
 14 15  2  0
 15 16  1  0
 16 17  2  0
 17 18  1  0
 18 19  2  0
 19 20  1  0
 20 21  2  0
  6 22  2  0
 22  2  1  0
 11  7  1  0
 21 12  1  0
 21 16  1  0
  1 23  1  0
  1 24  1  0
  1 25  1  0
  3 26  1  0
  4 27  1  0
  5 28  1  0
  9 29  1  0
 10 30  1  0
 13 31  1  0
 14 32  1  0
 17 33  1  0
 18 34  1  0
 19 35  1  0
 20 36  1  0
M  END
$$$$
