
     RDKit          3D

123124  0  0  0  0  0  0  0  0999 V2000
  -10.4985    4.7173   -0.3002 C   0  0  0  0  0  0  0  0  0  0  0  0
   -9.3823    4.3382   -1.2643 C   0  0  0  0  0  0  0  0  0  0  0  0
   -8.6953    3.0824   -0.9129 N   0  0  0  0  0  0  0  0  0  0  0  0
   -9.5806    1.9069   -0.9118 C   0  0  0  0  0  0  0  0  0  0  0  0
  -10.1922    1.5126   -2.2563 C   0  0  0  0  0  0  0  0  0  0  0  0
   -7.4794    2.9286   -1.7365 C   0  0  0  0  0  0  0  0  0  0  0  0
   -6.4421    1.9546   -1.1465 C   0  0  0  0  0  0  0  0  0  0  0  0
   -6.5042    0.5367   -1.7251 C   0  0  0  0  0  0  0  0  0  0  0  0
   -5.2861   -0.3212   -1.3486 C   0  0  0  0  0  0  0  0  0  0  0  0
   -5.0620   -0.5537    0.1550 C   0  0  2  0  0  0  0  0  0  0  0  0
   -3.6838   -0.9847    0.3919 N   0  0  0  0  0  0  0  0  0  0  0  0
   -2.6279   -0.1110    0.4352 C   0  0  0  0  0  0  0  0  0  0  0  0
   -2.7670    1.1079    0.3298 O   0  0  0  0  0  0  0  0  0  0  0  0
   -1.2470   -0.7650    0.6336 C   0  0  2  0  0  0  0  0  0  0  0  0
   -0.9345   -1.0089    2.1187 C   0  0  0  0  0  0  0  0  0  0  0  0
   -1.7553   -2.1151    2.8109 C   0  0  0  0  0  0  0  0  0  0  0  0
   -1.5260   -3.4933    2.1885 C   0  0  0  0  0  0  0  0  0  0  0  0
   -1.3999   -2.1658    4.3007 C   0  0  0  0  0  0  0  0  0  0  0  0
   -0.2732    0.1631    0.0619 N   0  0  0  0  0  0  0  0  0  0  0  0
    0.9305   -0.2589   -0.4431 C   0  0  0  0  0  0  0  0  0  0  0  0
    1.2599   -1.4460   -0.4751 O   0  0  0  0  0  0  0  0  0  0  0  0
    1.8252    0.8593   -1.0138 C   0  0  2  0  0  0  0  0  0  0  0  0
    1.2202    1.4259   -2.2932 C   0  0  0  0  0  0  0  0  0  0  0  0
    3.1304    0.2657   -1.2898 N   0  0  0  0  0  0  0  0  0  0  0  0
    4.1683    0.3834   -0.3927 C   0  0  0  0  0  0  0  0  0  0  0  0
    4.1575    1.1690    0.5535 O   0  0  0  0  0  0  0  0  0  0  0  0
    5.3319   -0.5925   -0.6381 C   0  0  2  0  0  0  0  0  0  0  0  0
    5.0815   -1.8570    0.2002 C   0  0  0  0  0  0  0  0  0  0  0  0
    6.1569   -2.9090    0.0555 C   0  0  0  0  0  0  0  0  0  0  0  0
    7.0027   -3.2109    1.1315 C   0  0  0  0  0  0  0  0  0  0  0  0
    7.9975   -4.1791    0.9990 C   0  0  0  0  0  0  0  0  0  0  0  0
    8.1575   -4.8543   -0.2076 C   0  0  0  0  0  0  0  0  0  0  0  0
    7.3250   -4.5588   -1.2830 C   0  0  0  0  0  0  0  0  0  0  0  0
    6.3277   -3.5932   -1.1537 C   0  0  0  0  0  0  0  0  0  0  0  0
    6.5609    0.0913   -0.2450 N   0  0  0  0  0  0  0  0  0  0  0  0
    7.5424    0.3894   -1.1615 C   0  0  0  0  0  0  0  0  0  0  0  0
    7.5045    0.0252   -2.3338 O   0  0  0  0  0  0  0  0  0  0  0  0
    8.7064    1.1719   -0.6670 C   0  0  0  0  0  0  0  0  0  0  0  0
    8.6095    2.0870    0.3837 C   0  0  0  0  0  0  0  0  0  0  0  0
    9.7424    2.7927    0.8147 C   0  0  0  0  0  0  0  0  0  0  0  0
   10.9951    2.6143    0.2038 C   0  0  0  0  0  0  0  0  0  0  0  0
   12.2574    3.3739    0.6526 C   0  0  0  0  0  0  0  0  0  0  0  0
   12.7563    4.2672   -0.5056 C   0  0  0  0  0  0  0  0  0  0  0  0
   13.3679    2.3692    1.0315 C   0  0  0  0  0  0  0  0  0  0  0  0
   12.0373    4.2877    1.8827 C   0  0  0  0  0  0  0  0  0  0  0  0
   11.0634    1.7055   -0.8715 C   0  0  0  0  0  0  0  0  0  0  0  0
    9.9373    0.9946   -1.3018 C   0  0  0  0  0  0  0  0  0  0  0  0
   -5.9607   -1.6816    0.7003 C   0  0  0  0  0  0  0  0  0  0  0  0
   -5.5226   -2.8039    0.9599 O   0  0  0  0  0  0  0  0  0  0  0  0
   -7.2895   -1.3744    0.8556 N   0  0  0  0  0  0  0  0  0  0  0  0
   -8.2581   -2.3921    1.2701 C   0  0  1  0  0  0  0  0  0  0  0  0
   -9.5923   -1.7544    1.6684 C   0  0  0  0  0  0  0  0  0  0  0  0
   -9.4008   -0.6986    2.6133 O   0  0  0  0  0  0  0  0  0  0  0  0
   -8.5267   -3.3636    0.1162 C   0  0  0  0  0  0  0  0  0  0  0  0
   -8.4640   -3.0755   -1.0756 O   0  0  0  0  0  0  0  0  0  0  0  0
   -8.8908   -4.5845    0.6032 O   0  0  0  0  0  0  0  0  0  0  0  0
   -9.1120   -5.5752   -0.4061 C   0  0  0  0  0  0  0  0  0  0  0  0
  -10.8613    5.7264   -0.5280 H   0  0  0  0  0  0  0  0  0  0  0  0
  -11.3520    4.0367   -0.3676 H   0  0  0  0  0  0  0  0  0  0  0  0
  -10.1365    4.7185    0.7322 H   0  0  0  0  0  0  0  0  0  0  0  0
   -8.6548    5.1599   -1.2282 H   0  0  0  0  0  0  0  0  0  0  0  0
   -9.7678    4.3093   -2.2909 H   0  0  0  0  0  0  0  0  0  0  0  0
  -10.3916    2.0632   -0.1906 H   0  0  0  0  0  0  0  0  0  0  0  0
   -9.0362    1.0507   -0.5028 H   0  0  0  0  0  0  0  0  0  0  0  0
  -10.8454    0.6398   -2.1233 H   0  0  0  0  0  0  0  0  0  0  0  0
  -10.7993    2.3230   -2.6755 H   0  0  0  0  0  0  0  0  0  0  0  0
   -9.4268    1.2405   -2.9896 H   0  0  0  0  0  0  0  0  0  0  0  0
   -6.9680    3.8984   -1.7768 H   0  0  0  0  0  0  0  0  0  0  0  0
   -7.7193    2.6765   -2.7750 H   0  0  0  0  0  0  0  0  0  0  0  0
   -6.5335    1.9315   -0.0554 H   0  0  0  0  0  0  0  0  0  0  0  0
   -5.4458    2.3633   -1.3595 H   0  0  0  0  0  0  0  0  0  0  0  0
   -6.5303    0.6109   -2.8171 H   0  0  0  0  0  0  0  0  0  0  0  0
   -7.4239    0.0189   -1.4400 H   0  0  0  0  0  0  0  0  0  0  0  0
   -4.3972    0.1513   -1.7880 H   0  0  0  0  0  0  0  0  0  0  0  0
   -5.3877   -1.2903   -1.8546 H   0  0  0  0  0  0  0  0  0  0  0  0
   -5.2300    0.3506    0.7456 H   0  0  0  0  0  0  0  0  0  0  0  0
   -3.5304   -1.9860    0.4621 H   0  0  0  0  0  0  0  0  0  0  0  0
   -1.1970   -1.6903    0.0497 H   0  0  0  0  0  0  0  0  0  0  0  0
   -1.0840   -0.0657    2.6658 H   0  0  0  0  0  0  0  0  0  0  0  0
    0.1311   -1.2561    2.2253 H   0  0  0  0  0  0  0  0  0  0  0  0
   -2.8211   -1.8746    2.7447 H   0  0  0  0  0  0  0  0  0  0  0  0
   -1.8375   -3.5175    1.1413 H   0  0  0  0  0  0  0  0  0  0  0  0
   -2.1079   -4.2571    2.7163 H   0  0  0  0  0  0  0  0  0  0  0  0
   -0.4691   -3.7834    2.2374 H   0  0  0  0  0  0  0  0  0  0  0  0
   -1.9944   -2.9257    4.8215 H   0  0  0  0  0  0  0  0  0  0  0  0
   -0.3425   -2.4095    4.4458 H   0  0  0  0  0  0  0  0  0  0  0  0
   -1.5912   -1.1997    4.7818 H   0  0  0  0  0  0  0  0  0  0  0  0
   -0.5213    1.1477    0.0709 H   0  0  0  0  0  0  0  0  0  0  0  0
    1.9210    1.6492   -0.2593 H   0  0  0  0  0  0  0  0  0  0  0  0
    1.8790    2.1862   -2.7324 H   0  0  0  0  0  0  0  0  0  0  0  0
    0.2486    1.8938   -2.1042 H   0  0  0  0  0  0  0  0  0  0  0  0
    1.0698    0.6394   -3.0441 H   0  0  0  0  0  0  0  0  0  0  0  0
    3.1043   -0.5894   -1.8387 H   0  0  0  0  0  0  0  0  0  0  0  0
    5.3696   -0.8380   -1.7070 H   0  0  0  0  0  0  0  0  0  0  0  0
    4.1237   -2.3124   -0.0832 H   0  0  0  0  0  0  0  0  0  0  0  0
    4.9787   -1.5856    1.2601 H   0  0  0  0  0  0  0  0  0  0  0  0
    6.8961   -2.6904    2.0795 H   0  0  0  0  0  0  0  0  0  0  0  0
    8.6467   -4.4113    1.8389 H   0  0  0  0  0  0  0  0  0  0  0  0
    8.9348   -5.6046   -0.3128 H   0  0  0  0  0  0  0  0  0  0  0  0
    7.4503   -5.0840   -2.2246 H   0  0  0  0  0  0  0  0  0  0  0  0
    5.6889   -3.3759   -2.0054 H   0  0  0  0  0  0  0  0  0  0  0  0
    6.5834    0.4804    0.6904 H   0  0  0  0  0  0  0  0  0  0  0  0
    7.6579    2.2938    0.8661 H   0  0  0  0  0  0  0  0  0  0  0  0
    9.6078    3.4932    1.6356 H   0  0  0  0  0  0  0  0  0  0  0  0
   13.0385    3.6802   -1.3894 H   0  0  0  0  0  0  0  0  0  0  0  0
   13.6398    4.8439   -0.2083 H   0  0  0  0  0  0  0  0  0  0  0  0
   11.9796    4.9769   -0.8195 H   0  0  0  0  0  0  0  0  0  0  0  0
   14.2691    2.8855    1.3810 H   0  0  0  0  0  0  0  0  0  0  0  0
   13.0358    1.6973    1.8308 H   0  0  0  0  0  0  0  0  0  0  0  0
   13.6705    1.7444    0.1852 H   0  0  0  0  0  0  0  0  0  0  0  0
   11.6951    3.7158    2.7539 H   0  0  0  0  0  0  0  0  0  0  0  0
   11.2997    5.0723    1.6820 H   0  0  0  0  0  0  0  0  0  0  0  0
   12.9677    4.7917    2.1725 H   0  0  0  0  0  0  0  0  0  0  0  0
   12.0012    1.5323   -1.3968 H   0  0  0  0  0  0  0  0  0  0  0  0
   10.0235    0.2990   -2.1346 H   0  0  0  0  0  0  0  0  0  0  0  0
   -7.6247   -0.4276    0.7099 H   0  0  0  0  0  0  0  0  0  0  0  0
   -7.8164   -2.9323    2.1144 H   0  0  0  0  0  0  0  0  0  0  0  0
  -10.2757   -2.4958    2.1004 H   0  0  0  0  0  0  0  0  0  0  0  0
  -10.0899   -1.3196    0.7928 H   0  0  0  0  0  0  0  0  0  0  0  0
   -8.9836   -1.0798    3.4094 H   0  0  0  0  0  0  0  0  0  0  0  0
   -8.1687   -5.8125   -0.9071 H   0  0  0  0  0  0  0  0  0  0  0  0
   -9.8660   -5.2372   -1.1274 H   0  0  0  0  0  0  0  0  0  0  0  0
   -9.4819   -6.4791    0.0819 H   0  0  0  0  0  0  0  0  0  0  0  0
  1  2  1  0
  2  3  1  0
  3  4  1  0
  4  5  1  0
  3  6  1  0
  6  7  1  0
  7  8  1  0
  8  9  1  0
  9 10  1  0
 10 11  1  0
 11 12  1  0
 12 13  2  0
 12 14  1  0
 14 15  1  0
 15 16  1  0
 16 17  1  0
 16 18  1  0
 14 19  1  0
 19 20  1  0
 20 21  2  0
 20 22  1  0
 22 23  1  0
 22 24  1  0
 24 25  1  0
 25 26  2  0
 25 27  1  0
 27 28  1  0
 28 29  1  0
 29 30  2  0
 30 31  1  0
 31 32  2  0
 32 33  1  0
 33 34  2  0
 27 35  1  0
 35 36  1  0
 36 37  2  0
 36 38  1  0
 38 39  2  0
 39 40  1  0
 40 41  2  0
 41 42  1  0
 42 43  1  0
 42 44  1  0
 42 45  1  0
 41 46  1  0
 46 47  2  0
 10 48  1  0
 48 49  2  0
 48 50  1  0
 50 51  1  0
 51 52  1  0
 52 53  1  0
 51 54  1  0
 54 55  2  0
 54 56  1  0
 56 57  1  0
 34 29  1  0
 47 38  1  0
  1 58  1  0
  1 59  1  0
  1 60  1  0
  2 61  1  0
  2 62  1  0
  4 63  1  0
  4 64  1  0
  5 65  1  0
  5 66  1  0
  5 67  1  0
  6 68  1  0
  6 69  1  0
  7 70  1  0
  7 71  1  0
  8 72  1  0
  8 73  1  0
  9 74  1  0
  9 75  1  0
 10 76  1  1
 11 77  1  0
 14 78  1  6
 15 79  1  0
 15 80  1  0
 16 81  1  0
 17 82  1  0
 17 83  1  0
 17 84  1  0
 18 85  1  0
 18 86  1  0
 18 87  1  0
 19 88  1  0
 22 89  1  1
 23 90  1  0
 23 91  1  0
 23 92  1  0
 24 93  1  0
 27 94  1  6
 28 95  1  0
 28 96  1  0
 30 97  1  0
 31 98  1  0
 32 99  1  0
 33100  1  0
 34101  1  0
 35102  1  0
 39103  1  0
 40104  1  0
 43105  1  0
 43106  1  0
 43107  1  0
 44108  1  0
 44109  1  0
 44110  1  0
 45111  1  0
 45112  1  0
 45113  1  0
 46114  1  0
 47115  1  0
 50116  1  0
 51117  1  1
 52118  1  0
 52119  1  0
 53120  1  0
 57121  1  0
 57122  1  0
 57123  1  0
M  END
$$$$
