
     RDKit          3D

 50 54  0  0  0  0  0  0  0  0999 V2000
    3.8287   -1.3600   -1.0396 O   0  0  0  0  0  0  0  0  0  0  0  0
    2.9622   -0.4921   -0.9578 C   0  0  0  0  0  0  0  0  0  0  0  0
    1.6605   -0.6174   -1.7530 C   0  0  0  0  0  0  0  0  0  0  0  0
    0.5882   -1.1244   -0.8937 N   0  0  0  0  0  0  0  0  0  0  0  0
   -0.1453   -0.1861   -0.1763 C   0  0  0  0  0  0  0  0  0  0  0  0
    0.1664    1.0088   -0.2133 O   0  0  0  0  0  0  0  0  0  0  0  0
   -1.1995   -0.6589    0.5896 N   0  0  0  0  0  0  0  0  0  0  0  0
   -2.0148    0.3195    1.3018 C   0  0  0  0  0  0  0  0  0  0  0  0
   -3.1471    0.8516    0.4468 C   0  0  0  0  0  0  0  0  0  0  0  0
   -4.3550    0.1255    0.3348 C   0  0  0  0  0  0  0  0  0  0  0  0
   -5.4127    0.6001   -0.4455 C   0  0  0  0  0  0  0  0  0  0  0  0
   -5.2391    1.7980   -1.0982 C   0  0  0  0  0  0  0  0  0  0  0  0
   -4.0668    2.5094   -1.0052 C   0  0  0  0  0  0  0  0  0  0  0  0
   -3.0027    2.0633   -0.2514 C   0  0  0  0  0  0  0  0  0  0  0  0
   -4.1062    3.6644   -1.7136 O   0  0  0  0  0  0  0  0  0  0  0  0
   -5.4446    3.6099   -2.2471 C   0  0  0  0  0  0  0  0  0  0  0  0
   -6.1612    2.4136   -1.8810 O   0  0  0  0  0  0  0  0  0  0  0  0
   -1.5263   -2.0044    0.7536 C   0  0  0  0  0  0  0  0  0  0  0  0
   -2.4673   -2.3876    1.4465 O   0  0  0  0  0  0  0  0  0  0  0  0
   -0.6629   -2.9881    0.0572 C   0  0  0  0  0  0  0  0  0  0  0  0
   -0.9501   -4.3050    0.2642 N   0  0  0  0  0  0  0  0  0  0  0  0
   -0.1533   -5.2069   -0.3393 C   0  0  0  0  0  0  0  0  0  0  0  0
    0.9171   -4.8526   -1.1391 C   0  0  0  0  0  0  0  0  0  0  0  0
    1.1834   -3.4944   -1.3388 C   0  0  0  0  0  0  0  0  0  0  0  0
    0.3774   -2.5201   -0.7375 C   0  0  0  0  0  0  0  0  0  0  0  0
    2.9825    0.6326   -0.1514 N   0  0  0  0  0  0  0  0  0  0  0  0
    3.9546    1.0003    0.7974 C   0  0  0  0  0  0  0  0  0  0  0  0
    3.6825    2.1336    1.5753 C   0  0  0  0  0  0  0  0  0  0  0  0
    4.5649    2.5431    2.5793 C   0  0  0  0  0  0  0  0  0  0  0  0
    5.7359    1.8236    2.8038 C   0  0  0  0  0  0  0  0  0  0  0  0
    6.0285    0.7098    2.0157 C   0  0  0  0  0  0  0  0  0  0  0  0
    5.1396    0.2981    1.0176 C   0  0  0  0  0  0  0  0  0  0  0  0
    1.3910    0.3702   -2.1496 H   0  0  0  0  0  0  0  0  0  0  0  0
    1.8087   -1.2501   -2.6325 H   0  0  0  0  0  0  0  0  0  0  0  0
   -2.4308   -0.1191    2.2223 H   0  0  0  0  0  0  0  0  0  0  0  0
   -1.3853    1.1584    1.6362 H   0  0  0  0  0  0  0  0  0  0  0  0
   -4.4754   -0.8180    0.8678 H   0  0  0  0  0  0  0  0  0  0  0  0
   -6.3408    0.0469   -0.5260 H   0  0  0  0  0  0  0  0  0  0  0  0
   -2.0893    2.6441   -0.1980 H   0  0  0  0  0  0  0  0  0  0  0  0
   -5.3897    3.6661   -3.3395 H   0  0  0  0  0  0  0  0  0  0  0  0
   -6.0025    4.4773   -1.8786 H   0  0  0  0  0  0  0  0  0  0  0  0
   -0.4008   -6.2510   -0.1512 H   0  0  0  0  0  0  0  0  0  0  0  0
    1.5423   -5.6147   -1.5943 H   0  0  0  0  0  0  0  0  0  0  0  0
    2.0459   -3.2413   -1.9478 H   0  0  0  0  0  0  0  0  0  0  0  0
    2.1370    1.2076   -0.1635 H   0  0  0  0  0  0  0  0  0  0  0  0
    2.7730    2.7084    1.4189 H   0  0  0  0  0  0  0  0  0  0  0  0
    4.3297    3.4090    3.1906 H   0  0  0  0  0  0  0  0  0  0  0  0
    6.4201    2.1312    3.5919 H   0  0  0  0  0  0  0  0  0  0  0  0
    6.9464    0.1456    2.1866 H   0  0  0  0  0  0  0  0  0  0  0  0
    5.4029   -0.5781    0.4327 H   0  0  0  0  0  0  0  0  0  0  0  0
  1  2  2  0
  2  3  1  0
  3  4  1  0
  4  5  1  0
  5  6  2  0
  5  7  1  0
  7  8  1  0
  8  9  1  0
  9 10  2  0
 10 11  1  0
 11 12  2  0
 12 13  1  0
 13 14  2  0
 13 15  1  0
 15 16  1  0
 16 17  1  0
  7 18  1  0
 18 19  2  0
 18 20  1  0
 20 21  2  0
 21 22  1  0
 22 23  2  0
 23 24  1  0
 24 25  2  0
  2 26  1  0
 26 27  1  0
 27 28  2  0
 28 29  1  0
 29 30  2  0
 30 31  1  0
 31 32  2  0
 25  4  1  0
 32 27  1  0
 14  9  1  0
 25 20  1  0
 17 12  1  0
  3 33  1  0
  3 34  1  0
  8 35  1  0
  8 36  1  0
 10 37  1  0
 11 38  1  0
 14 39  1  0
 16 40  1  0
 16 41  1  0
 22 42  1  0
 23 43  1  0
 24 44  1  0
 26 45  1  0
 28 46  1  0
 29 47  1  0
 30 48  1  0
 31 49  1  0
 32 50  1  0
M  END
$$$$
