
     RDKit          3D

 67 70  0  0  0  0  0  0  0  0999 V2000
   -4.6309    0.2841   -1.3569 C   0  0  0  0  0  0  0  0  0  0  0  0
   -4.1197   -0.6492   -0.2553 C   0  0  2  0  0  0  0  0  0  0  0  0
   -4.3582   -0.0501    1.1513 C   0  0  0  0  0  0  0  0  0  0  0  0
   -5.8359    0.1404    1.5155 C   0  0  0  0  0  0  0  0  0  0  0  0
   -6.3837    1.4874    1.1195 C   0  0  0  0  0  0  0  0  0  0  0  0
   -5.7551    2.4950    0.8476 O   0  0  0  0  0  0  0  0  0  0  0  0
   -7.7311    1.5072    1.1281 O   0  0  0  0  0  0  0  0  0  0  0  0
   -2.6614   -1.1722   -0.4123 C   0  0  1  0  0  0  0  0  0  0  0  0
   -2.4386   -2.0034   -1.7081 C   0  0  0  0  0  0  0  0  0  0  0  0
   -0.9428   -1.9061   -2.0430 C   0  0  0  0  0  0  0  0  0  0  0  0
   -0.3313   -1.2581   -0.8070 C   0  0  1  0  0  0  0  0  0  0  0  0
    1.0826   -0.6713   -0.9217 C   0  0  2  0  0  0  0  0  0  0  0  0
    2.0826   -1.7409   -1.3963 C   0  0  0  0  0  0  0  0  0  0  0  0
    3.4201   -1.7072   -0.6690 C   0  0  0  0  0  0  0  0  0  0  0  0
    3.9397   -0.2811   -0.4548 C   0  0  2  0  0  0  0  0  0  0  0  0
    5.3414   -0.3747    0.1833 C   0  0  0  0  0  0  0  0  0  0  0  0
    5.8210    0.9514    0.7502 C   0  0  2  0  0  0  0  0  0  0  0  0
    7.1276    0.7721    1.2926 O   0  0  0  0  0  0  0  0  0  0  0  0
    4.8833    1.4763    1.8362 C   0  0  0  0  0  0  0  0  0  0  0  0
    3.4770    0.8720    1.7819 C   0  0  0  0  0  0  0  0  0  0  0  0
    2.9340    0.6280    0.3473 C   0  0  1  0  0  0  0  0  0  0  0  0
    2.8372    1.9983   -0.3761 C   0  0  0  0  0  0  0  0  0  0  0  0
    1.5090   -0.0526    0.4408 C   0  0  1  0  0  0  0  0  0  0  0  0
    0.4108    0.8601    1.0483 C   0  0  0  0  0  0  0  0  0  0  0  0
   -0.9942    0.2342    1.0490 C   0  0  0  0  0  0  0  0  0  0  0  0
   -1.4110   -0.2409   -0.3533 C   0  0  2  0  0  0  0  0  0  0  0  0
   -1.5434    0.9722   -1.2982 C   0  0  0  0  0  0  0  0  0  0  0  0
   -5.7258    0.3201   -1.3447 H   0  0  0  0  0  0  0  0  0  0  0  0
   -4.3503   -0.0501   -2.3575 H   0  0  0  0  0  0  0  0  0  0  0  0
   -4.2781    1.3094   -1.2270 H   0  0  0  0  0  0  0  0  0  0  0  0
   -4.7468   -1.5512   -0.3206 H   0  0  0  0  0  0  0  0  0  0  0  0
   -3.8259    0.8999    1.2498 H   0  0  0  0  0  0  0  0  0  0  0  0
   -3.9288   -0.7365    1.8910 H   0  0  0  0  0  0  0  0  0  0  0  0
   -6.4455   -0.6468    1.0603 H   0  0  0  0  0  0  0  0  0  0  0  0
   -5.9458    0.0707    2.6039 H   0  0  0  0  0  0  0  0  0  0  0  0
   -7.9520    2.4304    0.8862 H   0  0  0  0  0  0  0  0  0  0  0  0
   -2.5400   -1.8945    0.4126 H   0  0  0  0  0  0  0  0  0  0  0  0
   -3.0232   -1.6522   -2.5615 H   0  0  0  0  0  0  0  0  0  0  0  0
   -2.7274   -3.0466   -1.5318 H   0  0  0  0  0  0  0  0  0  0  0  0
   -0.5204   -2.8946   -2.2490 H   0  0  0  0  0  0  0  0  0  0  0  0
   -0.7892   -1.2887   -2.9350 H   0  0  0  0  0  0  0  0  0  0  0  0
   -0.2702   -2.0535   -0.0440 H   0  0  0  0  0  0  0  0  0  0  0  0
    1.0747    0.1146   -1.6843 H   0  0  0  0  0  0  0  0  0  0  0  0
    1.6705   -2.7509   -1.2860 H   0  0  0  0  0  0  0  0  0  0  0  0
    2.2522   -1.6052   -2.4719 H   0  0  0  0  0  0  0  0  0  0  0  0
    3.3190   -2.2148    0.2991 H   0  0  0  0  0  0  0  0  0  0  0  0
    4.1480   -2.2931   -1.2436 H   0  0  0  0  0  0  0  0  0  0  0  0
    4.0724    0.1554   -1.4551 H   0  0  0  0  0  0  0  0  0  0  0  0
    5.3537   -1.1296    0.9818 H   0  0  0  0  0  0  0  0  0  0  0  0
    6.0618   -0.7388   -0.5608 H   0  0  0  0  0  0  0  0  0  0  0  0
    5.9121    1.6812   -0.0623 H   0  0  0  0  0  0  0  0  0  0  0  0
    7.4180    1.6314    1.6446 H   0  0  0  0  0  0  0  0  0  0  0  0
    5.3034    1.3010    2.8349 H   0  0  0  0  0  0  0  0  0  0  0  0
    4.8165    2.5676    1.7396 H   0  0  0  0  0  0  0  0  0  0  0  0
    2.8086    1.5267    2.3519 H   0  0  0  0  0  0  0  0  0  0  0  0
    3.4934   -0.0838    2.3221 H   0  0  0  0  0  0  0  0  0  0  0  0
    3.8236    2.4158   -0.6002 H   0  0  0  0  0  0  0  0  0  0  0  0
    2.3161    2.7434    0.2340 H   0  0  0  0  0  0  0  0  0  0  0  0
    2.3093    1.9151   -1.3309 H   0  0  0  0  0  0  0  0  0  0  0  0
    1.5992   -0.8923    1.1477 H   0  0  0  0  0  0  0  0  0  0  0  0
    0.6654    1.1057    2.0854 H   0  0  0  0  0  0  0  0  0  0  0  0
    0.3608    1.8130    0.5139 H   0  0  0  0  0  0  0  0  0  0  0  0
   -1.6971    0.9759    1.4384 H   0  0  0  0  0  0  0  0  0  0  0  0
   -1.0048   -0.6072    1.7534 H   0  0  0  0  0  0  0  0  0  0  0  0
   -0.5886    1.4691   -1.4890 H   0  0  0  0  0  0  0  0  0  0  0  0
   -1.9514    0.6992   -2.2761 H   0  0  0  0  0  0  0  0  0  0  0  0
   -2.1965    1.7328   -0.8589 H   0  0  0  0  0  0  0  0  0  0  0  0
  1  2  1  0
  2  3  1  0
  3  4  1  0
  4  5  1  0
  5  6  2  0
  5  7  1  0
  2  8  1  0
  8  9  1  0
  9 10  1  0
 10 11  1  0
 11 12  1  0
 12 13  1  0
 13 14  1  0
 14 15  1  0
 15 16  1  0
 16 17  1  0
 17 18  1  0
 17 19  1  0
 19 20  1  0
 20 21  1  0
 21 22  1  6
 21 23  1  0
 23 24  1  0
 24 25  1  0
 25 26  1  0
 26 27  1  6
 26  8  1  0
 26 11  1  0
 23 12  1  0
 21 15  1  0
  1 28  1  0
  1 29  1  0
  1 30  1  0
  2 31  1  1
  3 32  1  0
  3 33  1  0
  4 34  1  0
  4 35  1  0
  7 36  1  0
  8 37  1  1
  9 38  1  0
  9 39  1  0
 10 40  1  0
 10 41  1  0
 11 42  1  1
 12 43  1  6
 13 44  1  0
 13 45  1  0
 14 46  1  0
 14 47  1  0
 15 48  1  6
 16 49  1  0
 16 50  1  0
 17 51  1  6
 18 52  1  0
 19 53  1  0
 19 54  1  0
 20 55  1  0
 20 56  1  0
 22 57  1  0
 22 58  1  0
 22 59  1  0
 23 60  1  1
 24 61  1  0
 24 62  1  0
 25 63  1  0
 25 64  1  0
 27 65  1  0
 27 66  1  0
 27 67  1  0
M  END
$$$$
