
     RDKit          3D

103105  0  0  0  0  0  0  0  0999 V2000
   -1.0257   -3.7412    2.9182 C   0  0  0  0  0  0  0  0  0  0  0  0
   -2.4510   -2.6292    3.0369 S   0  0  0  0  0  0  0  0  0  0  0  0
   -1.5914   -1.0263    2.8748 C   0  0  0  0  0  0  0  0  0  0  0  0
   -1.9780   -0.2896    1.5928 C   0  0  0  0  0  0  0  0  0  0  0  0
   -1.4234   -0.9247    0.3117 C   0  0  2  0  0  0  0  0  0  0  0  0
   -0.1363   -0.3459   -0.0661 N   0  0  0  0  0  0  0  0  0  0  0  0
    1.0622   -0.9531    0.2338 C   0  0  0  0  0  0  0  0  0  0  0  0
    1.1406   -1.9136    1.0001 O   0  0  0  0  0  0  0  0  0  0  0  0
    2.3036   -0.3200   -0.4255 C   0  0  2  0  0  0  0  0  0  0  0  0
    2.2555   -0.4089   -1.9600 C   0  0  0  0  0  0  0  0  0  0  0  0
    2.2860   -1.8126   -2.4971 C   0  0  0  0  0  0  0  0  0  0  0  0
    1.2038   -2.6590   -2.6442 C   0  0  0  0  0  0  0  0  0  0  0  0
    1.6541   -3.8492   -3.1513 N   0  0  0  0  0  0  0  0  0  0  0  0
    3.0100   -3.7924   -3.3668 C   0  0  0  0  0  0  0  0  0  0  0  0
    3.8813   -4.7619   -3.8791 C   0  0  0  0  0  0  0  0  0  0  0  0
    5.2297   -4.4218   -4.0007 C   0  0  0  0  0  0  0  0  0  0  0  0
    5.6887   -3.1621   -3.6270 C   0  0  0  0  0  0  0  0  0  0  0  0
    4.8047   -2.2071   -3.1124 C   0  0  0  0  0  0  0  0  0  0  0  0
    3.4367   -2.5251   -2.9724 C   0  0  0  0  0  0  0  0  0  0  0  0
    3.4942   -0.9483    0.1434 N   0  0  0  0  0  0  0  0  0  0  0  0
    4.7342   -0.3629    0.0941 C   0  0  0  0  0  0  0  0  0  0  0  0
    4.9285    0.7440   -0.3974 O   0  0  0  0  0  0  0  0  0  0  0  0
    5.8242   -1.2224    0.7002 C   0  0  0  0  0  0  0  0  0  0  0  0
    7.1584   -0.4945    0.7794 C   0  0  0  0  0  0  0  0  0  0  0  0
    7.1368    0.5605    1.7714 N   0  0  0  0  0  0  0  0  0  0  0  0
    8.2827    1.0882    2.2864 C   0  0  0  0  0  0  0  0  0  0  0  0
    9.4050    0.6305    2.1279 O   0  0  0  0  0  0  0  0  0  0  0  0
    7.9637    2.2074    2.9723 O   0  0  0  0  0  0  0  0  0  0  0  0
    8.9901    2.9954    3.6242 C   0  0  0  0  0  0  0  0  0  0  0  0
    9.7018    2.1878    4.7155 C   0  0  0  0  0  0  0  0  0  0  0  0
    8.2295    4.1493    4.2968 C   0  0  0  0  0  0  0  0  0  0  0  0
    9.9710    3.5857    2.6056 C   0  0  0  0  0  0  0  0  0  0  0  0
   -2.3889   -0.6778   -0.8639 C   0  0  0  0  0  0  0  0  0  0  0  0
   -2.1827    0.1865   -1.7148 O   0  0  0  0  0  0  0  0  0  0  0  0
   -3.4913   -1.5013   -0.8795 N   0  0  0  0  0  0  0  0  0  0  0  0
   -4.6217   -1.2268   -1.7613 C   0  0  1  0  0  0  0  0  0  0  0  0
   -5.3364   -2.5060   -2.1826 C   0  0  0  0  0  0  0  0  0  0  0  0
   -6.1179   -3.1354   -1.0631 C   0  0  0  0  0  0  0  0  0  0  0  0
   -7.2992   -3.4392   -1.1048 O   0  0  0  0  0  0  0  0  0  0  0  0
   -5.3682   -3.4132    0.0221 O   0  0  0  0  0  0  0  0  0  0  0  0
   -5.5921   -0.2742   -1.0367 C   0  0  0  0  0  0  0  0  0  0  0  0
   -5.6048   -0.1410    0.1858 O   0  0  0  0  0  0  0  0  0  0  0  0
   -6.4788    0.3730   -1.8590 N   0  0  0  0  0  0  0  0  0  0  0  0
   -7.5182    1.2612   -1.3359 C   0  0  1  0  0  0  0  0  0  0  0  0
   -6.9384    2.6251   -0.9235 C   0  0  0  0  0  0  0  0  0  0  0  0
   -7.8339    3.3834    0.0267 C   0  0  0  0  0  0  0  0  0  0  0  0
   -8.0079    2.9210    1.3388 C   0  0  0  0  0  0  0  0  0  0  0  0
   -8.8423    3.6030    2.2233 C   0  0  0  0  0  0  0  0  0  0  0  0
   -9.5077    4.7542    1.8063 C   0  0  0  0  0  0  0  0  0  0  0  0
   -9.3389    5.2261    0.5049 C   0  0  0  0  0  0  0  0  0  0  0  0
   -8.5041    4.5440   -0.3826 C   0  0  0  0  0  0  0  0  0  0  0  0
   -8.5571    1.4136   -2.4595 C   0  0  0  0  0  0  0  0  0  0  0  0
   -9.7757    1.9109   -2.1069 N   0  0  0  0  0  0  0  0  0  0  0  0
   -8.3178    1.1046   -3.6286 O   0  0  0  0  0  0  0  0  0  0  0  0
   -0.2292   -3.4376    3.6056 H   0  0  0  0  0  0  0  0  0  0  0  0
   -0.6490   -3.7602    1.8926 H   0  0  0  0  0  0  0  0  0  0  0  0
   -1.3445   -4.7545    3.1838 H   0  0  0  0  0  0  0  0  0  0  0  0
   -1.9016   -0.4190    3.7307 H   0  0  0  0  0  0  0  0  0  0  0  0
   -0.5081   -1.1504    2.9588 H   0  0  0  0  0  0  0  0  0  0  0  0
   -3.0711   -0.2084    1.5514 H   0  0  0  0  0  0  0  0  0  0  0  0
   -1.6142    0.7442    1.6696 H   0  0  0  0  0  0  0  0  0  0  0  0
   -1.3000   -2.0086    0.4029 H   0  0  0  0  0  0  0  0  0  0  0  0
   -0.1782    0.3788   -0.7790 H   0  0  0  0  0  0  0  0  0  0  0  0
    2.3230    0.7394   -0.1351 H   0  0  0  0  0  0  0  0  0  0  0  0
    1.3550    0.0925   -2.3387 H   0  0  0  0  0  0  0  0  0  0  0  0
    3.1025    0.1516   -2.3755 H   0  0  0  0  0  0  0  0  0  0  0  0
    0.1535   -2.5150   -2.4321 H   0  0  0  0  0  0  0  0  0  0  0  0
    1.0786   -4.6549   -3.3547 H   0  0  0  0  0  0  0  0  0  0  0  0
    3.5288   -5.7419   -4.1818 H   0  0  0  0  0  0  0  0  0  0  0  0
    5.9307   -5.1479   -4.4076 H   0  0  0  0  0  0  0  0  0  0  0  0
    6.7417   -2.9135   -3.7376 H   0  0  0  0  0  0  0  0  0  0  0  0
    5.1719   -1.2219   -2.8371 H   0  0  0  0  0  0  0  0  0  0  0  0
    3.3787   -1.8902    0.5011 H   0  0  0  0  0  0  0  0  0  0  0  0
    5.9345   -2.1121    0.0678 H   0  0  0  0  0  0  0  0  0  0  0  0
    5.5087   -1.5431    1.7017 H   0  0  0  0  0  0  0  0  0  0  0  0
    7.9490   -1.2060    1.0481 H   0  0  0  0  0  0  0  0  0  0  0  0
    7.4355   -0.0422   -0.1800 H   0  0  0  0  0  0  0  0  0  0  0  0
    6.3701    1.2199    1.7574 H   0  0  0  0  0  0  0  0  0  0  0  0
    8.9722    1.7107    5.3822 H   0  0  0  0  0  0  0  0  0  0  0  0
   10.3207    1.3842    4.3010 H   0  0  0  0  0  0  0  0  0  0  0  0
   10.3557    2.8250    5.3225 H   0  0  0  0  0  0  0  0  0  0  0  0
    8.9053    4.8253    4.8315 H   0  0  0  0  0  0  0  0  0  0  0  0
    7.4904    3.7679    5.0102 H   0  0  0  0  0  0  0  0  0  0  0  0
    7.6742    4.7348    3.5524 H   0  0  0  0  0  0  0  0  0  0  0  0
   10.6502    4.3054    3.0748 H   0  0  0  0  0  0  0  0  0  0  0  0
    9.4327    4.0926    1.7967 H   0  0  0  0  0  0  0  0  0  0  0  0
   10.5866    2.8140    2.1335 H   0  0  0  0  0  0  0  0  0  0  0  0
   -3.7388   -1.9595   -0.0016 H   0  0  0  0  0  0  0  0  0  0  0  0
   -4.2445   -0.7193   -2.6566 H   0  0  0  0  0  0  0  0  0  0  0  0
   -4.6330   -3.2516   -2.5719 H   0  0  0  0  0  0  0  0  0  0  0  0
   -6.0485   -2.2832   -2.9873 H   0  0  0  0  0  0  0  0  0  0  0  0
   -5.9965   -3.8119    0.6625 H   0  0  0  0  0  0  0  0  0  0  0  0
   -6.4338    0.2732   -2.8712 H   0  0  0  0  0  0  0  0  0  0  0  0
   -7.9939    0.7433   -0.4943 H   0  0  0  0  0  0  0  0  0  0  0  0
   -6.7288    3.2326   -1.8116 H   0  0  0  0  0  0  0  0  0  0  0  0
   -5.9716    2.4978   -0.4239 H   0  0  0  0  0  0  0  0  0  0  0  0
   -7.4857    2.0282    1.6813 H   0  0  0  0  0  0  0  0  0  0  0  0
   -8.9669    3.2404    3.2400 H   0  0  0  0  0  0  0  0  0  0  0  0
  -10.1555    5.2876    2.4975 H   0  0  0  0  0  0  0  0  0  0  0  0
   -9.8517    6.1291    0.1837 H   0  0  0  0  0  0  0  0  0  0  0  0
   -8.3787    4.9282   -1.3934 H   0  0  0  0  0  0  0  0  0  0  0  0
  -10.4736    2.0267   -2.8323 H   0  0  0  0  0  0  0  0  0  0  0  0
  -10.0001    2.2110   -1.1654 H   0  0  0  0  0  0  0  0  0  0  0  0
  1  2  1  0
  2  3  1  0
  3  4  1  0
  4  5  1  0
  5  6  1  0
  6  7  1  0
  7  8  2  0
  7  9  1  0
  9 10  1  0
 10 11  1  0
 11 12  2  0
 12 13  1  0
 13 14  1  0
 14 15  2  0
 15 16  1  0
 16 17  2  0
 17 18  1  0
 18 19  2  0
  9 20  1  0
 20 21  1  0
 21 22  2  0
 21 23  1  0
 23 24  1  0
 24 25  1  0
 25 26  1  0
 26 27  2  0
 26 28  1  0
 28 29  1  0
 29 30  1  0
 29 31  1  0
 29 32  1  0
  5 33  1  0
 33 34  2  0
 33 35  1  0
 35 36  1  0
 36 37  1  0
 37 38  1  0
 38 39  2  0
 38 40  1  0
 36 41  1  0
 41 42  2  0
 41 43  1  0
 43 44  1  0
 44 45  1  0
 45 46  1  0
 46 47  2  0
 47 48  1  0
 48 49  2  0
 49 50  1  0
 50 51  2  0
 44 52  1  0
 52 53  1  0
 52 54  2  0
 19 11  1  0
 51 46  1  0
 19 14  1  0
  1 55  1  0
  1 56  1  0
  1 57  1  0
  3 58  1  0
  3 59  1  0
  4 60  1  0
  4 61  1  0
  5 62  1  1
  6 63  1  0
  9 64  1  6
 10 65  1  0
 10 66  1  0
 12 67  1  0
 13 68  1  0
 15 69  1  0
 16 70  1  0
 17 71  1  0
 18 72  1  0
 20 73  1  0
 23 74  1  0
 23 75  1  0
 24 76  1  0
 24 77  1  0
 25 78  1  0
 30 79  1  0
 30 80  1  0
 30 81  1  0
 31 82  1  0
 31 83  1  0
 31 84  1  0
 32 85  1  0
 32 86  1  0
 32 87  1  0
 35 88  1  0
 36 89  1  6
 37 90  1  0
 37 91  1  0
 40 92  1  0
 43 93  1  0
 44 94  1  1
 45 95  1  0
 45 96  1  0
 47 97  1  0
 48 98  1  0
 49 99  1  0
 50100  1  0
 51101  1  0
 53102  1  0
 53103  1  0
M  END
$$$$
