
     RDKit          3D

 22 24  0  0  0  0  0  0  0  0999 V2000
    4.2727   -0.4930   -0.7525 N   0  0  0  0  0  0  0  0  0  0  0  0
    3.0467    0.0230   -0.5579 C   0  0  0  0  0  0  0  0  0  0  0  0
    1.9906   -0.7178   -0.3508 N   0  0  0  0  0  0  0  0  0  0  0  0
    0.8635    0.0835   -0.1793 C   0  0  0  0  0  0  0  0  0  0  0  0
    1.1079    1.4564   -0.2517 C   0  0  0  0  0  0  0  0  0  0  0  0
    0.0874    2.4081   -0.0987 C   0  0  0  0  0  0  0  0  0  0  0  0
   -1.2158    1.9559    0.1343 C   0  0  0  0  0  0  0  0  0  0  0  0
   -1.5103    0.5904    0.2152 C   0  0  0  0  0  0  0  0  0  0  0  0
   -2.8157    0.1294    0.4488 C   0  0  0  0  0  0  0  0  0  0  0  0
   -3.0870   -1.2399    0.5254 C   0  0  0  0  0  0  0  0  0  0  0  0
   -2.0606   -2.1697    0.3700 C   0  0  0  0  0  0  0  0  0  0  0  0
   -0.7563   -1.7353    0.1373 C   0  0  0  0  0  0  0  0  0  0  0  0
   -0.4710   -0.3582    0.0585 C   0  0  0  0  0  0  0  0  0  0  0  0
    2.7854    1.7141   -0.5421 S   0  0  0  0  0  0  0  0  0  0  0  0
    5.0640    0.0929   -0.5163 H   0  0  0  0  0  0  0  0  0  0  0  0
    4.3776   -1.4574   -0.4569 H   0  0  0  0  0  0  0  0  0  0  0  0
    0.3015    3.4710   -0.1597 H   0  0  0  0  0  0  0  0  0  0  0  0
   -2.0080    2.6935    0.2526 H   0  0  0  0  0  0  0  0  0  0  0  0
   -3.6351    0.8339    0.5730 H   0  0  0  0  0  0  0  0  0  0  0  0
   -4.1034   -1.5808    0.7063 H   0  0  0  0  0  0  0  0  0  0  0  0
   -2.2747   -3.2337    0.4290 H   0  0  0  0  0  0  0  0  0  0  0  0
    0.0406   -2.4663    0.0153 H   0  0  0  0  0  0  0  0  0  0  0  0
  1  2  1  0
  2  3  2  0
  3  4  1  0
  4  5  2  0
  5  6  1  0
  6  7  2  0
  7  8  1  0
  8  9  2  0
  9 10  1  0
 10 11  2  0
 11 12  1  0
 12 13  2  0
  5 14  1  0
 14  2  1  0
 13  4  1  0
 13  8  1  0
  1 15  1  0
  1 16  1  0
  6 17  1  0
  7 18  1  0
  9 19  1  0
 10 20  1  0
 11 21  1  0
 12 22  1  0
M  END
$$$$
