
     RDKit          3D

 67 71  0  0  0  0  0  0  0  0999 V2000
    0.5312   -0.2482   -0.8090 C   0  0  0  0  0  0  0  0  0  0  0  0
    0.1116    0.2016    0.6120 C   0  0  2  0  0  0  0  0  0  0  0  0
   -0.4023   -1.0115    1.4020 C   0  0  0  0  0  0  0  0  0  0  0  0
   -1.7254   -1.5528    0.8275 C   0  0  0  0  0  0  0  0  0  0  0  0
   -2.8249   -0.4663    0.6753 C   0  0  1  0  0  0  0  0  0  0  0  0
   -2.2862    0.8004   -0.0768 C   0  0  1  0  0  0  0  0  0  0  0  0
   -3.3399    1.9182   -0.1389 C   0  0  0  0  0  0  0  0  0  0  0  0
   -4.6722    1.4336   -0.7083 C   0  0  0  0  0  0  0  0  0  0  0  0
   -5.1711    0.2213    0.0733 C   0  0  1  0  0  0  0  0  0  0  0  0
   -6.5029   -0.1905   -0.3267 N   0  0  0  0  0  0  0  0  0  0  0  0
   -7.0814   -1.2898    0.2526 C   0  0  0  0  0  0  0  0  0  0  0  0
   -8.2883   -1.4891    0.2228 O   0  0  0  0  0  0  0  0  0  0  0  0
   -6.1549   -2.2362    0.9266 C   0  0  0  0  0  0  0  0  0  0  0  0
   -4.8199   -2.1092    0.8304 C   0  0  0  0  0  0  0  0  0  0  0  0
   -4.1670   -0.9771    0.0413 C   0  0  2  0  0  0  0  0  0  0  0  0
   -3.9524   -1.5173   -1.3939 C   0  0  0  0  0  0  0  0  0  0  0  0
   -1.0050    1.2712    0.6194 C   0  0  2  0  0  0  0  0  0  0  0  0
   -0.2973    2.5230    0.1110 C   0  0  0  0  0  0  0  0  0  0  0  0
    1.0993    2.4404    0.7547 C   0  0  0  0  0  0  0  0  0  0  0  0
    1.2305    1.0056    1.3221 C   0  0  2  0  0  0  0  0  0  0  0  0
    2.6315    0.3851    1.3139 C   0  0  0  0  0  0  0  0  0  0  0  0
    3.0013   -0.2679    2.2870 O   0  0  0  0  0  0  0  0  0  0  0  0
    3.3573    0.5701    0.1531 N   0  0  0  0  0  0  0  0  0  0  0  0
    4.6726    0.1303   -0.1425 C   0  0  0  0  0  0  0  0  0  0  0  0
    5.4921   -0.4670    0.8279 C   0  0  0  0  0  0  0  0  0  0  0  0
    6.7977   -0.8989    0.5323 C   0  0  0  0  0  0  0  0  0  0  0  0
    7.6641   -1.5137    1.6061 C   0  0  0  0  0  0  0  0  0  0  0  0
    8.5585   -2.4145    1.1088 F   0  0  0  0  0  0  0  0  0  0  0  0
    8.4050   -0.5807    2.2662 F   0  0  0  0  0  0  0  0  0  0  0  0
    6.9578   -2.1810    2.5592 F   0  0  0  0  0  0  0  0  0  0  0  0
    7.2961   -0.7143   -0.7598 C   0  0  0  0  0  0  0  0  0  0  0  0
    6.4988   -0.1227   -1.7366 C   0  0  0  0  0  0  0  0  0  0  0  0
    5.1889    0.3109   -1.4437 C   0  0  0  0  0  0  0  0  0  0  0  0
    4.3896    0.9046   -2.5776 C   0  0  0  0  0  0  0  0  0  0  0  0
    3.3108    1.6339   -2.1646 F   0  0  0  0  0  0  0  0  0  0  0  0
    3.8864   -0.0477   -3.4101 F   0  0  0  0  0  0  0  0  0  0  0  0
    5.1184    1.7446   -3.3639 F   0  0  0  0  0  0  0  0  0  0  0  0
    1.3129   -1.0144   -0.7589 H   0  0  0  0  0  0  0  0  0  0  0  0
   -0.2927   -0.6897   -1.3758 H   0  0  0  0  0  0  0  0  0  0  0  0
    0.9132    0.5784   -1.4146 H   0  0  0  0  0  0  0  0  0  0  0  0
    0.3482   -1.8112    1.4102 H   0  0  0  0  0  0  0  0  0  0  0  0
   -0.5685   -0.7345    2.4511 H   0  0  0  0  0  0  0  0  0  0  0  0
   -1.5284   -2.0342   -0.1350 H   0  0  0  0  0  0  0  0  0  0  0  0
   -2.0726   -2.3454    1.4990 H   0  0  0  0  0  0  0  0  0  0  0  0
   -3.0630   -0.1467    1.7029 H   0  0  0  0  0  0  0  0  0  0  0  0
   -2.0465    0.5371   -1.1121 H   0  0  0  0  0  0  0  0  0  0  0  0
   -3.5077    2.3237    0.8674 H   0  0  0  0  0  0  0  0  0  0  0  0
   -2.9739    2.7480   -0.7551 H   0  0  0  0  0  0  0  0  0  0  0  0
   -4.5702    1.1999   -1.7743 H   0  0  0  0  0  0  0  0  0  0  0  0
   -5.4052    2.2475   -0.6449 H   0  0  0  0  0  0  0  0  0  0  0  0
   -5.2877    0.5428    1.1209 H   0  0  0  0  0  0  0  0  0  0  0  0
   -7.1781    0.4998   -0.6307 H   0  0  0  0  0  0  0  0  0  0  0  0
   -6.6221   -3.0608    1.4526 H   0  0  0  0  0  0  0  0  0  0  0  0
   -4.1955   -2.8714    1.2857 H   0  0  0  0  0  0  0  0  0  0  0  0
   -3.4569   -0.7971   -2.0495 H   0  0  0  0  0  0  0  0  0  0  0  0
   -4.9028   -1.7773   -1.8756 H   0  0  0  0  0  0  0  0  0  0  0  0
   -3.3444   -2.4288   -1.3927 H   0  0  0  0  0  0  0  0  0  0  0  0
   -1.2790    1.4825    1.6669 H   0  0  0  0  0  0  0  0  0  0  0  0
   -0.8158    3.4408    0.4066 H   0  0  0  0  0  0  0  0  0  0  0  0
   -0.2184    2.5243   -0.9816 H   0  0  0  0  0  0  0  0  0  0  0  0
    1.8677    2.7156    0.0276 H   0  0  0  0  0  0  0  0  0  0  0  0
    1.1788    3.1638    1.5753 H   0  0  0  0  0  0  0  0  0  0  0  0
    0.9718    1.0857    2.3902 H   0  0  0  0  0  0  0  0  0  0  0  0
    2.8748    1.0603   -0.5923 H   0  0  0  0  0  0  0  0  0  0  0  0
    5.1429   -0.6053    1.8493 H   0  0  0  0  0  0  0  0  0  0  0  0
    8.3069   -1.0341   -1.0113 H   0  0  0  0  0  0  0  0  0  0  0  0
    6.9035    0.0026   -2.7419 H   0  0  0  0  0  0  0  0  0  0  0  0
  2  1  1  6
  2  3  1  0
  3  4  1  0
  4  5  1  0
  5  6  1  0
  6  7  1  0
  7  8  1  0
  8  9  1  0
  9 10  1  0
 10 11  1  0
 11 12  2  0
 11 13  1  0
 13 14  2  0
 14 15  1  0
 15 16  1  6
  6 17  1  0
 17 18  1  0
 18 19  1  0
 19 20  1  0
 20 21  1  0
 21 22  2  0
 21 23  1  0
 23 24  1  0
 24 25  2  0
 25 26  1  0
 26 27  1  0
 27 28  1  0
 27 29  1  0
 27 30  1  0
 26 31  2  0
 31 32  1  0
 32 33  2  0
 33 34  1  0
 34 35  1  0
 34 36  1  0
 34 37  1  0
 17  2  1  0
 33 24  1  0
 20  2  1  0
 15  5  1  0
 15  9  1  0
  1 38  1  0
  1 39  1  0
  1 40  1  0
  3 41  1  0
  3 42  1  0
  4 43  1  0
  4 44  1  0
  5 45  1  1
  6 46  1  6
  7 47  1  0
  7 48  1  0
  8 49  1  0
  8 50  1  0
  9 51  1  1
 10 52  1  0
 13 53  1  0
 14 54  1  0
 16 55  1  0
 16 56  1  0
 16 57  1  0
 17 58  1  1
 18 59  1  0
 18 60  1  0
 19 61  1  0
 19 62  1  0
 20 63  1  1
 23 64  1  0
 25 65  1  0
 31 66  1  0
 32 67  1  0
M  END
$$$$
