
     RDKit          3D

 60 64  0  0  0  0  0  0  0  0999 V2000
    0.3633   -2.6578    2.1544 O   0  0  0  0  0  0  0  0  0  0  0  0
    0.6147   -2.0076    1.1412 C   0  0  0  0  0  0  0  0  0  0  0  0
   -0.3069   -1.8756    0.1124 N   0  0  0  0  0  0  0  0  0  0  0  0
   -1.6752   -2.3256    0.2961 C   0  0  0  0  0  0  0  0  0  0  0  0
   -2.5194   -1.2759    1.0446 C   0  0  0  0  0  0  0  0  0  0  0  0
   -2.5443    0.0351    0.3542 N   0  0  0  0  0  0  0  0  0  0  0  0
   -3.3057   -0.0448   -0.9230 C   0  0  0  0  0  0  0  0  0  0  0  0
   -4.0723    1.2479   -1.2834 C   0  0  0  0  0  0  0  0  0  0  0  0
   -5.0728    1.5755   -0.2471 N   0  0  0  0  0  0  0  0  0  0  0  0
   -6.4339    1.3041   -0.4739 C   0  0  0  0  0  0  0  0  0  0  0  0
   -7.3949    1.9970    0.2889 C   0  0  0  0  0  0  0  0  0  0  0  0
   -8.7695    1.7869    0.1198 C   0  0  0  0  0  0  0  0  0  0  0  0
   -9.2245    0.8705   -0.8224 C   0  0  0  0  0  0  0  0  0  0  0  0
   -8.3018    0.1693   -1.5931 C   0  0  0  0  0  0  0  0  0  0  0  0
   -6.9317    0.3867   -1.4188 C   0  0  0  0  0  0  0  0  0  0  0  0
   -6.0989   -0.3542   -2.1693 F   0  0  0  0  0  0  0  0  0  0  0  0
   -4.6384    1.2800    1.1422 C   0  0  0  0  0  0  0  0  0  0  0  0
   -3.1059    1.0886    1.2355 C   0  0  0  0  0  0  0  0  0  0  0  0
    1.8936   -1.2956    0.9244 C   0  0  0  0  0  0  0  0  0  0  0  0
    2.3927   -0.7167   -0.3018 C   0  0  0  0  0  0  0  0  0  0  0  0
    3.6091   -0.1960    0.0360 C   0  0  0  0  0  0  0  0  0  0  0  0
    3.7848   -0.4858    1.3412 N   0  0  0  0  0  0  0  0  0  0  0  0
    2.7813   -1.1115    1.9344 N   0  0  0  0  0  0  0  0  0  0  0  0
    5.0228   -0.0031    1.9204 C   0  0  0  0  0  0  0  0  0  0  0  0
    5.8239    0.3950    0.6543 C   0  0  1  0  0  0  0  0  0  0  0  0
    6.7409   -0.6736    0.3690 O   0  0  0  0  0  0  0  0  0  0  0  0
    7.8046   -0.4268   -0.4537 C   0  0  0  0  0  0  0  0  0  0  0  0
    8.0757    0.7624   -1.1202 C   0  0  0  0  0  0  0  0  0  0  0  0
    9.2085    0.8198   -1.9208 C   0  0  0  0  0  0  0  0  0  0  0  0
   10.0645   -0.2087   -2.0949 N   0  0  0  0  0  0  0  0  0  0  0  0
    9.7734   -1.3523   -1.4407 C   0  0  0  0  0  0  0  0  0  0  0  0
    8.6697   -1.5059   -0.6194 C   0  0  0  0  0  0  0  0  0  0  0  0
    4.7704    0.5398   -0.4960 C   0  0  0  0  0  0  0  0  0  0  0  0
   -0.1948   -1.0783   -0.4978 H   0  0  0  0  0  0  0  0  0  0  0  0
   -2.0854   -2.5290   -0.6982 H   0  0  0  0  0  0  0  0  0  0  0  0
   -1.6766   -3.2671    0.8564 H   0  0  0  0  0  0  0  0  0  0  0  0
   -2.0731   -1.1463    2.0387 H   0  0  0  0  0  0  0  0  0  0  0  0
   -3.5353   -1.6595    1.2003 H   0  0  0  0  0  0  0  0  0  0  0  0
   -4.0317   -0.8674   -0.8854 H   0  0  0  0  0  0  0  0  0  0  0  0
   -2.5975   -0.2730   -1.7282 H   0  0  0  0  0  0  0  0  0  0  0  0
   -3.3603    2.0810   -1.3396 H   0  0  0  0  0  0  0  0  0  0  0  0
   -4.5047    1.1876   -2.2875 H   0  0  0  0  0  0  0  0  0  0  0  0
   -7.0721    2.7408    1.0143 H   0  0  0  0  0  0  0  0  0  0  0  0
   -9.4802    2.3487    0.7221 H   0  0  0  0  0  0  0  0  0  0  0  0
  -10.2905    0.7054   -0.9567 H   0  0  0  0  0  0  0  0  0  0  0  0
   -8.6348   -0.5537   -2.3308 H   0  0  0  0  0  0  0  0  0  0  0  0
   -5.1274    0.3694    1.5152 H   0  0  0  0  0  0  0  0  0  0  0  0
   -4.9252    2.1104    1.7979 H   0  0  0  0  0  0  0  0  0  0  0  0
   -2.6236    2.0348    0.9536 H   0  0  0  0  0  0  0  0  0  0  0  0
   -2.8168    0.9237    2.2815 H   0  0  0  0  0  0  0  0  0  0  0  0
    1.9206   -0.7069   -1.2734 H   0  0  0  0  0  0  0  0  0  0  0  0
    4.7677    0.8628    2.5378 H   0  0  0  0  0  0  0  0  0  0  0  0
    5.4793   -0.8047    2.5056 H   0  0  0  0  0  0  0  0  0  0  0  0
    6.3729    1.3225    0.8532 H   0  0  0  0  0  0  0  0  0  0  0  0
    7.4476    1.6401   -1.0506 H   0  0  0  0  0  0  0  0  0  0  0  0
    9.4626    1.7260   -2.4633 H   0  0  0  0  0  0  0  0  0  0  0  0
   10.4722   -2.1694   -1.5971 H   0  0  0  0  0  0  0  0  0  0  0  0
    8.4853   -2.4498   -0.1181 H   0  0  0  0  0  0  0  0  0  0  0  0
    4.5074    1.5937   -0.6357 H   0  0  0  0  0  0  0  0  0  0  0  0
    5.1162    0.1172   -1.4432 H   0  0  0  0  0  0  0  0  0  0  0  0
  1  2  2  0
  2  3  1  0
  3  4  1  0
  4  5  1  0
  5  6  1  0
  6  7  1  0
  7  8  1  0
  8  9  1  0
  9 10  1  0
 10 11  2  0
 11 12  1  0
 12 13  2  0
 13 14  1  0
 14 15  2  0
 15 16  1  0
  9 17  1  0
 17 18  1  0
  2 19  1  0
 19 20  1  0
 20 21  2  0
 21 22  1  0
 22 23  1  0
 22 24  1  0
 24 25  1  0
 25 26  1  0
 26 27  1  0
 27 28  2  0
 28 29  1  0
 29 30  2  0
 30 31  1  0
 31 32  2  0
 25 33  1  0
 18  6  1  0
 23 19  2  0
 32 27  1  0
 15 10  1  0
 33 21  1  0
  3 34  1  0
  4 35  1  0
  4 36  1  0
  5 37  1  0
  5 38  1  0
  7 39  1  0
  7 40  1  0
  8 41  1  0
  8 42  1  0
 11 43  1  0
 12 44  1  0
 13 45  1  0
 14 46  1  0
 17 47  1  0
 17 48  1  0
 18 49  1  0
 18 50  1  0
 20 51  1  0
 24 52  1  0
 24 53  1  0
 25 54  1  1
 28 55  1  0
 29 56  1  0
 31 57  1  0
 32 58  1  0
 33 59  1  0
 33 60  1  0
M  END
$$$$
