
     RDKit          3D

 77 81  0  0  0  0  0  0  0  0999 V2000
    6.0599   -3.5036   -2.3546 C   0  0  0  0  0  0  0  0  0  0  0  0
    5.0418   -2.9331   -1.4040 C   0  0  0  0  0  0  0  0  0  0  0  0
    4.6052   -3.7079   -0.3217 C   0  0  0  0  0  0  0  0  0  0  0  0
    3.6615   -3.2089    0.5795 C   0  0  0  0  0  0  0  0  0  0  0  0
    3.1301   -1.9260    0.4214 C   0  0  0  0  0  0  0  0  0  0  0  0
    2.1876   -1.4987    1.3813 N   0  0  0  0  0  0  0  0  0  0  0  0
    1.5286   -0.2762    1.4327 C   0  0  0  0  0  0  0  0  0  0  0  0
    1.7091    0.6556    0.6589 O   0  0  0  0  0  0  0  0  0  0  0  0
    0.6098   -0.1665    2.6515 C   0  0  1  0  0  0  0  0  0  0  0  0
    1.4508    0.3972    3.8228 C   0  0  0  0  0  0  0  0  0  0  0  0
    1.0308    1.8057    4.2573 C   0  0  0  0  0  0  0  0  0  0  0  0
    0.6642    2.6920    3.0701 C   0  0  0  0  0  0  0  0  0  0  0  0
   -0.3524    2.1090    2.1855 N   0  0  0  0  0  0  0  0  0  0  0  0
   -0.6731    2.7430    0.9746 C   0  0  0  0  0  0  0  0  0  0  0  0
   -1.2542    2.2345    0.0221 O   0  0  0  0  0  0  0  0  0  0  0  0
   -0.3113    4.1663    0.8122 C   0  0  0  0  0  0  0  0  0  0  0  0
    0.6885    4.5735   -0.0904 C   0  0  0  0  0  0  0  0  0  0  0  0
    1.4940    3.5834   -0.8840 C   0  0  0  0  0  0  0  0  0  0  0  0
    0.9587    5.9465   -0.2139 C   0  0  0  0  0  0  0  0  0  0  0  0
    0.2323    6.8897    0.5196 C   0  0  0  0  0  0  0  0  0  0  0  0
   -0.7719    6.4734    1.3906 C   0  0  0  0  0  0  0  0  0  0  0  0
   -1.0425    5.1159    1.5294 C   0  0  0  0  0  0  0  0  0  0  0  0
   -2.0088    4.7411    2.3808 F   0  0  0  0  0  0  0  0  0  0  0  0
   -0.6633    0.6840    2.4239 C   0  0  1  0  0  0  0  0  0  0  0  0
   -1.7941    0.0438    1.6280 C   0  0  0  0  0  0  0  0  0  0  0  0
   -3.1205    0.3842    1.9367 C   0  0  0  0  0  0  0  0  0  0  0  0
   -4.1947   -0.1911    1.2460 C   0  0  0  0  0  0  0  0  0  0  0  0
   -3.9990   -1.1035    0.1997 C   0  0  0  0  0  0  0  0  0  0  0  0
   -5.1234   -1.6614   -0.3956 N   0  0  0  0  0  0  0  0  0  0  0  0
   -5.1747   -2.4652   -1.6116 C   0  0  0  0  0  0  0  0  0  0  0  0
   -4.4917   -1.8546   -2.8407 C   0  0  0  0  0  0  0  0  0  0  0  0
   -3.6490   -2.9803   -3.4416 C   0  0  0  0  0  0  0  0  0  0  0  0
   -4.2421   -4.2637   -2.8751 C   0  0  0  0  0  0  0  0  0  0  0  0
   -4.6298   -3.8833   -1.4537 C   0  0  0  0  0  0  0  0  0  0  0  0
   -2.6798   -1.4547   -0.0858 C   0  0  0  0  0  0  0  0  0  0  0  0
   -1.5942   -0.8811    0.5983 C   0  0  0  0  0  0  0  0  0  0  0  0
    3.5570   -1.1526   -0.6595 C   0  0  0  0  0  0  0  0  0  0  0  0
    4.5117   -1.6369   -1.5794 C   0  0  0  0  0  0  0  0  0  0  0  0
    4.9495   -0.7510   -2.7268 C   0  0  0  0  0  0  0  0  0  0  0  0
    4.7231   -1.3187   -3.9445 F   0  0  0  0  0  0  0  0  0  0  0  0
    6.2838   -0.4702   -2.6899 F   0  0  0  0  0  0  0  0  0  0  0  0
    4.3237    0.4595   -2.7653 F   0  0  0  0  0  0  0  0  0  0  0  0
    6.3754   -4.5067   -2.0484 H   0  0  0  0  0  0  0  0  0  0  0  0
    6.9548   -2.8743   -2.3800 H   0  0  0  0  0  0  0  0  0  0  0  0
    5.6384   -3.5842   -3.3612 H   0  0  0  0  0  0  0  0  0  0  0  0
    4.9984   -4.7117   -0.1697 H   0  0  0  0  0  0  0  0  0  0  0  0
    3.3522   -3.8445    1.4061 H   0  0  0  0  0  0  0  0  0  0  0  0
    1.9630   -2.1723    2.1023 H   0  0  0  0  0  0  0  0  0  0  0  0
    0.2926   -1.1831    2.9237 H   0  0  0  0  0  0  0  0  0  0  0  0
    2.5188    0.4107    3.5685 H   0  0  0  0  0  0  0  0  0  0  0  0
    1.3583   -0.2714    4.6887 H   0  0  0  0  0  0  0  0  0  0  0  0
    1.8395    2.2693    4.8339 H   0  0  0  0  0  0  0  0  0  0  0  0
    0.1724    1.7338    4.9373 H   0  0  0  0  0  0  0  0  0  0  0  0
    1.5620    2.8868    2.4716 H   0  0  0  0  0  0  0  0  0  0  0  0
    0.2975    3.6530    3.4427 H   0  0  0  0  0  0  0  0  0  0  0  0
    2.2007    3.0662   -0.2286 H   0  0  0  0  0  0  0  0  0  0  0  0
    0.8501    2.8542   -1.3834 H   0  0  0  0  0  0  0  0  0  0  0  0
    2.0720    4.0836   -1.6684 H   0  0  0  0  0  0  0  0  0  0  0  0
    1.7363    6.2918   -0.8935 H   0  0  0  0  0  0  0  0  0  0  0  0
    0.4469    7.9495    0.4033 H   0  0  0  0  0  0  0  0  0  0  0  0
   -1.3486    7.1966    1.9591 H   0  0  0  0  0  0  0  0  0  0  0  0
   -1.1186    0.7101    3.4279 H   0  0  0  0  0  0  0  0  0  0  0  0
   -3.3316    1.1158    2.7140 H   0  0  0  0  0  0  0  0  0  0  0  0
   -5.2034    0.1009    1.5308 H   0  0  0  0  0  0  0  0  0  0  0  0
   -5.9185   -1.0304   -0.3274 H   0  0  0  0  0  0  0  0  0  0  0  0
   -6.2409   -2.5665   -1.8598 H   0  0  0  0  0  0  0  0  0  0  0  0
   -3.8809   -0.9711   -2.6321 H   0  0  0  0  0  0  0  0  0  0  0  0
   -5.2562   -1.5405   -3.5622 H   0  0  0  0  0  0  0  0  0  0  0  0
   -3.6624   -2.9677   -4.5358 H   0  0  0  0  0  0  0  0  0  0  0  0
   -2.6048   -2.8797   -3.1220 H   0  0  0  0  0  0  0  0  0  0  0  0
   -5.1337   -4.5508   -3.4456 H   0  0  0  0  0  0  0  0  0  0  0  0
   -3.5341   -5.0970   -2.9054 H   0  0  0  0  0  0  0  0  0  0  0  0
   -5.3837   -4.5640   -1.0418 H   0  0  0  0  0  0  0  0  0  0  0  0
   -3.7575   -3.9362   -0.7958 H   0  0  0  0  0  0  0  0  0  0  0  0
   -2.4481   -2.1623   -0.8722 H   0  0  0  0  0  0  0  0  0  0  0  0
   -0.5976   -1.1639    0.2741 H   0  0  0  0  0  0  0  0  0  0  0  0
    3.1599   -0.1528   -0.8191 H   0  0  0  0  0  0  0  0  0  0  0  0
  1  2  1  0
  2  3  2  0
  3  4  1  0
  4  5  2  0
  5  6  1  0
  6  7  1  0
  7  8  2  0
  7  9  1  0
  9 10  1  0
 10 11  1  0
 11 12  1  0
 12 13  1  0
 13 14  1  0
 14 15  2  0
 14 16  1  0
 16 17  2  0
 17 18  1  0
 17 19  1  0
 19 20  2  0
 20 21  1  0
 21 22  2  0
 22 23  1  0
 13 24  1  0
 24 25  1  0
 25 26  2  0
 26 27  1  0
 27 28  2  0
 28 29  1  0
 29 30  1  0
 30 31  1  0
 31 32  1  0
 32 33  1  0
 33 34  1  0
 28 35  1  0
 35 36  2  0
  5 37  1  0
 37 38  2  0
 38 39  1  0
 39 40  1  0
 39 41  1  0
 39 42  1  0
 38  2  1  0
 24  9  1  0
 36 25  1  0
 22 16  1  0
 34 30  1  0
  1 43  1  0
  1 44  1  0
  1 45  1  0
  3 46  1  0
  4 47  1  0
  6 48  1  0
  9 49  1  1
 10 50  1  0
 10 51  1  0
 11 52  1  0
 11 53  1  0
 12 54  1  0
 12 55  1  0
 18 56  1  0
 18 57  1  0
 18 58  1  0
 19 59  1  0
 20 60  1  0
 21 61  1  0
 24 62  1  1
 26 63  1  0
 27 64  1  0
 29 65  1  0
 30 66  1  0
 31 67  1  0
 31 68  1  0
 32 69  1  0
 32 70  1  0
 33 71  1  0
 33 72  1  0
 34 73  1  0
 34 74  1  0
 35 75  1  0
 36 76  1  0
 37 77  1  0
M  END
$$$$
