
     RDKit          3D

 41 43  0  0  0  0  0  0  0  0999 V2000
   -2.6811    1.4819    2.6858 C   0  0  0  0  0  0  0  0  0  0  0  0
   -1.8644    0.9675    1.5567 C   0  0  0  0  0  0  0  0  0  0  0  0
   -0.5419    1.3035    1.4165 N   0  0  0  0  0  0  0  0  0  0  0  0
   -0.0089    0.6895    0.3120 C   0  0  0  0  0  0  0  0  0  0  0  0
    1.3466    0.9556    0.0108 C   0  0  0  0  0  0  0  0  0  0  0  0
    2.3077    0.0212   -0.0326 C   0  0  0  0  0  0  0  0  0  0  0  0
    2.2137   -1.4587    0.2632 C   0  0  0  0  0  0  0  0  0  0  0  0
    1.2566   -2.1206    0.6108 O   0  0  0  0  0  0  0  0  0  0  0  0
    3.5008   -1.9426    0.0695 N   0  0  0  0  0  0  0  0  0  0  0  0
    4.3790   -0.9311   -0.2998 C   0  0  0  0  0  0  0  0  0  0  0  0
    5.7275   -1.0626   -0.5625 C   0  0  0  0  0  0  0  0  0  0  0  0
    6.4265    0.0923   -0.9198 C   0  0  0  0  0  0  0  0  0  0  0  0
    5.7688    1.3332   -1.0049 C   0  0  0  0  0  0  0  0  0  0  0  0
    4.3997    1.4418   -0.7332 C   0  0  0  0  0  0  0  0  0  0  0  0
    3.7116    0.2942   -0.3775 C   0  0  0  0  0  0  0  0  0  0  0  0
   -1.0132   -0.0552   -0.2837 C   0  0  0  0  0  0  0  0  0  0  0  0
   -0.9042   -0.8856   -1.5164 C   0  0  0  0  0  0  0  0  0  0  0  0
   -2.1937    0.1140    0.5163 C   0  0  0  0  0  0  0  0  0  0  0  0
   -3.5306   -0.5182    0.2739 C   0  0  0  0  0  0  0  0  0  0  0  0
   -4.4277    0.3562   -0.5878 C   0  0  0  0  0  0  0  0  0  0  0  0
   -5.7383   -0.3299   -0.8138 C   0  0  0  0  0  0  0  0  0  0  0  0
   -6.0268   -1.0449   -1.7586 O   0  0  0  0  0  0  0  0  0  0  0  0
   -6.6247   -0.1078    0.1751 O   0  0  0  0  0  0  0  0  0  0  0  0
   -3.6317    1.8833    2.3208 H   0  0  0  0  0  0  0  0  0  0  0  0
   -2.1646    2.2822    3.2256 H   0  0  0  0  0  0  0  0  0  0  0  0
   -2.8962    0.6763    3.3948 H   0  0  0  0  0  0  0  0  0  0  0  0
   -0.0277    1.8963    2.0533 H   0  0  0  0  0  0  0  0  0  0  0  0
    1.5960    1.9923   -0.1977 H   0  0  0  0  0  0  0  0  0  0  0  0
    3.7353   -2.9136    0.2030 H   0  0  0  0  0  0  0  0  0  0  0  0
    6.2306   -2.0204   -0.4973 H   0  0  0  0  0  0  0  0  0  0  0  0
    7.4911    0.0337   -1.1365 H   0  0  0  0  0  0  0  0  0  0  0  0
    6.3335    2.2195   -1.2876 H   0  0  0  0  0  0  0  0  0  0  0  0
    3.9049    2.4039   -0.8063 H   0  0  0  0  0  0  0  0  0  0  0  0
   -1.7300   -0.6665   -2.2009 H   0  0  0  0  0  0  0  0  0  0  0  0
   -0.9409   -1.9494   -1.2615 H   0  0  0  0  0  0  0  0  0  0  0  0
    0.0287   -0.6945   -2.0552 H   0  0  0  0  0  0  0  0  0  0  0  0
   -4.0183   -0.7227    1.2359 H   0  0  0  0  0  0  0  0  0  0  0  0
   -3.3951   -1.4985   -0.2004 H   0  0  0  0  0  0  0  0  0  0  0  0
   -3.9743    0.5569   -1.5656 H   0  0  0  0  0  0  0  0  0  0  0  0
   -4.6086    1.3349   -0.1278 H   0  0  0  0  0  0  0  0  0  0  0  0
   -7.4156   -0.6193   -0.0964 H   0  0  0  0  0  0  0  0  0  0  0  0
  1  2  1  0
  2  3  1  0
  3  4  1  0
  4  5  1  0
  5  6  2  0
  6  7  1  0
  7  8  2  0
  7  9  1  0
  9 10  1  0
 10 11  2  0
 11 12  1  0
 12 13  2  0
 13 14  1  0
 14 15  2  0
  4 16  2  0
 16 17  1  0
 16 18  1  0
 18 19  1  0
 19 20  1  0
 20 21  1  0
 21 22  2  0
 21 23  1  0
 18  2  2  0
 15  6  1  0
 15 10  1  0
  1 24  1  0
  1 25  1  0
  1 26  1  0
  3 27  1  0
  5 28  1  0
  9 29  1  0
 11 30  1  0
 12 31  1  0
 13 32  1  0
 14 33  1  0
 17 34  1  0
 17 35  1  0
 17 36  1  0
 19 37  1  0
 19 38  1  0
 20 39  1  0
 20 40  1  0
 23 41  1  0
M  END
$$$$
