
     RDKit          3D

 58 61  0  0  0  0  0  0  0  0999 V2000
   -1.7598   -0.5928   -2.2628 O   0  0  0  0  0  0  0  0  0  0  0  0
   -2.3994   -0.4126   -1.2274 C   0  0  0  0  0  0  0  0  0  0  0  0
   -3.1180   -1.5659   -0.6602 C   0  0  0  0  0  0  0  0  0  0  0  0
   -4.3736   -1.8947   -1.1816 C   0  0  0  0  0  0  0  0  0  0  0  0
   -5.0711   -2.9845   -0.6588 C   0  0  0  0  0  0  0  0  0  0  0  0
   -4.5121   -3.7433    0.3734 C   0  0  0  0  0  0  0  0  0  0  0  0
   -3.2524   -3.4200    0.8841 C   0  0  0  0  0  0  0  0  0  0  0  0
   -2.5468   -2.3412    0.3524 C   0  0  0  0  0  0  0  0  0  0  0  0
   -1.3321   -2.0200    0.8907 O   0  0  0  0  0  0  0  0  0  0  0  0
   -0.2726   -2.7177    0.2184 C   0  0  0  0  0  0  0  0  0  0  0  0
    0.8945   -1.7516   -0.0253 C   0  0  0  0  0  0  0  0  0  0  0  0
    2.0185   -2.4546   -0.7935 C   0  0  0  0  0  0  0  0  0  0  0  0
    3.2315   -1.5426   -0.9481 C   0  0  0  0  0  0  0  0  0  0  0  0
    3.6646   -0.9631    0.4000 C   0  0  0  0  0  0  0  0  0  0  0  0
    2.5913   -0.2748    1.1289 N   0  0  0  0  0  0  0  0  0  0  0  0
    2.2020    1.0224    0.5534 C   0  0  0  0  0  0  0  0  0  0  0  0
    3.2553    2.0894    0.7121 C   0  0  0  0  0  0  0  0  0  0  0  0
    4.0886    2.4564   -0.3539 C   0  0  0  0  0  0  0  0  0  0  0  0
    5.0463    3.4413   -0.1481 C   0  0  0  0  0  0  0  0  0  0  0  0
    5.2306    4.0793    1.0294 N   0  0  0  0  0  0  0  0  0  0  0  0
    4.4162    3.7079    2.0468 C   0  0  0  0  0  0  0  0  0  0  0  0
    3.4343    2.7372    1.9340 C   0  0  0  0  0  0  0  0  0  0  0  0
    2.6597    2.4473    2.9889 F   0  0  0  0  0  0  0  0  0  0  0  0
    1.4252   -1.1616    1.2955 C   0  0  0  0  0  0  0  0  0  0  0  0
   -2.5044    0.8188   -0.5831 N   0  0  0  0  0  0  0  0  0  0  0  0
   -3.0069    0.9772    0.7886 C   0  0  0  0  0  0  0  0  0  0  0  0
   -3.5124    2.4002    1.0445 C   0  0  0  0  0  0  0  0  0  0  0  0
   -2.5234    3.3776    0.6938 O   0  0  0  0  0  0  0  0  0  0  0  0
   -2.1973    3.2764   -0.7009 C   0  0  0  0  0  0  0  0  0  0  0  0
   -1.6268    1.8975   -1.0372 C   0  0  0  0  0  0  0  0  0  0  0  0
   -4.8007   -1.3071   -1.9897 H   0  0  0  0  0  0  0  0  0  0  0  0
   -6.0513   -3.2453   -1.0543 H   0  0  0  0  0  0  0  0  0  0  0  0
   -5.0615   -4.5881    0.7824 H   0  0  0  0  0  0  0  0  0  0  0  0
   -2.8248   -4.0086    1.6914 H   0  0  0  0  0  0  0  0  0  0  0  0
    0.0415   -3.5477    0.8628 H   0  0  0  0  0  0  0  0  0  0  0  0
   -0.5977   -3.1452   -0.7410 H   0  0  0  0  0  0  0  0  0  0  0  0
    0.5171   -0.9220   -0.6368 H   0  0  0  0  0  0  0  0  0  0  0  0
    1.6644   -2.7666   -1.7827 H   0  0  0  0  0  0  0  0  0  0  0  0
    2.3200   -3.3659   -0.2624 H   0  0  0  0  0  0  0  0  0  0  0  0
    2.9998   -0.7359   -1.6532 H   0  0  0  0  0  0  0  0  0  0  0  0
    4.0603   -2.1117   -1.3847 H   0  0  0  0  0  0  0  0  0  0  0  0
    4.5320   -0.3092    0.2602 H   0  0  0  0  0  0  0  0  0  0  0  0
    4.0310   -1.7836    1.0323 H   0  0  0  0  0  0  0  0  0  0  0  0
    1.3031    1.3969    1.0629 H   0  0  0  0  0  0  0  0  0  0  0  0
    1.9174    0.9369   -0.5019 H   0  0  0  0  0  0  0  0  0  0  0  0
    3.9993    1.9825   -1.3269 H   0  0  0  0  0  0  0  0  0  0  0  0
    5.7104    3.7508   -0.9510 H   0  0  0  0  0  0  0  0  0  0  0  0
    4.5710    4.2253    2.9883 H   0  0  0  0  0  0  0  0  0  0  0  0
    0.6276   -0.6199    1.8219 H   0  0  0  0  0  0  0  0  0  0  0  0
    1.7103   -1.9798    1.9723 H   0  0  0  0  0  0  0  0  0  0  0  0
   -3.8073    0.2625    0.9978 H   0  0  0  0  0  0  0  0  0  0  0  0
   -2.1649    0.7559    1.4555 H   0  0  0  0  0  0  0  0  0  0  0  0
   -4.4260    2.5994    0.4726 H   0  0  0  0  0  0  0  0  0  0  0  0
   -3.7496    2.5282    2.1057 H   0  0  0  0  0  0  0  0  0  0  0  0
   -1.4603    4.0522   -0.9294 H   0  0  0  0  0  0  0  0  0  0  0  0
   -3.0965    3.4853   -1.2920 H   0  0  0  0  0  0  0  0  0  0  0  0
   -1.4438    1.8188   -2.1143 H   0  0  0  0  0  0  0  0  0  0  0  0
   -0.6701    1.7540   -0.5218 H   0  0  0  0  0  0  0  0  0  0  0  0
  1  2  2  0
  2  3  1  0
  3  4  2  0
  4  5  1  0
  5  6  2  0
  6  7  1  0
  7  8  2  0
  8  9  1  0
  9 10  1  0
 10 11  1  0
 11 12  1  0
 12 13  1  0
 13 14  1  0
 14 15  1  0
 15 16  1  0
 16 17  1  0
 17 18  2  0
 18 19  1  0
 19 20  2  0
 20 21  1  0
 21 22  2  0
 22 23  1  0
 15 24  1  0
  2 25  1  0
 25 26  1  0
 26 27  1  0
 27 28  1  0
 28 29  1  0
 29 30  1  0
  8  3  1  0
 24 11  1  0
 30 25  1  0
 22 17  1  0
  4 31  1  0
  5 32  1  0
  6 33  1  0
  7 34  1  0
 10 35  1  0
 10 36  1  0
 11 37  1  0
 12 38  1  0
 12 39  1  0
 13 40  1  0
 13 41  1  0
 14 42  1  0
 14 43  1  0
 16 44  1  0
 16 45  1  0
 18 46  1  0
 19 47  1  0
 21 48  1  0
 24 49  1  0
 24 50  1  0
 26 51  1  0
 26 52  1  0
 27 53  1  0
 27 54  1  0
 29 55  1  0
 29 56  1  0
 30 57  1  0
 30 58  1  0
M  END
$$$$
