
     RDKit          3D

 56 59  0  0  0  0  0  0  0  0999 V2000
    4.5623    2.1301    2.2302 C   0  0  0  0  0  0  0  0  0  0  0  0
    3.8648    0.9279    1.7107 C   0  0  0  0  0  0  0  0  0  0  0  0
    3.1632    0.8638    0.5951 N   0  0  0  0  0  0  0  0  0  0  0  0
    2.7062   -0.4414    0.5191 C   0  0  0  0  0  0  0  0  0  0  0  0
    1.7305   -1.0504   -0.7981 S   0  0  0  0  0  6  0  0  0  0  0  0
    0.3744   -0.9141   -0.3082 O   0  0  0  0  0  0  0  0  0  0  0  0
    2.3098   -2.3446   -1.0899 O   0  0  0  0  0  0  0  0  0  0  0  0
    1.9324   -0.0557   -2.1675 N   0  0  0  0  0  0  0  0  0  0  0  0
    3.3093   -0.0289   -2.7309 C   0  0  0  0  0  0  0  0  0  0  0  0
    3.4492    1.3530   -3.3487 C   0  0  0  0  0  0  0  0  0  0  0  0
    2.6186    2.2193   -2.4193 C   0  0  0  0  0  0  0  0  0  0  0  0
    1.3980    1.3412   -2.1012 C   0  0  1  0  0  0  0  0  0  0  0  0
    0.3008    1.5645   -3.1594 C   0  0  0  0  0  0  0  0  0  0  0  0
   -0.9198    0.8126   -2.9789 N   0  0  0  0  0  0  0  0  0  0  0  0
   -1.6635    0.6508   -1.8517 C   0  0  0  0  0  0  0  0  0  0  0  0
   -2.7358   -0.1198   -2.2583 C   0  0  0  0  0  0  0  0  0  0  0  0
   -3.8089   -0.6757   -1.4425 C   0  0  0  0  0  0  0  0  0  0  0  0
   -4.8980   -0.9963   -1.9011 O   0  0  0  0  0  0  0  0  0  0  0  0
   -3.4906   -0.8269   -0.1054 N   0  0  0  0  0  0  0  0  0  0  0  0
   -4.4121   -1.4532    0.8174 C   0  0  0  0  0  0  0  0  0  0  0  0
   -5.6298   -0.5813    1.1338 C   0  0  0  0  0  0  0  0  0  0  0  0
   -6.0977   -1.0149    2.5220 C   0  0  0  0  0  0  0  0  0  0  0  0
   -5.0030   -1.9183    3.0826 C   0  0  0  0  0  0  0  0  0  0  0  0
   -3.7937   -1.6788    2.1912 C   0  0  0  0  0  0  0  0  0  0  0  0
   -2.6588   -0.2847   -3.6203 N   0  0  0  0  0  0  0  0  0  0  0  0
   -1.5428    0.2902   -4.0503 N   0  0  0  0  0  0  0  0  0  0  0  0
    3.1428   -1.1693    1.6080 C   0  0  0  0  0  0  0  0  0  0  0  0
    3.8709   -0.2894    2.3548 N   0  0  0  0  0  0  0  0  0  0  0  0
    4.5275   -0.5928    3.6040 C   0  0  0  0  0  0  0  0  0  0  0  0
    4.1546    2.4208    3.2008 H   0  0  0  0  0  0  0  0  0  0  0  0
    4.4359    2.9716    1.5433 H   0  0  0  0  0  0  0  0  0  0  0  0
    5.6344    1.9383    2.3437 H   0  0  0  0  0  0  0  0  0  0  0  0
    3.4329   -0.8179   -3.4772 H   0  0  0  0  0  0  0  0  0  0  0  0
    4.0633   -0.1591   -1.9488 H   0  0  0  0  0  0  0  0  0  0  0  0
    3.0327    1.3647   -4.3622 H   0  0  0  0  0  0  0  0  0  0  0  0
    4.4919    1.6785   -3.4091 H   0  0  0  0  0  0  0  0  0  0  0  0
    2.3551    3.1817   -2.8681 H   0  0  0  0  0  0  0  0  0  0  0  0
    3.1865    2.4263   -1.5054 H   0  0  0  0  0  0  0  0  0  0  0  0
    1.0174    1.5903   -1.1057 H   0  0  0  0  0  0  0  0  0  0  0  0
    0.6792    1.3269   -4.1619 H   0  0  0  0  0  0  0  0  0  0  0  0
    0.0004    2.6208   -3.1663 H   0  0  0  0  0  0  0  0  0  0  0  0
   -1.3710    1.0395   -0.8883 H   0  0  0  0  0  0  0  0  0  0  0  0
   -2.5089   -0.7999    0.1320 H   0  0  0  0  0  0  0  0  0  0  0  0
   -4.7404   -2.4094    0.3910 H   0  0  0  0  0  0  0  0  0  0  0  0
   -6.4226   -0.6942    0.3885 H   0  0  0  0  0  0  0  0  0  0  0  0
   -5.3542    0.4810    1.1528 H   0  0  0  0  0  0  0  0  0  0  0  0
   -6.2489   -0.1379    3.1597 H   0  0  0  0  0  0  0  0  0  0  0  0
   -7.0516   -1.5509    2.4749 H   0  0  0  0  0  0  0  0  0  0  0  0
   -5.3179   -2.9671    3.0152 H   0  0  0  0  0  0  0  0  0  0  0  0
   -4.7894   -1.7030    4.1330 H   0  0  0  0  0  0  0  0  0  0  0  0
   -3.0982   -2.5233    2.2015 H   0  0  0  0  0  0  0  0  0  0  0  0
   -3.2448   -0.7895    2.5250 H   0  0  0  0  0  0  0  0  0  0  0  0
    2.9930   -2.2041    1.8843 H   0  0  0  0  0  0  0  0  0  0  0  0
    5.5963   -0.3927    3.4919 H   0  0  0  0  0  0  0  0  0  0  0  0
    4.3746   -1.6469    3.8527 H   0  0  0  0  0  0  0  0  0  0  0  0
    4.0937    0.0385    4.3843 H   0  0  0  0  0  0  0  0  0  0  0  0
  1  2  1  0
  2  3  2  0
  3  4  1  0
  4  5  1  0
  5  6  2  0
  5  7  2  0
  5  8  1  0
  8  9  1  0
  9 10  1  0
 10 11  1  0
 11 12  1  0
 12 13  1  0
 13 14  1  0
 14 15  1  0
 15 16  2  0
 16 17  1  0
 17 18  2  0
 17 19  1  0
 19 20  1  0
 20 21  1  0
 21 22  1  0
 22 23  1  0
 23 24  1  0
 16 25  1  0
 25 26  2  0
  4 27  2  0
 27 28  1  0
 28 29  1  0
 28  2  1  0
 12  8  1  0
 26 14  1  0
 24 20  1  0
  1 30  1  0
  1 31  1  0
  1 32  1  0
  9 33  1  0
  9 34  1  0
 10 35  1  0
 10 36  1  0
 11 37  1  0
 11 38  1  0
 12 39  1  1
 13 40  1  0
 13 41  1  0
 15 42  1  0
 19 43  1  0
 20 44  1  0
 21 45  1  0
 21 46  1  0
 22 47  1  0
 22 48  1  0
 23 49  1  0
 23 50  1  0
 24 51  1  0
 24 52  1  0
 27 53  1  0
 29 54  1  0
 29 55  1  0
 29 56  1  0
M  END
$$$$
