
     RDKit          3D

 33 35  0  0  0  0  0  0  0  0999 V2000
    4.3981   -0.6708    2.2516 C   0  0  0  0  0  0  0  0  0  0  0  0
    3.1937   -0.0317    1.6237 C   0  0  0  0  0  0  0  0  0  0  0  0
    2.2482    0.6292    2.4191 C   0  0  0  0  0  0  0  0  0  0  0  0
    1.1431    1.2513    1.8362 C   0  0  0  0  0  0  0  0  0  0  0  0
    0.9850    1.2147    0.4487 C   0  0  0  0  0  0  0  0  0  0  0  0
   -0.4172    1.9985   -0.2973 S   0  0  0  0  0  6  0  0  0  0  0  0
    0.0390    2.7634   -1.4460 O   0  0  0  0  0  0  0  0  0  0  0  0
   -1.2164    2.6211    0.7425 O   0  0  0  0  0  0  0  0  0  0  0  0
   -1.3348    0.7175   -0.8887 N   0  0  0  0  0  0  0  0  0  0  0  0
   -1.2109    0.1835   -2.1507 C   0  0  0  0  0  0  0  0  0  0  0  0
   -0.4463    0.6921   -3.1367 N   0  0  0  0  0  0  0  0  0  0  0  0
   -1.9454   -0.8969   -2.2664 N   0  0  0  0  0  0  0  0  0  0  0  0
   -2.5164   -1.0947   -1.0329 C   0  0  0  0  0  0  0  0  0  0  0  0
   -3.3681   -2.1274   -0.6123 C   0  0  0  0  0  0  0  0  0  0  0  0
   -3.8153   -2.1384    0.7131 C   0  0  0  0  0  0  0  0  0  0  0  0
   -3.4229   -1.1400    1.6042 C   0  0  0  0  0  0  0  0  0  0  0  0
   -2.5758   -0.0998    1.2044 C   0  0  0  0  0  0  0  0  0  0  0  0
   -2.1394   -0.1017   -0.1289 C   0  0  0  0  0  0  0  0  0  0  0  0
    1.9343    0.5841   -0.3593 C   0  0  0  0  0  0  0  0  0  0  0  0
    3.0363   -0.0363    0.2314 C   0  0  0  0  0  0  0  0  0  0  0  0
    5.2127    0.0564    2.3229 H   0  0  0  0  0  0  0  0  0  0  0  0
    4.1647   -1.0413    3.2553 H   0  0  0  0  0  0  0  0  0  0  0  0
    4.7381   -1.5275    1.6604 H   0  0  0  0  0  0  0  0  0  0  0  0
    2.3702    0.6641    3.5001 H   0  0  0  0  0  0  0  0  0  0  0  0
    0.4217    1.7604    2.4717 H   0  0  0  0  0  0  0  0  0  0  0  0
   -0.6656    0.3630   -4.0742 H   0  0  0  0  0  0  0  0  0  0  0  0
   -0.2026    1.6872   -3.1180 H   0  0  0  0  0  0  0  0  0  0  0  0
   -3.6655   -2.9036   -1.3094 H   0  0  0  0  0  0  0  0  0  0  0  0
   -4.4756   -2.9347    1.0491 H   0  0  0  0  0  0  0  0  0  0  0  0
   -3.7862   -1.1665    2.6302 H   0  0  0  0  0  0  0  0  0  0  0  0
   -2.2931    0.6752    1.9104 H   0  0  0  0  0  0  0  0  0  0  0  0
    1.8366    0.5729   -1.4426 H   0  0  0  0  0  0  0  0  0  0  0  0
    3.7755   -0.5231   -0.4023 H   0  0  0  0  0  0  0  0  0  0  0  0
  1  2  1  0
  2  3  2  0
  3  4  1  0
  4  5  2  0
  5  6  1  0
  6  7  2  0
  6  8  2  0
  6  9  1  0
  9 10  1  0
 10 11  1  0
 10 12  2  0
 12 13  1  0
 13 14  2  0
 14 15  1  0
 15 16  2  0
 16 17  1  0
 17 18  2  0
  5 19  1  0
 19 20  2  0
 20  2  1  0
 18  9  1  0
 18 13  1  0
  1 21  1  0
  1 22  1  0
  1 23  1  0
  3 24  1  0
  4 25  1  0
 11 26  1  0
 11 27  1  0
 14 28  1  0
 15 29  1  0
 16 30  1  0
 17 31  1  0
 19 32  1  0
 20 33  1  0
M  END
$$$$
