
     RDKit          3D

 49 52  0  0  0  0  0  0  0  0999 V2000
   -3.7529    3.2351   -1.8506 C   0  0  0  0  0  0  0  0  0  0  0  0
   -3.2661    2.1852   -0.9220 C   0  0  0  0  0  0  0  0  0  0  0  0
   -2.2278    1.2964   -1.1495 C   0  0  0  0  0  0  0  0  0  0  0  0
   -1.3050    1.0778   -2.2972 C   0  0  0  0  0  0  0  0  0  0  0  0
   -1.4800   -0.2623   -2.8611 N   0  0  0  0  0  0  0  0  0  0  0  0
   -2.7045   -0.4921   -3.6114 C   0  0  0  0  0  0  0  0  0  0  0  0
   -0.8045   -1.3884   -2.4046 C   0  0  0  0  0  0  0  0  0  0  0  0
   -1.1615   -2.5410   -2.6443 O   0  0  0  0  0  0  0  0  0  0  0  0
    0.4333   -1.1610   -1.6192 C   0  0  0  0  0  0  0  0  0  0  0  0
    0.6928   -1.9458   -0.5579 C   0  0  0  0  0  0  0  0  0  0  0  0
    1.8751   -1.8078    0.2782 C   0  0  0  0  0  0  0  0  0  0  0  0
    1.7623   -1.9934    1.6114 C   0  0  0  0  0  0  0  0  0  0  0  0
    2.8308   -1.8767    2.4680 N   0  0  0  0  0  0  0  0  0  0  0  0
    4.0873   -1.5194    2.0395 C   0  0  0  0  0  0  0  0  0  0  0  0
    5.0120   -1.2848    2.9207 N   0  0  0  0  0  0  0  0  0  0  0  0
    6.2642   -0.8993    2.4998 C   0  0  0  0  0  0  0  0  0  0  0  0
    7.2611   -1.0198    3.2086 O   0  0  0  0  0  0  0  0  0  0  0  0
    6.3752   -0.2372    1.1443 C   0  0  0  0  0  0  0  0  0  0  0  0
    5.6921   -1.1051    0.1075 C   0  0  0  0  0  0  0  0  0  0  0  0
    4.3069   -1.4060    0.5546 C   0  0  0  0  0  0  0  0  0  0  0  0
    3.2274   -1.5424   -0.2402 C   0  0  0  0  0  0  0  0  0  0  0  0
   -2.0492    0.4850   -0.0675 O   0  0  0  0  0  0  0  0  0  0  0  0
   -2.9813    0.8307    0.8572 C   0  0  0  0  0  0  0  0  0  0  0  0
   -3.1401    0.2284    2.1062 C   0  0  0  0  0  0  0  0  0  0  0  0
   -4.1589    0.7356    2.9175 C   0  0  0  0  0  0  0  0  0  0  0  0
   -4.9684    1.7923    2.4824 C   0  0  0  0  0  0  0  0  0  0  0  0
   -4.7816    2.3759    1.2192 C   0  0  0  0  0  0  0  0  0  0  0  0
   -3.7611    1.8797    0.3851 C   0  0  0  0  0  0  0  0  0  0  0  0
   -4.0738    2.7894   -2.7980 H   0  0  0  0  0  0  0  0  0  0  0  0
   -2.9555    3.9568   -2.0617 H   0  0  0  0  0  0  0  0  0  0  0  0
   -4.5993    3.7884   -1.4306 H   0  0  0  0  0  0  0  0  0  0  0  0
   -1.4927    1.8040   -3.0946 H   0  0  0  0  0  0  0  0  0  0  0  0
   -0.2788    1.2415   -1.9629 H   0  0  0  0  0  0  0  0  0  0  0  0
   -2.6258   -1.4028   -4.2143 H   0  0  0  0  0  0  0  0  0  0  0  0
   -2.8900    0.3548   -4.2829 H   0  0  0  0  0  0  0  0  0  0  0  0
   -3.5409   -0.6039   -2.9113 H   0  0  0  0  0  0  0  0  0  0  0  0
    1.0981   -0.3723   -1.9353 H   0  0  0  0  0  0  0  0  0  0  0  0
   -0.0251   -2.7150   -0.2700 H   0  0  0  0  0  0  0  0  0  0  0  0
    0.8207   -2.2160    2.1005 H   0  0  0  0  0  0  0  0  0  0  0  0
    2.6624   -1.8868    3.4689 H   0  0  0  0  0  0  0  0  0  0  0  0
    5.9245    0.7599    1.2005 H   0  0  0  0  0  0  0  0  0  0  0  0
    7.4312   -0.1089    0.8875 H   0  0  0  0  0  0  0  0  0  0  0  0
    6.2431   -2.0461   -0.0195 H   0  0  0  0  0  0  0  0  0  0  0  0
    5.6913   -0.5899   -0.8580 H   0  0  0  0  0  0  0  0  0  0  0  0
    3.3365   -1.4691   -1.3184 H   0  0  0  0  0  0  0  0  0  0  0  0
   -2.5039   -0.5906    2.4247 H   0  0  0  0  0  0  0  0  0  0  0  0
   -4.3236    0.3013    3.9025 H   0  0  0  0  0  0  0  0  0  0  0  0
   -5.7568    2.1691    3.1324 H   0  0  0  0  0  0  0  0  0  0  0  0
   -5.4192    3.1966    0.8961 H   0  0  0  0  0  0  0  0  0  0  0  0
  1  2  1  0
  2  3  2  0
  3  4  1  0
  4  5  1  0
  5  6  1  0
  5  7  1  0
  7  8  2  0
  7  9  1  0
  9 10  2  0
 10 11  1  0
 11 12  2  0
 12 13  1  0
 13 14  1  0
 14 15  2  0
 15 16  1  0
 16 17  2  0
 16 18  1  0
 18 19  1  0
 19 20  1  0
 20 21  2  0
  3 22  1  0
 22 23  1  0
 23 24  2  0
 24 25  1  0
 25 26  2  0
 26 27  1  0
 27 28  2  0
 28  2  1  0
 21 11  1  0
 28 23  1  0
 20 14  1  0
  1 29  1  0
  1 30  1  0
  1 31  1  0
  4 32  1  0
  4 33  1  0
  6 34  1  0
  6 35  1  0
  6 36  1  0
  9 37  1  0
 10 38  1  0
 12 39  1  0
 13 40  1  0
 18 41  1  0
 18 42  1  0
 19 43  1  0
 19 44  1  0
 21 45  1  0
 24 46  1  0
 25 47  1  0
 26 48  1  0
 27 49  1  0
M  END
$$$$
