
     RDKit          3D

 49 53  0  0  0  0  0  0  0  0999 V2000
   -3.5936    3.3483    1.2499 C   0  0  0  0  0  0  0  0  0  0  0  0
   -4.4094    2.2455    0.8794 O   0  0  0  0  0  0  0  0  0  0  0  0
   -3.9710    1.6190   -0.3345 C   0  0  0  0  0  0  0  0  0  0  0  0
   -2.7311    0.7934   -0.1637 C   0  0  0  0  0  0  0  0  0  0  0  0
   -1.5601    1.2324   -0.6458 N   0  0  0  0  0  0  0  0  0  0  0  0
   -0.6524    0.2860   -0.2832 N   0  0  0  0  0  0  0  0  0  0  0  0
   -1.2505   -0.7593    0.4300 C   0  0  0  0  0  0  0  0  0  0  0  0
   -0.5252   -1.8228    0.9020 N   0  0  0  0  0  0  0  0  0  0  0  0
    0.7478   -1.8100    0.6414 C   0  0  0  0  0  0  0  0  0  0  0  0
    1.4724   -0.7535   -0.1091 C   0  0  0  0  0  0  0  0  0  0  0  0
    2.9348   -0.8111   -0.3680 C   0  0  0  0  0  0  0  0  0  0  0  0
    3.5940   -1.7657    0.0296 O   0  0  0  0  0  0  0  0  0  0  0  0
    3.4466    0.2722   -1.0718 N   0  0  0  0  0  0  0  0  0  0  0  0
    4.7881    0.2663   -1.3296 N   0  0  0  0  0  0  0  0  0  0  0  0
    5.3899   -0.2339   -2.4520 C   0  0  0  0  0  0  0  0  0  0  0  0
    4.6934   -0.9740   -3.5244 C   0  0  0  0  0  0  0  0  0  0  0  0
    6.6726    0.0664   -2.3962 N   0  0  0  0  0  0  0  0  0  0  0  0
    6.9034    0.7516   -1.2204 N   0  0  0  0  0  0  0  0  0  0  0  0
    5.7594    0.8582   -0.5713 C   0  0  0  0  0  0  0  0  0  0  0  0
    5.5382    1.5212    0.7306 C   0  0  0  0  0  0  0  0  0  0  0  0
    2.6825    1.3302   -1.5201 C   0  0  0  0  0  0  0  0  0  0  0  0
    1.3650    1.3601   -1.2845 C   0  0  0  0  0  0  0  0  0  0  0  0
    0.7276    0.2798   -0.5491 C   0  0  0  0  0  0  0  0  0  0  0  0
   -2.5956   -0.4513    0.5014 C   0  0  0  0  0  0  0  0  0  0  0  0
   -3.5848   -1.2800    1.1609 C   0  0  0  0  0  0  0  0  0  0  0  0
   -3.4878   -1.5395    2.5352 C   0  0  0  0  0  0  0  0  0  0  0  0
   -4.4499   -2.3267    3.1716 C   0  0  0  0  0  0  0  0  0  0  0  0
   -5.5020   -2.8541    2.4323 C   0  0  0  0  0  0  0  0  0  0  0  0
   -6.4239   -3.6111    3.0408 F   0  0  0  0  0  0  0  0  0  0  0  0
   -5.6113   -2.6101    1.0687 C   0  0  0  0  0  0  0  0  0  0  0  0
   -4.6515   -1.8210    0.4298 C   0  0  0  0  0  0  0  0  0  0  0  0
   -3.5595    4.0905    0.4483 H   0  0  0  0  0  0  0  0  0  0  0  0
   -2.5837    3.0195    1.5043 H   0  0  0  0  0  0  0  0  0  0  0  0
   -4.0349    3.8156    2.1352 H   0  0  0  0  0  0  0  0  0  0  0  0
   -3.8386    2.3786   -1.1167 H   0  0  0  0  0  0  0  0  0  0  0  0
   -4.7909    0.9723   -0.6696 H   0  0  0  0  0  0  0  0  0  0  0  0
    1.3656   -2.6495    1.0046 H   0  0  0  0  0  0  0  0  0  0  0  0
    4.2180   -1.8772   -3.1285 H   0  0  0  0  0  0  0  0  0  0  0  0
    5.4011   -1.2774   -4.3020 H   0  0  0  0  0  0  0  0  0  0  0  0
    3.9258   -0.3512   -3.9940 H   0  0  0  0  0  0  0  0  0  0  0  0
    6.4417    1.4593    1.3453 H   0  0  0  0  0  0  0  0  0  0  0  0
    4.7218    1.0601    1.2925 H   0  0  0  0  0  0  0  0  0  0  0  0
    5.3041    2.5782    0.5804 H   0  0  0  0  0  0  0  0  0  0  0  0
    3.1841    2.1271   -2.0666 H   0  0  0  0  0  0  0  0  0  0  0  0
    0.7533    2.1889   -1.6350 H   0  0  0  0  0  0  0  0  0  0  0  0
   -2.6634   -1.1314    3.1144 H   0  0  0  0  0  0  0  0  0  0  0  0
   -4.3831   -2.5304    4.2345 H   0  0  0  0  0  0  0  0  0  0  0  0
   -6.4398   -3.0355    0.5125 H   0  0  0  0  0  0  0  0  0  0  0  0
   -4.7373   -1.6439   -0.6395 H   0  0  0  0  0  0  0  0  0  0  0  0
  1  2  1  0
  2  3  1  0
  3  4  1  0
  4  5  2  0
  5  6  1  0
  6  7  1  0
  7  8  1  0
  8  9  2  0
  9 10  1  0
 10 11  1  0
 11 12  2  0
 11 13  1  0
 13 14  1  0
 14 15  1  0
 15 16  1  0
 15 17  2  0
 17 18  1  0
 18 19  2  0
 19 20  1  0
 13 21  1  0
 21 22  2  0
 22 23  1  0
  7 24  2  0
 24 25  1  0
 25 26  2  0
 26 27  1  0
 27 28  2  0
 28 29  1  0
 28 30  1  0
 30 31  2  0
 24  4  1  0
 31 25  1  0
 23  6  1  0
 23 10  2  0
 19 14  1  0
  1 32  1  0
  1 33  1  0
  1 34  1  0
  3 35  1  0
  3 36  1  0
  9 37  1  0
 16 38  1  0
 16 39  1  0
 16 40  1  0
 20 41  1  0
 20 42  1  0
 20 43  1  0
 21 44  1  0
 22 45  1  0
 26 46  1  0
 27 47  1  0
 30 48  1  0
 31 49  1  0
M  END
$$$$
