
     RDKit          3D

 50 53  0  0  0  0  0  0  0  0999 V2000
    6.7265    0.0603   -2.3400 C   0  0  0  0  0  0  0  0  0  0  0  0
    5.7284   -0.5525   -1.4011 C   0  0  0  0  0  0  0  0  0  0  0  0
    4.8951   -1.5915   -1.8396 C   0  0  0  0  0  0  0  0  0  0  0  0
    3.9868   -2.1868   -0.9634 C   0  0  0  0  0  0  0  0  0  0  0  0
    3.9144   -1.7419    0.3592 C   0  0  0  0  0  0  0  0  0  0  0  0
    2.7603   -2.5052    1.4680 S   0  0  0  0  0  6  0  0  0  0  0  0
    2.7071   -3.9151    1.1489 O   0  0  0  0  0  0  0  0  0  0  0  0
    3.0094   -2.0340    2.8120 O   0  0  0  0  0  0  0  0  0  0  0  0
    1.3042   -1.8575    0.9498 N   0  0  0  0  0  0  0  0  0  0  0  0
    0.9246   -0.4859    1.3164 C   0  0  0  0  0  0  0  0  0  0  0  0
    0.2460    0.1786    0.1104 C   0  0  0  0  0  0  0  0  0  0  0  0
   -1.2748    0.1597    0.2191 C   0  0  0  0  0  0  0  0  0  0  0  0
   -1.7322    0.8021    1.4548 N   0  0  0  0  0  0  0  0  0  0  0  0
   -2.8118    1.6828    1.5322 C   0  0  0  0  0  0  0  0  0  0  0  0
   -2.9932    2.4445    2.4794 O   0  0  0  0  0  0  0  0  0  0  0  0
   -3.7989    1.7071    0.4299 C   0  0  0  0  0  0  0  0  0  0  0  0
   -4.1236    2.9485   -0.1579 C   0  0  0  0  0  0  0  0  0  0  0  0
   -5.0658    3.0150   -1.1882 C   0  0  0  0  0  0  0  0  0  0  0  0
   -5.6652    1.8368   -1.5832 C   0  0  0  0  0  0  0  0  0  0  0  0
   -5.3632    0.6305   -0.9909 C   0  0  0  0  0  0  0  0  0  0  0  0
   -4.4381    0.5281    0.0251 C   0  0  0  0  0  0  0  0  0  0  0  0
   -6.0787   -0.3991   -1.5178 O   0  0  0  0  0  0  0  0  0  0  0  0
   -6.8693    0.2957   -2.5061 C   0  0  0  0  0  0  0  0  0  0  0  0
   -6.6031    1.7130   -2.5598 O   0  0  0  0  0  0  0  0  0  0  0  0
   -0.8602    0.7078    2.6233 C   0  0  0  0  0  0  0  0  0  0  0  0
    0.0348   -0.5209    2.5624 C   0  0  0  0  0  0  0  0  0  0  0  0
    4.7560   -0.7260    0.8176 C   0  0  0  0  0  0  0  0  0  0  0  0
    5.6617   -0.1346   -0.0648 C   0  0  0  0  0  0  0  0  0  0  0  0
    7.6355   -0.5482   -2.3686 H   0  0  0  0  0  0  0  0  0  0  0  0
    6.9919    1.0753   -2.0250 H   0  0  0  0  0  0  0  0  0  0  0  0
    6.3121    0.1333   -3.3519 H   0  0  0  0  0  0  0  0  0  0  0  0
    4.9541   -1.9455   -2.8673 H   0  0  0  0  0  0  0  0  0  0  0  0
    3.3466   -2.9939   -1.3123 H   0  0  0  0  0  0  0  0  0  0  0  0
    0.5906   -2.5539    0.7422 H   0  0  0  0  0  0  0  0  0  0  0  0
    1.8292    0.0947    1.5333 H   0  0  0  0  0  0  0  0  0  0  0  0
    0.5606   -0.2856   -0.8317 H   0  0  0  0  0  0  0  0  0  0  0  0
    0.5705    1.2265    0.0642 H   0  0  0  0  0  0  0  0  0  0  0  0
   -1.6440   -0.8722    0.2304 H   0  0  0  0  0  0  0  0  0  0  0  0
   -1.6995    0.6632   -0.6545 H   0  0  0  0  0  0  0  0  0  0  0  0
   -3.6391    3.8577    0.1944 H   0  0  0  0  0  0  0  0  0  0  0  0
   -5.3275    3.9604   -1.6500 H   0  0  0  0  0  0  0  0  0  0  0  0
   -4.2318   -0.4247    0.4986 H   0  0  0  0  0  0  0  0  0  0  0  0
   -6.6588   -0.1377   -3.4908 H   0  0  0  0  0  0  0  0  0  0  0  0
   -7.9317    0.1490   -2.2753 H   0  0  0  0  0  0  0  0  0  0  0  0
   -0.2578    1.6239    2.6648 H   0  0  0  0  0  0  0  0  0  0  0  0
   -1.4790    0.6803    3.5281 H   0  0  0  0  0  0  0  0  0  0  0  0
    0.6563   -0.5775    3.4635 H   0  0  0  0  0  0  0  0  0  0  0  0
   -0.5925   -1.4228    2.5628 H   0  0  0  0  0  0  0  0  0  0  0  0
    4.7177   -0.3935    1.8526 H   0  0  0  0  0  0  0  0  0  0  0  0
    6.3194    0.6530    0.2971 H   0  0  0  0  0  0  0  0  0  0  0  0
  1  2  1  0
  2  3  2  0
  3  4  1  0
  4  5  2  0
  5  6  1  0
  6  7  2  0
  6  8  2  0
  6  9  1  0
  9 10  1  0
 10 11  1  0
 11 12  1  0
 12 13  1  0
 13 14  1  0
 14 15  2  0
 14 16  1  0
 16 17  2  0
 17 18  1  0
 18 19  2  0
 19 20  1  0
 20 21  2  0
 20 22  1  0
 22 23  1  0
 23 24  1  0
 13 25  1  0
 25 26  1  0
  5 27  1  0
 27 28  2  0
 28  2  1  0
 26 10  1  0
 21 16  1  0
 24 19  1  0
  1 29  1  0
  1 30  1  0
  1 31  1  0
  3 32  1  0
  4 33  1  0
  9 34  1  0
 10 35  1  0
 11 36  1  0
 11 37  1  0
 12 38  1  0
 12 39  1  0
 17 40  1  0
 18 41  1  0
 21 42  1  0
 23 43  1  0
 23 44  1  0
 25 45  1  0
 25 46  1  0
 26 47  1  0
 26 48  1  0
 27 49  1  0
 28 50  1  0
M  END
$$$$
