
     RDKit          3D

 66 70  0  0  0  0  0  0  0  0999 V2000
    5.5231   -5.1725   -1.8595 C   0  0  0  0  0  0  0  0  0  0  0  0
    4.3175   -4.4271   -1.3532 C   0  0  0  0  0  0  0  0  0  0  0  0
    3.0479   -4.8171   -1.8063 C   0  0  0  0  0  0  0  0  0  0  0  0
    1.9011   -4.1448   -1.3830 C   0  0  0  0  0  0  0  0  0  0  0  0
    1.9958   -3.0760   -0.4906 C   0  0  0  0  0  0  0  0  0  0  0  0
    0.7888   -2.4544   -0.1011 N   0  0  0  0  0  0  0  0  0  0  0  0
    0.6281   -1.4156    0.7996 C   0  0  0  0  0  0  0  0  0  0  0  0
    1.5060   -0.8352    1.4247 O   0  0  0  0  0  0  0  0  0  0  0  0
   -0.7803   -0.9716    0.9963 C   0  0  0  0  0  0  0  0  0  0  0  0
   -1.8435   -1.8830    1.0224 C   0  0  0  0  0  0  0  0  0  0  0  0
   -3.1516   -1.4263    1.2101 C   0  0  0  0  0  0  0  0  0  0  0  0
   -3.4121   -0.0588    1.3804 C   0  0  0  0  0  0  0  0  0  0  0  0
   -4.8274    0.4345    1.6070 C   0  0  0  0  0  0  0  0  0  0  0  0
   -5.2429    1.4762    0.6620 N   0  0  0  0  0  0  0  0  0  0  0  0
   -5.2974    0.9925   -0.7338 C   0  0  0  0  0  0  0  0  0  0  0  0
   -6.2478    1.7851   -1.6738 C   0  0  0  0  0  0  0  0  0  0  0  0
   -6.4203    3.1796   -1.2577 N   0  0  0  0  0  0  0  0  0  0  0  0
   -7.2443    3.9371   -2.1891 C   0  0  0  0  0  0  0  0  0  0  0  0
   -6.9422    3.2532    0.1191 C   0  0  0  0  0  0  0  0  0  0  0  0
   -6.5243    2.0789    1.0462 C   0  0  0  0  0  0  0  0  0  0  0  0
   -2.3361    0.8430    1.3808 C   0  0  0  0  0  0  0  0  0  0  0  0
   -1.0285    0.3911    1.1936 C   0  0  0  0  0  0  0  0  0  0  0  0
    3.2601   -2.6879   -0.0398 C   0  0  0  0  0  0  0  0  0  0  0  0
    4.4360   -3.3491   -0.4467 C   0  0  0  0  0  0  0  0  0  0  0  0
    5.7183   -2.9180   -0.0382 N   0  0  0  0  0  0  0  0  0  0  0  0
    6.0784   -1.7087    0.4533 C   0  0  0  0  0  0  0  0  0  0  0  0
    5.3675   -0.6044    0.4423 N   0  0  0  0  0  0  0  0  0  0  0  0
    6.0496    0.4499    1.0207 C   0  0  0  0  0  0  0  0  0  0  0  0
    5.4336    1.7643    1.1303 C   0  0  0  0  0  0  0  0  0  0  0  0
    6.1767    2.9420    1.2637 C   0  0  0  0  0  0  0  0  0  0  0  0
    5.5237    4.1717    1.3526 C   0  0  0  0  0  0  0  0  0  0  0  0
    4.1402    4.1891    1.3034 C   0  0  0  0  0  0  0  0  0  0  0  0
    3.3843    3.0815    1.1722 N   0  0  0  0  0  0  0  0  0  0  0  0
    4.0461    1.8963    1.0859 C   0  0  0  0  0  0  0  0  0  0  0  0
    7.3143    0.1296    1.4688 C   0  0  0  0  0  0  0  0  0  0  0  0
    7.6541   -1.5176    1.1393 S   0  0  0  0  0  0  0  0  0  0  0  0
    6.2346   -4.4821   -2.3235 H   0  0  0  0  0  0  0  0  0  0  0  0
    5.2497   -5.9155   -2.6168 H   0  0  0  0  0  0  0  0  0  0  0  0
    6.0115   -5.7031   -1.0363 H   0  0  0  0  0  0  0  0  0  0  0  0
    2.9429   -5.6464   -2.5029 H   0  0  0  0  0  0  0  0  0  0  0  0
    0.9368   -4.4749   -1.7591 H   0  0  0  0  0  0  0  0  0  0  0  0
   -0.0417   -2.7824   -0.5739 H   0  0  0  0  0  0  0  0  0  0  0  0
   -1.6672   -2.9511    0.9339 H   0  0  0  0  0  0  0  0  0  0  0  0
   -3.9664   -2.1466    1.2346 H   0  0  0  0  0  0  0  0  0  0  0  0
   -4.8575    0.8282    2.6319 H   0  0  0  0  0  0  0  0  0  0  0  0
   -5.5321   -0.4074    1.5813 H   0  0  0  0  0  0  0  0  0  0  0  0
   -4.2829    1.0503   -1.1475 H   0  0  0  0  0  0  0  0  0  0  0  0
   -5.6063   -0.0605   -0.7749 H   0  0  0  0  0  0  0  0  0  0  0  0
   -7.2243    1.2814   -1.6962 H   0  0  0  0  0  0  0  0  0  0  0  0
   -5.8382    1.7391   -2.6906 H   0  0  0  0  0  0  0  0  0  0  0  0
   -6.7921    3.9411   -3.1871 H   0  0  0  0  0  0  0  0  0  0  0  0
   -7.3200    4.9833   -1.8727 H   0  0  0  0  0  0  0  0  0  0  0  0
   -8.2574    3.5272   -2.2730 H   0  0  0  0  0  0  0  0  0  0  0  0
   -6.5807    4.1916    0.5570 H   0  0  0  0  0  0  0  0  0  0  0  0
   -8.0393    3.2981    0.1228 H   0  0  0  0  0  0  0  0  0  0  0  0
   -7.3131    1.3135    1.0256 H   0  0  0  0  0  0  0  0  0  0  0  0
   -6.4730    2.4607    2.0735 H   0  0  0  0  0  0  0  0  0  0  0  0
   -2.5189    1.9077    1.5242 H   0  0  0  0  0  0  0  0  0  0  0  0
   -0.2042    1.1036    1.1998 H   0  0  0  0  0  0  0  0  0  0  0  0
    3.3473   -1.8619    0.6567 H   0  0  0  0  0  0  0  0  0  0  0  0
    6.4234   -3.6407   -0.0345 H   0  0  0  0  0  0  0  0  0  0  0  0
    7.2619    2.9254    1.2834 H   0  0  0  0  0  0  0  0  0  0  0  0
    6.0831    5.0949    1.4514 H   0  0  0  0  0  0  0  0  0  0  0  0
    3.5872    5.1217    1.3673 H   0  0  0  0  0  0  0  0  0  0  0  0
    3.4009    1.0252    0.9813 H   0  0  0  0  0  0  0  0  0  0  0  0
    8.0434    0.7517    1.9658 H   0  0  0  0  0  0  0  0  0  0  0  0
  1  2  1  0
  2  3  2  0
  3  4  1  0
  4  5  2  0
  5  6  1  0
  6  7  1  0
  7  8  2  0
  7  9  1  0
  9 10  2  0
 10 11  1  0
 11 12  2  0
 12 13  1  0
 13 14  1  0
 14 15  1  0
 15 16  1  0
 16 17  1  0
 17 18  1  0
 17 19  1  0
 19 20  1  0
 12 21  1  0
 21 22  2  0
  5 23  1  0
 23 24  2  0
 24 25  1  0
 25 26  1  0
 26 27  2  0
 27 28  1  0
 28 29  1  0
 29 30  2  0
 30 31  1  0
 31 32  2  0
 32 33  1  0
 33 34  2  0
 28 35  2  0
 35 36  1  0
 24  2  1  0
 36 26  1  0
 22  9  1  0
 34 29  1  0
 20 14  1  0
  1 37  1  0
  1 38  1  0
  1 39  1  0
  3 40  1  0
  4 41  1  0
  6 42  1  0
 10 43  1  0
 11 44  1  0
 13 45  1  0
 13 46  1  0
 15 47  1  0
 15 48  1  0
 16 49  1  0
 16 50  1  0
 18 51  1  0
 18 52  1  0
 18 53  1  0
 19 54  1  0
 19 55  1  0
 20 56  1  0
 20 57  1  0
 21 58  1  0
 22 59  1  0
 23 60  1  0
 25 61  1  0
 30 62  1  0
 31 63  1  0
 32 64  1  0
 34 65  1  0
 35 66  1  0
M  END
$$$$
