
     RDKit          3D

 26 26  0  0  0  0  0  0  0  0999 V2000
    4.0179    0.2597    1.1092 C   0  0  0  0  0  0  0  0  0  0  0  0
    2.9809    1.0038    0.4104 N   0  0  0  0  0  0  0  0  0  0  0  0
    1.7333    0.2233    0.3246 C   0  0  0  0  0  0  0  0  0  0  0  0
    0.7061    0.9335   -0.5877 C   0  0  1  0  0  0  0  0  0  0  0  0
    1.2317    1.0194   -1.9201 O   0  0  0  0  0  0  0  0  0  0  0  0
   -0.6270    0.2140   -0.6159 C   0  0  0  0  0  0  0  0  0  0  0  0
   -0.7826   -0.9930   -1.3190 C   0  0  0  0  0  0  0  0  0  0  0  0
   -2.0112   -1.6579   -1.3352 C   0  0  0  0  0  0  0  0  0  0  0  0
   -3.0935   -1.1205   -0.6438 C   0  0  0  0  0  0  0  0  0  0  0  0
   -4.3024   -1.7576   -0.6492 O   0  0  0  0  0  0  0  0  0  0  0  0
   -2.9518    0.0735    0.0624 C   0  0  0  0  0  0  0  0  0  0  0  0
   -4.0256    0.5831    0.7374 O   0  0  0  0  0  0  0  0  0  0  0  0
   -1.7267    0.7406    0.0807 C   0  0  0  0  0  0  0  0  0  0  0  0
    4.9272    0.8661    1.1646 H   0  0  0  0  0  0  0  0  0  0  0  0
    3.7137    0.0266    2.1347 H   0  0  0  0  0  0  0  0  0  0  0  0
    4.2663   -0.6712    0.5891 H   0  0  0  0  0  0  0  0  0  0  0  0
    3.2835    1.2007   -0.5479 H   0  0  0  0  0  0  0  0  0  0  0  0
    1.9562   -0.7688   -0.0884 H   0  0  0  0  0  0  0  0  0  0  0  0
    1.3130    0.0916    1.3288 H   0  0  0  0  0  0  0  0  0  0  0  0
    0.5602    1.9650   -0.2436 H   0  0  0  0  0  0  0  0  0  0  0  0
    0.4882    1.2737   -2.4938 H   0  0  0  0  0  0  0  0  0  0  0  0
    0.0598   -1.4201   -1.8615 H   0  0  0  0  0  0  0  0  0  0  0  0
   -2.1034   -2.5873   -1.8883 H   0  0  0  0  0  0  0  0  0  0  0  0
   -4.2314   -2.5681   -1.1756 H   0  0  0  0  0  0  0  0  0  0  0  0
   -3.7634    1.4010    1.1858 H   0  0  0  0  0  0  0  0  0  0  0  0
   -1.6189    1.6690    0.6351 H   0  0  0  0  0  0  0  0  0  0  0  0
  1  2  1  0
  2  3  1  0
  3  4  1  0
  4  5  1  0
  4  6  1  0
  6  7  2  0
  7  8  1  0
  8  9  2  0
  9 10  1  0
  9 11  1  0
 11 12  1  0
 11 13  2  0
 13  6  1  0
  1 14  1  0
  1 15  1  0
  1 16  1  0
  2 17  1  0
  3 18  1  0
  3 19  1  0
  4 20  1  1
  5 21  1  0
  7 22  1  0
  8 23  1  0
 10 24  1  0
 12 25  1  0
 13 26  1  0
M  END
$$$$
