
     RDKit          3D

 58 61  0  0  0  0  0  0  0  0999 V2000
    4.5558    1.9854   -2.6306 C   0  0  0  0  0  0  0  0  0  0  0  0
    4.8607    0.8577   -1.6523 C   0  0  0  0  0  0  0  0  0  0  0  0
    3.9007    0.8574   -0.4472 C   0  0  1  0  0  0  0  0  0  0  0  0
    2.5586    0.4914   -0.8551 N   0  0  0  0  0  0  0  0  0  0  0  0
    1.4462    1.1325   -0.3677 C   0  0  0  0  0  0  0  0  0  0  0  0
    1.4806    2.2016    0.2300 O   0  0  0  0  0  0  0  0  0  0  0  0
    0.1900    0.4527   -0.6651 C   0  0  0  0  0  0  0  0  0  0  0  0
   -1.0092    1.0811   -1.1156 C   0  0  0  0  0  0  0  0  0  0  0  0
   -1.9911    0.1184   -1.2617 C   0  0  0  0  0  0  0  0  0  0  0  0
   -3.3503    0.2626   -1.7287 C   0  0  0  0  0  0  0  0  0  0  0  0
   -3.6797   -0.0899   -2.8600 O   0  0  0  0  0  0  0  0  0  0  0  0
   -4.2810    0.7439   -0.8171 N   0  0  0  0  0  0  0  0  0  0  0  0
   -5.6931    0.7256   -1.1650 C   0  0  0  0  0  0  0  0  0  0  0  0
   -6.4192    1.1861    0.0907 C   0  0  0  0  0  0  0  0  0  0  0  0
   -5.4706    0.7639    1.2072 C   0  0  0  0  0  0  0  0  0  0  0  0
   -4.0821    1.0224    0.6082 C   0  0  2  0  0  0  0  0  0  0  0  0
   -3.6368    2.4636    0.8522 C   0  0  0  0  0  0  0  0  0  0  0  0
   -1.4037   -1.0798   -0.9418 N   0  0  0  0  0  0  0  0  0  0  0  0
   -0.1057   -0.8995   -0.5168 C   0  0  0  0  0  0  0  0  0  0  0  0
    0.6727   -2.0388    0.0632 C   0  0  0  0  0  0  0  0  0  0  0  0
    0.1178   -3.2837   -0.3854 O   0  0  0  0  0  0  0  0  0  0  0  0
   -1.2859   -3.3656   -0.1183 C   0  0  0  0  0  0  0  0  0  0  0  0
   -2.0292   -2.3903   -1.0173 C   0  0  0  0  0  0  0  0  0  0  0  0
    4.3331   -0.0790    0.6726 C   0  0  0  0  0  0  0  0  0  0  0  0
    4.1806    0.3339    2.0073 C   0  0  0  0  0  0  0  0  0  0  0  0
    4.5338   -0.5087    3.0642 C   0  0  0  0  0  0  0  0  0  0  0  0
    5.0293   -1.7834    2.8038 C   0  0  0  0  0  0  0  0  0  0  0  0
    5.1725   -2.2157    1.4878 C   0  0  0  0  0  0  0  0  0  0  0  0
    4.8244   -1.3726    0.4290 C   0  0  0  0  0  0  0  0  0  0  0  0
    3.5648    1.8639   -3.0799 H   0  0  0  0  0  0  0  0  0  0  0  0
    4.5944    2.9578   -2.1297 H   0  0  0  0  0  0  0  0  0  0  0  0
    5.2953    1.9886   -3.4389 H   0  0  0  0  0  0  0  0  0  0  0  0
    4.8121   -0.0949   -2.1959 H   0  0  0  0  0  0  0  0  0  0  0  0
    5.8941    0.9769   -1.3007 H   0  0  0  0  0  0  0  0  0  0  0  0
    3.8863    1.8782   -0.0436 H   0  0  0  0  0  0  0  0  0  0  0  0
    2.4292   -0.3893   -1.3330 H   0  0  0  0  0  0  0  0  0  0  0  0
   -1.1277    2.1373   -1.3267 H   0  0  0  0  0  0  0  0  0  0  0  0
   -5.9733   -0.2999   -1.4342 H   0  0  0  0  0  0  0  0  0  0  0  0
   -5.8806    1.3844   -2.0206 H   0  0  0  0  0  0  0  0  0  0  0  0
   -6.5341    2.2766    0.0864 H   0  0  0  0  0  0  0  0  0  0  0  0
   -7.4151    0.7470    0.1931 H   0  0  0  0  0  0  0  0  0  0  0  0
   -5.5966   -0.3087    1.3999 H   0  0  0  0  0  0  0  0  0  0  0  0
   -5.6534    1.2994    2.1438 H   0  0  0  0  0  0  0  0  0  0  0  0
   -3.3471    0.3347    1.0380 H   0  0  0  0  0  0  0  0  0  0  0  0
   -3.5792    2.6708    1.9256 H   0  0  0  0  0  0  0  0  0  0  0  0
   -2.6506    2.6599    0.4247 H   0  0  0  0  0  0  0  0  0  0  0  0
   -4.3301    3.1848    0.4060 H   0  0  0  0  0  0  0  0  0  0  0  0
    1.7183   -2.0288   -0.2512 H   0  0  0  0  0  0  0  0  0  0  0  0
    0.6442   -2.0055    1.1587 H   0  0  0  0  0  0  0  0  0  0  0  0
   -1.6119   -4.3888   -0.3243 H   0  0  0  0  0  0  0  0  0  0  0  0
   -1.4716   -3.1632    0.9441 H   0  0  0  0  0  0  0  0  0  0  0  0
   -1.9606   -2.6948   -2.0671 H   0  0  0  0  0  0  0  0  0  0  0  0
   -3.0790   -2.3066   -0.7209 H   0  0  0  0  0  0  0  0  0  0  0  0
    3.7694    1.3192    2.2291 H   0  0  0  0  0  0  0  0  0  0  0  0
    4.4097   -0.1710    4.0898 H   0  0  0  0  0  0  0  0  0  0  0  0
    5.3006   -2.4396    3.6280 H   0  0  0  0  0  0  0  0  0  0  0  0
    5.5441   -3.2161    1.2825 H   0  0  0  0  0  0  0  0  0  0  0  0
    4.9289   -1.7454   -0.5864 H   0  0  0  0  0  0  0  0  0  0  0  0
  1  2  1  0
  2  3  1  0
  3  4  1  0
  4  5  1  0
  5  6  2  0
  5  7  1  0
  7  8  1  0
  8  9  2  0
  9 10  1  0
 10 11  2  0
 10 12  1  0
 12 13  1  0
 13 14  1  0
 14 15  1  0
 15 16  1  0
 16 17  1  0
  9 18  1  0
 18 19  1  0
 19 20  1  0
 20 21  1  0
 21 22  1  0
 22 23  1  0
  3 24  1  0
 24 25  2  0
 25 26  1  0
 26 27  2  0
 27 28  1  0
 28 29  2  0
 19  7  2  0
 29 24  1  0
 16 12  1  0
 23 18  1  0
  1 30  1  0
  1 31  1  0
  1 32  1  0
  2 33  1  0
  2 34  1  0
  3 35  1  1
  4 36  1  0
  8 37  1  0
 13 38  1  0
 13 39  1  0
 14 40  1  0
 14 41  1  0
 15 42  1  0
 15 43  1  0
 16 44  1  1
 17 45  1  0
 17 46  1  0
 17 47  1  0
 20 48  1  0
 20 49  1  0
 22 50  1  0
 22 51  1  0
 23 52  1  0
 23 53  1  0
 25 54  1  0
 26 55  1  0
 27 56  1  0
 28 57  1  0
 29 58  1  0
M  END
$$$$
