
     RDKit          3D

 51 53  0  0  0  0  0  0  0  0999 V2000
   -4.7420    2.2106    0.2370 C   0  0  0  0  0  0  0  0  0  0  0  0
   -3.2674    2.4225    0.5774 C   0  0  0  0  0  0  0  0  0  0  0  0
   -2.5318    3.0638   -0.5997 C   0  0  0  0  0  0  0  0  0  0  0  0
   -2.5801    1.1303    1.0578 C   0  0  0  0  0  0  0  0  0  0  0  0
   -2.5785   -0.0242    0.0467 C   0  0  0  0  0  0  0  0  0  0  0  0
   -1.8361   -1.1666    0.5824 N   0  0  0  0  0  0  0  0  0  0  0  0
   -0.4461   -1.1854    0.4526 C   0  0  0  0  0  0  0  0  0  0  0  0
    0.1664   -0.1115   -0.0895 N   0  0  0  0  0  0  0  0  0  0  0  0
    1.5043   -0.0974   -0.1769 C   0  0  0  0  0  0  0  0  0  0  0  0
    2.0391    1.0522   -0.7517 N   0  0  0  0  0  0  0  0  0  0  0  0
    3.3391    1.4910   -1.0221 C   0  0  0  0  0  0  0  0  0  0  0  0
    3.5093    2.7509   -1.6225 C   0  0  0  0  0  0  0  0  0  0  0  0
    4.7810    3.2419   -1.9214 C   0  0  0  0  0  0  0  0  0  0  0  0
    4.8912    4.4496   -2.4933 F   0  0  0  0  0  0  0  0  0  0  0  0
    5.9101    2.4935   -1.6324 C   0  0  0  0  0  0  0  0  0  0  0  0
    7.1540    2.9761   -1.9262 O   0  0  0  0  0  0  0  0  0  0  0  0
    5.7545    1.2478   -1.0415 C   0  0  0  0  0  0  0  0  0  0  0  0
    6.8433    0.5164   -0.7596 F   0  0  0  0  0  0  0  0  0  0  0  0
    4.4893    0.7457   -0.7379 C   0  0  0  0  0  0  0  0  0  0  0  0
    2.2761   -1.1004    0.2514 N   0  0  0  0  0  0  0  0  0  0  0  0
    1.6510   -2.1618    0.7974 C   0  0  0  0  0  0  0  0  0  0  0  0
    0.2816   -2.2759    0.9265 C   0  0  0  0  0  0  0  0  0  0  0  0
   -0.3646   -3.3982    1.5224 N   0  0  0  0  0  0  0  0  0  0  0  0
    0.4181   -4.4182    2.1981 C   0  0  0  0  0  0  0  0  0  0  0  0
   -1.7548   -3.4926    1.5174 C   0  0  0  0  0  0  0  0  0  0  0  0
   -2.3680   -4.3934    2.0954 O   0  0  0  0  0  0  0  0  0  0  0  0
   -2.5037   -2.4767    0.6381 C   0  0  0  0  0  0  0  0  0  0  0  0
   -2.6802   -3.0666   -0.7623 C   0  0  0  0  0  0  0  0  0  0  0  0
   -5.2699    1.7355    1.0705 H   0  0  0  0  0  0  0  0  0  0  0  0
   -5.2307    3.1703    0.0365 H   0  0  0  0  0  0  0  0  0  0  0  0
   -4.8692    1.5842   -0.6517 H   0  0  0  0  0  0  0  0  0  0  0  0
   -3.2243    3.1328    1.4138 H   0  0  0  0  0  0  0  0  0  0  0  0
   -2.6071    2.4574   -1.5076 H   0  0  0  0  0  0  0  0  0  0  0  0
   -2.9555    4.0486   -0.8250 H   0  0  0  0  0  0  0  0  0  0  0  0
   -1.4707    3.2029   -0.3679 H   0  0  0  0  0  0  0  0  0  0  0  0
   -1.5520    1.3765    1.3512 H   0  0  0  0  0  0  0  0  0  0  0  0
   -3.0742    0.7886    1.9773 H   0  0  0  0  0  0  0  0  0  0  0  0
   -2.1775    0.2809   -0.9264 H   0  0  0  0  0  0  0  0  0  0  0  0
   -3.6177   -0.3214   -0.1371 H   0  0  0  0  0  0  0  0  0  0  0  0
    1.2792    1.6773   -0.9819 H   0  0  0  0  0  0  0  0  0  0  0  0
    2.6528    3.3726   -1.8679 H   0  0  0  0  0  0  0  0  0  0  0  0
    7.7998    2.3018   -1.6442 H   0  0  0  0  0  0  0  0  0  0  0  0
    4.4344   -0.2346   -0.2777 H   0  0  0  0  0  0  0  0  0  0  0  0
    2.3307   -2.9390    1.1299 H   0  0  0  0  0  0  0  0  0  0  0  0
    1.0240   -3.9533    2.9822 H   0  0  0  0  0  0  0  0  0  0  0  0
   -0.2172   -5.1761    2.6648 H   0  0  0  0  0  0  0  0  0  0  0  0
    1.0626   -4.9202    1.4697 H   0  0  0  0  0  0  0  0  0  0  0  0
   -3.4891   -2.3370    1.1009 H   0  0  0  0  0  0  0  0  0  0  0  0
   -1.7179   -3.2294   -1.2604 H   0  0  0  0  0  0  0  0  0  0  0  0
   -3.1891   -4.0355   -0.7123 H   0  0  0  0  0  0  0  0  0  0  0  0
   -3.2764   -2.4063   -1.4003 H   0  0  0  0  0  0  0  0  0  0  0  0
  1  2  1  0
  2  3  1  0
  2  4  1  0
  4  5  1  0
  5  6  1  0
  6  7  1  0
  7  8  2  0
  8  9  1  0
  9 10  1  0
 10 11  1  0
 11 12  2  0
 12 13  1  0
 13 14  1  0
 13 15  2  0
 15 16  1  0
 15 17  1  0
 17 18  1  0
 17 19  2  0
  9 20  2  0
 20 21  1  0
 21 22  2  0
 22 23  1  0
 23 24  1  0
 23 25  1  0
 25 26  2  0
 25 27  1  0
 27 28  1  0
 27  6  1  0
 22  7  1  0
 19 11  1  0
  1 29  1  0
  1 30  1  0
  1 31  1  0
  2 32  1  0
  3 33  1  0
  3 34  1  0
  3 35  1  0
  4 36  1  0
  4 37  1  0
  5 38  1  0
  5 39  1  0
 10 40  1  0
 12 41  1  0
 16 42  1  0
 19 43  1  0
 21 44  1  0
 24 45  1  0
 24 46  1  0
 24 47  1  0
 27 48  1  0
 28 49  1  0
 28 50  1  0
 28 51  1  0
M  END
$$$$
