
     RDKit          3D

 42 46  0  0  0  0  0  0  0  0999 V2000
   -4.3406    1.4336    2.6373 C   0  0  0  0  0  0  0  0  0  0  0  0
   -3.1305    1.2636    1.7178 C   0  0  0  0  0  0  0  0  0  0  0  0
   -3.3847    0.4508    0.4227 C   0  0  1  0  0  0  0  0  0  0  0  0
   -3.9828   -0.8042    0.7763 O   0  0  0  0  0  0  0  0  0  0  0  0
   -4.3149    1.2378   -0.5531 C   0  0  0  0  0  0  0  0  0  0  0  0
   -4.8907    2.2804   -0.2548 O   0  0  0  0  0  0  0  0  0  0  0  0
   -4.5233    0.6746   -1.7726 O   0  0  0  0  0  0  0  0  0  0  0  0
   -3.6550   -0.3669   -2.2691 C   0  0  0  0  0  0  0  0  0  0  0  0
   -2.3024   -0.3191   -1.6479 C   0  0  0  0  0  0  0  0  0  0  0  0
   -2.1337    0.0989   -0.3736 C   0  0  0  0  0  0  0  0  0  0  0  0
   -0.7926    0.1301    0.1952 C   0  0  0  0  0  0  0  0  0  0  0  0
    0.2445   -0.2465   -0.5595 C   0  0  0  0  0  0  0  0  0  0  0  0
    0.0732   -0.6724   -1.8616 N   0  0  0  0  0  0  0  0  0  0  0  0
   -1.1438   -0.7570   -2.4862 C   0  0  0  0  0  0  0  0  0  0  0  0
   -1.2973   -1.1567   -3.6350 O   0  0  0  0  0  0  0  0  0  0  0  0
    1.3514   -1.0460   -2.4759 C   0  0  0  0  0  0  0  0  0  0  0  0
    2.3275   -0.7809   -1.3724 C   0  0  0  0  0  0  0  0  0  0  0  0
    3.6959   -0.9291   -1.3236 C   0  0  0  0  0  0  0  0  0  0  0  0
    4.3481   -0.5918   -0.1259 C   0  0  0  0  0  0  0  0  0  0  0  0
    5.7414   -0.7167   -0.0014 C   0  0  0  0  0  0  0  0  0  0  0  0
    6.3761   -0.3786    1.1923 C   0  0  0  0  0  0  0  0  0  0  0  0
    5.6244    0.0852    2.2663 C   0  0  0  0  0  0  0  0  0  0  0  0
    4.2370    0.2108    2.1459 C   0  0  0  0  0  0  0  0  0  0  0  0
    3.5728   -0.1166    0.9728 C   0  0  0  0  0  0  0  0  0  0  0  0
    2.2348    0.0270    0.9210 N   0  0  0  0  0  0  0  0  0  0  0  0
    1.6669   -0.3101   -0.2441 C   0  0  0  0  0  0  0  0  0  0  0  0
   -5.1820    1.9204    2.1400 H   0  0  0  0  0  0  0  0  0  0  0  0
   -4.6818    0.4695    3.0269 H   0  0  0  0  0  0  0  0  0  0  0  0
   -4.0639    2.0520    3.4981 H   0  0  0  0  0  0  0  0  0  0  0  0
   -2.7295    2.2537    1.4678 H   0  0  0  0  0  0  0  0  0  0  0  0
   -2.3817    0.7533    2.3346 H   0  0  0  0  0  0  0  0  0  0  0  0
   -4.8709   -0.6154    1.1275 H   0  0  0  0  0  0  0  0  0  0  0  0
   -4.1385   -1.3347   -2.0999 H   0  0  0  0  0  0  0  0  0  0  0  0
   -3.5979   -0.2066   -3.3503 H   0  0  0  0  0  0  0  0  0  0  0  0
   -0.6155    0.4467    1.2163 H   0  0  0  0  0  0  0  0  0  0  0  0
    1.3185   -2.1021   -2.7602 H   0  0  0  0  0  0  0  0  0  0  0  0
    1.5272   -0.4130   -3.3509 H   0  0  0  0  0  0  0  0  0  0  0  0
    4.2463   -1.2944   -2.1846 H   0  0  0  0  0  0  0  0  0  0  0  0
    6.3417   -1.0782   -0.8334 H   0  0  0  0  0  0  0  0  0  0  0  0
    7.4550   -0.4770    1.2839 H   0  0  0  0  0  0  0  0  0  0  0  0
    6.1122    0.3509    3.2008 H   0  0  0  0  0  0  0  0  0  0  0  0
    3.6594    0.5745    2.9926 H   0  0  0  0  0  0  0  0  0  0  0  0
  1  2  1  0
  2  3  1  0
  3  4  1  1
  3  5  1  0
  5  6  2  0
  5  7  1  0
  7  8  1  0
  8  9  1  0
  9 10  2  0
 10 11  1  0
 11 12  2  0
 12 13  1  0
 13 14  1  0
 14 15  2  0
 13 16  1  0
 16 17  1  0
 17 18  2  0
 18 19  1  0
 19 20  2  0
 20 21  1  0
 21 22  2  0
 22 23  1  0
 23 24  2  0
 24 25  1  0
 25 26  2  0
 10  3  1  0
 26 12  1  0
 14  9  1  0
 26 17  1  0
 24 19  1  0
  1 27  1  0
  1 28  1  0
  1 29  1  0
  2 30  1  0
  2 31  1  0
  4 32  1  0
  8 33  1  0
  8 34  1  0
 11 35  1  0
 16 36  1  0
 16 37  1  0
 18 38  1  0
 20 39  1  0
 21 40  1  0
 22 41  1  0
 23 42  1  0
M  END
$$$$
