
     RDKit          3D

 41 42  0  0  0  0  0  0  0  0999 V2000
   -5.5081    2.3431    0.7319 C   0  0  0  0  0  0  0  0  0  0  0  0
   -5.2784    1.0747    1.5350 C   0  0  0  0  0  0  0  0  0  0  0  0
   -5.2784   -0.0707    0.6847 O   0  0  0  0  0  0  0  0  0  0  0  0
   -4.1030   -0.4776    0.1219 C   0  0  0  0  0  0  0  0  0  0  0  0
   -2.8765    0.1781    0.1941 C   0  0  0  0  0  0  0  0  0  0  0  0
   -1.7464   -0.3583   -0.4405 C   0  0  0  0  0  0  0  0  0  0  0  0
   -1.8266   -1.5605   -1.1457 C   0  0  0  0  0  0  0  0  0  0  0  0
   -0.7432   -2.1524   -1.8256 N   0  0  0  0  0  0  0  0  0  0  0  0
    0.6045   -1.9358   -1.7535 C   0  0  0  0  0  0  0  0  0  0  0  0
    1.5473   -2.4951   -3.0157 S   0  0  0  0  0  0  0  0  0  0  0  0
    1.0709   -1.3267   -0.6215 N   0  0  0  0  0  0  0  0  0  0  0  0
    2.4738   -1.0704   -0.3165 C   0  0  0  0  0  0  0  0  0  0  0  0
    2.6103   -0.2142    0.9393 C   0  0  0  0  0  0  0  0  0  0  0  0
    4.0667    0.0050    1.3449 C   0  0  0  0  0  0  0  0  0  0  0  0
    4.8082    0.8409    0.4255 N   0  0  0  0  0  0  0  0  0  0  0  0
    4.7121    2.1996    0.3145 C   0  0  0  0  0  0  0  0  0  0  0  0
    5.6211    2.5391   -0.6603 C   0  0  0  0  0  0  0  0  0  0  0  0
    6.2688    1.4259   -1.1292 N   0  0  0  0  0  0  0  0  0  0  0  0
    5.7620    0.4186   -0.4549 C   0  0  0  0  0  0  0  0  0  0  0  0
   -3.0667   -2.1961   -1.2467 C   0  0  0  0  0  0  0  0  0  0  0  0
   -4.1913   -1.6626   -0.6099 C   0  0  0  0  0  0  0  0  0  0  0  0
   -6.4331    2.2660    0.1508 H   0  0  0  0  0  0  0  0  0  0  0  0
   -5.5801    3.2113    1.3932 H   0  0  0  0  0  0  0  0  0  0  0  0
   -4.6987    2.5167    0.0166 H   0  0  0  0  0  0  0  0  0  0  0  0
   -4.3826    1.1329    2.1630 H   0  0  0  0  0  0  0  0  0  0  0  0
   -6.1200    0.9467    2.2255 H   0  0  0  0  0  0  0  0  0  0  0  0
   -2.7620    1.1238    0.7126 H   0  0  0  0  0  0  0  0  0  0  0  0
   -0.8287    0.2213   -0.4125 H   0  0  0  0  0  0  0  0  0  0  0  0
   -0.9927   -2.8087   -2.5591 H   0  0  0  0  0  0  0  0  0  0  0  0
    0.4710   -1.4917    0.1774 H   0  0  0  0  0  0  0  0  0  0  0  0
    2.9298   -0.5710   -1.1774 H   0  0  0  0  0  0  0  0  0  0  0  0
    2.9667   -2.0390   -0.1764 H   0  0  0  0  0  0  0  0  0  0  0  0
    2.1044    0.7474    0.7866 H   0  0  0  0  0  0  0  0  0  0  0  0
    2.0902   -0.7095    1.7690 H   0  0  0  0  0  0  0  0  0  0  0  0
    4.5944   -0.9509    1.4408 H   0  0  0  0  0  0  0  0  0  0  0  0
    4.1093    0.4997    2.3226 H   0  0  0  0  0  0  0  0  0  0  0  0
    4.0329    2.7932    0.9097 H   0  0  0  0  0  0  0  0  0  0  0  0
    5.8462    3.5247   -1.0468 H   0  0  0  0  0  0  0  0  0  0  0  0
    6.0479   -0.6192   -0.5686 H   0  0  0  0  0  0  0  0  0  0  0  0
   -3.1754   -3.1219   -1.8058 H   0  0  0  0  0  0  0  0  0  0  0  0
   -5.1467   -2.1763   -0.6878 H   0  0  0  0  0  0  0  0  0  0  0  0
  1  2  1  0
  2  3  1  0
  3  4  1  0
  4  5  2  0
  5  6  1  0
  6  7  2  0
  7  8  1  0
  8  9  1  0
  9 10  2  0
  9 11  1  0
 11 12  1  0
 12 13  1  0
 13 14  1  0
 14 15  1  0
 15 16  1  0
 16 17  2  0
 17 18  1  0
 18 19  2  0
  7 20  1  0
 20 21  2  0
 21  4  1  0
 19 15  1  0
  1 22  1  0
  1 23  1  0
  1 24  1  0
  2 25  1  0
  2 26  1  0
  5 27  1  0
  6 28  1  0
  8 29  1  0
 11 30  1  0
 12 31  1  0
 12 32  1  0
 13 33  1  0
 13 34  1  0
 14 35  1  0
 14 36  1  0
 16 37  1  0
 17 38  1  0
 19 39  1  0
 20 40  1  0
 21 41  1  0
M  END
$$$$
