
     RDKit          3D

 40 43  0  0  0  0  0  0  0  0999 V2000
    6.1875    0.1324    0.1569 C   0  0  0  0  0  0  0  0  0  0  0  0
    4.8549   -0.1214   -0.4406 C   0  0  0  0  0  0  0  0  0  0  0  0
    4.5760   -0.6567   -1.6862 C   0  0  0  0  0  0  0  0  0  0  0  0
    3.2319   -0.7480   -1.8925 O   0  0  0  0  0  0  0  0  0  0  0  0
    2.6466   -0.2645   -0.7716 C   0  0  0  0  0  0  0  0  0  0  0  0
    3.5841    0.1340    0.1417 C   0  0  0  0  0  0  0  0  0  0  0  0
    3.1403    0.6731    1.4014 C   0  0  0  0  0  0  0  0  0  0  0  0
    3.9170    0.9610    2.3025 O   0  0  0  0  0  0  0  0  0  0  0  0
    1.6198    0.8851    1.5814 C   0  0  0  0  0  0  0  0  0  0  0  0
    1.2381    1.5640    2.5258 O   0  0  0  0  0  0  0  0  0  0  0  0
    0.6617    0.2939    0.5616 C   0  0  0  0  0  0  0  0  0  0  0  0
    1.2087   -0.2355   -0.6319 C   0  0  0  0  0  0  0  0  0  0  0  0
    0.3712   -0.7283   -1.6281 C   0  0  0  0  0  0  0  0  0  0  0  0
   -1.0093   -0.6889   -1.4579 C   0  0  0  0  0  0  0  0  0  0  0  0
   -1.5965   -0.1708   -0.2864 C   0  0  0  0  0  0  0  0  0  0  0  0
   -0.7495    0.2893    0.7583 C   0  0  0  0  0  0  0  0  0  0  0  0
   -1.3461    0.7909    2.0590 C   0  0  0  0  0  0  0  0  0  0  0  0
   -2.8028    0.4098    2.2821 C   0  0  0  0  0  0  0  0  0  0  0  0
   -3.6066    0.6993    1.0299 C   0  0  0  0  0  0  0  0  0  0  0  0
   -3.1316   -0.1572   -0.1668 C   0  0  0  0  0  0  0  0  0  0  0  0
   -3.6320   -1.6095   -0.0017 C   0  0  0  0  0  0  0  0  0  0  0  0
   -3.7952    0.4465   -1.4275 C   0  0  0  0  0  0  0  0  0  0  0  0
    6.3007    1.1925    0.4052 H   0  0  0  0  0  0  0  0  0  0  0  0
    6.3144   -0.4541    1.0723 H   0  0  0  0  0  0  0  0  0  0  0  0
    6.9911   -0.1407   -0.5346 H   0  0  0  0  0  0  0  0  0  0  0  0
    5.1936   -1.0087   -2.5020 H   0  0  0  0  0  0  0  0  0  0  0  0
    0.7826   -1.1431   -2.5463 H   0  0  0  0  0  0  0  0  0  0  0  0
   -1.6283   -1.0854   -2.2607 H   0  0  0  0  0  0  0  0  0  0  0  0
   -1.2609    1.8845    2.0753 H   0  0  0  0  0  0  0  0  0  0  0  0
   -0.7868    0.3814    2.9077 H   0  0  0  0  0  0  0  0  0  0  0  0
   -2.8809   -0.6481    2.5570 H   0  0  0  0  0  0  0  0  0  0  0  0
   -3.2035    0.9819    3.1269 H   0  0  0  0  0  0  0  0  0  0  0  0
   -4.6715    0.5237    1.2279 H   0  0  0  0  0  0  0  0  0  0  0  0
   -3.5099    1.7680    0.7927 H   0  0  0  0  0  0  0  0  0  0  0  0
   -4.7161   -1.6381    0.1567 H   0  0  0  0  0  0  0  0  0  0  0  0
   -3.1554   -2.1134    0.8461 H   0  0  0  0  0  0  0  0  0  0  0  0
   -3.4189   -2.2135   -0.8915 H   0  0  0  0  0  0  0  0  0  0  0  0
   -4.8791    0.5425   -1.2915 H   0  0  0  0  0  0  0  0  0  0  0  0
   -3.6433   -0.1716   -2.3185 H   0  0  0  0  0  0  0  0  0  0  0  0
   -3.3959    1.4440   -1.6459 H   0  0  0  0  0  0  0  0  0  0  0  0
  1  2  1  0
  2  3  2  0
  3  4  1  0
  4  5  1  0
  5  6  2  0
  6  7  1  0
  7  8  2  0
  7  9  1  0
  9 10  2  0
  9 11  1  0
 11 12  2  0
 12 13  1  0
 13 14  2  0
 14 15  1  0
 15 16  2  0
 16 17  1  0
 17 18  1  0
 18 19  1  0
 19 20  1  0
 20 21  1  0
 20 22  1  0
  6  2  1  0
 16 11  1  0
 12  5  1  0
 20 15  1  0
  1 23  1  0
  1 24  1  0
  1 25  1  0
  3 26  1  0
 13 27  1  0
 14 28  1  0
 17 29  1  0
 17 30  1  0
 18 31  1  0
 18 32  1  0
 19 33  1  0
 19 34  1  0
 21 35  1  0
 21 36  1  0
 21 37  1  0
 22 38  1  0
 22 39  1  0
 22 40  1  0
M  END
$$$$
