
     RDKit          3D

 26 24  0  0  0  0  0  0  0  0999 V2000
   -2.6355   -0.5745   -0.1290 C   0  0  0  0  0  0  0  0  0  0  0  0
   -1.2009   -0.0358   -0.1137 N   0  0  0  0  0  4  0  0  0  0  0  0
   -0.5418   -0.4282   -1.4304 C   0  0  0  0  0  0  0  0  0  0  0  0
   -1.2625    1.4848   -0.0113 C   0  0  0  0  0  0  0  0  0  0  0  0
   -0.4789   -0.6678    1.1028 C   0  0  0  0  0  0  0  0  0  0  0  0
    0.9215   -0.1267    1.4229 C   0  0  0  0  0  0  0  0  0  0  0  0
    1.9042   -0.6062    0.4930 O   0  0  0  0  0  0  0  0  0  0  0  0
    2.5911    0.3443   -0.1806 C   0  0  0  0  0  0  0  0  0  0  0  0
    3.5820   -0.2194   -0.9017 N   0  0  0  0  0  0  0  0  0  0  0  0
    2.3407    1.5371   -0.1776 O   0  0  0  0  0  0  0  0  0  0  0  0
    0.0000    0.0000    0.0000 Cl  0  0  0  0  0 15  0  0  0  0  0  0
   -3.1614   -0.1461   -0.9877 H   0  0  0  0  0  0  0  0  0  0  0  0
   -2.5928   -1.6646   -0.2117 H   0  0  0  0  0  0  0  0  0  0  0  0
   -3.1269   -0.2771    0.8022 H   0  0  0  0  0  0  0  0  0  0  0  0
   -0.3922   -1.5113   -1.4371 H   0  0  0  0  0  0  0  0  0  0  0  0
   -1.2045   -0.1316   -2.2496 H   0  0  0  0  0  0  0  0  0  0  0  0
    0.4040    0.1008   -1.5318 H   0  0  0  0  0  0  0  0  0  0  0  0
   -1.9012    1.8588   -0.8174 H   0  0  0  0  0  0  0  0  0  0  0  0
   -0.2568    1.8931   -0.1224 H   0  0  0  0  0  0  0  0  0  0  0  0
   -1.6839    1.7468    0.9633 H   0  0  0  0  0  0  0  0  0  0  0  0
   -1.1303   -0.4878    1.9662 H   0  0  0  0  0  0  0  0  0  0  0  0
   -0.4383   -1.7462    0.9100 H   0  0  0  0  0  0  0  0  0  0  0  0
    1.2187   -0.5331    2.3970 H   0  0  0  0  0  0  0  0  0  0  0  0
    0.9206    0.9610    1.5428 H   0  0  0  0  0  0  0  0  0  0  0  0
    3.8627   -1.1687   -0.7013 H   0  0  0  0  0  0  0  0  0  0  0  0
    4.2622    0.3985   -1.3256 H   0  0  0  0  0  0  0  0  0  0  0  0
  1  2  1  0
  2  3  1  0
  2  4  1  0
  2  5  1  0
  5  6  1  0
  6  7  1  0
  7  8  1  0
  8  9  1  0
  8 10  2  0
  1 12  1  0
  1 13  1  0
  1 14  1  0
  3 15  1  0
  3 16  1  0
  3 17  1  0
  4 18  1  0
  4 19  1  0
  4 20  1  0
  5 21  1  0
  5 22  1  0
  6 23  1  0
  6 24  1  0
  9 25  1  0
  9 26  1  0
M  CHG  2   2   1  11  -1
M  END
$$$$
