
     RDKit          3D

 45 46  0  0  0  0  0  0  0  0999 V2000
    3.8238   -2.0034   -1.5109 C   0  0  0  0  0  0  0  0  0  0  0  0
    3.2130   -0.7959   -0.8236 C   0  0  1  0  0  0  0  0  0  0  0  0
    2.0227   -1.1052    0.1392 C   0  0  2  0  0  0  0  0  0  0  0  0
    0.8575   -0.1866    0.0494 N   0  0  0  0  0  0  0  0  0  0  0  0
    0.0532   -0.1721   -1.0728 C   0  0  0  0  0  0  0  0  0  0  0  0
    0.3128   -0.7700   -2.1063 O   0  0  0  0  0  0  0  0  0  0  0  0
   -1.1974    0.7012   -0.9530 C   0  0  0  0  0  0  0  0  0  0  0  0
   -2.0381    0.5764    0.0379 N   0  0  0  0  0  0  0  0  0  0  0  0
   -1.6991   -0.4658    0.9170 O   0  0  0  0  0  0  0  0  0  0  0  0
   -2.7994   -0.7705    1.7883 C   0  0  0  0  0  0  0  0  0  0  0  0
   -2.3042   -1.8809    2.7201 C   0  0  0  0  0  0  0  0  0  0  0  0
   -3.1746    0.4602    2.6226 C   0  0  0  0  0  0  0  0  0  0  0  0
   -4.0236   -1.3125    1.0379 C   0  0  0  0  0  0  0  0  0  0  0  0
   -5.1966   -1.1522    1.3425 O   0  0  0  0  0  0  0  0  0  0  0  0
   -3.7094   -2.0910   -0.0224 O   0  0  0  0  0  0  0  0  0  0  0  0
   -1.4710    1.7435   -1.9448 C   0  0  0  0  0  0  0  0  0  0  0  0
   -0.7194    1.9867   -3.0816 C   0  0  0  0  0  0  0  0  0  0  0  0
   -1.3780    3.2982   -3.9666 S   0  0  0  0  0  0  0  0  0  0  0  0
   -2.6185    3.4551   -2.7955 C   0  0  0  0  0  0  0  0  0  0  0  0
   -3.5709    4.3948   -2.9014 N   0  0  0  0  0  0  0  0  0  0  0  0
   -2.5536    2.6142   -1.7961 N   0  0  0  0  0  0  0  0  0  0  0  0
    3.0665   -0.7706    1.2737 C   0  0  0  0  0  0  0  0  0  0  0  0
    3.1698   -0.8184    2.4768 O   0  0  0  0  0  0  0  0  0  0  0  0
    3.9927   -0.3191    0.3403 N   0  0  0  0  0  0  0  0  0  0  0  0
    5.6088   -0.2351    0.6171 S   0  0  0  0  0  6  0  0  0  0  0  0
    6.2054    0.5161   -0.4612 O   0  0  0  0  0  0  0  0  0  0  0  0
    6.0649   -1.5612    0.9621 O   0  0  0  0  0  0  0  0  0  0  0  0
    5.7112    0.6473    1.9571 O   0  0  0  0  0  0  0  0  0  0  0  0
    3.1291   -2.4067   -2.2553 H   0  0  0  0  0  0  0  0  0  0  0  0
    4.7456   -1.7300   -2.0349 H   0  0  0  0  0  0  0  0  0  0  0  0
    4.0571   -2.8059   -0.8028 H   0  0  0  0  0  0  0  0  0  0  0  0
    3.0286    0.0212   -1.5316 H   0  0  0  0  0  0  0  0  0  0  0  0
    1.6997   -2.1522    0.1591 H   0  0  0  0  0  0  0  0  0  0  0  0
    0.4363    0.2026    0.8915 H   0  0  0  0  0  0  0  0  0  0  0  0
   -3.0810   -2.1964    3.4248 H   0  0  0  0  0  0  0  0  0  0  0  0
   -1.9916   -2.7620    2.1472 H   0  0  0  0  0  0  0  0  0  0  0  0
   -1.4268   -1.5524    3.2890 H   0  0  0  0  0  0  0  0  0  0  0  0
   -3.8975    0.2113    3.4069 H   0  0  0  0  0  0  0  0  0  0  0  0
   -3.6269    1.2410    2.0006 H   0  0  0  0  0  0  0  0  0  0  0  0
   -2.2872    0.9000    3.0914 H   0  0  0  0  0  0  0  0  0  0  0  0
   -4.5802   -2.3260   -0.4055 H   0  0  0  0  0  0  0  0  0  0  0  0
    0.1590    1.4718   -3.4448 H   0  0  0  0  0  0  0  0  0  0  0  0
   -3.3583    5.2190   -3.4496 H   0  0  0  0  0  0  0  0  0  0  0  0
   -4.0772    4.5904   -2.0446 H   0  0  0  0  0  0  0  0  0  0  0  0
    5.4229    0.0910    2.7126 H   0  0  0  0  0  0  0  0  0  0  0  0
  1  2  1  0
  2  3  1  0
  3  4  1  0
  4  5  1  0
  5  6  2  0
  5  7  1  0
  7  8  2  0
  8  9  1  0
  9 10  1  0
 10 11  1  0
 10 12  1  0
 10 13  1  0
 13 14  2  0
 13 15  1  0
  7 16  1  0
 16 17  2  0
 17 18  1  0
 18 19  1  0
 19 20  1  0
 19 21  2  0
  3 22  1  0
 22 23  2  0
 22 24  1  0
 24 25  1  0
 25 26  2  0
 25 27  2  0
 25 28  1  0
 24  2  1  0
 21 16  1  0
  1 29  1  0
  1 30  1  0
  1 31  1  0
  2 32  1  6
  3 33  1  1
  4 34  1  0
 11 35  1  0
 11 36  1  0
 11 37  1  0
 12 38  1  0
 12 39  1  0
 12 40  1  0
 15 41  1  0
 17 42  1  0
 20 43  1  0
 20 44  1  0
 28 45  1  0
M  END
$$$$
