
     RDKit          3D

 44 46  0  0  0  0  0  0  0  0999 V2000
   -2.2658   -1.1077    2.0033 C   0  0  0  0  0  0  0  0  0  0  0  0
   -3.1489   -0.1956    1.1918 C   0  0  0  0  0  0  0  0  0  0  0  0
   -4.5312   -0.4579    1.1516 C   0  0  0  0  0  0  0  0  0  0  0  0
   -5.3398    0.3795    0.4142 C   0  0  0  0  0  0  0  0  0  0  0  0
   -4.8321    1.4526   -0.2740 C   0  0  0  0  0  0  0  0  0  0  0  0
   -3.4870    1.7476   -0.2621 C   0  0  0  0  0  0  0  0  0  0  0  0
   -2.6210    0.9211    0.4824 C   0  0  0  0  0  0  0  0  0  0  0  0
   -1.1352    1.2494    0.4762 C   0  0  0  0  0  0  0  0  0  0  0  0
   -0.4513    0.8118   -0.8141 C   0  0  0  0  0  0  0  0  0  0  0  0
   -0.6631    1.4479   -1.8551 O   0  0  0  0  0  0  0  0  0  0  0  0
    0.3017   -0.4336   -0.7985 C   0  0  0  0  0  0  0  0  0  0  0  0
   -0.0920   -1.6066   -1.9970 S   0  0  0  0  0  0  0  0  0  0  0  0
    1.0190   -2.7371   -1.3636 C   0  0  0  0  0  0  0  0  0  0  0  0
    1.7017   -2.2350   -0.2809 C   0  0  0  0  0  0  0  0  0  0  0  0
    1.3185   -0.8884    0.0229 C   0  0  0  0  0  0  0  0  0  0  0  0
    2.0686    0.0254    1.3348 S   0  0  0  0  0  6  0  0  0  0  0  0
    1.7862    1.3976    0.9283 O   0  0  0  0  0  0  0  0  0  0  0  0
    1.2424   -0.4785    2.4299 O   0  0  0  0  0  0  0  0  0  0  0  0
    3.5893   -0.4400    1.3790 N   0  0  0  0  0  2  0  0  0  0  0  0
    4.3481   -0.0885    0.3139 C   0  0  0  0  0  0  0  0  0  0  0  0
    3.9427    0.5696   -0.8128 O   0  0  0  0  0  0  0  0  0  0  0  0
    5.0102    0.7199   -1.6842 N   0  0  0  0  0  0  0  0  0  0  0  0
    6.0569    0.1592   -1.0678 C   0  0  0  0  0  0  0  0  0  0  0  0
    7.3838    0.1480   -1.7192 C   0  0  0  0  0  0  0  0  0  0  0  0
    5.6907   -0.3680    0.1925 C   0  0  0  0  0  0  0  0  0  0  0  0
    6.7309   -1.1691    1.2725 Cl  0  0  0  0  0  0  0  0  0  0  0  0
   -5.7951    2.1484   -0.9365 O   0  0  0  0  0  0  0  0  0  0  0  0
   -6.9640    1.3794   -0.5943 C   0  0  0  0  0  0  0  0  0  0  0  0
   -6.6882    0.2612    0.2736 O   0  0  0  0  0  0  0  0  0  0  0  0
    0.0000    0.0000    0.0000 Na  0  0  0  0  0 15  0  0  0  0  0  0
   -1.8005   -0.5549    2.8251 H   0  0  0  0  0  0  0  0  0  0  0  0
   -2.8394   -1.9295    2.4458 H   0  0  0  0  0  0  0  0  0  0  0  0
   -1.4949   -1.5568    1.3717 H   0  0  0  0  0  0  0  0  0  0  0  0
   -4.9622   -1.2985    1.6845 H   0  0  0  0  0  0  0  0  0  0  0  0
   -3.1051    2.5942   -0.8254 H   0  0  0  0  0  0  0  0  0  0  0  0
   -1.0038    2.3349    0.5735 H   0  0  0  0  0  0  0  0  0  0  0  0
   -0.6599    0.8259    1.3580 H   0  0  0  0  0  0  0  0  0  0  0  0
    1.1262   -3.7111   -1.8184 H   0  0  0  0  0  0  0  0  0  0  0  0
    2.4587   -2.7897    0.2590 H   0  0  0  0  0  0  0  0  0  0  0  0
    7.7598   -0.8762   -1.8088 H   0  0  0  0  0  0  0  0  0  0  0  0
    8.1023    0.7297   -1.1331 H   0  0  0  0  0  0  0  0  0  0  0  0
    7.3443    0.5781   -2.7254 H   0  0  0  0  0  0  0  0  0  0  0  0
   -7.6833    2.0393   -0.0955 H   0  0  0  0  0  0  0  0  0  0  0  0
   -7.4183    1.0018   -1.5178 H   0  0  0  0  0  0  0  0  0  0  0  0
  1  2  1  0
  2  3  2  0
  3  4  1  0
  4  5  2  0
  5  6  1  0
  6  7  2  0
  7  8  1  0
  8  9  1  0
  9 10  2  0
  9 11  1  0
 11 12  1  0
 12 13  1  0
 13 14  2  0
 14 15  1  0
 15 16  1  0
 16 17  2  0
 16 18  2  0
 16 19  1  0
 19 20  1  0
 20 21  1  0
 21 22  1  0
 22 23  2  0
 23 24  1  0
 23 25  1  0
 25 26  1  0
  5 27  1  0
 27 28  1  0
 28 29  1  0
  7  2  1  0
 15 11  2  0
 25 20  2  0
 29  4  1  0
  1 31  1  0
  1 32  1  0
  1 33  1  0
  3 34  1  0
  6 35  1  0
  8 36  1  0
  8 37  1  0
 13 38  1  0
 14 39  1  0
 24 40  1  0
 24 41  1  0
 24 42  1  0
 28 43  1  0
 28 44  1  0
M  CHG  2  19  -1  30   1
M  END
$$$$
