
     RDKit          3D

 62 66  0  0  0  0  0  0  0  0999 V2000
    2.8902   -2.7915    0.0500 O   0  0  0  0  0  0  0  0  0  0  0  0
    3.5362   -1.9583   -0.5722 C   0  0  0  0  0  0  0  0  0  0  0  0
    3.1500   -0.5270   -0.6783 C   0  0  0  0  0  0  0  0  0  0  0  0
    2.0582   -0.0551   -0.0581 C   0  0  0  0  0  0  0  0  0  0  0  0
    1.5355    1.2755   -0.0441 C   0  0  0  0  0  0  0  0  0  0  0  0
    2.2653    2.4405    0.0095 C   0  0  0  0  0  0  0  0  0  0  0  0
    1.3669    3.4818    0.0697 N   0  0  0  0  0  0  0  0  0  0  0  0
    1.6449    4.8778    0.1197 C   0  0  0  0  0  0  0  0  0  0  0  0
    0.5800    5.7896    0.2000 C   0  0  0  0  0  0  0  0  0  0  0  0
    0.8293    7.1627    0.2523 C   0  0  0  0  0  0  0  0  0  0  0  0
    2.1391    7.6355    0.2236 C   0  0  0  0  0  0  0  0  0  0  0  0
    3.2020    6.7375    0.1410 C   0  0  0  0  0  0  0  0  0  0  0  0
    2.9607    5.3612    0.0882 C   0  0  0  0  0  0  0  0  0  0  0  0
    0.0910    3.0279    0.1016 N   0  0  0  0  0  0  0  0  0  0  0  0
    0.1741    1.6923    0.0139 C   0  0  0  0  0  0  0  0  0  0  0  0
   -1.0462    0.8828    0.0032 C   0  0  0  0  0  0  0  0  0  0  0  0
   -2.1057    1.2050    0.8626 C   0  0  0  0  0  0  0  0  0  0  0  0
   -3.2839    0.4482    0.8682 C   0  0  0  0  0  0  0  0  0  0  0  0
   -3.4196   -0.6395    0.0069 C   0  0  0  0  0  0  0  0  0  0  0  0
   -4.5099   -1.4587   -0.0919 O   0  0  0  0  0  0  0  0  0  0  0  0
   -5.6504   -1.1181    0.6967 C   0  0  0  0  0  0  0  0  0  0  0  0
   -6.7857   -2.0717    0.3916 C   0  0  0  0  0  0  0  0  0  0  0  0
   -7.0598   -2.4701   -0.9262 C   0  0  0  0  0  0  0  0  0  0  0  0
   -8.1320   -3.3215   -1.2047 C   0  0  0  0  0  0  0  0  0  0  0  0
   -8.9454   -3.7709   -0.1672 C   0  0  0  0  0  0  0  0  0  0  0  0
  -10.2677   -4.8179   -0.5085 Cl  0  0  0  0  0  0  0  0  0  0  0  0
   -8.6979   -3.3737    1.1450 C   0  0  0  0  0  0  0  0  0  0  0  0
   -7.6243   -2.5233    1.4232 C   0  0  0  0  0  0  0  0  0  0  0  0
   -2.3689   -0.9608   -0.8560 C   0  0  0  0  0  0  0  0  0  0  0  0
   -1.1922   -0.2044   -0.8649 C   0  0  0  0  0  0  0  0  0  0  0  0
    4.2573    0.2986   -1.6944 S   0  0  0  0  0  0  0  0  0  0  0  0
    5.2221   -1.1440   -1.9878 C   0  0  0  0  0  0  0  0  0  0  0  0
    6.5356   -1.1199   -3.0142 S   0  0  0  0  0  0  0  0  0  0  0  0
    4.7045   -2.2069   -1.2726 N   0  0  0  0  0  0  0  0  0  0  0  0
    5.2398   -3.5755   -1.2827 C   0  0  0  0  0  0  0  0  0  0  0  0
    5.6861   -4.0998    0.0772 C   0  0  0  0  0  0  0  0  0  0  0  0
    7.2426   -3.4262    0.6105 S   0  0  0  0  0  6  0  0  0  0  0  0
    8.1964   -3.4678   -0.4704 O   0  0  0  0  0  0  0  0  0  0  0  0
    7.5518   -3.9285    1.9295 O   0  0  0  0  0  0  0  0  0  0  0  0
    6.7888   -1.8922    0.8317 O   0  0  0  0  0  0  0  0  0  0  0  0
    1.4647   -0.7780    0.5058 H   0  0  0  0  0  0  0  0  0  0  0  0
    3.3297    2.6121    0.0270 H   0  0  0  0  0  0  0  0  0  0  0  0
   -0.4523    5.4446    0.2215 H   0  0  0  0  0  0  0  0  0  0  0  0
   -0.0012    7.8615    0.3140 H   0  0  0  0  0  0  0  0  0  0  0  0
    2.3317    8.7046    0.2634 H   0  0  0  0  0  0  0  0  0  0  0  0
    4.2231    7.1105    0.1161 H   0  0  0  0  0  0  0  0  0  0  0  0
    3.8199    4.7019    0.0197 H   0  0  0  0  0  0  0  0  0  0  0  0
   -2.0180    2.0561    1.5361 H   0  0  0  0  0  0  0  0  0  0  0  0
   -4.0686    0.7418    1.5571 H   0  0  0  0  0  0  0  0  0  0  0  0
   -5.9927   -0.1020    0.4651 H   0  0  0  0  0  0  0  0  0  0  0  0
   -5.3884   -1.1937    1.7589 H   0  0  0  0  0  0  0  0  0  0  0  0
   -6.4317   -2.1206   -1.7444 H   0  0  0  0  0  0  0  0  0  0  0  0
   -8.3248   -3.6276   -2.2293 H   0  0  0  0  0  0  0  0  0  0  0  0
   -9.3354   -3.7201    1.9545 H   0  0  0  0  0  0  0  0  0  0  0  0
   -7.4470   -2.2176    2.4523 H   0  0  0  0  0  0  0  0  0  0  0  0
   -2.4714   -1.8035   -1.5359 H   0  0  0  0  0  0  0  0  0  0  0  0
   -0.4083   -0.4657   -1.5704 H   0  0  0  0  0  0  0  0  0  0  0  0
    4.4189   -4.2152   -1.6316 H   0  0  0  0  0  0  0  0  0  0  0  0
    6.0422   -3.6789   -2.0162 H   0  0  0  0  0  0  0  0  0  0  0  0
    5.8464   -5.1819    0.0116 H   0  0  0  0  0  0  0  0  0  0  0  0
    4.9618   -3.9194    0.8753 H   0  0  0  0  0  0  0  0  0  0  0  0
    7.1425   -1.6024    1.7026 H   0  0  0  0  0  0  0  0  0  0  0  0
  1  2  2  0
  2  3  1  0
  3  4  2  0
  4  5  1  0
  5  6  2  0
  6  7  1  0
  7  8  1  0
  8  9  2  0
  9 10  1  0
 10 11  2  0
 11 12  1  0
 12 13  2  0
  7 14  1  0
 14 15  2  0
 15 16  1  0
 16 17  2  0
 17 18  1  0
 18 19  2  0
 19 20  1  0
 20 21  1  0
 21 22  1  0
 22 23  2  0
 23 24  1  0
 24 25  2  0
 25 26  1  0
 25 27  1  0
 27 28  2  0
 19 29  1  0
 29 30  2  0
  3 31  1  0
 31 32  1  0
 32 33  2  0
 32 34  1  0
 34 35  1  0
 35 36  1  0
 36 37  1  0
 37 38  2  0
 37 39  2  0
 37 40  1  0
 34  2  1  0
 15  5  1  0
 30 16  1  0
 13  8  1  0
 28 22  1  0
  4 41  1  0
  6 42  1  0
  9 43  1  0
 10 44  1  0
 11 45  1  0
 12 46  1  0
 13 47  1  0
 17 48  1  0
 18 49  1  0
 21 50  1  0
 21 51  1  0
 23 52  1  0
 24 53  1  0
 27 54  1  0
 28 55  1  0
 29 56  1  0
 30 57  1  0
 35 58  1  0
 35 59  1  0
 36 60  1  0
 36 61  1  0
 40 62  1  0
M  END
$$$$
