
     RDKit          3D

 49 51  0  0  0  0  0  0  0  0999 V2000
   -2.0383   -3.7301   -0.4048 C   0  0  0  0  0  0  0  0  0  0  0  0
   -2.8298   -2.4457   -0.4235 C   0  0  0  0  0  0  0  0  0  0  0  0
   -4.0502   -2.5030   -0.5723 O   0  0  0  0  0  0  0  0  0  0  0  0
   -2.1330   -1.2433   -0.2714 N   0  0  0  0  0  0  0  0  0  0  0  0
   -2.8884    0.0350   -0.3075 C   0  0  0  0  0  0  0  0  0  0  0  0
   -3.8756    0.1939    0.8558 C   0  0  0  0  0  0  0  0  0  0  0  0
   -4.5693    1.5468    0.7600 C   0  0  0  0  0  0  0  0  0  0  0  0
   -5.2086    1.7085   -0.5053 O   0  0  0  0  0  0  0  0  0  0  0  0
   -4.2952    1.6480   -1.5991 C   0  0  0  0  0  0  0  0  0  0  0  0
   -3.5862    0.3005   -1.6482 C   0  0  0  0  0  0  0  0  0  0  0  0
   -0.6712   -1.1834   -0.0814 C   0  0  0  0  0  0  0  0  0  0  0  0
    0.0818   -0.4690   -1.2113 C   0  0  0  0  0  0  0  0  0  0  0  0
    1.4418   -0.1863   -0.5833 C   0  0  0  0  0  0  0  0  0  0  0  0
    1.1662   -0.0093    0.8377 N   0  0  0  0  0  0  0  0  0  0  0  0
    1.9174    0.6940    1.7611 C   0  0  0  0  0  0  0  0  0  0  0  0
    1.4894    0.9981    2.8711 O   0  0  0  0  0  0  0  0  0  0  0  0
    3.2815    1.1161    1.3979 C   0  0  0  0  0  0  0  0  0  0  0  0
    3.6547    2.4331    1.6173 C   0  0  0  0  0  0  0  0  0  0  0  0
    4.8842    2.9214    1.3248 N   0  0  0  0  0  0  0  0  0  0  0  0
    5.7826    2.0439    0.8214 C   0  0  0  0  0  0  0  0  0  0  0  0
    5.5133    0.6986    0.5824 C   0  0  0  0  0  0  0  0  0  0  0  0
    6.5787   -0.2224    0.0783 C   0  0  0  0  0  0  0  0  0  0  0  0
    4.2349    0.2282    0.8972 C   0  0  0  0  0  0  0  0  0  0  0  0
   -0.1827   -0.4443    1.1740 C   0  0  0  0  0  0  0  0  0  0  0  0
   -1.5608   -3.8676    0.5688 H   0  0  0  0  0  0  0  0  0  0  0  0
   -2.7169   -4.5737   -0.5678 H   0  0  0  0  0  0  0  0  0  0  0  0
   -1.3008   -3.7357   -1.2116 H   0  0  0  0  0  0  0  0  0  0  0  0
   -2.1531    0.8404   -0.1932 H   0  0  0  0  0  0  0  0  0  0  0  0
   -3.3581    0.1012    1.8171 H   0  0  0  0  0  0  0  0  0  0  0  0
   -4.6387   -0.5908    0.8229 H   0  0  0  0  0  0  0  0  0  0  0  0
   -3.8607    2.3689    0.9152 H   0  0  0  0  0  0  0  0  0  0  0  0
   -5.3385    1.6258    1.5348 H   0  0  0  0  0  0  0  0  0  0  0  0
   -4.8670    1.8008   -2.5199 H   0  0  0  0  0  0  0  0  0  0  0  0
   -3.5772    2.4727   -1.5176 H   0  0  0  0  0  0  0  0  0  0  0  0
   -4.3309   -0.4743   -1.8572 H   0  0  0  0  0  0  0  0  0  0  0  0
   -2.8622    0.2832   -2.4704 H   0  0  0  0  0  0  0  0  0  0  0  0
   -0.2578   -2.1942   -0.0241 H   0  0  0  0  0  0  0  0  0  0  0  0
   -0.3973    0.4770   -1.4856 H   0  0  0  0  0  0  0  0  0  0  0  0
    0.1575   -1.0764   -2.1183 H   0  0  0  0  0  0  0  0  0  0  0  0
    1.9238    0.6969   -1.0115 H   0  0  0  0  0  0  0  0  0  0  0  0
    2.1020   -1.0529   -0.6929 H   0  0  0  0  0  0  0  0  0  0  0  0
    2.9600    3.1530    2.0423 H   0  0  0  0  0  0  0  0  0  0  0  0
    6.7628    2.4685    0.6171 H   0  0  0  0  0  0  0  0  0  0  0  0
    7.2783    0.3097   -0.5749 H   0  0  0  0  0  0  0  0  0  0  0  0
    6.1433   -1.0382   -0.5083 H   0  0  0  0  0  0  0  0  0  0  0  0
    7.1344   -0.6494    0.9188 H   0  0  0  0  0  0  0  0  0  0  0  0
    3.9926   -0.8236    0.7764 H   0  0  0  0  0  0  0  0  0  0  0  0
   -0.7720    0.4435    1.4221 H   0  0  0  0  0  0  0  0  0  0  0  0
   -0.1608   -1.0937    2.0556 H   0  0  0  0  0  0  0  0  0  0  0  0
  1  2  1  0
  2  3  2  0
  2  4  1  0
  4  5  1  0
  5  6  1  0
  6  7  1  0
  7  8  1  0
  8  9  1  0
  9 10  1  0
  4 11  1  0
 11 12  1  0
 12 13  1  0
 13 14  1  0
 14 15  1  0
 15 16  2  0
 15 17  1  0
 17 18  2  0
 18 19  1  0
 19 20  2  0
 20 21  1  0
 21 22  1  0
 21 23  2  0
 14 24  1  0
 10  5  1  0
 24 11  1  0
 23 17  1  0
  1 25  1  0
  1 26  1  0
  1 27  1  0
  5 28  1  0
  6 29  1  0
  6 30  1  0
  7 31  1  0
  7 32  1  0
  9 33  1  0
  9 34  1  0
 10 35  1  0
 10 36  1  0
 11 37  1  0
 12 38  1  0
 12 39  1  0
 13 40  1  0
 13 41  1  0
 18 42  1  0
 20 43  1  0
 22 44  1  0
 22 45  1  0
 22 46  1  0
 23 47  1  0
 24 48  1  0
 24 49  1  0
M  END
$$$$
