
     RDKit          3D

 46 50  0  0  0  0  0  0  0  0999 V2000
    5.6174    1.9580    1.1307 C   0  0  0  0  0  0  0  0  0  0  0  0
    4.2475    1.5082    0.8997 N   0  0  0  0  0  0  0  0  0  0  0  0
    4.0529    0.1317    1.3926 C   0  0  0  0  0  0  0  0  0  0  0  0
    2.6310   -0.4007    1.1064 C   0  0  0  0  0  0  0  0  0  0  0  0
    2.3210   -0.3263   -0.3327 N   0  0  0  0  0  0  0  0  0  0  0  0
    1.0803   -0.9220   -0.6842 N   0  0  0  0  0  0  0  0  0  0  0  0
    1.2053   -2.0087   -1.5146 C   0  0  0  0  0  0  0  0  0  0  0  0
    0.1725   -2.7166   -1.9672 C   0  0  0  0  0  0  0  0  0  0  0  0
   -1.2071   -2.3618   -1.5900 C   0  0  0  0  0  0  0  0  0  0  0  0
   -2.1642   -3.0987   -2.0706 N   0  0  0  0  0  0  0  0  0  0  0  0
   -3.4278   -2.7529   -1.7094 C   0  0  0  0  0  0  0  0  0  0  0  0
   -4.5655   -3.3178   -2.0458 N   0  0  0  0  0  0  0  0  0  0  0  0
   -5.4941   -2.5643   -1.4033 C   0  0  0  0  0  0  0  0  0  0  0  0
   -5.0204   -1.5541   -0.6781 N   0  0  0  0  0  0  0  0  0  0  0  0
   -3.6777   -1.6639   -0.8673 N   0  0  0  0  0  0  0  0  0  0  0  0
   -2.6361   -0.8717   -0.3517 C   0  0  0  0  0  0  0  0  0  0  0  0
   -3.0038    0.2554    0.5284 C   0  0  0  0  0  0  0  0  0  0  0  0
   -3.2647    1.5213   -0.0159 C   0  0  0  0  0  0  0  0  0  0  0  0
   -3.6202    2.5850    0.8173 C   0  0  0  0  0  0  0  0  0  0  0  0
   -3.7185    2.3848    2.1929 C   0  0  0  0  0  0  0  0  0  0  0  0
   -4.1579    3.6957    3.2175 Cl  0  0  0  0  0  0  0  0  0  0  0  0
   -3.4676    1.1298    2.7445 C   0  0  0  0  0  0  0  0  0  0  0  0
   -3.1119    0.0643    1.9136 C   0  0  0  0  0  0  0  0  0  0  0  0
   -1.3541   -1.1735   -0.6811 C   0  0  0  0  0  0  0  0  0  0  0  0
   -0.1438   -0.4201   -0.2082 C   0  0  0  0  0  0  0  0  0  0  0  0
   -0.2430    0.5530    0.5344 O   0  0  0  0  0  0  0  0  0  0  0  0
    2.4782    1.0553   -0.8219 C   0  0  0  0  0  0  0  0  0  0  0  0
    3.9003    1.5848   -0.5318 C   0  0  0  0  0  0  0  0  0  0  0  0
    5.8527    1.9379    2.2006 H   0  0  0  0  0  0  0  0  0  0  0  0
    5.7417    2.9951    0.8003 H   0  0  0  0  0  0  0  0  0  0  0  0
    6.3526    1.3384    0.6047 H   0  0  0  0  0  0  0  0  0  0  0  0
    4.2169    0.1055    2.4767 H   0  0  0  0  0  0  0  0  0  0  0  0
    4.7864   -0.5465    0.9353 H   0  0  0  0  0  0  0  0  0  0  0  0
    1.9118    0.1703    1.7053 H   0  0  0  0  0  0  0  0  0  0  0  0
    2.5792   -1.4440    1.4406 H   0  0  0  0  0  0  0  0  0  0  0  0
    2.2186   -2.2812   -1.8006 H   0  0  0  0  0  0  0  0  0  0  0  0
    0.3079   -3.5701   -2.6224 H   0  0  0  0  0  0  0  0  0  0  0  0
   -6.5577   -2.7581   -1.4654 H   0  0  0  0  0  0  0  0  0  0  0  0
   -3.1923    1.6911   -1.0874 H   0  0  0  0  0  0  0  0  0  0  0  0
   -3.8169    3.5636    0.3884 H   0  0  0  0  0  0  0  0  0  0  0  0
   -3.5452    0.9748    3.8170 H   0  0  0  0  0  0  0  0  0  0  0  0
   -2.9195   -0.9096    2.3570 H   0  0  0  0  0  0  0  0  0  0  0  0
    2.3139    1.0828   -1.9059 H   0  0  0  0  0  0  0  0  0  0  0  0
    1.7478    1.7324   -0.3635 H   0  0  0  0  0  0  0  0  0  0  0  0
    3.9519    2.6285   -0.8647 H   0  0  0  0  0  0  0  0  0  0  0  0
    4.6225    1.0148   -1.1324 H   0  0  0  0  0  0  0  0  0  0  0  0
  1  2  1  0
  2  3  1  0
  3  4  1  0
  4  5  1  0
  5  6  1  0
  6  7  1  0
  7  8  2  0
  8  9  1  0
  9 10  2  0
 10 11  1  0
 11 12  2  0
 12 13  1  0
 13 14  2  0
 14 15  1  0
 15 16  1  0
 16 17  1  0
 17 18  2  0
 18 19  1  0
 19 20  2  0
 20 21  1  0
 20 22  1  0
 22 23  2  0
 16 24  2  0
 24 25  1  0
 25 26  2  0
  5 27  1  0
 27 28  1  0
 28  2  1  0
 25  6  1  0
 24  9  1  0
 15 11  1  0
 23 17  1  0
  1 29  1  0
  1 30  1  0
  1 31  1  0
  3 32  1  0
  3 33  1  0
  4 34  1  0
  4 35  1  0
  7 36  1  0
  8 37  1  0
 13 38  1  0
 18 39  1  0
 19 40  1  0
 22 41  1  0
 23 42  1  0
 27 43  1  0
 27 44  1  0
 28 45  1  0
 28 46  1  0
M  END
$$$$
