
     RDKit          3D

 33 36  0  0  0  0  0  0  0  0999 V2000
   -3.2902    2.7070   -2.3087 O   0  0  0  0  0  0  0  0  0  0  0  0
   -2.7707    1.9163   -1.5312 C   0  0  0  0  0  0  0  0  0  0  0  0
   -3.2425    0.4483   -1.3525 C   0  0  0  0  0  0  0  0  0  0  0  0
   -2.3308    0.0685   -0.3218 N   0  0  0  0  0  0  0  0  0  0  0  0
   -1.4690    1.1071   -0.0470 C   0  0  0  0  0  0  0  0  0  0  0  0
   -1.6786    2.2006   -0.7029 N   0  0  0  0  0  0  0  0  0  0  0  0
   -0.5500    0.6642    0.8874 N   0  0  0  0  0  0  0  0  0  0  0  0
    0.6434    1.3683    1.2928 C   0  0  0  0  0  0  0  0  0  0  0  0
    1.7977    1.1303    0.3429 C   0  0  0  0  0  0  0  0  0  0  0  0
    2.8272    0.2352    0.6696 C   0  0  0  0  0  0  0  0  0  0  0  0
    3.8850    0.0158   -0.2153 C   0  0  0  0  0  0  0  0  0  0  0  0
    3.9259    0.6870   -1.4356 C   0  0  0  0  0  0  0  0  0  0  0  0
    2.9097    1.5779   -1.7733 C   0  0  0  0  0  0  0  0  0  0  0  0
    1.8518    1.7986   -0.8902 C   0  0  0  0  0  0  0  0  0  0  0  0
   -0.8030   -0.6974    1.1188 C   0  0  0  0  0  0  0  0  0  0  0  0
   -0.1674   -1.6245    1.9143 C   0  0  0  0  0  0  0  0  0  0  0  0
   -0.6709   -2.9302    1.9187 C   0  0  0  0  0  0  0  0  0  0  0  0
   -1.7896   -3.2830    1.1377 C   0  0  0  0  0  0  0  0  0  0  0  0
   -2.4357   -2.3385    0.3344 C   0  0  0  0  0  0  0  0  0  0  0  0
   -1.9384   -1.0576    0.3367 C   0  0  0  0  0  0  0  0  0  0  0  0
   -4.2826    0.4232   -1.0204 H   0  0  0  0  0  0  0  0  0  0  0  0
   -3.0839   -0.1077   -2.2794 H   0  0  0  0  0  0  0  0  0  0  0  0
    0.4440    2.4469    1.3408 H   0  0  0  0  0  0  0  0  0  0  0  0
    0.9305    1.0875    2.3140 H   0  0  0  0  0  0  0  0  0  0  0  0
    2.8147   -0.2994    1.6158 H   0  0  0  0  0  0  0  0  0  0  0  0
    4.6771   -0.6807    0.0467 H   0  0  0  0  0  0  0  0  0  0  0  0
    4.7484    0.5148   -2.1247 H   0  0  0  0  0  0  0  0  0  0  0  0
    2.9374    2.1011   -2.7257 H   0  0  0  0  0  0  0  0  0  0  0  0
    1.0643    2.4962   -1.1713 H   0  0  0  0  0  0  0  0  0  0  0  0
    0.6898   -1.3672    2.5231 H   0  0  0  0  0  0  0  0  0  0  0  0
   -0.1915   -3.6880    2.5352 H   0  0  0  0  0  0  0  0  0  0  0  0
   -2.1555   -4.3075    1.1625 H   0  0  0  0  0  0  0  0  0  0  0  0
   -3.2967   -2.6129   -0.2631 H   0  0  0  0  0  0  0  0  0  0  0  0
  1  2  2  0
  2  3  1  0
  3  4  1  0
  4  5  1  0
  5  6  2  0
  5  7  1  0
  7  8  1  0
  8  9  1  0
  9 10  2  0
 10 11  1  0
 11 12  2  0
 12 13  1  0
 13 14  2  0
  7 15  1  0
 15 16  2  0
 16 17  1  0
 17 18  2  0
 18 19  1  0
 19 20  2  0
  6  2  1  0
 14  9  1  0
 20 15  1  0
 20  4  1  0
  3 21  1  0
  3 22  1  0
  8 23  1  0
  8 24  1  0
 10 25  1  0
 11 26  1  0
 12 27  1  0
 13 28  1  0
 14 29  1  0
 16 30  1  0
 17 31  1  0
 18 32  1  0
 19 33  1  0
M  END
$$$$
