
     RDKit          3D

 28 29  0  0  0  0  0  0  0  0999 V2000
    5.0843    1.5977    0.8308 C   0  0  0  0  0  0  0  0  0  0  0  0
    4.5995   -0.1013    1.2351 S   0  0  0  0  0  0  0  0  0  0  0  0
    2.9397   -0.1084    0.5834 C   0  0  0  0  0  0  0  0  0  0  0  0
    2.5925   -1.0554   -0.3835 C   0  0  0  0  0  0  0  0  0  0  0  0
    1.2958   -1.0944   -0.9043 C   0  0  0  0  0  0  0  0  0  0  0  0
    0.3246   -0.1859   -0.4621 C   0  0  0  0  0  0  0  0  0  0  0  0
   -1.0834   -0.2415   -1.0060 C   0  0  0  0  0  0  0  0  0  0  0  0
   -1.9569   -0.9631   -0.0843 N   0  0  0  0  0  0  0  0  0  0  0  0
   -3.2663   -1.0482   -0.6427 N   0  0  0  0  0  0  0  0  0  0  0  0
   -3.6281   -1.8705   -1.6391 N   0  0  0  0  0  0  0  0  0  0  0  0
   -4.9087   -1.6104   -1.8669 N   0  0  0  0  0  0  0  0  0  0  0  0
   -5.3820   -0.6413   -1.0140 N   0  0  0  0  0  0  0  0  0  0  0  0
   -4.3731   -0.3070   -0.2423 C   0  0  0  0  0  0  0  0  0  0  0  0
   -4.3385    0.5911    0.7671 N   0  0  0  0  0  0  0  0  0  0  0  0
    0.6709    0.7470    0.5250 C   0  0  0  0  0  0  0  0  0  0  0  0
    1.9685    0.7841    1.0440 C   0  0  0  0  0  0  0  0  0  0  0  0
    6.1389    1.7369    1.0839 H   0  0  0  0  0  0  0  0  0  0  0  0
    4.4959    2.3192    1.4034 H   0  0  0  0  0  0  0  0  0  0  0  0
    4.9562    1.7891   -0.2382 H   0  0  0  0  0  0  0  0  0  0  0  0
    3.3294   -1.7716   -0.7403 H   0  0  0  0  0  0  0  0  0  0  0  0
    1.0523   -1.8422   -1.6564 H   0  0  0  0  0  0  0  0  0  0  0  0
   -1.4417    0.7854   -1.1559 H   0  0  0  0  0  0  0  0  0  0  0  0
   -1.0680   -0.7169   -1.9957 H   0  0  0  0  0  0  0  0  0  0  0  0
   -1.5935   -1.9066    0.0290 H   0  0  0  0  0  0  0  0  0  0  0  0
   -5.0966    1.2617    0.8378 H   0  0  0  0  0  0  0  0  0  0  0  0
   -3.4438    0.9024    1.1333 H   0  0  0  0  0  0  0  0  0  0  0  0
   -0.0724    1.4447    0.9044 H   0  0  0  0  0  0  0  0  0  0  0  0
    2.2046    1.5056    1.8218 H   0  0  0  0  0  0  0  0  0  0  0  0
  1  2  1  0
  2  3  1  0
  3  4  2  0
  4  5  1  0
  5  6  2  0
  6  7  1  0
  7  8  1  0
  8  9  1  0
  9 10  1  0
 10 11  2  0
 11 12  1  0
 12 13  2  0
 13 14  1  0
  6 15  1  0
 15 16  2  0
 16  3  1  0
 13  9  1  0
  1 17  1  0
  1 18  1  0
  1 19  1  0
  4 20  1  0
  5 21  1  0
  7 22  1  0
  7 23  1  0
  8 24  1  0
 14 25  1  0
 14 26  1  0
 15 27  1  0
 16 28  1  0
M  END
$$$$
