
     RDKit          3D

 51 53  0  0  0  0  0  0  0  0999 V2000
    4.8753   -0.7595   -2.9069 C   0  0  0  0  0  0  0  0  0  0  0  0
    4.4650   -0.6000   -1.5521 O   0  0  0  0  0  0  0  0  0  0  0  0
    5.3285    0.0322   -0.6991 C   0  0  0  0  0  0  0  0  0  0  0  0
    6.5071    0.6794   -1.0884 C   0  0  0  0  0  0  0  0  0  0  0  0
    7.3149    1.3078   -0.1339 C   0  0  0  0  0  0  0  0  0  0  0  0
    6.9475    1.2913    1.2078 C   0  0  0  0  0  0  0  0  0  0  0  0
    7.7239    1.9082    2.1078 F   0  0  0  0  0  0  0  0  0  0  0  0
    5.7830    0.6555    1.6103 C   0  0  0  0  0  0  0  0  0  0  0  0
    5.4306    0.6731    2.9040 F   0  0  0  0  0  0  0  0  0  0  0  0
    4.9747    0.0345    0.6613 C   0  0  0  0  0  0  0  0  0  0  0  0
    3.7683   -0.6599    1.1348 C   0  0  0  0  0  0  0  0  0  0  0  0
    3.9281   -1.6976    1.7720 O   0  0  0  0  0  0  0  0  0  0  0  0
    2.4115   -0.1283    0.8581 C   0  0  0  0  0  0  0  0  0  0  0  0
    2.2022    1.1014    0.2692 C   0  0  0  0  0  0  0  0  0  0  0  0
    0.9827    1.6200    0.0141 N   0  0  0  0  0  0  0  0  0  0  0  0
   -0.0713    0.8859    0.3854 C   0  0  0  0  0  0  0  0  0  0  0  0
   -1.3096    1.4567    0.1424 N   0  0  0  0  0  0  0  0  0  0  0  0
   -2.4250    0.5358   -0.0591 C   0  0  0  0  0  0  0  0  0  0  0  0
   -3.4514    1.1897   -0.9928 C   0  0  0  0  0  0  0  0  0  0  0  0
   -4.6618    0.2823   -1.1753 C   0  0  0  0  0  0  0  0  0  0  0  0
   -5.2816    0.0011    0.1490 N   0  0  0  0  0  0  0  0  0  0  0  0
   -6.8059   -0.7764    0.0780 S   0  0  0  0  0  6  0  0  0  0  0  0
   -7.8592    0.5456   -0.4839 C   0  0  0  0  0  0  0  0  0  0  0  0
   -6.7362   -1.7905   -0.9519 O   0  0  0  0  0  0  0  0  0  0  0  0
   -7.2097   -1.1027    1.4288 O   0  0  0  0  0  0  0  0  0  0  0  0
   -4.3169   -0.6771    1.0673 C   0  0  0  0  0  0  0  0  0  0  0  0
   -3.0978    0.2126    1.2790 C   0  0  0  0  0  0  0  0  0  0  0  0
    0.0302   -0.3217    0.9524 N   0  0  0  0  0  0  0  0  0  0  0  0
    1.2562   -0.8245    1.1868 C   0  0  0  0  0  0  0  0  0  0  0  0
    1.2797   -2.0910    1.8000 N   0  0  0  0  0  0  0  0  0  0  0  0
    4.9471    0.2100   -3.4106 H   0  0  0  0  0  0  0  0  0  0  0  0
    5.8194   -1.3126   -2.9737 H   0  0  0  0  0  0  0  0  0  0  0  0
    4.1070   -1.3462   -3.4219 H   0  0  0  0  0  0  0  0  0  0  0  0
    6.8278    0.7156   -2.1256 H   0  0  0  0  0  0  0  0  0  0  0  0
    8.2309    1.8123   -0.4295 H   0  0  0  0  0  0  0  0  0  0  0  0
    3.0165    1.7526   -0.0315 H   0  0  0  0  0  0  0  0  0  0  0  0
   -1.1613    2.1658   -0.5666 H   0  0  0  0  0  0  0  0  0  0  0  0
   -2.0827   -0.3906   -0.5424 H   0  0  0  0  0  0  0  0  0  0  0  0
   -3.7706    2.1585   -0.5846 H   0  0  0  0  0  0  0  0  0  0  0  0
   -2.9950    1.3935   -1.9693 H   0  0  0  0  0  0  0  0  0  0  0  0
   -4.3634   -0.6546   -1.6602 H   0  0  0  0  0  0  0  0  0  0  0  0
   -5.3767    0.7925   -1.8271 H   0  0  0  0  0  0  0  0  0  0  0  0
   -8.8902    0.1845   -0.4554 H   0  0  0  0  0  0  0  0  0  0  0  0
   -7.7499    1.3956    0.1932 H   0  0  0  0  0  0  0  0  0  0  0  0
   -7.5985    0.8180   -1.5071 H   0  0  0  0  0  0  0  0  0  0  0  0
   -4.0215   -1.6470    0.6497 H   0  0  0  0  0  0  0  0  0  0  0  0
   -4.7827   -0.8477    2.0433 H   0  0  0  0  0  0  0  0  0  0  0  0
   -3.4033    1.1428    1.7761 H   0  0  0  0  0  0  0  0  0  0  0  0
   -2.4016   -0.2888    1.9596 H   0  0  0  0  0  0  0  0  0  0  0  0
    1.8007   -2.0112    2.6742 H   0  0  0  0  0  0  0  0  0  0  0  0
    1.8646   -2.7148    1.2441 H   0  0  0  0  0  0  0  0  0  0  0  0
  1  2  1  0
  2  3  1  0
  3  4  2  0
  4  5  1  0
  5  6  2  0
  6  7  1  0
  6  8  1  0
  8  9  1  0
  8 10  2  0
 10 11  1  0
 11 12  2  0
 11 13  1  0
 13 14  2  0
 14 15  1  0
 15 16  2  0
 16 17  1  0
 17 18  1  0
 18 19  1  0
 19 20  1  0
 20 21  1  0
 21 22  1  0
 22 23  1  0
 22 24  2  0
 22 25  2  0
 21 26  1  0
 26 27  1  0
 16 28  1  0
 28 29  2  0
 29 30  1  0
 10  3  1  0
 29 13  1  0
 27 18  1  0
  1 31  1  0
  1 32  1  0
  1 33  1  0
  4 34  1  0
  5 35  1  0
 14 36  1  0
 17 37  1  0
 18 38  1  0
 19 39  1  0
 19 40  1  0
 20 41  1  0
 20 42  1  0
 23 43  1  0
 23 44  1  0
 23 45  1  0
 26 46  1  0
 26 47  1  0
 27 48  1  0
 27 49  1  0
 30 50  1  0
 30 51  1  0
M  END
$$$$
