
     RDKit          3D

 55 60  0  0  0  0  0  0  0  0999 V2000
   -6.1159    3.1560   -0.8854 C   0  0  0  0  0  0  0  0  0  0  0  0
   -5.0653    2.1075   -0.5532 C   0  0  2  0  0  0  0  0  0  0  0  0
   -3.9798    2.2337   -1.4989 O   0  0  0  0  0  0  0  0  0  0  0  0
   -5.6312    0.6723   -0.3729 C   0  0  0  0  0  0  0  0  0  0  0  0
   -4.7619    0.5234    0.8972 C   0  0  1  0  0  0  0  0  0  0  0  0
   -3.4037   -0.2161    0.6373 C   0  0  0  0  0  0  0  0  0  0  0  0
   -2.4850    0.2618   -0.1803 N   0  0  0  0  0  0  0  0  0  0  0  0
   -1.4608   -0.6569   -0.1526 C   0  0  0  0  0  0  0  0  0  0  0  0
   -0.2483   -0.4659   -0.9125 C   0  0  0  0  0  0  0  0  0  0  0  0
   -0.3003   -0.4398   -2.3063 C   0  0  0  0  0  0  0  0  0  0  0  0
    0.8710   -0.2543   -3.0383 C   0  0  0  0  0  0  0  0  0  0  0  0
    2.0988   -0.0903   -2.3752 C   0  0  0  0  0  0  0  0  0  0  0  0
    3.2959    0.0880   -3.0730 C   0  0  0  0  0  0  0  0  0  0  0  0
    4.4885    0.2413   -2.3704 C   0  0  0  0  0  0  0  0  0  0  0  0
    4.4659    0.2116   -0.9786 C   0  0  0  0  0  0  0  0  0  0  0  0
    5.6827    0.3629   -0.1527 C   0  0  0  0  0  0  0  0  0  0  0  0
    6.9365   -0.1216   -0.5705 C   0  0  0  0  0  0  0  0  0  0  0  0
    8.0789    0.0361    0.2219 C   0  0  0  0  0  0  0  0  0  0  0  0
    7.9915    0.6798    1.4530 C   0  0  0  0  0  0  0  0  0  0  0  0
    6.7629    1.1602    1.8950 C   0  0  0  0  0  0  0  0  0  0  0  0
    5.6232    1.0003    1.1013 C   0  0  0  0  0  0  0  0  0  0  0  0
    3.3054    0.0488   -0.2900 N   0  0  0  0  0  0  0  0  0  0  0  0
    2.1547   -0.0967   -0.9677 C   0  0  0  0  0  0  0  0  0  0  0  0
    0.9752   -0.2701   -0.2599 C   0  0  0  0  0  0  0  0  0  0  0  0
   -1.7814   -1.7286    0.6536 C   0  0  0  0  0  0  0  0  0  0  0  0
   -1.1715   -2.9866    1.0217 C   0  0  0  0  0  0  0  0  0  0  0  0
    0.0265   -3.4357    0.5463 N   0  0  0  0  0  0  0  0  0  0  0  0
   -1.7812   -3.7884    1.8664 N   0  0  0  0  0  0  0  0  0  0  0  0
   -3.0112   -3.4235    2.3730 C   0  0  0  0  0  0  0  0  0  0  0  0
   -3.6448   -2.2866    2.0510 C   0  0  0  0  0  0  0  0  0  0  0  0
   -3.0221   -1.4236    1.1709 N   0  0  0  0  0  0  0  0  0  0  0  0
   -4.6497    2.0658    0.9425 C   0  0  0  0  0  0  0  0  0  0  0  0
   -6.9704    3.1047   -0.2022 H   0  0  0  0  0  0  0  0  0  0  0  0
   -5.6937    4.1641   -0.8162 H   0  0  0  0  0  0  0  0  0  0  0  0
   -6.4948    3.0174   -1.9035 H   0  0  0  0  0  0  0  0  0  0  0  0
   -3.2877    1.6091   -1.1852 H   0  0  0  0  0  0  0  0  0  0  0  0
   -5.4134   -0.0243   -1.1891 H   0  0  0  0  0  0  0  0  0  0  0  0
   -6.7080    0.6283   -0.1694 H   0  0  0  0  0  0  0  0  0  0  0  0
   -5.3013    0.1088    1.7547 H   0  0  0  0  0  0  0  0  0  0  0  0
   -1.2498   -0.5613   -2.8239 H   0  0  0  0  0  0  0  0  0  0  0  0
    0.8197   -0.2378   -4.1248 H   0  0  0  0  0  0  0  0  0  0  0  0
    3.3092    0.1134   -4.1598 H   0  0  0  0  0  0  0  0  0  0  0  0
    5.4131    0.3990   -2.9153 H   0  0  0  0  0  0  0  0  0  0  0  0
    7.0387   -0.6479   -1.5167 H   0  0  0  0  0  0  0  0  0  0  0  0
    9.0359   -0.3481   -0.1232 H   0  0  0  0  0  0  0  0  0  0  0  0
    8.8782    0.8021    2.0691 H   0  0  0  0  0  0  0  0  0  0  0  0
    6.6856    1.6608    2.8561 H   0  0  0  0  0  0  0  0  0  0  0  0
    4.6716    1.3839    1.4661 H   0  0  0  0  0  0  0  0  0  0  0  0
    1.0159   -0.2481    0.8272 H   0  0  0  0  0  0  0  0  0  0  0  0
    0.7270   -2.7389    0.3341 H   0  0  0  0  0  0  0  0  0  0  0  0
    0.3869   -4.2031    1.1027 H   0  0  0  0  0  0  0  0  0  0  0  0
   -3.4646   -4.1314    3.0620 H   0  0  0  0  0  0  0  0  0  0  0  0
   -4.6142   -2.0201    2.4473 H   0  0  0  0  0  0  0  0  0  0  0  0
   -5.3685    2.5324    1.6271 H   0  0  0  0  0  0  0  0  0  0  0  0
   -3.6587    2.4722    1.1695 H   0  0  0  0  0  0  0  0  0  0  0  0
  1  2  1  0
  2  3  1  6
  2  4  1  0
  4  5  1  0
  5  6  1  0
  6  7  2  0
  7  8  1  0
  8  9  1  0
  9 10  2  0
 10 11  1  0
 11 12  2  0
 12 13  1  0
 13 14  2  0
 14 15  1  0
 15 16  1  0
 16 17  2  0
 17 18  1  0
 18 19  2  0
 19 20  1  0
 20 21  2  0
 15 22  2  0
 22 23  1  0
 23 24  2  0
  8 25  2  0
 25 26  1  0
 26 27  1  0
 26 28  2  0
 28 29  1  0
 29 30  2  0
 30 31  1  0
  5 32  1  0
 32  2  1  0
 31  6  1  0
 24  9  1  0
 31 25  1  0
 23 12  1  0
 21 16  1  0
  1 33  1  0
  1 34  1  0
  1 35  1  0
  3 36  1  0
  4 37  1  0
  4 38  1  0
  5 39  1  1
 10 40  1  0
 11 41  1  0
 13 42  1  0
 14 43  1  0
 17 44  1  0
 18 45  1  0
 19 46  1  0
 20 47  1  0
 21 48  1  0
 24 49  1  0
 27 50  1  0
 27 51  1  0
 29 52  1  0
 30 53  1  0
 32 54  1  0
 32 55  1  0
M  END
$$$$
