
     RDKit          3D

 41 44  0  0  0  0  0  0  0  0999 V2000
    5.7166   -2.9742    1.2435 C   0  0  0  0  0  0  0  0  0  0  0  0
    5.8667   -1.6332    0.0923 S   0  0  0  0  0  6  0  0  0  0  0  0
    6.7869   -0.6581    0.6454 O   0  0  0  0  0  0  0  0  0  0  0  0
    6.0856   -2.1968   -1.2267 O   0  0  0  0  0  0  0  0  0  0  0  0
    4.2471   -0.9035    0.1036 C   0  0  0  0  0  0  0  0  0  0  0  0
    3.3257   -1.2417   -0.8891 C   0  0  0  0  0  0  0  0  0  0  0  0
    2.0534   -0.6641   -0.8713 C   0  0  0  0  0  0  0  0  0  0  0  0
    1.6992    0.2614    0.1251 C   0  0  0  0  0  0  0  0  0  0  0  0
    0.3480    0.8655    0.1649 C   0  0  0  0  0  0  0  0  0  0  0  0
   -0.1476    1.4585   -0.9439 C   0  0  0  0  0  0  0  0  0  0  0  0
   -1.3845    2.0617   -1.0619 N   0  0  0  0  0  0  0  0  0  0  0  0
   -2.1623    2.0684   -0.0099 C   0  0  0  0  0  0  0  0  0  0  0  0
   -3.4111    2.6447   -0.1284 N   0  0  0  0  0  0  0  0  0  0  0  0
   -4.6260    1.8575    0.0923 C   0  0  0  0  0  0  0  0  0  0  0  0
   -4.6578    0.5344   -0.5873 C   0  0  0  0  0  0  0  0  0  0  0  0
   -5.0067    0.1216   -1.8564 C   0  0  0  0  0  0  0  0  0  0  0  0
   -4.7895   -1.2775   -1.8922 C   0  0  0  0  0  0  0  0  0  0  0  0
   -4.3200   -1.6262   -0.6478 C   0  0  0  0  0  0  0  0  0  0  0  0
   -4.2374   -0.5324    0.1517 O   0  0  0  0  0  0  0  0  0  0  0  0
   -1.7034    1.5234    1.1943 N   0  0  0  0  0  0  0  0  0  0  0  0
   -2.2471    1.5033    2.4449 C   0  0  0  0  0  0  0  0  0  0  0  0
   -1.4402    0.8814    3.2758 N   0  0  0  0  0  0  0  0  0  0  0  0
   -0.3209    0.5075    2.5657 N   0  0  0  0  0  0  0  0  0  0  0  0
   -0.4765    0.9171    1.3224 C   0  0  0  0  0  0  0  0  0  0  0  0
    2.6449    0.5922    1.1090 C   0  0  0  0  0  0  0  0  0  0  0  0
    3.9196    0.0210    1.0966 C   0  0  0  0  0  0  0  0  0  0  0  0
    6.6793   -3.4875    1.2927 H   0  0  0  0  0  0  0  0  0  0  0  0
    4.9469   -3.6629    0.8898 H   0  0  0  0  0  0  0  0  0  0  0  0
    5.4591   -2.5753    2.2264 H   0  0  0  0  0  0  0  0  0  0  0  0
    3.5831   -1.9497   -1.6741 H   0  0  0  0  0  0  0  0  0  0  0  0
    1.3369   -0.9519   -1.6386 H   0  0  0  0  0  0  0  0  0  0  0  0
    0.4437    1.4920   -1.8577 H   0  0  0  0  0  0  0  0  0  0  0  0
   -3.4569    3.0474   -1.0637 H   0  0  0  0  0  0  0  0  0  0  0  0
   -4.7935    1.7240    1.1655 H   0  0  0  0  0  0  0  0  0  0  0  0
   -5.4768    2.4528   -0.2612 H   0  0  0  0  0  0  0  0  0  0  0  0
   -5.3643    0.7508   -2.6600 H   0  0  0  0  0  0  0  0  0  0  0  0
   -4.9487   -1.9497   -2.7238 H   0  0  0  0  0  0  0  0  0  0  0  0
   -4.0134   -2.5598   -0.1960 H   0  0  0  0  0  0  0  0  0  0  0  0
   -3.1932    1.9521    2.7016 H   0  0  0  0  0  0  0  0  0  0  0  0
    2.3942    1.3022    1.8965 H   0  0  0  0  0  0  0  0  0  0  0  0
    4.6411    0.3035    1.8605 H   0  0  0  0  0  0  0  0  0  0  0  0
  1  2  1  0
  2  3  2  0
  2  4  2  0
  2  5  1  0
  5  6  2  0
  6  7  1  0
  7  8  2  0
  8  9  1  0
  9 10  2  0
 10 11  1  0
 11 12  2  0
 12 13  1  0
 13 14  1  0
 14 15  1  0
 15 16  2  0
 16 17  1  0
 17 18  2  0
 18 19  1  0
 12 20  1  0
 20 21  1  0
 21 22  2  0
 22 23  1  0
 23 24  2  0
  8 25  1  0
 25 26  2  0
 26  5  1  0
 24  9  1  0
 19 15  1  0
 24 20  1  0
  1 27  1  0
  1 28  1  0
  1 29  1  0
  6 30  1  0
  7 31  1  0
 10 32  1  0
 13 33  1  0
 14 34  1  0
 14 35  1  0
 16 36  1  0
 17 37  1  0
 18 38  1  0
 21 39  1  0
 25 40  1  0
 26 41  1  0
M  END
$$$$
