
     RDKit          3D

 36 38  0  0  0  0  0  0  0  0999 V2000
   -5.4174    1.5829   -1.2003 C   0  0  0  0  0  0  0  0  0  0  0  0
   -4.7220    0.6930   -0.3381 O   0  0  0  0  0  0  0  0  0  0  0  0
   -3.3555    0.6301   -0.4518 C   0  0  0  0  0  0  0  0  0  0  0  0
   -2.5998    1.3887   -1.3529 C   0  0  0  0  0  0  0  0  0  0  0  0
   -1.2169    1.2838   -1.4267 C   0  0  0  0  0  0  0  0  0  0  0  0
   -0.5704    2.0514   -2.3079 N   0  0  0  0  0  0  0  0  0  0  0  0
    0.7602    1.9315   -2.3488 C   0  0  0  0  0  0  0  0  0  0  0  0
    1.5000    1.1080   -1.6034 N   0  0  0  0  0  0  0  0  0  0  0  0
    0.8434    0.3255   -0.7287 C   0  0  0  0  0  0  0  0  0  0  0  0
    1.5758   -0.6082    0.0563 N   0  0  0  0  0  0  0  0  0  0  0  0
    2.9710   -0.6616    0.2796 C   0  0  0  0  0  0  0  0  0  0  0  0
    3.7799    0.4823    0.2857 C   0  0  0  0  0  0  0  0  0  0  0  0
    5.1448    0.4034    0.5807 C   0  0  0  0  0  0  0  0  0  0  0  0
    5.7195   -0.8232    0.9016 C   0  0  0  0  0  0  0  0  0  0  0  0
    4.9202   -1.9614    0.9366 C   0  0  0  0  0  0  0  0  0  0  0  0
    5.6849   -3.6288    1.3978 Br  0  0  0  0  0  0  0  0  0  0  0  0
    3.5567   -1.8843    0.6419 C   0  0  0  0  0  0  0  0  0  0  0  0
   -0.5585    0.3832   -0.5814 C   0  0  0  0  0  0  0  0  0  0  0  0
   -1.3146   -0.3799    0.3462 C   0  0  0  0  0  0  0  0  0  0  0  0
   -2.7037   -0.2598    0.4157 C   0  0  0  0  0  0  0  0  0  0  0  0
   -3.5038   -0.9637    1.2781 O   0  0  0  0  0  0  0  0  0  0  0  0
   -2.8718   -1.7586    2.2714 C   0  0  0  0  0  0  0  0  0  0  0  0
   -6.4852    1.4990   -0.9764 H   0  0  0  0  0  0  0  0  0  0  0  0
   -5.2755    1.3072   -2.2504 H   0  0  0  0  0  0  0  0  0  0  0  0
   -5.1205    2.6210   -1.0186 H   0  0  0  0  0  0  0  0  0  0  0  0
   -3.0745    2.0933   -2.0288 H   0  0  0  0  0  0  0  0  0  0  0  0
    1.2887    2.5603   -3.0571 H   0  0  0  0  0  0  0  0  0  0  0  0
    1.1912   -1.5336   -0.1053 H   0  0  0  0  0  0  0  0  0  0  0  0
    3.3542    1.4579    0.0646 H   0  0  0  0  0  0  0  0  0  0  0  0
    5.7528    1.3043    0.5656 H   0  0  0  0  0  0  0  0  0  0  0  0
    6.7799   -0.8780    1.1312 H   0  0  0  0  0  0  0  0  0  0  0  0
    2.9507   -2.7846    0.6912 H   0  0  0  0  0  0  0  0  0  0  0  0
   -0.7888   -1.0531    1.0149 H   0  0  0  0  0  0  0  0  0  0  0  0
   -3.6541   -2.1851    2.9066 H   0  0  0  0  0  0  0  0  0  0  0  0
   -2.3223   -2.5898    1.8177 H   0  0  0  0  0  0  0  0  0  0  0  0
   -2.2189   -1.1530    2.9088 H   0  0  0  0  0  0  0  0  0  0  0  0
  1  2  1  0
  2  3  1  0
  3  4  2  0
  4  5  1  0
  5  6  2  0
  6  7  1  0
  7  8  2  0
  8  9  1  0
  9 10  1  0
 10 11  1  0
 11 12  2  0
 12 13  1  0
 13 14  2  0
 14 15  1  0
 15 16  1  0
 15 17  2  0
  9 18  2  0
 18 19  1  0
 19 20  2  0
 20 21  1  0
 21 22  1  0
 20  3  1  0
 18  5  1  0
 17 11  1  0
  1 23  1  0
  1 24  1  0
  1 25  1  0
  4 26  1  0
  7 27  1  0
 10 28  1  0
 12 29  1  0
 13 30  1  0
 14 31  1  0
 17 32  1  0
 19 33  1  0
 22 34  1  0
 22 35  1  0
 22 36  1  0
M  END
$$$$
