
     RDKit          3D

 52 55  0  0  0  0  0  0  0  0999 V2000
   -2.1122   -3.7011   -0.0325 O   0  0  0  0  0  0  0  0  0  0  0  0
   -1.3956   -3.1762   -0.8689 C   0  0  0  0  0  0  0  0  0  0  0  0
   -1.5527   -3.4998   -2.1687 O   0  0  0  0  0  0  0  0  0  0  0  0
   -0.2884   -2.1448   -0.6223 C   0  0  2  0  0  0  0  0  0  0  0  0
    0.9959   -2.7685   -1.2511 C   0  0  0  0  0  0  0  0  0  0  0  0
    2.3217   -2.1217   -0.9130 C   0  0  0  0  0  0  0  0  0  0  0  0
    3.4373   -2.9089   -0.6682 C   0  0  0  0  0  0  0  0  0  0  0  0
    4.6421   -2.2779   -0.3984 C   0  0  0  0  0  0  0  0  0  0  0  0
    4.7027   -0.8845   -0.3850 C   0  0  0  0  0  0  0  0  0  0  0  0
    3.5586   -0.1455   -0.6414 C   0  0  0  0  0  0  0  0  0  0  0  0
    3.4625    1.2367   -0.6668 N   0  0  0  0  0  0  0  0  0  0  0  0
    4.2556    2.2721   -0.3292 C   0  0  0  0  0  0  0  0  0  0  0  0
    3.8195    3.5077   -0.4883 N   0  0  0  0  0  0  0  0  0  0  0  0
    4.7597    4.4293   -0.0779 C   0  0  0  0  0  0  0  0  0  0  0  0
    5.9296    3.8971    0.4080 C   0  0  0  0  0  0  0  0  0  0  0  0
    5.8410    2.1928    0.3511 S   0  0  0  0  0  0  0  0  0  0  0  0
    2.3880   -0.7689   -0.9168 N   0  0  0  0  0  0  0  0  0  0  0  0
   -0.1165   -1.9634    0.9086 C   0  0  0  0  0  0  0  0  0  0  0  0
   -1.2851   -1.2633    1.6154 C   0  0  0  0  0  0  0  0  0  0  0  0
   -2.0714   -0.2922    0.7230 C   0  0  1  0  0  0  0  0  0  0  0  0
   -2.5636    0.7527    1.5671 O   0  0  0  0  0  0  0  0  0  0  0  0
   -3.7403    1.3754    1.2535 C   0  0  0  0  0  0  0  0  0  0  0  0
   -4.2205    2.2068    2.2745 C   0  0  0  0  0  0  0  0  0  0  0  0
   -5.4099    2.9233    2.1217 C   0  0  0  0  0  0  0  0  0  0  0  0
   -6.1334    2.8191    0.9361 C   0  0  0  0  0  0  0  0  0  0  0  0
   -5.6593    2.0016   -0.0901 C   0  0  0  0  0  0  0  0  0  0  0  0
   -6.5613    1.8920   -1.5553 Cl  0  0  0  0  0  0  0  0  0  0  0  0
   -4.4687    1.2849    0.0643 C   0  0  0  0  0  0  0  0  0  0  0  0
   -4.0385    0.5271   -0.9573 F   0  0  0  0  0  0  0  0  0  0  0  0
   -1.1519    0.2784   -0.3539 C   0  0  0  0  0  0  0  0  0  0  0  0
   -0.6938   -0.8154   -1.3196 C   0  0  0  0  0  0  0  0  0  0  0  0
   -2.3053   -4.1289   -2.1696 H   0  0  0  0  0  0  0  0  0  0  0  0
    0.9136   -2.7747   -2.3467 H   0  0  0  0  0  0  0  0  0  0  0  0
    1.0465   -3.8251   -0.9500 H   0  0  0  0  0  0  0  0  0  0  0  0
    3.3806   -3.9922   -0.6894 H   0  0  0  0  0  0  0  0  0  0  0  0
    5.5372   -2.8636   -0.2066 H   0  0  0  0  0  0  0  0  0  0  0  0
    5.6610   -0.4244   -0.1944 H   0  0  0  0  0  0  0  0  0  0  0  0
    2.5178    1.4902   -0.9336 H   0  0  0  0  0  0  0  0  0  0  0  0
    4.5354    5.4863   -0.1556 H   0  0  0  0  0  0  0  0  0  0  0  0
    6.8011    4.4127    0.7843 H   0  0  0  0  0  0  0  0  0  0  0  0
    0.7754   -1.3584    1.1105 H   0  0  0  0  0  0  0  0  0  0  0  0
    0.0657   -2.9301    1.3960 H   0  0  0  0  0  0  0  0  0  0  0  0
   -1.9824   -2.0113    2.0138 H   0  0  0  0  0  0  0  0  0  0  0  0
   -0.8981   -0.7454    2.5031 H   0  0  0  0  0  0  0  0  0  0  0  0
   -2.8963   -0.8641    0.2825 H   0  0  0  0  0  0  0  0  0  0  0  0
   -3.6587    2.2929    3.2029 H   0  0  0  0  0  0  0  0  0  0  0  0
   -5.7674    3.5607    2.9272 H   0  0  0  0  0  0  0  0  0  0  0  0
   -7.0584    3.3771    0.8159 H   0  0  0  0  0  0  0  0  0  0  0  0
   -1.6462    1.0797   -0.9148 H   0  0  0  0  0  0  0  0  0  0  0  0
   -0.2817    0.7562    0.1159 H   0  0  0  0  0  0  0  0  0  0  0  0
    0.1217   -0.4126   -1.9293 H   0  0  0  0  0  0  0  0  0  0  0  0
   -1.5125   -0.9901   -2.0302 H   0  0  0  0  0  0  0  0  0  0  0  0
  1  2  2  0
  2  3  1  0
  2  4  1  0
  4  5  1  6
  5  6  1  0
  6  7  2  0
  7  8  1  0
  8  9  2  0
  9 10  1  0
 10 11  1  0
 11 12  1  0
 12 13  2  0
 13 14  1  0
 14 15  2  0
 15 16  1  0
 10 17  2  0
  4 18  1  0
 18 19  1  0
 19 20  1  0
 20 21  1  0
 21 22  1  0
 22 23  2  0
 23 24  1  0
 24 25  2  0
 25 26  1  0
 26 27  1  0
 26 28  2  0
 28 29  1  0
 20 30  1  0
 30 31  1  0
 31  4  1  0
 17  6  1  0
 28 22  1  0
 16 12  1  0
  3 32  1  0
  5 33  1  0
  5 34  1  0
  7 35  1  0
  8 36  1  0
  9 37  1  0
 11 38  1  0
 14 39  1  0
 15 40  1  0
 18 41  1  0
 18 42  1  0
 19 43  1  0
 19 44  1  0
 20 45  1  6
 23 46  1  0
 24 47  1  0
 25 48  1  0
 30 49  1  0
 30 50  1  0
 31 51  1  0
 31 52  1  0
M  END
$$$$
