
     RDKit          3D

 24 26  0  0  0  0  0  0  0  0999 V2000
   -2.2851    2.4082    0.1708 C   0  0  0  0  0  0  0  0  0  0  0  0
   -0.8983    2.1450    0.3306 O   0  0  0  0  0  0  0  0  0  0  0  0
   -0.4930    0.8341    0.1543 C   0  0  0  0  0  0  0  0  0  0  0  0
   -1.2811   -0.2817   -0.1651 C   0  0  0  0  0  0  0  0  0  0  0  0
   -2.6328   -0.3058   -0.3716 O   0  0  0  0  0  0  0  0  0  0  0  0
   -2.9842   -1.5842   -0.6551 C   0  0  0  0  0  0  0  0  0  0  0  0
   -1.8809   -2.4020   -0.6379 C   0  0  0  0  0  0  0  0  0  0  0  0
   -0.7713   -1.5721   -0.3220 C   0  0  0  0  0  0  0  0  0  0  0  0
    0.6101   -1.7905   -0.1549 C   0  0  0  0  0  0  0  0  0  0  0  0
    1.4349   -0.7043    0.1646 C   0  0  0  0  0  0  0  0  0  0  0  0
    2.8681   -0.8816    0.3469 C   0  0  0  0  0  0  0  0  0  0  0  0
    3.6341    0.1698    0.6514 C   0  0  0  0  0  0  0  0  0  0  0  0
    3.0857    1.5262    0.8145 C   0  0  0  0  0  0  0  0  0  0  0  0
    3.8202    2.4663    1.0941 O   0  0  0  0  0  0  0  0  0  0  0  0
    1.7194    1.6682    0.6358 O   0  0  0  0  0  0  0  0  0  0  0  0
    0.8797    0.5695    0.3118 C   0  0  0  0  0  0  0  0  0  0  0  0
   -2.8791    1.8689    0.9154 H   0  0  0  0  0  0  0  0  0  0  0  0
   -2.6153    2.1877   -0.8493 H   0  0  0  0  0  0  0  0  0  0  0  0
   -2.4410    3.4781    0.3408 H   0  0  0  0  0  0  0  0  0  0  0  0
   -4.0364   -1.7490   -0.8422 H   0  0  0  0  0  0  0  0  0  0  0  0
   -1.8747   -3.4657   -0.8291 H   0  0  0  0  0  0  0  0  0  0  0  0
    1.0183   -2.7901   -0.2745 H   0  0  0  0  0  0  0  0  0  0  0  0
    3.2991   -1.8704    0.2327 H   0  0  0  0  0  0  0  0  0  0  0  0
    4.7037    0.0758    0.7944 H   0  0  0  0  0  0  0  0  0  0  0  0
  1  2  1  0
  2  3  1  0
  3  4  2  0
  4  5  1  0
  5  6  1  0
  6  7  2  0
  7  8  1  0
  8  9  2  0
  9 10  1  0
 10 11  1  0
 11 12  2  0
 12 13  1  0
 13 14  2  0
 13 15  1  0
 15 16  1  0
 16  3  1  0
  8  4  1  0
 16 10  2  0
  1 17  1  0
  1 18  1  0
  1 19  1  0
  6 20  1  0
  7 21  1  0
  9 22  1  0
 11 23  1  0
 12 24  1  0
M  END
$$$$
