
     RDKit          3D

 67 68  0  0  0  0  0  0  0  0999 V2000
    0.5788    3.0679    3.2438 C   0  0  0  0  0  0  0  0  0  0  0  0
    0.0601    2.4571    1.9489 C   0  0  2  0  0  0  0  0  0  0  0  0
   -1.1802    1.7391    2.1939 N   0  0  0  0  0  0  0  0  0  0  0  0
   -2.0956    1.5404    1.1832 C   0  0  0  0  0  0  0  0  0  0  0  0
   -2.1322    2.1342    0.1137 O   0  0  0  0  0  0  0  0  0  0  0  0
   -3.1276    0.4315    1.4905 C   0  0  0  0  0  0  0  0  0  0  0  0
   -3.0595   -0.1308    2.5745 O   0  0  0  0  0  0  0  0  0  0  0  0
   -4.0047    0.2395    0.4420 N   0  0  0  0  0  0  0  0  0  0  0  0
   -5.0606   -0.6898    0.3268 C   0  0  0  0  0  0  0  0  0  0  0  0
   -5.3075   -1.5883    1.3825 C   0  0  0  0  0  0  0  0  0  0  0  0
   -6.3324   -2.5285    1.3262 C   0  0  0  0  0  0  0  0  0  0  0  0
   -7.1358   -2.5918    0.2055 C   0  0  0  0  0  0  0  0  0  0  0  0
   -6.9115   -1.7138   -0.8553 C   0  0  0  0  0  0  0  0  0  0  0  0
   -5.8799   -0.7384   -0.8406 C   0  0  0  0  0  0  0  0  0  0  0  0
   -5.7229    0.1933   -2.0783 C   0  0  0  0  0  0  0  0  0  0  0  0
   -6.7636   -0.0811   -3.2050 C   0  0  0  0  0  0  0  0  0  0  0  0
   -4.3454   -0.0094   -2.7499 C   0  0  0  0  0  0  0  0  0  0  0  0
   -5.9414    1.6738   -1.6835 C   0  0  0  0  0  0  0  0  0  0  0  0
    1.0992    1.4757    1.3659 C   0  0  0  0  0  0  0  0  0  0  0  0
    0.9807    0.2546    1.4383 O   0  0  0  0  0  0  0  0  0  0  0  0
    2.1956    2.0761    0.7731 N   0  0  0  0  0  0  0  0  0  0  0  0
    3.3311    1.2546    0.3308 C   0  0  1  0  0  0  0  0  0  0  0  0
    4.1177    1.9699   -0.7648 C   0  0  0  0  0  0  0  0  0  0  0  0
    4.6301    1.0021   -1.7914 C   0  0  0  0  0  0  0  0  0  0  0  0
    4.3012   -0.1589   -1.9461 O   0  0  0  0  0  0  0  0  0  0  0  0
    5.5402    1.5702   -2.6062 O   0  0  0  0  0  0  0  0  0  0  0  0
    4.2122    1.0706    1.5739 C   0  0  0  0  0  0  0  0  0  0  0  0
    4.3452    1.9801    2.4021 O   0  0  0  0  0  0  0  0  0  0  0  0
    4.8878   -0.2750    1.7533 C   0  0  0  0  0  0  0  0  0  0  0  0
    5.7838   -0.4714    0.6671 O   0  0  0  0  0  0  0  0  0  0  0  0
    6.4531   -1.6659    0.6059 C   0  0  0  0  0  0  0  0  0  0  0  0
    7.2207   -1.8650   -0.5480 C   0  0  0  0  0  0  0  0  0  0  0  0
    7.2634   -0.9125   -1.4961 F   0  0  0  0  0  0  0  0  0  0  0  0
    7.9476   -3.0407   -0.7348 C   0  0  0  0  0  0  0  0  0  0  0  0
    8.6641   -3.2157   -1.8529 F   0  0  0  0  0  0  0  0  0  0  0  0
    7.9358   -4.0436    0.2249 C   0  0  0  0  0  0  0  0  0  0  0  0
    7.1788   -3.8523    1.3737 C   0  0  0  0  0  0  0  0  0  0  0  0
    7.1602   -4.8133    2.3099 F   0  0  0  0  0  0  0  0  0  0  0  0
    6.4445   -2.6801    1.5683 C   0  0  0  0  0  0  0  0  0  0  0  0
    5.7530   -2.5508    2.7080 F   0  0  0  0  0  0  0  0  0  0  0  0
    0.7960    2.2913    3.9867 H   0  0  0  0  0  0  0  0  0  0  0  0
   -0.1675    3.7434    3.6788 H   0  0  0  0  0  0  0  0  0  0  0  0
    1.5006    3.6345    3.0827 H   0  0  0  0  0  0  0  0  0  0  0  0
   -0.1253    3.2446    1.2098 H   0  0  0  0  0  0  0  0  0  0  0  0
   -1.1683    0.9879    2.8829 H   0  0  0  0  0  0  0  0  0  0  0  0
   -3.8255    0.8645   -0.3320 H   0  0  0  0  0  0  0  0  0  0  0  0
   -4.7082   -1.5885    2.2877 H   0  0  0  0  0  0  0  0  0  0  0  0
   -6.4944   -3.2037    2.1612 H   0  0  0  0  0  0  0  0  0  0  0  0
   -7.9396   -3.3206    0.1482 H   0  0  0  0  0  0  0  0  0  0  0  0
   -7.5828   -1.8238   -1.7027 H   0  0  0  0  0  0  0  0  0  0  0  0
   -7.7925    0.0679   -2.8555 H   0  0  0  0  0  0  0  0  0  0  0  0
   -6.6748   -1.0996   -3.6014 H   0  0  0  0  0  0  0  0  0  0  0  0
   -6.6162    0.5989   -4.0528 H   0  0  0  0  0  0  0  0  0  0  0  0
   -4.2938    0.5100   -3.7138 H   0  0  0  0  0  0  0  0  0  0  0  0
   -3.5116    0.3712   -2.1597 H   0  0  0  0  0  0  0  0  0  0  0  0
   -4.1526   -1.0710   -2.9343 H   0  0  0  0  0  0  0  0  0  0  0  0
   -5.9856    2.3178   -2.5695 H   0  0  0  0  0  0  0  0  0  0  0  0
   -5.1510    2.0841   -1.0525 H   0  0  0  0  0  0  0  0  0  0  0  0
   -6.8838    1.7924   -1.1375 H   0  0  0  0  0  0  0  0  0  0  0  0
    2.4279    3.0057    1.1008 H   0  0  0  0  0  0  0  0  0  0  0  0
    2.9448    0.2807    0.0191 H   0  0  0  0  0  0  0  0  0  0  0  0
    3.4877    2.6960   -1.2962 H   0  0  0  0  0  0  0  0  0  0  0  0
    4.9750    2.5070   -0.3396 H   0  0  0  0  0  0  0  0  0  0  0  0
    5.8176    0.8449   -3.2056 H   0  0  0  0  0  0  0  0  0  0  0  0
    4.1051   -1.0406    1.7748 H   0  0  0  0  0  0  0  0  0  0  0  0
    5.4348   -0.2511    2.7019 H   0  0  0  0  0  0  0  0  0  0  0  0
    8.5001   -4.9572    0.0820 H   0  0  0  0  0  0  0  0  0  0  0  0
  1  2  1  0
  2  3  1  0
  3  4  1  0
  4  5  2  0
  4  6  1  0
  6  7  2  0
  6  8  1  0
  8  9  1  0
  9 10  2  0
 10 11  1  0
 11 12  2  0
 12 13  1  0
 13 14  2  0
 14 15  1  0
 15 16  1  0
 15 17  1  0
 15 18  1  0
  2 19  1  0
 19 20  2  0
 19 21  1  0
 21 22  1  0
 22 23  1  0
 23 24  1  0
 24 25  2  0
 24 26  1  0
 22 27  1  0
 27 28  2  0
 27 29  1  0
 29 30  1  0
 30 31  1  0
 31 32  2  0
 32 33  1  0
 32 34  1  0
 34 35  1  0
 34 36  2  0
 36 37  1  0
 37 38  1  0
 37 39  2  0
 39 40  1  0
 14  9  1  0
 39 31  1  0
  1 41  1  0
  1 42  1  0
  1 43  1  0
  2 44  1  6
  3 45  1  0
  8 46  1  0
 10 47  1  0
 11 48  1  0
 12 49  1  0
 13 50  1  0
 16 51  1  0
 16 52  1  0
 16 53  1  0
 17 54  1  0
 17 55  1  0
 17 56  1  0
 18 57  1  0
 18 58  1  0
 18 59  1  0
 21 60  1  0
 22 61  1  6
 23 62  1  0
 23 63  1  0
 26 64  1  0
 29 65  1  0
 29 66  1  0
 36 67  1  0
M  END
$$$$
