
     RDKit          3D

 24 24  0  0  0  0  0  0  0  0999 V2000
    3.5198   -0.9984    0.6792 C   0  0  0  0  0  0  0  0  0  0  0  0
    2.4035   -0.0733    0.5688 N   0  0  0  0  0  0  0  0  0  0  0  0
    2.7707    1.3122    0.3033 C   0  0  0  0  0  0  0  0  0  0  0  0
    1.1612   -0.6236    0.2397 C   0  0  0  0  0  0  0  0  0  0  0  0
    1.0319   -1.8177   -0.0167 O   0  0  0  0  0  0  0  0  0  0  0  0
    0.1240    0.2831    0.2711 N   0  0  0  0  0  0  0  0  0  0  0  0
   -1.2029    0.0766   -0.1577 C   0  0  0  0  0  0  0  0  0  0  0  0
   -1.5997   -1.0018   -0.9509 C   0  0  0  0  0  0  0  0  0  0  0  0
   -2.9332   -1.1357   -1.3538 C   0  0  0  0  0  0  0  0  0  0  0  0
   -3.8828   -0.1866   -0.9735 C   0  0  0  0  0  0  0  0  0  0  0  0
   -5.5096   -0.4119   -1.5071 Cl  0  0  0  0  0  0  0  0  0  0  0  0
   -3.4919    0.9021   -0.1896 C   0  0  0  0  0  0  0  0  0  0  0  0
   -4.6037    2.1255    0.3166 Cl  0  0  0  0  0  0  0  0  0  0  0  0
   -2.1566    1.0327    0.2123 C   0  0  0  0  0  0  0  0  0  0  0  0
    3.1926   -1.9627    1.0793 H   0  0  0  0  0  0  0  0  0  0  0  0
    3.9528   -1.1518   -0.3139 H   0  0  0  0  0  0  0  0  0  0  0  0
    4.2734   -0.5792    1.3523 H   0  0  0  0  0  0  0  0  0  0  0  0
    3.3352    1.3464   -0.6340 H   0  0  0  0  0  0  0  0  0  0  0  0
    1.9104    1.9749    0.1999 H   0  0  0  0  0  0  0  0  0  0  0  0
    3.4011    1.6728    1.1213 H   0  0  0  0  0  0  0  0  0  0  0  0
    0.2814    1.0725    0.8783 H   0  0  0  0  0  0  0  0  0  0  0  0
   -0.8895   -1.7560   -1.2803 H   0  0  0  0  0  0  0  0  0  0  0  0
   -3.2185   -1.9870   -1.9678 H   0  0  0  0  0  0  0  0  0  0  0  0
   -1.8696    1.8867    0.8205 H   0  0  0  0  0  0  0  0  0  0  0  0
  1  2  1  0
  2  3  1  0
  2  4  1  0
  4  5  2  0
  4  6  1  0
  6  7  1  0
  7  8  2  0
  8  9  1  0
  9 10  2  0
 10 11  1  0
 10 12  1  0
 12 13  1  0
 12 14  2  0
 14  7  1  0
  1 15  1  0
  1 16  1  0
  1 17  1  0
  3 18  1  0
  3 19  1  0
  3 20  1  0
  6 21  1  0
  8 22  1  0
  9 23  1  0
 14 24  1  0
M  END
$$$$
