
     RDKit          3D

 34 35  0  0  0  0  0  0  0  0999 V2000
    3.1855    2.6352    2.5640 C   0  0  0  0  0  0  0  0  0  0  0  0
    2.7511    1.3124    2.0064 C   0  0  0  0  0  0  0  0  0  0  0  0
    2.9535    0.1361    2.7338 C   0  0  0  0  0  0  0  0  0  0  0  0
    2.5059   -1.0851    2.2326 C   0  0  0  0  0  0  0  0  0  0  0  0
    1.8483   -1.1416    1.0017 C   0  0  0  0  0  0  0  0  0  0  0  0
    1.6421    0.0195    0.2483 C   0  0  0  0  0  0  0  0  0  0  0  0
    0.9123    0.0361   -0.9779 N   0  0  0  0  0  0  0  0  0  0  0  0
    0.6065   -1.1616   -1.5572 N   0  0  0  0  0  0  0  0  0  0  0  0
   -0.5751   -1.6505   -1.2842 C   0  0  0  0  0  0  0  0  0  0  0  0
   -1.5972   -0.9684   -0.4127 C   0  0  0  0  0  0  0  0  0  0  0  0
   -1.8879   -1.5559    0.6267 O   0  0  0  0  0  0  0  0  0  0  0  0
   -2.2266    0.2588   -0.8660 C   0  0  0  0  0  0  0  0  0  0  0  0
   -3.0503    1.0784   -0.1138 C   0  0  0  0  0  0  0  0  0  0  0  0
   -3.5309    2.2000   -0.8484 C   0  0  0  0  0  0  0  0  0  0  0  0
   -3.0699    2.1982   -2.1448 C   0  0  0  0  0  0  0  0  0  0  0  0
   -2.0704    0.8505   -2.4652 S   0  0  0  0  0  0  0  0  0  0  0  0
   -0.8833   -3.0052   -1.8435 C   0  0  0  0  0  0  0  0  0  0  0  0
   -0.1906   -3.9636   -1.5203 O   0  0  0  0  0  0  0  0  0  0  0  0
   -2.0594   -3.0129   -2.7698 C   0  0  0  0  0  0  0  0  0  0  0  0
   -3.1841   -2.5282   -2.1747 F   0  0  0  0  0  0  0  0  0  0  0  0
   -2.3783   -4.2500   -3.2349 F   0  0  0  0  0  0  0  0  0  0  0  0
   -1.8533   -2.2330   -3.8661 F   0  0  0  0  0  0  0  0  0  0  0  0
    2.0776    1.2457    0.7776 C   0  0  0  0  0  0  0  0  0  0  0  0
    4.0691    2.5202    3.2006 H   0  0  0  0  0  0  0  0  0  0  0  0
    3.4534    3.3285    1.7597 H   0  0  0  0  0  0  0  0  0  0  0  0
    2.3774    3.0750    3.1566 H   0  0  0  0  0  0  0  0  0  0  0  0
    3.4553    0.1633    3.6984 H   0  0  0  0  0  0  0  0  0  0  0  0
    2.6628   -1.9975    2.8023 H   0  0  0  0  0  0  0  0  0  0  0  0
    1.5134   -2.1094    0.6389 H   0  0  0  0  0  0  0  0  0  0  0  0
    1.4126    0.6741   -1.6076 H   0  0  0  0  0  0  0  0  0  0  0  0
   -3.2922    0.8780    0.9249 H   0  0  0  0  0  0  0  0  0  0  0  0
   -4.1838    2.9658   -0.4467 H   0  0  0  0  0  0  0  0  0  0  0  0
   -3.2763    2.9221   -2.9218 H   0  0  0  0  0  0  0  0  0  0  0  0
    1.8829    2.1651    0.2295 H   0  0  0  0  0  0  0  0  0  0  0  0
  1  2  1  0
  2  3  2  0
  3  4  1  0
  4  5  2  0
  5  6  1  0
  6  7  1  0
  7  8  1  0
  8  9  2  0
  9 10  1  0
 10 11  2  0
 10 12  1  0
 12 13  2  0
 13 14  1  0
 14 15  2  0
 15 16  1  0
  9 17  1  0
 17 18  2  0
 17 19  1  0
 19 20  1  0
 19 21  1  0
 19 22  1  0
  6 23  2  0
 23  2  1  0
 16 12  1  0
  1 24  1  0
  1 25  1  0
  1 26  1  0
  3 27  1  0
  4 28  1  0
  5 29  1  0
  7 30  1  0
 13 31  1  0
 14 32  1  0
 15 33  1  0
 23 34  1  0
M  END
$$$$
