
     RDKit          3D

 61 62  0  0  0  0  0  0  0  0999 V2000
   -3.6337   -3.4195   -3.1012 C   0  0  0  0  0  0  0  0  0  0  0  0
   -3.9141   -3.4572   -1.6186 C   0  0  0  0  0  0  0  0  0  0  0  0
   -3.2080   -2.4637   -0.9652 O   0  0  0  0  0  0  0  0  0  0  0  0
   -1.8538   -2.3005   -0.9651 C   0  0  0  0  0  0  0  0  0  0  0  0
   -1.1869   -3.1491   -1.6424 O   0  0  0  0  0  0  0  0  0  0  0  0
   -1.1845   -1.2064   -0.2328 C   0  0  2  0  0  0  0  0  0  0  0  0
   -2.0214    0.0177   -0.1574 C   0  0  0  0  0  0  0  0  0  0  0  0
   -3.3114   -0.0857    0.5828 C   0  0  0  0  0  0  0  0  0  0  0  0
   -4.0376    1.2399    0.5884 C   0  0  0  0  0  0  0  0  0  0  0  0
   -3.7905    2.1583    1.5907 C   0  0  0  0  0  0  0  0  0  0  0  0
   -4.4508    3.3660    1.6263 C   0  0  0  0  0  0  0  0  0  0  0  0
   -5.3592    3.6311    0.6409 C   0  0  0  0  0  0  0  0  0  0  0  0
   -5.5945    2.7232   -0.3387 C   0  0  0  0  0  0  0  0  0  0  0  0
   -4.9471    1.4857   -0.4123 C   0  0  0  0  0  0  0  0  0  0  0  0
    0.1142   -1.0231   -0.8073 N   0  0  0  0  0  0  0  0  0  0  0  0
    1.0295   -0.2190   -0.0710 C   0  0  1  0  0  0  0  0  0  0  0  0
    1.4329   -0.7723    1.2624 C   0  0  0  0  0  0  0  0  0  0  0  0
    1.8778    0.4234    2.1241 C   0  0  0  0  0  0  0  0  0  0  0  0
    3.3190    0.6642    1.9509 C   0  0  0  0  0  0  0  0  0  0  0  0
    3.9394    0.8776    3.1547 C   0  0  0  0  0  0  0  0  0  0  0  0
    5.2850    1.1209    3.1969 C   0  0  0  0  0  0  0  0  0  0  0  0
    5.9866    1.1417    2.0064 C   0  0  0  0  0  0  0  0  0  0  0  0
    5.3485    0.9239    0.7902 C   0  0  0  0  0  0  0  0  0  0  0  0
    4.0205    0.6833    0.7406 C   0  0  0  0  0  0  0  0  0  0  0  0
    3.5559    0.4885   -0.5854 N   0  0  0  0  0  0  0  0  0  0  0  0
    4.4496    0.8206   -1.6689 C   0  0  0  0  0  0  0  0  0  0  0  0
    5.3167   -0.2625   -2.1299 C   0  0  0  0  0  0  0  0  0  0  0  0
    6.1258   -0.0469   -3.0618 O   0  0  0  0  0  0  0  0  0  0  0  0
    5.2777   -1.5201   -1.5770 O   0  0  0  0  0  0  0  0  0  0  0  0
    2.2481   -0.0170   -0.8903 C   0  0  0  0  0  0  0  0  0  0  0  0
    2.1620   -0.3424   -2.1216 O   0  0  0  0  0  0  0  0  0  0  0  0
    0.6888    0.0000    0.0000 Cl  0  0  0  0  0  0  0  0  0  0  0  0
   -2.6605   -2.9322   -3.3324 H   0  0  0  0  0  0  0  0  0  0  0  0
   -4.3982   -2.8378   -3.6804 H   0  0  0  0  0  0  0  0  0  0  0  0
   -3.6310   -4.4892   -3.4341 H   0  0  0  0  0  0  0  0  0  0  0  0
   -5.0108   -3.2160   -1.4572 H   0  0  0  0  0  0  0  0  0  0  0  0
   -3.7155   -4.4710   -1.1949 H   0  0  0  0  0  0  0  0  0  0  0  0
   -1.0601   -1.5328    0.8655 H   0  0  0  0  0  0  0  0  0  0  0  0
   -2.2987    0.2775   -1.2309 H   0  0  0  0  0  0  0  0  0  0  0  0
   -1.4339    0.8979    0.2642 H   0  0  0  0  0  0  0  0  0  0  0  0
   -3.1260   -0.2771    1.6833 H   0  0  0  0  0  0  0  0  0  0  0  0
   -3.9785   -0.8806    0.2550 H   0  0  0  0  0  0  0  0  0  0  0  0
   -3.0547    1.8808    2.3376 H   0  0  0  0  0  0  0  0  0  0  0  0
   -4.2214    4.0578    2.4379 H   0  0  0  0  0  0  0  0  0  0  0  0
   -5.8661    4.5898    0.6911 H   0  0  0  0  0  0  0  0  0  0  0  0
   -6.3263    2.9301   -1.1407 H   0  0  0  0  0  0  0  0  0  0  0  0
   -5.1159    0.7554   -1.1620 H   0  0  0  0  0  0  0  0  0  0  0  0
    0.0821   -0.6489   -1.7830 H   0  0  0  0  0  0  0  0  0  0  0  0
    0.5674    0.8129    0.0486 H   0  0  0  0  0  0  0  0  0  0  0  0
    0.7017   -1.3803    1.7807 H   0  0  0  0  0  0  0  0  0  0  0  0
    2.3553   -1.4154    1.1203 H   0  0  0  0  0  0  0  0  0  0  0  0
    1.6461    0.1827    3.1740 H   0  0  0  0  0  0  0  0  0  0  0  0
    1.2877    1.3090    1.8356 H   0  0  0  0  0  0  0  0  0  0  0  0
    3.4035    0.8611    4.0999 H   0  0  0  0  0  0  0  0  0  0  0  0
    5.7965    1.2944    4.1648 H   0  0  0  0  0  0  0  0  0  0  0  0
    7.0457    1.3358    2.1056 H   0  0  0  0  0  0  0  0  0  0  0  0
    5.9308    0.9518   -0.0894 H   0  0  0  0  0  0  0  0  0  0  0  0
    3.7393    1.0080   -2.5448 H   0  0  0  0  0  0  0  0  0  0  0  0
    4.9138    1.8231   -1.5897 H   0  0  0  0  0  0  0  0  0  0  0  0
    5.4322   -2.3673   -2.1333 H   0  0  0  0  0  0  0  0  0  0  0  0
   -0.6888    0.0000    0.0000 H   0  0  0  0  0  0  0  0  0  0  0  0
  1  2  1  0
  2  3  1  0
  3  4  1  0
  4  5  2  0
  4  6  1  0
  6  7  1  0
  7  8  1  0
  8  9  1  0
  9 10  2  0
 10 11  1  0
 11 12  2  0
 12 13  1  0
 13 14  2  0
  6 15  1  0
 15 16  1  0
 16 17  1  0
 17 18  1  0
 18 19  1  0
 19 20  2  0
 20 21  1  0
 21 22  2  0
 22 23  1  0
 23 24  2  0
 24 25  1  0
 25 26  1  0
 26 27  1  0
 27 28  2  0
 27 29  1  0
 25 30  1  0
 30 31  2  0
 14  9  1  0
 30 16  1  0
 24 19  1  0
  1 33  1  0
  1 34  1  0
  1 35  1  0
  2 36  1  0
  2 37  1  0
  6 38  1  1
  7 39  1  0
  7 40  1  0
  8 41  1  0
  8 42  1  0
 10 43  1  0
 11 44  1  0
 12 45  1  0
 13 46  1  0
 14 47  1  0
 15 48  1  0
 16 49  1  1
 17 50  1  0
 17 51  1  0
 18 52  1  0
 18 53  1  0
 20 54  1  0
 21 55  1  0
 22 56  1  0
 23 57  1  0
 26 58  1  0
 26 59  1  0
 29 60  1  0
 32 61  1  0
M  END
$$$$
