
     RDKit          3D

 30 31  0  0  0  0  0  0  0  0999 V2000
    5.2004   -0.2495   -0.3799 O   0  0  0  0  0  0  0  0  0  0  0  0
    5.0763    0.6728    0.4071 C   0  0  0  0  0  0  0  0  0  0  0  0
    6.1694    1.3011    0.8907 O   0  0  0  0  0  0  0  0  0  0  0  0
    3.8019    1.2607    0.9619 C   0  0  0  0  0  0  0  0  0  0  0  0
    2.5479    0.5897    0.4493 C   0  0  0  0  0  0  0  0  0  0  0  0
    1.9309    1.0399   -0.7265 C   0  0  0  0  0  0  0  0  0  0  0  0
    0.7813    0.4061   -1.2140 C   0  0  0  0  0  0  0  0  0  0  0  0
   -0.0330    1.1294   -3.0069 I   0  0  0  0  0  0  0  0  0  0  0  0
    0.2229   -0.6768   -0.5201 C   0  0  0  0  0  0  0  0  0  0  0  0
   -0.8902   -1.3153   -1.0114 O   0  0  0  0  0  0  0  0  0  0  0  0
   -2.1341   -0.8849   -0.5913 C   0  0  0  0  0  0  0  0  0  0  0  0
   -2.3759    0.1604    0.3050 C   0  0  0  0  0  0  0  0  0  0  0  0
   -3.6878    0.4992    0.6505 C   0  0  0  0  0  0  0  0  0  0  0  0
   -4.7584   -0.2062    0.1007 C   0  0  0  0  0  0  0  0  0  0  0  0
   -6.0363    0.1341    0.4459 O   0  0  0  0  0  0  0  0  0  0  0  0
   -4.5222   -1.2514   -0.7953 C   0  0  0  0  0  0  0  0  0  0  0  0
   -6.0822   -2.3465   -1.6536 I   0  0  0  0  0  0  0  0  0  0  0  0
   -3.2107   -1.5889   -1.1397 C   0  0  0  0  0  0  0  0  0  0  0  0
    0.8635   -1.1570    0.6311 C   0  0  0  0  0  0  0  0  0  0  0  0
    0.1758   -2.8397    1.6781 I   0  0  0  0  0  0  0  0  0  0  0  0
    2.0130   -0.5215    1.1165 C   0  0  0  0  0  0  0  0  0  0  0  0
    6.9185    0.8345    0.4620 H   0  0  0  0  0  0  0  0  0  0  0  0
    3.8319    1.1840    2.0553 H   0  0  0  0  0  0  0  0  0  0  0  0
    3.7718    2.3266    0.7066 H   0  0  0  0  0  0  0  0  0  0  0  0
    2.3614    1.8799   -1.2691 H   0  0  0  0  0  0  0  0  0  0  0  0
   -1.5644    0.7282    0.7499 H   0  0  0  0  0  0  0  0  0  0  0  0
   -3.8525    1.3146    1.3487 H   0  0  0  0  0  0  0  0  0  0  0  0
   -6.0154    0.8749    1.0726 H   0  0  0  0  0  0  0  0  0  0  0  0
   -3.0111   -2.4000   -1.8358 H   0  0  0  0  0  0  0  0  0  0  0  0
    2.5076   -0.8983    2.0102 H   0  0  0  0  0  0  0  0  0  0  0  0
  1  2  2  0
  2  3  1  0
  2  4  1  0
  4  5  1  0
  5  6  2  0
  6  7  1  0
  7  8  1  0
  7  9  2  0
  9 10  1  0
 10 11  1  0
 11 12  2  0
 12 13  1  0
 13 14  2  0
 14 15  1  0
 14 16  1  0
 16 17  1  0
 16 18  2  0
  9 19  1  0
 19 20  1  0
 19 21  2  0
 21  5  1  0
 18 11  1  0
  3 22  1  0
  4 23  1  0
  4 24  1  0
  6 25  1  0
 12 26  1  0
 13 27  1  0
 15 28  1  0
 18 29  1  0
 21 30  1  0
M  END
$$$$
