
     RDKit          3D

 52 55  0  0  0  0  0  0  0  0999 V2000
    4.0287    3.8884    1.5322 C   0  0  0  0  0  0  0  0  0  0  0  0
    4.1928    2.4836    1.7005 O   0  0  0  0  0  0  0  0  0  0  0  0
    4.1947    1.8071    0.4425 C   0  0  0  0  0  0  0  0  0  0  0  0
    4.4756    0.3232    0.6571 C   0  0  0  0  0  0  0  0  0  0  0  0
    3.5239   -0.3603    1.6392 C   0  0  0  0  0  0  0  0  0  0  0  0
    2.1358   -0.3490    1.2129 N   0  0  0  0  0  0  0  0  0  0  0  0
    1.1490    0.5160    1.6350 C   0  0  0  0  0  0  0  0  0  0  0  0
    1.4102    1.5191    2.5034 N   0  0  0  0  0  0  0  0  0  0  0  0
   -0.0493    0.1530    1.0297 C   0  0  0  0  0  0  0  0  0  0  0  0
   -1.3284    0.8300    1.2049 C   0  0  0  0  0  0  0  0  0  0  0  0
   -1.4441    1.8809    1.8323 O   0  0  0  0  0  0  0  0  0  0  0  0
   -2.3965    0.2084    0.5926 N   0  0  0  0  0  0  0  0  0  0  0  0
   -3.7030    0.8157    0.5305 C   0  0  0  0  0  0  0  0  0  0  0  0
   -4.7948   -0.1810    0.1625 C   0  0  0  0  0  0  0  0  0  0  0  0
   -5.9486    0.7165   -0.2556 C   0  0  0  0  0  0  0  0  0  0  0  0
   -5.2947    1.9111   -0.9470 C   0  0  0  0  0  0  0  0  0  0  0  0
   -3.8138    1.8714   -0.5691 C   0  0  0  0  0  0  0  0  0  0  0  0
    0.2466   -0.9717    0.2123 C   0  0  0  0  0  0  0  0  0  0  0  0
   -0.5635   -1.7062   -0.5990 N   0  0  0  0  0  0  0  0  0  0  0  0
    0.0614   -2.7095   -1.2403 C   0  0  0  0  0  0  0  0  0  0  0  0
   -0.6898   -3.5156   -2.0863 C   0  0  0  0  0  0  0  0  0  0  0  0
   -0.1151   -4.5762   -2.7884 C   0  0  0  0  0  0  0  0  0  0  0  0
    1.2397   -4.8381   -2.6430 C   0  0  0  0  0  0  0  0  0  0  0  0
    2.0077   -4.0370   -1.7970 C   0  0  0  0  0  0  0  0  0  0  0  0
    1.4503   -2.9783   -1.0917 C   0  0  0  0  0  0  0  0  0  0  0  0
    2.2538   -2.2512   -0.2972 N   0  0  0  0  0  0  0  0  0  0  0  0
    1.5985   -1.2577    0.3372 C   0  0  0  0  0  0  0  0  0  0  0  0
    3.0790    4.1055    1.0338 H   0  0  0  0  0  0  0  0  0  0  0  0
    4.0188    4.3532    2.5217 H   0  0  0  0  0  0  0  0  0  0  0  0
    4.8618    4.3046    0.9579 H   0  0  0  0  0  0  0  0  0  0  0  0
    4.9775    2.2296   -0.1985 H   0  0  0  0  0  0  0  0  0  0  0  0
    3.2295    1.9524   -0.0552 H   0  0  0  0  0  0  0  0  0  0  0  0
    4.4521   -0.1875   -0.3126 H   0  0  0  0  0  0  0  0  0  0  0  0
    5.4924    0.2142    1.0545 H   0  0  0  0  0  0  0  0  0  0  0  0
    3.5897    0.0860    2.6369 H   0  0  0  0  0  0  0  0  0  0  0  0
    3.8150   -1.4110    1.7605 H   0  0  0  0  0  0  0  0  0  0  0  0
    2.3454    1.9278    2.5706 H   0  0  0  0  0  0  0  0  0  0  0  0
    0.6745    2.2157    2.6549 H   0  0  0  0  0  0  0  0  0  0  0  0
   -2.1853   -0.5819   -0.0130 H   0  0  0  0  0  0  0  0  0  0  0  0
   -3.9277    1.2749    1.5019 H   0  0  0  0  0  0  0  0  0  0  0  0
   -4.4849   -0.8152   -0.6776 H   0  0  0  0  0  0  0  0  0  0  0  0
   -5.0593   -0.8376    0.9972 H   0  0  0  0  0  0  0  0  0  0  0  0
   -6.4956    1.0584    0.6312 H   0  0  0  0  0  0  0  0  0  0  0  0
   -6.6604    0.2001   -0.9065 H   0  0  0  0  0  0  0  0  0  0  0  0
   -5.4092    1.8452   -2.0346 H   0  0  0  0  0  0  0  0  0  0  0  0
   -5.7638    2.8470   -0.6251 H   0  0  0  0  0  0  0  0  0  0  0  0
   -3.4503    2.8490   -0.2354 H   0  0  0  0  0  0  0  0  0  0  0  0
   -3.2185    1.5885   -1.4466 H   0  0  0  0  0  0  0  0  0  0  0  0
   -1.7523   -3.3142   -2.2027 H   0  0  0  0  0  0  0  0  0  0  0  0
   -0.7267   -5.1919   -3.4433 H   0  0  0  0  0  0  0  0  0  0  0  0
    1.7020   -5.6611   -3.1823 H   0  0  0  0  0  0  0  0  0  0  0  0
    3.0695   -4.2442   -1.6833 H   0  0  0  0  0  0  0  0  0  0  0  0
  1  2  1  0
  2  3  1  0
  3  4  1  0
  4  5  1  0
  5  6  1  0
  6  7  1  0
  7  8  1  0
  7  9  2  0
  9 10  1  0
 10 11  2  0
 10 12  1  0
 12 13  1  0
 13 14  1  0
 14 15  1  0
 15 16  1  0
 16 17  1  0
  9 18  1  0
 18 19  2  0
 19 20  1  0
 20 21  2  0
 21 22  1  0
 22 23  2  0
 23 24  1  0
 24 25  2  0
 25 26  1  0
 26 27  2  0
 27  6  1  0
 17 13  1  0
 27 18  1  0
 25 20  1  0
  1 28  1  0
  1 29  1  0
  1 30  1  0
  3 31  1  0
  3 32  1  0
  4 33  1  0
  4 34  1  0
  5 35  1  0
  5 36  1  0
  8 37  1  0
  8 38  1  0
 12 39  1  0
 13 40  1  0
 14 41  1  0
 14 42  1  0
 15 43  1  0
 15 44  1  0
 16 45  1  0
 16 46  1  0
 17 47  1  0
 17 48  1  0
 21 49  1  0
 22 50  1  0
 23 51  1  0
 24 52  1  0
M  END
$$$$
