
     RDKit          3D

 49 50  0  0  0  0  0  0  0  0999 V2000
    8.3566    0.1356    2.7202 C   0  0  0  0  0  0  0  0  0  0  0  0
    7.1824   -0.2599    1.8427 C   0  0  0  0  0  0  0  0  0  0  0  0
    6.1226    0.6653    2.0824 O   0  0  0  0  0  0  0  0  0  0  0  0
    4.9817    0.5097    1.3455 C   0  0  0  0  0  0  0  0  0  0  0  0
    4.7261   -0.5099    0.4318 C   0  0  0  0  0  0  0  0  0  0  0  0
    3.5077   -0.5455   -0.2588 C   0  0  0  0  0  0  0  0  0  0  0  0
    2.5290    0.4329   -0.0443 C   0  0  0  0  0  0  0  0  0  0  0  0
    1.3404    0.3251   -0.7927 N   0  0  0  0  0  0  0  0  0  0  0  0
    0.1961    1.0961   -0.6811 C   0  0  0  0  0  0  0  0  0  0  0  0
    0.0050    1.9974    0.1320 O   0  0  0  0  0  0  0  0  0  0  0  0
   -0.8755    0.7371   -1.7026 C   0  0  0  0  0  0  0  0  0  0  0  0
   -1.7924   -0.3676   -1.3172 N   0  0  0  0  0  0  0  0  0  0  0  0
   -2.9317    0.0038   -0.5244 C   0  0  0  0  0  0  0  0  0  0  0  0
   -2.8199    0.3630    0.8190 C   0  0  0  0  0  0  0  0  0  0  0  0
   -3.9560    0.7288    1.5414 C   0  0  0  0  0  0  0  0  0  0  0  0
   -5.2080    0.7424    0.9231 C   0  0  0  0  0  0  0  0  0  0  0  0
   -5.3251    0.3953   -0.4277 C   0  0  0  0  0  0  0  0  0  0  0  0
   -6.6373    0.3870   -1.1370 C   0  0  0  0  0  0  0  0  0  0  0  0
   -7.8617    0.8872   -0.4169 C   0  0  0  0  0  0  0  0  0  0  0  0
   -6.7010   -0.0327   -2.2910 O   0  0  0  0  0  0  0  0  0  0  0  0
   -4.1793    0.0322   -1.1495 C   0  0  0  0  0  0  0  0  0  0  0  0
   -1.0640   -1.8609   -0.9680 S   0  0  0  0  0  6  0  0  0  0  0  0
   -2.2713   -3.0092   -1.5978 C   0  0  0  0  0  0  0  0  0  0  0  0
    0.1150   -1.9612   -1.8115 O   0  0  0  0  0  0  0  0  0  0  0  0
   -0.9512   -2.0333    0.4625 O   0  0  0  0  0  0  0  0  0  0  0  0
    2.7890    1.4508    0.8708 C   0  0  0  0  0  0  0  0  0  0  0  0
    4.0073    1.4853    1.5601 C   0  0  0  0  0  0  0  0  0  0  0  0
    8.0812    0.0814    3.7790 H   0  0  0  0  0  0  0  0  0  0  0  0
    8.6556    1.1705    2.5212 H   0  0  0  0  0  0  0  0  0  0  0  0
    9.2143   -0.5209    2.5450 H   0  0  0  0  0  0  0  0  0  0  0  0
    7.4924   -0.2186    0.7916 H   0  0  0  0  0  0  0  0  0  0  0  0
    6.8656   -1.2758    2.1048 H   0  0  0  0  0  0  0  0  0  0  0  0
    5.4464   -1.2958    0.2332 H   0  0  0  0  0  0  0  0  0  0  0  0
    3.3346   -1.3552   -0.9644 H   0  0  0  0  0  0  0  0  0  0  0  0
    1.2821   -0.4860   -1.4104 H   0  0  0  0  0  0  0  0  0  0  0  0
   -1.4556    1.6462   -1.9089 H   0  0  0  0  0  0  0  0  0  0  0  0
   -0.3998    0.4889   -2.6594 H   0  0  0  0  0  0  0  0  0  0  0  0
   -1.8541    0.3575    1.3206 H   0  0  0  0  0  0  0  0  0  0  0  0
   -3.8602    1.0015    2.5902 H   0  0  0  0  0  0  0  0  0  0  0  0
   -6.0712    1.0233    1.5189 H   0  0  0  0  0  0  0  0  0  0  0  0
   -7.7061    1.9122   -0.0685 H   0  0  0  0  0  0  0  0  0  0  0  0
   -8.7089    0.8935   -1.1104 H   0  0  0  0  0  0  0  0  0  0  0  0
   -8.1050    0.2230    0.4162 H   0  0  0  0  0  0  0  0  0  0  0  0
   -4.2613   -0.2317   -2.2021 H   0  0  0  0  0  0  0  0  0  0  0  0
   -3.1895   -2.9270   -1.0136 H   0  0  0  0  0  0  0  0  0  0  0  0
   -1.8592   -4.0157   -1.4939 H   0  0  0  0  0  0  0  0  0  0  0  0
   -2.4513   -2.7918   -2.6522 H   0  0  0  0  0  0  0  0  0  0  0  0
    2.0707    2.2387    1.0723 H   0  0  0  0  0  0  0  0  0  0  0  0
    4.1950    2.2872    2.2702 H   0  0  0  0  0  0  0  0  0  0  0  0
  1  2  1  0
  2  3  1  0
  3  4  1  0
  4  5  2  0
  5  6  1  0
  6  7  2  0
  7  8  1  0
  8  9  1  0
  9 10  2  0
  9 11  1  0
 11 12  1  0
 12 13  1  0
 13 14  2  0
 14 15  1  0
 15 16  2  0
 16 17  1  0
 17 18  1  0
 18 19  1  0
 18 20  2  0
 17 21  2  0
 12 22  1  0
 22 23  1  0
 22 24  2  0
 22 25  2  0
  7 26  1  0
 26 27  2  0
 27  4  1  0
 21 13  1  0
  1 28  1  0
  1 29  1  0
  1 30  1  0
  2 31  1  0
  2 32  1  0
  5 33  1  0
  6 34  1  0
  8 35  1  0
 11 36  1  0
 11 37  1  0
 14 38  1  0
 15 39  1  0
 16 40  1  0
 19 41  1  0
 19 42  1  0
 19 43  1  0
 21 44  1  0
 23 45  1  0
 23 46  1  0
 23 47  1  0
 26 48  1  0
 27 49  1  0
M  END
$$$$
