
     RDKit          3D

 52 55  0  0  0  0  0  0  0  0999 V2000
    1.5694   -1.5158    1.1878 O   0  0  0  0  0  0  0  0  0  0  0  0
    0.9279   -0.5768    0.7129 C   0  0  0  0  0  0  0  0  0  0  0  0
   -0.5143   -0.7982    0.4784 C   0  0  0  0  0  0  0  0  0  0  0  0
   -0.8966   -2.0423   -0.0383 C   0  0  0  0  0  0  0  0  0  0  0  0
   -2.2448   -2.3341   -0.2581 C   0  0  0  0  0  0  0  0  0  0  0  0
   -3.2413   -1.4012    0.0487 C   0  0  0  0  0  0  0  0  0  0  0  0
   -4.5782   -1.7305   -0.2336 N   0  0  0  0  0  0  0  0  0  0  0  0
   -5.7310   -0.9396   -0.4036 C   0  0  0  0  0  0  0  0  0  0  0  0
   -5.6927    0.3634   -0.9147 C   0  0  0  0  0  0  0  0  0  0  0  0
   -6.8676    1.1101   -1.0498 C   0  0  0  0  0  0  0  0  0  0  0  0
   -8.0867    0.5542   -0.6761 C   0  0  0  0  0  0  0  0  0  0  0  0
   -9.2071    1.2754   -0.8088 F   0  0  0  0  0  0  0  0  0  0  0  0
   -8.1597   -0.7361   -0.1761 C   0  0  0  0  0  0  0  0  0  0  0  0
   -6.9852   -1.4686   -0.0479 C   0  0  0  0  0  0  0  0  0  0  0  0
   -7.0549   -2.7205    0.4333 F   0  0  0  0  0  0  0  0  0  0  0  0
   -2.8456   -0.1664    0.5770 C   0  0  0  0  0  0  0  0  0  0  0  0
   -1.4900    0.1433    0.8065 C   0  0  0  0  0  0  0  0  0  0  0  0
   -1.1158    1.4675    1.4042 C   0  0  0  0  0  0  0  0  0  0  0  0
   -0.3680    2.3133    0.3840 C   0  0  0  0  0  0  0  0  0  0  0  0
    1.0790    1.9480    0.1567 C   0  0  0  0  0  0  0  0  0  0  0  0
    1.9141    2.9943   -0.2887 C   0  0  0  0  0  0  0  0  0  0  0  0
    3.2778    2.7978   -0.5094 C   0  0  0  0  0  0  0  0  0  0  0  0
    3.8538    1.5533   -0.2895 C   0  0  0  0  0  0  0  0  0  0  0  0
    5.1922    1.4856   -0.5414 O   0  0  0  0  0  0  0  0  0  0  0  0
    5.9539    0.4066    0.0133 C   0  0  0  0  0  0  0  0  0  0  0  0
    6.3643   -0.5831   -1.0850 C   0  0  2  0  0  0  0  0  0  0  0  0
    5.2615   -1.4017   -1.5145 O   0  0  0  0  0  0  0  0  0  0  0  0
    7.4749   -1.5212   -0.6029 C   0  0  0  0  0  0  0  0  0  0  0  0
    7.8376   -2.4187   -1.6515 O   0  0  0  0  0  0  0  0  0  0  0  0
    3.0360    0.5029    0.1134 C   0  0  0  0  0  0  0  0  0  0  0  0
    1.6487    0.6756    0.3314 C   0  0  0  0  0  0  0  0  0  0  0  0
   -0.1426   -2.7910   -0.2745 H   0  0  0  0  0  0  0  0  0  0  0  0
   -2.5099   -3.3005   -0.6807 H   0  0  0  0  0  0  0  0  0  0  0  0
   -4.7977   -2.7075   -0.0457 H   0  0  0  0  0  0  0  0  0  0  0  0
   -4.7536    0.7992   -1.2447 H   0  0  0  0  0  0  0  0  0  0  0  0
   -6.8385    2.1180   -1.4527 H   0  0  0  0  0  0  0  0  0  0  0  0
   -9.1121   -1.1661    0.1085 H   0  0  0  0  0  0  0  0  0  0  0  0
   -3.6038    0.5606    0.8577 H   0  0  0  0  0  0  0  0  0  0  0  0
   -2.0245    2.0039    1.7057 H   0  0  0  0  0  0  0  0  0  0  0  0
   -0.5327    1.3186    2.3216 H   0  0  0  0  0  0  0  0  0  0  0  0
   -0.4018    3.3478    0.7528 H   0  0  0  0  0  0  0  0  0  0  0  0
   -0.8851    2.3055   -0.5848 H   0  0  0  0  0  0  0  0  0  0  0  0
    1.5034    3.9882   -0.4629 H   0  0  0  0  0  0  0  0  0  0  0  0
    3.8946    3.6267   -0.8489 H   0  0  0  0  0  0  0  0  0  0  0  0
    5.4504   -0.0877    0.8510 H   0  0  0  0  0  0  0  0  0  0  0  0
    6.8566    0.8707    0.4282 H   0  0  0  0  0  0  0  0  0  0  0  0
    6.6954   -0.0418   -1.9783 H   0  0  0  0  0  0  0  0  0  0  0  0
    4.9226   -1.8903   -0.7436 H   0  0  0  0  0  0  0  0  0  0  0  0
    8.3678   -0.9659   -0.3014 H   0  0  0  0  0  0  0  0  0  0  0  0
    7.1343   -2.1301    0.2409 H   0  0  0  0  0  0  0  0  0  0  0  0
    7.0156   -2.6034   -2.1485 H   0  0  0  0  0  0  0  0  0  0  0  0
    3.4501   -0.4914    0.2373 H   0  0  0  0  0  0  0  0  0  0  0  0
  1  2  2  0
  2  3  1  0
  3  4  2  0
  4  5  1  0
  5  6  2  0
  6  7  1  0
  7  8  1  0
  8  9  2  0
  9 10  1  0
 10 11  2  0
 11 12  1  0
 11 13  1  0
 13 14  2  0
 14 15  1  0
  6 16  1  0
 16 17  2  0
 17 18  1  0
 18 19  1  0
 19 20  1  0
 20 21  2  0
 21 22  1  0
 22 23  2  0
 23 24  1  0
 24 25  1  0
 25 26  1  0
 26 27  1  0
 26 28  1  0
 28 29  1  0
 23 30  1  0
 30 31  2  0
 31  2  1  0
 17  3  1  0
 31 20  1  0
 14  8  1  0
  4 32  1  0
  5 33  1  0
  7 34  1  0
  9 35  1  0
 10 36  1  0
 13 37  1  0
 16 38  1  0
 18 39  1  0
 18 40  1  0
 19 41  1  0
 19 42  1  0
 21 43  1  0
 22 44  1  0
 25 45  1  0
 25 46  1  0
 26 47  1  6
 27 48  1  0
 28 49  1  0
 28 50  1  0
 29 51  1  0
 30 52  1  0
M  END
$$$$
