
     RDKit          3D

 45 48  0  0  0  0  0  0  0  0999 V2000
    7.5664    2.5700    0.8425 C   0  0  0  0  0  0  0  0  0  0  0  0
    6.4872    1.6217    0.7277 N   0  0  0  0  0  0  0  0  0  0  0  0
    6.6106    0.5301   -0.1224 C   0  0  0  0  0  0  0  0  0  0  0  0
    7.5658    0.3746   -0.8747 O   0  0  0  0  0  0  0  0  0  0  0  0
    5.4979   -0.4727   -0.0538 C   0  0  0  0  0  0  0  0  0  0  0  0
    4.1752   -0.0472    0.0515 C   0  0  0  0  0  0  0  0  0  0  0  0
    3.1622   -1.0103    0.1136 C   0  0  0  0  0  0  0  0  0  0  0  0
    1.7140   -0.6035    0.2474 C   0  0  0  0  0  0  0  0  0  0  0  0
    0.9444   -1.3211   -0.7162 O   0  0  0  0  0  0  0  0  0  0  0  0
   -0.3996   -1.0242   -0.6465 C   0  0  0  0  0  0  0  0  0  0  0  0
   -0.8857   -0.1263    0.2335 N   0  0  0  0  0  0  0  0  0  0  0  0
   -2.2522    0.1642    0.2921 N   0  0  0  0  0  0  0  0  0  0  0  0
   -3.1861   -0.4158   -0.5122 C   0  0  0  0  0  0  0  0  0  0  0  0
   -4.5544   -0.1134   -0.4379 N   0  0  0  0  0  0  0  0  0  0  0  0
   -5.2861    0.7823    0.3598 C   0  0  0  0  0  0  0  0  0  0  0  0
   -6.6851    0.8150    0.2147 C   0  0  0  0  0  0  0  0  0  0  0  0
   -7.4790    1.6748    0.9818 C   0  0  0  0  0  0  0  0  0  0  0  0
   -6.8813    2.5177    1.9114 C   0  0  0  0  0  0  0  0  0  0  0  0
   -7.8502    3.5767    2.8578 Cl  0  0  0  0  0  0  0  0  0  0  0  0
   -5.5011    2.5041    2.0763 C   0  0  0  0  0  0  0  0  0  0  0  0
   -4.7123    1.6403    1.3051 C   0  0  0  0  0  0  0  0  0  0  0  0
   -2.6919   -1.3621   -1.4393 C   0  0  0  0  0  0  0  0  0  0  0  0
   -3.2678   -2.1966   -2.4463 C   0  0  0  0  0  0  0  0  0  0  0  0
   -2.2344   -2.9040   -3.0136 C   0  0  0  0  0  0  0  0  0  0  0  0
   -1.0560   -2.5703   -2.4317 O   0  0  0  0  0  0  0  0  0  0  0  0
   -1.3271   -1.6330   -1.4757 C   0  0  0  0  0  0  0  0  0  0  0  0
    3.5288   -2.3601    0.0797 C   0  0  0  0  0  0  0  0  0  0  0  0
    4.8710   -2.6883   -0.0320 C   0  0  0  0  0  0  0  0  0  0  0  0
    5.8629   -1.7777   -0.0954 N   0  0  0  0  0  0  0  0  0  0  0  0
    8.3716    2.1171    1.4275 H   0  0  0  0  0  0  0  0  0  0  0  0
    7.9420    2.8373   -0.1488 H   0  0  0  0  0  0  0  0  0  0  0  0
    7.1931    3.4616    1.3520 H   0  0  0  0  0  0  0  0  0  0  0  0
    5.8398    1.5501    1.5016 H   0  0  0  0  0  0  0  0  0  0  0  0
    3.9379    1.0118    0.0573 H   0  0  0  0  0  0  0  0  0  0  0  0
    1.3854   -0.8413    1.2675 H   0  0  0  0  0  0  0  0  0  0  0  0
    1.6173    0.4755    0.0709 H   0  0  0  0  0  0  0  0  0  0  0  0
   -5.1138   -0.6324   -1.1013 H   0  0  0  0  0  0  0  0  0  0  0  0
   -7.1792    0.1640   -0.5032 H   0  0  0  0  0  0  0  0  0  0  0  0
   -8.5573    1.6783    0.8474 H   0  0  0  0  0  0  0  0  0  0  0  0
   -5.0246    3.1593    2.8007 H   0  0  0  0  0  0  0  0  0  0  0  0
   -3.6393    1.6652    1.4676 H   0  0  0  0  0  0  0  0  0  0  0  0
   -4.3087   -2.2741   -2.7260 H   0  0  0  0  0  0  0  0  0  0  0  0
   -2.1736   -3.6445   -3.8000 H   0  0  0  0  0  0  0  0  0  0  0  0
    2.7813   -3.1469    0.1249 H   0  0  0  0  0  0  0  0  0  0  0  0
    5.1917   -3.7257   -0.0743 H   0  0  0  0  0  0  0  0  0  0  0  0
  1  2  1  0
  2  3  1  0
  3  4  2  0
  3  5  1  0
  5  6  2  0
  6  7  1  0
  7  8  1  0
  8  9  1  0
  9 10  1  0
 10 11  2  0
 11 12  1  0
 12 13  2  0
 13 14  1  0
 14 15  1  0
 15 16  2  0
 16 17  1  0
 17 18  2  0
 18 19  1  0
 18 20  1  0
 20 21  2  0
 13 22  1  0
 22 23  1  0
 23 24  2  0
 24 25  1  0
 25 26  1  0
  7 27  2  0
 27 28  1  0
 28 29  2  0
 29  5  1  0
 26 10  1  0
 21 15  1  0
 26 22  2  0
  1 30  1  0
  1 31  1  0
  1 32  1  0
  2 33  1  0
  6 34  1  0
  8 35  1  0
  8 36  1  0
 14 37  1  0
 16 38  1  0
 17 39  1  0
 20 40  1  0
 21 41  1  0
 23 42  1  0
 24 43  1  0
 27 44  1  0
 28 45  1  0
M  END
$$$$
