
     RDKit          3D

 58 61  0  0  0  0  0  0  0  0999 V2000
    2.5848   -1.6531   -1.4411 O   0  0  0  0  0  0  0  0  0  0  0  0
    1.7246   -1.0519   -0.8047 C   0  0  0  0  0  0  0  0  0  0  0  0
    2.0193   -0.2238    0.2470 N   0  0  0  0  0  0  0  0  0  0  0  0
    3.3985    0.0670    0.6152 C   0  0  0  0  0  0  0  0  0  0  0  0
    4.0026    1.1286   -0.3149 C   0  0  0  0  0  0  0  0  0  0  0  0
    5.4222    1.5031    0.1032 C   0  0  0  0  0  0  0  0  0  0  0  0
    5.4834    1.9426    1.5629 C   0  0  0  0  0  0  0  0  0  0  0  0
    4.8851    0.8907    2.4918 C   0  0  0  0  0  0  0  0  0  0  0  0
    3.4637    0.5196    2.0783 C   0  0  0  0  0  0  0  0  0  0  0  0
    0.3856   -1.1832   -1.0739 N   0  0  0  0  0  0  0  0  0  0  0  0
   -0.0813   -2.0817   -2.1264 C   0  0  0  0  0  0  0  0  0  0  0  0
   -1.5554   -2.3583   -1.7714 C   0  0  1  0  0  0  0  0  0  0  0  0
   -1.6055   -3.5730   -0.8394 C   0  0  0  0  0  0  0  0  0  0  0  0
   -2.9322   -3.7664   -0.1316 C   0  0  0  0  0  0  0  0  0  0  0  0
   -3.1255   -2.7289    0.9575 C   0  0  0  0  0  0  0  0  0  0  0  0
   -3.8179   -1.4857    0.4625 C   0  0  0  0  0  0  0  0  0  0  0  0
   -4.8478   -1.1176    1.0340 O   0  0  0  0  0  0  0  0  0  0  0  0
   -3.2796   -0.7919   -0.6078 N   0  0  0  0  0  0  0  0  0  0  0  0
   -4.0000    0.4197   -1.0292 C   0  0  0  0  0  0  0  0  0  0  0  0
   -3.3498    1.6893   -0.5255 C   0  0  0  0  0  0  0  0  0  0  0  0
   -3.3955    2.0185    0.8371 C   0  0  0  0  0  0  0  0  0  0  0  0
   -2.7761    3.1767    1.3083 C   0  0  0  0  0  0  0  0  0  0  0  0
   -2.1067    4.0194    0.4233 C   0  0  0  0  0  0  0  0  0  0  0  0
   -2.0586    3.7067   -0.9338 C   0  0  0  0  0  0  0  0  0  0  0  0
   -2.6780    2.5488   -1.4074 C   0  0  0  0  0  0  0  0  0  0  0  0
   -1.9533   -0.9850   -1.2018 C   0  0  1  0  0  0  0  0  0  0  0  0
   -0.7375   -0.5789   -0.3608 C   0  0  0  0  0  0  0  0  0  0  0  0
    1.3457    0.4990    0.4411 H   0  0  0  0  0  0  0  0  0  0  0  0
    3.9766   -0.8605    0.5095 H   0  0  0  0  0  0  0  0  0  0  0  0
    3.3728    2.0281   -0.3093 H   0  0  0  0  0  0  0  0  0  0  0  0
    4.0134    0.7668   -1.3498 H   0  0  0  0  0  0  0  0  0  0  0  0
    6.0849    0.6418   -0.0468 H   0  0  0  0  0  0  0  0  0  0  0  0
    5.7949    2.3086   -0.5395 H   0  0  0  0  0  0  0  0  0  0  0  0
    4.9383    2.8871    1.6825 H   0  0  0  0  0  0  0  0  0  0  0  0
    6.5240    2.1362    1.8466 H   0  0  0  0  0  0  0  0  0  0  0  0
    4.8833    1.2662    3.5212 H   0  0  0  0  0  0  0  0  0  0  0  0
    5.5146   -0.0076    2.4803 H   0  0  0  0  0  0  0  0  0  0  0  0
    3.0882   -0.2769    2.7324 H   0  0  0  0  0  0  0  0  0  0  0  0
    2.8036    1.3834    2.2327 H   0  0  0  0  0  0  0  0  0  0  0  0
    0.5369   -2.9831   -2.1889 H   0  0  0  0  0  0  0  0  0  0  0  0
   -0.0016   -1.5391   -3.0759 H   0  0  0  0  0  0  0  0  0  0  0  0
   -2.1386   -2.5863   -2.6715 H   0  0  0  0  0  0  0  0  0  0  0  0
   -0.8015   -3.5322   -0.0929 H   0  0  0  0  0  0  0  0  0  0  0  0
   -1.4002   -4.4685   -1.4408 H   0  0  0  0  0  0  0  0  0  0  0  0
   -3.7600   -3.7595   -0.8503 H   0  0  0  0  0  0  0  0  0  0  0  0
   -2.9220   -4.7593    0.3350 H   0  0  0  0  0  0  0  0  0  0  0  0
   -3.7789   -3.1652    1.7248 H   0  0  0  0  0  0  0  0  0  0  0  0
   -2.1965   -2.4623    1.4688 H   0  0  0  0  0  0  0  0  0  0  0  0
   -4.0456    0.4147   -2.1255 H   0  0  0  0  0  0  0  0  0  0  0  0
   -5.0440    0.4018   -0.6950 H   0  0  0  0  0  0  0  0  0  0  0  0
   -3.9214    1.3719    1.5383 H   0  0  0  0  0  0  0  0  0  0  0  0
   -2.8226    3.4233    2.3660 H   0  0  0  0  0  0  0  0  0  0  0  0
   -1.6293    4.9241    0.7907 H   0  0  0  0  0  0  0  0  0  0  0  0
   -1.5421    4.3681   -1.6249 H   0  0  0  0  0  0  0  0  0  0  0  0
   -2.6311    2.3225   -2.4703 H   0  0  0  0  0  0  0  0  0  0  0  0
   -1.9419   -0.3263   -2.0851 H   0  0  0  0  0  0  0  0  0  0  0  0
   -0.7566   -0.9741    0.6580 H   0  0  0  0  0  0  0  0  0  0  0  0
   -0.6124    0.5062   -0.3130 H   0  0  0  0  0  0  0  0  0  0  0  0
  1  2  2  0
  2  3  1  0
  3  4  1  0
  4  5  1  0
  5  6  1  0
  6  7  1  0
  7  8  1  0
  8  9  1  0
  2 10  1  0
 10 11  1  0
 11 12  1  0
 12 13  1  0
 13 14  1  0
 14 15  1  0
 15 16  1  0
 16 17  2  0
 16 18  1  0
 18 19  1  0
 19 20  1  0
 20 21  2  0
 21 22  1  0
 22 23  2  0
 23 24  1  0
 24 25  2  0
 18 26  1  0
 26 27  1  0
  9  4  1  0
 27 10  1  0
 26 12  1  0
 25 20  1  0
  3 28  1  0
  4 29  1  0
  5 30  1  0
  5 31  1  0
  6 32  1  0
  6 33  1  0
  7 34  1  0
  7 35  1  0
  8 36  1  0
  8 37  1  0
  9 38  1  0
  9 39  1  0
 11 40  1  0
 11 41  1  0
 12 42  1  6
 13 43  1  0
 13 44  1  0
 14 45  1  0
 14 46  1  0
 15 47  1  0
 15 48  1  0
 19 49  1  0
 19 50  1  0
 21 51  1  0
 22 52  1  0
 23 53  1  0
 24 54  1  0
 25 55  1  0
 26 56  1  6
 27 57  1  0
 27 58  1  0
M  END
$$$$
