
     RDKit          3D

 31 33  0  0  0  0  0  0  0  0999 V2000
   -0.8423   -3.4109   -0.1615 C   0  0  0  0  0  0  0  0  0  0  0  0
   -1.3099   -2.0146    0.0335 C   0  0  0  0  0  0  0  0  0  0  0  0
   -2.2372   -1.6653    0.9067 N   0  0  0  0  0  0  0  0  0  0  0  0
   -2.4087   -0.3120    0.7618 C   0  0  0  0  0  0  0  0  0  0  0  0
   -3.2738    0.5470    1.4553 C   0  0  0  0  0  0  0  0  0  0  0  0
   -3.2678    1.9102    1.1419 C   0  0  0  0  0  0  0  0  0  0  0  0
   -2.4175    2.4092    0.1557 C   0  0  0  0  0  0  0  0  0  0  0  0
   -1.5469    1.5680   -0.5468 C   0  0  0  0  0  0  0  0  0  0  0  0
   -1.5659    0.2033   -0.2200 C   0  0  0  0  0  0  0  0  0  0  0  0
   -0.8775   -0.9065   -0.6605 N   0  0  0  0  0  0  0  0  0  0  0  0
    0.4568   -0.8306   -1.6971 S   0  0  0  0  0  6  0  0  0  0  0  0
    0.9005   -2.1850   -1.9548 O   0  0  0  0  0  0  0  0  0  0  0  0
    0.0610    0.0584   -2.7731 O   0  0  0  0  0  0  0  0  0  0  0  0
    1.7170   -0.0320   -0.7338 C   0  0  0  0  0  0  0  0  0  0  0  0
    2.1000   -0.5762    0.4986 C   0  0  0  0  0  0  0  0  0  0  0  0
    3.0865    0.0630    1.2509 C   0  0  0  0  0  0  0  0  0  0  0  0
    3.6800    1.2248    0.7654 C   0  0  0  0  0  0  0  0  0  0  0  0
    4.6264    1.8331    1.4913 F   0  0  0  0  0  0  0  0  0  0  0  0
    3.3098    1.7618   -0.4639 C   0  0  0  0  0  0  0  0  0  0  0  0
    2.3242    1.1309   -1.2238 C   0  0  0  0  0  0  0  0  0  0  0  0
   -1.4203   -4.0908    0.4738 H   0  0  0  0  0  0  0  0  0  0  0  0
    0.2085   -3.5201    0.1208 H   0  0  0  0  0  0  0  0  0  0  0  0
   -0.9866   -3.7354   -1.1960 H   0  0  0  0  0  0  0  0  0  0  0  0
   -3.9330    0.1518    2.2210 H   0  0  0  0  0  0  0  0  0  0  0  0
   -3.9365    2.5848    1.6720 H   0  0  0  0  0  0  0  0  0  0  0  0
   -2.4345    3.4728   -0.0764 H   0  0  0  0  0  0  0  0  0  0  0  0
   -0.9032    1.9739   -1.3216 H   0  0  0  0  0  0  0  0  0  0  0  0
    1.6542   -1.4916    0.8795 H   0  0  0  0  0  0  0  0  0  0  0  0
    3.4015   -0.3373    2.2103 H   0  0  0  0  0  0  0  0  0  0  0  0
    3.7940    2.6657   -0.8216 H   0  0  0  0  0  0  0  0  0  0  0  0
    2.0411    1.5498   -2.1876 H   0  0  0  0  0  0  0  0  0  0  0  0
  1  2  1  0
  2  3  2  0
  3  4  1  0
  4  5  2  0
  5  6  1  0
  6  7  2  0
  7  8  1  0
  8  9  2  0
  9 10  1  0
 10 11  1  0
 11 12  2  0
 11 13  2  0
 11 14  1  0
 14 15  2  0
 15 16  1  0
 16 17  2  0
 17 18  1  0
 17 19  1  0
 19 20  2  0
 10  2  1  0
 20 14  1  0
  9  4  1  0
  1 21  1  0
  1 22  1  0
  1 23  1  0
  5 24  1  0
  6 25  1  0
  7 26  1  0
  8 27  1  0
 15 28  1  0
 16 29  1  0
 19 30  1  0
 20 31  1  0
M  END
$$$$
