
     RDKit          3D

 43 45  0  0  0  0  0  0  0  0999 V2000
   -8.0500    0.7578    0.3497 C   0  0  0  0  0  0  0  0  0  0  0  0
   -6.6254    0.3776    0.0693 C   0  0  0  0  0  0  0  0  0  0  0  0
   -6.1592   -0.9107    0.3698 C   0  0  0  0  0  0  0  0  0  0  0  0
   -4.8435   -1.2748    0.0780 C   0  0  0  0  0  0  0  0  0  0  0  0
   -3.9947   -0.3452   -0.5260 C   0  0  0  0  0  0  0  0  0  0  0  0
   -2.3134   -0.7815   -0.9003 S   0  0  0  0  0  6  0  0  0  0  0  0
   -2.0854   -2.1288   -0.4207 O   0  0  0  0  0  0  0  0  0  0  0  0
   -2.0655   -0.3998   -2.2735 O   0  0  0  0  0  0  0  0  0  0  0  0
   -1.4787    0.2707    0.1515 N   0  0  0  0  0  0  0  0  0  0  0  0
   -0.0516    0.2041    0.0607 C   0  0  0  0  0  0  0  0  0  0  0  0
    0.6796   -0.3641    1.0990 C   0  0  0  0  0  0  0  0  0  0  0  0
    2.0738   -0.4400    1.0074 C   0  0  0  0  0  0  0  0  0  0  0  0
    2.7606    0.0363   -0.1288 C   0  0  0  0  0  0  0  0  0  0  0  0
    4.1912   -0.0740   -0.1552 N   0  0  0  0  0  0  0  0  0  0  0  0
    4.8186   -0.3939    1.0170 N   0  0  0  0  0  0  0  0  0  0  0  0
    6.1370   -0.3194    0.7807 C   0  0  0  0  0  0  0  0  0  0  0  0
    7.1738   -0.5624    1.8493 C   0  0  0  0  0  0  0  0  0  0  0  0
    7.0958   -1.8133    2.3741 F   0  0  0  0  0  0  0  0  0  0  0  0
    8.4374   -0.4289    1.3608 F   0  0  0  0  0  0  0  0  0  0  0  0
    7.0693    0.3143    2.8823 F   0  0  0  0  0  0  0  0  0  0  0  0
    6.3698   -0.0154   -0.5744 C   0  0  0  0  0  0  0  0  0  0  0  0
    5.1227    0.0896   -1.1642 C   0  0  0  0  0  0  0  0  0  0  0  0
    4.8165    0.2832   -2.5878 C   0  0  0  0  0  0  0  0  0  0  0  0
    4.4199    1.5521   -2.8543 F   0  0  0  0  0  0  0  0  0  0  0  0
    3.8585   -0.5583   -3.0422 F   0  0  0  0  0  0  0  0  0  0  0  0
    5.9134    0.0608   -3.3603 F   0  0  0  0  0  0  0  0  0  0  0  0
    2.0095    0.6154   -1.1569 C   0  0  0  0  0  0  0  0  0  0  0  0
    0.6119    0.6938   -1.0616 C   0  0  0  0  0  0  0  0  0  0  0  0
   -4.4498    0.9357   -0.8514 C   0  0  0  0  0  0  0  0  0  0  0  0
   -5.7655    1.2925   -0.5545 C   0  0  0  0  0  0  0  0  0  0  0  0
   -8.6547    0.6361   -0.5547 H   0  0  0  0  0  0  0  0  0  0  0  0
   -8.4761    0.1340    1.1429 H   0  0  0  0  0  0  0  0  0  0  0  0
   -8.1125    1.7994    0.6840 H   0  0  0  0  0  0  0  0  0  0  0  0
   -6.8218   -1.6410    0.8304 H   0  0  0  0  0  0  0  0  0  0  0  0
   -4.4984   -2.2798    0.3136 H   0  0  0  0  0  0  0  0  0  0  0  0
   -1.8217    0.1267    1.1013 H   0  0  0  0  0  0  0  0  0  0  0  0
    0.1869   -0.7641    1.9823 H   0  0  0  0  0  0  0  0  0  0  0  0
    2.6110   -0.8960    1.8387 H   0  0  0  0  0  0  0  0  0  0  0  0
    7.3277    0.0744   -1.0739 H   0  0  0  0  0  0  0  0  0  0  0  0
    2.4436    1.0499   -2.0477 H   0  0  0  0  0  0  0  0  0  0  0  0
    0.0503    1.1488   -1.8760 H   0  0  0  0  0  0  0  0  0  0  0  0
   -3.7907    1.6508   -1.3391 H   0  0  0  0  0  0  0  0  0  0  0  0
   -6.1203    2.2877   -0.8168 H   0  0  0  0  0  0  0  0  0  0  0  0
  1  2  1  0
  2  3  2  0
  3  4  1  0
  4  5  2  0
  5  6  1  0
  6  7  2  0
  6  8  2  0
  6  9  1  0
  9 10  1  0
 10 11  2  0
 11 12  1  0
 12 13  2  0
 13 14  1  0
 14 15  1  0
 15 16  2  0
 16 17  1  0
 17 18  1  0
 17 19  1  0
 17 20  1  0
 16 21  1  0
 21 22  2  0
 22 23  1  0
 23 24  1  0
 23 25  1  0
 23 26  1  0
 13 27  1  0
 27 28  2  0
  5 29  1  0
 29 30  2  0
 30  2  1  0
 28 10  1  0
 22 14  1  0
  1 31  1  0
  1 32  1  0
  1 33  1  0
  3 34  1  0
  4 35  1  0
  9 36  1  0
 11 37  1  0
 12 38  1  0
 21 39  1  0
 27 40  1  0
 28 41  1  0
 29 42  1  0
 30 43  1  0
M  END
$$$$
