
     RDKit          3D

 48 51  0  0  0  0  0  0  0  0999 V2000
   -2.7718    0.6596   -2.6900 C   0  0  0  0  0  0  0  0  0  0  0  0
   -2.8456    1.3072   -1.3023 C   0  0  1  0  0  0  0  0  0  0  0  0
   -4.2736    1.7854   -0.9916 C   0  0  0  0  0  0  0  0  0  0  0  0
   -4.7370    0.7369   -0.0304 C   0  0  0  0  0  0  0  0  0  0  0  0
   -6.0315    0.5748    0.4455 C   0  0  0  0  0  0  0  0  0  0  0  0
   -6.2691   -0.4229    1.3867 C   0  0  0  0  0  0  0  0  0  0  0  0
   -5.2170   -1.2294    1.8365 C   0  0  0  0  0  0  0  0  0  0  0  0
   -3.9130   -1.0499    1.3534 C   0  0  0  0  0  0  0  0  0  0  0  0
   -3.6734   -0.0582    0.4161 C   0  0  0  0  0  0  0  0  0  0  0  0
   -2.4848    0.3377   -0.2371 N   0  0  0  0  0  0  0  0  0  0  0  0
   -1.1613   -0.0173   -0.0469 C   0  0  0  0  0  0  0  0  0  0  0  0
   -0.2732    0.4638   -0.7645 O   0  0  0  0  0  0  0  0  0  0  0  0
   -0.8046   -0.9817    1.0576 C   0  0  0  0  0  0  0  0  0  0  0  0
    0.6681   -1.2203    1.3434 C   0  0  0  0  0  0  0  0  0  0  0  0
    0.9443   -2.0667    2.2888 N   0  0  0  0  0  0  0  0  0  0  0  0
    2.2659   -2.3162    2.5794 C   0  0  0  0  0  0  0  0  0  0  0  0
    2.6217   -3.0711    3.4794 O   0  0  0  0  0  0  0  0  0  0  0  0
    3.3128   -1.6497    1.7624 C   0  0  0  0  0  0  0  0  0  0  0  0
    2.9762   -0.7769    0.7962 C   0  0  0  0  0  0  0  0  0  0  0  0
    3.9174   -0.1149    0.0052 N   0  0  0  0  0  0  0  0  0  0  0  0
    3.5892    1.0914   -0.7897 C   0  0  0  0  0  0  0  0  0  0  0  0
    4.8209    1.9974   -0.9397 C   0  0  0  0  0  0  0  0  0  0  0  0
    5.9256    1.3667   -1.6014 O   0  0  0  0  0  0  0  0  0  0  0  0
    5.9565   -0.0543   -1.4126 C   0  0  0  0  0  0  0  0  0  0  0  0
    5.3408   -0.5150   -0.0820 C   0  0  0  0  0  0  0  0  0  0  0  0
    1.6327   -0.5665    0.6294 N   0  0  0  0  0  0  0  0  0  0  0  0
   -1.7572    0.3172   -2.9173 H   0  0  0  0  0  0  0  0  0  0  0  0
   -3.4333   -0.2110   -2.7620 H   0  0  0  0  0  0  0  0  0  0  0  0
   -3.0638    1.3756   -3.4655 H   0  0  0  0  0  0  0  0  0  0  0  0
   -2.1470    2.1528   -1.2742 H   0  0  0  0  0  0  0  0  0  0  0  0
   -4.9095    1.8505   -1.8798 H   0  0  0  0  0  0  0  0  0  0  0  0
   -4.2526    2.7572   -0.4851 H   0  0  0  0  0  0  0  0  0  0  0  0
   -6.8402    1.2120    0.1007 H   0  0  0  0  0  0  0  0  0  0  0  0
   -7.2725   -0.5748    1.7777 H   0  0  0  0  0  0  0  0  0  0  0  0
   -5.4148   -2.0082    2.5706 H   0  0  0  0  0  0  0  0  0  0  0  0
   -3.1509   -1.7178    1.7292 H   0  0  0  0  0  0  0  0  0  0  0  0
   -1.2280   -1.9594    0.8021 H   0  0  0  0  0  0  0  0  0  0  0  0
   -1.2368   -0.6150    1.9952 H   0  0  0  0  0  0  0  0  0  0  0  0
    4.3291   -1.9032    2.0229 H   0  0  0  0  0  0  0  0  0  0  0  0
    3.2321    0.7727   -1.7761 H   0  0  0  0  0  0  0  0  0  0  0  0
    2.7965    1.6716   -0.3037 H   0  0  0  0  0  0  0  0  0  0  0  0
    4.5624    2.8930   -1.5136 H   0  0  0  0  0  0  0  0  0  0  0  0
    5.1702    2.3298    0.0452 H   0  0  0  0  0  0  0  0  0  0  0  0
    5.4277   -0.5134   -2.2564 H   0  0  0  0  0  0  0  0  0  0  0  0
    7.0029   -0.3700   -1.4726 H   0  0  0  0  0  0  0  0  0  0  0  0
    5.8828   -0.0654    0.7582 H   0  0  0  0  0  0  0  0  0  0  0  0
    5.4399   -1.6045   -0.0197 H   0  0  0  0  0  0  0  0  0  0  0  0
    1.3467    0.0001   -0.1677 H   0  0  0  0  0  0  0  0  0  0  0  0
  1  2  1  0
  2  3  1  0
  3  4  1  0
  4  5  2  0
  5  6  1  0
  6  7  2  0
  7  8  1  0
  8  9  2  0
  9 10  1  0
 10 11  1  0
 11 12  2  0
 11 13  1  0
 13 14  1  0
 14 15  2  0
 15 16  1  0
 16 17  2  0
 16 18  1  0
 18 19  2  0
 19 20  1  0
 20 21  1  0
 21 22  1  0
 22 23  1  0
 23 24  1  0
 24 25  1  0
 19 26  1  0
 10  2  1  0
 26 14  1  0
  9  4  1  0
 25 20  1  0
  1 27  1  0
  1 28  1  0
  1 29  1  0
  2 30  1  6
  3 31  1  0
  3 32  1  0
  5 33  1  0
  6 34  1  0
  7 35  1  0
  8 36  1  0
 13 37  1  0
 13 38  1  0
 18 39  1  0
 21 40  1  0
 21 41  1  0
 22 42  1  0
 22 43  1  0
 24 44  1  0
 24 45  1  0
 25 46  1  0
 25 47  1  0
 26 48  1  0
M  END
$$$$
