
     RDKit          3D

 44 45  0  0  0  0  0  0  0  0999 V2000
   -4.8602   -1.6319   -1.6609 C   0  0  0  0  0  0  0  0  0  0  0  0
   -4.5313   -1.0053   -0.4206 O   0  0  0  0  0  0  0  0  0  0  0  0
   -3.3037   -0.4346   -0.4015 C   0  0  0  0  0  0  0  0  0  0  0  0
   -2.4717   -0.4514   -1.2953 O   0  0  0  0  0  0  0  0  0  0  0  0
   -3.1065    0.2408    0.9011 C   0  0  0  0  0  0  0  0  0  0  0  0
   -3.3912   -0.4721    2.0768 C   0  0  0  0  0  0  0  0  0  0  0  0
   -3.1646    0.1102    3.3256 C   0  0  0  0  0  0  0  0  0  0  0  0
   -2.6497    1.4030    3.4110 C   0  0  0  0  0  0  0  0  0  0  0  0
   -2.3664    2.1218    2.2492 C   0  0  0  0  0  0  0  0  0  0  0  0
   -2.5905    1.5395    0.9945 C   0  0  0  0  0  0  0  0  0  0  0  0
   -2.3111    2.5098   -0.4626 S   0  0  0  0  0  6  0  0  0  0  0  0
   -1.9060    3.8425   -0.0711 O   0  0  0  0  0  0  0  0  0  0  0  0
   -3.4727    2.3305   -1.3101 O   0  0  0  0  0  0  0  0  0  0  0  0
   -1.0347    1.7516   -1.2116 N   0  0  0  0  0  0  0  0  0  0  0  0
    0.2004    1.4993   -0.5973 C   0  0  0  0  0  0  0  0  0  0  0  0
    0.4156    1.9527    0.5172 O   0  0  0  0  0  0  0  0  0  0  0  0
    1.0765    0.7109   -1.3290 N   0  0  0  0  0  0  0  0  0  0  0  0
    0.9149    0.4588   -2.7566 C   0  0  0  0  0  0  0  0  0  0  0  0
    2.1989    0.0969   -0.7091 C   0  0  0  0  0  0  0  0  0  0  0  0
    2.3812    0.2168    0.6017 N   0  0  0  0  0  0  0  0  0  0  0  0
    3.4452   -0.3901    1.1229 C   0  0  0  0  0  0  0  0  0  0  0  0
    3.6635   -0.2475    2.5963 C   0  0  0  0  0  0  0  0  0  0  0  0
    4.3098   -1.1199    0.4279 N   0  0  0  0  0  0  0  0  0  0  0  0
    4.0351   -1.1972   -0.8687 C   0  0  0  0  0  0  0  0  0  0  0  0
    4.8532   -1.9313   -1.7013 O   0  0  0  0  0  0  0  0  0  0  0  0
    5.9622   -2.5138   -1.0294 C   0  0  0  0  0  0  0  0  0  0  0  0
    3.0075   -0.6241   -1.4831 N   0  0  0  0  0  0  0  0  0  0  0  0
   -4.8349   -0.9037   -2.4778 H   0  0  0  0  0  0  0  0  0  0  0  0
   -5.8761   -2.0286   -1.5817 H   0  0  0  0  0  0  0  0  0  0  0  0
   -4.1770   -2.4631   -1.8612 H   0  0  0  0  0  0  0  0  0  0  0  0
   -3.7823   -1.4864    2.0268 H   0  0  0  0  0  0  0  0  0  0  0  0
   -3.3845   -0.4468    4.2338 H   0  0  0  0  0  0  0  0  0  0  0  0
   -2.4683    1.8548    4.3841 H   0  0  0  0  0  0  0  0  0  0  0  0
   -1.9650    3.1310    2.3296 H   0  0  0  0  0  0  0  0  0  0  0  0
   -1.3827    1.0603   -1.8756 H   0  0  0  0  0  0  0  0  0  0  0  0
    0.2208    1.1664   -3.2178 H   0  0  0  0  0  0  0  0  0  0  0  0
    0.5316   -0.5568   -2.8964 H   0  0  0  0  0  0  0  0  0  0  0  0
    1.8690    0.5782   -3.2810 H   0  0  0  0  0  0  0  0  0  0  0  0
    2.8430   -0.7239    3.1412 H   0  0  0  0  0  0  0  0  0  0  0  0
    3.7023    0.8115    2.8685 H   0  0  0  0  0  0  0  0  0  0  0  0
    4.6031   -0.7175    2.9023 H   0  0  0  0  0  0  0  0  0  0  0  0
    6.6102   -1.7471   -0.5906 H   0  0  0  0  0  0  0  0  0  0  0  0
    5.6345   -3.2335   -0.2712 H   0  0  0  0  0  0  0  0  0  0  0  0
    6.5522   -3.0607   -1.7715 H   0  0  0  0  0  0  0  0  0  0  0  0
  1  2  1  0
  2  3  1  0
  3  4  2  0
  3  5  1  0
  5  6  2  0
  6  7  1  0
  7  8  2  0
  8  9  1  0
  9 10  2  0
 10 11  1  0
 11 12  2  0
 11 13  2  0
 11 14  1  0
 14 15  1  0
 15 16  2  0
 15 17  1  0
 17 18  1  0
 17 19  1  0
 19 20  2  0
 20 21  1  0
 21 22  1  0
 21 23  2  0
 23 24  1  0
 24 25  1  0
 25 26  1  0
 24 27  2  0
 10  5  1  0
 27 19  1  0
  1 28  1  0
  1 29  1  0
  1 30  1  0
  6 31  1  0
  7 32  1  0
  8 33  1  0
  9 34  1  0
 14 35  1  0
 18 36  1  0
 18 37  1  0
 18 38  1  0
 22 39  1  0
 22 40  1  0
 22 41  1  0
 26 42  1  0
 26 43  1  0
 26 44  1  0
M  END
$$$$
