
     RDKit          3D

 53 53  0  0  0  0  0  0  0  0999 V2000
    0.3636    4.3762   -1.2984 C   0  0  0  0  0  0  0  0  0  0  0  0
    0.6748    2.9769   -0.8044 C   0  0  0  0  0  0  0  0  0  0  0  0
   -0.1867    2.6942    0.3065 O   0  0  0  0  0  0  0  0  0  0  0  0
    0.0223    1.3509    0.8133 C   0  0  2  0  0  0  0  0  0  0  0  0
   -0.8153    0.3368    0.0162 C   0  0  0  0  0  0  0  0  0  0  0  0
   -2.2119    0.5017    0.3048 O   0  0  0  0  0  0  0  0  0  0  0  0
   -3.0687   -0.3442   -0.3442 C   0  0  0  0  0  0  0  0  0  0  0  0
   -2.7128   -1.3065   -1.2895 C   0  0  0  0  0  0  0  0  0  0  0  0
   -3.6947   -2.1069   -1.8844 C   0  0  0  0  0  0  0  0  0  0  0  0
   -5.0468   -1.9533   -1.5468 C   0  0  0  0  0  0  0  0  0  0  0  0
   -6.1100   -2.8138   -2.1771 C   0  0  0  0  0  0  0  0  0  0  0  0
   -6.6500   -3.7038   -1.2964 F   0  0  0  0  0  0  0  0  0  0  0  0
   -7.1606   -2.0877   -2.6567 F   0  0  0  0  0  0  0  0  0  0  0  0
   -5.6669   -3.5577   -3.2298 F   0  0  0  0  0  0  0  0  0  0  0  0
   -5.3962   -0.9874   -0.5920 C   0  0  0  0  0  0  0  0  0  0  0  0
   -4.4130   -0.1902   -0.0006 C   0  0  0  0  0  0  0  0  0  0  0  0
   -0.3077    1.4001    2.3213 C   0  0  0  0  0  0  0  0  0  0  0  0
   -0.1001   -0.1366    3.3254 S   0  0  0  0  0  0  0  0  0  0  0  0
    1.4573   -0.7113    2.6740 C   0  0  0  0  0  0  0  0  0  0  0  0
    1.4744   -1.9082    1.9556 C   0  0  0  0  0  0  0  0  0  0  0  0
    2.5645   -2.2118    1.1462 C   0  0  0  0  0  0  0  0  0  0  0  0
    3.6265   -1.3119    1.0562 C   0  0  0  0  0  0  0  0  0  0  0  0
    4.5886   -1.4470    0.0891 O   0  0  0  0  0  0  0  0  0  0  0  0
    4.0280   -1.4730   -1.2566 C   0  0  0  0  0  0  0  0  0  0  0  0
    2.9778   -0.3644   -1.5296 C   0  0  0  0  0  0  0  0  0  0  0  0
    1.7915   -0.7773   -1.7149 O   0  0  0  0  0  0  0  0  0  0  0  0
    3.4102    0.8244   -1.5698 O   0  0  0  0  0  1  0  0  0  0  0  0
    3.7020   -0.1991    1.9036 C   0  0  0  0  0  0  0  0  0  0  0  0
    4.8509    0.7632    1.8202 C   0  0  0  0  0  0  0  0  0  0  0  0
    2.5976    0.0984    2.7116 C   0  0  0  0  0  0  0  0  0  0  0  0
    0.0000    0.0000    0.0000 Na  0  0  0  0  0 15  0  0  0  0  0  0
   -0.6885    4.4581   -1.5914 H   0  0  0  0  0  0  0  0  0  0  0  0
    0.9903    4.6329   -2.1578 H   0  0  0  0  0  0  0  0  0  0  0  0
    0.5353    5.1139   -0.5057 H   0  0  0  0  0  0  0  0  0  0  0  0
    1.7194    2.9268   -0.4788 H   0  0  0  0  0  0  0  0  0  0  0  0
    0.5115    2.2577   -1.6132 H   0  0  0  0  0  0  0  0  0  0  0  0
    1.0812    1.1132    0.6810 H   0  0  0  0  0  0  0  0  0  0  0  0
   -0.5124   -0.6806    0.2826 H   0  0  0  0  0  0  0  0  0  0  0  0
   -0.6567    0.4960   -1.0548 H   0  0  0  0  0  0  0  0  0  0  0  0
   -1.6785   -1.4558   -1.5921 H   0  0  0  0  0  0  0  0  0  0  0  0
   -3.3885   -2.8487   -2.6211 H   0  0  0  0  0  0  0  0  0  0  0  0
   -6.4371   -0.8475   -0.3058 H   0  0  0  0  0  0  0  0  0  0  0  0
   -4.6922    0.5607    0.7346 H   0  0  0  0  0  0  0  0  0  0  0  0
   -1.3400    1.7411    2.4644 H   0  0  0  0  0  0  0  0  0  0  0  0
    0.3101    2.1763    2.7890 H   0  0  0  0  0  0  0  0  0  0  0  0
    0.5991   -2.5515    1.9245 H   0  0  0  0  0  0  0  0  0  0  0  0
    2.5295   -3.0874    0.5054 H   0  0  0  0  0  0  0  0  0  0  0  0
    3.6275   -2.4720   -1.4640 H   0  0  0  0  0  0  0  0  0  0  0  0
    4.8684   -1.3221   -1.9438 H   0  0  0  0  0  0  0  0  0  0  0  0
    5.8016    0.2307    1.7041 H   0  0  0  0  0  0  0  0  0  0  0  0
    4.9281    1.3601    2.7368 H   0  0  0  0  0  0  0  0  0  0  0  0
    4.7134    1.4436    0.9728 H   0  0  0  0  0  0  0  0  0  0  0  0
    2.5898    1.0238    3.2806 H   0  0  0  0  0  0  0  0  0  0  0  0
  1  2  1  0
  2  3  1  0
  3  4  1  0
  4  5  1  0
  5  6  1  0
  6  7  1  0
  7  8  2  0
  8  9  1  0
  9 10  2  0
 10 11  1  0
 11 12  1  0
 11 13  1  0
 11 14  1  0
 10 15  1  0
 15 16  2  0
  4 17  1  0
 17 18  1  0
 18 19  1  0
 19 20  2  0
 20 21  1  0
 21 22  2  0
 22 23  1  0
 23 24  1  0
 24 25  1  0
 25 26  2  0
 25 27  1  0
 22 28  1  0
 28 29  1  0
 28 30  2  0
 16  7  1  0
 30 19  1  0
  1 32  1  0
  1 33  1  0
  1 34  1  0
  2 35  1  0
  2 36  1  0
  4 37  1  1
  5 38  1  0
  5 39  1  0
  8 40  1  0
  9 41  1  0
 15 42  1  0
 16 43  1  0
 17 44  1  0
 17 45  1  0
 20 46  1  0
 21 47  1  0
 24 48  1  0
 24 49  1  0
 29 50  1  0
 29 51  1  0
 29 52  1  0
 30 53  1  0
M  CHG  2  27  -1  31   1
M  END
$$$$
