
     RDKit          3D

 80 83  0  0  0  0  0  0  0  0999 V2000
    0.4454   -0.3185   -1.2468 C   0  0  0  0  0  0  0  0  0  0  0  0
   -0.3646    0.4152   -0.1668 C   0  0  0  0  0  0  0  0  0  0  0  0
   -0.6381    1.8531   -0.6288 C   0  0  0  0  0  0  0  0  0  0  0  0
   -1.5903   -0.2820    0.3006 N   0  0  0  0  0  0  0  0  0  0  0  0
   -1.3245   -1.6070    0.9048 C   0  0  0  0  0  0  0  0  0  0  0  0
   -0.4978   -1.6102    2.2060 C   0  0  0  0  0  0  0  0  0  0  0  0
    0.9388   -2.1145    2.0527 C   0  0  0  0  0  0  0  0  0  0  0  0
    1.8835   -1.0455    1.7900 N   0  0  0  0  0  0  0  0  0  0  0  0
    3.1546   -1.3545    1.3291 C   0  0  0  0  0  0  0  0  0  0  0  0
    3.5071   -2.4971    1.0758 O   0  0  0  0  0  0  0  0  0  0  0  0
    3.9025   -0.2039    1.2010 N   0  0  0  0  0  0  0  0  0  0  0  0
    5.2667   -0.0894    0.8666 C   0  0  0  0  0  0  0  0  0  0  0  0
    5.7696    1.1958    0.6618 C   0  0  0  0  0  0  0  0  0  0  0  0
    7.1199    1.3947    0.3527 C   0  0  0  0  0  0  0  0  0  0  0  0
    8.0123    0.3151    0.2202 C   0  0  0  0  0  0  0  0  0  0  0  0
    9.4978    0.5630   -0.1005 C   0  0  0  0  0  0  0  0  0  0  0  0
    9.6572    1.6059   -1.2295 C   0  0  0  0  0  0  0  0  0  0  0  0
   10.2524   -0.7063   -0.5589 C   0  0  0  0  0  0  0  0  0  0  0  0
   10.1927    1.0845    1.1744 C   0  0  0  0  0  0  0  0  0  0  0  0
    7.4908   -0.9711    0.4317 C   0  0  0  0  0  0  0  0  0  0  0  0
    6.1386   -1.1705    0.7506 C   0  0  0  0  0  0  0  0  0  0  0  0
   -2.6496   -0.3953   -0.7366 C   0  0  0  0  0  0  0  0  0  0  0  0
   -3.7379    0.6851   -0.6005 C   0  0  1  0  0  0  0  0  0  0  0  0
   -4.8222    0.4359   -1.5160 O   0  0  0  0  0  0  0  0  0  0  0  0
   -6.0157    1.0350   -0.9324 C   0  0  1  0  0  0  0  0  0  0  0  0
   -7.0814    0.0381   -0.9286 N   0  0  0  0  0  0  0  0  0  0  0  0
   -6.9503   -1.3008   -0.6270 C   0  0  0  0  0  0  0  0  0  0  0  0
   -8.1968   -1.8848   -0.7287 C   0  0  0  0  0  0  0  0  0  0  0  0
   -9.1161   -0.8721   -1.1234 C   0  0  0  0  0  0  0  0  0  0  0  0
  -10.4824   -0.8100   -1.4303 C   0  0  0  0  0  0  0  0  0  0  0  0
  -11.3312   -1.9047   -1.3660 N   0  0  0  0  0  0  0  0  0  0  0  0
  -11.0136    0.3674   -1.8170 N   0  0  0  0  0  0  0  0  0  0  0  0
  -10.2028    1.4423   -1.8689 C   0  0  0  0  0  0  0  0  0  0  0  0
   -8.8883    1.5098   -1.5861 N   0  0  0  0  0  0  0  0  0  0  0  0
   -8.3953    0.3106   -1.2329 C   0  0  0  0  0  0  0  0  0  0  0  0
   -5.6509    1.5211    0.4795 C   0  0  2  0  0  0  0  0  0  0  0  0
   -5.3231    2.9229    0.4759 O   0  0  0  0  0  0  0  0  0  0  0  0
   -4.3883    0.7288    0.7777 C   0  0  2  0  0  0  0  0  0  0  0  0
   -3.5854    1.3756    1.7611 O   0  0  0  0  0  0  0  0  0  0  0  0
    0.7349   -1.3260   -0.9407 H   0  0  0  0  0  0  0  0  0  0  0  0
   -0.1034   -0.3982   -2.1908 H   0  0  0  0  0  0  0  0  0  0  0  0
    1.3749    0.2249   -1.4495 H   0  0  0  0  0  0  0  0  0  0  0  0
    0.2800    0.5407    0.7080 H   0  0  0  0  0  0  0  0  0  0  0  0
   -1.1789    1.8830   -1.5796 H   0  0  0  0  0  0  0  0  0  0  0  0
    0.3065    2.3941   -0.7709 H   0  0  0  0  0  0  0  0  0  0  0  0
   -1.2158    2.4058    0.1217 H   0  0  0  0  0  0  0  0  0  0  0  0
   -2.3028   -2.0114    1.1999 H   0  0  0  0  0  0  0  0  0  0  0  0
   -0.9213   -2.3129    0.1693 H   0  0  0  0  0  0  0  0  0  0  0  0
   -0.5337   -0.6316    2.7029 H   0  0  0  0  0  0  0  0  0  0  0  0
   -1.0013   -2.3092    2.8892 H   0  0  0  0  0  0  0  0  0  0  0  0
    1.2644   -2.5761    2.9938 H   0  0  0  0  0  0  0  0  0  0  0  0
    1.0149   -2.8837    1.2761 H   0  0  0  0  0  0  0  0  0  0  0  0
    1.8869   -0.3020    2.4757 H   0  0  0  0  0  0  0  0  0  0  0  0
    3.3712    0.6532    1.2232 H   0  0  0  0  0  0  0  0  0  0  0  0
    5.1237    2.0646    0.7487 H   0  0  0  0  0  0  0  0  0  0  0  0
    7.4597    2.4198    0.2275 H   0  0  0  0  0  0  0  0  0  0  0  0
   10.7078    1.7100   -1.5294 H   0  0  0  0  0  0  0  0  0  0  0  0
    9.3191    2.6030   -0.9240 H   0  0  0  0  0  0  0  0  0  0  0  0
    9.0884    1.3141   -2.1214 H   0  0  0  0  0  0  0  0  0  0  0  0
   10.2934   -1.4631    0.2338 H   0  0  0  0  0  0  0  0  0  0  0  0
   11.2891   -0.4765   -0.8348 H   0  0  0  0  0  0  0  0  0  0  0  0
    9.7723   -1.1647   -1.4314 H   0  0  0  0  0  0  0  0  0  0  0  0
   10.1772    0.3313    1.9677 H   0  0  0  0  0  0  0  0  0  0  0  0
   11.2400    1.3350    0.9767 H   0  0  0  0  0  0  0  0  0  0  0  0
    9.7105    1.9824    1.5687 H   0  0  0  0  0  0  0  0  0  0  0  0
    8.1159   -1.8585    0.3674 H   0  0  0  0  0  0  0  0  0  0  0  0
    5.8015   -2.1891    0.9137 H   0  0  0  0  0  0  0  0  0  0  0  0
   -3.1608   -1.3657   -0.6735 H   0  0  0  0  0  0  0  0  0  0  0  0
   -2.2494   -0.3853   -1.7565 H   0  0  0  0  0  0  0  0  0  0  0  0
   -3.3193    1.6635   -0.8544 H   0  0  0  0  0  0  0  0  0  0  0  0
   -6.3153    1.8621   -1.5858 H   0  0  0  0  0  0  0  0  0  0  0  0
   -5.9861   -1.7353   -0.4027 H   0  0  0  0  0  0  0  0  0  0  0  0
   -8.4118   -2.9346   -0.5836 H   0  0  0  0  0  0  0  0  0  0  0  0
  -11.1101   -2.5702   -0.6380 H   0  0  0  0  0  0  0  0  0  0  0  0
  -12.3021   -1.6148   -1.4372 H   0  0  0  0  0  0  0  0  0  0  0  0
  -10.6718    2.3717   -2.1841 H   0  0  0  0  0  0  0  0  0  0  0  0
   -6.4375    1.3790    1.2255 H   0  0  0  0  0  0  0  0  0  0  0  0
   -4.7417    3.0462    1.2548 H   0  0  0  0  0  0  0  0  0  0  0  0
   -4.6441   -0.2769    1.1281 H   0  0  0  0  0  0  0  0  0  0  0  0
   -2.7087    0.9397    1.7003 H   0  0  0  0  0  0  0  0  0  0  0  0
  1  2  1  0
  2  3  1  0
  2  4  1  0
  4  5  1  0
  5  6  1  0
  6  7  1  0
  7  8  1  0
  8  9  1  0
  9 10  2  0
  9 11  1  0
 11 12  1  0
 12 13  2  0
 13 14  1  0
 14 15  2  0
 15 16  1  0
 16 17  1  0
 16 18  1  0
 16 19  1  0
 15 20  1  0
 20 21  2  0
  4 22  1  0
 22 23  1  0
 23 24  1  0
 24 25  1  0
 25 26  1  0
 26 27  1  0
 27 28  2  0
 28 29  1  0
 29 30  2  0
 30 31  1  0
 30 32  1  0
 32 33  2  0
 33 34  1  0
 34 35  2  0
 25 36  1  0
 36 37  1  0
 36 38  1  0
 38 39  1  0
 21 12  1  0
 38 23  1  0
 35 26  1  0
 35 29  1  0
  1 40  1  0
  1 41  1  0
  1 42  1  0
  2 43  1  0
  3 44  1  0
  3 45  1  0
  3 46  1  0
  5 47  1  0
  5 48  1  0
  6 49  1  0
  6 50  1  0
  7 51  1  0
  7 52  1  0
  8 53  1  0
 11 54  1  0
 13 55  1  0
 14 56  1  0
 17 57  1  0
 17 58  1  0
 17 59  1  0
 18 60  1  0
 18 61  1  0
 18 62  1  0
 19 63  1  0
 19 64  1  0
 19 65  1  0
 20 66  1  0
 21 67  1  0
 22 68  1  0
 22 69  1  0
 23 70  1  6
 25 71  1  6
 27 72  1  0
 28 73  1  0
 31 74  1  0
 31 75  1  0
 33 76  1  0
 36 77  1  1
 37 78  1  0
 38 79  1  1
 39 80  1  0
M  END
$$$$
