
     RDKit          3D

 52 55  0  0  0  0  0  0  0  0999 V2000
    3.3180   -2.4713   -0.6036 C   0  0  0  0  0  0  0  0  0  0  0  0
    2.8609   -1.2887    0.0427 O   0  0  0  0  0  0  0  0  0  0  0  0
    3.7952   -0.4844    0.6431 C   0  0  0  0  0  0  0  0  0  0  0  0
    5.1130   -0.9039    0.8894 C   0  0  0  0  0  0  0  0  0  0  0  0
    6.0341   -0.0561    1.5090 C   0  0  0  0  0  0  0  0  0  0  0  0
    5.6518    1.2210    1.8957 C   0  0  0  0  0  0  0  0  0  0  0  0
    4.3447    1.6483    1.6659 C   0  0  0  0  0  0  0  0  0  0  0  0
    3.3976    0.8091    1.0440 C   0  0  0  0  0  0  0  0  0  0  0  0
    2.0200    1.3938    0.8576 C   0  0  0  0  0  0  0  0  0  0  0  0
    1.8355    2.5634    1.1880 O   0  0  0  0  0  0  0  0  0  0  0  0
    1.0523    0.5637    0.3394 N   0  0  0  0  0  0  0  0  0  0  0  0
   -0.3059    0.8423    0.0655 C   0  0  0  0  0  0  0  0  0  0  0  0
   -0.8811    2.1049    0.2485 C   0  0  0  0  0  0  0  0  0  0  0  0
   -2.2142    2.2459   -0.0723 C   0  0  0  0  0  0  0  0  0  0  0  0
   -2.9759    1.1840   -0.5578 C   0  0  0  0  0  0  0  0  0  0  0  0
   -2.4404   -0.0724   -0.7459 C   0  0  0  0  0  0  0  0  0  0  0  0
   -1.0804   -0.2597   -0.4381 C   0  0  0  0  0  0  0  0  0  0  0  0
   -0.4503   -1.5239   -0.5560 N   0  0  0  0  0  0  0  0  0  0  0  0
   -0.7755   -2.3376   -1.7419 C   0  0  0  0  0  0  0  0  0  0  0  0
   -1.3705   -3.6284   -1.1890 C   0  0  0  0  0  0  0  0  0  0  0  0
   -0.6654   -3.7756    0.1470 C   0  0  0  0  0  0  0  0  0  0  0  0
   -0.6444   -2.3409    0.6619 C   0  0  0  0  0  0  0  0  0  0  0  0
   -4.2786    1.6520   -0.7755 N   0  0  0  0  0  0  0  0  0  0  0  0
   -5.3708    0.8688   -1.2732 C   0  0  0  0  0  0  0  0  0  0  0  0
   -4.3410    3.0201   -0.4291 C   0  0  0  0  0  0  0  0  0  0  0  0
   -5.3194    3.7475   -0.4936 O   0  0  0  0  0  0  0  0  0  0  0  0
   -3.0459    3.3712    0.0061 N   0  0  0  0  0  0  0  0  0  0  0  0
   -2.6370    4.6684    0.4615 C   0  0  0  0  0  0  0  0  0  0  0  0
    3.6533   -3.2110    0.1302 H   0  0  0  0  0  0  0  0  0  0  0  0
    4.1027   -2.2503   -1.3348 H   0  0  0  0  0  0  0  0  0  0  0  0
    2.4724   -2.9036   -1.1462 H   0  0  0  0  0  0  0  0  0  0  0  0
    5.4576   -1.8963    0.6162 H   0  0  0  0  0  0  0  0  0  0  0  0
    7.0506   -0.3970    1.6907 H   0  0  0  0  0  0  0  0  0  0  0  0
    6.3640    1.8859    2.3779 H   0  0  0  0  0  0  0  0  0  0  0  0
    4.0629    2.6528    1.9797 H   0  0  0  0  0  0  0  0  0  0  0  0
    1.3171   -0.3914    0.0983 H   0  0  0  0  0  0  0  0  0  0  0  0
   -0.3186    2.9499    0.6196 H   0  0  0  0  0  0  0  0  0  0  0  0
   -3.0585   -0.8871   -1.0978 H   0  0  0  0  0  0  0  0  0  0  0  0
    0.1631   -2.5579   -2.2639 H   0  0  0  0  0  0  0  0  0  0  0  0
   -1.4404   -1.8571   -2.4671 H   0  0  0  0  0  0  0  0  0  0  0  0
   -1.2066   -4.4821   -1.8523 H   0  0  0  0  0  0  0  0  0  0  0  0
   -2.4499   -3.5129   -1.0352 H   0  0  0  0  0  0  0  0  0  0  0  0
    0.3571   -4.1422   -0.0022 H   0  0  0  0  0  0  0  0  0  0  0  0
   -1.1815   -4.4578    0.8280 H   0  0  0  0  0  0  0  0  0  0  0  0
   -1.5967   -2.1189    1.1613 H   0  0  0  0  0  0  0  0  0  0  0  0
    0.1703   -2.1860    1.3765 H   0  0  0  0  0  0  0  0  0  0  0  0
   -6.2747    1.4793   -1.3494 H   0  0  0  0  0  0  0  0  0  0  0  0
   -5.5600    0.0362   -0.5894 H   0  0  0  0  0  0  0  0  0  0  0  0
   -5.1170    0.4830   -2.2647 H   0  0  0  0  0  0  0  0  0  0  0  0
   -2.2828    4.5948    1.4937 H   0  0  0  0  0  0  0  0  0  0  0  0
   -3.4773    5.3671    0.4225 H   0  0  0  0  0  0  0  0  0  0  0  0
   -1.8337    5.0412   -0.1806 H   0  0  0  0  0  0  0  0  0  0  0  0
  1  2  1  0
  2  3  1  0
  3  4  2  0
  4  5  1  0
  5  6  2  0
  6  7  1  0
  7  8  2  0
  8  9  1  0
  9 10  2  0
  9 11  1  0
 11 12  1  0
 12 13  2  0
 13 14  1  0
 14 15  2  0
 15 16  1  0
 16 17  2  0
 17 18  1  0
 18 19  1  0
 19 20  1  0
 20 21  1  0
 21 22  1  0
 15 23  1  0
 23 24  1  0
 23 25  1  0
 25 26  2  0
 25 27  1  0
 27 28  1  0
  8  3  1  0
 17 12  1  0
 22 18  1  0
 27 14  1  0
  1 29  1  0
  1 30  1  0
  1 31  1  0
  4 32  1  0
  5 33  1  0
  6 34  1  0
  7 35  1  0
 11 36  1  0
 13 37  1  0
 16 38  1  0
 19 39  1  0
 19 40  1  0
 20 41  1  0
 20 42  1  0
 21 43  1  0
 21 44  1  0
 22 45  1  0
 22 46  1  0
 24 47  1  0
 24 48  1  0
 24 49  1  0
 28 50  1  0
 28 51  1  0
 28 52  1  0
M  END
$$$$
