
     RDKit          3D

 53 53  0  0  0  0  0  0  0  0999 V2000
   -4.8798   -0.0761    1.5275 C   0  0  0  0  0  0  0  0  0  0  0  0
   -4.7275    1.0839    0.5657 C   0  0  0  0  0  0  0  0  0  0  0  0
   -4.0023    0.7215   -0.5717 N   0  0  0  0  0  0  0  0  0  0  0  0
   -4.5144   -0.1739   -1.5110 C   0  0  0  0  0  0  0  0  0  0  0  0
   -5.6840    0.3088   -2.3273 C   0  0  0  0  0  0  0  0  0  0  0  0
   -2.6124    0.9473   -0.6280 C   0  0  0  0  0  0  0  0  0  0  0  0
   -1.7686    0.1032    0.3014 C   0  0  0  0  0  0  0  0  0  0  0  0
   -0.4067    0.4460    0.1317 O   0  0  0  0  0  0  0  0  0  0  0  0
    0.6473   -0.1312    0.7992 C   0  0  0  0  0  0  0  0  0  0  0  0
    0.4211   -1.0375    1.6250 O   0  0  0  0  0  0  0  0  0  0  0  0
    2.0525    0.2817    0.5786 C   0  0  0  0  0  0  0  0  0  0  0  0
    2.1161    1.7526    0.9233 C   0  0  0  0  0  0  0  0  0  0  0  0
    2.4518    0.1244   -0.8471 C   0  0  0  0  0  0  0  0  0  0  0  0
    3.6782    0.6199   -1.2296 C   0  0  0  0  0  0  0  0  0  0  0  0
    4.1381    0.5216   -2.5387 C   0  0  0  0  0  0  0  0  0  0  0  0
    3.3632   -0.0811   -3.4796 C   0  0  0  0  0  0  0  0  0  0  0  0
    2.1165   -0.5911   -3.1201 C   0  0  0  0  0  0  0  0  0  0  0  0
    1.6790   -0.4817   -1.8102 C   0  0  0  0  0  0  0  0  0  0  0  0
    2.9784   -0.4472    1.4645 C   0  0  0  0  0  0  0  0  0  0  0  0
    3.0152   -1.8253    1.4437 C   0  0  0  0  0  0  0  0  0  0  0  0
    3.8681   -2.5465    2.2423 C   0  0  0  0  0  0  0  0  0  0  0  0
    4.7203   -1.8875    3.0980 C   0  0  0  0  0  0  0  0  0  0  0  0
    4.7186   -0.5129    3.1535 C   0  0  0  0  0  0  0  0  0  0  0  0
    3.8384    0.1896    2.3269 C   0  0  0  0  0  0  0  0  0  0  0  0
    0.6829    0.0000    0.0000 Cl  0  0  0  0  0  0  0  0  0  0  0  0
   -5.9402   -0.2372    1.8179 H   0  0  0  0  0  0  0  0  0  0  0  0
   -4.3150    0.0671    2.4655 H   0  0  0  0  0  0  0  0  0  0  0  0
   -4.5234   -1.0216    1.0724 H   0  0  0  0  0  0  0  0  0  0  0  0
   -5.6984    1.5897    0.3765 H   0  0  0  0  0  0  0  0  0  0  0  0
   -4.1276    1.8624    1.1247 H   0  0  0  0  0  0  0  0  0  0  0  0
   -4.9052   -1.0765   -0.9509 H   0  0  0  0  0  0  0  0  0  0  0  0
   -3.7723   -0.5987   -2.2168 H   0  0  0  0  0  0  0  0  0  0  0  0
   -5.9906   -0.5586   -2.9739 H   0  0  0  0  0  0  0  0  0  0  0  0
   -6.5734    0.4943   -1.6879 H   0  0  0  0  0  0  0  0  0  0  0  0
   -5.4478    1.1246   -3.0126 H   0  0  0  0  0  0  0  0  0  0  0  0
   -2.2723    0.6523   -1.6660 H   0  0  0  0  0  0  0  0  0  0  0  0
   -2.2813    2.0066   -0.5322 H   0  0  0  0  0  0  0  0  0  0  0  0
   -1.9110   -0.9692    0.0516 H   0  0  0  0  0  0  0  0  0  0  0  0
   -2.0062    0.3286    1.3725 H   0  0  0  0  0  0  0  0  0  0  0  0
    1.3111    2.2778    0.3658 H   0  0  0  0  0  0  0  0  0  0  0  0
    3.1204    2.1399    0.6830 H   0  0  0  0  0  0  0  0  0  0  0  0
    1.9560    1.8415    2.0261 H   0  0  0  0  0  0  0  0  0  0  0  0
    4.3528    1.1073   -0.5414 H   0  0  0  0  0  0  0  0  0  0  0  0
    5.1089    0.9150   -2.8346 H   0  0  0  0  0  0  0  0  0  0  0  0
    3.7154   -0.1585   -4.4881 H   0  0  0  0  0  0  0  0  0  0  0  0
    1.5071   -1.0696   -3.8852 H   0  0  0  0  0  0  0  0  0  0  0  0
    0.7100   -0.8747   -1.5233 H   0  0  0  0  0  0  0  0  0  0  0  0
    2.3205   -2.3171    0.7514 H   0  0  0  0  0  0  0  0  0  0  0  0
    3.8457   -3.6456    2.1751 H   0  0  0  0  0  0  0  0  0  0  0  0
    5.3811   -2.4873    3.7155 H   0  0  0  0  0  0  0  0  0  0  0  0
    5.3679    0.0184    3.8072 H   0  0  0  0  0  0  0  0  0  0  0  0
    3.8605    1.2806    2.3900 H   0  0  0  0  0  0  0  0  0  0  0  0
   -0.6829    0.0000    0.0000 H   0  0  0  0  0  0  0  0  0  0  0  0
  1  2  1  0
  2  3  1  0
  3  4  1  0
  4  5  1  0
  3  6  1  0
  6  7  1  0
  7  8  1  0
  8  9  1  0
  9 10  2  0
  9 11  1  0
 11 12  1  0
 11 13  1  0
 13 14  2  0
 14 15  1  0
 15 16  2  0
 16 17  1  0
 17 18  2  0
 11 19  1  0
 19 20  2  0
 20 21  1  0
 21 22  2  0
 22 23  1  0
 23 24  2  0
 18 13  1  0
 24 19  1  0
  1 26  1  0
  1 27  1  0
  1 28  1  0
  2 29  1  0
  2 30  1  0
  4 31  1  0
  4 32  1  0
  5 33  1  0
  5 34  1  0
  5 35  1  0
  6 36  1  0
  6 37  1  0
  7 38  1  0
  7 39  1  0
 12 40  1  0
 12 41  1  0
 12 42  1  0
 14 43  1  0
 15 44  1  0
 16 45  1  0
 17 46  1  0
 18 47  1  0
 20 48  1  0
 21 49  1  0
 22 50  1  0
 23 51  1  0
 24 52  1  0
 25 53  1  0
M  END
$$$$
