
     RDKit          3D

 57 60  0  0  0  0  0  0  0  0999 V2000
    5.7747   -0.2029    0.4098 C   0  0  0  0  0  0  0  0  0  0  0  0
    4.3974   -0.8164    0.4586 C   0  0  0  0  0  0  0  0  0  0  0  0
    4.1103   -1.6151    1.3534 O   0  0  0  0  0  0  0  0  0  0  0  0
    3.3774   -0.3828   -0.6353 C   0  0  1  0  0  0  0  0  0  0  0  0
    4.0404    0.3031   -1.6944 O   0  0  0  0  0  0  0  0  0  0  0  0
    2.7240   -1.6479   -1.2193 C   0  0  0  0  0  0  0  0  0  0  0  0
    1.3793   -1.8200   -0.5040 C   0  0  0  0  0  0  0  0  0  0  0  0
    1.2545   -0.6581    0.4969 C   0  0  0  0  0  0  0  0  0  0  0  0
   -0.1875   -0.1959    0.8061 C   0  0  0  0  0  0  0  0  0  0  0  0
   -1.0423   -1.3626    1.3448 C   0  0  0  0  0  0  0  0  0  0  0  0
   -2.4905   -0.9496    1.6642 C   0  0  2  0  0  0  0  0  0  0  0  0
   -3.2515   -2.1550    2.2317 C   0  0  0  0  0  0  0  0  0  0  0  0
   -3.0710   -0.3136    0.4046 C   0  0  0  0  0  0  0  0  0  0  0  0
   -4.0537   -0.8948   -0.3109 C   0  0  0  0  0  0  0  0  0  0  0  0
   -4.4171   -0.4250   -1.6695 C   0  0  0  0  0  0  0  0  0  0  0  0
   -5.3696   -0.9339   -2.2542 O   0  0  0  0  0  0  0  0  0  0  0  0
   -3.5219    0.5963   -2.3165 C   0  0  0  0  0  0  0  0  0  0  0  0
   -3.0831    1.6027   -1.2699 C   0  0  0  0  0  0  0  0  0  0  0  0
   -2.3426    0.9663   -0.0554 C   0  0  1  0  0  0  0  0  0  0  0  0
   -2.3886    2.0534    1.0510 C   0  0  0  0  0  0  0  0  0  0  0  0
   -0.8676    0.5332   -0.3913 C   0  0  0  0  0  0  0  0  0  0  0  0
    0.0351    1.6868   -0.8656 C   0  0  0  0  0  0  0  0  0  0  0  0
    1.4394    1.2026   -1.2318 C   0  0  0  0  0  0  0  0  0  0  0  0
    2.1677    0.4438   -0.0876 C   0  0  2  0  0  0  0  0  0  0  0  0
    2.5958    1.4604    0.9876 C   0  0  0  0  0  0  0  0  0  0  0  0
    6.2800   -0.5006   -0.5121 H   0  0  0  0  0  0  0  0  0  0  0  0
    6.3640   -0.5587    1.2600 H   0  0  0  0  0  0  0  0  0  0  0  0
    5.6994    0.8851    0.4720 H   0  0  0  0  0  0  0  0  0  0  0  0
    4.2201    1.2145   -1.4070 H   0  0  0  0  0  0  0  0  0  0  0  0
    3.3475   -2.5398   -1.0866 H   0  0  0  0  0  0  0  0  0  0  0  0
    2.5588   -1.5500   -2.2995 H   0  0  0  0  0  0  0  0  0  0  0  0
    1.3365   -2.7837    0.0158 H   0  0  0  0  0  0  0  0  0  0  0  0
    0.5740   -1.8218   -1.2453 H   0  0  0  0  0  0  0  0  0  0  0  0
    1.6807   -1.0054    1.4483 H   0  0  0  0  0  0  0  0  0  0  0  0
   -0.0971    0.5267    1.6275 H   0  0  0  0  0  0  0  0  0  0  0  0
   -0.5696   -1.7630    2.2511 H   0  0  0  0  0  0  0  0  0  0  0  0
   -1.0575   -2.1815    0.6137 H   0  0  0  0  0  0  0  0  0  0  0  0
   -2.4833   -0.2015    2.4651 H   0  0  0  0  0  0  0  0  0  0  0  0
   -4.2898   -1.8925    2.4612 H   0  0  0  0  0  0  0  0  0  0  0  0
   -2.7856   -2.4949    3.1635 H   0  0  0  0  0  0  0  0  0  0  0  0
   -3.2522   -3.0028    1.5379 H   0  0  0  0  0  0  0  0  0  0  0  0
   -4.5704   -1.7966   -0.0048 H   0  0  0  0  0  0  0  0  0  0  0  0
   -4.0891    1.1106   -3.0999 H   0  0  0  0  0  0  0  0  0  0  0  0
   -2.6733    0.0876   -2.7836 H   0  0  0  0  0  0  0  0  0  0  0  0
   -3.9884    2.1137   -0.9081 H   0  0  0  0  0  0  0  0  0  0  0  0
   -2.4821    2.3856   -1.7424 H   0  0  0  0  0  0  0  0  0  0  0  0
   -3.4163    2.2114    1.4010 H   0  0  0  0  0  0  0  0  0  0  0  0
   -1.7874    1.8088    1.9298 H   0  0  0  0  0  0  0  0  0  0  0  0
   -2.0245    3.0165    0.6751 H   0  0  0  0  0  0  0  0  0  0  0  0
   -0.9272   -0.1831   -1.2222 H   0  0  0  0  0  0  0  0  0  0  0  0
   -0.3871    2.1612   -1.7569 H   0  0  0  0  0  0  0  0  0  0  0  0
    0.1023    2.4664   -0.1001 H   0  0  0  0  0  0  0  0  0  0  0  0
    1.3493    0.5631   -2.1190 H   0  0  0  0  0  0  0  0  0  0  0  0
    2.0358    2.0684   -1.5469 H   0  0  0  0  0  0  0  0  0  0  0  0
    1.7479    2.0372    1.3688 H   0  0  0  0  0  0  0  0  0  0  0  0
    3.0510    0.9713    1.8550 H   0  0  0  0  0  0  0  0  0  0  0  0
    3.3244    2.1726    0.5853 H   0  0  0  0  0  0  0  0  0  0  0  0
  1  2  1  0
  2  3  2  0
  2  4  1  0
  4  5  1  6
  4  6  1  0
  6  7  1  0
  7  8  1  0
  8  9  1  0
  9 10  1  0
 10 11  1  0
 11 12  1  0
 11 13  1  0
 13 14  2  0
 14 15  1  0
 15 16  2  0
 15 17  1  0
 17 18  1  0
 18 19  1  0
 19 20  1  1
 19 21  1  0
 21 22  1  0
 22 23  1  0
 23 24  1  0
 24 25  1  1
 24  4  1  0
 24  8  1  0
 21  9  1  0
 19 13  1  0
  1 26  1  0
  1 27  1  0
  1 28  1  0
  5 29  1  0
  6 30  1  0
  6 31  1  0
  7 32  1  0
  7 33  1  0
  8 34  1  0
  9 35  1  0
 10 36  1  0
 10 37  1  0
 11 38  1  1
 12 39  1  0
 12 40  1  0
 12 41  1  0
 14 42  1  0
 17 43  1  0
 17 44  1  0
 18 45  1  0
 18 46  1  0
 20 47  1  0
 20 48  1  0
 20 49  1  0
 21 50  1  0
 22 51  1  0
 22 52  1  0
 23 53  1  0
 23 54  1  0
 25 55  1  0
 25 56  1  0
 25 57  1  0
M  END
$$$$
