
     RDKit          3D

 29 29  0  0  0  0  0  0  0  0999 V2000
    2.4202   -0.5552    0.2781 C   0  0  0  0  0  0  0  0  0  0  0  0
    1.7320    0.6129   -0.4339 C   0  0  2  0  0  0  0  0  0  0  0  0
    2.5567    1.9051   -0.3533 C   0  0  0  0  0  0  0  0  0  0  0  0
    4.0679    1.8339   -1.3700 S   0  0  0  0  0  0  0  0  0  0  0  0
    0.3731    0.8543    0.2198 C   0  0  0  0  0  0  0  0  0  0  0  0
    0.2215    1.7224    1.0811 O   0  0  0  0  0  0  0  0  0  0  0  0
   -0.6668    0.0328   -0.1552 N   0  0  0  0  0  0  0  0  0  0  0  0
   -0.7058   -0.8917   -1.2769 C   0  0  0  0  0  0  0  0  0  0  0  0
   -2.0602   -1.5737   -1.1639 C   0  0  0  0  0  0  0  0  0  0  0  0
   -2.9346   -0.4977   -0.5272 C   0  0  0  0  0  0  0  0  0  0  0  0
   -1.9876    0.1809    0.4640 C   0  0  1  0  0  0  0  0  0  0  0  0
   -2.1029   -0.4805    1.8423 C   0  0  0  0  0  0  0  0  0  0  0  0
   -3.0896   -0.4421    2.5642 O   0  0  0  0  0  0  0  0  0  0  0  0
   -1.0256   -1.1990    2.2226 O   0  0  0  0  0  0  0  0  0  0  0  0
    1.7793   -1.4412    0.3185 H   0  0  0  0  0  0  0  0  0  0  0  0
    2.6655   -0.2931    1.3136 H   0  0  0  0  0  0  0  0  0  0  0  0
    3.3465   -0.8432   -0.2280 H   0  0  0  0  0  0  0  0  0  0  0  0
    1.5714    0.3630   -1.4888 H   0  0  0  0  0  0  0  0  0  0  0  0
    1.9672    2.7573   -0.7097 H   0  0  0  0  0  0  0  0  0  0  0  0
    2.8500    2.1230    0.6798 H   0  0  0  0  0  0  0  0  0  0  0  0
    4.5183    3.0567   -1.0513 H   0  0  0  0  0  0  0  0  0  0  0  0
    0.1235   -1.6014   -1.2414 H   0  0  0  0  0  0  0  0  0  0  0  0
   -0.6340   -0.3047   -2.1991 H   0  0  0  0  0  0  0  0  0  0  0  0
   -1.9915   -2.4408   -0.4961 H   0  0  0  0  0  0  0  0  0  0  0  0
   -2.4405   -1.9158   -2.1303 H   0  0  0  0  0  0  0  0  0  0  0  0
   -3.8359   -0.9159   -0.0692 H   0  0  0  0  0  0  0  0  0  0  0  0
   -3.2431    0.2210   -1.2965 H   0  0  0  0  0  0  0  0  0  0  0  0
   -2.2194    1.2443    0.5907 H   0  0  0  0  0  0  0  0  0  0  0  0
   -1.2557   -1.5117    3.1215 H   0  0  0  0  0  0  0  0  0  0  0  0
  1  2  1  0
  2  3  1  0
  3  4  1  0
  2  5  1  0
  5  6  2  0
  5  7  1  0
  7  8  1  0
  8  9  1  0
  9 10  1  0
 10 11  1  0
 11 12  1  0
 12 13  2  0
 12 14  1  0
 11  7  1  0
  1 15  1  0
  1 16  1  0
  1 17  1  0
  2 18  1  6
  3 19  1  0
  3 20  1  0
  4 21  1  0
  8 22  1  0
  8 23  1  0
  9 24  1  0
  9 25  1  0
 10 26  1  0
 10 27  1  0
 11 28  1  1
 14 29  1  0
M  END
$$$$
