
     RDKit          3D

 26 26  0  0  0  0  0  0  0  0999 V2000
   -2.3688   -0.8821    1.4140 C   0  0  0  0  0  0  0  0  0  0  0  0
   -1.8130   -0.3517    0.0795 C   0  0  1  0  0  0  0  0  0  0  0  0
   -2.2375   -1.3301   -0.9617 N   0  0  0  0  0  0  0  0  0  0  0  0
   -2.5129    1.0115   -0.1946 C   0  0  0  0  0  0  0  0  0  0  0  0
   -3.1814    1.2902   -1.1818 O   0  0  0  0  0  0  0  0  0  0  0  0
   -2.3168    1.9383    0.7667 O   0  0  0  0  0  0  0  0  0  0  0  0
   -0.2859   -0.2062    0.0196 C   0  0  0  0  0  0  0  0  0  0  0  0
    0.3135    0.4814   -1.0571 C   0  0  0  0  0  0  0  0  0  0  0  0
    1.7026    0.6235   -1.1488 C   0  0  0  0  0  0  0  0  0  0  0  0
    2.5288    0.0716   -0.1675 C   0  0  0  0  0  0  0  0  0  0  0  0
    4.0055    0.1931   -0.2181 C   0  0  0  0  0  0  0  0  0  0  0  0
    4.7876   -0.2587    0.5977 O   0  0  0  0  0  0  0  0  0  0  0  0
    4.4374    0.8796   -1.2912 O   0  0  0  0  0  0  0  0  0  0  0  0
    1.9551   -0.6256    0.8989 C   0  0  0  0  0  0  0  0  0  0  0  0
    0.5650   -0.7664    0.9878 C   0  0  0  0  0  0  0  0  0  0  0  0
   -2.0491   -1.9122    1.6124 H   0  0  0  0  0  0  0  0  0  0  0  0
   -2.0421   -0.2651    2.2596 H   0  0  0  0  0  0  0  0  0  0  0  0
   -3.4661   -0.8742    1.4197 H   0  0  0  0  0  0  0  0  0  0  0  0
   -3.2583   -1.3461   -0.9868 H   0  0  0  0  0  0  0  0  0  0  0  0
   -1.9712   -0.9546   -1.8730 H   0  0  0  0  0  0  0  0  0  0  0  0
   -2.7880    2.7328    0.4394 H   0  0  0  0  0  0  0  0  0  0  0  0
   -0.2985    0.9140   -1.8474 H   0  0  0  0  0  0  0  0  0  0  0  0
    2.1262    1.1623   -1.9929 H   0  0  0  0  0  0  0  0  0  0  0  0
    5.4125    0.8752   -1.1926 H   0  0  0  0  0  0  0  0  0  0  0  0
    2.5871   -1.0698    1.6660 H   0  0  0  0  0  0  0  0  0  0  0  0
    0.1684   -1.3307    1.8282 H   0  0  0  0  0  0  0  0  0  0  0  0
  1  2  1  0
  2  3  1  6
  2  4  1  0
  4  5  2  0
  4  6  1  0
  2  7  1  0
  7  8  2  0
  8  9  1  0
  9 10  2  0
 10 11  1  0
 11 12  2  0
 11 13  1  0
 10 14  1  0
 14 15  2  0
 15  7  1  0
  1 16  1  0
  1 17  1  0
  1 18  1  0
  3 19  1  0
  3 20  1  0
  6 21  1  0
  8 22  1  0
  9 23  1  0
 13 24  1  0
 14 25  1  0
 15 26  1  0
M  END
$$$$
