
     RDKit          3D

 50 54  0  0  0  0  0  0  0  0999 V2000
    8.4818    0.4798    0.2719 C   0  0  0  0  0  0  0  0  0  0  0  0
    7.5179   -0.4553   -0.3419 C   0  0  0  0  0  0  0  0  0  0  0  0
    7.8589   -1.4414   -1.1500 N   0  0  0  0  0  0  0  0  0  0  0  0
    6.7014   -2.0216   -1.5706 N   0  0  0  0  0  0  0  0  0  0  0  0
    5.6521   -1.4194   -1.0414 N   0  0  0  0  0  0  0  0  0  0  0  0
    6.1318   -0.4398   -0.2302 N   0  0  0  0  0  0  0  0  0  0  0  0
    5.2269    0.3493    0.5366 C   0  0  0  0  0  0  0  0  0  0  0  0
    5.6520    1.2306    1.5370 C   0  0  0  0  0  0  0  0  0  0  0  0
    4.7192    1.9828    2.2594 C   0  0  0  0  0  0  0  0  0  0  0  0
    3.3559    1.8537    2.0014 C   0  0  0  0  0  0  0  0  0  0  0  0
    2.9091    0.9609    1.0237 C   0  0  0  0  0  0  0  0  0  0  0  0
    1.4407    0.8536    0.7775 C   0  0  0  0  0  0  0  0  0  0  0  0
    0.7433    1.8345    1.0038 O   0  0  0  0  0  0  0  0  0  0  0  0
    0.9999   -0.3904    0.3608 N   0  0  0  0  0  0  0  0  0  0  0  0
   -0.3146   -0.7445   -0.0089 C   0  0  0  0  0  0  0  0  0  0  0  0
   -0.5720   -2.0975   -0.2313 C   0  0  0  0  0  0  0  0  0  0  0  0
   -1.8525   -2.5281   -0.5906 C   0  0  0  0  0  0  0  0  0  0  0  0
   -2.9130   -1.6197   -0.7255 C   0  0  0  0  0  0  0  0  0  0  0  0
   -2.6464   -0.2500   -0.5650 C   0  0  0  0  0  0  0  0  0  0  0  0
   -1.3489    0.1718   -0.1998 C   0  0  0  0  0  0  0  0  0  0  0  0
   -3.5967    0.8364   -0.9301 C   0  0  0  0  0  0  0  0  0  0  0  0
   -3.1594    1.8821   -1.4053 O   0  0  0  0  0  0  0  0  0  0  0  0
   -4.9401    0.6305   -0.7536 N   0  0  0  0  0  0  0  0  0  0  0  0
   -5.9208    1.6273   -1.1395 C   0  0  0  0  0  0  0  0  0  0  0  0
   -7.2560    0.9318   -0.9369 C   0  0  0  0  0  0  0  0  0  0  0  0
   -6.9802    0.0206    0.2551 C   0  0  0  0  0  0  0  0  0  0  0  0
   -5.5357   -0.4342    0.0299 C   0  0  1  0  0  0  0  0  0  0  0  0
   -5.4154   -1.7411   -0.7487 C   0  0  0  0  0  0  0  0  0  0  0  0
   -6.3788   -2.4628   -1.0114 O   0  0  0  0  0  0  0  0  0  0  0  0
   -4.1566   -2.2007   -1.0362 N   0  0  0  0  0  0  0  0  0  0  0  0
    3.8446    0.2221    0.2846 C   0  0  0  0  0  0  0  0  0  0  0  0
    9.4743    0.3407   -0.1705 H   0  0  0  0  0  0  0  0  0  0  0  0
    8.5790    0.2940    1.3452 H   0  0  0  0  0  0  0  0  0  0  0  0
    8.1974    1.5213    0.0970 H   0  0  0  0  0  0  0  0  0  0  0  0
    6.6911    1.3611    1.8107 H   0  0  0  0  0  0  0  0  0  0  0  0
    5.0561    2.6728    3.0311 H   0  0  0  0  0  0  0  0  0  0  0  0
    2.6405    2.4493    2.5669 H   0  0  0  0  0  0  0  0  0  0  0  0
    1.6636   -1.1528    0.4041 H   0  0  0  0  0  0  0  0  0  0  0  0
    0.2132   -2.8415   -0.1189 H   0  0  0  0  0  0  0  0  0  0  0  0
   -2.0137   -3.5948   -0.7352 H   0  0  0  0  0  0  0  0  0  0  0  0
   -1.1649    1.2403   -0.1072 H   0  0  0  0  0  0  0  0  0  0  0  0
   -5.7587    1.9552   -2.1705 H   0  0  0  0  0  0  0  0  0  0  0  0
   -5.8119    2.4884   -0.4703 H   0  0  0  0  0  0  0  0  0  0  0  0
   -8.0746    1.6340   -0.7579 H   0  0  0  0  0  0  0  0  0  0  0  0
   -7.5056    0.3276   -1.8173 H   0  0  0  0  0  0  0  0  0  0  0  0
   -7.0378    0.6116    1.1779 H   0  0  0  0  0  0  0  0  0  0  0  0
   -7.7048   -0.7945    0.3345 H   0  0  0  0  0  0  0  0  0  0  0  0
   -5.0148   -0.5505    0.9875 H   0  0  0  0  0  0  0  0  0  0  0  0
   -4.1710   -3.1598   -1.3636 H   0  0  0  0  0  0  0  0  0  0  0  0
    3.4941   -0.4238   -0.5187 H   0  0  0  0  0  0  0  0  0  0  0  0
  1  2  1  0
  2  3  2  0
  3  4  1  0
  4  5  2  0
  5  6  1  0
  6  7  1  0
  7  8  2  0
  8  9  1  0
  9 10  2  0
 10 11  1  0
 11 12  1  0
 12 13  2  0
 12 14  1  0
 14 15  1  0
 15 16  2  0
 16 17  1  0
 17 18  2  0
 18 19  1  0
 19 20  2  0
 19 21  1  0
 21 22  2  0
 21 23  1  0
 23 24  1  0
 24 25  1  0
 25 26  1  0
 26 27  1  0
 27 28  1  0
 28 29  2  0
 28 30  1  0
 11 31  2  0
  6  2  1  0
 31  7  1  0
 20 15  1  0
 27 23  1  0
 30 18  1  0
  1 32  1  0
  1 33  1  0
  1 34  1  0
  8 35  1  0
  9 36  1  0
 10 37  1  0
 14 38  1  0
 16 39  1  0
 17 40  1  0
 20 41  1  0
 24 42  1  0
 24 43  1  0
 25 44  1  0
 25 45  1  0
 26 46  1  0
 26 47  1  0
 27 48  1  1
 30 49  1  0
 31 50  1  0
M  END
$$$$
