
     RDKit          3D

 53 55  0  0  0  0  0  0  0  0999 V2000
    5.3592    3.4886   -0.5180 C   0  0  0  0  0  0  0  0  0  0  0  0
    5.2064    2.2996   -1.4479 C   0  0  0  0  0  0  0  0  0  0  0  0
    4.1736    1.4275   -0.9695 O   0  0  0  0  0  0  0  0  0  0  0  0
    4.5568    0.4925   -0.0598 C   0  0  0  0  0  0  0  0  0  0  0  0
    5.7012    0.3549    0.3545 O   0  0  0  0  0  0  0  0  0  0  0  0
    3.5035   -0.2854    0.3437 N   0  0  0  0  0  0  0  0  0  0  0  0
    3.6559   -1.3563    1.3037 C   0  0  0  0  0  0  0  0  0  0  0  0
    2.3471   -2.1270    1.2086 C   0  0  0  0  0  0  0  0  0  0  0  0
    1.3298   -1.0314    0.8579 C   0  0  0  0  0  0  0  0  0  0  0  0
    0.0419   -1.5949    0.2462 C   0  0  0  0  0  0  0  0  0  0  0  0
   -0.8853   -0.5509   -0.2085 N   0  0  0  0  0  0  0  0  0  0  0  0
   -1.7971   -1.0166   -1.2712 C   0  0  0  0  0  0  0  0  0  0  0  0
   -2.8185   -2.0721   -0.8908 C   0  0  0  0  0  0  0  0  0  0  0  0
   -4.1417   -1.7067   -0.5964 C   0  0  0  0  0  0  0  0  0  0  0  0
   -5.0884   -2.6719   -0.2437 C   0  0  0  0  0  0  0  0  0  0  0  0
   -4.7213   -4.0137   -0.1912 C   0  0  0  0  0  0  0  0  0  0  0  0
   -5.8857   -5.2027    0.2441 Cl  0  0  0  0  0  0  0  0  0  0  0  0
   -3.4187   -4.3986   -0.4957 C   0  0  0  0  0  0  0  0  0  0  0  0
   -2.4731   -3.4321   -0.8486 C   0  0  0  0  0  0  0  0  0  0  0  0
   -1.5633    0.1316    0.9035 C   0  0  0  0  0  0  0  0  0  0  0  0
   -2.1465    1.4655    0.5076 C   0  0  0  0  0  0  0  0  0  0  0  0
   -3.4588    1.8917    0.6098 C   0  0  0  0  0  0  0  0  0  0  0  0
   -3.6363    3.2295    0.1443 C   0  0  0  0  0  0  0  0  0  0  0  0
   -2.4449    3.7789   -0.2771 C   0  0  0  0  0  0  0  0  0  0  0  0
   -2.2519    5.1052   -0.8041 N   0  0  0  0  0  4  0  0  0  0  0  0
   -1.1088    5.4523   -1.1272 O   0  0  0  0  0  0  0  0  0  0  0  0
   -3.2667    5.8104   -0.8950 O   0  0  0  0  0  1  0  0  0  0  0  0
   -1.1348    2.7133   -0.1095 S   0  0  0  0  0  0  0  0  0  0  0  0
    2.1254   -0.1338   -0.0927 C   0  0  0  0  0  0  0  0  0  0  0  0
    5.6686    3.1685    0.4819 H   0  0  0  0  0  0  0  0  0  0  0  0
    4.4044    4.0121   -0.4036 H   0  0  0  0  0  0  0  0  0  0  0  0
    6.1027    4.1909   -0.9055 H   0  0  0  0  0  0  0  0  0  0  0  0
    6.1546    1.7649   -1.5763 H   0  0  0  0  0  0  0  0  0  0  0  0
    4.8977    2.6464   -2.4395 H   0  0  0  0  0  0  0  0  0  0  0  0
    3.7849   -0.9059    2.2941 H   0  0  0  0  0  0  0  0  0  0  0  0
    4.5320   -1.9702    1.0749 H   0  0  0  0  0  0  0  0  0  0  0  0
    2.4103   -2.8682    0.4022 H   0  0  0  0  0  0  0  0  0  0  0  0
    2.1036   -2.6523    2.1367 H   0  0  0  0  0  0  0  0  0  0  0  0
    1.1147   -0.4744    1.7785 H   0  0  0  0  0  0  0  0  0  0  0  0
    0.3395   -2.2142   -0.6102 H   0  0  0  0  0  0  0  0  0  0  0  0
   -0.4446   -2.2656    0.9657 H   0  0  0  0  0  0  0  0  0  0  0  0
   -2.3208   -0.1561   -1.7077 H   0  0  0  0  0  0  0  0  0  0  0  0
   -1.2010   -1.4011   -2.1106 H   0  0  0  0  0  0  0  0  0  0  0  0
   -4.4480   -0.6652   -0.6513 H   0  0  0  0  0  0  0  0  0  0  0  0
   -6.1082   -2.3715   -0.0184 H   0  0  0  0  0  0  0  0  0  0  0  0
   -3.1334   -5.4469   -0.4657 H   0  0  0  0  0  0  0  0  0  0  0  0
   -1.4642   -3.7523   -1.0985 H   0  0  0  0  0  0  0  0  0  0  0  0
   -0.8585    0.3443    1.7162 H   0  0  0  0  0  0  0  0  0  0  0  0
   -2.3353   -0.5052    1.3521 H   0  0  0  0  0  0  0  0  0  0  0  0
   -4.2583    1.2728    1.0010 H   0  0  0  0  0  0  0  0  0  0  0  0
   -4.5850    3.7546    0.1281 H   0  0  0  0  0  0  0  0  0  0  0  0
    1.8183    0.9149   -0.0362 H   0  0  0  0  0  0  0  0  0  0  0  0
    2.0671   -0.4679   -1.1347 H   0  0  0  0  0  0  0  0  0  0  0  0
  1  2  1  0
  2  3  1  0
  3  4  1  0
  4  5  2  0
  4  6  1  0
  6  7  1  0
  7  8  1  0
  8  9  1  0
  9 10  1  0
 10 11  1  0
 11 12  1  0
 12 13  1  0
 13 14  2  0
 14 15  1  0
 15 16  2  0
 16 17  1  0
 16 18  1  0
 18 19  2  0
 11 20  1  0
 20 21  1  0
 21 22  2  0
 22 23  1  0
 23 24  2  0
 24 25  1  0
 25 26  2  0
 25 27  1  0
 24 28  1  0
  9 29  1  0
 29  6  1  0
 19 13  1  0
 28 21  1  0
  1 30  1  0
  1 31  1  0
  1 32  1  0
  2 33  1  0
  2 34  1  0
  7 35  1  0
  7 36  1  0
  8 37  1  0
  8 38  1  0
  9 39  1  0
 10 40  1  0
 10 41  1  0
 12 42  1  0
 12 43  1  0
 14 44  1  0
 15 45  1  0
 18 46  1  0
 19 47  1  0
 20 48  1  0
 20 49  1  0
 22 50  1  0
 23 51  1  0
 29 52  1  0
 29 53  1  0
M  CHG  2  25   1  27  -1
M  END
$$$$
