
     RDKit          3D

 43 47  0  0  0  0  0  0  0  0999 V2000
    8.1983   -0.4005   -0.6458 C   0  0  0  0  0  0  0  0  0  0  0  0
    7.1728    0.1724   -1.4474 O   0  0  0  0  0  0  0  0  0  0  0  0
    5.8873    0.0242   -1.0074 C   0  0  0  0  0  0  0  0  0  0  0  0
    4.9181    0.5982   -1.8321 C   0  0  0  0  0  0  0  0  0  0  0  0
    3.5615    0.5224   -1.5024 C   0  0  0  0  0  0  0  0  0  0  0  0
    3.1513   -0.1346   -0.3369 C   0  0  0  0  0  0  0  0  0  0  0  0
    1.7285   -0.2060    0.0140 C   0  0  0  0  0  0  0  0  0  0  0  0
    0.8323    0.9973   -0.0065 C   0  0  0  0  0  0  0  0  0  0  0  0
   -0.4378    1.0248    0.2703 N   0  0  0  0  0  0  0  0  0  0  0  0
   -1.0025   -0.1759    0.6128 C   0  0  0  0  0  0  0  0  0  0  0  0
   -2.2925   -0.5379    0.9505 C   0  0  0  0  0  0  0  0  0  0  0  0
   -3.4213    0.3739    1.0277 C   0  0  0  0  0  0  0  0  0  0  0  0
   -3.3583    1.4204    1.9588 C   0  0  0  0  0  0  0  0  0  0  0  0
   -4.4300    2.2909    2.1054 C   0  0  0  0  0  0  0  0  0  0  0  0
   -5.5700    2.1167    1.3222 C   0  0  0  0  0  0  0  0  0  0  0  0
   -5.6682    1.1006    0.3829 C   0  0  0  0  0  0  0  0  0  0  0  0
   -6.8046    1.0149   -0.3316 N   0  0  0  0  0  0  0  0  0  0  0  0
   -6.9046    0.0426   -1.2611 C   0  0  0  0  0  0  0  0  0  0  0  0
   -5.9062   -0.8703   -1.5231 C   0  0  0  0  0  0  0  0  0  0  0  0
   -4.7354   -0.7820   -0.7791 C   0  0  0  0  0  0  0  0  0  0  0  0
   -4.5813    0.2110    0.2161 C   0  0  0  0  0  0  0  0  0  0  0  0
   -2.2209   -1.9196    1.2148 C   0  0  0  0  0  0  0  0  0  0  0  0
   -0.9992   -2.4224    1.0350 N   0  0  0  0  0  0  0  0  0  0  0  0
   -0.2482   -1.3542    0.6670 N   0  0  0  0  0  0  0  0  0  0  0  0
    1.1083   -1.3464    0.3625 C   0  0  0  0  0  0  0  0  0  0  0  0
    4.1282   -0.7081    0.4889 C   0  0  0  0  0  0  0  0  0  0  0  0
    5.4869   -0.6299    0.1564 C   0  0  0  0  0  0  0  0  0  0  0  0
    8.2266    0.0603    0.3471 H   0  0  0  0  0  0  0  0  0  0  0  0
    8.0832   -1.4872   -0.5749 H   0  0  0  0  0  0  0  0  0  0  0  0
    9.1565   -0.1984   -1.1341 H   0  0  0  0  0  0  0  0  0  0  0  0
    5.2226    1.1080   -2.7435 H   0  0  0  0  0  0  0  0  0  0  0  0
    2.8361    0.9722   -2.1771 H   0  0  0  0  0  0  0  0  0  0  0  0
    1.3217    1.9481   -0.2781 H   0  0  0  0  0  0  0  0  0  0  0  0
   -2.4710    1.5594    2.5735 H   0  0  0  0  0  0  0  0  0  0  0  0
   -4.3825    3.1029    2.8258 H   0  0  0  0  0  0  0  0  0  0  0  0
   -6.4078    2.8001    1.4422 H   0  0  0  0  0  0  0  0  0  0  0  0
   -7.8416    0.0228   -1.8101 H   0  0  0  0  0  0  0  0  0  0  0  0
   -6.0299   -1.6279   -2.2882 H   0  0  0  0  0  0  0  0  0  0  0  0
   -3.9367   -1.4868   -0.9944 H   0  0  0  0  0  0  0  0  0  0  0  0
   -3.0175   -2.5819    1.5304 H   0  0  0  0  0  0  0  0  0  0  0  0
    1.5983   -2.3095    0.4178 H   0  0  0  0  0  0  0  0  0  0  0  0
    3.8464   -1.2159    1.4095 H   0  0  0  0  0  0  0  0  0  0  0  0
    6.2034   -1.0884    0.8301 H   0  0  0  0  0  0  0  0  0  0  0  0
  1  2  1  0
  2  3  1  0
  3  4  2  0
  4  5  1  0
  5  6  2  0
  6  7  1  0
  7  8  1  0
  8  9  2  0
  9 10  1  0
 10 11  2  0
 11 12  1  0
 12 13  2  0
 13 14  1  0
 14 15  2  0
 15 16  1  0
 16 17  2  0
 17 18  1  0
 18 19  2  0
 19 20  1  0
 20 21  2  0
 11 22  1  0
 22 23  2  0
 23 24  1  0
 24 25  1  0
  6 26  1  0
 26 27  2  0
 27  3  1  0
 25  7  2  0
 24 10  1  0
 21 12  1  0
 21 16  1  0
  1 28  1  0
  1 29  1  0
  1 30  1  0
  4 31  1  0
  5 32  1  0
  8 33  1  0
 13 34  1  0
 14 35  1  0
 15 36  1  0
 18 37  1  0
 19 38  1  0
 20 39  1  0
 22 40  1  0
 25 41  1  0
 26 42  1  0
 27 43  1  0
M  END
$$$$
