
     RDKit          3D

 59 61  0  0  0  0  0  0  0  0999 V2000
    4.8815   -0.9959   -1.8011 C   0  0  0  0  0  0  0  0  0  0  0  0
    4.8408    0.3451   -1.1698 C   0  0  0  0  0  0  0  0  0  0  0  0
    5.1715    1.4247   -1.8943 N   0  0  0  0  0  0  0  0  0  0  0  0
    5.0510    2.5081   -1.0438 O   0  0  0  0  0  0  0  0  0  0  0  0
    4.6358    2.0835    0.1808 C   0  0  0  0  0  0  0  0  0  0  0  0
    4.4620    3.1276    1.2083 C   0  0  0  0  0  0  0  0  0  0  0  0
    4.4872    0.7177    0.1466 C   0  0  0  0  0  0  0  0  0  0  0  0
    3.9560   -0.2797    1.4238 S   0  0  0  0  0  6  0  0  0  0  0  0
    4.1462   -1.6385    0.9723 O   0  0  0  0  0  0  0  0  0  0  0  0
    4.6190    0.2489    2.5932 O   0  0  0  0  0  0  0  0  0  0  0  0
    2.3106   -0.0169    1.6456 N   0  0  0  0  0  0  0  0  0  0  0  0
    1.4143   -0.2808    0.5071 C   0  0  0  0  0  0  0  0  0  0  0  0
    0.0093   -0.6279    1.0306 C   0  0  0  0  0  0  0  0  0  0  0  0
   -0.9418   -0.7978   -0.0881 N   0  0  0  0  0  0  0  0  0  0  0  0
   -1.4349   -2.1888   -0.2428 C   0  0  0  0  0  0  0  0  0  0  0  0
   -0.3118   -3.2042   -0.5049 C   0  0  0  0  0  0  0  0  0  0  0  0
   -0.9003   -4.5783   -0.8341 C   0  0  0  0  0  0  0  0  0  0  0  0
   -2.2153   -4.7709   -0.3074 O   0  0  0  0  0  0  0  0  0  0  0  0
   -2.3698   -4.2054    0.9885 C   0  0  0  0  0  0  0  0  0  0  0  0
   -2.3431   -2.6820    0.9022 C   0  0  0  0  0  0  0  0  0  0  0  0
   -2.0176    0.2179   -0.0561 C   0  0  0  0  0  0  0  0  0  0  0  0
   -2.9980    0.1674   -1.2304 C   0  0  0  0  0  0  0  0  0  0  0  0
   -3.7351    1.4934   -1.1055 C   0  0  0  0  0  0  0  0  0  0  0  0
   -2.7030    2.4663   -0.6585 N   0  0  0  0  0  0  0  0  0  0  0  0
   -3.2003    3.6888    0.4040 S   0  0  0  0  0  6  0  0  0  0  0  0
   -4.3531    4.6067   -0.5962 C   0  0  0  0  0  0  0  0  0  0  0  0
   -2.0514    4.5304    0.6622 O   0  0  0  0  0  0  0  0  0  0  0  0
   -3.9146    3.0525    1.4903 O   0  0  0  0  0  0  0  0  0  0  0  0
   -1.5238    1.6781   -0.1875 C   0  0  0  0  0  0  0  0  0  0  0  0
    5.6345   -1.6260   -1.3161 H   0  0  0  0  0  0  0  0  0  0  0  0
    3.9069   -1.4882   -1.7282 H   0  0  0  0  0  0  0  0  0  0  0  0
    5.1393   -0.9310   -2.8647 H   0  0  0  0  0  0  0  0  0  0  0  0
    5.3737    3.2278    1.8096 H   0  0  0  0  0  0  0  0  0  0  0  0
    3.6278    2.8847    1.8764 H   0  0  0  0  0  0  0  0  0  0  0  0
    4.2471    4.0994    0.7469 H   0  0  0  0  0  0  0  0  0  0  0  0
    2.1223    0.8272    2.1854 H   0  0  0  0  0  0  0  0  0  0  0  0
    1.7899   -1.1130   -0.0973 H   0  0  0  0  0  0  0  0  0  0  0  0
    1.3765    0.6158   -0.1215 H   0  0  0  0  0  0  0  0  0  0  0  0
   -0.3202    0.1551    1.7258 H   0  0  0  0  0  0  0  0  0  0  0  0
    0.0801   -1.5235    1.6598 H   0  0  0  0  0  0  0  0  0  0  0  0
   -2.0339   -2.2121   -1.1631 H   0  0  0  0  0  0  0  0  0  0  0  0
    0.3272   -3.3093    0.3804 H   0  0  0  0  0  0  0  0  0  0  0  0
    0.3435   -2.8813   -1.3227 H   0  0  0  0  0  0  0  0  0  0  0  0
   -0.9739   -4.7015   -1.9200 H   0  0  0  0  0  0  0  0  0  0  0  0
   -0.2462   -5.3755   -0.4635 H   0  0  0  0  0  0  0  0  0  0  0  0
   -1.5794   -4.5814    1.6500 H   0  0  0  0  0  0  0  0  0  0  0  0
   -3.3263   -4.5410    1.4025 H   0  0  0  0  0  0  0  0  0  0  0  0
   -3.3613   -2.3156    0.7193 H   0  0  0  0  0  0  0  0  0  0  0  0
   -2.0514   -2.2824    1.8798 H   0  0  0  0  0  0  0  0  0  0  0  0
   -2.5891    0.1250    0.8787 H   0  0  0  0  0  0  0  0  0  0  0  0
   -2.4615    0.1213   -2.1869 H   0  0  0  0  0  0  0  0  0  0  0  0
   -3.6951   -0.6745   -1.1846 H   0  0  0  0  0  0  0  0  0  0  0  0
   -4.5425    1.4004   -0.3721 H   0  0  0  0  0  0  0  0  0  0  0  0
   -4.1615    1.8036   -2.0632 H   0  0  0  0  0  0  0  0  0  0  0  0
   -5.2024    3.9690   -0.8463 H   0  0  0  0  0  0  0  0  0  0  0  0
   -4.6958    5.4626   -0.0101 H   0  0  0  0  0  0  0  0  0  0  0  0
   -3.8415    4.9548   -1.4952 H   0  0  0  0  0  0  0  0  0  0  0  0
   -1.1166    2.0501    0.7570 H   0  0  0  0  0  0  0  0  0  0  0  0
   -0.7417    1.7695   -0.9507 H   0  0  0  0  0  0  0  0  0  0  0  0
  1  2  1  0
  2  3  2  0
  3  4  1  0
  4  5  1  0
  5  6  1  0
  5  7  2  0
  7  8  1  0
  8  9  2  0
  8 10  2  0
  8 11  1  0
 11 12  1  0
 12 13  1  0
 13 14  1  0
 14 15  1  0
 15 16  1  0
 16 17  1  0
 17 18  1  0
 18 19  1  0
 19 20  1  0
 14 21  1  0
 21 22  1  0
 22 23  1  0
 23 24  1  0
 24 25  1  0
 25 26  1  0
 25 27  2  0
 25 28  2  0
 24 29  1  0
  7  2  1  0
 20 15  1  0
 29 21  1  0
  1 30  1  0
  1 31  1  0
  1 32  1  0
  6 33  1  0
  6 34  1  0
  6 35  1  0
 11 36  1  0
 12 37  1  0
 12 38  1  0
 13 39  1  0
 13 40  1  0
 15 41  1  0
 16 42  1  0
 16 43  1  0
 17 44  1  0
 17 45  1  0
 19 46  1  0
 19 47  1  0
 20 48  1  0
 20 49  1  0
 21 50  1  0
 22 51  1  0
 22 52  1  0
 23 53  1  0
 23 54  1  0
 26 55  1  0
 26 56  1  0
 26 57  1  0
 29 58  1  0
 29 59  1  0
M  END
$$$$
