
     RDKit          3D

 34 36  0  0  0  0  0  0  0  0999 V2000
    0.0593    2.9606    0.4351 C   0  0  0  0  0  0  0  0  0  0  0  0
   -0.3172    2.1333   -0.7841 C   0  0  0  0  0  0  0  0  0  0  0  0
   -1.0940    0.9163   -0.4212 C   0  0  0  0  0  0  0  0  0  0  0  0
   -2.3234    1.1617    0.1188 O   0  0  0  0  0  0  0  0  0  0  0  0
   -2.9332   -0.0363    0.3095 C   0  0  0  0  0  0  0  0  0  0  0  0
   -4.2103   -0.2167    0.8355 C   0  0  0  0  0  0  0  0  0  0  0  0
   -4.6624   -1.5361    0.9382 C   0  0  0  0  0  0  0  0  0  0  0  0
   -3.8634   -2.6062    0.5287 C   0  0  0  0  0  0  0  0  0  0  0  0
   -2.5806   -2.3898    0.0052 C   0  0  0  0  0  0  0  0  0  0  0  0
   -2.1039   -1.0689   -0.1041 C   0  0  0  0  0  0  0  0  0  0  0  0
   -0.8925   -0.4520   -0.5522 C   0  0  0  0  0  0  0  0  0  0  0  0
    0.2720   -1.1346   -1.0900 C   0  0  0  0  0  0  0  0  0  0  0  0
    0.1739   -2.0951   -1.8483 O   0  0  0  0  0  0  0  0  0  0  0  0
    1.6324   -0.6948   -0.6895 C   0  0  0  0  0  0  0  0  0  0  0  0
    1.9062   -0.2730    0.6171 C   0  0  0  0  0  0  0  0  0  0  0  0
    3.2024    0.1180    0.9568 C   0  0  0  0  0  0  0  0  0  0  0  0
    3.5410    0.7025    2.7284 Br  0  0  0  0  0  0  0  0  0  0  0  0
    4.2291    0.0791    0.0079 C   0  0  0  0  0  0  0  0  0  0  0  0
    5.5018    0.4665    0.3329 O   0  0  0  0  0  0  0  0  0  0  0  0
    3.9552   -0.3646   -1.2887 C   0  0  0  0  0  0  0  0  0  0  0  0
    5.3087   -0.4497   -2.6144 Br  0  0  0  0  0  0  0  0  0  0  0  0
    2.6617   -0.7585   -1.6374 C   0  0  0  0  0  0  0  0  0  0  0  0
    0.6485    3.8323    0.1332 H   0  0  0  0  0  0  0  0  0  0  0  0
    0.6519    2.3803    1.1485 H   0  0  0  0  0  0  0  0  0  0  0  0
   -0.8317    3.3221    0.9599 H   0  0  0  0  0  0  0  0  0  0  0  0
   -0.9196    2.7484   -1.4633 H   0  0  0  0  0  0  0  0  0  0  0  0
    0.5887    1.8633   -1.3354 H   0  0  0  0  0  0  0  0  0  0  0  0
   -4.8183    0.6257    1.1414 H   0  0  0  0  0  0  0  0  0  0  0  0
   -5.6552   -1.7304    1.3390 H   0  0  0  0  0  0  0  0  0  0  0  0
   -4.2409   -3.6233    0.6126 H   0  0  0  0  0  0  0  0  0  0  0  0
   -1.9697   -3.2290   -0.3176 H   0  0  0  0  0  0  0  0  0  0  0  0
    1.1207   -0.2585    1.3697 H   0  0  0  0  0  0  0  0  0  0  0  0
    5.5144    0.7217    1.2732 H   0  0  0  0  0  0  0  0  0  0  0  0
    2.4484   -1.1144   -2.6443 H   0  0  0  0  0  0  0  0  0  0  0  0
  1  2  1  0
  2  3  1  0
  3  4  1  0
  4  5  1  0
  5  6  2  0
  6  7  1  0
  7  8  2  0
  8  9  1  0
  9 10  2  0
 10 11  1  0
 11 12  1  0
 12 13  2  0
 12 14  1  0
 14 15  2  0
 15 16  1  0
 16 17  1  0
 16 18  2  0
 18 19  1  0
 18 20  1  0
 20 21  1  0
 20 22  2  0
 11  3  2  0
 22 14  1  0
 10  5  1  0
  1 23  1  0
  1 24  1  0
  1 25  1  0
  2 26  1  0
  2 27  1  0
  6 28  1  0
  7 29  1  0
  8 30  1  0
  9 31  1  0
 15 32  1  0
 19 33  1  0
 22 34  1  0
M  END
$$$$
