
     RDKit          3D

 26 27  0  0  0  0  0  0  0  0999 V2000
   -3.7509   -0.8196    0.8481 C   0  0  0  0  0  0  0  0  0  0  0  0
   -3.3939    0.5401    0.6476 O   0  0  0  0  0  0  0  0  0  0  0  0
   -2.1711    0.7988    0.0861 C   0  0  0  0  0  0  0  0  0  0  0  0
   -1.2355   -0.1726   -0.2839 C   0  0  0  0  0  0  0  0  0  0  0  0
   -0.0072    0.2015   -0.8485 C   0  0  0  0  0  0  0  0  0  0  0  0
    0.9588   -0.8333   -1.2271 C   0  0  0  0  0  0  0  0  0  0  0  0
    2.0766   -1.1317   -0.5520 C   0  0  0  0  0  0  0  0  0  0  0  0
    2.6681   -0.4174    0.8958 S   0  0  0  0  0  0  0  0  0  0  0  0
    4.0191   -1.5062    0.8406 C   0  0  0  0  0  0  0  0  0  0  0  0
    5.2105   -1.4179    2.0875 S   0  0  0  0  0  0  0  0  0  0  0  0
    4.0828   -2.3434   -0.1352 N   0  0  0  0  0  0  0  0  0  0  0  0
    3.0133   -2.2133   -0.9930 C   0  0  0  0  0  0  0  0  0  0  0  0
    2.8311   -2.8875   -1.9954 O   0  0  0  0  0  0  0  0  0  0  0  0
    0.2833    1.5545   -1.0522 C   0  0  0  0  0  0  0  0  0  0  0  0
   -0.6425    2.5314   -0.6871 C   0  0  0  0  0  0  0  0  0  0  0  0
   -1.8589    2.1502   -0.1212 C   0  0  0  0  0  0  0  0  0  0  0  0
   -2.7690    3.1086    0.2388 O   0  0  0  0  0  0  0  0  0  0  0  0
   -3.0677   -1.3075    1.5510 H   0  0  0  0  0  0  0  0  0  0  0  0
   -4.7521   -0.8414    1.2891 H   0  0  0  0  0  0  0  0  0  0  0  0
   -3.7947   -1.3614   -0.1024 H   0  0  0  0  0  0  0  0  0  0  0  0
   -1.4390   -1.2286   -0.1386 H   0  0  0  0  0  0  0  0  0  0  0  0
    0.7023   -1.3912   -2.1268 H   0  0  0  0  0  0  0  0  0  0  0  0
    4.6241   -0.4305    2.7764 H   0  0  0  0  0  0  0  0  0  0  0  0
    1.2286    1.8573   -1.4968 H   0  0  0  0  0  0  0  0  0  0  0  0
   -0.4019    3.5772   -0.8503 H   0  0  0  0  0  0  0  0  0  0  0  0
   -2.4143    3.9841    0.0216 H   0  0  0  0  0  0  0  0  0  0  0  0
  1  2  1  0
  2  3  1  0
  3  4  2  0
  4  5  1  0
  5  6  1  0
  6  7  2  0
  7  8  1  0
  8  9  1  0
  9 10  1  0
  9 11  2  0
 11 12  1  0
 12 13  2  0
  5 14  2  0
 14 15  1  0
 15 16  2  0
 16 17  1  0
 16  3  1  0
 12  7  1  0
  1 18  1  0
  1 19  1  0
  1 20  1  0
  4 21  1  0
  6 22  1  0
 10 23  1  0
 14 24  1  0
 15 25  1  0
 17 26  1  0
M  END
$$$$
