
     RDKit          3D

 45 47  0  0  0  0  0  0  0  0999 V2000
    4.2396    0.1469   -1.1986 C   0  0  0  0  0  0  0  0  0  0  0  0
    3.9722    0.1652    0.3025 C   0  0  0  0  0  0  0  0  0  0  0  0
    2.5658   -0.3520    0.6576 C   0  0  0  0  0  0  0  0  0  0  0  0
    2.3954   -0.5498    2.1779 C   0  0  0  0  0  0  0  0  0  0  0  0
    3.1872   -1.7284    2.7273 C   0  0  0  0  0  0  0  0  0  0  0  0
    1.4715    0.6113    0.1724 C   0  0  0  0  0  0  0  0  0  0  0  0
    1.7030    1.7876   -0.0813 O   0  0  0  0  0  0  0  0  0  0  0  0
    0.2344   -0.0070    0.0799 N   0  0  0  0  0  0  0  0  0  0  0  0
   -0.9550    0.6419   -0.2353 C   0  0  0  0  0  0  0  0  0  0  0  0
   -1.2705    1.9765   -0.3741 C   0  0  0  0  0  0  0  0  0  0  0  0
   -2.6674    2.0250   -0.4623 C   0  0  0  0  0  0  0  0  0  0  0  0
   -3.2390    0.8304   -0.4046 N   0  0  0  0  0  0  0  0  0  0  0  0
   -2.1809   -0.0380   -0.4163 N   0  0  0  0  0  0  0  0  0  0  0  0
   -2.4279   -1.4287   -0.6222 C   0  0  0  0  0  0  0  0  0  0  0  0
   -3.7070   -1.9416   -0.3417 C   0  0  0  0  0  0  0  0  0  0  0  0
   -3.9807   -3.2973   -0.5354 C   0  0  0  0  0  0  0  0  0  0  0  0
   -2.9870   -4.1330   -1.0277 C   0  0  0  0  0  0  0  0  0  0  0  0
   -3.2494   -5.4321   -1.2177 F   0  0  0  0  0  0  0  0  0  0  0  0
   -1.7273   -3.6366   -1.3429 C   0  0  0  0  0  0  0  0  0  0  0  0
   -1.4452   -2.2809   -1.1490 C   0  0  0  0  0  0  0  0  0  0  0  0
   -3.3386    3.3369   -0.5379 C   0  0  0  0  0  0  0  0  0  0  0  0
   -1.9433    4.4962   -0.4845 S   0  0  0  0  0  6  0  0  0  0  0  0
   -2.0245    5.2577    0.7489 O   0  0  0  0  0  0  0  0  0  0  0  0
   -1.8532    5.1655   -1.7698 O   0  0  0  0  0  0  0  0  0  0  0  0
   -0.5803    3.2868   -0.3479 C   0  0  0  0  0  0  0  0  0  0  0  0
    5.2612    0.4842   -1.4014 H   0  0  0  0  0  0  0  0  0  0  0  0
    4.1325   -0.8652   -1.6017 H   0  0  0  0  0  0  0  0  0  0  0  0
    3.5567    0.8067   -1.7414 H   0  0  0  0  0  0  0  0  0  0  0  0
    4.1156    1.1842    0.6815 H   0  0  0  0  0  0  0  0  0  0  0  0
    4.7358   -0.4587    0.7787 H   0  0  0  0  0  0  0  0  0  0  0  0
    2.4116   -1.3149    0.1519 H   0  0  0  0  0  0  0  0  0  0  0  0
    2.6879    0.3649    2.7086 H   0  0  0  0  0  0  0  0  0  0  0  0
    1.3388   -0.7160    2.4214 H   0  0  0  0  0  0  0  0  0  0  0  0
    4.2654   -1.5668    2.6462 H   0  0  0  0  0  0  0  0  0  0  0  0
    2.9334   -2.6522    2.1981 H   0  0  0  0  0  0  0  0  0  0  0  0
    2.9555   -1.8725    3.7877 H   0  0  0  0  0  0  0  0  0  0  0  0
    0.1839   -0.9886    0.3276 H   0  0  0  0  0  0  0  0  0  0  0  0
   -4.4973   -1.2977    0.0424 H   0  0  0  0  0  0  0  0  0  0  0  0
   -4.9626   -3.7018   -0.3101 H   0  0  0  0  0  0  0  0  0  0  0  0
   -0.9809   -4.3063   -1.7600 H   0  0  0  0  0  0  0  0  0  0  0  0
   -0.4795   -1.9135   -1.4837 H   0  0  0  0  0  0  0  0  0  0  0  0
   -3.8741    3.4777   -1.4788 H   0  0  0  0  0  0  0  0  0  0  0  0
   -3.9826    3.5265    0.3231 H   0  0  0  0  0  0  0  0  0  0  0  0
    0.0779    3.4323   -1.2069 H   0  0  0  0  0  0  0  0  0  0  0  0
   -0.0712    3.4752    0.5997 H   0  0  0  0  0  0  0  0  0  0  0  0
  1  2  1  0
  2  3  1  0
  3  4  1  0
  4  5  1  0
  3  6  1  0
  6  7  2  0
  6  8  1  0
  8  9  1  0
  9 10  2  0
 10 11  1  0
 11 12  2  0
 12 13  1  0
 13 14  1  0
 14 15  2  0
 15 16  1  0
 16 17  2  0
 17 18  1  0
 17 19  1  0
 19 20  2  0
 11 21  1  0
 21 22  1  0
 22 23  2  0
 22 24  2  0
 22 25  1  0
 13  9  1  0
 20 14  1  0
 25 10  1  0
  1 26  1  0
  1 27  1  0
  1 28  1  0
  2 29  1  0
  2 30  1  0
  3 31  1  0
  4 32  1  0
  4 33  1  0
  5 34  1  0
  5 35  1  0
  5 36  1  0
  8 37  1  0
 15 38  1  0
 16 39  1  0
 19 40  1  0
 20 41  1  0
 21 42  1  0
 21 43  1  0
 25 44  1  0
 25 45  1  0
M  END
$$$$
