
     RDKit          3D

 36 38  0  0  0  0  0  0  0  0999 V2000
   -3.5794    2.6296   -0.3264 C   0  0  0  0  0  0  0  0  0  0  0  0
   -2.7740    1.3766    0.0253 C   0  0  2  0  0  0  0  0  0  0  0  0
   -2.4498    0.6025   -1.2590 C   0  0  0  0  0  0  0  0  0  0  0  0
   -1.5478   -0.5931   -1.0070 C   0  0  0  0  0  0  0  0  0  0  0  0
   -2.0822   -1.7746   -1.1278 N   0  0  0  0  0  0  0  0  0  0  0  0
   -1.3203   -2.9213   -0.9251 C   0  0  0  0  0  0  0  0  0  0  0  0
   -1.7691   -4.0543   -1.0371 O   0  0  0  0  0  0  0  0  0  0  0  0
    0.0662   -2.6893   -0.5871 C   0  0  0  0  0  0  0  0  0  0  0  0
    1.1706   -3.5169   -0.3797 C   0  0  0  0  0  0  0  0  0  0  0  0
    2.2853   -2.8206   -0.1243 N   0  0  0  0  0  0  0  0  0  0  0  0
    1.8984   -1.5133   -0.1247 N   0  0  0  0  0  0  0  0  0  0  0  0
    2.7836   -0.4760    0.2715 C   0  0  0  0  0  0  0  0  0  0  0  0
    2.2640    0.6062    1.0096 C   0  0  0  0  0  0  0  0  0  0  0  0
    3.1007    1.6322    1.4543 C   0  0  0  0  0  0  0  0  0  0  0  0
    4.4614    1.5910    1.1714 C   0  0  0  0  0  0  0  0  0  0  0  0
    4.9866    0.5232    0.4438 C   0  0  0  0  0  0  0  0  0  0  0  0
    4.1592   -0.5148   -0.0088 C   0  0  0  0  0  0  0  0  0  0  0  0
    4.9256   -1.7045   -1.0040 Cl  0  0  0  0  0  0  0  0  0  0  0  0
    0.5562   -1.4212   -0.4431 C   0  0  0  0  0  0  0  0  0  0  0  0
   -0.2283   -0.3455   -0.6621 N   0  0  0  0  0  0  0  0  0  0  0  0
   -3.5358    0.5252    1.0349 C   0  0  0  0  0  0  0  0  0  0  0  0
   -3.8434    1.2601    2.1294 F   0  0  0  0  0  0  0  0  0  0  0  0
   -2.7914   -0.5156    1.4621 F   0  0  0  0  0  0  0  0  0  0  0  0
   -4.6870    0.0488    0.5231 F   0  0  0  0  0  0  0  0  0  0  0  0
   -4.5375    2.3707   -0.7900 H   0  0  0  0  0  0  0  0  0  0  0  0
   -3.0250    3.2648   -1.0255 H   0  0  0  0  0  0  0  0  0  0  0  0
   -3.7865    3.2254    0.5687 H   0  0  0  0  0  0  0  0  0  0  0  0
   -1.8370    1.6981    0.4970 H   0  0  0  0  0  0  0  0  0  0  0  0
   -1.9332    1.2581   -1.9712 H   0  0  0  0  0  0  0  0  0  0  0  0
   -3.3718    0.2618   -1.7460 H   0  0  0  0  0  0  0  0  0  0  0  0
    1.2200   -4.5985   -0.4170 H   0  0  0  0  0  0  0  0  0  0  0  0
    1.2209    0.6382    1.3156 H   0  0  0  0  0  0  0  0  0  0  0  0
    2.6950    2.4525    2.0428 H   0  0  0  0  0  0  0  0  0  0  0  0
    5.1177    2.3849    1.5206 H   0  0  0  0  0  0  0  0  0  0  0  0
    6.0520    0.5087    0.2210 H   0  0  0  0  0  0  0  0  0  0  0  0
    0.1362    0.6007   -0.7248 H   0  0  0  0  0  0  0  0  0  0  0  0
  1  2  1  0
  2  3  1  0
  3  4  1  0
  4  5  2  0
  5  6  1  0
  6  7  2  0
  6  8  1  0
  8  9  1  0
  9 10  2  0
 10 11  1  0
 11 12  1  0
 12 13  2  0
 13 14  1  0
 14 15  2  0
 15 16  1  0
 16 17  2  0
 17 18  1  0
 11 19  1  0
 19 20  1  0
  2 21  1  0
 21 22  1  0
 21 23  1  0
 21 24  1  0
 20  4  1  0
 19  8  2  0
 17 12  1  0
  1 25  1  0
  1 26  1  0
  1 27  1  0
  2 28  1  1
  3 29  1  0
  3 30  1  0
  9 31  1  0
 13 32  1  0
 14 33  1  0
 15 34  1  0
 16 35  1  0
 20 36  1  0
M  END
$$$$
