
     RDKit          3D

 42 43  0  0  0  0  0  0  0  0999 V2000
    0.9531   -2.3279    0.4522 O   0  0  0  0  0  0  0  0  0  0  0  0
    0.5311   -1.3407    1.0287 C   0  0  0  0  0  0  0  0  0  0  0  0
   -0.7064   -1.3459    1.5675 O   0  0  0  0  0  0  0  0  0  0  0  0
    1.2395   -0.0219    1.2309 C   0  0  0  0  0  0  0  0  0  0  0  0
    2.6959   -0.2543    1.6861 C   0  0  0  0  0  0  0  0  0  0  0  0
    3.7535   -0.3244    0.6072 C   0  0  0  0  0  0  0  0  0  0  0  0
    3.9627   -1.4983   -0.1265 C   0  0  0  0  0  0  0  0  0  0  0  0
    4.9329   -1.5463   -1.1293 C   0  0  0  0  0  0  0  0  0  0  0  0
    5.7117   -0.4245   -1.4047 C   0  0  0  0  0  0  0  0  0  0  0  0
    5.5237    0.7455   -0.6738 C   0  0  0  0  0  0  0  0  0  0  0  0
    4.5511    0.7958    0.3264 C   0  0  0  0  0  0  0  0  0  0  0  0
    1.0930    0.8513   -0.0226 C   0  0  0  0  0  0  0  0  0  0  0  0
   -0.2110    1.5128   -0.1245 N   0  0  0  0  0  0  0  0  0  0  0  0
   -0.3520    2.5430    0.8293 O   0  0  0  0  0  0  0  0  0  0  0  0
   -1.3514    0.8343   -0.5238 C   0  0  0  0  0  0  0  0  0  0  0  0
   -1.2838   -0.2121   -1.1712 O   0  0  0  0  0  0  0  0  0  0  0  0
   -2.6750    1.5007   -0.1666 C   0  0  0  0  0  0  0  0  0  0  0  0
   -3.8715    0.5836   -0.2763 C   0  0  0  0  0  0  0  0  0  0  0  0
   -4.5923    0.4879   -1.4740 C   0  0  0  0  0  0  0  0  0  0  0  0
   -5.6897   -0.3692   -1.5702 C   0  0  0  0  0  0  0  0  0  0  0  0
   -6.0727   -1.1415   -0.4746 C   0  0  0  0  0  0  0  0  0  0  0  0
   -5.3570   -1.0606    0.7184 C   0  0  0  0  0  0  0  0  0  0  0  0
   -4.2588   -0.2051    0.8171 C   0  0  0  0  0  0  0  0  0  0  0  0
   -1.1044   -2.1729    1.2185 H   0  0  0  0  0  0  0  0  0  0  0  0
    0.7413    0.4657    2.0812 H   0  0  0  0  0  0  0  0  0  0  0  0
    2.9680    0.5652    2.3661 H   0  0  0  0  0  0  0  0  0  0  0  0
    2.7656   -1.1611    2.3022 H   0  0  0  0  0  0  0  0  0  0  0  0
    3.3757   -2.3917    0.0744 H   0  0  0  0  0  0  0  0  0  0  0  0
    5.0794   -2.4632   -1.6947 H   0  0  0  0  0  0  0  0  0  0  0  0
    6.4672   -0.4661   -2.1849 H   0  0  0  0  0  0  0  0  0  0  0  0
    6.1356    1.6191   -0.8820 H   0  0  0  0  0  0  0  0  0  0  0  0
    4.4222    1.7195    0.8867 H   0  0  0  0  0  0  0  0  0  0  0  0
    1.2401    0.2566   -0.9321 H   0  0  0  0  0  0  0  0  0  0  0  0
    1.8303    1.6614   -0.0189 H   0  0  0  0  0  0  0  0  0  0  0  0
   -0.1800    3.3360    0.2866 H   0  0  0  0  0  0  0  0  0  0  0  0
   -2.8079    2.3688   -0.8245 H   0  0  0  0  0  0  0  0  0  0  0  0
   -2.6401    1.8824    0.8605 H   0  0  0  0  0  0  0  0  0  0  0  0
   -4.2976    1.0714   -2.3426 H   0  0  0  0  0  0  0  0  0  0  0  0
   -6.2417   -0.4386   -2.5043 H   0  0  0  0  0  0  0  0  0  0  0  0
   -6.9252   -1.8104   -0.5534 H   0  0  0  0  0  0  0  0  0  0  0  0
   -5.6513   -1.6668    1.5708 H   0  0  0  0  0  0  0  0  0  0  0  0
   -3.7040   -0.1573    1.7516 H   0  0  0  0  0  0  0  0  0  0  0  0
  1  2  2  0
  2  3  1  0
  2  4  1  0
  4  5  1  0
  5  6  1  0
  6  7  2  0
  7  8  1  0
  8  9  2  0
  9 10  1  0
 10 11  2  0
  4 12  1  0
 12 13  1  0
 13 14  1  0
 13 15  1  0
 15 16  2  0
 15 17  1  0
 17 18  1  0
 18 19  2  0
 19 20  1  0
 20 21  2  0
 21 22  1  0
 22 23  2  0
 11  6  1  0
 23 18  1  0
  3 24  1  0
  4 25  1  0
  5 26  1  0
  5 27  1  0
  7 28  1  0
  8 29  1  0
  9 30  1  0
 10 31  1  0
 11 32  1  0
 12 33  1  0
 12 34  1  0
 14 35  1  0
 17 36  1  0
 17 37  1  0
 19 38  1  0
 20 39  1  0
 21 40  1  0
 22 41  1  0
 23 42  1  0
M  END
$$$$
