
     RDKit          3D

 53 55  0  0  0  0  0  0  0  0999 V2000
    4.5010    3.2724    0.8488 C   0  0  0  0  0  0  0  0  0  0  0  0
    3.8022    2.5307    1.9781 C   0  0  0  0  0  0  0  0  0  0  0  0
    2.8860    1.4791    1.5300 N   0  0  0  0  0  0  0  0  0  0  0  0
    3.3805    0.0909    1.5266 C   0  0  0  0  0  0  0  0  0  0  0  0
    4.2912   -0.2737    0.3447 C   0  0  0  0  0  0  0  0  0  0  0  0
    3.5762   -0.3743   -0.9792 C   0  0  0  0  0  0  0  0  0  0  0  0
    3.6247    0.6717   -1.9037 C   0  0  0  0  0  0  0  0  0  0  0  0
    2.9426    0.5338   -3.1032 C   0  0  0  0  0  0  0  0  0  0  0  0
    2.2214   -0.5571   -3.4364 N   0  0  0  0  0  0  0  0  0  0  0  0
    2.1922   -1.5612   -2.5349 C   0  0  0  0  0  0  0  0  0  0  0  0
    2.8422   -1.5176   -1.3102 C   0  0  0  0  0  0  0  0  0  0  0  0
    1.6372    1.8884    1.0522 C   0  0  0  0  0  0  0  0  0  0  0  0
    1.3251    3.0658    0.8861 O   0  0  0  0  0  0  0  0  0  0  0  0
    0.6007    0.8802    0.7540 C   0  0  0  0  0  0  0  0  0  0  0  0
    0.1046    0.7809   -0.5494 C   0  0  0  0  0  0  0  0  0  0  0  0
   -0.8843   -0.1569   -0.8472 C   0  0  0  0  0  0  0  0  0  0  0  0
   -1.4003   -0.9570    0.1769 C   0  0  0  0  0  0  0  0  0  0  0  0
   -2.6406   -2.1742   -0.1955 S   0  0  0  0  0  6  0  0  0  0  0  0
   -2.4488   -3.2675    0.7381 O   0  0  0  0  0  0  0  0  0  0  0  0
   -2.6139   -2.4110   -1.6248 O   0  0  0  0  0  0  0  0  0  0  0  0
   -4.1736   -1.3829    0.2095 C   0  0  0  0  0  0  0  0  0  0  0  0
   -5.3678   -2.3125   -0.0370 C   0  0  0  0  0  0  0  0  0  0  0  0
   -6.6133   -1.4619    0.1629 C   0  0  0  0  0  0  0  0  0  0  0  0
   -6.1762    0.1597   -0.4432 S   0  0  0  0  0  6  0  0  0  0  0  0
   -6.7579    0.3486   -1.7535 O   0  0  0  0  0  0  0  0  0  0  0  0
   -6.3526    1.1097    0.6349 O   0  0  0  0  0  0  0  0  0  0  0  0
   -4.4327   -0.1427   -0.6305 C   0  0  0  0  0  0  0  0  0  0  0  0
   -0.9281   -0.8420    1.4895 C   0  0  0  0  0  0  0  0  0  0  0  0
    0.0673    0.0916    1.7807 C   0  0  0  0  0  0  0  0  0  0  0  0
    5.0905    4.1007    1.2548 H   0  0  0  0  0  0  0  0  0  0  0  0
    3.7868    3.6857    0.1303 H   0  0  0  0  0  0  0  0  0  0  0  0
    5.1854    2.6200    0.3023 H   0  0  0  0  0  0  0  0  0  0  0  0
    3.2214    3.2545    2.5626 H   0  0  0  0  0  0  0  0  0  0  0  0
    4.5417    2.0971    2.6599 H   0  0  0  0  0  0  0  0  0  0  0  0
    2.5455   -0.6117    1.5582 H   0  0  0  0  0  0  0  0  0  0  0  0
    3.9316   -0.0550    2.4635 H   0  0  0  0  0  0  0  0  0  0  0  0
    5.1287    0.4265    0.2672 H   0  0  0  0  0  0  0  0  0  0  0  0
    4.7524   -1.2490    0.5516 H   0  0  0  0  0  0  0  0  0  0  0  0
    4.1759    1.5833   -1.7022 H   0  0  0  0  0  0  0  0  0  0  0  0
    2.9556    1.3254   -3.8470 H   0  0  0  0  0  0  0  0  0  0  0  0
    1.6095   -2.4298   -2.8286 H   0  0  0  0  0  0  0  0  0  0  0  0
    2.7707   -2.3623   -0.6335 H   0  0  0  0  0  0  0  0  0  0  0  0
    0.5044    1.4178   -1.3358 H   0  0  0  0  0  0  0  0  0  0  0  0
   -1.2292   -0.2563   -1.8750 H   0  0  0  0  0  0  0  0  0  0  0  0
   -4.1338   -1.1231    1.2746 H   0  0  0  0  0  0  0  0  0  0  0  0
   -5.3645   -3.1770    0.6346 H   0  0  0  0  0  0  0  0  0  0  0  0
   -5.3453   -2.6989   -1.0633 H   0  0  0  0  0  0  0  0  0  0  0  0
   -7.4745   -1.8452   -0.3877 H   0  0  0  0  0  0  0  0  0  0  0  0
   -6.8586   -1.3679    1.2246 H   0  0  0  0  0  0  0  0  0  0  0  0
   -4.2351   -0.3042   -1.6943 H   0  0  0  0  0  0  0  0  0  0  0  0
   -3.8757    0.7304   -0.2830 H   0  0  0  0  0  0  0  0  0  0  0  0
   -1.3193   -1.4742    2.2842 H   0  0  0  0  0  0  0  0  0  0  0  0
    0.4309    0.2027    2.7997 H   0  0  0  0  0  0  0  0  0  0  0  0
  1  2  1  0
  2  3  1  0
  3  4  1  0
  4  5  1  0
  5  6  1  0
  6  7  2  0
  7  8  1  0
  8  9  2  0
  9 10  1  0
 10 11  2  0
  3 12  1  0
 12 13  2  0
 12 14  1  0
 14 15  2  0
 15 16  1  0
 16 17  2  0
 17 18  1  0
 18 19  2  0
 18 20  2  0
 18 21  1  0
 21 22  1  0
 22 23  1  0
 23 24  1  0
 24 25  2  0
 24 26  2  0
 24 27  1  0
 17 28  1  0
 28 29  2  0
 11  6  1  0
 29 14  1  0
 27 21  1  0
  1 30  1  0
  1 31  1  0
  1 32  1  0
  2 33  1  0
  2 34  1  0
  4 35  1  0
  4 36  1  0
  5 37  1  0
  5 38  1  0
  7 39  1  0
  8 40  1  0
 10 41  1  0
 11 42  1  0
 15 43  1  0
 16 44  1  0
 21 45  1  0
 22 46  1  0
 22 47  1  0
 23 48  1  0
 23 49  1  0
 27 50  1  0
 27 51  1  0
 28 52  1  0
 29 53  1  0
M  END
$$$$
