
     RDKit          3D

 27 29  0  0  0  0  0  0  0  0999 V2000
    2.4351   -1.9549    0.0499 N   0  0  0  0  0  0  0  0  0  0  0  0
    2.8624   -0.6357    0.0015 C   0  0  0  0  0  0  0  0  0  0  0  0
    4.1633   -0.4181   -0.2371 N   0  0  0  0  0  0  0  0  0  0  0  0
    4.5882    0.8646   -0.2160 C   0  0  0  0  0  0  0  0  0  0  0  0
    3.8383    1.9470    0.0274 N   0  0  0  0  0  0  0  0  0  0  0  0
    2.5585    1.6570    0.2657 C   0  0  0  0  0  0  0  0  0  0  0  0
    2.0295    0.4031    0.2553 C   0  0  0  0  0  0  0  0  0  0  0  0
    0.6078    0.5625    0.5871 C   0  0  0  0  0  0  0  0  0  0  0  0
   -0.2139    0.0001   -0.4828 N   0  0  0  0  0  0  0  0  0  0  0  0
   -1.6010   -0.1044   -0.3139 C   0  0  0  0  0  0  0  0  0  0  0  0
   -2.3910   -0.2795   -1.4647 C   0  0  0  0  0  0  0  0  0  0  0  0
   -3.7735   -0.4646   -1.3789 C   0  0  0  0  0  0  0  0  0  0  0  0
   -4.3776   -0.5052   -0.1325 C   0  0  0  0  0  0  0  0  0  0  0  0
   -5.7013   -0.6859   -0.0426 F   0  0  0  0  0  0  0  0  0  0  0  0
   -3.6221   -0.3760    1.0234 C   0  0  0  0  0  0  0  0  0  0  0  0
   -2.2374   -0.1919    0.9316 C   0  0  0  0  0  0  0  0  0  0  0  0
    0.4905    2.0467    0.7600 N   0  0  0  0  0  0  0  0  0  0  0  0
    1.6018    2.6359    0.5662 N   0  0  0  0  0  0  0  0  0  0  0  0
    3.1975   -2.5609   -0.2412 H   0  0  0  0  0  0  0  0  0  0  0  0
    1.5840   -2.1094   -0.4854 H   0  0  0  0  0  0  0  0  0  0  0  0
    5.6424    1.0301   -0.4134 H   0  0  0  0  0  0  0  0  0  0  0  0
    0.4261    0.0740    1.5511 H   0  0  0  0  0  0  0  0  0  0  0  0
   -0.0095    0.4716   -1.3621 H   0  0  0  0  0  0  0  0  0  0  0  0
   -1.9300   -0.2731   -2.4499 H   0  0  0  0  0  0  0  0  0  0  0  0
   -4.3744   -0.5854   -2.2741 H   0  0  0  0  0  0  0  0  0  0  0  0
   -4.1097   -0.4282    1.9916 H   0  0  0  0  0  0  0  0  0  0  0  0
   -1.6840   -0.1194    1.8622 H   0  0  0  0  0  0  0  0  0  0  0  0
  1  2  1  0
  2  3  2  0
  3  4  1  0
  4  5  2  0
  5  6  1  0
  6  7  2  0
  7  8  1  0
  8  9  1  0
  9 10  1  0
 10 11  2  0
 11 12  1  0
 12 13  2  0
 13 14  1  0
 13 15  1  0
 15 16  2  0
  8 17  1  0
 17 18  2  0
  7  2  1  0
 16 10  1  0
 18  6  1  0
  1 19  1  0
  1 20  1  0
  4 21  1  0
  8 22  1  0
  9 23  1  0
 11 24  1  0
 12 25  1  0
 15 26  1  0
 16 27  1  0
M  END
$$$$
