
     RDKit          3D

 48 50  0  0  0  0  0  0  0  0999 V2000
    4.1368    0.6185    0.3194 C   0  0  0  0  0  0  0  0  0  0  0  0
    2.9086    0.4112   -0.4333 N   0  0  0  0  0  0  0  0  0  0  0  0
    2.3292   -0.9293   -0.2358 C   0  0  0  0  0  0  0  0  0  0  0  0
    0.8738   -0.7048    0.1968 C   0  0  2  0  0  0  0  0  0  0  0  0
   -0.1880   -1.7048   -0.1717 C   0  0  0  0  0  0  0  0  0  0  0  0
   -0.0059   -2.7805   -1.0475 C   0  0  0  0  0  0  0  0  0  0  0  0
   -1.0680   -3.6425   -1.3416 C   0  0  0  0  0  0  0  0  0  0  0  0
   -2.3201   -3.4454   -0.7611 C   0  0  0  0  0  0  0  0  0  0  0  0
   -2.5151   -2.3836    0.1174 C   0  0  0  0  0  0  0  0  0  0  0  0
   -1.4587   -1.5157    0.3926 C   0  0  0  0  0  0  0  0  0  0  0  0
   -1.6664   -0.5332    1.3340 O   0  0  0  0  0  0  0  0  0  0  0  0
   -1.6939    0.7669    0.8783 C   0  0  0  0  0  0  0  0  0  0  0  0
   -2.8066    1.5004    1.3173 C   0  0  0  0  0  0  0  0  0  0  0  0
   -2.9664    2.8360    0.9551 C   0  0  0  0  0  0  0  0  0  0  0  0
   -2.0067    3.4422    0.1554 C   0  0  0  0  0  0  0  0  0  0  0  0
   -2.1987    5.0863   -0.3138 Cl  0  0  0  0  0  0  0  0  0  0  0  0
   -0.8849    2.7265   -0.2680 C   0  0  0  0  0  0  0  0  0  0  0  0
   -0.6905    1.3798    0.1068 C   0  0  0  0  0  0  0  0  0  0  0  0
    0.5528    0.6728   -0.3971 C   0  0  1  0  0  0  0  0  0  0  0  0
    1.8720    1.3982   -0.0987 C   0  0  0  0  0  0  0  0  0  0  0  0
   -2.7198    0.4589   -0.0399 O   0  0  0  0  0  0  0  0  0  0  0  0
   -1.6143    0.2555    0.4244 C   0  0  0  0  0  0  0  0  0  0  0  0
   -1.3391   -0.7933    1.2127 O   0  0  0  0  0  0  0  0  0  0  0  0
   -0.4764    1.1712    0.3160 C   0  0  0  0  0  0  0  0  0  0  0  0
    0.7676    0.8087   -0.0242 C   0  0  0  0  0  0  0  0  0  0  0  0
    1.1479   -0.5493   -0.4349 C   0  0  0  0  0  0  0  0  0  0  0  0
    0.4384   -1.4222   -0.8924 O   0  0  0  0  0  0  0  0  0  0  0  0
    2.4712   -0.7126   -0.2761 O   0  0  0  0  0  0  0  0  0  0  0  0
    4.5413    1.6177    0.1244 H   0  0  0  0  0  0  0  0  0  0  0  0
    4.9014   -0.1014    0.0079 H   0  0  0  0  0  0  0  0  0  0  0  0
    3.9840    0.5128    1.3994 H   0  0  0  0  0  0  0  0  0  0  0  0
    2.4093   -1.4515   -1.1933 H   0  0  0  0  0  0  0  0  0  0  0  0
    2.8601   -1.5327    0.5106 H   0  0  0  0  0  0  0  0  0  0  0  0
    0.8931   -0.6362    1.2967 H   0  0  0  0  0  0  0  0  0  0  0  0
    0.9514   -2.9735   -1.5220 H   0  0  0  0  0  0  0  0  0  0  0  0
   -0.9148   -4.4737   -2.0261 H   0  0  0  0  0  0  0  0  0  0  0  0
   -3.1389   -4.1231   -0.9875 H   0  0  0  0  0  0  0  0  0  0  0  0
   -3.4816   -2.2339    0.5890 H   0  0  0  0  0  0  0  0  0  0  0  0
   -3.5576    1.0190    1.9395 H   0  0  0  0  0  0  0  0  0  0  0  0
   -3.8377    3.3893    1.2935 H   0  0  0  0  0  0  0  0  0  0  0  0
   -0.1570    3.2264   -0.9040 H   0  0  0  0  0  0  0  0  0  0  0  0
    0.4343    0.5725   -1.4879 H   0  0  0  0  0  0  0  0  0  0  0  0
    1.9974    2.3012   -0.7048 H   0  0  0  0  0  0  0  0  0  0  0  0
    1.9121    1.6883    0.9603 H   0  0  0  0  0  0  0  0  0  0  0  0
   -2.1519   -1.3381    1.1770 H   0  0  0  0  0  0  0  0  0  0  0  0
   -0.7130    2.2084    0.5199 H   0  0  0  0  0  0  0  0  0  0  0  0
    1.5613    1.5465   -0.0478 H   0  0  0  0  0  0  0  0  0  0  0  0
    2.6281   -1.6337   -0.5724 H   0  0  0  0  0  0  0  0  0  0  0  0
  1  2  1  0
  2  3  1  0
  3  4  1  0
  4  5  1  0
  5  6  2  0
  6  7  1  0
  7  8  2  0
  8  9  1  0
  9 10  2  0
 10 11  1  0
 11 12  1  0
 12 13  2  0
 13 14  1  0
 14 15  2  0
 15 16  1  0
 15 17  1  0
 17 18  2  0
 18 19  1  0
 19 20  1  0
 21 22  2  0
 22 23  1  0
 22 24  1  0
 24 25  2  0
 25 26  1  0
 26 27  2  0
 26 28  1  0
 20  2  1  0
 19  4  1  0
 10  5  1  0
 18 12  1  0
  1 29  1  0
  1 30  1  0
  1 31  1  0
  3 32  1  0
  3 33  1  0
  4 34  1  1
  6 35  1  0
  7 36  1  0
  8 37  1  0
  9 38  1  0
 13 39  1  0
 14 40  1  0
 17 41  1  0
 19 42  1  6
 20 43  1  0
 20 44  1  0
 23 45  1  0
 24 46  1  0
 25 47  1  0
 28 48  1  0
M  END
$$$$
