
     RDKit          3D

118120  0  0  0  0  0  0  0  0999 V2000
   -4.6788   -0.7794    1.9688 C   0  0  0  0  0  0  0  0  0  0  0  0
   -3.5786   -0.6741    0.9205 C   0  0  0  0  0  0  0  0  0  0  0  0
   -3.9812   -0.8471   -0.5579 C   0  0  1  0  0  0  0  0  0  0  0  0
   -2.7795   -0.6461   -1.3708 O   0  0  0  0  0  0  0  0  0  0  0  0
   -2.4261    0.6527   -1.5610 C   0  0  0  0  0  0  0  0  0  0  0  0
   -3.1513    1.6101   -1.2810 O   0  0  0  0  0  0  0  0  0  0  0  0
   -1.0114    0.8065   -2.1030 C   0  0  2  0  0  0  0  0  0  0  0  0
   -0.7257   -0.1673   -3.2428 C   0  0  0  0  0  0  0  0  0  0  0  0
    0.0721    0.8906   -1.0058 C   0  0  1  0  0  0  0  0  0  0  0  0
   -0.2106    2.0804   -0.2543 O   0  0  0  0  0  0  0  0  0  0  0  0
    0.5689    3.2255   -0.6181 C   0  0  1  0  0  0  0  0  0  0  0  0
   -0.3009    4.4112   -1.0658 C   0  0  0  0  0  0  0  0  0  0  0  0
   -1.1391    5.0192    0.0923 C   0  0  1  0  0  0  0  0  0  0  0  0
   -1.7746    6.3310   -0.4430 C   0  0  0  0  0  0  0  0  0  0  0  0
   -2.1815    4.0740    0.3552 O   0  0  0  0  0  0  0  0  0  0  0  0
   -3.0377    4.2930    1.4717 C   0  0  0  0  0  0  0  0  0  0  0  0
   -0.1546    5.3050    1.2721 C   0  0  1  0  0  0  0  0  0  0  0  0
   -0.8059    5.8216    2.4291 O   0  0  0  0  0  0  0  0  0  0  0  0
    0.6777    4.0446    1.6076 C   0  0  2  0  0  0  0  0  0  0  0  0
    1.6861    4.3412    2.7219 C   0  0  0  0  0  0  0  0  0  0  0  0
    1.4222    3.6033    0.4558 O   0  0  0  0  0  0  0  0  0  0  0  0
    0.2171   -0.2892   -0.0118 C   0  0  2  0  0  0  0  0  0  0  0  0
    0.7283    0.1789    1.3717 C   0  0  0  0  0  0  0  0  0  0  0  0
    1.1038   -1.4328   -0.6095 C   0  0  1  0  0  0  0  0  0  0  0  0
    2.3997   -1.4588    0.0265 O   0  0  0  0  0  0  0  0  0  0  0  0
    3.5173   -1.2977   -0.8529 C   0  0  2  0  0  0  0  0  0  0  0  0
    4.6099   -2.1048   -0.3902 O   0  0  0  0  0  0  0  0  0  0  0  0
    5.4038   -1.5467    0.6463 C   0  0  2  0  0  0  0  0  0  0  0  0
    4.6661   -1.5519    1.9812 C   0  0  0  0  0  0  0  0  0  0  0  0
    5.9665   -0.1825    0.2828 C   0  0  0  0  0  0  0  0  0  0  0  0
    5.4375    0.3437   -1.0603 C   0  0  2  0  0  0  0  0  0  0  0  0
    5.8592    1.7061   -1.4628 N   0  0  0  0  0  0  0  0  0  0  0  0
    7.2911    1.7648   -1.7886 C   0  0  0  0  0  0  0  0  0  0  0  0
    5.5224    2.7624   -0.4981 C   0  0  0  0  0  0  0  0  0  0  0  0
    3.8970    0.1991   -1.0280 C   0  0  1  0  0  0  0  0  0  0  0  0
    3.3373    0.7338   -2.2425 O   0  0  0  0  0  0  0  0  0  0  0  0
    0.4090   -2.8558   -0.4649 C   0  0  2  0  0  0  0  0  0  0  0  0
    1.3068   -3.9542   -1.0850 C   0  0  0  0  0  0  0  0  0  0  0  0
   -0.8156   -2.8022   -1.1861 O   0  0  0  0  0  0  0  0  0  0  0  0
    0.0564   -3.2427    0.9872 C   0  0  0  0  0  0  0  0  0  0  0  0
   -0.9356   -4.4161    1.2682 C   0  0  1  0  0  0  0  0  0  0  0  0
   -1.5050   -4.2242    2.6890 C   0  0  0  0  0  0  0  0  0  0  0  0
   -2.0001   -4.7103    0.1979 C   0  0  0  0  0  0  0  0  0  0  0  0
   -1.6927   -5.4465   -0.7489 O   0  0  0  0  0  0  0  0  0  0  0  0
   -3.4071   -4.1097    0.3005 C   0  0  2  0  0  0  0  0  0  0  0  0
   -4.3526   -5.2177    0.8295 C   0  0  0  0  0  0  0  0  0  0  0  0
   -3.8481   -3.5075   -1.0597 C   0  0  1  0  0  0  0  0  0  0  0  0
   -4.6070   -4.4869   -1.8121 O   0  0  0  0  0  0  0  0  0  0  0  0
   -4.6865   -2.1783   -1.0412 C   0  0  1  0  0  0  0  0  0  0  0  0
   -6.0809   -2.3700   -0.4143 C   0  0  0  0  0  0  0  0  0  0  0  0
   -4.9975   -1.9623   -2.4726 O   0  0  0  0  0  0  0  0  0  0  0  0
   -5.5842   -0.2562    1.6596 H   0  0  0  0  0  0  0  0  0  0  0  0
   -4.9358   -1.8159    2.1856 H   0  0  0  0  0  0  0  0  0  0  0  0
   -4.3566   -0.3384    2.9309 H   0  0  0  0  0  0  0  0  0  0  0  0
   -2.7486   -1.3231    1.1890 H   0  0  0  0  0  0  0  0  0  0  0  0
   -3.1421    0.3293    1.0460 H   0  0  0  0  0  0  0  0  0  0  0  0
   -4.6999   -0.0385   -0.8025 H   0  0  0  0  0  0  0  0  0  0  0  0
   -1.0318    1.7831   -2.5981 H   0  0  0  0  0  0  0  0  0  0  0  0
   -1.4568   -0.0524   -4.0186 H   0  0  0  0  0  0  0  0  0  0  0  0
    0.2739    0.0259   -3.6969 H   0  0  0  0  0  0  0  0  0  0  0  0
   -0.7797   -1.2094   -2.9537 H   0  0  0  0  0  0  0  0  0  0  0  0
    1.0391    1.0100   -1.4999 H   0  0  0  0  0  0  0  0  0  0  0  0
    1.2297    3.0071   -1.4699 H   0  0  0  0  0  0  0  0  0  0  0  0
   -0.9840    4.0903   -1.8601 H   0  0  0  0  0  0  0  0  0  0  0  0
    0.3715    5.1992   -1.4696 H   0  0  0  0  0  0  0  0  0  0  0  0
   -2.3439    6.8709    0.3359 H   0  0  0  0  0  0  0  0  0  0  0  0
   -2.4912    6.1064   -1.2492 H   0  0  0  0  0  0  0  0  0  0  0  0
   -1.0108    7.0190   -0.8325 H   0  0  0  0  0  0  0  0  0  0  0  0
   -2.5375    4.0038    2.3980 H   0  0  0  0  0  0  0  0  0  0  0  0
   -3.3877    5.3263    1.5207 H   0  0  0  0  0  0  0  0  0  0  0  0
   -3.9125    3.6397    1.3533 H   0  0  0  0  0  0  0  0  0  0  0  0
    0.5495    6.0796    0.9427 H   0  0  0  0  0  0  0  0  0  0  0  0
   -1.2148    6.6709    2.1425 H   0  0  0  0  0  0  0  0  0  0  0  0
    0.0156    3.2448    1.9576 H   0  0  0  0  0  0  0  0  0  0  0  0
    1.2080    4.6758    3.6409 H   0  0  0  0  0  0  0  0  0  0  0  0
    2.4041    5.1032    2.4244 H   0  0  0  0  0  0  0  0  0  0  0  0
    2.2802    3.4495    2.9569 H   0  0  0  0  0  0  0  0  0  0  0  0
   -0.7872   -0.6858    0.1545 H   0  0  0  0  0  0  0  0  0  0  0  0
   -0.0393    0.7724    1.8817 H   0  0  0  0  0  0  0  0  0  0  0  0
    0.9782   -0.6483    2.0584 H   0  0  0  0  0  0  0  0  0  0  0  0
    1.6229    0.8013    1.2770 H   0  0  0  0  0  0  0  0  0  0  0  0
    1.2102   -1.2826   -1.6818 H   0  0  0  0  0  0  0  0  0  0  0  0
    3.2411   -1.7093   -1.8375 H   0  0  0  0  0  0  0  0  0  0  0  0
    6.2378   -2.2512    0.7545 H   0  0  0  0  0  0  0  0  0  0  0  0
    4.0731   -2.4619    2.1092 H   0  0  0  0  0  0  0  0  0  0  0  0
    5.3771   -1.4801    2.8178 H   0  0  0  0  0  0  0  0  0  0  0  0
    3.9837   -0.7024    2.0683 H   0  0  0  0  0  0  0  0  0  0  0  0
    5.7808    0.5162    1.0875 H   0  0  0  0  0  0  0  0  0  0  0  0
    7.0697   -0.2368    0.2497 H   0  0  0  0  0  0  0  0  0  0  0  0
    5.7984   -0.3179   -1.8674 H   0  0  0  0  0  0  0  0  0  0  0  0
    7.9174    1.5707   -0.9218 H   0  0  0  0  0  0  0  0  0  0  0  0
    7.5535    2.7555   -2.1939 H   0  0  0  0  0  0  0  0  0  0  0  0
    7.5450    1.0382   -2.5727 H   0  0  0  0  0  0  0  0  0  0  0  0
    6.0155    2.6242    0.4606 H   0  0  0  0  0  0  0  0  0  0  0  0
    4.4475    2.8118   -0.3462 H   0  0  0  0  0  0  0  0  0  0  0  0
    5.8196    3.7443   -0.8884 H   0  0  0  0  0  0  0  0  0  0  0  0
    3.4521    0.7814   -0.2135 H   0  0  0  0  0  0  0  0  0  0  0  0
    3.9676    1.4303   -2.5420 H   0  0  0  0  0  0  0  0  0  0  0  0
    0.8247   -4.9406   -1.0492 H   0  0  0  0  0  0  0  0  0  0  0  0
    1.5099   -3.7391   -2.1403 H   0  0  0  0  0  0  0  0  0  0  0  0
    2.2845   -4.0340   -0.5550 H   0  0  0  0  0  0  0  0  0  0  0  0
   -0.6725   -3.2011   -2.0889 H   0  0  0  0  0  0  0  0  0  0  0  0
   -0.2876   -2.3638    1.5613 H   0  0  0  0  0  0  0  0  0  0  0  0
    1.0021   -3.5203    1.4974 H   0  0  0  0  0  0  0  0  0  0  0  0
   -0.3412   -5.3515    1.3256 H   0  0  0  0  0  0  0  0  0  0  0  0
   -2.0437   -3.2652    2.7638 H   0  0  0  0  0  0  0  0  0  0  0  0
   -2.2002   -5.0388    2.9456 H   0  0  0  0  0  0  0  0  0  0  0  0
   -0.6982   -4.2076    3.4376 H   0  0  0  0  0  0  0  0  0  0  0  0
   -3.3661   -3.3117    1.0359 H   0  0  0  0  0  0  0  0  0  0  0  0
   -5.3848   -4.8721    0.9171 H   0  0  0  0  0  0  0  0  0  0  0  0
   -4.3432   -6.1043    0.1925 H   0  0  0  0  0  0  0  0  0  0  0  0
   -4.0417   -5.5543    1.8329 H   0  0  0  0  0  0  0  0  0  0  0  0
   -2.9778   -3.3238   -1.6887 H   0  0  0  0  0  0  0  0  0  0  0  0
   -4.9046   -3.9997   -2.6055 H   0  0  0  0  0  0  0  0  0  0  0  0
   -6.0257   -2.7313    0.6180 H   0  0  0  0  0  0  0  0  0  0  0  0
   -6.6322   -1.4317   -0.4370 H   0  0  0  0  0  0  0  0  0  0  0  0
   -6.6722   -3.0990   -0.9923 H   0  0  0  0  0  0  0  0  0  0  0  0
   -4.3378   -1.3172   -2.8008 H   0  0  0  0  0  0  0  0  0  0  0  0
  1  2  1  0
  2  3  1  0
  3  4  1  0
  4  5  1  0
  5  6  2  0
  5  7  1  0
  7  8  1  0
  7  9  1  0
  9 10  1  0
 10 11  1  0
 11 12  1  0
 12 13  1  0
 13 14  1  0
 13 15  1  1
 15 16  1  0
 13 17  1  0
 17 18  1  0
 17 19  1  0
 19 20  1  0
 19 21  1  0
  9 22  1  0
 22 23  1  0
 22 24  1  0
 24 25  1  0
 25 26  1  0
 26 27  1  0
 27 28  1  0
 28 29  1  0
 28 30  1  0
 30 31  1  0
 31 32  1  0
 32 33  1  0
 32 34  1  0
 31 35  1  0
 35 36  1  0
 24 37  1  0
 37 38  1  0
 37 39  1  6
 37 40  1  0
 40 41  1  0
 41 42  1  0
 41 43  1  0
 43 44  2  0
 43 45  1  0
 45 46  1  0
 45 47  1  0
 47 48  1  0
 47 49  1  0
 49 50  1  0
 49 51  1  6
 49  3  1  0
 21 11  1  0
 35 26  1  0
  1 52  1  0
  1 53  1  0
  1 54  1  0
  2 55  1  0
  2 56  1  0
  3 57  1  6
  7 58  1  6
  8 59  1  0
  8 60  1  0
  8 61  1  0
  9 62  1  6
 11 63  1  6
 12 64  1  0
 12 65  1  0
 14 66  1  0
 14 67  1  0
 14 68  1  0
 16 69  1  0
 16 70  1  0
 16 71  1  0
 17 72  1  6
 18 73  1  0
 19 74  1  1
 20 75  1  0
 20 76  1  0
 20 77  1  0
 22 78  1  1
 23 79  1  0
 23 80  1  0
 23 81  1  0
 24 82  1  6
 26 83  1  6
 28 84  1  1
 29 85  1  0
 29 86  1  0
 29 87  1  0
 30 88  1  0
 30 89  1  0
 31 90  1  6
 33 91  1  0
 33 92  1  0
 33 93  1  0
 34 94  1  0
 34 95  1  0
 34 96  1  0
 35 97  1  1
 36 98  1  0
 38 99  1  0
 38100  1  0
 38101  1  0
 39102  1  0
 40103  1  0
 40104  1  0
 41105  1  1
 42106  1  0
 42107  1  0
 42108  1  0
 45109  1  1
 46110  1  0
 46111  1  0
 46112  1  0
 47113  1  6
 48114  1  0
 50115  1  0
 50116  1  0
 50117  1  0
 51118  1  0
M  END
$$$$
