
     RDKit          3D

 50 53  0  0  0  0  0  0  0  0999 V2000
   -7.9790    0.6420   -1.7664 C   0  0  0  0  0  0  0  0  0  0  0  0
   -6.8661    0.2101   -0.8247 C   0  0  0  0  0  0  0  0  0  0  0  0
   -5.8869    1.3532   -0.5547 C   0  0  0  0  0  0  0  0  0  0  0  0
   -4.7627    0.9153    0.3368 C   0  0  0  0  0  0  0  0  0  0  0  0
   -3.5623    0.3363   -0.0239 C   0  0  0  0  0  0  0  0  0  0  0  0
   -2.7150    0.0443    1.1008 C   0  0  0  0  0  0  0  0  0  0  0  0
   -1.4308   -0.5354    1.2182 C   0  0  0  0  0  0  0  0  0  0  0  0
   -0.6766   -0.9211    0.0923 N   0  0  0  0  0  0  0  0  0  0  0  0
    0.3584   -1.9381    0.3898 C   0  0  0  0  0  0  0  0  0  0  0  0
    1.7398   -1.3186    0.6836 C   0  0  0  0  0  0  0  0  0  0  0  0
    2.2086   -0.4683   -0.4265 N   0  0  0  0  0  0  0  0  0  0  0  0
    3.4989   -0.0176   -0.5616 C   0  0  0  0  0  0  0  0  0  0  0  0
    3.9148    0.7214   -1.5402 N   0  0  0  0  0  0  0  0  0  0  0  0
    5.3341    1.0830   -1.3624 C   0  0  0  0  0  0  0  0  0  0  0  0
    6.0422    0.0305   -0.5081 C   0  0  0  0  0  0  0  0  0  0  0  0
    7.2225    0.6153    0.2619 C   0  0  0  0  0  0  0  0  0  0  0  0
    6.4792   -1.1800   -1.3378 C   0  0  0  0  0  0  0  0  0  0  0  0
    4.7154   -0.4594    0.6279 S   0  0  0  0  0  0  0  0  0  0  0  0
    1.1642   -0.0048   -1.3568 C   0  0  0  0  0  0  0  0  0  0  0  0
   -0.1588    0.2781   -0.6162 C   0  0  0  0  0  0  0  0  0  0  0  0
   -0.9291   -0.7192    2.4644 N   0  0  0  0  0  0  0  0  0  0  0  0
   -1.6509   -0.3225    3.5251 C   0  0  0  0  0  0  0  0  0  0  0  0
   -2.8547    0.2521    3.5251 N   0  0  0  0  0  0  0  0  0  0  0  0
   -3.3407    0.4039    2.2828 C   0  0  0  0  0  0  0  0  0  0  0  0
   -4.8747    1.1028    2.0342 S   0  0  0  0  0  0  0  0  0  0  0  0
   -8.5324    1.4936   -1.3576 H   0  0  0  0  0  0  0  0  0  0  0  0
   -8.6841   -0.1804   -1.9218 H   0  0  0  0  0  0  0  0  0  0  0  0
   -7.5752    0.9305   -2.7426 H   0  0  0  0  0  0  0  0  0  0  0  0
   -7.3077   -0.1374    0.1170 H   0  0  0  0  0  0  0  0  0  0  0  0
   -6.3382   -0.6461   -1.2621 H   0  0  0  0  0  0  0  0  0  0  0  0
   -6.4191    2.2026   -0.1097 H   0  0  0  0  0  0  0  0  0  0  0  0
   -5.4685    1.7132   -1.5037 H   0  0  0  0  0  0  0  0  0  0  0  0
   -3.2950    0.1146   -1.0498 H   0  0  0  0  0  0  0  0  0  0  0  0
    0.4453   -2.5771   -0.4992 H   0  0  0  0  0  0  0  0  0  0  0  0
    0.0567   -2.6144    1.1998 H   0  0  0  0  0  0  0  0  0  0  0  0
    2.4392   -2.1459    0.8473 H   0  0  0  0  0  0  0  0  0  0  0  0
    1.6986   -0.7186    1.5997 H   0  0  0  0  0  0  0  0  0  0  0  0
    5.3780    2.0796   -0.9038 H   0  0  0  0  0  0  0  0  0  0  0  0
    5.8093    1.1699   -2.3466 H   0  0  0  0  0  0  0  0  0  0  0  0
    6.9254    1.4687    0.8831 H   0  0  0  0  0  0  0  0  0  0  0  0
    7.9946    0.9717   -0.4297 H   0  0  0  0  0  0  0  0  0  0  0  0
    7.6868   -0.1315    0.9165 H   0  0  0  0  0  0  0  0  0  0  0  0
    6.9042   -1.9684   -0.7055 H   0  0  0  0  0  0  0  0  0  0  0  0
    5.6504   -1.6149   -1.9076 H   0  0  0  0  0  0  0  0  0  0  0  0
    7.2505   -0.8915   -2.0618 H   0  0  0  0  0  0  0  0  0  0  0  0
    1.4634    0.9167   -1.8690 H   0  0  0  0  0  0  0  0  0  0  0  0
    1.0123   -0.7700   -2.1276 H   0  0  0  0  0  0  0  0  0  0  0  0
    0.0182    1.1039    0.0879 H   0  0  0  0  0  0  0  0  0  0  0  0
   -0.9040    0.6148   -1.3456 H   0  0  0  0  0  0  0  0  0  0  0  0
   -1.1986   -0.4872    4.4981 H   0  0  0  0  0  0  0  0  0  0  0  0
  1  2  1  0
  2  3  1  0
  3  4  1  0
  4  5  2  0
  5  6  1  0
  6  7  2  0
  7  8  1  0
  8  9  1  0
  9 10  1  0
 10 11  1  0
 11 12  1  0
 12 13  2  0
 13 14  1  0
 14 15  1  0
 15 16  1  0
 15 17  1  0
 15 18  1  0
 11 19  1  0
 19 20  1  0
  7 21  1  0
 21 22  2  0
 22 23  1  0
 23 24  2  0
 24 25  1  0
 25  4  1  0
 24  6  1  0
 20  8  1  0
 18 12  1  0
  1 26  1  0
  1 27  1  0
  1 28  1  0
  2 29  1  0
  2 30  1  0
  3 31  1  0
  3 32  1  0
  5 33  1  0
  9 34  1  0
  9 35  1  0
 10 36  1  0
 10 37  1  0
 14 38  1  0
 14 39  1  0
 16 40  1  0
 16 41  1  0
 16 42  1  0
 17 43  1  0
 17 44  1  0
 17 45  1  0
 19 46  1  0
 19 47  1  0
 20 48  1  0
 20 49  1  0
 22 50  1  0
M  END
$$$$
