
     RDKit          3D

 82 86  0  0  0  0  0  0  0  0999 V2000
    5.1393    3.0230    1.2274 C   0  0  0  0  0  0  0  0  0  0  0  0
    5.1391    1.8901    0.1835 C   0  0  0  0  0  0  0  0  0  0  0  0
    5.8198    2.4229   -1.0924 C   0  0  0  0  0  0  0  0  0  0  0  0
    5.9335    0.6866    0.7438 C   0  0  0  0  0  0  0  0  0  0  0  0
    5.3729   -0.6426    0.2400 C   0  0  0  0  0  0  0  0  0  0  0  0
    3.9262   -0.9035    0.7702 C   0  0  2  0  0  0  0  0  0  0  0  0
    4.0620   -1.4929    2.1845 C   0  0  0  0  0  0  0  0  0  0  0  0
    5.0325   -2.0829    2.6357 O   0  0  0  0  0  0  0  0  0  0  0  0
    2.9649   -1.3668    2.9545 O   0  0  0  0  0  0  0  0  0  0  0  0
    3.2916   -1.9844   -0.1285 C   0  0  0  0  0  0  0  0  0  0  0  0
    1.7850   -2.1370    0.0783 C   0  0  0  0  0  0  0  0  0  0  0  0
    0.9727   -0.8323   -0.1648 C   0  0  2  0  0  0  0  0  0  0  0  0
    1.1316   -0.4564   -1.6680 C   0  0  0  0  0  0  0  0  0  0  0  0
    1.5886    0.3111    0.6629 C   0  0  0  0  0  0  0  0  0  0  0  0
    0.8193    1.2181    1.3006 C   0  0  0  0  0  0  0  0  0  0  0  0
   -0.6782    1.2701    1.2857 C   0  0  0  0  0  0  0  0  0  0  0  0
   -1.3172    0.3516    0.2231 C   0  0  2  0  0  0  0  0  0  0  0  0
   -2.9131    0.3915    0.1960 C   0  0  1  0  0  0  0  0  0  0  0  0
   -3.5351    0.0991    1.5836 C   0  0  0  0  0  0  0  0  0  0  0  0
   -3.3581    1.8481   -0.2019 C   0  0  0  0  0  0  0  0  0  0  0  0
   -4.4722    1.9458   -1.2546 C   0  0  1  0  0  0  0  0  0  0  0  0
   -3.9082    1.9102   -2.5683 O   0  0  0  0  0  0  0  0  0  0  0  0
   -5.5445    0.8555   -1.1100 C   0  0  2  0  0  0  0  0  0  0  0  0
   -6.2634    1.0998    0.1026 O   0  0  0  0  0  0  0  0  0  0  0  0
   -4.9661   -0.6002   -1.1865 C   0  0  0  0  0  0  0  0  0  0  0  0
   -5.7646   -1.5756   -0.2924 C   0  0  0  0  0  0  0  0  0  0  0  0
   -5.1777   -1.1035   -2.6449 C   0  0  0  0  0  0  0  0  0  0  0  0
   -3.4137   -0.6179   -0.8924 C   0  0  2  0  0  0  0  0  0  0  0  0
   -2.8302   -2.0262   -0.6616 C   0  0  0  0  0  0  0  0  0  0  0  0
   -1.3069   -2.0017   -0.7810 C   0  0  0  0  0  0  0  0  0  0  0  0
   -0.6026   -1.0553    0.2275 C   0  0  1  0  0  0  0  0  0  0  0  0
   -0.6966   -1.7259    1.6314 C   0  0  0  0  0  0  0  0  0  0  0  0
    3.1123    0.4303    0.8114 C   0  0  2  0  0  0  0  0  0  0  0  0
    3.6836    1.4832   -0.1669 C   0  0  0  0  0  0  0  0  0  0  0  0
    4.6463    2.7153    2.1558 H   0  0  0  0  0  0  0  0  0  0  0  0
    6.1621    3.3260    1.4784 H   0  0  0  0  0  0  0  0  0  0  0  0
    4.6140    3.9086    0.8520 H   0  0  0  0  0  0  0  0  0  0  0  0
    5.8860    1.6469   -1.8629 H   0  0  0  0  0  0  0  0  0  0  0  0
    5.2609    3.2657   -1.5150 H   0  0  0  0  0  0  0  0  0  0  0  0
    6.8379    2.7701   -0.8839 H   0  0  0  0  0  0  0  0  0  0  0  0
    5.9114    0.6843    1.8413 H   0  0  0  0  0  0  0  0  0  0  0  0
    6.9916    0.7651    0.4668 H   0  0  0  0  0  0  0  0  0  0  0  0
    6.0532   -1.4535    0.5265 H   0  0  0  0  0  0  0  0  0  0  0  0
    5.3833   -0.6290   -0.8576 H   0  0  0  0  0  0  0  0  0  0  0  0
    3.2074   -1.8151    3.7907 H   0  0  0  0  0  0  0  0  0  0  0  0
    3.4874   -1.7701   -1.1849 H   0  0  0  0  0  0  0  0  0  0  0  0
    3.7649   -2.9559    0.0660 H   0  0  0  0  0  0  0  0  0  0  0  0
    1.6370   -2.5148    1.0935 H   0  0  0  0  0  0  0  0  0  0  0  0
    1.4263   -2.9289   -0.5910 H   0  0  0  0  0  0  0  0  0  0  0  0
    2.1570   -0.1885   -1.9284 H   0  0  0  0  0  0  0  0  0  0  0  0
    0.5175    0.3985   -1.9615 H   0  0  0  0  0  0  0  0  0  0  0  0
    0.8805   -1.2960   -2.3243 H   0  0  0  0  0  0  0  0  0  0  0  0
    1.2928    1.9955    1.8986 H   0  0  0  0  0  0  0  0  0  0  0  0
   -0.9778    2.3092    1.1095 H   0  0  0  0  0  0  0  0  0  0  0  0
   -1.0132    1.0130    2.2949 H   0  0  0  0  0  0  0  0  0  0  0  0
   -1.0511    0.8003   -0.7429 H   0  0  0  0  0  0  0  0  0  0  0  0
   -3.5251   -0.9573    1.8488 H   0  0  0  0  0  0  0  0  0  0  0  0
   -4.5809    0.4071    1.6339 H   0  0  0  0  0  0  0  0  0  0  0  0
   -3.0439    0.6523    2.3869 H   0  0  0  0  0  0  0  0  0  0  0  0
   -3.6851    2.3836    0.6992 H   0  0  0  0  0  0  0  0  0  0  0  0
   -2.5007    2.4166   -0.5823 H   0  0  0  0  0  0  0  0  0  0  0  0
   -4.9491    2.9280   -1.1491 H   0  0  0  0  0  0  0  0  0  0  0  0
   -3.2881    2.6565   -2.6379 H   0  0  0  0  0  0  0  0  0  0  0  0
   -6.2705    0.9987   -1.9205 H   0  0  0  0  0  0  0  0  0  0  0  0
   -7.1195    0.6450    0.0274 H   0  0  0  0  0  0  0  0  0  0  0  0
   -5.6634   -1.3525    0.7711 H   0  0  0  0  0  0  0  0  0  0  0  0
   -6.8337   -1.5390   -0.5345 H   0  0  0  0  0  0  0  0  0  0  0  0
   -5.4487   -2.6136   -0.4398 H   0  0  0  0  0  0  0  0  0  0  0  0
   -4.8319   -2.1326   -2.7762 H   0  0  0  0  0  0  0  0  0  0  0  0
   -6.2401   -1.0888   -2.9145 H   0  0  0  0  0  0  0  0  0  0  0  0
   -4.6470   -0.4821   -3.3722 H   0  0  0  0  0  0  0  0  0  0  0  0
   -2.9419   -0.2778   -1.8276 H   0  0  0  0  0  0  0  0  0  0  0  0
   -3.1329   -2.4408    0.3040 H   0  0  0  0  0  0  0  0  0  0  0  0
   -3.2039   -2.7219   -1.4201 H   0  0  0  0  0  0  0  0  0  0  0  0
   -0.9265   -3.0247   -0.6758 H   0  0  0  0  0  0  0  0  0  0  0  0
   -1.0869   -1.7026   -1.8098 H   0  0  0  0  0  0  0  0  0  0  0  0
   -0.4005   -2.7802    1.5905 H   0  0  0  0  0  0  0  0  0  0  0  0
   -0.0599   -1.2378    2.3748 H   0  0  0  0  0  0  0  0  0  0  0  0
   -1.7046   -1.7310    2.0363 H   0  0  0  0  0  0  0  0  0  0  0  0
    3.2755    0.8581    1.8129 H   0  0  0  0  0  0  0  0  0  0  0  0
    3.0493    2.3791   -0.1904 H   0  0  0  0  0  0  0  0  0  0  0  0
    3.6583    1.0793   -1.1851 H   0  0  0  0  0  0  0  0  0  0  0  0
  1  2  1  0
  2  3  1  0
  2  4  1  0
  4  5  1  0
  5  6  1  0
  6  7  1  1
  7  8  2  0
  7  9  1  0
  6 10  1  0
 10 11  1  0
 11 12  1  0
 12 13  1  6
 12 14  1  0
 14 15  2  0
 15 16  1  0
 16 17  1  0
 17 18  1  0
 18 19  1  1
 18 20  1  0
 20 21  1  0
 21 22  1  0
 21 23  1  0
 23 24  1  0
 23 25  1  0
 25 26  1  0
 25 27  1  0
 25 28  1  0
 28 29  1  0
 29 30  1  0
 30 31  1  0
 31 32  1  1
 14 33  1  0
 33 34  1  0
 34  2  1  0
 33  6  1  0
 31 12  1  0
 31 17  1  0
 28 18  1  0
  1 35  1  0
  1 36  1  0
  1 37  1  0
  3 38  1  0
  3 39  1  0
  3 40  1  0
  4 41  1  0
  4 42  1  0
  5 43  1  0
  5 44  1  0
  9 45  1  0
 10 46  1  0
 10 47  1  0
 11 48  1  0
 11 49  1  0
 13 50  1  0
 13 51  1  0
 13 52  1  0
 15 53  1  0
 16 54  1  0
 16 55  1  0
 17 56  1  6
 19 57  1  0
 19 58  1  0
 19 59  1  0
 20 60  1  0
 20 61  1  0
 21 62  1  1
 22 63  1  0
 23 64  1  6
 24 65  1  0
 26 66  1  0
 26 67  1  0
 26 68  1  0
 27 69  1  0
 27 70  1  0
 27 71  1  0
 28 72  1  6
 29 73  1  0
 29 74  1  0
 30 75  1  0
 30 76  1  0
 32 77  1  0
 32 78  1  0
 32 79  1  0
 33 80  1  1
 34 81  1  0
 34 82  1  0
M  END
$$$$
