
     RDKit          3D

 63 66  0  0  0  0  0  0  0  0999 V2000
    3.8499   -0.9997   -1.9840 C   0  0  0  0  0  0  0  0  0  0  0  0
    3.6916    0.2089   -1.2339 O   0  0  0  0  0  0  0  0  0  0  0  0
    4.7302    0.3975   -0.3413 C   0  0  0  0  0  0  0  0  0  0  0  0
    5.9855    0.8172   -0.9339 C   0  0  0  0  0  0  0  0  0  0  0  0
    7.0545    1.0651   -0.1655 C   0  0  0  0  0  0  0  0  0  0  0  0
    8.3833    1.5024   -0.6978 C   0  0  0  0  0  0  0  0  0  0  0  0
    6.9351    0.9287    1.1940 N   0  0  0  0  0  0  0  0  0  0  0  0
    5.7774    0.5824    1.8451 C   0  0  0  0  0  0  0  0  0  0  0  0
    5.7445    0.4950    3.0684 O   0  0  0  0  0  0  0  0  0  0  0  0
    4.5692    0.3197    0.9948 C   0  0  0  0  0  0  0  0  0  0  0  0
    3.3399    0.0166    1.8028 C   0  0  0  0  0  0  0  0  0  0  0  0
    2.1662   -0.2430    1.0019 N   0  0  0  0  0  0  0  0  0  0  0  0
    0.9347   -0.3747    1.6044 C   0  0  0  0  0  0  0  0  0  0  0  0
    0.7792   -0.4073    2.8206 O   0  0  0  0  0  0  0  0  0  0  0  0
   -0.1804   -0.3999    0.6624 C   0  0  0  0  0  0  0  0  0  0  0  0
   -1.3335    0.3713    0.7760 C   0  0  0  0  0  0  0  0  0  0  0  0
   -1.6584    1.3430    1.8618 C   0  0  0  0  0  0  0  0  0  0  0  0
   -2.1524    0.0712   -0.2996 N   0  0  0  0  0  0  0  0  0  0  0  0
   -3.4878    0.6247   -0.5905 C   0  0  2  0  0  0  0  0  0  0  0  0
   -3.3769    2.0673   -1.0999 C   0  0  0  0  0  0  0  0  0  0  0  0
   -4.5293    0.4224    0.5459 C   0  0  0  0  0  0  0  0  0  0  0  0
   -4.6016   -1.0545    0.9940 C   0  0  0  0  0  0  0  0  0  0  0  0
   -5.9617   -1.4350    1.5712 C   0  0  0  0  0  0  0  0  0  0  0  0
   -6.5524   -0.3170    2.2199 O   0  0  0  0  0  0  0  0  0  0  0  0
   -6.9256    0.7129    1.3054 C   0  0  0  0  0  0  0  0  0  0  0  0
   -5.9358    0.8944    0.1522 C   0  0  0  0  0  0  0  0  0  0  0  0
   -1.5261   -0.8689   -1.1147 C   0  0  0  0  0  0  0  0  0  0  0  0
   -1.9281   -1.4731   -2.3221 C   0  0  0  0  0  0  0  0  0  0  0  0
   -1.0984   -2.4381   -2.9013 C   0  0  0  0  0  0  0  0  0  0  0  0
    0.0963   -2.8044   -2.2974 C   0  0  0  0  0  0  0  0  0  0  0  0
    0.4969   -2.1961   -1.1055 C   0  0  0  0  0  0  0  0  0  0  0  0
   -0.3106   -1.1998   -0.5121 C   0  0  0  0  0  0  0  0  0  0  0  0
    4.7413   -0.9698   -2.6158 H   0  0  0  0  0  0  0  0  0  0  0  0
    2.9786   -1.1017   -2.6386 H   0  0  0  0  0  0  0  0  0  0  0  0
    3.8845   -1.8684   -1.3190 H   0  0  0  0  0  0  0  0  0  0  0  0
    6.0302    0.9451   -2.0100 H   0  0  0  0  0  0  0  0  0  0  0  0
    9.1606    0.7800   -0.4272 H   0  0  0  0  0  0  0  0  0  0  0  0
    8.6578    2.4787   -0.2847 H   0  0  0  0  0  0  0  0  0  0  0  0
    8.3750    1.5907   -1.7889 H   0  0  0  0  0  0  0  0  0  0  0  0
    7.7279    1.1119    1.7973 H   0  0  0  0  0  0  0  0  0  0  0  0
    3.1107    0.8657    2.4599 H   0  0  0  0  0  0  0  0  0  0  0  0
    3.5014   -0.8655    2.4352 H   0  0  0  0  0  0  0  0  0  0  0  0
    2.1761    0.0330    0.0267 H   0  0  0  0  0  0  0  0  0  0  0  0
   -2.2147    0.8432    2.6609 H   0  0  0  0  0  0  0  0  0  0  0  0
   -0.7454    1.7594    2.2998 H   0  0  0  0  0  0  0  0  0  0  0  0
   -2.2392    2.1939    1.5065 H   0  0  0  0  0  0  0  0  0  0  0  0
   -3.8705    0.0473   -1.4396 H   0  0  0  0  0  0  0  0  0  0  0  0
   -4.2868    2.3634   -1.6320 H   0  0  0  0  0  0  0  0  0  0  0  0
   -2.5442    2.1751   -1.8046 H   0  0  0  0  0  0  0  0  0  0  0  0
   -3.2236    2.7841   -0.2896 H   0  0  0  0  0  0  0  0  0  0  0  0
   -4.2356    1.0204    1.4153 H   0  0  0  0  0  0  0  0  0  0  0  0
   -3.8333   -1.2189    1.7600 H   0  0  0  0  0  0  0  0  0  0  0  0
   -4.3692   -1.7437    0.1733 H   0  0  0  0  0  0  0  0  0  0  0  0
   -6.6370   -1.8031    0.7885 H   0  0  0  0  0  0  0  0  0  0  0  0
   -5.8450   -2.2407    2.3041 H   0  0  0  0  0  0  0  0  0  0  0  0
   -6.9915    1.6393    1.8864 H   0  0  0  0  0  0  0  0  0  0  0  0
   -7.9295    0.5037    0.9193 H   0  0  0  0  0  0  0  0  0  0  0  0
   -5.9499    1.9441   -0.1577 H   0  0  0  0  0  0  0  0  0  0  0  0
   -6.2819    0.3129   -0.7117 H   0  0  0  0  0  0  0  0  0  0  0  0
   -2.8638   -1.2188   -2.8087 H   0  0  0  0  0  0  0  0  0  0  0  0
   -1.4031   -2.9172   -3.8291 H   0  0  0  0  0  0  0  0  0  0  0  0
    0.7201   -3.5718   -2.7480 H   0  0  0  0  0  0  0  0  0  0  0  0
    1.4245   -2.5016   -0.6299 H   0  0  0  0  0  0  0  0  0  0  0  0
  1  2  1  0
  2  3  1  0
  3  4  1  0
  4  5  2  0
  5  6  1  0
  5  7  1  0
  7  8  1  0
  8  9  2  0
  8 10  1  0
 10 11  1  0
 11 12  1  0
 12 13  1  0
 13 14  2  0
 13 15  1  0
 15 16  2  0
 16 17  1  0
 16 18  1  0
 18 19  1  0
 19 20  1  0
 19 21  1  0
 21 22  1  0
 22 23  1  0
 23 24  1  0
 24 25  1  0
 25 26  1  0
 18 27  1  0
 27 28  2  0
 28 29  1  0
 29 30  2  0
 30 31  1  0
 31 32  2  0
 10  3  2  0
 32 15  1  0
 26 21  1  0
 32 27  1  0
  1 33  1  0
  1 34  1  0
  1 35  1  0
  4 36  1  0
  6 37  1  0
  6 38  1  0
  6 39  1  0
  7 40  1  0
 11 41  1  0
 11 42  1  0
 12 43  1  0
 17 44  1  0
 17 45  1  0
 17 46  1  0
 19 47  1  6
 20 48  1  0
 20 49  1  0
 20 50  1  0
 21 51  1  0
 22 52  1  0
 22 53  1  0
 23 54  1  0
 23 55  1  0
 25 56  1  0
 25 57  1  0
 26 58  1  0
 26 59  1  0
 28 60  1  0
 29 61  1  0
 30 62  1  0
 31 63  1  0
M  END
$$$$
