
     RDKit          3D

 54 56  0  0  0  0  0  0  0  0999 V2000
    6.5434   -0.5003    3.9869 C   0  0  0  0  0  0  0  0  0  0  0  0
    5.9197   -0.4843    2.6130 C   0  0  0  0  0  0  0  0  0  0  0  0
    6.5490   -0.0808    1.6436 O   0  0  0  0  0  0  0  0  0  0  0  0
    4.6195   -0.9731    2.6303 N   0  0  0  0  0  0  0  0  0  0  0  0
    3.7396   -1.0995    1.5345 C   0  0  0  0  0  0  0  0  0  0  0  0
    4.0620   -0.7407    0.2240 C   0  0  0  0  0  0  0  0  0  0  0  0
    3.1326   -0.9070   -0.8142 C   0  0  0  0  0  0  0  0  0  0  0  0
    1.8638   -1.4288   -0.5606 C   0  0  0  0  0  0  0  0  0  0  0  0
    0.8751   -1.6229   -1.5510 N   0  0  0  0  0  0  0  0  0  0  0  0
    0.9959   -1.3737   -2.9075 C   0  0  0  0  0  0  0  0  0  0  0  0
    2.0060   -1.0330   -3.5150 O   0  0  0  0  0  0  0  0  0  0  0  0
   -0.3042   -1.5918   -3.6559 C   0  0  0  0  0  0  0  0  0  0  0  0
   -0.5737   -0.4813   -4.6604 C   0  0  0  0  0  0  0  0  0  0  0  0
   -0.8540    1.1267   -3.9350 S   0  0  0  0  0  6  0  0  0  0  0  0
   -1.5765    1.9317   -4.9031 O   0  0  0  0  0  0  0  0  0  0  0  0
    0.3750    1.6103   -3.3411 O   0  0  0  0  0  0  0  0  0  0  0  0
   -1.9865    0.8344   -2.5915 C   0  0  0  0  0  0  0  0  0  0  0  0
   -3.3357    0.6570   -2.8540 C   0  0  0  0  0  0  0  0  0  0  0  0
   -4.1976    0.4145   -1.7834 C   0  0  0  0  0  0  0  0  0  0  0  0
   -3.7374    0.3463   -0.4450 C   0  0  0  0  0  0  0  0  0  0  0  0
   -2.3663    0.5262   -0.1868 C   0  0  0  0  0  0  0  0  0  0  0  0
   -1.5087    0.7951   -1.2779 C   0  0  0  0  0  0  0  0  0  0  0  0
   -1.6833    0.4576    1.0434 N   0  0  0  0  0  0  0  0  0  0  0  0
   -2.0111    0.2482    2.3379 C   0  0  0  0  0  0  0  0  0  0  0  0
   -1.0677    0.2006    3.1447 O   0  0  0  0  0  0  0  0  0  0  0  0
   -3.4015    0.0113    2.8478 C   0  0  0  0  0  0  0  0  0  0  0  0
   -4.5279    0.8058    2.2242 C   0  0  0  0  0  0  0  0  0  0  0  0
   -4.2939    2.3094    2.1073 C   0  0  0  0  0  0  0  0  0  0  0  0
   -5.0600    0.0000    0.6921 S   0  0  0  0  0  0  0  0  0  0  0  0
    1.5308   -1.7702    0.7573 C   0  0  0  0  0  0  0  0  0  0  0  0
    2.4620   -1.6118    1.7929 C   0  0  0  0  0  0  0  0  0  0  0  0
    6.6193   -1.5360    4.3487 H   0  0  0  0  0  0  0  0  0  0  0  0
    5.9419    0.1026    4.6785 H   0  0  0  0  0  0  0  0  0  0  0  0
    7.5551   -0.0668    3.9366 H   0  0  0  0  0  0  0  0  0  0  0  0
    4.2579   -1.2666    3.5313 H   0  0  0  0  0  0  0  0  0  0  0  0
    5.0317   -0.3241   -0.0379 H   0  0  0  0  0  0  0  0  0  0  0  0
    3.4433   -0.5989   -1.8128 H   0  0  0  0  0  0  0  0  0  0  0  0
   -0.0043   -1.9923   -1.2223 H   0  0  0  0  0  0  0  0  0  0  0  0
   -0.2022   -2.5446   -4.1895 H   0  0  0  0  0  0  0  0  0  0  0  0
   -1.1468   -1.7101   -2.9696 H   0  0  0  0  0  0  0  0  0  0  0  0
   -1.4745   -0.7246   -5.2379 H   0  0  0  0  0  0  0  0  0  0  0  0
    0.2569   -0.3657   -5.3644 H   0  0  0  0  0  0  0  0  0  0  0  0
   -3.7292    0.7181   -3.8663 H   0  0  0  0  0  0  0  0  0  0  0  0
   -5.2598    0.2792   -2.0075 H   0  0  0  0  0  0  0  0  0  0  0  0
   -0.4424    0.9722   -1.1060 H   0  0  0  0  0  0  0  0  0  0  0  0
   -0.6762    0.6102    0.9953 H   0  0  0  0  0  0  0  0  0  0  0  0
   -3.3714    0.2975    3.9083 H   0  0  0  0  0  0  0  0  0  0  0  0
   -3.5994   -1.0654    2.8395 H   0  0  0  0  0  0  0  0  0  0  0  0
   -5.3924    0.6885    2.8914 H   0  0  0  0  0  0  0  0  0  0  0  0
   -3.4733    2.5709    1.4356 H   0  0  0  0  0  0  0  0  0  0  0  0
   -5.1970    2.8213    1.7492 H   0  0  0  0  0  0  0  0  0  0  0  0
   -4.0495    2.7283    3.0931 H   0  0  0  0  0  0  0  0  0  0  0  0
    0.5465   -2.1599    1.0034 H   0  0  0  0  0  0  0  0  0  0  0  0
    2.1776   -1.8978    2.8058 H   0  0  0  0  0  0  0  0  0  0  0  0
  1  2  1  0
  2  3  2  0
  2  4  1  0
  4  5  1  0
  5  6  2  0
  6  7  1  0
  7  8  2  0
  8  9  1  0
  9 10  1  0
 10 11  2  0
 10 12  1  0
 12 13  1  0
 13 14  1  0
 14 15  2  0
 14 16  2  0
 14 17  1  0
 17 18  2  0
 18 19  1  0
 19 20  2  0
 20 21  1  0
 21 22  2  0
 21 23  1  0
 23 24  1  0
 24 25  2  0
 24 26  1  0
 26 27  1  0
 27 28  1  0
 27 29  1  0
  8 30  1  0
 30 31  2  0
 31  5  1  0
 22 17  1  0
 29 20  1  0
  1 32  1  0
  1 33  1  0
  1 34  1  0
  4 35  1  0
  6 36  1  0
  7 37  1  0
  9 38  1  0
 12 39  1  0
 12 40  1  0
 13 41  1  0
 13 42  1  0
 18 43  1  0
 19 44  1  0
 22 45  1  0
 23 46  1  0
 26 47  1  0
 26 48  1  0
 27 49  1  0
 28 50  1  0
 28 51  1  0
 28 52  1  0
 30 53  1  0
 31 54  1  0
M  END
$$$$
