
     RDKit          3D

 45 48  0  0  0  0  0  0  0  0999 V2000
    0.0334    1.6427   -3.5695 C   0  0  0  0  0  0  0  0  0  0  0  0
   -0.0427    0.9206   -2.2577 C   0  0  0  0  0  0  0  0  0  0  0  0
    1.2135    0.3856   -1.7501 C   0  0  0  0  0  0  0  0  0  0  0  0
    1.3148   -0.2717   -0.5797 C   0  0  0  0  0  0  0  0  0  0  0  0
    2.4515   -0.8345   -0.0124 N   0  0  0  0  0  0  0  0  0  0  0  0
    3.7449   -0.2642   -0.0287 C   0  0  0  0  0  0  0  0  0  0  0  0
    4.7787   -0.9977    0.5265 C   0  0  0  0  0  0  0  0  0  0  0  0
    6.0397   -0.4449    0.4861 C   0  0  0  0  0  0  0  0  0  0  0  0
    7.1253   -1.1135    1.0499 N   0  0  0  0  0  0  0  0  0  0  0  0
    6.2868    0.7525   -0.0472 N   0  0  0  0  0  0  0  0  0  0  0  0
    5.2289    1.3844   -0.5693 C   0  0  0  0  0  0  0  0  0  0  0  0
    3.9691    0.9306   -0.5997 N   0  0  0  0  0  0  0  0  0  0  0  0
    0.0386   -0.4765    0.2208 C   0  0  0  0  0  0  0  0  0  0  0  0
    0.0971   -1.0845    1.2902 O   0  0  0  0  0  0  0  0  0  0  0  0
   -1.1092    0.0477   -0.3202 N   0  0  0  0  0  0  0  0  0  0  0  0
   -1.1464    0.7272   -1.5221 C   0  0  0  0  0  0  0  0  0  0  0  0
   -2.5497    1.1468   -1.7779 C   0  0  0  0  0  0  0  0  0  0  0  0
   -3.0009    1.7623   -2.7217 O   0  0  0  0  0  0  0  0  0  0  0  0
   -3.2650    0.6824   -0.6969 N   0  0  0  0  0  0  0  0  0  0  0  0
   -2.4487   -0.0199    0.2791 C   0  0  0  0  0  0  0  0  0  0  0  0
   -2.9401   -1.4755    0.4153 C   0  0  0  0  0  0  0  0  0  0  0  0
   -4.3033   -1.5744    1.1019 C   0  0  0  0  0  0  0  0  0  0  0  0
   -4.3114   -0.8523    2.4452 C   0  0  0  0  0  0  0  0  0  0  0  0
   -3.8730    0.6020    2.3084 C   0  0  0  0  0  0  0  0  0  0  0  0
   -2.5063    0.7192    1.6318 C   0  0  0  0  0  0  0  0  0  0  0  0
    0.7195    2.4938   -3.4958 H   0  0  0  0  0  0  0  0  0  0  0  0
    0.4031    0.9712   -4.3524 H   0  0  0  0  0  0  0  0  0  0  0  0
   -0.9284    2.0330   -3.9068 H   0  0  0  0  0  0  0  0  0  0  0  0
    2.0995    0.5303   -2.3623 H   0  0  0  0  0  0  0  0  0  0  0  0
    2.2274   -1.2095    0.9125 H   0  0  0  0  0  0  0  0  0  0  0  0
    4.6076   -1.9649    0.9791 H   0  0  0  0  0  0  0  0  0  0  0  0
    7.2261   -2.0527    0.6823 H   0  0  0  0  0  0  0  0  0  0  0  0
    7.9542   -0.5499    0.8748 H   0  0  0  0  0  0  0  0  0  0  0  0
    5.4091    2.3575   -1.0127 H   0  0  0  0  0  0  0  0  0  0  0  0
   -4.2598    0.8424   -0.6262 H   0  0  0  0  0  0  0  0  0  0  0  0
   -2.2229   -2.0649    0.9989 H   0  0  0  0  0  0  0  0  0  0  0  0
   -2.9985   -1.9543   -0.5708 H   0  0  0  0  0  0  0  0  0  0  0  0
   -4.5602   -2.6294    1.2519 H   0  0  0  0  0  0  0  0  0  0  0  0
   -5.0793   -1.1516    0.4527 H   0  0  0  0  0  0  0  0  0  0  0  0
   -3.6411   -1.3710    3.1418 H   0  0  0  0  0  0  0  0  0  0  0  0
   -5.3166   -0.8944    2.8796 H   0  0  0  0  0  0  0  0  0  0  0  0
   -3.8296    1.0661    3.3004 H   0  0  0  0  0  0  0  0  0  0  0  0
   -4.6225    1.1592    1.7337 H   0  0  0  0  0  0  0  0  0  0  0  0
   -1.7526    0.3142    2.3176 H   0  0  0  0  0  0  0  0  0  0  0  0
   -2.2603    1.7808    1.4995 H   0  0  0  0  0  0  0  0  0  0  0  0
  1  2  1  0
  2  3  1  0
  3  4  2  0
  4  5  1  0
  5  6  1  0
  6  7  2  0
  7  8  1  0
  8  9  1  0
  8 10  2  0
 10 11  1  0
 11 12  2  0
  4 13  1  0
 13 14  2  0
 13 15  1  0
 15 16  1  0
 16 17  1  0
 17 18  2  0
 17 19  1  0
 19 20  1  0
 20 21  1  0
 21 22  1  0
 22 23  1  0
 23 24  1  0
 24 25  1  0
 16  2  2  0
 25 20  1  0
 12  6  1  0
 20 15  1  0
  1 26  1  0
  1 27  1  0
  1 28  1  0
  3 29  1  0
  5 30  1  0
  7 31  1  0
  9 32  1  0
  9 33  1  0
 11 34  1  0
 19 35  1  0
 21 36  1  0
 21 37  1  0
 22 38  1  0
 22 39  1  0
 23 40  1  0
 23 41  1  0
 24 42  1  0
 24 43  1  0
 25 44  1  0
 25 45  1  0
M  END
$$$$
