
     RDKit          3D

 42 44  0  0  0  0  0  0  0  0999 V2000
    7.6241    0.5211    0.7666 C   0  0  0  0  0  0  0  0  0  0  0  0
    6.1410    0.3470    0.6315 C   0  0  0  0  0  0  0  0  0  0  0  0
    5.3031    0.4922    1.7404 C   0  0  0  0  0  0  0  0  0  0  0  0
    3.9176    0.3588    1.6030 C   0  0  0  0  0  0  0  0  0  0  0  0
    3.3445    0.0834    0.3556 C   0  0  0  0  0  0  0  0  0  0  0  0
    1.9395   -0.0240    0.2997 N   0  0  0  0  0  0  0  0  0  0  0  0
    1.1691   -0.4540   -0.7582 C   0  0  0  0  0  0  0  0  0  0  0  0
    1.6092   -0.9370   -1.7980 O   0  0  0  0  0  0  0  0  0  0  0  0
   -0.2002   -0.3124   -0.5558 N   0  0  0  0  0  0  0  0  0  0  0  0
   -0.8146    0.5159    0.4916 C   0  0  0  0  0  0  0  0  0  0  0  0
   -2.2766    0.8965    0.1960 C   0  0  0  0  0  0  0  0  0  0  0  0
   -3.0673   -0.3098   -0.0854 N   0  0  0  0  0  0  0  0  0  0  0  0
   -4.4469   -0.1171   -0.1655 C   0  0  0  0  0  0  0  0  0  0  0  0
   -5.3136   -1.2047   -0.2988 C   0  0  0  0  0  0  0  0  0  0  0  0
   -6.6921   -1.0012   -0.3623 C   0  0  0  0  0  0  0  0  0  0  0  0
   -7.1887    0.2890   -0.2824 C   0  0  0  0  0  0  0  0  0  0  0  0
   -6.2787    1.3170   -0.1340 C   0  0  0  0  0  0  0  0  0  0  0  0
   -4.9397    1.1382   -0.0693 N   0  0  0  0  0  0  0  0  0  0  0  0
   -2.4638   -1.2904   -1.0090 C   0  0  0  0  0  0  0  0  0  0  0  0
   -1.1130   -0.8204   -1.5820 C   0  0  0  0  0  0  0  0  0  0  0  0
    4.1802   -0.0381   -0.7545 C   0  0  0  0  0  0  0  0  0  0  0  0
    5.5670    0.0950   -0.6183 C   0  0  0  0  0  0  0  0  0  0  0  0
    7.9654    0.2079    1.7589 H   0  0  0  0  0  0  0  0  0  0  0  0
    8.1578   -0.0910    0.0319 H   0  0  0  0  0  0  0  0  0  0  0  0
    7.8931    1.5710    0.6150 H   0  0  0  0  0  0  0  0  0  0  0  0
    5.7223    0.7093    2.7202 H   0  0  0  0  0  0  0  0  0  0  0  0
    3.2968    0.4735    2.4873 H   0  0  0  0  0  0  0  0  0  0  0  0
    1.4602    0.0586    1.1807 H   0  0  0  0  0  0  0  0  0  0  0  0
   -0.2188    1.4250    0.6289 H   0  0  0  0  0  0  0  0  0  0  0  0
   -0.7657   -0.0658    1.4200 H   0  0  0  0  0  0  0  0  0  0  0  0
   -2.6682    1.4261    1.0735 H   0  0  0  0  0  0  0  0  0  0  0  0
   -2.3121    1.5810   -0.6617 H   0  0  0  0  0  0  0  0  0  0  0  0
   -4.9276   -2.2177   -0.3318 H   0  0  0  0  0  0  0  0  0  0  0  0
   -7.3655   -1.8468   -0.4646 H   0  0  0  0  0  0  0  0  0  0  0  0
   -8.2528    0.4883   -0.3258 H   0  0  0  0  0  0  0  0  0  0  0  0
   -6.6083    2.3490   -0.0582 H   0  0  0  0  0  0  0  0  0  0  0  0
   -3.1217   -1.5145   -1.8580 H   0  0  0  0  0  0  0  0  0  0  0  0
   -2.3097   -2.2226   -0.4521 H   0  0  0  0  0  0  0  0  0  0  0  0
   -0.6489   -1.6452   -2.1339 H   0  0  0  0  0  0  0  0  0  0  0  0
   -1.2726   -0.0027   -2.2960 H   0  0  0  0  0  0  0  0  0  0  0  0
    3.7830   -0.2275   -1.7470 H   0  0  0  0  0  0  0  0  0  0  0  0
    6.1933   -0.0005   -1.5028 H   0  0  0  0  0  0  0  0  0  0  0  0
  1  2  1  0
  2  3  2  0
  3  4  1  0
  4  5  2  0
  5  6  1  0
  6  7  1  0
  7  8  2  0
  7  9  1  0
  9 10  1  0
 10 11  1  0
 11 12  1  0
 12 13  1  0
 13 14  2  0
 14 15  1  0
 15 16  2  0
 16 17  1  0
 17 18  2  0
 12 19  1  0
 19 20  1  0
  5 21  1  0
 21 22  2  0
 22  2  1  0
 20  9  1  0
 18 13  1  0
  1 23  1  0
  1 24  1  0
  1 25  1  0
  3 26  1  0
  4 27  1  0
  6 28  1  0
 10 29  1  0
 10 30  1  0
 11 31  1  0
 11 32  1  0
 14 33  1  0
 15 34  1  0
 16 35  1  0
 17 36  1  0
 19 37  1  0
 19 38  1  0
 20 39  1  0
 20 40  1  0
 21 41  1  0
 22 42  1  0
M  END
$$$$
