
     RDKit          3D

 53 56  0  0  0  0  0  0  0  0999 V2000
   -8.5891    0.3726   -0.6306 C   0  0  0  0  0  0  0  0  0  0  0  0
   -8.6948   -0.6960    0.2999 O   0  0  0  0  0  0  0  0  0  0  0  0
   -7.5301   -1.2906    0.7029 C   0  0  0  0  0  0  0  0  0  0  0  0
   -7.7011   -2.3749    1.5647 C   0  0  0  0  0  0  0  0  0  0  0  0
   -6.5960   -3.0691    2.0518 C   0  0  0  0  0  0  0  0  0  0  0  0
   -5.3069   -2.6831    1.6782 C   0  0  0  0  0  0  0  0  0  0  0  0
   -5.1176   -1.6072    0.8092 C   0  0  0  0  0  0  0  0  0  0  0  0
   -3.8436   -1.1524    0.4000 N   0  0  0  0  0  0  0  0  0  0  0  0
   -2.6493   -1.8301    0.5081 C   0  0  0  0  0  0  0  0  0  0  0  0
   -2.5409   -3.0097    0.8339 O   0  0  0  0  0  0  0  0  0  0  0  0
   -1.5234   -1.0689    0.1893 N   0  0  0  0  0  0  0  0  0  0  0  0
   -1.5213    0.3891   -0.0226 C   0  0  0  0  0  0  0  0  0  0  0  0
   -0.2243    1.0590    0.4084 C   0  0  0  0  0  0  0  0  0  0  0  0
    0.8748    0.3486   -0.2017 N   0  0  0  0  0  0  0  0  0  0  0  0
    1.9757    0.9799   -0.6363 N   0  0  0  0  0  0  0  0  0  0  0  0
    2.7062   -0.0105   -1.1975 C   0  0  0  0  0  0  0  0  0  0  0  0
    4.0218    0.2380   -1.8096 C   0  0  0  0  0  0  0  0  0  0  0  0
    4.6844   -0.6435   -2.3465 O   0  0  0  0  0  0  0  0  0  0  0  0
    4.4242    1.5492   -1.7047 N   0  0  0  0  0  0  0  0  0  0  0  0
    5.7520    1.9843   -2.0431 C   0  0  0  0  0  0  0  0  0  0  0  0
    6.6419    2.0009   -0.8281 C   0  0  0  0  0  0  0  0  0  0  0  0
    7.2931    0.8302   -0.4149 C   0  0  0  0  0  0  0  0  0  0  0  0
    8.1053    0.8322    0.7210 C   0  0  0  0  0  0  0  0  0  0  0  0
    8.2671    2.0030    1.4597 C   0  0  0  0  0  0  0  0  0  0  0  0
    7.6137    3.1702    1.0665 C   0  0  0  0  0  0  0  0  0  0  0  0
    6.8018    3.1697   -0.0698 C   0  0  0  0  0  0  0  0  0  0  0  0
    2.0328   -1.2602   -1.0958 C   0  0  0  0  0  0  0  0  0  0  0  0
    0.8501   -0.9887   -0.4458 C   0  0  0  0  0  0  0  0  0  0  0  0
   -0.2883   -1.8357   -0.0158 C   0  0  0  0  0  0  0  0  0  0  0  0
   -6.2377   -0.9057    0.3335 C   0  0  0  0  0  0  0  0  0  0  0  0
   -9.6023    0.7091   -0.8705 H   0  0  0  0  0  0  0  0  0  0  0  0
   -8.0511    1.2208   -0.1954 H   0  0  0  0  0  0  0  0  0  0  0  0
   -8.1191    0.0410   -1.5617 H   0  0  0  0  0  0  0  0  0  0  0  0
   -8.7031   -2.6803    1.8580 H   0  0  0  0  0  0  0  0  0  0  0  0
   -6.7350   -3.9105    2.7256 H   0  0  0  0  0  0  0  0  0  0  0  0
   -4.4683   -3.2380    2.0882 H   0  0  0  0  0  0  0  0  0  0  0  0
   -3.8455   -0.3849   -0.2515 H   0  0  0  0  0  0  0  0  0  0  0  0
   -1.6971    0.5464   -1.0941 H   0  0  0  0  0  0  0  0  0  0  0  0
   -2.3514    0.8505    0.5218 H   0  0  0  0  0  0  0  0  0  0  0  0
   -0.1955    2.1056    0.0895 H   0  0  0  0  0  0  0  0  0  0  0  0
   -0.0797    1.0022    1.4924 H   0  0  0  0  0  0  0  0  0  0  0  0
    3.8288    2.1338   -1.1258 H   0  0  0  0  0  0  0  0  0  0  0  0
    5.6686    2.9908   -2.4677 H   0  0  0  0  0  0  0  0  0  0  0  0
    6.1806    1.3398   -2.8189 H   0  0  0  0  0  0  0  0  0  0  0  0
    7.1674   -0.0932   -0.9799 H   0  0  0  0  0  0  0  0  0  0  0  0
    8.6105   -0.0802    1.0282 H   0  0  0  0  0  0  0  0  0  0  0  0
    8.9008    2.0042    2.3434 H   0  0  0  0  0  0  0  0  0  0  0  0
    7.7395    4.0828    1.6433 H   0  0  0  0  0  0  0  0  0  0  0  0
    6.3004    4.0884   -0.3637 H   0  0  0  0  0  0  0  0  0  0  0  0
    2.3855   -2.2177   -1.4552 H   0  0  0  0  0  0  0  0  0  0  0  0
   -0.4881   -2.6100   -0.7659 H   0  0  0  0  0  0  0  0  0  0  0  0
   -0.0401   -2.3376    0.9274 H   0  0  0  0  0  0  0  0  0  0  0  0
   -6.0862   -0.0640   -0.3318 H   0  0  0  0  0  0  0  0  0  0  0  0
  1  2  1  0
  2  3  1  0
  3  4  2  0
  4  5  1  0
  5  6  2  0
  6  7  1  0
  7  8  1  0
  8  9  1  0
  9 10  2  0
  9 11  1  0
 11 12  1  0
 12 13  1  0
 13 14  1  0
 14 15  1  0
 15 16  2  0
 16 17  1  0
 17 18  2  0
 17 19  1  0
 19 20  1  0
 20 21  1  0
 21 22  2  0
 22 23  1  0
 23 24  2  0
 24 25  1  0
 25 26  2  0
 16 27  1  0
 27 28  2  0
 28 29  1  0
  7 30  2  0
 30  3  1  0
 29 11  1  0
 28 14  1  0
 26 21  1  0
  1 31  1  0
  1 32  1  0
  1 33  1  0
  4 34  1  0
  5 35  1  0
  6 36  1  0
  8 37  1  0
 12 38  1  0
 12 39  1  0
 13 40  1  0
 13 41  1  0
 19 42  1  0
 20 43  1  0
 20 44  1  0
 22 45  1  0
 23 46  1  0
 24 47  1  0
 25 48  1  0
 26 49  1  0
 27 50  1  0
 29 51  1  0
 29 52  1  0
 30 53  1  0
M  END
$$$$
