
     RDKit          3D

 62 67  0  0  0  0  0  0  0  0999 V2000
    3.9559    1.7011    1.3881 O   0  0  0  0  0  0  0  0  0  0  0  0
    3.5051    0.7251    0.8021 C   0  0  0  0  0  0  0  0  0  0  0  0
    4.2846   -0.2914    0.2570 O   0  0  0  0  0  0  0  0  0  0  0  0
    5.6528   -0.1544    0.4906 C   0  0  0  0  0  0  0  0  0  0  0  0
    6.2032   -0.7052    1.6468 C   0  0  0  0  0  0  0  0  0  0  0  0
    7.5782   -0.6139    1.8573 C   0  0  0  0  0  0  0  0  0  0  0  0
    8.3814    0.0170    0.8969 C   0  0  0  0  0  0  0  0  0  0  0  0
    9.8293    0.1102    1.1109 N   0  0  0  0  0  4  0  0  0  0  0  0
   10.4986    0.7053    0.2622 O   0  0  0  0  0  0  0  0  0  0  0  0
   10.2986   -0.4172    2.1236 O   0  0  0  0  0  1  0  0  0  0  0  0
    7.8195    0.5535   -0.2705 C   0  0  0  0  0  0  0  0  0  0  0  0
    6.4441    0.4614   -0.4755 C   0  0  0  0  0  0  0  0  0  0  0  0
    2.1481    0.5149    0.6086 N   0  0  0  0  0  0  0  0  0  0  0  0
    1.6100   -0.6731   -0.0432 C   0  0  0  0  0  0  0  0  0  0  0  0
    0.2309   -1.0331    0.5019 C   0  0  0  0  0  0  0  0  0  0  0  0
   -0.8146    0.1126    0.3765 C   0  0  0  0  0  0  0  0  0  0  0  0
   -1.8543   -0.1420   -0.7815 C   0  0  0  0  0  0  0  0  0  0  0  0
   -1.0420   -0.3689   -1.9491 O   0  0  0  0  0  0  0  0  0  0  0  0
   -2.7794   -1.3749   -0.6069 C   0  0  0  0  0  0  0  0  0  0  0  0
   -3.6678   -1.7453   -1.6607 C   0  0  0  0  0  0  0  0  0  0  0  0
   -4.5399   -2.8344   -1.5459 C   0  0  0  0  0  0  0  0  0  0  0  0
   -4.5281   -3.5441   -0.3678 C   0  0  0  0  0  0  0  0  0  0  0  0
   -3.6975   -3.1981    0.6671 C   0  0  0  0  0  0  0  0  0  0  0  0
   -2.8292   -2.1265    0.5842 C   0  0  0  0  0  0  0  0  0  0  0  0
   -3.8434   -4.0167    1.7443 O   0  0  0  0  0  0  0  0  0  0  0  0
   -4.8344   -4.9410    1.2517 C   0  0  0  0  0  0  0  0  0  0  0  0
   -5.3024   -4.6219   -0.0739 O   0  0  0  0  0  0  0  0  0  0  0  0
   -2.7314    1.1125   -0.9965 C   0  0  0  0  0  0  0  0  0  0  0  0
   -2.6013    1.9179   -2.1568 C   0  0  0  0  0  0  0  0  0  0  0  0
   -3.4158    3.0363   -2.3631 C   0  0  0  0  0  0  0  0  0  0  0  0
   -4.3513    3.3358   -1.3989 C   0  0  0  0  0  0  0  0  0  0  0  0
   -4.4857    2.5788   -0.2621 C   0  0  0  0  0  0  0  0  0  0  0  0
   -3.6955    1.4734   -0.0296 C   0  0  0  0  0  0  0  0  0  0  0  0
   -5.4684    3.0404    0.5554 O   0  0  0  0  0  0  0  0  0  0  0  0
   -5.9505    4.1611   -0.2086 C   0  0  0  0  0  0  0  0  0  0  0  0
   -5.2299    4.3698   -1.4421 O   0  0  0  0  0  0  0  0  0  0  0  0
   -0.0862    1.4782    0.2342 C   0  0  0  0  0  0  0  0  0  0  0  0
    1.2023    1.5290    1.0465 C   0  0  0  0  0  0  0  0  0  0  0  0
    5.5663   -1.1938    2.3778 H   0  0  0  0  0  0  0  0  0  0  0  0
    8.0048   -1.0330    2.7636 H   0  0  0  0  0  0  0  0  0  0  0  0
    8.4338    1.0403   -1.0219 H   0  0  0  0  0  0  0  0  0  0  0  0
    5.9950    0.8718   -1.3739 H   0  0  0  0  0  0  0  0  0  0  0  0
    2.2868   -1.5204    0.1050 H   0  0  0  0  0  0  0  0  0  0  0  0
    1.5719   -0.4706   -1.1186 H   0  0  0  0  0  0  0  0  0  0  0  0
   -0.1091   -1.9553    0.0195 H   0  0  0  0  0  0  0  0  0  0  0  0
    0.3374   -1.2722    1.5686 H   0  0  0  0  0  0  0  0  0  0  0  0
   -1.3636    0.1591    1.3274 H   0  0  0  0  0  0  0  0  0  0  0  0
   -1.5891   -0.8114   -2.6204 H   0  0  0  0  0  0  0  0  0  0  0  0
   -3.7043   -1.1616   -2.5833 H   0  0  0  0  0  0  0  0  0  0  0  0
   -5.2097   -3.1059   -2.3553 H   0  0  0  0  0  0  0  0  0  0  0  0
   -2.2137   -1.9022    1.4479 H   0  0  0  0  0  0  0  0  0  0  0  0
   -5.6855   -4.9425    1.9414 H   0  0  0  0  0  0  0  0  0  0  0  0
   -4.3959   -5.9437    1.2348 H   0  0  0  0  0  0  0  0  0  0  0  0
   -1.8534    1.6783   -2.9119 H   0  0  0  0  0  0  0  0  0  0  0  0
   -3.3195    3.6446   -3.2587 H   0  0  0  0  0  0  0  0  0  0  0  0
   -3.8392    0.8941    0.8740 H   0  0  0  0  0  0  0  0  0  0  0  0
   -7.0043    3.9941   -0.4474 H   0  0  0  0  0  0  0  0  0  0  0  0
   -5.8683    5.0635    0.4061 H   0  0  0  0  0  0  0  0  0  0  0  0
   -0.7460    2.2877    0.5673 H   0  0  0  0  0  0  0  0  0  0  0  0
    0.1570    1.6762   -0.8176 H   0  0  0  0  0  0  0  0  0  0  0  0
    0.9950    1.3491    2.1080 H   0  0  0  0  0  0  0  0  0  0  0  0
    1.6597    2.5215    0.9647 H   0  0  0  0  0  0  0  0  0  0  0  0
  1  2  2  0
  2  3  1  0
  3  4  1  0
  4  5  2  0
  5  6  1  0
  6  7  2  0
  7  8  1  0
  8  9  2  0
  8 10  1  0
  7 11  1  0
 11 12  2  0
  2 13  1  0
 13 14  1  0
 14 15  1  0
 15 16  1  0
 16 17  1  0
 17 18  1  0
 17 19  1  0
 19 20  2  0
 20 21  1  0
 21 22  2  0
 22 23  1  0
 23 24  2  0
 23 25  1  0
 25 26  1  0
 26 27  1  0
 17 28  1  0
 28 29  2  0
 29 30  1  0
 30 31  2  0
 31 32  1  0
 32 33  2  0
 32 34  1  0
 34 35  1  0
 35 36  1  0
 16 37  1  0
 37 38  1  0
 12  4  1  0
 38 13  1  0
 24 19  1  0
 33 28  1  0
 27 22  1  0
 36 31  1  0
  5 39  1  0
  6 40  1  0
 11 41  1  0
 12 42  1  0
 14 43  1  0
 14 44  1  0
 15 45  1  0
 15 46  1  0
 16 47  1  0
 18 48  1  0
 20 49  1  0
 21 50  1  0
 24 51  1  0
 26 52  1  0
 26 53  1  0
 29 54  1  0
 30 55  1  0
 33 56  1  0
 35 57  1  0
 35 58  1  0
 37 59  1  0
 37 60  1  0
 38 61  1  0
 38 62  1  0
M  CHG  2   8   1  10  -1
M  END
$$$$
