
     RDKit          3D

 30 32  0  0  0  0  0  0  0  0999 V2000
   -0.0188    1.3464   -1.3777 O   0  0  0  0  0  0  0  0  0  0  0  0
    0.4243    0.5538   -0.5509 C   0  0  0  0  0  0  0  0  0  0  0  0
   -0.4397   -0.2247    0.3786 C   0  0  0  0  0  0  0  0  0  0  0  0
   -1.9103   -0.1140    0.3733 C   0  0  0  0  0  0  0  0  0  0  0  0
   -2.6265   -0.1956   -0.8308 C   0  0  0  0  0  0  0  0  0  0  0  0
   -4.0212   -0.0954   -0.8443 C   0  0  0  0  0  0  0  0  0  0  0  0
   -4.7047    0.0886    0.3517 C   0  0  0  0  0  0  0  0  0  0  0  0
   -6.0631    0.1922    0.3861 O   0  0  0  0  0  0  0  0  0  0  0  0
   -4.0180    0.1769    1.5554 C   0  0  0  0  0  0  0  0  0  0  0  0
   -2.6244    0.0790    1.5672 C   0  0  0  0  0  0  0  0  0  0  0  0
    0.1825   -1.0690    1.2166 C   0  0  0  0  0  0  0  0  0  0  0  0
    1.5358   -1.2801    1.3209 O   0  0  0  0  0  0  0  0  0  0  0  0
    2.3601   -0.5674    0.4871 C   0  0  0  0  0  0  0  0  0  0  0  0
    3.7325   -0.7947    0.6122 C   0  0  0  0  0  0  0  0  0  0  0  0
    4.6142   -0.0994   -0.2108 C   0  0  0  0  0  0  0  0  0  0  0  0
    5.9619   -0.2881   -0.1253 O   0  0  0  0  0  0  0  0  0  0  0  0
    4.1470    0.8141   -1.1511 C   0  0  0  0  0  0  0  0  0  0  0  0
    2.7775    1.0361   -1.2706 C   0  0  0  0  0  0  0  0  0  0  0  0
    2.3798    1.9464   -2.2128 O   0  0  0  0  0  0  0  0  0  0  0  0
    1.8783    0.3449   -0.4505 C   0  0  0  0  0  0  0  0  0  0  0  0
   -2.1028   -0.3332   -1.7753 H   0  0  0  0  0  0  0  0  0  0  0  0
   -4.5472   -0.1595   -1.7915 H   0  0  0  0  0  0  0  0  0  0  0  0
   -6.4001    0.1512   -0.5241 H   0  0  0  0  0  0  0  0  0  0  0  0
   -4.5645    0.3287    2.4820 H   0  0  0  0  0  0  0  0  0  0  0  0
   -2.1055    0.1682    2.5189 H   0  0  0  0  0  0  0  0  0  0  0  0
   -0.3337   -1.7076    1.9243 H   0  0  0  0  0  0  0  0  0  0  0  0
    4.0923   -1.5083    1.3467 H   0  0  0  0  0  0  0  0  0  0  0  0
    6.1515   -0.9439    0.5659 H   0  0  0  0  0  0  0  0  0  0  0  0
    4.8450    1.3508   -1.7876 H   0  0  0  0  0  0  0  0  0  0  0  0
    1.3981    2.0083   -2.1836 H   0  0  0  0  0  0  0  0  0  0  0  0
  1  2  2  0
  2  3  1  0
  3  4  1  0
  4  5  2  0
  5  6  1  0
  6  7  2  0
  7  8  1  0
  7  9  1  0
  9 10  2  0
  3 11  2  0
 11 12  1  0
 12 13  1  0
 13 14  2  0
 14 15  1  0
 15 16  1  0
 15 17  2  0
 17 18  1  0
 18 19  1  0
 18 20  2  0
 20  2  1  0
 10  4  1  0
 20 13  1  0
  5 21  1  0
  6 22  1  0
  8 23  1  0
  9 24  1  0
 10 25  1  0
 11 26  1  0
 14 27  1  0
 16 28  1  0
 17 29  1  0
 19 30  1  0
M  END
$$$$
