
     RDKit          3D

 56 56  0  0  0  0  0  0  0  0999 V2000
   -5.6428   -3.4701    0.0456 C   0  0  0  0  0  0  0  0  0  0  0  0
   -4.2457   -2.8995    0.2275 C   0  0  0  0  0  0  0  0  0  0  0  0
   -4.2640   -1.3714    0.2553 C   0  0  0  0  0  0  0  0  0  0  0  0
   -2.8516   -0.8033    0.4202 C   0  0  0  0  0  0  0  0  0  0  0  0
   -2.8351    0.7288    0.4586 C   0  0  1  0  0  0  0  0  0  0  0  0
   -3.3422    1.2337    1.8040 C   0  0  0  0  0  0  0  0  0  0  0  0
   -2.6171    1.6206    2.7177 O   0  0  0  0  0  0  0  0  0  0  0  0
   -1.4855    1.2374    0.2710 N   0  0  0  0  0  0  0  0  0  0  0  0
   -0.9412    1.4182   -0.9826 C   0  0  0  0  0  0  0  0  0  0  0  0
   -1.5765    1.2129   -2.0158 O   0  0  0  0  0  0  0  0  0  0  0  0
    0.5622    1.7583   -0.9696 C   0  0  2  0  0  0  0  0  0  0  0  0
    0.9752    2.6693   -2.1355 C   0  0  0  0  0  0  0  0  0  0  0  0
    0.7103    4.1788   -1.9497 C   0  0  0  0  0  0  0  0  0  0  0  0
    1.5279    4.7747   -0.8023 C   0  0  0  0  0  0  0  0  0  0  0  0
   -0.7679    4.5181   -1.7785 C   0  0  0  0  0  0  0  0  0  0  0  0
    1.2317    0.4672   -1.0930 N   0  0  0  0  0  0  0  0  0  0  0  0
    1.4229   -0.3401   -0.0125 C   0  0  0  0  0  0  0  0  0  0  0  0
    1.2241   -0.0089    1.1469 O   0  0  0  0  0  0  0  0  0  0  0  0
    1.8164   -1.5589   -0.4369 O   0  0  0  0  0  0  0  0  0  0  0  0
    2.0720   -2.5241    0.5902 C   0  0  0  0  0  0  0  0  0  0  0  0
    3.5539   -2.6006    0.8483 C   0  0  0  0  0  0  0  0  0  0  0  0
    4.1325   -1.8584    1.8858 C   0  0  0  0  0  0  0  0  0  0  0  0
    5.5075   -1.9166    2.1148 C   0  0  0  0  0  0  0  0  0  0  0  0
    6.3169   -2.7086    1.3040 C   0  0  0  0  0  0  0  0  0  0  0  0
    5.7545   -3.4363    0.2575 C   0  0  0  0  0  0  0  0  0  0  0  0
    4.3804   -3.3815    0.0284 C   0  0  0  0  0  0  0  0  0  0  0  0
   -6.0823   -3.1336   -0.8964 H   0  0  0  0  0  0  0  0  0  0  0  0
   -5.6069   -4.5630    0.0330 H   0  0  0  0  0  0  0  0  0  0  0  0
   -6.3043   -3.1613    0.8627 H   0  0  0  0  0  0  0  0  0  0  0  0
   -3.6041   -3.2512   -0.5892 H   0  0  0  0  0  0  0  0  0  0  0  0
   -3.8217   -3.2832    1.1609 H   0  0  0  0  0  0  0  0  0  0  0  0
   -4.9074   -1.0287    1.0752 H   0  0  0  0  0  0  0  0  0  0  0  0
   -4.7009   -0.9929   -0.6754 H   0  0  0  0  0  0  0  0  0  0  0  0
   -2.4003   -1.2038    1.3386 H   0  0  0  0  0  0  0  0  0  0  0  0
   -2.2307   -1.1645   -0.4114 H   0  0  0  0  0  0  0  0  0  0  0  0
   -3.4729    1.1497   -0.3256 H   0  0  0  0  0  0  0  0  0  0  0  0
   -4.4371    1.2029    1.9347 H   0  0  0  0  0  0  0  0  0  0  0  0
   -0.8671    1.2216    1.0822 H   0  0  0  0  0  0  0  0  0  0  0  0
    0.8368    2.2013   -0.0072 H   0  0  0  0  0  0  0  0  0  0  0  0
    0.4876    2.3390   -3.0631 H   0  0  0  0  0  0  0  0  0  0  0  0
    2.0533    2.5465   -2.3129 H   0  0  0  0  0  0  0  0  0  0  0  0
    1.0483    4.6687   -2.8725 H   0  0  0  0  0  0  0  0  0  0  0  0
    2.5891    4.5272   -0.9085 H   0  0  0  0  0  0  0  0  0  0  0  0
    1.1870    4.4141    0.1736 H   0  0  0  0  0  0  0  0  0  0  0  0
    1.4418    5.8673   -0.7968 H   0  0  0  0  0  0  0  0  0  0  0  0
   -0.9172    5.6034   -1.8144 H   0  0  0  0  0  0  0  0  0  0  0  0
   -1.3665    4.0752   -2.5803 H   0  0  0  0  0  0  0  0  0  0  0  0
   -1.1579    4.1686   -0.8188 H   0  0  0  0  0  0  0  0  0  0  0  0
    1.2006   -0.0166   -1.9809 H   0  0  0  0  0  0  0  0  0  0  0  0
    1.5097   -2.3272    1.5123 H   0  0  0  0  0  0  0  0  0  0  0  0
    1.7138   -3.4942    0.2230 H   0  0  0  0  0  0  0  0  0  0  0  0
    3.5137   -1.2222    2.5170 H   0  0  0  0  0  0  0  0  0  0  0  0
    5.9463   -1.3391    2.9238 H   0  0  0  0  0  0  0  0  0  0  0  0
    7.3866   -2.7532    1.4807 H   0  0  0  0  0  0  0  0  0  0  0  0
    6.3879   -4.0440   -0.3838 H   0  0  0  0  0  0  0  0  0  0  0  0
    3.9557   -3.9466   -0.7972 H   0  0  0  0  0  0  0  0  0  0  0  0
  1  2  1  0
  2  3  1  0
  3  4  1  0
  4  5  1  0
  5  6  1  0
  6  7  2  0
  5  8  1  0
  8  9  1  0
  9 10  2  0
  9 11  1  0
 11 12  1  0
 12 13  1  0
 13 14  1  0
 13 15  1  0
 11 16  1  0
 16 17  1  0
 17 18  2  0
 17 19  1  0
 19 20  1  0
 20 21  1  0
 21 22  2  0
 22 23  1  0
 23 24  2  0
 24 25  1  0
 25 26  2  0
 26 21  1  0
  1 27  1  0
  1 28  1  0
  1 29  1  0
  2 30  1  0
  2 31  1  0
  3 32  1  0
  3 33  1  0
  4 34  1  0
  4 35  1  0
  5 36  1  6
  6 37  1  0
  8 38  1  0
 11 39  1  1
 12 40  1  0
 12 41  1  0
 13 42  1  0
 14 43  1  0
 14 44  1  0
 14 45  1  0
 15 46  1  0
 15 47  1  0
 15 48  1  0
 16 49  1  0
 20 50  1  0
 20 51  1  0
 22 52  1  0
 23 53  1  0
 24 54  1  0
 25 55  1  0
 26 56  1  0
M  END
$$$$
