
     RDKit          3D

 45 47  0  0  0  0  0  0  0  0999 V2000
    4.9218    0.2654    0.4747 C   0  0  0  0  0  0  0  0  0  0  0  0
    3.9339   -0.7403   -0.0850 C   0  0  0  0  0  0  0  0  0  0  0  0
    3.1139   -0.0849   -1.0639 O   0  0  0  0  0  0  0  0  0  0  0  0
    2.2514   -1.0127   -1.7304 C   0  0  0  0  0  0  0  0  0  0  0  0
    1.0113   -1.2098   -0.9167 C   0  0  0  0  0  0  0  0  0  0  0  0
    0.7330   -2.3163   -0.2626 N   0  0  0  0  0  0  0  0  0  0  0  0
   -0.5373   -2.1468    0.2367 C   0  0  0  0  0  0  0  0  0  0  0  0
   -1.2999   -3.0576    0.9966 C   0  0  0  0  0  0  0  0  0  0  0  0
   -0.8067   -4.2933    1.4025 N   0  0  0  0  0  0  0  0  0  0  0  0
   -2.5732   -2.7562    1.3182 N   0  0  0  0  0  0  0  0  0  0  0  0
   -3.1155   -1.5970    0.9245 C   0  0  0  0  0  0  0  0  0  0  0  0
   -4.4361   -1.3686    1.2797 C   0  0  0  0  0  0  0  0  0  0  0  0
   -5.1155   -0.2070    0.9079 C   0  0  0  0  0  0  0  0  0  0  0  0
   -4.4650    0.7574    0.1527 C   0  0  0  0  0  0  0  0  0  0  0  0
   -3.1351    0.5633   -0.2205 C   0  0  0  0  0  0  0  0  0  0  0  0
   -2.4368   -0.6041    0.1696 C   0  0  0  0  0  0  0  0  0  0  0  0
   -1.0761   -0.9135   -0.1433 C   0  0  0  0  0  0  0  0  0  0  0  0
   -0.0089   -0.2793   -0.7658 N   0  0  0  0  0  0  0  0  0  0  0  0
    0.0702    1.0932   -1.2393 C   0  0  0  0  0  0  0  0  0  0  0  0
    0.5418    2.1525   -0.2075 C   0  0  0  0  0  0  0  0  0  0  0  0
   -0.4091    2.3317    0.9752 C   0  0  0  0  0  0  0  0  0  0  0  0
    0.7066    3.4990   -0.9246 C   0  0  0  0  0  0  0  0  0  0  0  0
    1.8170    1.8327    0.3504 O   0  0  0  0  0  0  0  0  0  0  0  0
    5.5869   -0.2075    1.2028 H   0  0  0  0  0  0  0  0  0  0  0  0
    4.4013    1.0940    0.9644 H   0  0  0  0  0  0  0  0  0  0  0  0
    5.5270    0.6989   -0.3283 H   0  0  0  0  0  0  0  0  0  0  0  0
    3.3075   -1.1356    0.7214 H   0  0  0  0  0  0  0  0  0  0  0  0
    4.4848   -1.5639   -0.5527 H   0  0  0  0  0  0  0  0  0  0  0  0
    2.7614   -1.9658   -1.9130 H   0  0  0  0  0  0  0  0  0  0  0  0
    2.0003   -0.5983   -2.7117 H   0  0  0  0  0  0  0  0  0  0  0  0
   -1.5583   -4.9489    1.5679 H   0  0  0  0  0  0  0  0  0  0  0  0
   -0.0231   -4.5999    0.8376 H   0  0  0  0  0  0  0  0  0  0  0  0
   -4.9580   -2.1231    1.8652 H   0  0  0  0  0  0  0  0  0  0  0  0
   -6.1512   -0.0663    1.2061 H   0  0  0  0  0  0  0  0  0  0  0  0
   -4.9915    1.6598   -0.1481 H   0  0  0  0  0  0  0  0  0  0  0  0
   -2.6778    1.3355   -0.8211 H   0  0  0  0  0  0  0  0  0  0  0  0
   -0.8890    1.3600   -1.6838 H   0  0  0  0  0  0  0  0  0  0  0  0
    0.7678    1.0950   -2.0841 H   0  0  0  0  0  0  0  0  0  0  0  0
   -1.3989    2.6678    0.6563 H   0  0  0  0  0  0  0  0  0  0  0  0
   -0.5090    1.4071    1.5523 H   0  0  0  0  0  0  0  0  0  0  0  0
   -0.0152    3.0766    1.6776 H   0  0  0  0  0  0  0  0  0  0  0  0
    1.0751    4.2684   -0.2361 H   0  0  0  0  0  0  0  0  0  0  0  0
   -0.2383    3.8440   -1.3572 H   0  0  0  0  0  0  0  0  0  0  0  0
    1.4499    3.4245   -1.7269 H   0  0  0  0  0  0  0  0  0  0  0  0
    2.3625    1.3693   -0.3177 H   0  0  0  0  0  0  0  0  0  0  0  0
  1  2  1  0
  2  3  1  0
  3  4  1  0
  4  5  1  0
  5  6  2  0
  6  7  1  0
  7  8  2  0
  8  9  1  0
  8 10  1  0
 10 11  2  0
 11 12  1  0
 12 13  2  0
 13 14  1  0
 14 15  2  0
 15 16  1  0
 16 17  2  0
 17 18  1  0
 18 19  1  0
 19 20  1  0
 20 21  1  0
 20 22  1  0
 20 23  1  0
 18  5  1  0
 17  7  1  0
 16 11  1  0
  1 24  1  0
  1 25  1  0
  1 26  1  0
  2 27  1  0
  2 28  1  0
  4 29  1  0
  4 30  1  0
  9 31  1  0
  9 32  1  0
 12 33  1  0
 13 34  1  0
 14 35  1  0
 15 36  1  0
 19 37  1  0
 19 38  1  0
 21 39  1  0
 21 40  1  0
 21 41  1  0
 22 42  1  0
 22 43  1  0
 22 44  1  0
 23 45  1  0
M  END
$$$$
