
     RDKit          3D

 42 43  0  0  0  0  0  0  0  0999 V2000
   -5.9357    2.2891   -1.5843 C   0  0  0  0  0  0  0  0  0  0  0  0
   -5.2838    2.5486   -0.2402 C   0  0  0  0  0  0  0  0  0  0  0  0
   -4.6595    1.3320    0.1885 O   0  0  0  0  0  0  0  0  0  0  0  0
   -3.6909    1.5101    1.1166 C   0  0  0  0  0  0  0  0  0  0  0  0
   -3.3557    2.5457    1.6657 O   0  0  0  0  0  0  0  0  0  0  0  0
   -3.0575    0.2117    1.3855 C   0  0  0  0  0  0  0  0  0  0  0  0
   -3.8158   -0.7646    2.0480 C   0  0  0  0  0  0  0  0  0  0  0  0
   -3.2281   -1.9754    2.4068 C   0  0  0  0  0  0  0  0  0  0  0  0
   -1.8843   -2.2073    2.1147 C   0  0  0  0  0  0  0  0  0  0  0  0
   -1.1273   -1.2383    1.4490 C   0  0  0  0  0  0  0  0  0  0  0  0
   -1.7150   -0.0256    1.0722 C   0  0  0  0  0  0  0  0  0  0  0  0
   -0.8174    1.1657    0.1143 S   0  0  0  0  0  6  0  0  0  0  0  0
   -0.1123    2.0503    1.0060 O   0  0  0  0  0  0  0  0  0  0  0  0
   -1.7207    1.6659   -0.9014 O   0  0  0  0  0  0  0  0  0  0  0  0
    0.2629    0.2705   -0.7970 N   0  0  0  0  0  0  0  0  0  0  0  0
    1.5545   -0.0717   -0.3979 C   0  0  0  0  0  0  0  0  0  0  0  0
    1.9362    0.0718    0.7511 O   0  0  0  0  0  0  0  0  0  0  0  0
    2.2513   -0.6419   -1.4182 N   0  0  0  0  0  0  0  0  0  0  0  0
    3.5758   -1.0358   -1.3575 C   0  0  0  0  0  0  0  0  0  0  0  0
    3.9858   -1.7594   -2.4016 N   0  0  0  0  0  0  0  0  0  0  0  0
    5.2718   -2.1466   -2.3691 C   0  0  0  0  0  0  0  0  0  0  0  0
    5.7497   -3.1070   -3.7113 Cl  0  0  0  0  0  0  0  0  0  0  0  0
    6.1635   -1.8346   -1.3773 C   0  0  0  0  0  0  0  0  0  0  0  0
    5.6359   -1.0736   -0.3726 C   0  0  0  0  0  0  0  0  0  0  0  0
    6.4971   -0.7054    0.6403 O   0  0  0  0  0  0  0  0  0  0  0  0
    5.8919    0.1671    1.5983 C   0  0  0  0  0  0  0  0  0  0  0  0
    4.3559   -0.6759   -0.3395 N   0  0  0  0  0  0  0  0  0  0  0  0
   -6.4377    3.1895   -1.9592 H   0  0  0  0  0  0  0  0  0  0  0  0
   -5.1788    1.9737   -2.3106 H   0  0  0  0  0  0  0  0  0  0  0  0
   -6.6678    1.4789   -1.5121 H   0  0  0  0  0  0  0  0  0  0  0  0
   -4.5484    3.3550   -0.3419 H   0  0  0  0  0  0  0  0  0  0  0  0
   -6.0372    2.8386    0.5004 H   0  0  0  0  0  0  0  0  0  0  0  0
   -4.8567   -0.5732    2.2992 H   0  0  0  0  0  0  0  0  0  0  0  0
   -3.8124   -2.7316    2.9291 H   0  0  0  0  0  0  0  0  0  0  0  0
   -1.4199   -3.1462    2.4166 H   0  0  0  0  0  0  0  0  0  0  0  0
   -0.0813   -1.4498    1.2522 H   0  0  0  0  0  0  0  0  0  0  0  0
    0.0508    0.3723   -1.7790 H   0  0  0  0  0  0  0  0  0  0  0  0
    1.7873   -0.9112   -2.2655 H   0  0  0  0  0  0  0  0  0  0  0  0
    7.1940   -2.1544   -1.3834 H   0  0  0  0  0  0  0  0  0  0  0  0
    5.0859   -0.3405    2.1396 H   0  0  0  0  0  0  0  0  0  0  0  0
    5.5339    1.0900    1.1267 H   0  0  0  0  0  0  0  0  0  0  0  0
    6.6601    0.4436    2.3285 H   0  0  0  0  0  0  0  0  0  0  0  0
  1  2  1  0
  2  3  1  0
  3  4  1  0
  4  5  2  0
  4  6  1  0
  6  7  2  0
  7  8  1  0
  8  9  2  0
  9 10  1  0
 10 11  2  0
 11 12  1  0
 12 13  2  0
 12 14  2  0
 12 15  1  0
 15 16  1  0
 16 17  2  0
 16 18  1  0
 18 19  1  0
 19 20  2  0
 20 21  1  0
 21 22  1  0
 21 23  2  0
 23 24  1  0
 24 25  1  0
 25 26  1  0
 24 27  2  0
 11  6  1  0
 27 19  1  0
  1 28  1  0
  1 29  1  0
  1 30  1  0
  2 31  1  0
  2 32  1  0
  7 33  1  0
  8 34  1  0
  9 35  1  0
 10 36  1  0
 15 37  1  0
 18 38  1  0
 23 39  1  0
 26 40  1  0
 26 41  1  0
 26 42  1  0
M  END
$$$$
