
     RDKit          3D

 26 25  0  0  0  0  0  0  0  0999 V2000
    0.6917    0.0000    0.0000 Cl  0  0  0  0  0  0  0  0  0  0  0  0
    3.6256   -1.4846    1.4875 N   0  0  0  0  0  0  0  0  0  0  0  0
    3.1400   -0.5365    0.6906 C   0  0  0  0  0  0  0  0  0  0  0  0
    4.0575   -0.1715   -0.3046 N   0  0  0  0  0  0  0  0  0  0  0  0
    1.8834   -0.2843    1.1744 N   0  0  0  0  0  0  0  0  0  0  0  0
    0.9671    0.6372    0.6599 C   0  0  0  0  0  0  0  0  0  0  0  0
    1.4302    1.2233   -0.3106 O   0  0  0  0  0  0  0  0  0  0  0  0
   -0.3287    0.7471    1.3218 C   0  0  0  0  0  0  0  0  0  0  0  0
   -1.4325    0.3836    0.4293 C   0  0  0  0  0  0  0  0  0  0  0  0
   -1.7545   -0.9080    0.1167 C   0  0  0  0  0  0  0  0  0  0  0  0
   -0.8227   -2.1943    0.8290 Cl  0  0  0  0  0  0  0  0  0  0  0  0
   -2.8012   -1.2207   -0.7482 C   0  0  0  0  0  0  0  0  0  0  0  0
   -3.5528   -0.2226   -1.3216 C   0  0  0  0  0  0  0  0  0  0  0  0
   -3.2362    1.0953   -1.0120 C   0  0  0  0  0  0  0  0  0  0  0  0
   -2.1799    1.3819   -0.1407 C   0  0  0  0  0  0  0  0  0  0  0  0
   -1.8818    3.0836    0.1718 Cl  0  0  0  0  0  0  0  0  0  0  0  0
   -0.6917    0.0000    0.0000 H   0  0  0  0  0  0  0  0  0  0  0  0
    4.5713   -1.6986    1.1446 H   0  0  0  0  0  0  0  0  0  0  0  0
    4.7127    0.6057   -0.0749 H   0  0  0  0  0  0  0  0  0  0  0  0
    4.0455   -0.7019   -1.2108 H   0  0  0  0  0  0  0  0  0  0  0  0
    1.5547   -0.8351    2.0273 H   0  0  0  0  0  0  0  0  0  0  0  0
   -0.3967    1.8001    1.6980 H   0  0  0  0  0  0  0  0  0  0  0  0
   -0.3527    0.1344    2.2541 H   0  0  0  0  0  0  0  0  0  0  0  0
   -3.0479   -2.2376   -0.9896 H   0  0  0  0  0  0  0  0  0  0  0  0
   -4.3770   -0.4604   -2.0017 H   0  0  0  0  0  0  0  0  0  0  0  0
   -3.8233    1.8637   -1.4601 H   0  0  0  0  0  0  0  0  0  0  0  0
  2  3  2  3
  3  4  1  0
  3  5  1  0
  5  6  1  0
  6  7  2  0
  6  8  1  0
  8  9  1  0
  9 10  2  0
 10 11  1  0
 10 12  1  0
 12 13  2  0
 13 14  1  0
 14 15  2  0
 15 16  1  0
 15  9  1  0
  1 17  1  0
  2 18  1  0
  4 19  1  0
  4 20  1  0
  5 21  1  0
  8 22  1  0
  8 23  1  0
 12 24  1  0
 13 25  1  0
 14 26  1  0
M  END
$$$$
