
     RDKit          3D

 60 63  0  0  0  0  0  0  0  0999 V2000
    4.3864   -0.9134   -2.4625 O   0  0  0  0  0  0  0  0  0  0  0  0
    3.9431   -0.5498   -1.3748 C   0  0  0  0  0  0  0  0  0  0  0  0
    2.6283   -0.2433   -1.1396 N   0  0  0  0  0  0  0  0  0  0  0  0
    1.6226   -0.3074   -2.0857 C   0  0  0  0  0  0  0  0  0  0  0  0
    1.6200   -0.6764   -3.4428 C   0  0  0  0  0  0  0  0  0  0  0  0
    0.4064   -0.5945   -3.9975 N   0  0  0  0  0  0  0  0  0  0  0  0
   -0.3918   -0.1707   -2.9867 N   0  0  0  0  0  0  0  0  0  0  0  0
   -1.7524    0.0819   -3.0307 C   0  0  0  0  0  0  0  0  0  0  0  0
   -2.3951    0.4991   -1.9332 C   0  0  0  0  0  0  0  0  0  0  0  0
   -1.5853    0.6662   -0.6665 C   0  0  0  0  0  0  0  0  0  0  0  0
   -2.1888    1.0740    0.5114 N   0  0  0  0  0  0  0  0  0  0  0  0
   -1.4052    1.5301    1.6580 C   0  0  0  0  0  0  0  0  0  0  0  0
   -2.3917    2.3592    2.4684 C   0  0  0  0  0  0  0  0  0  0  0  0
   -3.6938    1.6047    2.2777 C   0  0  0  0  0  0  0  0  0  0  0  0
   -3.6219    1.1345    0.8131 C   0  0  2  0  0  0  0  0  0  0  0  0
   -4.3461   -0.1783    0.6175 C   0  0  0  0  0  0  0  0  0  0  0  0
   -5.5383   -0.2164   -0.1252 C   0  0  0  0  0  0  0  0  0  0  0  0
   -6.2083   -1.4227   -0.3179 C   0  0  0  0  0  0  0  0  0  0  0  0
   -7.3392   -1.4366   -1.0345 F   0  0  0  0  0  0  0  0  0  0  0  0
   -5.7253   -2.6081    0.2224 C   0  0  0  0  0  0  0  0  0  0  0  0
   -4.5548   -2.5850    0.9765 C   0  0  0  0  0  0  0  0  0  0  0  0
   -3.8805   -1.3796    1.1724 C   0  0  0  0  0  0  0  0  0  0  0  0
   -2.7775   -1.3904    1.9333 F   0  0  0  0  0  0  0  0  0  0  0  0
   -0.2852    0.4465   -0.6479 N   0  0  0  0  0  0  0  0  0  0  0  0
    0.3145    0.0201   -1.8027 C   0  0  0  0  0  0  0  0  0  0  0  0
    4.7712   -0.4099   -0.2811 N   0  0  0  0  0  0  0  0  0  0  0  0
    4.4067   -0.0497    1.0818 C   0  0  0  0  0  0  0  0  0  0  0  0
    5.6704   -0.2816    1.9024 C   0  0  0  0  0  0  0  0  0  0  0  0
    6.7873   -0.0809    0.8848 C   0  0  2  0  0  0  0  0  0  0  0  0
    7.0388    1.3171    0.7301 O   0  0  0  0  0  0  0  0  0  0  0  0
    6.1990   -0.6846   -0.3904 C   0  0  0  0  0  0  0  0  0  0  0  0
   -0.6796    0.1660    1.5527 O   0  0  0  0  0  0  0  0  0  0  0  0
   -0.0237    0.3539    0.2837 S   0  0  0  0  0  6  0  0  0  0  0  0
    0.5787    1.5945   -0.1330 O   0  0  0  0  0  0  0  0  0  0  0  0
   -1.0711   -0.1034   -0.8419 O   0  0  0  0  0  0  0  0  0  0  0  0
    1.1080   -0.7725    0.1287 O   0  0  0  0  0  0  0  0  0  0  0  0
    2.3262    0.0654   -0.2280 H   0  0  0  0  0  0  0  0  0  0  0  0
    2.4517   -1.0024   -4.0548 H   0  0  0  0  0  0  0  0  0  0  0  0
   -2.2332   -0.0685   -3.9870 H   0  0  0  0  0  0  0  0  0  0  0  0
   -3.4471    0.7315   -1.9407 H   0  0  0  0  0  0  0  0  0  0  0  0
   -0.5461    2.1427    1.3639 H   0  0  0  0  0  0  0  0  0  0  0  0
   -1.0488    0.6682    2.2328 H   0  0  0  0  0  0  0  0  0  0  0  0
   -2.4776    3.3673    2.0445 H   0  0  0  0  0  0  0  0  0  0  0  0
   -2.1014    2.4505    3.5186 H   0  0  0  0  0  0  0  0  0  0  0  0
   -3.7345    0.7664    2.9833 H   0  0  0  0  0  0  0  0  0  0  0  0
   -4.5717    2.2312    2.4651 H   0  0  0  0  0  0  0  0  0  0  0  0
   -4.0648    1.9115    0.1766 H   0  0  0  0  0  0  0  0  0  0  0  0
   -5.9575    0.6845   -0.5658 H   0  0  0  0  0  0  0  0  0  0  0  0
   -6.2632   -3.5361    0.0577 H   0  0  0  0  0  0  0  0  0  0  0  0
   -4.1597   -3.4965    1.4158 H   0  0  0  0  0  0  0  0  0  0  0  0
    3.5682   -0.6565    1.4347 H   0  0  0  0  0  0  0  0  0  0  0  0
    4.1116    1.0051    1.0849 H   0  0  0  0  0  0  0  0  0  0  0  0
    5.6839   -1.3139    2.2710 H   0  0  0  0  0  0  0  0  0  0  0  0
    5.7253    0.4002    2.7562 H   0  0  0  0  0  0  0  0  0  0  0  0
    7.7240   -0.5592    1.1834 H   0  0  0  0  0  0  0  0  0  0  0  0
    6.3752    1.6708    0.1099 H   0  0  0  0  0  0  0  0  0  0  0  0
    6.3227   -1.7725   -0.4138 H   0  0  0  0  0  0  0  0  0  0  0  0
    6.6035   -0.2439   -1.3064 H   0  0  0  0  0  0  0  0  0  0  0  0
   -1.6507   -0.7826   -0.4389 H   0  0  0  0  0  0  0  0  0  0  0  0
    1.7384   -0.4559   -0.5513 H   0  0  0  0  0  0  0  0  0  0  0  0
  1  2  2  0
  2  3  1  0
  3  4  1  0
  4  5  1  0
  5  6  2  0
  6  7  1  0
  7  8  1  0
  8  9  2  0
  9 10  1  0
 10 11  1  0
 11 12  1  0
 12 13  1  0
 13 14  1  0
 14 15  1  0
 15 16  1  0
 16 17  2  0
 17 18  1  0
 18 19  1  0
 18 20  2  0
 20 21  1  0
 21 22  2  0
 22 23  1  0
 10 24  2  0
 24 25  1  0
  2 26  1  0
 26 27  1  0
 27 28  1  0
 28 29  1  0
 29 30  1  0
 29 31  1  0
 32 33  2  0
 33 34  2  0
 33 35  1  0
 33 36  1  0
 25  4  2  0
 31 26  1  0
 25  7  1  0
 15 11  1  0
 22 16  1  0
  3 37  1  0
  5 38  1  0
  8 39  1  0
  9 40  1  0
 12 41  1  0
 12 42  1  0
 13 43  1  0
 13 44  1  0
 14 45  1  0
 14 46  1  0
 15 47  1  6
 17 48  1  0
 20 49  1  0
 21 50  1  0
 27 51  1  0
 27 52  1  0
 28 53  1  0
 28 54  1  0
 29 55  1  1
 30 56  1  0
 31 57  1  0
 31 58  1  0
 35 59  1  0
 36 60  1  0
M  END
$$$$
