
     RDKit          3D

 64 68  0  0  0  0  0  0  0  0999 V2000
    6.9611   -2.0442    1.4863 C   0  0  0  0  0  0  0  0  0  0  0  0
    5.8277   -2.7936    1.0138 N   0  0  0  0  0  0  0  0  0  0  0  0
    5.0100   -2.3080    0.0387 C   0  0  0  0  0  0  0  0  0  0  0  0
    5.2206   -1.3040   -0.6254 O   0  0  0  0  0  0  0  0  0  0  0  0
    3.9189   -3.1038   -0.0597 O   0  0  0  0  0  0  0  0  0  0  0  0
    2.8998   -2.6428   -0.9676 C   0  0  1  0  0  0  0  0  0  0  0  0
    2.2197   -3.8556   -1.5888 C   0  0  0  0  0  0  0  0  0  0  0  0
    1.2539   -3.4741   -2.5684 O   0  0  0  0  0  0  0  0  0  0  0  0
    0.3560   -2.5384   -2.1303 C   0  0  0  0  0  0  0  0  0  0  0  0
   -0.8086   -2.4119   -2.8773 C   0  0  0  0  0  0  0  0  0  0  0  0
   -1.8049   -1.5083   -2.4882 C   0  0  0  0  0  0  0  0  0  0  0  0
   -1.6731   -0.7044   -1.3470 C   0  0  0  0  0  0  0  0  0  0  0  0
   -2.6674    0.1709   -0.9407 N   0  0  0  0  0  0  0  0  0  0  0  0
   -2.7409    0.6615    0.4486 C   0  0  0  0  0  0  0  0  0  0  0  0
   -4.2108    0.8697    0.8837 C   0  0  0  0  0  0  0  0  0  0  0  0
   -4.9668    1.8453    0.0609 N   0  0  0  0  0  0  0  0  0  0  0  0
   -6.4018    1.5006    0.0967 C   0  0  0  0  0  0  0  0  0  0  0  0
   -7.0081    1.7644    1.4882 C   0  0  0  0  0  0  0  0  0  0  0  0
   -8.0652    2.5735    0.8986 O   0  0  0  0  0  0  0  0  0  0  0  0
   -7.2647    2.7110   -0.3103 C   0  0  0  0  0  0  0  0  0  0  0  0
   -4.4746    1.8393   -1.3384 C   0  0  0  0  0  0  0  0  0  0  0  0
   -3.7958    0.5288   -1.8123 C   0  0  0  0  0  0  0  0  0  0  0  0
   -0.4655   -0.8326   -0.6373 C   0  0  0  0  0  0  0  0  0  0  0  0
    0.5606   -1.7229   -1.0190 C   0  0  0  0  0  0  0  0  0  0  0  0
    1.8315   -1.8300   -0.2072 C   0  0  2  0  0  0  0  0  0  0  0  0
    2.3511   -0.5105    0.1470 N   0  0  0  0  0  0  0  0  0  0  0  0
    2.6124   -0.1472    1.4478 C   0  0  0  0  0  0  0  0  0  0  0  0
    2.3379   -0.8415    2.4203 O   0  0  0  0  0  0  0  0  0  0  0  0
    3.2358    1.1880    1.6475 C   0  0  0  0  0  0  0  0  0  0  0  0
    4.1508    1.7207    0.7316 C   0  0  0  0  0  0  0  0  0  0  0  0
    4.7206    2.9756    0.9653 C   0  0  0  0  0  0  0  0  0  0  0  0
    4.3785    3.6862    2.1093 C   0  0  0  0  0  0  0  0  0  0  0  0
    4.9262    4.8889    2.3258 F   0  0  0  0  0  0  0  0  0  0  0  0
    3.4878    3.1613    3.0379 C   0  0  0  0  0  0  0  0  0  0  0  0
    2.9184    1.9057    2.8104 C   0  0  0  0  0  0  0  0  0  0  0  0
    7.6093   -2.7148    2.0542 H   0  0  0  0  0  0  0  0  0  0  0  0
    6.6047   -1.2365    2.1327 H   0  0  0  0  0  0  0  0  0  0  0  0
    7.5086   -1.6161    0.6428 H   0  0  0  0  0  0  0  0  0  0  0  0
    5.4045   -3.4974    1.6069 H   0  0  0  0  0  0  0  0  0  0  0  0
    3.3297   -2.0413   -1.7825 H   0  0  0  0  0  0  0  0  0  0  0  0
    1.7485   -4.4967   -0.8320 H   0  0  0  0  0  0  0  0  0  0  0  0
    2.9674   -4.4828   -2.0899 H   0  0  0  0  0  0  0  0  0  0  0  0
   -0.9605   -3.0339   -3.7555 H   0  0  0  0  0  0  0  0  0  0  0  0
   -2.7073   -1.4764   -3.0916 H   0  0  0  0  0  0  0  0  0  0  0  0
   -2.1812    1.6039    0.5327 H   0  0  0  0  0  0  0  0  0  0  0  0
   -2.3029   -0.0603    1.1498 H   0  0  0  0  0  0  0  0  0  0  0  0
   -4.2233    1.2088    1.9284 H   0  0  0  0  0  0  0  0  0  0  0  0
   -4.7038   -0.1153    0.8579 H   0  0  0  0  0  0  0  0  0  0  0  0
   -6.6963    0.5524   -0.3650 H   0  0  0  0  0  0  0  0  0  0  0  0
   -6.4220    2.3586    2.1970 H   0  0  0  0  0  0  0  0  0  0  0  0
   -7.4096    0.8808    1.9936 H   0  0  0  0  0  0  0  0  0  0  0  0
   -7.8648    2.5645   -1.2122 H   0  0  0  0  0  0  0  0  0  0  0  0
   -6.7851    3.6952   -0.3464 H   0  0  0  0  0  0  0  0  0  0  0  0
   -5.2707    2.1146   -2.0405 H   0  0  0  0  0  0  0  0  0  0  0  0
   -3.7335    2.6474   -1.4126 H   0  0  0  0  0  0  0  0  0  0  0  0
   -4.5270   -0.2888   -1.8261 H   0  0  0  0  0  0  0  0  0  0  0  0
   -3.4426    0.6961   -2.8362 H   0  0  0  0  0  0  0  0  0  0  0  0
   -0.2928   -0.2126    0.2388 H   0  0  0  0  0  0  0  0  0  0  0  0
    1.5846   -2.3673    0.7176 H   0  0  0  0  0  0  0  0  0  0  0  0
    2.5636    0.1253   -0.6087 H   0  0  0  0  0  0  0  0  0  0  0  0
    4.4581    1.1628   -0.1486 H   0  0  0  0  0  0  0  0  0  0  0  0
    5.4395    3.3962    0.2713 H   0  0  0  0  0  0  0  0  0  0  0  0
    3.2455    3.7263    3.9327 H   0  0  0  0  0  0  0  0  0  0  0  0
    2.2282    1.4898    3.5434 H   0  0  0  0  0  0  0  0  0  0  0  0
  1  2  1  0
  2  3  1  0
  3  4  2  0
  3  5  1  0
  5  6  1  0
  6  7  1  0
  7  8  1  0
  8  9  1  0
  9 10  2  0
 10 11  1  0
 11 12  2  0
 12 13  1  0
 13 14  1  0
 14 15  1  0
 15 16  1  0
 16 17  1  0
 17 18  1  0
 18 19  1  0
 19 20  1  0
 16 21  1  0
 21 22  1  0
 12 23  1  0
 23 24  2  0
 24 25  1  0
 25 26  1  0
 26 27  1  0
 27 28  2  0
 27 29  1  0
 29 30  2  0
 30 31  1  0
 31 32  2  0
 32 33  1  0
 32 34  1  0
 34 35  2  0
 25  6  1  0
 35 29  1  0
 24  9  1  0
 22 13  1  0
 20 17  1  0
  1 36  1  0
  1 37  1  0
  1 38  1  0
  2 39  1  0
  6 40  1  6
  7 41  1  0
  7 42  1  0
 10 43  1  0
 11 44  1  0
 14 45  1  0
 14 46  1  0
 15 47  1  0
 15 48  1  0
 17 49  1  0
 18 50  1  0
 18 51  1  0
 20 52  1  0
 20 53  1  0
 21 54  1  0
 21 55  1  0
 22 56  1  0
 22 57  1  0
 23 58  1  0
 25 59  1  1
 26 60  1  0
 30 61  1  0
 31 62  1  0
 34 63  1  0
 35 64  1  0
M  END
$$$$
