
     RDKit          3D

 40 42  0  0  0  0  0  0  0  0999 V2000
   -5.1370    1.3479   -1.0520 C   0  0  0  0  0  0  0  0  0  0  0  0
   -5.0760   -0.0576   -0.4471 C   0  0  0  0  0  0  0  0  0  0  0  0
   -6.4863   -0.6472   -0.3708 C   0  0  0  0  0  0  0  0  0  0  0  0
   -4.4333   -0.0561    0.9511 C   0  0  0  0  0  0  0  0  0  0  0  0
   -2.9840    0.2972    0.9183 C   0  0  0  0  0  0  0  0  0  0  0  0
   -2.4533    1.4681    1.2069 N   0  0  0  0  0  0  0  0  0  0  0  0
   -1.1007    1.3131    1.0361 C   0  0  0  0  0  0  0  0  0  0  0  0
   -0.0622    2.2364    1.2023 C   0  0  0  0  0  0  0  0  0  0  0  0
    1.2547    1.8161    0.9580 C   0  0  0  0  0  0  0  0  0  0  0  0
    1.5453    0.5018    0.5568 C   0  0  0  0  0  0  0  0  0  0  0  0
    2.9057    0.1927    0.3328 N   0  0  0  0  0  0  0  0  0  0  0  0
    3.4431   -1.0404    0.0072 C   0  0  0  0  0  0  0  0  0  0  0  0
    2.8418   -2.1042   -0.0794 O   0  0  0  0  0  0  0  0  0  0  0  0
    4.9089   -1.0490   -0.2210 C   0  0  0  0  0  0  0  0  0  0  0  0
    5.6053    0.0290   -0.7747 C   0  0  0  0  0  0  0  0  0  0  0  0
    6.9841   -0.0709   -0.9565 C   0  0  0  0  0  0  0  0  0  0  0  0
    7.6166   -1.2472   -0.5842 C   0  0  0  0  0  0  0  0  0  0  0  0
    6.9711   -2.3109   -0.0598 N   0  0  0  0  0  0  0  0  0  0  0  0
    5.6288   -2.1932    0.1002 C   0  0  0  0  0  0  0  0  0  0  0  0
    0.5079   -0.4247    0.3859 C   0  0  0  0  0  0  0  0  0  0  0  0
   -0.7954    0.0199    0.6371 C   0  0  0  0  0  0  0  0  0  0  0  0
   -2.0114   -0.6096    0.5729 N   0  0  0  0  0  0  0  0  0  0  0  0
   -4.1347    1.7622   -1.1995 H   0  0  0  0  0  0  0  0  0  0  0  0
   -5.6290    1.3272   -2.0304 H   0  0  0  0  0  0  0  0  0  0  0  0
   -5.6973    2.0337   -0.4073 H   0  0  0  0  0  0  0  0  0  0  0  0
   -4.4832   -0.6918   -1.1192 H   0  0  0  0  0  0  0  0  0  0  0  0
   -6.9492   -0.6793   -1.3628 H   0  0  0  0  0  0  0  0  0  0  0  0
   -7.1311   -0.0525    0.2853 H   0  0  0  0  0  0  0  0  0  0  0  0
   -6.4595   -1.6711    0.0167 H   0  0  0  0  0  0  0  0  0  0  0  0
   -4.9604    0.6476    1.6075 H   0  0  0  0  0  0  0  0  0  0  0  0
   -4.5399   -1.0476    1.4098 H   0  0  0  0  0  0  0  0  0  0  0  0
   -0.2825    3.2511    1.5135 H   0  0  0  0  0  0  0  0  0  0  0  0
    2.0507    2.5444    1.0923 H   0  0  0  0  0  0  0  0  0  0  0  0
    3.5534    0.9515    0.4984 H   0  0  0  0  0  0  0  0  0  0  0  0
    5.0933    0.9305   -1.0967 H   0  0  0  0  0  0  0  0  0  0  0  0
    7.5528    0.7453   -1.3893 H   0  0  0  0  0  0  0  0  0  0  0  0
    8.6891   -1.3715   -0.7082 H   0  0  0  0  0  0  0  0  0  0  0  0
    5.1384   -3.0718    0.5133 H   0  0  0  0  0  0  0  0  0  0  0  0
    0.6797   -1.4460    0.0708 H   0  0  0  0  0  0  0  0  0  0  0  0
   -2.1642   -1.5732    0.3129 H   0  0  0  0  0  0  0  0  0  0  0  0
  1  2  1  0
  2  3  1  0
  2  4  1  0
  4  5  1  0
  5  6  2  0
  6  7  1  0
  7  8  2  0
  8  9  1  0
  9 10  2  0
 10 11  1  0
 11 12  1  0
 12 13  2  0
 12 14  1  0
 14 15  2  0
 15 16  1  0
 16 17  2  0
 17 18  1  0
 18 19  2  0
 10 20  1  0
 20 21  2  0
 21 22  1  0
 22  5  1  0
 21  7  1  0
 19 14  1  0
  1 23  1  0
  1 24  1  0
  1 25  1  0
  2 26  1  0
  3 27  1  0
  3 28  1  0
  3 29  1  0
  4 30  1  0
  4 31  1  0
  8 32  1  0
  9 33  1  0
 11 34  1  0
 15 35  1  0
 16 36  1  0
 17 37  1  0
 19 38  1  0
 20 39  1  0
 22 40  1  0
M  END
$$$$
