
     RDKit          3D

 45 46  0  0  0  0  0  0  0  0999 V2000
   -7.4500   -0.4823   -0.2961 C   0  0  0  0  0  0  0  0  0  0  0  0
   -6.0031   -0.1697   -0.6540 C   0  0  0  0  0  0  0  0  0  0  0  0
   -5.1978    0.3211    0.5417 C   0  0  0  0  0  0  0  0  0  0  0  0
   -5.6779    0.3451    1.6760 O   0  0  0  0  0  0  0  0  0  0  0  0
   -3.8931    0.7377    0.2913 N   0  0  0  0  0  0  0  0  0  0  0  0
   -3.2333    0.6832   -1.0160 C   0  0  0  0  0  0  0  0  0  0  0  0
   -1.7435    0.3933   -0.8747 C   0  0  0  0  0  0  0  0  0  0  0  0
   -1.0289    1.4462   -0.0090 C   0  0  0  0  0  0  0  0  0  0  0  0
    0.0894    0.8389    0.7168 N   0  0  0  0  0  0  0  0  0  0  0  0
    1.2727    0.5446    0.0581 C   0  0  0  0  0  0  0  0  0  0  0  0
    1.4552    0.8337   -1.1147 O   0  0  0  0  0  0  0  0  0  0  0  0
    2.1586   -0.0815    0.9072 N   0  0  0  0  0  0  0  0  0  0  0  0
    3.4563   -0.5519    0.6099 C   0  0  0  0  0  0  0  0  0  0  0  0
    4.0527   -0.4732   -0.6542 C   0  0  0  0  0  0  0  0  0  0  0  0
    5.3540   -0.9547   -0.8705 C   0  0  0  0  0  0  0  0  0  0  0  0
    6.0706   -1.5238    0.1794 C   0  0  0  0  0  0  0  0  0  0  0  0
    7.3364   -2.0305    0.0981 O   0  0  0  0  0  0  0  0  0  0  0  0
    8.1714   -1.4952   -0.9185 C   0  0  0  0  0  0  0  0  0  0  0  0
    9.4416   -1.8951   -0.6774 F   0  0  0  0  0  0  0  0  0  0  0  0
    8.1539   -0.1430   -0.9201 F   0  0  0  0  0  0  0  0  0  0  0  0
    7.8056   -1.9568   -2.1368 F   0  0  0  0  0  0  0  0  0  0  0  0
    5.4670   -1.6296    1.4384 C   0  0  0  0  0  0  0  0  0  0  0  0
    4.1744   -1.1407    1.6564 C   0  0  0  0  0  0  0  0  0  0  0  0
   -1.9759    2.1636    0.9618 C   0  0  0  0  0  0  0  0  0  0  0  0
   -3.1183    1.2626    1.4145 C   0  0  0  0  0  0  0  0  0  0  0  0
   -7.4971   -1.3125    0.4178 H   0  0  0  0  0  0  0  0  0  0  0  0
   -8.0124   -0.7789   -1.1906 H   0  0  0  0  0  0  0  0  0  0  0  0
   -7.9437    0.3851    0.1508 H   0  0  0  0  0  0  0  0  0  0  0  0
   -5.5386   -1.0903   -1.0355 H   0  0  0  0  0  0  0  0  0  0  0  0
   -5.9807    0.5942   -1.4390 H   0  0  0  0  0  0  0  0  0  0  0  0
   -3.3988    1.6494   -1.5071 H   0  0  0  0  0  0  0  0  0  0  0  0
   -3.6877   -0.0869   -1.6409 H   0  0  0  0  0  0  0  0  0  0  0  0
   -1.2753    0.3495   -1.8686 H   0  0  0  0  0  0  0  0  0  0  0  0
   -1.6210   -0.6078   -0.4305 H   0  0  0  0  0  0  0  0  0  0  0  0
   -0.5983    2.2128   -0.6694 H   0  0  0  0  0  0  0  0  0  0  0  0
   -0.1582    0.1960    1.4510 H   0  0  0  0  0  0  0  0  0  0  0  0
    1.8726   -0.1285    1.8754 H   0  0  0  0  0  0  0  0  0  0  0  0
    3.5353   -0.0330   -1.5025 H   0  0  0  0  0  0  0  0  0  0  0  0
    5.7607   -0.8778   -1.8793 H   0  0  0  0  0  0  0  0  0  0  0  0
    6.0076   -2.0881    2.2635 H   0  0  0  0  0  0  0  0  0  0  0  0
    3.7428   -1.2289    2.6549 H   0  0  0  0  0  0  0  0  0  0  0  0
   -2.4070    3.0368    0.4485 H   0  0  0  0  0  0  0  0  0  0  0  0
   -1.4287    2.5485    1.8323 H   0  0  0  0  0  0  0  0  0  0  0  0
   -3.7797    1.8188    2.0902 H   0  0  0  0  0  0  0  0  0  0  0  0
   -2.7297    0.3998    1.9719 H   0  0  0  0  0  0  0  0  0  0  0  0
  1  2  1  0
  2  3  1  0
  3  4  2  0
  3  5  1  0
  5  6  1  0
  6  7  1  0
  7  8  1  0
  8  9  1  0
  9 10  1  0
 10 11  2  0
 10 12  1  0
 12 13  1  0
 13 14  2  0
 14 15  1  0
 15 16  2  0
 16 17  1  0
 17 18  1  0
 18 19  1  0
 18 20  1  0
 18 21  1  0
 16 22  1  0
 22 23  2  0
  8 24  1  0
 24 25  1  0
 25  5  1  0
 23 13  1  0
  1 26  1  0
  1 27  1  0
  1 28  1  0
  2 29  1  0
  2 30  1  0
  6 31  1  0
  6 32  1  0
  7 33  1  0
  7 34  1  0
  8 35  1  0
  9 36  1  0
 12 37  1  0
 14 38  1  0
 15 39  1  0
 22 40  1  0
 23 41  1  0
 24 42  1  0
 24 43  1  0
 25 44  1  0
 25 45  1  0
M  END
$$$$
