
     RDKit          3D

 55 58  0  0  0  0  0  0  0  0999 V2000
    5.6677    0.3596    2.2335 C   0  0  0  0  0  0  0  0  0  0  0  0
    6.2968   -0.2587    1.0709 N   0  0  0  0  0  0  0  0  0  0  0  0
    6.8923    0.7463    0.1979 C   0  0  0  0  0  0  0  0  0  0  0  0
    5.4137   -1.1960    0.3611 C   0  0  0  0  0  0  0  0  0  0  0  0
    4.1714   -0.6188   -0.2836 C   0  0  0  0  0  0  0  0  0  0  0  0
    4.1930   -0.1707   -1.6113 C   0  0  0  0  0  0  0  0  0  0  0  0
    3.0467    0.3697   -2.1937 C   0  0  0  0  0  0  0  0  0  0  0  0
    1.8619    0.4541   -1.4601 C   0  0  0  0  0  0  0  0  0  0  0  0
    1.8008   -0.0258   -0.1488 C   0  0  0  0  0  0  0  0  0  0  0  0
    0.6524    0.1253    0.6642 N   0  0  0  0  0  0  0  0  0  0  0  0
   -0.6692   -0.0669    0.2469 C   0  0  0  0  0  0  0  0  0  0  0  0
   -1.7099    0.6999    0.6440 C   0  0  0  0  0  0  0  0  0  0  0  0
   -1.4701    1.9424    1.4684 C   0  0  0  0  0  0  0  0  0  0  0  0
   -0.4047    2.3629    1.8819 O   0  0  0  0  0  0  0  0  0  0  0  0
   -2.7154    2.5142    1.6498 N   0  0  0  0  0  0  0  0  0  0  0  0
   -3.7133    1.7483    1.0572 C   0  0  0  0  0  0  0  0  0  0  0  0
   -5.0687    2.0226    1.0847 C   0  0  0  0  0  0  0  0  0  0  0  0
   -5.9210    1.1056    0.4605 C   0  0  0  0  0  0  0  0  0  0  0  0
   -7.3954    1.2963    0.4367 C   0  0  0  0  0  0  0  0  0  0  0  0
   -7.8719    2.5703    0.5767 N   0  0  0  0  0  0  0  0  0  0  0  0
   -8.1616    0.3576    0.2634 O   0  0  0  0  0  0  0  0  0  0  0  0
   -5.3929   -0.0579   -0.1389 C   0  0  0  0  0  0  0  0  0  0  0  0
   -4.0134   -0.3081   -0.1515 C   0  0  0  0  0  0  0  0  0  0  0  0
   -3.1675    0.6159    0.4359 C   0  0  0  0  0  0  0  0  0  0  0  0
   -0.9101   -1.2756   -0.5784 C   0  0  0  0  0  0  0  0  0  0  0  0
   -0.8207   -2.5467    0.0057 C   0  0  0  0  0  0  0  0  0  0  0  0
   -1.0503   -3.6929   -0.7575 C   0  0  0  0  0  0  0  0  0  0  0  0
   -1.3643   -3.5790   -2.1112 C   0  0  0  0  0  0  0  0  0  0  0  0
   -1.4449   -2.3205   -2.7056 C   0  0  0  0  0  0  0  0  0  0  0  0
   -1.2185   -1.1726   -1.9434 C   0  0  0  0  0  0  0  0  0  0  0  0
    2.9695   -0.5282    0.4380 C   0  0  0  0  0  0  0  0  0  0  0  0
    6.4137    0.9044    2.8226 H   0  0  0  0  0  0  0  0  0  0  0  0
    4.8784    1.0692    1.9606 H   0  0  0  0  0  0  0  0  0  0  0  0
    5.2413   -0.4003    2.8984 H   0  0  0  0  0  0  0  0  0  0  0  0
    7.3859    0.2752   -0.6599 H   0  0  0  0  0  0  0  0  0  0  0  0
    6.1612    1.4717   -0.1753 H   0  0  0  0  0  0  0  0  0  0  0  0
    7.6695    1.3018    0.7355 H   0  0  0  0  0  0  0  0  0  0  0  0
    5.9973   -1.7204   -0.4085 H   0  0  0  0  0  0  0  0  0  0  0  0
    5.1136   -1.9959    1.0522 H   0  0  0  0  0  0  0  0  0  0  0  0
    5.1085   -0.2310   -2.1957 H   0  0  0  0  0  0  0  0  0  0  0  0
    3.0769    0.7340   -3.2170 H   0  0  0  0  0  0  0  0  0  0  0  0
    0.9905    0.9107   -1.9190 H   0  0  0  0  0  0  0  0  0  0  0  0
    0.7525    0.9818    1.2249 H   0  0  0  0  0  0  0  0  0  0  0  0
   -2.8491    3.3612    2.1811 H   0  0  0  0  0  0  0  0  0  0  0  0
   -5.4453    2.8970    1.6009 H   0  0  0  0  0  0  0  0  0  0  0  0
   -8.8679    2.6810    0.4304 H   0  0  0  0  0  0  0  0  0  0  0  0
   -7.2932    3.3840    0.4296 H   0  0  0  0  0  0  0  0  0  0  0  0
   -6.0666   -0.7820   -0.5968 H   0  0  0  0  0  0  0  0  0  0  0  0
   -3.6492   -1.2244   -0.6021 H   0  0  0  0  0  0  0  0  0  0  0  0
   -0.5626   -2.6449    1.0577 H   0  0  0  0  0  0  0  0  0  0  0  0
   -0.9759   -4.6743   -0.2963 H   0  0  0  0  0  0  0  0  0  0  0  0
   -1.5366   -4.4729   -2.7052 H   0  0  0  0  0  0  0  0  0  0  0  0
   -1.6796   -2.2330   -3.7633 H   0  0  0  0  0  0  0  0  0  0  0  0
   -1.2800   -0.1970   -2.4195 H   0  0  0  0  0  0  0  0  0  0  0  0
    2.9343   -0.8687    1.4711 H   0  0  0  0  0  0  0  0  0  0  0  0
  1  2  1  0
  2  3  1  0
  2  4  1  0
  4  5  1  0
  5  6  2  0
  6  7  1  0
  7  8  2  0
  8  9  1  0
  9 10  1  0
 10 11  1  0
 11 12  2  0
 12 13  1  0
 13 14  2  0
 13 15  1  0
 15 16  1  0
 16 17  2  0
 17 18  1  0
 18 19  1  0
 19 20  1  0
 19 21  2  0
 18 22  2  0
 22 23  1  0
 23 24  2  0
 11 25  1  0
 25 26  2  0
 26 27  1  0
 27 28  2  0
 28 29  1  0
 29 30  2  0
  9 31  2  0
 31  5  1  0
 24 12  1  0
 30 25  1  0
 24 16  1  0
  1 32  1  0
  1 33  1  0
  1 34  1  0
  3 35  1  0
  3 36  1  0
  3 37  1  0
  4 38  1  0
  4 39  1  0
  6 40  1  0
  7 41  1  0
  8 42  1  0
 10 43  1  0
 15 44  1  0
 17 45  1  0
 20 46  1  0
 20 47  1  0
 22 48  1  0
 23 49  1  0
 26 50  1  0
 27 51  1  0
 28 52  1  0
 29 53  1  0
 30 54  1  0
 31 55  1  0
M  END
$$$$
