
     RDKit          3D

 31 33  0  0  0  0  0  0  0  0999 V2000
    4.5462    0.6382   -0.3667 C   0  0  0  0  0  0  0  0  0  0  0  0
    3.0949    1.0887   -0.3172 C   0  0  0  0  0  0  0  0  0  0  0  0
    2.0922   -0.0461   -0.1358 C   0  0  0  0  0  0  0  0  0  0  0  0
    2.5385   -1.2645   -0.0210 N   0  0  0  0  0  0  0  0  0  0  0  0
    1.6522   -2.2741    0.1730 N   0  0  0  0  0  0  0  0  0  0  0  0
    0.2634   -2.0764    0.0871 C   0  0  0  0  0  0  0  0  0  0  0  0
   -0.6102   -3.1613    0.2100 C   0  0  0  0  0  0  0  0  0  0  0  0
   -1.9880   -2.9615    0.1948 C   0  0  0  0  0  0  0  0  0  0  0  0
   -2.5021   -1.6698    0.0775 C   0  0  0  0  0  0  0  0  0  0  0  0
   -1.6512   -0.5492   -0.0239 C   0  0  0  0  0  0  0  0  0  0  0  0
   -2.1279    0.7820   -0.1275 C   0  0  0  0  0  0  0  0  0  0  0  0
   -3.4932    0.9363   -0.1295 O   0  0  0  0  0  0  0  0  0  0  0  0
   -4.0097    2.2572   -0.2247 C   0  0  0  0  0  0  0  0  0  0  0  0
   -1.2186    1.8414   -0.2183 C   0  0  0  0  0  0  0  0  0  0  0  0
    0.1576    1.5986   -0.2127 C   0  0  0  0  0  0  0  0  0  0  0  0
    0.6373    0.2904   -0.1142 C   0  0  0  0  0  0  0  0  0  0  0  0
   -0.2532   -0.7793   -0.0159 C   0  0  0  0  0  0  0  0  0  0  0  0
    4.7174   -0.0525   -1.1990 H   0  0  0  0  0  0  0  0  0  0  0  0
    5.2063    1.5009   -0.5003 H   0  0  0  0  0  0  0  0  0  0  0  0
    4.8345    0.1308    0.5599 H   0  0  0  0  0  0  0  0  0  0  0  0
    2.8585    1.6134   -1.2499 H   0  0  0  0  0  0  0  0  0  0  0  0
    2.9733    1.7917    0.5147 H   0  0  0  0  0  0  0  0  0  0  0  0
    1.9879   -3.2224    0.0281 H   0  0  0  0  0  0  0  0  0  0  0  0
   -0.2207   -4.1693    0.3231 H   0  0  0  0  0  0  0  0  0  0  0  0
   -2.6634   -3.8083    0.2840 H   0  0  0  0  0  0  0  0  0  0  0  0
   -3.5824   -1.5360    0.0738 H   0  0  0  0  0  0  0  0  0  0  0  0
   -3.7191    2.7275   -1.1698 H   0  0  0  0  0  0  0  0  0  0  0  0
   -3.7021    2.8643    0.6329 H   0  0  0  0  0  0  0  0  0  0  0  0
   -5.1019    2.1904   -0.2094 H   0  0  0  0  0  0  0  0  0  0  0  0
   -1.5478    2.8724   -0.2976 H   0  0  0  0  0  0  0  0  0  0  0  0
    0.8312    2.4465   -0.2895 H   0  0  0  0  0  0  0  0  0  0  0  0
  1  2  1  0
  2  3  1  0
  3  4  2  0
  4  5  1  0
  5  6  1  0
  6  7  1  0
  7  8  2  0
  8  9  1  0
  9 10  2  0
 10 11  1  0
 11 12  1  0
 12 13  1  0
 11 14  2  0
 14 15  1  0
 15 16  2  0
 16 17  1  0
 16  3  1  0
 17  6  2  0
 17 10  1  0
  1 18  1  0
  1 19  1  0
  1 20  1  0
  2 21  1  0
  2 22  1  0
  5 23  1  0
  7 24  1  0
  8 25  1  0
  9 26  1  0
 13 27  1  0
 13 28  1  0
 13 29  1  0
 14 30  1  0
 15 31  1  0
M  END
$$$$
