
     RDKit          3D

 49 51  0  0  0  0  0  0  0  0999 V2000
    5.5157    1.2789    0.1505 C   0  0  0  0  0  0  0  0  0  0  0  0
    5.9537   -0.1263   -0.2363 C   0  0  0  0  0  0  0  0  0  0  0  0
    4.8419   -0.9475   -0.8948 C   0  0  0  0  0  0  0  0  0  0  0  0
    3.9756   -1.7671    0.0705 C   0  0  0  0  0  0  0  0  0  0  0  0
    3.1601   -0.9749    0.9897 N   0  0  0  0  0  0  0  0  0  0  0  0
    3.6177   -0.9021    2.3710 C   0  0  0  0  0  0  0  0  0  0  0  0
    1.8823   -0.4836    0.6997 C   0  0  0  0  0  0  0  0  0  0  0  0
    1.1959    0.0677    1.5655 O   0  0  0  0  0  0  0  0  0  0  0  0
    1.3570   -0.6928   -0.7275 C   0  0  0  0  0  0  0  0  0  0  0  0
    0.0923   -0.0240   -0.9094 N   0  0  0  0  0  0  0  0  0  0  0  0
   -0.0252    1.2681   -1.3673 N   0  0  0  0  0  0  0  0  0  0  0  0
   -1.2925    1.5180   -1.2355 C   0  0  0  0  0  0  0  0  0  0  0  0
   -1.9772    2.7558   -1.6016 C   0  0  0  0  0  0  0  0  0  0  0  0
   -3.3047    2.7932   -1.4125 C   0  0  0  0  0  0  0  0  0  0  0  0
   -4.0999    4.0182   -1.7672 C   0  0  0  0  0  0  0  0  0  0  0  0
   -4.0405    1.7555   -0.8824 N   0  0  0  0  0  0  0  0  0  0  0  0
   -3.4111    0.6719   -0.5294 C   0  0  0  0  0  0  0  0  0  0  0  0
   -4.1810   -0.4363    0.0756 C   0  0  0  0  0  0  0  0  0  0  0  0
   -5.3059   -0.9191   -0.6042 C   0  0  0  0  0  0  0  0  0  0  0  0
   -6.0775   -1.9347   -0.0389 C   0  0  0  0  0  0  0  0  0  0  0  0
   -5.7342   -2.4535    1.2104 C   0  0  0  0  0  0  0  0  0  0  0  0
   -4.6262   -1.9494    1.8936 C   0  0  0  0  0  0  0  0  0  0  0  0
   -4.2262   -2.5800    3.4445 Cl  0  0  0  0  0  0  0  0  0  0  0  0
   -3.8493   -0.9349    1.3384 C   0  0  0  0  0  0  0  0  0  0  0  0
   -2.0422    0.5206   -0.7132 N   0  0  0  0  0  0  0  0  0  0  0  0
   -1.1516   -0.5288   -0.5073 C   0  0  0  0  0  0  0  0  0  0  0  0
   -1.3703   -1.6592   -0.1010 O   0  0  0  0  0  0  0  0  0  0  0  0
    4.7123    1.2728    0.8897 H   0  0  0  0  0  0  0  0  0  0  0  0
    5.1658    1.8330   -0.7267 H   0  0  0  0  0  0  0  0  0  0  0  0
    6.3595    1.8292    0.5791 H   0  0  0  0  0  0  0  0  0  0  0  0
    6.7774   -0.0266   -0.9542 H   0  0  0  0  0  0  0  0  0  0  0  0
    6.3623   -0.6511    0.6340 H   0  0  0  0  0  0  0  0  0  0  0  0
    5.3211   -1.6656   -1.5730 H   0  0  0  0  0  0  0  0  0  0  0  0
    4.2262   -0.2987   -1.5251 H   0  0  0  0  0  0  0  0  0  0  0  0
    3.3115   -2.4092   -0.5172 H   0  0  0  0  0  0  0  0  0  0  0  0
    4.6088   -2.4439    0.6572 H   0  0  0  0  0  0  0  0  0  0  0  0
    3.1080   -0.1113    2.9277 H   0  0  0  0  0  0  0  0  0  0  0  0
    4.6927   -0.7078    2.3969 H   0  0  0  0  0  0  0  0  0  0  0  0
    3.4116   -1.8630    2.8521 H   0  0  0  0  0  0  0  0  0  0  0  0
    2.0570   -0.2915   -1.4614 H   0  0  0  0  0  0  0  0  0  0  0  0
    1.2027   -1.7635   -0.8907 H   0  0  0  0  0  0  0  0  0  0  0  0
   -1.3948    3.5685   -2.0112 H   0  0  0  0  0  0  0  0  0  0  0  0
   -3.4708    4.8156   -2.1769 H   0  0  0  0  0  0  0  0  0  0  0  0
   -4.6046    4.4128   -0.8791 H   0  0  0  0  0  0  0  0  0  0  0  0
   -4.8595    3.7725   -2.5167 H   0  0  0  0  0  0  0  0  0  0  0  0
   -5.5828   -0.5031   -1.5705 H   0  0  0  0  0  0  0  0  0  0  0  0
   -6.9474   -2.3167   -0.5673 H   0  0  0  0  0  0  0  0  0  0  0  0
   -6.3371   -3.2438    1.6502 H   0  0  0  0  0  0  0  0  0  0  0  0
   -2.9966   -0.5424    1.8856 H   0  0  0  0  0  0  0  0  0  0  0  0
  1  2  1  0
  2  3  1  0
  3  4  1  0
  4  5  1  0
  5  6  1  0
  5  7  1  0
  7  8  2  0
  7  9  1  0
  9 10  1  0
 10 11  1  0
 11 12  2  0
 12 13  1  0
 13 14  2  0
 14 15  1  0
 14 16  1  0
 16 17  2  0
 17 18  1  0
 18 19  2  0
 19 20  1  0
 20 21  2  0
 21 22  1  0
 22 23  1  0
 22 24  2  0
 17 25  1  0
 25 26  1  0
 26 27  2  0
 26 10  1  0
 25 12  1  0
 24 18  1  0
  1 28  1  0
  1 29  1  0
  1 30  1  0
  2 31  1  0
  2 32  1  0
  3 33  1  0
  3 34  1  0
  4 35  1  0
  4 36  1  0
  6 37  1  0
  6 38  1  0
  6 39  1  0
  9 40  1  0
  9 41  1  0
 13 42  1  0
 15 43  1  0
 15 44  1  0
 15 45  1  0
 19 46  1  0
 20 47  1  0
 21 48  1  0
 24 49  1  0
M  END
$$$$
