
     RDKit          3D

 26 28  0  0  0  0  0  0  0  0999 V2000
   -3.8772    2.4359    1.9606 O   0  0  0  0  0  0  0  0  0  0  0  0
   -4.1469    1.3857    1.3610 N   0  0  0  0  0  4  0  0  0  0  0  0
   -5.2674    0.8653    1.3044 O   0  0  0  0  0  1  0  0  0  0  0  0
   -3.0802    0.7755    0.6161 C   0  0  0  0  0  0  0  0  0  0  0  0
   -2.1901    1.5423   -0.1595 C   0  0  0  0  0  0  0  0  0  0  0  0
   -1.1442    0.9340   -0.8942 C   0  0  0  0  0  0  0  0  0  0  0  0
   -0.9105   -0.4616   -0.8893 C   0  0  0  0  0  0  0  0  0  0  0  0
    0.4115   -1.2378   -1.7525 S   0  0  0  0  0  0  0  0  0  0  0  0
    1.8884   -0.6433   -0.9144 C   0  0  0  0  0  0  0  0  0  0  0  0
    3.0614   -0.5608   -1.6915 C   0  0  0  0  0  0  0  0  0  0  0  0
    4.2636   -0.1337   -1.1315 C   0  0  0  0  0  0  0  0  0  0  0  0
    4.3152    0.2103    0.2103 C   0  0  0  0  0  0  0  0  0  0  0  0
    3.1580    0.1215    0.9780 C   0  0  0  0  0  0  0  0  0  0  0  0
    1.9421   -0.3002    0.4455 N   0  0  0  0  0  4  0  0  0  0  0  0
    0.9319   -0.3431    1.2228 O   0  0  0  0  0  1  0  0  0  0  0  0
   -1.8170   -1.2374   -0.1192 C   0  0  0  0  0  0  0  0  0  0  0  0
   -1.8904   -2.5643    0.0661 N   0  0  0  0  0  0  0  0  0  0  0  0
   -2.9466   -2.7749    0.9294 O   0  0  0  0  0  0  0  0  0  0  0  0
   -3.5683   -1.5922    1.2790 N   0  0  0  0  0  0  0  0  0  0  0  0
   -2.9027   -0.6181    0.6433 C   0  0  0  0  0  0  0  0  0  0  0  0
   -2.2970    2.6267   -0.1962 H   0  0  0  0  0  0  0  0  0  0  0  0
   -0.4801    1.5791   -1.4703 H   0  0  0  0  0  0  0  0  0  0  0  0
    3.0404   -0.8364   -2.7448 H   0  0  0  0  0  0  0  0  0  0  0  0
    5.1605   -0.0765   -1.7456 H   0  0  0  0  0  0  0  0  0  0  0  0
    5.2462    0.5415    0.6629 H   0  0  0  0  0  0  0  0  0  0  0  0
    3.0993    0.3628    2.0295 H   0  0  0  0  0  0  0  0  0  0  0  0
  1  2  2  0
  2  3  1  0
  2  4  1  0
  4  5  2  0
  5  6  1  0
  6  7  2  0
  7  8  1  0
  8  9  1  0
  9 10  2  0
 10 11  1  0
 11 12  2  0
 12 13  1  0
 13 14  2  0
 14 15  1  0
  7 16  1  0
 16 17  2  0
 17 18  1  0
 18 19  1  0
 19 20  2  0
 20  4  1  0
 14  9  1  0
 20 16  1  0
  5 21  1  0
  6 22  1  0
 10 23  1  0
 11 24  1  0
 12 25  1  0
 13 26  1  0
M  CHG  4   2   1   3  -1  14   1  15  -1
M  END
$$$$
