
     RDKit          3D

 36 38  0  0  0  0  0  0  0  0999 V2000
    0.4674   -3.6535    1.4383 C   0  0  0  0  0  0  0  0  0  0  0  0
   -0.6210   -2.7122    1.1109 C   0  0  0  0  0  0  0  0  0  0  0  0
   -1.8824   -3.1847    1.2780 O   0  0  0  0  0  0  0  0  0  0  0  0
   -2.7940   -2.2229    0.9054 N   0  0  0  0  0  0  0  0  0  0  0  0
   -2.0831   -1.1475    0.5258 C   0  0  0  0  0  0  0  0  0  0  0  0
   -2.7575    0.0696    0.0728 C   0  0  0  0  0  0  0  0  0  0  0  0
   -3.9081   -0.0199   -0.7248 C   0  0  0  0  0  0  0  0  0  0  0  0
   -4.5549    1.1344   -1.1730 C   0  0  0  0  0  0  0  0  0  0  0  0
   -4.0614    2.3897   -0.8243 C   0  0  0  0  0  0  0  0  0  0  0  0
   -2.9260    2.4927   -0.0230 C   0  0  0  0  0  0  0  0  0  0  0  0
   -2.2786    1.3388    0.4269 C   0  0  0  0  0  0  0  0  0  0  0  0
   -0.6821   -1.4174    0.6409 C   0  0  0  0  0  0  0  0  0  0  0  0
    0.4811   -0.6225    0.3006 C   0  0  0  0  0  0  0  0  0  0  0  0
    1.4560   -0.3381    1.2673 C   0  0  0  0  0  0  0  0  0  0  0  0
    2.5679    0.4412    0.9393 C   0  0  0  0  0  0  0  0  0  0  0  0
    2.7051    0.9322   -0.3621 C   0  0  0  0  0  0  0  0  0  0  0  0
    4.1084    1.9389   -0.7681 S   0  0  0  0  0  6  0  0  0  0  0  0
    5.2431    0.7739   -1.2036 N   0  0  0  0  0  0  0  0  0  0  0  0
    3.8132    2.6688   -1.9792 O   0  0  0  0  0  0  0  0  0  0  0  0
    4.5703    2.5838    0.4372 O   0  0  0  0  0  0  0  0  0  0  0  0
    1.7350    0.6678   -1.3315 C   0  0  0  0  0  0  0  0  0  0  0  0
    0.6264   -0.1138   -0.9981 C   0  0  0  0  0  0  0  0  0  0  0  0
    0.1085   -4.6876    1.4431 H   0  0  0  0  0  0  0  0  0  0  0  0
    0.8775   -3.4313    2.4281 H   0  0  0  0  0  0  0  0  0  0  0  0
    1.2768   -3.5853    0.7050 H   0  0  0  0  0  0  0  0  0  0  0  0
   -4.3084   -0.9932   -1.0032 H   0  0  0  0  0  0  0  0  0  0  0  0
   -5.4455    1.0512   -1.7906 H   0  0  0  0  0  0  0  0  0  0  0  0
   -4.5662    3.2880   -1.1706 H   0  0  0  0  0  0  0  0  0  0  0  0
   -2.5466    3.4721    0.2582 H   0  0  0  0  0  0  0  0  0  0  0  0
   -1.4067    1.4479    1.0670 H   0  0  0  0  0  0  0  0  0  0  0  0
    1.3477   -0.7030    2.2871 H   0  0  0  0  0  0  0  0  0  0  0  0
    3.3111    0.6701    1.7013 H   0  0  0  0  0  0  0  0  0  0  0  0
    5.4816    0.8978   -2.1893 H   0  0  0  0  0  0  0  0  0  0  0  0
    4.9461   -0.1791   -0.9997 H   0  0  0  0  0  0  0  0  0  0  0  0
    1.8260    1.0688   -2.3391 H   0  0  0  0  0  0  0  0  0  0  0  0
   -0.1270   -0.3156   -1.7583 H   0  0  0  0  0  0  0  0  0  0  0  0
  1  2  1  0
  2  3  1  0
  3  4  1  0
  4  5  2  0
  5  6  1  0
  6  7  2  0
  7  8  1  0
  8  9  2  0
  9 10  1  0
 10 11  2  0
  5 12  1  0
 12 13  1  0
 13 14  2  0
 14 15  1  0
 15 16  2  0
 16 17  1  0
 17 18  1  0
 17 19  2  0
 17 20  2  0
 16 21  1  0
 21 22  2  0
 12  2  2  0
 22 13  1  0
 11  6  1  0
  1 23  1  0
  1 24  1  0
  1 25  1  0
  7 26  1  0
  8 27  1  0
  9 28  1  0
 10 29  1  0
 11 30  1  0
 14 31  1  0
 15 32  1  0
 18 33  1  0
 18 34  1  0
 21 35  1  0
 22 36  1  0
M  END
$$$$
