
     RDKit          3D

 18 18  0  0  0  0  0  0  0  0999 V2000
   -3.3155   -1.6590   -0.2285 O   0  0  0  0  0  0  0  0  0  0  0  0
   -2.8230   -0.6004    0.1144 C   0  0  0  0  0  0  0  0  0  0  0  0
   -3.5840    0.4126    0.5636 O   0  0  0  0  0  0  0  0  0  0  0  0
   -1.3772   -0.2692    0.0947 C   0  0  0  0  0  0  0  0  0  0  0  0
   -0.4786   -1.2459   -0.3546 C   0  0  0  0  0  0  0  0  0  0  0  0
    0.8941   -0.9786   -0.3907 C   0  0  0  0  0  0  0  0  0  0  0  0
    1.3772    0.2692    0.0230 C   0  0  0  0  0  0  0  0  0  0  0  0
    2.8230    0.6004    0.0033 C   0  0  0  0  0  0  0  0  0  0  0  0
    3.3155    1.6590    0.3462 O   0  0  0  0  0  0  0  0  0  0  0  0
    3.5840   -0.4126   -0.4459 O   0  0  0  0  0  0  0  0  0  0  0  0
    0.4786    1.2459    0.4723 C   0  0  0  0  0  0  0  0  0  0  0  0
   -0.8941    0.9786    0.5084 C   0  0  0  0  0  0  0  0  0  0  0  0
   -4.4970    0.0580    0.5223 H   0  0  0  0  0  0  0  0  0  0  0  0
   -0.8435   -2.2193   -0.6785 H   0  0  0  0  0  0  0  0  0  0  0  0
    1.5753   -1.7500   -0.7428 H   0  0  0  0  0  0  0  0  0  0  0  0
    4.4970   -0.0580   -0.4046 H   0  0  0  0  0  0  0  0  0  0  0  0
    0.8435    2.2193    0.7962 H   0  0  0  0  0  0  0  0  0  0  0  0
   -1.5753    1.7500    0.8605 H   0  0  0  0  0  0  0  0  0  0  0  0
  1  2  2  0
  2  3  1  0
  2  4  1  0
  4  5  2  0
  5  6  1  0
  6  7  2  0
  7  8  1  0
  8  9  2  0
  8 10  1  0
  7 11  1  0
 11 12  2  0
 12  4  1  0
  3 13  1  0
  5 14  1  0
  6 15  1  0
 10 16  1  0
 11 17  1  0
 12 18  1  0
M  END
$$$$
