
     RDKit          3D

 28 29  0  0  0  0  0  0  0  0999 V2000
    0.0166    0.6707    1.0713 O   0  0  0  0  0  0  0  0  0  0  0  0
    0.0008    0.0340    0.0275 C   0  0  0  0  0  0  0  0  0  0  0  0
   -1.1467   -0.3389   -0.6583 N   0  0  0  0  0  0  0  0  0  0  0  0
   -2.4761    0.0321   -0.3644 C   0  0  0  0  0  0  0  0  0  0  0  0
   -3.4925   -0.6279   -1.0664 C   0  0  0  0  0  0  0  0  0  0  0  0
   -4.8357   -0.3124   -0.8412 C   0  0  0  0  0  0  0  0  0  0  0  0
   -5.1785    0.6733    0.0855 C   0  0  0  0  0  0  0  0  0  0  0  0
   -6.8564    1.0141    0.3126 Cl  0  0  0  0  0  0  0  0  0  0  0  0
   -4.1707    1.3442    0.7841 C   0  0  0  0  0  0  0  0  0  0  0  0
   -4.5202    2.5845    1.9372 Cl  0  0  0  0  0  0  0  0  0  0  0  0
   -2.8250    1.0242    0.5561 C   0  0  0  0  0  0  0  0  0  0  0  0
    1.1280   -0.4204   -0.6430 N   0  0  0  0  0  0  0  0  0  0  0  0
    2.4684   -0.3467   -0.2078 C   0  0  0  0  0  0  0  0  0  0  0  0
    3.4601   -0.6823   -1.1380 C   0  0  0  0  0  0  0  0  0  0  0  0
    4.8120   -0.6445   -0.7840 C   0  0  0  0  0  0  0  0  0  0  0  0
    5.1883   -0.2765    0.5086 C   0  0  0  0  0  0  0  0  0  0  0  0
    6.8752   -0.2531    0.8786 Cl  0  0  0  0  0  0  0  0  0  0  0  0
    4.2051    0.0510    1.4467 C   0  0  0  0  0  0  0  0  0  0  0  0
    4.5966    0.5037    3.0690 Cl  0  0  0  0  0  0  0  0  0  0  0  0
    2.8507    0.0128    1.0875 C   0  0  0  0  0  0  0  0  0  0  0  0
   -1.0310   -1.0818   -1.3312 H   0  0  0  0  0  0  0  0  0  0  0  0
   -3.2581   -1.4004   -1.7950 H   0  0  0  0  0  0  0  0  0  0  0  0
   -5.6103   -0.8399   -1.3931 H   0  0  0  0  0  0  0  0  0  0  0  0
   -2.0664    1.5733    1.1064 H   0  0  0  0  0  0  0  0  0  0  0  0
    0.9875   -0.6769   -1.6085 H   0  0  0  0  0  0  0  0  0  0  0  0
    3.1994   -0.9733   -2.1529 H   0  0  0  0  0  0  0  0  0  0  0  0
    5.5672   -0.9040   -1.5225 H   0  0  0  0  0  0  0  0  0  0  0  0
    2.1118    0.2609    1.8440 H   0  0  0  0  0  0  0  0  0  0  0  0
  1  2  2  0
  2  3  1  0
  3  4  1  0
  4  5  2  0
  5  6  1  0
  6  7  2  0
  7  8  1  0
  7  9  1  0
  9 10  1  0
  9 11  2  0
  2 12  1  0
 12 13  1  0
 13 14  2  0
 14 15  1  0
 15 16  2  0
 16 17  1  0
 16 18  1  0
 18 19  1  0
 18 20  2  0
 11  4  1  0
 20 13  1  0
  3 21  1  0
  5 22  1  0
  6 23  1  0
 11 24  1  0
 12 25  1  0
 14 26  1  0
 15 27  1  0
 20 28  1  0
M  END
$$$$
