
     RDKit          3D

 18 19  0  0  0  0  0  0  0  0999 V2000
    1.6143   -2.3733    0.4116 O   0  0  0  0  0  0  0  0  0  0  0  0
    1.3409   -1.0464    0.1546 C   0  0  0  0  0  0  0  0  0  0  0  0
    2.3752   -0.1638   -0.1531 C   0  0  0  0  0  0  0  0  0  0  0  0
    4.0174   -0.6841   -0.2248 Cl  0  0  0  0  0  0  0  0  0  0  0  0
    2.0855    1.1701   -0.4098 C   0  0  0  0  0  0  0  0  0  0  0  0
    0.7614    1.6088   -0.3561 C   0  0  0  0  0  0  0  0  0  0  0  0
    0.4733    3.2846   -0.6871 Cl  0  0  0  0  0  0  0  0  0  0  0  0
   -0.2968    0.7177   -0.0440 C   0  0  0  0  0  0  0  0  0  0  0  0
   -1.6609    1.0771    0.0314 C   0  0  0  0  0  0  0  0  0  0  0  0
   -2.6277    0.1281    0.3459 C   0  0  0  0  0  0  0  0  0  0  0  0
   -2.2121   -1.1660    0.5798 C   0  0  0  0  0  0  0  0  0  0  0  0
   -0.9217   -1.5600    0.5202 N   0  0  0  0  0  0  0  0  0  0  0  0
    0.0122   -0.6337    0.2144 C   0  0  0  0  0  0  0  0  0  0  0  0
    0.7374   -2.7733    0.5969 H   0  0  0  0  0  0  0  0  0  0  0  0
    2.8859    1.8653   -0.6506 H   0  0  0  0  0  0  0  0  0  0  0  0
   -1.9812    2.0999   -0.1544 H   0  0  0  0  0  0  0  0  0  0  0  0
   -3.6770    0.3955    0.4058 H   0  0  0  0  0  0  0  0  0  0  0  0
   -2.9259   -1.9466    0.8293 H   0  0  0  0  0  0  0  0  0  0  0  0
  1  2  1  0
  2  3  2  0
  3  4  1  0
  3  5  1  0
  5  6  2  0
  6  7  1  0
  6  8  1  0
  8  9  2  0
  9 10  1  0
 10 11  2  0
 11 12  1  0
 12 13  2  0
 13  2  1  0
 13  8  1  0
  1 14  1  0
  5 15  1  0
  9 16  1  0
 10 17  1  0
 11 18  1  0
M  END
$$$$
