
     RDKit          3D

 61 65  0  0  0  0  0  0  0  0999 V2000
   -9.6133    1.3363    0.5976 C   0  0  0  0  0  0  0  0  0  0  0  0
   -8.5552    0.9271   -0.2595 O   0  0  0  0  0  0  0  0  0  0  0  0
   -7.2799    1.2873    0.1025 C   0  0  0  0  0  0  0  0  0  0  0  0
   -6.9207    1.7294    1.3822 C   0  0  0  0  0  0  0  0  0  0  0  0
   -5.6134    2.0733    1.6979 C   0  0  0  0  0  0  0  0  0  0  0  0
   -5.3432    2.4956    2.9444 N   0  0  0  0  0  0  0  0  0  0  0  0
   -4.0746    2.8474    3.2437 C   0  0  0  0  0  0  0  0  0  0  0  0
   -3.0314    2.7977    2.3448 C   0  0  0  0  0  0  0  0  0  0  0  0
   -3.3125    2.3466    1.0592 C   0  0  0  0  0  0  0  0  0  0  0  0
   -2.3368    2.3489    0.0801 O   0  0  0  0  0  0  0  0  0  0  0  0
   -1.1660    1.6999    0.3882 C   0  0  0  0  0  0  0  0  0  0  0  0
   -1.1197    0.3128    0.4931 C   0  0  0  0  0  0  0  0  0  0  0  0
    0.1037   -0.3226    0.7266 C   0  0  0  0  0  0  0  0  0  0  0  0
    1.2800    0.4243    0.8473 C   0  0  0  0  0  0  0  0  0  0  0  0
    2.5497   -0.1372    1.0762 N   0  0  0  0  0  0  0  0  0  0  0  0
    2.8869   -1.4757    1.1147 C   0  0  0  0  0  0  0  0  0  0  0  0
    2.1637   -2.4430    0.9281 O   0  0  0  0  0  0  0  0  0  0  0  0
    4.3434   -1.7016    1.4002 C   0  0  0  0  0  0  0  0  0  0  0  0
    5.2808   -1.2974    0.3018 C   0  0  0  0  0  0  0  0  0  0  0  0
    5.6287   -0.1266    0.2457 O   0  0  0  0  0  0  0  0  0  0  0  0
    5.6192   -2.3273   -0.5455 N   0  0  0  0  0  0  0  0  0  0  0  0
    6.4601   -2.2672   -1.6694 C   0  0  0  0  0  0  0  0  0  0  0  0
    6.6960   -3.4713   -2.3484 C   0  0  0  0  0  0  0  0  0  0  0  0
    7.5286   -3.5043   -3.4691 C   0  0  0  0  0  0  0  0  0  0  0  0
    8.1177   -2.3310   -3.9170 C   0  0  0  0  0  0  0  0  0  0  0  0
    8.9140   -2.3615   -4.9929 F   0  0  0  0  0  0  0  0  0  0  0  0
    7.8888   -1.1278   -3.2646 C   0  0  0  0  0  0  0  0  0  0  0  0
    7.0596   -1.0938   -2.1378 C   0  0  0  0  0  0  0  0  0  0  0  0
    4.8042   -1.4646    2.8400 C   0  0  0  0  0  0  0  0  0  0  0  0
    4.7378   -2.8625    2.3133 C   0  0  0  0  0  0  0  0  0  0  0  0
    1.2164    1.8186    0.7340 C   0  0  0  0  0  0  0  0  0  0  0  0
   -0.0002    2.4551    0.4890 C   0  0  0  0  0  0  0  0  0  0  0  0
   -4.6245    1.9759    0.7000 C   0  0  0  0  0  0  0  0  0  0  0  0
   -4.9770    1.5156   -0.5872 C   0  0  0  0  0  0  0  0  0  0  0  0
   -6.2935    1.1614   -0.8877 C   0  0  0  0  0  0  0  0  0  0  0  0
   -6.7142    0.7132   -2.1136 O   0  0  0  0  0  0  0  0  0  0  0  0
   -5.7143    0.3075   -3.0376 C   0  0  0  0  0  0  0  0  0  0  0  0
   -9.5814    2.4153    0.7869 H   0  0  0  0  0  0  0  0  0  0  0  0
  -10.5579    1.1142    0.0911 H   0  0  0  0  0  0  0  0  0  0  0  0
   -9.5984    0.7703    1.5345 H   0  0  0  0  0  0  0  0  0  0  0  0
   -7.6569    1.8155    2.1734 H   0  0  0  0  0  0  0  0  0  0  0  0
   -3.9198    3.1924    4.2602 H   0  0  0  0  0  0  0  0  0  0  0  0
   -2.0399    3.1183    2.6386 H   0  0  0  0  0  0  0  0  0  0  0  0
   -2.0234   -0.2812    0.3792 H   0  0  0  0  0  0  0  0  0  0  0  0
    0.1030   -1.4040    0.7963 H   0  0  0  0  0  0  0  0  0  0  0  0
    3.3249    0.5126    1.1515 H   0  0  0  0  0  0  0  0  0  0  0  0
    5.1999   -3.2277   -0.3437 H   0  0  0  0  0  0  0  0  0  0  0  0
    6.2436   -4.4008   -2.0134 H   0  0  0  0  0  0  0  0  0  0  0  0
    7.7215   -4.4382   -3.9920 H   0  0  0  0  0  0  0  0  0  0  0  0
    8.3569   -0.2189   -3.6299 H   0  0  0  0  0  0  0  0  0  0  0  0
    6.8992   -0.1333   -1.6570 H   0  0  0  0  0  0  0  0  0  0  0  0
    4.0658   -1.1646    3.5784 H   0  0  0  0  0  0  0  0  0  0  0  0
    5.7824   -1.0213    2.9946 H   0  0  0  0  0  0  0  0  0  0  0  0
    5.6789   -3.3754    2.1438 H   0  0  0  0  0  0  0  0  0  0  0  0
    3.9492   -3.5100    2.6874 H   0  0  0  0  0  0  0  0  0  0  0  0
    2.1163    2.4246    0.8107 H   0  0  0  0  0  0  0  0  0  0  0  0
   -0.0363    3.5348    0.3810 H   0  0  0  0  0  0  0  0  0  0  0  0
   -4.2016    1.4460   -1.3405 H   0  0  0  0  0  0  0  0  0  0  0  0
   -5.0481   -0.4428   -2.6001 H   0  0  0  0  0  0  0  0  0  0  0  0
   -5.1507    1.1681   -3.4081 H   0  0  0  0  0  0  0  0  0  0  0  0
   -6.2160   -0.1525   -3.8944 H   0  0  0  0  0  0  0  0  0  0  0  0
  1  2  1  0
  2  3  1  0
  3  4  2  0
  4  5  1  0
  5  6  2  0
  6  7  1  0
  7  8  2  0
  8  9  1  0
  9 10  1  0
 10 11  1  0
 11 12  2  0
 12 13  1  0
 13 14  2  0
 14 15  1  0
 15 16  1  0
 16 17  2  0
 16 18  1  0
 18 19  1  0
 19 20  2  0
 19 21  1  0
 21 22  1  0
 22 23  2  0
 23 24  1  0
 24 25  2  0
 25 26  1  0
 25 27  1  0
 27 28  2  0
 18 29  1  0
 29 30  1  0
 14 31  1  0
 31 32  2  0
  9 33  2  0
 33 34  1  0
 34 35  2  0
 35 36  1  0
 36 37  1  0
 35  3  1  0
 33  5  1  0
 32 11  1  0
 30 18  1  0
 28 22  1  0
  1 38  1  0
  1 39  1  0
  1 40  1  0
  4 41  1  0
  7 42  1  0
  8 43  1  0
 12 44  1  0
 13 45  1  0
 15 46  1  0
 21 47  1  0
 23 48  1  0
 24 49  1  0
 27 50  1  0
 28 51  1  0
 29 52  1  0
 29 53  1  0
 30 54  1  0
 30 55  1  0
 31 56  1  0
 32 57  1  0
 34 58  1  0
 37 59  1  0
 37 60  1  0
 37 61  1  0
M  END
$$$$
