
     RDKit          3D

 47 45  0  0  0  0  0  0  0  0999 V2000
    4.9741   -0.4394    1.9816 C   0  0  0  0  0  0  0  0  0  0  0  0
    4.0176   -0.8333    0.8775 C   0  0  0  0  0  0  0  0  0  0  0  0
    3.3339    0.2216    0.2800 N   0  0  0  0  0  0  0  0  0  0  0  0
    4.0072    1.1667   -0.5022 C   0  0  0  0  0  0  0  0  0  0  0  0
    4.5061    0.4985   -1.7735 C   0  0  0  0  0  0  0  0  0  0  0  0
    1.9339    0.3603    0.4835 C   0  0  0  0  0  0  0  0  0  0  0  0
    1.2467   -0.7740   -0.2199 C   0  0  0  0  0  0  0  0  0  0  0  0
   -0.1993   -0.7817   -0.1070 N   0  0  0  0  0  0  0  0  0  0  0  0
   -0.9306    0.2851   -0.6377 C   0  0  0  0  0  0  0  0  0  0  0  0
   -0.2479    1.2231   -1.2122 O   0  0  0  0  0  0  0  0  0  0  0  0
   -2.3743    0.4783   -0.6279 C   0  0  0  0  0  0  0  0  0  0  0  0
   -2.8944    1.6437   -1.2325 C   0  0  0  0  0  0  0  0  0  0  0  0
   -4.2466    1.8595   -1.2459 C   0  0  0  0  0  0  0  0  0  0  0  0
   -4.8511    3.3284   -2.0120 Cl  0  0  0  0  0  0  0  0  0  0  0  0
   -5.1273    0.9633   -0.6800 C   0  0  0  0  0  0  0  0  0  0  0  0
   -6.5146    1.2650   -0.7402 N   0  0  0  0  0  0  0  0  0  0  0  0
   -4.6001   -0.1455   -0.1069 C   0  0  0  0  0  0  0  0  0  0  0  0
   -3.2305   -0.4243   -0.0603 C   0  0  0  0  0  0  0  0  0  0  0  0
   -2.7775   -1.5762    0.5426 O   0  0  0  0  0  0  0  0  0  0  0  0
   -3.7073   -2.4655    1.1083 C   0  0  0  0  0  0  0  0  0  0  0  0
    0.6892    0.0000    0.0000 Cl  0  0  0  0  0  0  0  0  0  0  0  0
   -0.0014    0.3741   -0.0000 O   0  0  0  0  0  0  0  0  0  0  0  0
    5.9457   -0.0818    1.5911 H   0  0  0  0  0  0  0  0  0  0  0  0
    5.1721   -1.3546    2.5768 H   0  0  0  0  0  0  0  0  0  0  0  0
    4.4666    0.3116    2.6354 H   0  0  0  0  0  0  0  0  0  0  0  0
    4.5926   -1.4092    0.0993 H   0  0  0  0  0  0  0  0  0  0  0  0
    3.3125   -1.5534    1.3255 H   0  0  0  0  0  0  0  0  0  0  0  0
    4.8616    1.6750    0.0036 H   0  0  0  0  0  0  0  0  0  0  0  0
    3.2647    1.9347   -0.8479 H   0  0  0  0  0  0  0  0  0  0  0  0
    4.5299    1.1923   -2.6304 H   0  0  0  0  0  0  0  0  0  0  0  0
    5.5061    0.0721   -1.5451 H   0  0  0  0  0  0  0  0  0  0  0  0
    3.8171   -0.3412   -1.9939 H   0  0  0  0  0  0  0  0  0  0  0  0
    1.6601    0.2878    1.5888 H   0  0  0  0  0  0  0  0  0  0  0  0
    1.5242    1.3156    0.1337 H   0  0  0  0  0  0  0  0  0  0  0  0
    1.6504   -1.7231    0.1901 H   0  0  0  0  0  0  0  0  0  0  0  0
    1.5691   -0.7578   -1.2909 H   0  0  0  0  0  0  0  0  0  0  0  0
   -0.7033   -1.5529    0.3550 H   0  0  0  0  0  0  0  0  0  0  0  0
   -2.2014    2.3427   -1.6744 H   0  0  0  0  0  0  0  0  0  0  0  0
   -7.2000    0.4877   -0.6390 H   0  0  0  0  0  0  0  0  0  0  0  0
   -6.8411    2.2521   -0.8844 H   0  0  0  0  0  0  0  0  0  0  0  0
   -5.2514   -0.8698    0.3454 H   0  0  0  0  0  0  0  0  0  0  0  0
   -4.4895   -2.7741    0.3751 H   0  0  0  0  0  0  0  0  0  0  0  0
   -3.2384   -3.3990    1.4839 H   0  0  0  0  0  0  0  0  0  0  0  0
   -4.2655   -1.9086    1.8987 H   0  0  0  0  0  0  0  0  0  0  0  0
   -0.6892    0.0000    0.0000 H   0  0  0  0  0  0  0  0  0  0  0  0
   -0.8062   -0.1876   -0.0000 H   0  0  0  0  0  0  0  0  0  0  0  0
    0.8076   -0.1866    0.0000 H   0  0  0  0  0  0  0  0  0  0  0  0
  1  2  1  0
  2  3  1  0
  3  4  1  0
  4  5  1  0
  3  6  1  0
  6  7  1  0
  7  8  1  0
  8  9  1  0
  9 10  2  0
  9 11  1  0
 11 12  2  0
 12 13  1  0
 13 14  1  0
 13 15  2  0
 15 16  1  0
 15 17  1  0
 17 18  2  0
 18 19  1  0
 19 20  1  0
 18 11  1  0
  1 23  1  0
  1 24  1  0
  1 25  1  0
  2 26  1  0
  2 27  1  0
  4 28  1  0
  4 29  1  0
  5 30  1  0
  5 31  1  0
  5 32  1  0
  6 33  1  0
  6 34  1  0
  7 35  1  0
  7 36  1  0
  8 37  1  0
 12 38  1  0
 16 39  1  0
 16 40  1  0
 17 41  1  0
 20 42  1  0
 20 43  1  0
 20 44  1  0
 21 45  1  0
 22 46  1  0
 22 47  1  0
M  END
$$$$
