
     RDKit          3D

100 99  0  0  0  0  0  0  0  0999 V2000
   -3.1541   -1.5390   -4.1706 C   0  0  0  0  0  0  0  0  0  0  0  0
   -3.3007   -3.0555   -3.1926 S   0  0  0  0  0  0  0  0  0  0  0  0
   -3.2310   -2.3462   -1.5094 C   0  0  0  0  0  0  0  0  0  0  0  0
   -1.8192   -1.8815   -1.1505 C   0  0  0  0  0  0  0  0  0  0  0  0
   -1.6835   -1.4823    0.3287 C   0  0  2  0  0  0  0  0  0  0  0  0
   -2.5442   -0.3459    0.6440 N   0  0  0  0  0  0  0  0  0  0  0  0
   -3.7861   -0.4453    1.2214 C   0  0  0  0  0  0  0  0  0  0  0  0
   -4.3377   -1.5189    1.4375 O   0  0  0  0  0  0  0  0  0  0  0  0
   -4.3887    0.9313    1.5916 C   0  0  1  0  0  0  0  0  0  0  0  0
   -4.0269    1.9216    0.5382 N   0  0  0  0  0  0  0  0  0  0  0  0
   -5.9073    0.8084    1.8097 C   0  0  0  0  0  0  0  0  0  0  0  0
   -6.5745    2.1152    2.1834 C   0  0  0  0  0  0  0  0  0  0  0  0
   -7.4605    2.7373    1.2921 C   0  0  0  0  0  0  0  0  0  0  0  0
   -8.0628    3.9530    1.6231 C   0  0  0  0  0  0  0  0  0  0  0  0
   -7.7891    4.5563    2.8503 C   0  0  0  0  0  0  0  0  0  0  0  0
   -6.9145    3.9433    3.7460 C   0  0  0  0  0  0  0  0  0  0  0  0
   -6.3105    2.7273    3.4174 C   0  0  0  0  0  0  0  0  0  0  0  0
   -0.2427   -1.0543    0.7236 C   0  0  0  0  0  0  0  0  0  0  0  0
   -0.0215   -0.0489    1.4032 O   0  0  0  0  0  0  0  0  0  0  0  0
    0.7851   -1.8981    0.3338 N   0  0  0  0  0  0  0  0  0  0  0  0
    2.1639   -1.4361    0.4929 C   0  0  1  0  0  0  0  0  0  0  0  0
    3.1627   -2.6001    0.4568 C   0  0  0  0  0  0  0  0  0  0  0  0
    3.2274   -3.4235    1.7502 C   0  0  0  0  0  0  0  0  0  0  0  0
    1.9425   -4.1883    2.0748 C   0  0  0  0  0  0  0  0  0  0  0  0
    2.1704   -5.1281    3.1599 N   0  0  0  0  0  0  0  0  0  0  0  0
    2.8496   -6.2887    3.0368 C   0  0  0  0  0  0  0  0  0  0  0  0
    3.1395   -6.9413    1.9756 N   0  0  0  0  0  0  0  0  0  0  0  0
    3.2451   -6.7681    4.2311 N   0  0  0  0  0  0  0  0  0  0  0  0
    2.4531   -0.4717   -0.6827 C   0  0  0  0  0  0  0  0  0  0  0  0
    1.8639   -0.5592   -1.7601 O   0  0  0  0  0  0  0  0  0  0  0  0
    3.4301    0.4663   -0.4286 N   0  0  0  0  0  0  0  0  0  0  0  0
    3.9611    1.3015   -1.5108 C   0  0  1  0  0  0  0  0  0  0  0  0
    4.2874    2.7099   -0.9908 C   0  0  0  0  0  0  0  0  0  0  0  0
    4.5376    3.7175   -2.0883 C   0  0  0  0  0  0  0  0  0  0  0  0
    3.4803    4.1575   -2.8972 C   0  0  0  0  0  0  0  0  0  0  0  0
    3.7150    5.0586   -3.9365 C   0  0  0  0  0  0  0  0  0  0  0  0
    5.0042    5.5321   -4.1726 C   0  0  0  0  0  0  0  0  0  0  0  0
    6.0603    5.1113   -3.3655 C   0  0  0  0  0  0  0  0  0  0  0  0
    5.8287    4.2098   -2.3253 C   0  0  0  0  0  0  0  0  0  0  0  0
    5.2299    0.5931   -2.0196 C   0  0  0  0  0  0  0  0  0  0  0  0
    5.6604    0.9283   -3.2699 N   0  0  0  0  0  0  0  0  0  0  0  0
    5.8630   -0.2153   -1.3395 O   0  0  0  0  0  0  0  0  0  0  0  0
    1.0496    1.4059   -0.2371 O   0  0  0  0  0  0  0  0  0  0  0  0
    0.5536    0.3041   -0.0368 C   0  0  0  0  0  0  0  0  0  0  0  0
    1.3795   -0.7483    0.2006 O   0  0  0  0  0  0  0  0  0  0  0  0
   -0.9365   -0.0537   -0.0244 C   0  0  0  0  0  0  0  0  0  0  0  0
   -1.2537   -0.9841   -0.9688 F   0  0  0  0  0  0  0  0  0  0  0  0
   -1.7430    1.0175   -0.2706 F   0  0  0  0  0  0  0  0  0  0  0  0
   -1.3320   -0.5748    1.1722 F   0  0  0  0  0  0  0  0  0  0  0  0
    0.9399    1.4923   -0.1596 O   0  0  0  0  0  0  0  0  0  0  0  0
    0.5297    0.3435   -0.0470 C   0  0  0  0  0  0  0  0  0  0  0  0
    1.4357   -0.6623    0.0741 O   0  0  0  0  0  0  0  0  0  0  0  0
   -0.9306   -0.1198    0.0074 C   0  0  0  0  0  0  0  0  0  0  0  0
   -1.3061   -0.4879    1.2656 F   0  0  0  0  0  0  0  0  0  0  0  0
   -1.1686   -1.1966   -0.7952 F   0  0  0  0  0  0  0  0  0  0  0  0
   -1.8079    0.8480   -0.3803 F   0  0  0  0  0  0  0  0  0  0  0  0
   -3.2616   -1.7882   -5.2314 H   0  0  0  0  0  0  0  0  0  0  0  0
   -3.9380   -0.8268   -3.9034 H   0  0  0  0  0  0  0  0  0  0  0  0
   -2.1711   -1.0783   -4.0309 H   0  0  0  0  0  0  0  0  0  0  0  0
   -3.5539   -3.1338   -0.8190 H   0  0  0  0  0  0  0  0  0  0  0  0
   -3.9561   -1.5302   -1.4466 H   0  0  0  0  0  0  0  0  0  0  0  0
   -1.5221   -1.0356   -1.7846 H   0  0  0  0  0  0  0  0  0  0  0  0
   -1.1272   -2.7027   -1.3706 H   0  0  0  0  0  0  0  0  0  0  0  0
   -1.9554   -2.3267    0.9749 H   0  0  0  0  0  0  0  0  0  0  0  0
   -2.1562    0.5954    0.5854 H   0  0  0  0  0  0  0  0  0  0  0  0
   -3.8990    1.2452    2.5213 H   0  0  0  0  0  0  0  0  0  0  0  0
   -4.5459    1.6883   -0.3097 H   0  0  0  0  0  0  0  0  0  0  0  0
   -4.3926    2.8330    0.8303 H   0  0  0  0  0  0  0  0  0  0  0  0
   -6.1188    0.0786    2.6029 H   0  0  0  0  0  0  0  0  0  0  0  0
   -6.3768    0.3983    0.9042 H   0  0  0  0  0  0  0  0  0  0  0  0
   -7.6916    2.2769    0.3333 H   0  0  0  0  0  0  0  0  0  0  0  0
   -8.7491    4.4274    0.9263 H   0  0  0  0  0  0  0  0  0  0  0  0
   -8.2576    5.5044    3.1063 H   0  0  0  0  0  0  0  0  0  0  0  0
   -6.7029    4.4131    4.7044 H   0  0  0  0  0  0  0  0  0  0  0  0
   -5.6313    2.2633    4.1319 H   0  0  0  0  0  0  0  0  0  0  0  0
    0.6289   -2.4122   -0.5248 H   0  0  0  0  0  0  0  0  0  0  0  0
    2.2584   -0.8793    1.4327 H   0  0  0  0  0  0  0  0  0  0  0  0
    2.9429   -3.2644   -0.3896 H   0  0  0  0  0  0  0  0  0  0  0  0
    4.1706   -2.2075    0.2740 H   0  0  0  0  0  0  0  0  0  0  0  0
    4.0597   -4.1318    1.6494 H   0  0  0  0  0  0  0  0  0  0  0  0
    3.4865   -2.7679    2.5925 H   0  0  0  0  0  0  0  0  0  0  0  0
    1.1645   -3.4915    2.3990 H   0  0  0  0  0  0  0  0  0  0  0  0
    1.5595   -4.7122    1.1930 H   0  0  0  0  0  0  0  0  0  0  0  0
    2.3666   -4.6651    4.0430 H   0  0  0  0  0  0  0  0  0  0  0  0
    2.7546   -6.4589    1.1627 H   0  0  0  0  0  0  0  0  0  0  0  0
    2.4879   -6.8207    4.9019 H   0  0  0  0  0  0  0  0  0  0  0  0
    3.6485   -7.6916    4.0950 H   0  0  0  0  0  0  0  0  0  0  0  0
    4.0948    0.2429    0.3030 H   0  0  0  0  0  0  0  0  0  0  0  0
    3.2315    1.3407   -2.3272 H   0  0  0  0  0  0  0  0  0  0  0  0
    5.1508    2.6745   -0.3133 H   0  0  0  0  0  0  0  0  0  0  0  0
    3.4530    3.0836   -0.3817 H   0  0  0  0  0  0  0  0  0  0  0  0
    2.4660    3.8024   -2.7215 H   0  0  0  0  0  0  0  0  0  0  0  0
    2.8889    5.3945   -4.5583 H   0  0  0  0  0  0  0  0  0  0  0  0
    5.1844    6.2363   -4.9817 H   0  0  0  0  0  0  0  0  0  0  0  0
    7.0641    5.4895   -3.5436 H   0  0  0  0  0  0  0  0  0  0  0  0
    6.6662    3.8940   -1.7047 H   0  0  0  0  0  0  0  0  0  0  0  0
    6.5184    0.5099   -3.6041 H   0  0  0  0  0  0  0  0  0  0  0  0
    5.2554    1.6902   -3.8013 H   0  0  0  0  0  0  0  0  0  0  0  0
    2.2826   -0.3665    0.1649 H   0  0  0  0  0  0  0  0  0  0  0  0
    2.3080   -0.2171    0.0351 H   0  0  0  0  0  0  0  0  0  0  0  0
  1  2  1  0
  2  3  1  0
  3  4  1  0
  4  5  1  0
  5  6  1  0
  6  7  1  0
  7  8  2  0
  7  9  1  0
  9 10  1  0
  9 11  1  0
 11 12  1  0
 12 13  2  0
 13 14  1  0
 14 15  2  0
 15 16  1  0
 16 17  2  0
  5 18  1  0
 18 19  2  0
 18 20  1  0
 20 21  1  0
 21 22  1  0
 22 23  1  0
 23 24  1  0
 24 25  1  0
 25 26  1  0
 26 27  2  3
 26 28  1  0
 21 29  1  0
 29 30  2  0
 29 31  1  0
 31 32  1  0
 32 33  1  0
 33 34  1  0
 34 35  2  0
 35 36  1  0
 36 37  2  0
 37 38  1  0
 38 39  2  0
 32 40  1  0
 40 41  1  0
 40 42  2  0
 43 44  2  0
 44 45  1  0
 44 46  1  0
 46 47  1  0
 46 48  1  0
 46 49  1  0
 50 51  2  0
 51 52  1  0
 51 53  1  0
 53 54  1  0
 53 55  1  0
 53 56  1  0
 17 12  1  0
 39 34  1  0
  1 57  1  0
  1 58  1  0
  1 59  1  0
  3 60  1  0
  3 61  1  0
  4 62  1  0
  4 63  1  0
  5 64  1  1
  6 65  1  0
  9 66  1  1
 10 67  1  0
 10 68  1  0
 11 69  1  0
 11 70  1  0
 13 71  1  0
 14 72  1  0
 15 73  1  0
 16 74  1  0
 17 75  1  0
 20 76  1  0
 21 77  1  1
 22 78  1  0
 22 79  1  0
 23 80  1  0
 23 81  1  0
 24 82  1  0
 24 83  1  0
 25 84  1  0
 27 85  1  0
 28 86  1  0
 28 87  1  0
 31 88  1  0
 32 89  1  6
 33 90  1  0
 33 91  1  0
 35 92  1  0
 36 93  1  0
 37 94  1  0
 38 95  1  0
 39 96  1  0
 41 97  1  0
 41 98  1  0
 45 99  1  0
 52100  1  0
M  END
$$$$
