
     RDKit          3D

 47 48  0  0  0  0  0  0  0  0999 V2000
    7.7004   -1.2763    2.0147 C   0  0  0  0  0  0  0  0  0  0  0  0
    7.8615   -1.0858    0.6141 O   0  0  0  0  0  0  0  0  0  0  0  0
    6.8236   -0.4780   -0.0453 C   0  0  0  0  0  0  0  0  0  0  0  0
    5.6426   -0.0054    0.5308 C   0  0  0  0  0  0  0  0  0  0  0  0
    4.6494    0.5909   -0.2658 C   0  0  0  0  0  0  0  0  0  0  0  0
    3.4345    1.0980    0.3852 C   0  0  0  0  0  0  0  0  0  0  0  0
    2.2024    0.9441   -0.1218 C   0  0  0  0  0  0  0  0  0  0  0  0
    1.0184    1.4704    0.6179 C   0  0  0  0  0  0  0  0  0  0  0  0
    1.1386    2.0220    1.7109 O   0  0  0  0  0  0  0  0  0  0  0  0
   -0.3297    1.3381   -0.0438 C   0  0  0  0  0  0  0  0  0  0  0  0
   -0.8863   -0.0619   -0.0093 C   0  0  0  0  0  0  0  0  0  0  0  0
   -0.1752   -1.0527    0.1535 O   0  0  0  0  0  0  0  0  0  0  0  0
   -2.3463   -0.2814   -0.2097 C   0  0  0  0  0  0  0  0  0  0  0  0
   -3.2041    0.6542   -0.6440 C   0  0  0  0  0  0  0  0  0  0  0  0
   -4.6380    0.3873   -0.8289 C   0  0  0  0  0  0  0  0  0  0  0  0
   -5.2707    0.8664   -1.9843 C   0  0  0  0  0  0  0  0  0  0  0  0
   -6.6343    0.6534   -2.1813 C   0  0  0  0  0  0  0  0  0  0  0  0
   -7.3617   -0.0272   -1.2147 C   0  0  0  0  0  0  0  0  0  0  0  0
   -8.6991   -0.2177   -1.4309 O   0  0  0  0  0  0  0  0  0  0  0  0
   -6.7615   -0.5030   -0.0446 C   0  0  0  0  0  0  0  0  0  0  0  0
   -7.6104   -1.1453    0.8199 O   0  0  0  0  0  0  0  0  0  0  0  0
   -7.0414   -1.6351    2.0290 C   0  0  0  0  0  0  0  0  0  0  0  0
   -5.3951   -0.2883    0.1458 C   0  0  0  0  0  0  0  0  0  0  0  0
    4.8643    0.7317   -1.6446 C   0  0  0  0  0  0  0  0  0  0  0  0
    6.0432    0.2650   -2.2266 C   0  0  0  0  0  0  0  0  0  0  0  0
    7.0057   -0.3332   -1.4250 C   0  0  0  0  0  0  0  0  0  0  0  0
    8.1552   -0.7794   -2.0200 O   0  0  0  0  0  0  0  0  0  0  0  0
    6.8425   -1.9205    2.2297 H   0  0  0  0  0  0  0  0  0  0  0  0
    7.6159   -0.3169    2.5355 H   0  0  0  0  0  0  0  0  0  0  0  0
    8.5972   -1.7802    2.3880 H   0  0  0  0  0  0  0  0  0  0  0  0
    5.4640   -0.0963    1.5982 H   0  0  0  0  0  0  0  0  0  0  0  0
    3.5782    1.5937    1.3441 H   0  0  0  0  0  0  0  0  0  0  0  0
    2.0146    0.4209   -1.0520 H   0  0  0  0  0  0  0  0  0  0  0  0
   -0.2534    1.6758   -1.0828 H   0  0  0  0  0  0  0  0  0  0  0  0
   -1.0095    2.0173    0.4842 H   0  0  0  0  0  0  0  0  0  0  0  0
   -2.6689   -1.2973    0.0062 H   0  0  0  0  0  0  0  0  0  0  0  0
   -2.8819    1.6573   -0.9121 H   0  0  0  0  0  0  0  0  0  0  0  0
   -4.7084    1.4010   -2.7464 H   0  0  0  0  0  0  0  0  0  0  0  0
   -7.1273    1.0156   -3.0784 H   0  0  0  0  0  0  0  0  0  0  0  0
   -9.0161   -0.7034   -0.6440 H   0  0  0  0  0  0  0  0  0  0  0  0
   -6.2756   -2.3916    1.8267 H   0  0  0  0  0  0  0  0  0  0  0  0
   -6.6394   -0.8165    2.6355 H   0  0  0  0  0  0  0  0  0  0  0  0
   -7.8403   -2.1141    2.6035 H   0  0  0  0  0  0  0  0  0  0  0  0
   -4.9010   -0.6279    1.0501 H   0  0  0  0  0  0  0  0  0  0  0  0
    4.1256    1.2162   -2.2781 H   0  0  0  0  0  0  0  0  0  0  0  0
    6.2135    0.3725   -3.2936 H   0  0  0  0  0  0  0  0  0  0  0  0
    8.6843   -1.1563   -1.2895 H   0  0  0  0  0  0  0  0  0  0  0  0
  1  2  1  0
  2  3  1  0
  3  4  2  0
  4  5  1  0
  5  6  1  0
  6  7  2  0
  7  8  1  0
  8  9  2  0
  8 10  1  0
 10 11  1  0
 11 12  2  0
 11 13  1  0
 13 14  2  0
 14 15  1  0
 15 16  2  0
 16 17  1  0
 17 18  2  0
 18 19  1  0
 18 20  1  0
 20 21  1  0
 21 22  1  0
 20 23  2  0
  5 24  2  0
 24 25  1  0
 25 26  2  0
 26 27  1  0
 26  3  1  0
 23 15  1  0
  1 28  1  0
  1 29  1  0
  1 30  1  0
  4 31  1  0
  6 32  1  0
  7 33  1  0
 10 34  1  0
 10 35  1  0
 13 36  1  0
 14 37  1  0
 16 38  1  0
 17 39  1  0
 19 40  1  0
 22 41  1  0
 22 42  1  0
 22 43  1  0
 23 44  1  0
 24 45  1  0
 25 46  1  0
 27 47  1  0
M  END
$$$$
