
     RDKit          3D

 78 79  0  0  0  0  0  0  0  0999 V2000
    4.1310   -0.8877    3.0133 C   0  0  0  0  0  0  0  0  0  0  0  0
    3.8343   -0.3626    1.5935 C   0  0  0  0  0  0  0  0  0  0  0  0
    5.1028    0.3244    1.0611 C   0  0  0  0  0  0  0  0  0  0  0  0
    2.7049    0.6785    1.6919 C   0  0  0  0  0  0  0  0  0  0  0  0
    3.4183   -1.5741    0.7106 C   0  0  0  0  0  0  0  0  0  0  0  0
    3.1785   -1.2984   -0.6939 N   0  0  0  0  0  0  0  0  0  0  0  0
    4.0699   -1.3911   -1.7418 C   0  0  0  0  0  0  0  0  0  0  0  0
    5.3357   -1.8164   -1.5997 N   0  0  0  0  0  0  0  0  0  0  0  0
    3.5306   -1.0056   -2.8741 N   0  0  0  0  0  0  0  0  0  0  0  0
    2.2310   -0.7012   -2.5715 C   0  0  0  0  0  0  0  0  0  0  0  0
    1.1875   -0.2384   -3.3745 C   0  0  0  0  0  0  0  0  0  0  0  0
   -0.0429   -0.0184   -2.7494 C   0  0  0  0  0  0  0  0  0  0  0  0
   -0.1796   -0.2712   -1.3844 C   0  0  0  0  0  0  0  0  0  0  0  0
   -1.4359   -0.0458   -0.6889 C   0  0  0  0  0  0  0  0  0  0  0  0
   -1.9055   -0.9392    0.2495 N   0  0  0  0  0  0  0  0  0  0  0  0
   -3.1396   -0.5260    0.6859 C   0  0  0  0  0  0  0  0  0  0  0  0
   -3.9725   -1.3036    1.6837 C   0  0  0  0  0  0  0  0  0  0  0  0
   -4.4469   -2.6234    1.0482 C   0  0  0  0  0  0  0  0  0  0  0  0
   -3.1525   -1.6059    2.9522 C   0  0  0  0  0  0  0  0  0  0  0  0
   -5.2123   -0.4801    2.0877 C   0  0  0  0  0  0  0  0  0  0  0  0
   -3.4638    0.6085    0.0981 N   0  0  0  0  0  0  0  0  0  0  0  0
   -2.4028    0.9446   -0.7151 C   0  0  0  0  0  0  0  0  0  0  0  0
   -2.3775    2.1956   -1.4593 C   0  0  0  0  0  0  0  0  0  0  0  0
   -1.2041    2.9545   -1.5837 C   0  0  0  0  0  0  0  0  0  0  0  0
   -1.2073    4.1598   -2.2928 C   0  0  0  0  0  0  0  0  0  0  0  0
   -2.3883    4.6157   -2.8661 C   0  0  0  0  0  0  0  0  0  0  0  0
   -2.3931    5.7781   -3.5340 F   0  0  0  0  0  0  0  0  0  0  0  0
   -3.5676    3.8928   -2.7364 C   0  0  0  0  0  0  0  0  0  0  0  0
   -3.5635    2.6824   -2.0348 C   0  0  0  0  0  0  0  0  0  0  0  0
    0.7983   -0.7578   -0.5775 N   0  0  0  0  0  0  0  0  0  0  0  0
    1.9704   -0.9187   -1.2256 C   0  0  0  0  0  0  0  0  0  0  0  0
   -1.0637   -0.1514   -0.3641 C   0  0  0  0  0  0  0  0  0  0  0  0
    0.6010   -0.3565    0.2256 S   0  0  0  0  0  6  0  0  0  0  0  0
    0.6045   -0.4188    1.6694 O   0  0  0  0  0  0  0  0  0  0  0  0
    1.2940   -1.3214   -0.5939 O   0  0  0  0  0  0  0  0  0  0  0  0
    1.1541    1.1124   -0.1521 O   0  0  0  0  0  0  0  0  0  0  0  0
    1.0944   -0.1734   -0.1855 C   0  0  0  0  0  0  0  0  0  0  0  0
   -0.6609   -0.3443    0.0290 S   0  0  0  0  0  6  0  0  0  0  0  0
   -1.2150   -1.0800   -1.0815 O   0  0  0  0  0  0  0  0  0  0  0  0
   -0.9495   -0.6732    1.4037 O   0  0  0  0  0  0  0  0  0  0  0  0
   -1.0594    1.2089   -0.1506 O   0  0  0  0  0  0  0  0  0  0  0  0
    4.9487   -1.6190    2.9952 H   0  0  0  0  0  0  0  0  0  0  0  0
    3.2518   -1.3774    3.4460 H   0  0  0  0  0  0  0  0  0  0  0  0
    4.4230   -0.0718    3.6896 H   0  0  0  0  0  0  0  0  0  0  0  0
    5.4262    1.1242    1.7408 H   0  0  0  0  0  0  0  0  0  0  0  0
    5.9356   -0.3856    0.9704 H   0  0  0  0  0  0  0  0  0  0  0  0
    4.9355    0.7815    0.0778 H   0  0  0  0  0  0  0  0  0  0  0  0
    1.7738    0.2177    2.0352 H   0  0  0  0  0  0  0  0  0  0  0  0
    2.5092    1.1566    0.7281 H   0  0  0  0  0  0  0  0  0  0  0  0
    2.9669    1.4759    2.3995 H   0  0  0  0  0  0  0  0  0  0  0  0
    2.5026   -2.0316    1.1071 H   0  0  0  0  0  0  0  0  0  0  0  0
    4.1808   -2.3604    0.7622 H   0  0  0  0  0  0  0  0  0  0  0  0
    5.7915   -2.0428   -2.4858 H   0  0  0  0  0  0  0  0  0  0  0  0
    5.5724   -2.4852   -0.8752 H   0  0  0  0  0  0  0  0  0  0  0  0
    1.3373   -0.0564   -4.4320 H   0  0  0  0  0  0  0  0  0  0  0  0
   -0.8833    0.3433   -3.3333 H   0  0  0  0  0  0  0  0  0  0  0  0
   -1.4183   -1.7771    0.5366 H   0  0  0  0  0  0  0  0  0  0  0  0
   -3.5993   -3.2618    0.7669 H   0  0  0  0  0  0  0  0  0  0  0  0
   -5.0794   -3.1914    1.7394 H   0  0  0  0  0  0  0  0  0  0  0  0
   -5.0306   -2.4384    0.1372 H   0  0  0  0  0  0  0  0  0  0  0  0
   -2.7637   -0.6872    3.3990 H   0  0  0  0  0  0  0  0  0  0  0  0
   -2.2943   -2.2568    2.7353 H   0  0  0  0  0  0  0  0  0  0  0  0
   -3.7693   -2.1068    3.7071 H   0  0  0  0  0  0  0  0  0  0  0  0
   -5.8362   -1.0242    2.8044 H   0  0  0  0  0  0  0  0  0  0  0  0
   -5.8421   -0.2443    1.2211 H   0  0  0  0  0  0  0  0  0  0  0  0
   -4.9261    0.4681    2.5544 H   0  0  0  0  0  0  0  0  0  0  0  0
   -0.2778    2.6322   -1.1124 H   0  0  0  0  0  0  0  0  0  0  0  0
   -0.3016    4.7486   -2.3895 H   0  0  0  0  0  0  0  0  0  0  0  0
   -4.4822    4.2768   -3.1817 H   0  0  0  0  0  0  0  0  0  0  0  0
   -4.4889    2.1240   -1.9157 H   0  0  0  0  0  0  0  0  0  0  0  0
   -1.0353    0.0045   -1.4421 H   0  0  0  0  0  0  0  0  0  0  0  0
   -1.6204   -1.0606   -0.1284 H   0  0  0  0  0  0  0  0  0  0  0  0
   -1.5161    0.7056    0.1361 H   0  0  0  0  0  0  0  0  0  0  0  0
    1.5818    1.4862    0.6494 H   0  0  0  0  0  0  0  0  0  0  0  0
    1.4786    0.4734    0.6046 H   0  0  0  0  0  0  0  0  0  0  0  0
    1.2928    0.2502   -1.1723 H   0  0  0  0  0  0  0  0  0  0  0  0
    1.5431   -1.1650   -0.1108 H   0  0  0  0  0  0  0  0  0  0  0  0
   -1.5241    1.5035    0.6634 H   0  0  0  0  0  0  0  0  0  0  0  0
  1  2  1  0
  2  3  1  0
  2  4  1  0
  2  5  1  0
  5  6  1  0
  6  7  1  0
  7  8  1  0
  7  9  2  0
  9 10  1  0
 10 11  2  0
 11 12  1  0
 12 13  2  0
 13 14  1  0
 14 15  1  0
 15 16  1  0
 16 17  1  0
 17 18  1  0
 17 19  1  0
 17 20  1  0
 16 21  2  0
 21 22  1  0
 22 23  1  0
 23 24  2  0
 24 25  1  0
 25 26  2  0
 26 27  1  0
 26 28  1  0
 28 29  2  0
 13 30  1  0
 30 31  2  0
 32 33  1  0
 33 34  2  0
 33 35  2  0
 33 36  1  0
 37 38  1  0
 38 39  2  0
 38 40  2  0
 38 41  1  0
 31  6  1  0
 31 10  1  0
 22 14  2  0
 29 23  1  0
  1 42  1  0
  1 43  1  0
  1 44  1  0
  3 45  1  0
  3 46  1  0
  3 47  1  0
  4 48  1  0
  4 49  1  0
  4 50  1  0
  5 51  1  0
  5 52  1  0
  8 53  1  0
  8 54  1  0
 11 55  1  0
 12 56  1  0
 15 57  1  0
 18 58  1  0
 18 59  1  0
 18 60  1  0
 19 61  1  0
 19 62  1  0
 19 63  1  0
 20 64  1  0
 20 65  1  0
 20 66  1  0
 24 67  1  0
 25 68  1  0
 28 69  1  0
 29 70  1  0
 32 71  1  0
 32 72  1  0
 32 73  1  0
 36 74  1  0
 37 75  1  0
 37 76  1  0
 37 77  1  0
 41 78  1  0
M  END
$$$$
