
     RDKit          3D

 66 65  0  0  0  0  0  0  0  0999 V2000
   -4.2131   -4.7020   -0.7867 N   0  0  0  0  0  0  0  0  0  0  0  0
   -3.3961   -3.8984   -1.6881 C   0  0  0  0  0  0  0  0  0  0  0  0
   -2.3080   -3.1304   -0.9354 C   0  0  0  0  0  0  0  0  0  0  0  0
   -2.8765   -2.0598    0.0022 C   0  0  0  0  0  0  0  0  0  0  0  0
   -1.8033   -1.3238    0.8186 C   0  0  0  0  0  0  0  0  0  0  0  0
   -0.7656   -0.5470   -0.0112 C   0  0  2  0  0  0  0  0  0  0  0  0
    0.2194    0.1734    0.8201 N   0  0  0  0  0  0  0  0  0  0  0  0
    1.1417   -0.6516    1.6274 C   0  0  1  0  0  0  0  0  0  0  0  0
    1.9914   -1.6673    0.8348 C   0  0  0  0  0  0  0  0  0  0  0  0
    2.8011   -1.1117   -0.3469 C   0  0  0  0  0  0  0  0  0  0  0  0
    3.9672   -0.2401    0.0428 C   0  0  0  0  0  0  0  0  0  0  0  0
    3.9659    1.1281   -0.2587 C   0  0  0  0  0  0  0  0  0  0  0  0
    5.0409    1.9359    0.1150 C   0  0  0  0  0  0  0  0  0  0  0  0
    6.1299    1.3853    0.7882 C   0  0  0  0  0  0  0  0  0  0  0  0
    6.1472    0.0243    1.0836 C   0  0  0  0  0  0  0  0  0  0  0  0
    5.0729   -0.7853    0.7107 C   0  0  0  0  0  0  0  0  0  0  0  0
    2.0188    0.2804    2.4857 C   0  0  0  0  0  0  0  0  0  0  0  0
    2.0163    1.5028    2.4894 O   0  0  0  0  0  0  0  0  0  0  0  0
    2.8292   -0.3909    3.3318 O   0  0  0  0  0  0  0  0  0  0  0  0
   -1.4433    0.4459   -0.9947 C   0  0  0  0  0  0  0  0  0  0  0  0
   -1.5905    0.1163   -2.1776 O   0  0  0  0  0  0  0  0  0  0  0  0
   -1.8871    1.6735   -0.5575 N   0  0  0  0  0  0  0  0  0  0  0  0
   -1.8862    2.2213    0.7881 C   0  0  0  0  0  0  0  0  0  0  0  0
   -3.0321    3.2188    0.7597 C   0  0  0  0  0  0  0  0  0  0  0  0
   -2.9570    3.7933   -0.6494 C   0  0  0  0  0  0  0  0  0  0  0  0
   -2.4730    2.6210   -1.5095 C   0  0  1  0  0  0  0  0  0  0  0  0
   -1.4323    3.1234   -2.5106 C   0  0  0  0  0  0  0  0  0  0  0  0
   -0.2197    3.1664   -2.3633 O   0  0  0  0  0  0  0  0  0  0  0  0
   -1.9956    3.6212   -3.6326 O   0  0  0  0  0  0  0  0  0  0  0  0
    0.0084    0.3976    0.0000 O   0  0  0  0  0  0  0  0  0  0  0  0
    0.0543    0.3941    0.0000 O   0  0  0  0  0  0  0  0  0  0  0  0
   -3.6263   -5.3882   -0.3143 H   0  0  0  0  0  0  0  0  0  0  0  0
   -4.8899   -5.2335   -1.3324 H   0  0  0  0  0  0  0  0  0  0  0  0
   -4.0383   -3.2003   -2.2346 H   0  0  0  0  0  0  0  0  0  0  0  0
   -2.9271   -4.5586   -2.4254 H   0  0  0  0  0  0  0  0  0  0  0  0
   -1.6851   -3.8307   -0.3657 H   0  0  0  0  0  0  0  0  0  0  0  0
   -1.6557   -2.6629   -1.6808 H   0  0  0  0  0  0  0  0  0  0  0  0
   -3.4711   -1.3399   -0.5721 H   0  0  0  0  0  0  0  0  0  0  0  0
   -3.5670   -2.5284    0.7142 H   0  0  0  0  0  0  0  0  0  0  0  0
   -2.3212   -0.6516    1.5109 H   0  0  0  0  0  0  0  0  0  0  0  0
   -1.2937   -2.0694    1.4406 H   0  0  0  0  0  0  0  0  0  0  0  0
   -0.2187   -1.2446   -0.6543 H   0  0  0  0  0  0  0  0  0  0  0  0
    0.7637    0.8146    0.2369 H   0  0  0  0  0  0  0  0  0  0  0  0
    0.5407   -1.2021    2.3617 H   0  0  0  0  0  0  0  0  0  0  0  0
    1.3225   -2.4442    0.4430 H   0  0  0  0  0  0  0  0  0  0  0  0
    2.6656   -2.1941    1.5219 H   0  0  0  0  0  0  0  0  0  0  0  0
    3.2011   -1.9577   -0.9211 H   0  0  0  0  0  0  0  0  0  0  0  0
    2.1455   -0.5783   -1.0447 H   0  0  0  0  0  0  0  0  0  0  0  0
    3.1250    1.5812   -0.7795 H   0  0  0  0  0  0  0  0  0  0  0  0
    5.0254    2.9973   -0.1177 H   0  0  0  0  0  0  0  0  0  0  0  0
    6.9650    2.0182    1.0781 H   0  0  0  0  0  0  0  0  0  0  0  0
    6.9983   -0.4085    1.6020 H   0  0  0  0  0  0  0  0  0  0  0  0
    5.1042   -1.8466    0.9474 H   0  0  0  0  0  0  0  0  0  0  0  0
    3.3499    0.3281    3.7489 H   0  0  0  0  0  0  0  0  0  0  0  0
   -0.9302    2.7319    0.9449 H   0  0  0  0  0  0  0  0  0  0  0  0
   -2.0264    1.4633    1.5574 H   0  0  0  0  0  0  0  0  0  0  0  0
   -3.9870    2.6954    0.8927 H   0  0  0  0  0  0  0  0  0  0  0  0
   -2.9492    3.9821    1.5376 H   0  0  0  0  0  0  0  0  0  0  0  0
   -2.2452    4.6281   -0.6710 H   0  0  0  0  0  0  0  0  0  0  0  0
   -3.9235    4.1786   -0.9880 H   0  0  0  0  0  0  0  0  0  0  0  0
   -3.2897    2.1177   -2.0368 H   0  0  0  0  0  0  0  0  0  0  0  0
   -1.2243    3.8804   -4.1803 H   0  0  0  0  0  0  0  0  0  0  0  0
   -0.7676   -0.1827    0.0000 H   0  0  0  0  0  0  0  0  0  0  0  0
    0.7592   -0.2149    0.0000 H   0  0  0  0  0  0  0  0  0  0  0  0
   -0.7835   -0.0928    0.0000 H   0  0  0  0  0  0  0  0  0  0  0  0
    0.7292   -0.3013    0.0000 H   0  0  0  0  0  0  0  0  0  0  0  0
  1  2  1  0
  2  3  1  0
  3  4  1  0
  4  5  1  0
  5  6  1  0
  6  7  1  0
  7  8  1  0
  8  9  1  0
  9 10  1  0
 10 11  1  0
 11 12  2  0
 12 13  1  0
 13 14  2  0
 14 15  1  0
 15 16  2  0
  8 17  1  0
 17 18  2  0
 17 19  1  0
  6 20  1  0
 20 21  2  0
 20 22  1  0
 22 23  1  0
 23 24  1  0
 24 25  1  0
 25 26  1  0
 26 27  1  0
 27 28  2  0
 27 29  1  0
 16 11  1  0
 26 22  1  0
  1 32  1  0
  1 33  1  0
  2 34  1  0
  2 35  1  0
  3 36  1  0
  3 37  1  0
  4 38  1  0
  4 39  1  0
  5 40  1  0
  5 41  1  0
  6 42  1  6
  7 43  1  0
  8 44  1  1
  9 45  1  0
  9 46  1  0
 10 47  1  0
 10 48  1  0
 12 49  1  0
 13 50  1  0
 14 51  1  0
 15 52  1  0
 16 53  1  0
 19 54  1  0
 23 55  1  0
 23 56  1  0
 24 57  1  0
 24 58  1  0
 25 59  1  0
 25 60  1  0
 26 61  1  6
 29 62  1  0
 30 63  1  0
 30 64  1  0
 31 65  1  0
 31 66  1  0
M  END
$$$$
