
     RDKit          3D

 43 45  0  0  0  0  0  0  0  0999 V2000
   -6.8533    2.8281   -0.3061 C   0  0  0  0  0  0  0  0  0  0  0  0
   -6.5118    1.4522   -0.2206 O   0  0  0  0  0  0  0  0  0  0  0  0
   -5.2135    1.1330    0.0926 C   0  0  0  0  0  0  0  0  0  0  0  0
   -4.2038    2.0749    0.3274 C   0  0  0  0  0  0  0  0  0  0  0  0
   -2.9088    1.6571    0.6377 C   0  0  0  0  0  0  0  0  0  0  0  0
   -2.6237    0.2925    0.7036 C   0  0  0  0  0  0  0  0  0  0  0  0
   -0.9697   -0.2234    1.1051 S   0  0  0  0  0  6  0  0  0  0  0  0
   -0.9894   -1.6581    1.2955 O   0  0  0  0  0  0  0  0  0  0  0  0
   -0.4860    0.6763    2.1284 O   0  0  0  0  0  0  0  0  0  0  0  0
   -0.2023    0.0524   -0.3761 N   0  0  0  0  0  0  0  0  0  0  0  0
    1.1634    0.5008   -0.1860 C   0  0  0  0  0  0  0  0  0  0  0  0
    2.1322   -0.3607   -0.3561 N   0  0  0  0  0  0  0  0  0  0  0  0
    3.3541    0.2787   -0.1887 C   0  0  0  0  0  0  0  0  0  0  0  0
    4.6054   -0.4715   -0.2684 C   0  0  0  0  0  0  0  0  0  0  0  0
    4.5857   -1.8606   -0.0570 C   0  0  0  0  0  0  0  0  0  0  0  0
    5.7578   -2.6201   -0.1195 C   0  0  0  0  0  0  0  0  0  0  0  0
    6.9740   -2.0020   -0.4005 C   0  0  0  0  0  0  0  0  0  0  0  0
    7.0043   -0.6199   -0.6214 C   0  0  0  0  0  0  0  0  0  0  0  0
    8.2818    0.0372   -0.9251 N   0  0  0  0  0  4  0  0  0  0  0  0
    8.2641    1.2581   -1.1385 O   0  0  0  0  0  0  0  0  0  0  0  0
    9.3016   -0.6658   -0.9482 O   0  0  0  0  0  1  0  0  0  0  0  0
    5.8291    0.1473   -0.5588 C   0  0  0  0  0  0  0  0  0  0  0  0
    3.2629    1.6362    0.0642 C   0  0  0  0  0  0  0  0  0  0  0  0
    1.6149    2.1228    0.0737 S   0  0  0  0  0  0  0  0  0  0  0  0
   -3.6207   -0.6626    0.4846 C   0  0  0  0  0  0  0  0  0  0  0  0
   -4.9196   -0.2465    0.1769 C   0  0  0  0  0  0  0  0  0  0  0  0
   -5.9679   -1.1002   -0.0641 O   0  0  0  0  0  0  0  0  0  0  0  0
   -5.7393   -2.4932    0.0974 C   0  0  0  0  0  0  0  0  0  0  0  0
   -6.7041    3.3331    0.6537 H   0  0  0  0  0  0  0  0  0  0  0  0
   -7.9172    2.8937   -0.5530 H   0  0  0  0  0  0  0  0  0  0  0  0
   -6.2944    3.3243   -1.1060 H   0  0  0  0  0  0  0  0  0  0  0  0
   -4.3949    3.1419    0.2790 H   0  0  0  0  0  0  0  0  0  0  0  0
   -2.1332    2.3968    0.8258 H   0  0  0  0  0  0  0  0  0  0  0  0
   -0.1441   -0.8519   -0.8473 H   0  0  0  0  0  0  0  0  0  0  0  0
    3.6454   -2.3650    0.1665 H   0  0  0  0  0  0  0  0  0  0  0  0
    5.7164   -3.6937    0.0520 H   0  0  0  0  0  0  0  0  0  0  0  0
    7.8785   -2.6052   -0.4461 H   0  0  0  0  0  0  0  0  0  0  0  0
    5.8724    1.2173   -0.7484 H   0  0  0  0  0  0  0  0  0  0  0  0
    4.0454    2.3594    0.2420 H   0  0  0  0  0  0  0  0  0  0  0  0
   -3.3681   -1.7154    0.5563 H   0  0  0  0  0  0  0  0  0  0  0  0
   -6.6851   -3.0110   -0.0886 H   0  0  0  0  0  0  0  0  0  0  0  0
   -5.4274   -2.7280    1.1204 H   0  0  0  0  0  0  0  0  0  0  0  0
   -5.0110   -2.8592   -0.6334 H   0  0  0  0  0  0  0  0  0  0  0  0
  1  2  1  0
  2  3  1  0
  3  4  2  0
  4  5  1  0
  5  6  2  0
  6  7  1  0
  7  8  2  0
  7  9  2  0
  7 10  1  0
 10 11  1  0
 11 12  2  0
 12 13  1  0
 13 14  1  0
 14 15  2  0
 15 16  1  0
 16 17  2  0
 17 18  1  0
 18 19  1  0
 19 20  2  0
 19 21  1  0
 18 22  2  0
 13 23  2  0
 23 24  1  0
  6 25  1  0
 25 26  2  0
 26 27  1  0
 27 28  1  0
 26  3  1  0
 24 11  1  0
 22 14  1  0
  1 29  1  0
  1 30  1  0
  1 31  1  0
  4 32  1  0
  5 33  1  0
 10 34  1  0
 15 35  1  0
 16 36  1  0
 17 37  1  0
 22 38  1  0
 23 39  1  0
 25 40  1  0
 28 41  1  0
 28 42  1  0
 28 43  1  0
M  CHG  2  19   1  21  -1
M  END
$$$$
