
     RDKit          3D

 56 58  0  0  0  0  0  0  0  0999 V2000
   -7.0123    3.0010    1.6239 C   0  0  0  0  0  0  0  0  0  0  0  0
   -6.6694    3.0890    0.2463 O   0  0  0  0  0  0  0  0  0  0  0  0
   -6.1416    1.9669   -0.3297 C   0  0  0  0  0  0  0  0  0  0  0  0
   -5.8275    0.7770    0.3261 C   0  0  0  0  0  0  0  0  0  0  0  0
   -5.2744   -0.2928   -0.3849 C   0  0  0  0  0  0  0  0  0  0  0  0
   -5.0401   -0.1928   -1.7623 C   0  0  0  0  0  0  0  0  0  0  0  0
   -4.4001   -1.3329   -2.5182 C   0  0  0  0  0  0  0  0  0  0  0  0
   -2.9772   -1.1344   -2.6566 N   0  0  0  0  0  0  0  0  0  0  0  0
   -2.3767   -0.5972   -3.7519 C   0  0  0  0  0  0  0  0  0  0  0  0
   -2.9051   -0.2360   -4.7898 O   0  0  0  0  0  0  0  0  0  0  0  0
   -1.0241   -0.5259   -3.5149 N   0  0  0  0  0  0  0  0  0  0  0  0
   -0.6675   -1.0023   -2.1978 C   0  0  1  0  0  0  0  0  0  0  0  0
   -0.0769    0.1308   -1.3600 C   0  0  0  0  0  0  0  0  0  0  0  0
    0.3771   -0.2844    0.0388 C   0  0  0  0  0  0  0  0  0  0  0  0
    1.5536   -1.2398    0.0337 C   0  0  0  0  0  0  0  0  0  0  0  0
    2.0976   -1.6330   -0.9910 O   0  0  0  0  0  0  0  0  0  0  0  0
    1.9389   -1.6140    1.3007 N   0  0  0  0  0  0  0  0  0  0  0  0
    3.1112   -2.4258    1.5330 C   0  0  0  0  0  0  0  0  0  0  0  0
    4.3207   -1.5592    1.7786 C   0  0  0  0  0  0  0  0  0  0  0  0
    4.6203   -1.0963    3.0699 C   0  0  0  0  0  0  0  0  0  0  0  0
    5.7232   -0.2670    3.2863 C   0  0  0  0  0  0  0  0  0  0  0  0
    6.5273    0.1049    2.2063 C   0  0  0  0  0  0  0  0  0  0  0  0
    7.9296    1.1488    2.4629 S   0  0  0  0  0  6  0  0  0  0  0  0
    7.5334    2.5114    1.5620 N   0  0  0  0  0  0  0  0  0  0  0  0
    7.9533    1.5947    3.8374 O   0  0  0  0  0  0  0  0  0  0  0  0
    9.0760    0.5564    1.8153 O   0  0  0  0  0  0  0  0  0  0  0  0
    6.2450   -0.3493    0.9151 C   0  0  0  0  0  0  0  0  0  0  0  0
    5.1382   -1.1720    0.7036 C   0  0  0  0  0  0  0  0  0  0  0  0
   -2.0505   -1.4414   -1.7012 C   0  0  0  0  0  0  0  0  0  0  0  0
   -2.2724   -1.9682   -0.6177 O   0  0  0  0  0  0  0  0  0  0  0  0
   -5.3557    1.0043   -2.4148 C   0  0  0  0  0  0  0  0  0  0  0  0
   -5.9027    2.0726   -1.7013 C   0  0  0  0  0  0  0  0  0  0  0  0
   -6.1282    2.8180    2.2428 H   0  0  0  0  0  0  0  0  0  0  0  0
   -7.7756    2.2333    1.7890 H   0  0  0  0  0  0  0  0  0  0  0  0
   -7.4358    3.9648    1.9251 H   0  0  0  0  0  0  0  0  0  0  0  0
   -5.9916    0.6484    1.3911 H   0  0  0  0  0  0  0  0  0  0  0  0
   -5.0122   -1.2035    0.1513 H   0  0  0  0  0  0  0  0  0  0  0  0
   -4.8613   -1.4204   -3.5081 H   0  0  0  0  0  0  0  0  0  0  0  0
   -4.5757   -2.2774   -1.9913 H   0  0  0  0  0  0  0  0  0  0  0  0
   -0.3798   -0.2008   -4.2238 H   0  0  0  0  0  0  0  0  0  0  0  0
   -0.0167   -1.8726   -2.3168 H   0  0  0  0  0  0  0  0  0  0  0  0
   -0.8195    0.9328   -1.2519 H   0  0  0  0  0  0  0  0  0  0  0  0
    0.7717    0.5713   -1.8996 H   0  0  0  0  0  0  0  0  0  0  0  0
    0.6905    0.6150    0.5816 H   0  0  0  0  0  0  0  0  0  0  0  0
   -0.4441   -0.7350    0.6025 H   0  0  0  0  0  0  0  0  0  0  0  0
    1.5369   -1.1364    2.0926 H   0  0  0  0  0  0  0  0  0  0  0  0
    2.9106   -3.0526    2.4089 H   0  0  0  0  0  0  0  0  0  0  0  0
    3.2839   -3.0986    0.6851 H   0  0  0  0  0  0  0  0  0  0  0  0
    3.9960   -1.3796    3.9143 H   0  0  0  0  0  0  0  0  0  0  0  0
    5.9450    0.0834    4.2912 H   0  0  0  0  0  0  0  0  0  0  0  0
    8.2177    2.6406    0.8167 H   0  0  0  0  0  0  0  0  0  0  0  0
    7.4430    3.3191    2.1815 H   0  0  0  0  0  0  0  0  0  0  0  0
    6.8741   -0.0639    0.0767 H   0  0  0  0  0  0  0  0  0  0  0  0
    4.9077   -1.5104   -0.3066 H   0  0  0  0  0  0  0  0  0  0  0  0
   -5.1677    1.1181   -3.4811 H   0  0  0  0  0  0  0  0  0  0  0  0
   -6.1399    2.9993   -2.2187 H   0  0  0  0  0  0  0  0  0  0  0  0
  1  2  1  0
  2  3  1  0
  3  4  2  0
  4  5  1  0
  5  6  2  0
  6  7  1  0
  7  8  1  0
  8  9  1  0
  9 10  2  0
  9 11  1  0
 11 12  1  0
 12 13  1  0
 13 14  1  0
 14 15  1  0
 15 16  2  0
 15 17  1  0
 17 18  1  0
 18 19  1  0
 19 20  2  0
 20 21  1  0
 21 22  2  0
 22 23  1  0
 23 24  1  0
 23 25  2  0
 23 26  2  0
 22 27  1  0
 27 28  2  0
 12 29  1  0
 29 30  2  0
  6 31  1  0
 31 32  2  0
 32  3  1  0
 29  8  1  0
 28 19  1  0
  1 33  1  0
  1 34  1  0
  1 35  1  0
  4 36  1  0
  5 37  1  0
  7 38  1  0
  7 39  1  0
 11 40  1  0
 12 41  1  6
 13 42  1  0
 13 43  1  0
 14 44  1  0
 14 45  1  0
 17 46  1  0
 18 47  1  0
 18 48  1  0
 20 49  1  0
 21 50  1  0
 24 51  1  0
 24 52  1  0
 27 53  1  0
 28 54  1  0
 31 55  1  0
 32 56  1  0
M  END
$$$$
