
     RDKit          3D

 73 78  0  0  0  0  0  0  0  0999 V2000
    6.9920    2.1827   -1.7111 C   0  0  0  0  0  0  0  0  0  0  0  0
    5.7082    1.4932   -1.2531 C   0  0  0  0  0  0  0  0  0  0  0  0
    5.0080    0.8028   -2.4319 C   0  0  0  0  0  0  0  0  0  0  0  0
    4.1859   -0.4154   -1.9969 C   0  0  0  0  0  0  0  0  0  0  0  0
    3.6797   -0.2930   -0.5527 C   0  0  1  0  0  0  0  0  0  0  0  0
    4.7819   -0.1510    0.4020 N   0  0  0  0  0  0  0  0  0  0  0  0
    5.9863    0.4872   -0.1336 C   0  0  0  0  0  0  0  0  0  0  0  0
    2.8333    0.8735   -0.4718 O   0  0  0  0  0  0  0  0  0  0  0  0
    1.9906    0.7008    0.6663 C   0  0  1  0  0  0  0  0  0  0  0  0
    0.5793    1.2076    0.4439 C   0  0  0  0  0  0  0  0  0  0  0  0
   -0.2574    0.3024    1.3641 C   0  0  1  0  0  0  0  0  0  0  0  0
   -1.7748    0.4919    1.1377 C   0  0  2  0  0  0  0  0  0  0  0  0
   -2.5768    0.0183    2.3662 C   0  0  0  0  0  0  0  0  0  0  0  0
   -4.0538   -0.0157    2.1414 C   0  0  0  0  0  0  0  0  0  0  0  0
   -4.6335    0.0282    0.9306 C   0  0  0  0  0  0  0  0  0  0  0  0
   -6.1330    0.1902    0.7972 C   0  0  0  0  0  0  0  0  0  0  0  0
   -6.4965    1.3318   -0.1724 C   0  0  0  0  0  0  0  0  0  0  0  0
   -7.5621    2.1133    0.3712 O   0  0  0  0  0  0  0  0  0  0  0  0
   -5.3127    2.2532   -0.4756 C   0  0  0  0  0  0  0  0  0  0  0  0
   -4.0581    1.5158   -0.9716 C   0  0  0  0  0  0  0  0  0  0  0  0
   -3.8406    0.0853   -0.3718 C   0  0  0  0  0  0  0  0  0  0  0  0
   -4.4009   -0.9451   -1.3858 C   0  0  0  0  0  0  0  0  0  0  0  0
   -2.2915   -0.1660   -0.1656 C   0  0  0  0  0  0  0  0  0  0  0  0
   -1.8346   -1.6401   -0.2023 C   0  0  0  0  0  0  0  0  0  0  0  0
   -0.3042   -1.7299   -0.1744 C   0  0  0  0  0  0  0  0  0  0  0  0
    0.3415   -1.1091    1.0836 C   0  0  0  0  0  0  0  0  0  0  0  0
    0.1654   -2.0810    2.2662 C   0  0  0  0  0  0  0  0  0  0  0  0
    1.8726   -0.8014    0.9445 C   0  0  1  0  0  0  0  0  0  0  0  0
    2.6884   -1.4248   -0.1899 C   0  0  2  0  0  0  0  0  0  0  0  0
    3.2823   -2.7830    0.1603 C   0  0  0  0  0  0  0  0  0  0  0  0
    7.7161    1.4591   -2.1010 H   0  0  0  0  0  0  0  0  0  0  0  0
    6.7800    2.9111   -2.5008 H   0  0  0  0  0  0  0  0  0  0  0  0
    7.4635    2.7163   -0.8790 H   0  0  0  0  0  0  0  0  0  0  0  0
    5.0441    2.2746   -0.8592 H   0  0  0  0  0  0  0  0  0  0  0  0
    5.7309    0.4800   -3.1915 H   0  0  0  0  0  0  0  0  0  0  0  0
    4.3544    1.5324   -2.9271 H   0  0  0  0  0  0  0  0  0  0  0  0
    4.7989   -1.3200   -2.1006 H   0  0  0  0  0  0  0  0  0  0  0  0
    3.3473   -0.5213   -2.6964 H   0  0  0  0  0  0  0  0  0  0  0  0
    5.0439   -1.0516    0.7899 H   0  0  0  0  0  0  0  0  0  0  0  0
    6.6637   -0.2924   -0.5063 H   0  0  0  0  0  0  0  0  0  0  0  0
    6.5065    0.9805    0.6953 H   0  0  0  0  0  0  0  0  0  0  0  0
    2.4457    1.2157    1.5218 H   0  0  0  0  0  0  0  0  0  0  0  0
    0.2957    1.1249   -0.6107 H   0  0  0  0  0  0  0  0  0  0  0  0
    0.4882    2.2640    0.7181 H   0  0  0  0  0  0  0  0  0  0  0  0
   -0.0246    0.5928    2.3995 H   0  0  0  0  0  0  0  0  0  0  0  0
   -1.9515    1.5742    1.0572 H   0  0  0  0  0  0  0  0  0  0  0  0
   -2.3696    0.7026    3.1987 H   0  0  0  0  0  0  0  0  0  0  0  0
   -2.2741   -0.9731    2.7040 H   0  0  0  0  0  0  0  0  0  0  0  0
   -4.6688   -0.0353    3.0392 H   0  0  0  0  0  0  0  0  0  0  0  0
   -6.5709   -0.7476    0.4342 H   0  0  0  0  0  0  0  0  0  0  0  0
   -6.5940    0.3688    1.7771 H   0  0  0  0  0  0  0  0  0  0  0  0
   -6.8738    0.9089   -1.1098 H   0  0  0  0  0  0  0  0  0  0  0  0
   -7.2340    2.5283    1.1878 H   0  0  0  0  0  0  0  0  0  0  0  0
   -5.0579    2.8196    0.4313 H   0  0  0  0  0  0  0  0  0  0  0  0
   -5.6091    3.0157   -1.2068 H   0  0  0  0  0  0  0  0  0  0  0  0
   -4.1014    1.4494   -2.0669 H   0  0  0  0  0  0  0  0  0  0  0  0
   -3.1987    2.1649   -0.7629 H   0  0  0  0  0  0  0  0  0  0  0  0
   -4.4497   -1.9511   -0.9537 H   0  0  0  0  0  0  0  0  0  0  0  0
   -3.7781   -0.9849   -2.2873 H   0  0  0  0  0  0  0  0  0  0  0  0
   -5.4112   -0.6988   -1.7260 H   0  0  0  0  0  0  0  0  0  0  0  0
   -1.7903    0.3208   -1.0146 H   0  0  0  0  0  0  0  0  0  0  0  0
   -2.1545   -2.1193   -1.1333 H   0  0  0  0  0  0  0  0  0  0  0  0
   -2.2806   -2.2167    0.6139 H   0  0  0  0  0  0  0  0  0  0  0  0
   -0.0043   -2.7805   -0.2743 H   0  0  0  0  0  0  0  0  0  0  0  0
    0.0493   -1.2190   -1.0778 H   0  0  0  0  0  0  0  0  0  0  0  0
    0.8047   -2.9625    2.1392 H   0  0  0  0  0  0  0  0  0  0  0  0
   -0.8560   -2.4534    2.3639 H   0  0  0  0  0  0  0  0  0  0  0  0
    0.4421   -1.6084    3.2151 H   0  0  0  0  0  0  0  0  0  0  0  0
    2.3734   -0.9911    1.9047 H   0  0  0  0  0  0  0  0  0  0  0  0
    2.0584   -1.5787   -1.0707 H   0  0  0  0  0  0  0  0  0  0  0  0
    3.8383   -2.7622    1.1024 H   0  0  0  0  0  0  0  0  0  0  0  0
    2.4870   -3.5272    0.2719 H   0  0  0  0  0  0  0  0  0  0  0  0
    3.9560   -3.1322   -0.6281 H   0  0  0  0  0  0  0  0  0  0  0  0
  1  2  1  0
  2  3  1  0
  3  4  1  0
  4  5  1  0
  5  6  1  0
  6  7  1  0
  5  8  1  6
  8  9  1  0
  9 10  1  0
 10 11  1  0
 11 12  1  0
 12 13  1  0
 13 14  1  0
 14 15  2  0
 15 16  1  0
 16 17  1  0
 17 18  1  0
 17 19  1  0
 19 20  1  0
 20 21  1  0
 21 22  1  0
 21 23  1  0
 23 24  1  0
 24 25  1  0
 25 26  1  0
 26 27  1  0
 26 28  1  0
 28 29  1  0
 29 30  1  0
  7  2  1  0
 28  9  1  0
 29  5  1  0
 26 11  1  0
 23 12  1  0
 21 15  1  0
  1 31  1  0
  1 32  1  0
  1 33  1  0
  2 34  1  0
  3 35  1  0
  3 36  1  0
  4 37  1  0
  4 38  1  0
  6 39  1  0
  7 40  1  0
  7 41  1  0
  9 42  1  1
 10 43  1  0
 10 44  1  0
 11 45  1  1
 12 46  1  6
 13 47  1  0
 13 48  1  0
 14 49  1  0
 16 50  1  0
 16 51  1  0
 17 52  1  0
 18 53  1  0
 19 54  1  0
 19 55  1  0
 20 56  1  0
 20 57  1  0
 22 58  1  0
 22 59  1  0
 22 60  1  0
 23 61  1  0
 24 62  1  0
 24 63  1  0
 25 64  1  0
 25 65  1  0
 27 66  1  0
 27 67  1  0
 27 68  1  0
 28 69  1  1
 29 70  1  6
 30 71  1  0
 30 72  1  0
 30 73  1  0
M  END
$$$$
