
     RDKit          3D

 29 28  0  0  0  0  0  0  0  0999 V2000
    0.6926    0.0000    0.0000 Cl  0  0  0  0  0  0  0  0  0  0  0  0
   -3.6351    1.3170    0.7828 N   0  0  0  0  0  0  0  0  0  0  0  0
   -3.6586    0.3014   -0.2390 C   0  0  0  0  0  0  0  0  0  0  0  0
   -2.4586   -0.6162   -0.0500 C   0  0  0  0  0  0  0  0  0  0  0  0
   -1.1768    0.1597   -0.1539 C   0  0  0  0  0  0  0  0  0  0  0  0
   -0.0315   -0.7531    0.0337 N   0  0  0  0  0  0  0  0  0  0  0  0
    1.2869   -0.2457   -0.0227 C   0  0  0  0  0  0  0  0  0  0  0  0
    1.4338    1.1288   -0.1982 C   0  0  0  0  0  0  0  0  0  0  0  0
    2.6624    1.7370   -0.2450 C   0  0  0  0  0  0  0  0  0  0  0  0
    3.7667    0.9276   -0.1098 C   0  0  0  0  0  0  0  0  0  0  0  0
    3.6714   -0.4285    0.0644 C   0  0  0  0  0  0  0  0  0  0  0  0
    2.3891   -1.0242    0.1074 C   0  0  0  0  0  0  0  0  0  0  0  0
    2.3013   -2.4144    0.2874 N   0  0  0  0  0  4  0  0  0  0  0  0
    3.2284   -2.9883    0.9326 O   0  0  0  0  0  0  0  0  0  0  0  0
    1.3051   -3.2031   -0.1715 O   0  0  0  0  0  1  0  0  0  0  0  0
   -0.6926    0.0000    0.0000 H   0  0  0  0  0  0  0  0  0  0  0  0
   -4.2684    1.1466    1.5731 H   0  0  0  0  0  0  0  0  0  0  0  0
   -3.6338    2.2824    0.4053 H   0  0  0  0  0  0  0  0  0  0  0  0
   -3.7039    0.6954   -1.2707 H   0  0  0  0  0  0  0  0  0  0  0  0
   -4.6081   -0.2830   -0.0889 H   0  0  0  0  0  0  0  0  0  0  0  0
   -2.5287   -1.0750    0.9630 H   0  0  0  0  0  0  0  0  0  0  0  0
   -2.4499   -1.4134   -0.8239 H   0  0  0  0  0  0  0  0  0  0  0  0
   -1.1129    0.9900    0.5691 H   0  0  0  0  0  0  0  0  0  0  0  0
   -1.0901    0.6007   -1.1706 H   0  0  0  0  0  0  0  0  0  0  0  0
   -0.2735   -1.7318    0.2067 H   0  0  0  0  0  0  0  0  0  0  0  0
    0.5554    1.7694   -0.3041 H   0  0  0  0  0  0  0  0  0  0  0  0
    2.7490    2.8129   -0.3837 H   0  0  0  0  0  0  0  0  0  0  0  0
    4.7645    1.3917   -0.1440 H   0  0  0  0  0  0  0  0  0  0  0  0
    4.5158   -1.0842    0.1731 H   0  0  0  0  0  0  0  0  0  0  0  0
  2  3  1  0
  3  4  1  0
  4  5  1  0
  5  6  1  0
  6  7  1  0
  7  8  2  0
  8  9  1  0
  9 10  2  0
 10 11  1  0
 11 12  2  0
 12 13  1  0
 13 14  2  0
 13 15  1  0
 12  7  1  0
  1 16  1  0
  2 17  1  0
  2 18  1  0
  3 19  1  0
  3 20  1  0
  4 21  1  0
  4 22  1  0
  5 23  1  0
  5 24  1  0
  6 25  1  0
  8 26  1  0
  9 27  1  0
 10 28  1  0
 11 29  1  0
M  CHG  2  13   1  15  -1
M  END
$$$$
