
     RDKit          3D

 50 53  0  0  0  0  0  0  0  0999 V2000
    7.6401   -2.9498    2.9043 C   0  0  0  0  0  0  0  0  0  0  0  0
    6.4071   -3.6773    2.7941 O   0  0  0  0  0  0  0  0  0  0  0  0
    5.4452   -3.1150    2.0237 C   0  0  0  0  0  0  0  0  0  0  0  0
    4.3874   -4.1150    1.7981 C   0  0  0  0  0  0  0  0  0  0  0  0
    3.3607   -3.7320    1.0284 C   0  0  0  0  0  0  0  0  0  0  0  0
    3.3288   -2.4116    0.5239 C   0  0  0  0  0  0  0  0  0  0  0  0
    2.4236   -1.7695   -0.1823 N   0  0  0  0  0  0  0  0  0  0  0  0
    2.9055   -0.4757   -0.3222 C   0  0  0  0  0  0  0  0  0  0  0  0
    2.2407    0.6361   -1.0202 C   0  0  0  0  0  0  0  0  0  0  0  0
    2.9270    1.5474   -1.4925 O   0  0  0  0  0  0  0  0  0  0  0  0
    0.8487    0.6794   -1.1019 N   0  0  0  0  0  0  0  0  0  0  0  0
    0.2600    1.6474   -2.0377 C   0  0  0  0  0  0  0  0  0  0  0  0
   -1.1090    2.1664   -1.5682 C   0  0  0  0  0  0  0  0  0  0  0  0
   -2.0066    1.0221   -1.3321 N   0  0  0  0  0  0  0  0  0  0  0  0
   -3.3490    1.3736   -1.0653 C   0  0  0  0  0  0  0  0  0  0  0  0
   -3.6989    2.3290   -0.0937 C   0  0  0  0  0  0  0  0  0  0  0  0
   -5.0412    2.6486    0.1698 C   0  0  0  0  0  0  0  0  0  0  0  0
   -5.3977    3.6529    1.2256 C   0  0  0  0  0  0  0  0  0  0  0  0
   -6.0487    1.9852   -0.5364 C   0  0  0  0  0  0  0  0  0  0  0  0
   -5.7178    1.0400   -1.5072 C   0  0  0  0  0  0  0  0  0  0  0  0
   -4.3762    0.7292   -1.7823 C   0  0  0  0  0  0  0  0  0  0  0  0
   -4.0551   -0.3037   -2.8276 C   0  0  0  0  0  0  0  0  0  0  0  0
   -1.4706    0.1168   -0.2885 C   0  0  0  0  0  0  0  0  0  0  0  0
   -0.0661   -0.3963   -0.6771 C   0  0  0  0  0  0  0  0  0  0  0  0
    4.1566   -0.3811    0.2620 C   0  0  0  0  0  0  0  0  0  0  0  0
    4.4095   -1.5975    0.8226 N   0  0  0  0  0  0  0  0  0  0  0  0
    5.5047   -1.9082    1.5708 N   0  0  0  0  0  0  0  0  0  0  0  0
    8.2143   -3.4033    3.7139 H   0  0  0  0  0  0  0  0  0  0  0  0
    7.4794   -1.8944    3.1443 H   0  0  0  0  0  0  0  0  0  0  0  0
    8.2060   -3.0633    1.9739 H   0  0  0  0  0  0  0  0  0  0  0  0
    4.4623   -5.1008    2.2315 H   0  0  0  0  0  0  0  0  0  0  0  0
    2.5464   -4.4085    0.7948 H   0  0  0  0  0  0  0  0  0  0  0  0
    0.1527    1.1215   -2.9990 H   0  0  0  0  0  0  0  0  0  0  0  0
    0.9284    2.5012   -2.1992 H   0  0  0  0  0  0  0  0  0  0  0  0
   -0.9678    2.7505   -0.6488 H   0  0  0  0  0  0  0  0  0  0  0  0
   -1.5171    2.8329   -2.3350 H   0  0  0  0  0  0  0  0  0  0  0  0
   -2.9244    2.8203    0.4864 H   0  0  0  0  0  0  0  0  0  0  0  0
   -5.6581    3.1378    2.1572 H   0  0  0  0  0  0  0  0  0  0  0  0
   -4.5574    4.3258    1.4219 H   0  0  0  0  0  0  0  0  0  0  0  0
   -6.2436    4.2745    0.9077 H   0  0  0  0  0  0  0  0  0  0  0  0
   -7.0963    2.2022   -0.3331 H   0  0  0  0  0  0  0  0  0  0  0  0
   -6.5211    0.5374   -2.0456 H   0  0  0  0  0  0  0  0  0  0  0  0
   -4.9458   -0.6062   -3.3837 H   0  0  0  0  0  0  0  0  0  0  0  0
   -3.3423    0.1002   -3.5586 H   0  0  0  0  0  0  0  0  0  0  0  0
   -3.6247   -1.1961   -2.3564 H   0  0  0  0  0  0  0  0  0  0  0  0
   -1.3996    0.6459    0.6714 H   0  0  0  0  0  0  0  0  0  0  0  0
   -2.1312   -0.7456   -0.1483 H   0  0  0  0  0  0  0  0  0  0  0  0
   -0.1430   -1.0913   -1.5197 H   0  0  0  0  0  0  0  0  0  0  0  0
    0.3277   -0.9273    0.1872 H   0  0  0  0  0  0  0  0  0  0  0  0
    4.8468    0.4451    0.3452 H   0  0  0  0  0  0  0  0  0  0  0  0
  1  2  1  0
  2  3  1  0
  3  4  1  0
  4  5  2  0
  5  6  1  0
  6  7  2  0
  7  8  1  0
  8  9  1  0
  9 10  2  0
  9 11  1  0
 11 12  1  0
 12 13  1  0
 13 14  1  0
 14 15  1  0
 15 16  2  0
 16 17  1  0
 17 18  1  0
 17 19  2  0
 19 20  1  0
 20 21  2  0
 21 22  1  0
 14 23  1  0
 23 24  1  0
  8 25  2  0
 25 26  1  0
 26 27  1  0
 27  3  2  0
 26  6  1  0
 24 11  1  0
 21 15  1  0
  1 28  1  0
  1 29  1  0
  1 30  1  0
  4 31  1  0
  5 32  1  0
 12 33  1  0
 12 34  1  0
 13 35  1  0
 13 36  1  0
 16 37  1  0
 18 38  1  0
 18 39  1  0
 18 40  1  0
 19 41  1  0
 20 42  1  0
 22 43  1  0
 22 44  1  0
 22 45  1  0
 23 46  1  0
 23 47  1  0
 24 48  1  0
 24 49  1  0
 25 50  1  0
M  END
$$$$
