
     RDKit          3D

 69 73  0  0  0  0  0  0  0  0999 V2000
   -4.4731   -5.0186   -1.3655 O   0  0  0  0  0  0  0  0  0  0  0  0
   -4.5138   -3.9282   -1.8990 C   0  0  0  0  0  0  0  0  0  0  0  0
   -5.5525   -3.5597   -2.6687 O   0  0  0  0  0  0  0  0  0  0  0  0
   -3.4939   -2.8581   -1.8144 C   0  0  0  0  0  0  0  0  0  0  0  0
   -3.3279   -1.9659   -2.8872 C   0  0  0  0  0  0  0  0  0  0  0  0
   -2.3199   -0.9891   -2.8509 C   0  0  0  0  0  0  0  0  0  0  0  0
   -2.1791   -0.0468   -3.9773 C   0  0  0  0  0  0  0  0  0  0  0  0
   -1.9432    1.1411   -3.8988 O   0  0  0  0  0  0  0  0  0  0  0  0
   -2.3565   -0.6688   -5.1546 O   0  0  0  0  0  0  0  0  0  0  0  0
   -1.4769   -0.9035   -1.7385 C   0  0  0  0  0  0  0  0  0  0  0  0
   -0.3319    0.0233   -1.7132 C   0  0  0  0  0  0  0  0  0  0  0  0
    0.5560   -0.2096   -2.5304 O   0  0  0  0  0  0  0  0  0  0  0  0
   -0.2722    1.0235   -0.7405 N   0  0  0  0  0  0  0  0  0  0  0  0
    0.9990    1.7529   -0.6143 C   0  0  0  0  0  0  0  0  0  0  0  0
    1.9265    1.1771    0.4355 C   0  0  0  0  0  0  0  0  0  0  0  0
    2.4080    1.9883    1.4762 C   0  0  0  0  0  0  0  0  0  0  0  0
    3.2590    1.4670    2.4546 C   0  0  0  0  0  0  0  0  0  0  0  0
    3.6539    0.1323    2.3965 C   0  0  0  0  0  0  0  0  0  0  0  0
    3.2153   -0.6692    1.3435 C   0  0  0  0  0  0  0  0  0  0  0  0
    3.5580   -1.9973    1.2500 O   0  0  0  0  0  0  0  0  0  0  0  0
    4.8986   -2.3086    1.1952 C   0  0  0  0  0  0  0  0  0  0  0  0
    5.8533   -1.5266    0.5382 C   0  0  0  0  0  0  0  0  0  0  0  0
    7.1875   -1.9380    0.5062 C   0  0  0  0  0  0  0  0  0  0  0  0
    7.5649   -3.1358    1.1136 C   0  0  0  0  0  0  0  0  0  0  0  0
    6.6083   -3.9286    1.7483 C   0  0  0  0  0  0  0  0  0  0  0  0
    5.2754   -3.5176    1.7835 C   0  0  0  0  0  0  0  0  0  0  0  0
    2.3486   -0.1586    0.3769 C   0  0  0  0  0  0  0  0  0  0  0  0
   -1.4274    1.4407    0.0954 C   0  0  1  0  0  0  0  0  0  0  0  0
   -1.2285    1.0526    1.5719 C   0  0  0  0  0  0  0  0  0  0  0  0
   -2.3972    1.5445    2.4141 C   0  0  0  0  0  0  0  0  0  0  0  0
   -2.4425    3.0695    2.3995 C   0  0  0  0  0  0  0  0  0  0  0  0
   -2.3229    3.6547    1.0130 C   0  0  0  0  0  0  0  0  0  0  0  0
   -2.6882    4.9972    0.8243 C   0  0  0  0  0  0  0  0  0  0  0  0
   -2.6075    5.5875   -0.4346 C   0  0  0  0  0  0  0  0  0  0  0  0
   -2.1652    4.8421   -1.5201 C   0  0  0  0  0  0  0  0  0  0  0  0
   -1.7855    3.5121   -1.3440 C   0  0  0  0  0  0  0  0  0  0  0  0
   -1.8266    2.9060   -0.0749 C   0  0  0  0  0  0  0  0  0  0  0  0
   -1.6134   -1.8128   -0.6814 C   0  0  0  0  0  0  0  0  0  0  0  0
   -2.6399   -2.7655   -0.7081 C   0  0  0  0  0  0  0  0  0  0  0  0
   -2.7825   -3.6214    0.4778 C   0  0  0  0  0  0  0  0  0  0  0  0
   -1.9010   -4.2704    1.0032 O   0  0  0  0  0  0  0  0  0  0  0  0
   -4.0094   -3.4835    1.0050 O   0  0  0  0  0  0  0  0  0  0  0  0
   -6.1653   -4.3267   -2.6352 H   0  0  0  0  0  0  0  0  0  0  0  0
   -3.9768   -2.0351   -3.7596 H   0  0  0  0  0  0  0  0  0  0  0  0
   -2.1624    0.0242   -5.8230 H   0  0  0  0  0  0  0  0  0  0  0  0
    1.5328    1.7454   -1.5724 H   0  0  0  0  0  0  0  0  0  0  0  0
    0.7899    2.8051   -0.3976 H   0  0  0  0  0  0  0  0  0  0  0  0
    2.1124    3.0336    1.5374 H   0  0  0  0  0  0  0  0  0  0  0  0
    3.6133    2.1012    3.2622 H   0  0  0  0  0  0  0  0  0  0  0  0
    4.3051   -0.2764    3.1636 H   0  0  0  0  0  0  0  0  0  0  0  0
    5.5714   -0.6033    0.0393 H   0  0  0  0  0  0  0  0  0  0  0  0
    7.9304   -1.3263    0.0008 H   0  0  0  0  0  0  0  0  0  0  0  0
    8.6028   -3.4565    1.0839 H   0  0  0  0  0  0  0  0  0  0  0  0
    6.8994   -4.8698    2.2092 H   0  0  0  0  0  0  0  0  0  0  0  0
    4.5282   -4.1397    2.2694 H   0  0  0  0  0  0  0  0  0  0  0  0
    2.0217   -0.8083   -0.4305 H   0  0  0  0  0  0  0  0  0  0  0  0
   -2.3116    0.8937   -0.2524 H   0  0  0  0  0  0  0  0  0  0  0  0
   -0.3100    1.4884    1.9761 H   0  0  0  0  0  0  0  0  0  0  0  0
   -1.1312   -0.0330    1.6718 H   0  0  0  0  0  0  0  0  0  0  0  0
   -2.2982    1.1888    3.4456 H   0  0  0  0  0  0  0  0  0  0  0  0
   -3.3362    1.1379    2.0204 H   0  0  0  0  0  0  0  0  0  0  0  0
   -3.3843    3.3940    2.8580 H   0  0  0  0  0  0  0  0  0  0  0  0
   -1.6249    3.4697    3.0128 H   0  0  0  0  0  0  0  0  0  0  0  0
   -3.0467    5.5903    1.6629 H   0  0  0  0  0  0  0  0  0  0  0  0
   -2.8973    6.6257   -0.5685 H   0  0  0  0  0  0  0  0  0  0  0  0
   -2.1139    5.2920   -2.5082 H   0  0  0  0  0  0  0  0  0  0  0  0
   -1.4487    2.9531   -2.2138 H   0  0  0  0  0  0  0  0  0  0  0  0
   -0.9165   -1.7891    0.1558 H   0  0  0  0  0  0  0  0  0  0  0  0
   -4.0171   -4.1091    1.7611 H   0  0  0  0  0  0  0  0  0  0  0  0
  1  2  2  0
  2  3  1  0
  2  4  1  0
  4  5  2  0
  5  6  1  0
  6  7  1  0
  7  8  2  0
  7  9  1  0
  6 10  2  0
 10 11  1  0
 11 12  2  0
 11 13  1  0
 13 14  1  0
 14 15  1  0
 15 16  2  0
 16 17  1  0
 17 18  2  0
 18 19  1  0
 19 20  1  0
 20 21  1  0
 21 22  2  0
 22 23  1  0
 23 24  2  0
 24 25  1  0
 25 26  2  0
 19 27  2  0
 13 28  1  0
 28 29  1  0
 29 30  1  0
 30 31  1  0
 31 32  1  0
 32 33  2  0
 33 34  1  0
 34 35  2  0
 35 36  1  0
 36 37  2  0
 10 38  1  0
 38 39  2  0
 39 40  1  0
 40 41  2  0
 40 42  1  0
 39  4  1  0
 27 15  1  0
 37 28  1  0
 26 21  1  0
 37 32  1  0
  3 43  1  0
  5 44  1  0
  9 45  1  0
 14 46  1  0
 14 47  1  0
 16 48  1  0
 17 49  1  0
 18 50  1  0
 22 51  1  0
 23 52  1  0
 24 53  1  0
 25 54  1  0
 26 55  1  0
 27 56  1  0
 28 57  1  6
 29 58  1  0
 29 59  1  0
 30 60  1  0
 30 61  1  0
 31 62  1  0
 31 63  1  0
 33 64  1  0
 34 65  1  0
 35 66  1  0
 36 67  1  0
 38 68  1  0
 42 69  1  0
M  END
$$$$
