
     RDKit          3D

 76 79  0  0  0  0  0  0  0  0999 V2000
   10.0654    1.2517   -1.1185 C   0  0  0  0  0  0  0  0  0  0  0  0
    9.2473    0.3525   -0.1624 C   0  0  0  0  0  0  0  0  0  0  0  0
    9.7197    0.6788    1.2733 C   0  0  0  0  0  0  0  0  0  0  0  0
    9.5958   -1.1149   -0.4903 C   0  0  0  0  0  0  0  0  0  0  0  0
    7.7259    0.5452   -0.2827 C   0  0  0  0  0  0  0  0  0  0  0  0
    6.8574   -0.0743    0.6342 C   0  0  0  0  0  0  0  0  0  0  0  0
    5.4672    0.0797    0.5565 C   0  0  0  0  0  0  0  0  0  0  0  0
    4.8879    0.8490   -0.4567 C   0  0  0  0  0  0  0  0  0  0  0  0
    3.3927    1.0656   -0.6034 C   0  0  0  0  0  0  0  0  0  0  0  0
    3.1061    2.4465   -0.3649 O   0  0  0  0  0  0  0  0  0  0  0  0
    2.4939    0.2288    0.3197 C   0  0  0  0  0  0  0  0  0  0  0  0
    1.0069    0.3669   -0.0391 C   0  0  0  0  0  0  0  0  0  0  0  0
    0.1333   -0.3892    0.9700 C   0  0  0  0  0  0  0  0  0  0  0  0
   -1.2980   -0.2899    0.6551 N   0  0  0  0  0  0  0  0  0  0  0  0
   -1.7053   -1.1751   -0.4349 C   0  0  0  0  0  0  0  0  0  0  0  0
   -3.1212   -0.8089   -0.8982 C   0  0  0  0  0  0  0  0  0  0  0  0
   -4.0948   -0.4475    0.2600 C   0  0  0  0  0  0  0  0  0  0  0  0
   -5.5784   -0.9037   -0.0099 C   0  0  0  0  0  0  0  0  0  0  0  0
   -5.5189   -2.3446   -0.1065 O   0  0  0  0  0  0  0  0  0  0  0  0
   -6.4871   -0.5217    1.1780 C   0  0  0  0  0  0  0  0  0  0  0  0
   -6.6753    0.8302    1.5277 C   0  0  0  0  0  0  0  0  0  0  0  0
   -7.4879    1.1899    2.6057 C   0  0  0  0  0  0  0  0  0  0  0  0
   -8.1305    0.2066    3.3539 C   0  0  0  0  0  0  0  0  0  0  0  0
   -7.9675   -1.1352    3.0197 C   0  0  0  0  0  0  0  0  0  0  0  0
   -7.1550   -1.4959    1.9415 C   0  0  0  0  0  0  0  0  0  0  0  0
   -6.2187   -0.3847   -1.3163 C   0  0  0  0  0  0  0  0  0  0  0  0
   -7.3366   -1.0601   -1.8530 C   0  0  0  0  0  0  0  0  0  0  0  0
   -7.9624   -0.6207   -3.0205 C   0  0  0  0  0  0  0  0  0  0  0  0
   -7.4950    0.5156   -3.6711 C   0  0  0  0  0  0  0  0  0  0  0  0
   -6.4130    1.2164   -3.1457 C   0  0  0  0  0  0  0  0  0  0  0  0
   -5.7858    0.7763   -1.9764 C   0  0  0  0  0  0  0  0  0  0  0  0
   -3.5289   -1.0412    1.5688 C   0  0  0  0  0  0  0  0  0  0  0  0
   -2.1082   -0.5386    1.8581 C   0  0  0  0  0  0  0  0  0  0  0  0
    5.7461    1.4650   -1.3797 C   0  0  0  0  0  0  0  0  0  0  0  0
    7.1362    1.3160   -1.2949 C   0  0  0  0  0  0  0  0  0  0  0  0
   11.1428    1.1066   -0.9714 H   0  0  0  0  0  0  0  0  0  0  0  0
    9.8520    2.3139   -0.9501 H   0  0  0  0  0  0  0  0  0  0  0  0
    9.8558    1.0243   -2.1708 H   0  0  0  0  0  0  0  0  0  0  0  0
    9.4228    1.6937    1.5646 H   0  0  0  0  0  0  0  0  0  0  0  0
    9.3054   -0.0133    2.0146 H   0  0  0  0  0  0  0  0  0  0  0  0
   10.8112    0.6123    1.3566 H   0  0  0  0  0  0  0  0  0  0  0  0
   10.6714   -1.2990   -0.3803 H   0  0  0  0  0  0  0  0  0  0  0  0
    9.0761   -1.8218    0.1671 H   0  0  0  0  0  0  0  0  0  0  0  0
    9.3193   -1.3624   -1.5231 H   0  0  0  0  0  0  0  0  0  0  0  0
    7.2529   -0.7000    1.4323 H   0  0  0  0  0  0  0  0  0  0  0  0
    4.8583   -0.4195    1.3065 H   0  0  0  0  0  0  0  0  0  0  0  0
    3.1203    0.8475   -1.6436 H   0  0  0  0  0  0  0  0  0  0  0  0
    3.8143    2.7990    0.2029 H   0  0  0  0  0  0  0  0  0  0  0  0
    2.6343    0.5502    1.3603 H   0  0  0  0  0  0  0  0  0  0  0  0
    2.7688   -0.8317    0.2574 H   0  0  0  0  0  0  0  0  0  0  0  0
    0.7171    1.4243   -0.0462 H   0  0  0  0  0  0  0  0  0  0  0  0
    0.8559   -0.0164   -1.0536 H   0  0  0  0  0  0  0  0  0  0  0  0
    0.3190    0.0620    1.9543 H   0  0  0  0  0  0  0  0  0  0  0  0
    0.4435   -1.4397    1.0405 H   0  0  0  0  0  0  0  0  0  0  0  0
   -1.0433   -1.0834   -1.3027 H   0  0  0  0  0  0  0  0  0  0  0  0
   -1.6642   -2.2282   -0.1244 H   0  0  0  0  0  0  0  0  0  0  0  0
   -3.5004   -1.6359   -1.5084 H   0  0  0  0  0  0  0  0  0  0  0  0
   -3.0476    0.0549   -1.5713 H   0  0  0  0  0  0  0  0  0  0  0  0
   -4.0694    0.6454    0.3754 H   0  0  0  0  0  0  0  0  0  0  0  0
   -5.3927   -2.5609   -1.0458 H   0  0  0  0  0  0  0  0  0  0  0  0
   -6.1863    1.6197    0.9619 H   0  0  0  0  0  0  0  0  0  0  0  0
   -7.6085    2.2370    2.8661 H   0  0  0  0  0  0  0  0  0  0  0  0
   -8.7598    0.4857    4.1941 H   0  0  0  0  0  0  0  0  0  0  0  0
   -8.4698   -1.9062    3.5989 H   0  0  0  0  0  0  0  0  0  0  0  0
   -7.0408   -2.5523    1.7060 H   0  0  0  0  0  0  0  0  0  0  0  0
   -7.7388   -1.9339   -1.3425 H   0  0  0  0  0  0  0  0  0  0  0  0
   -8.8216   -1.1590   -3.4110 H   0  0  0  0  0  0  0  0  0  0  0  0
   -7.9829    0.8648   -4.5766 H   0  0  0  0  0  0  0  0  0  0  0  0
   -6.0594    2.1162   -3.6430 H   0  0  0  0  0  0  0  0  0  0  0  0
   -4.9638    1.3721   -1.5888 H   0  0  0  0  0  0  0  0  0  0  0  0
   -4.1584   -0.7896    2.4288 H   0  0  0  0  0  0  0  0  0  0  0  0
   -3.5140   -2.1365    1.5016 H   0  0  0  0  0  0  0  0  0  0  0  0
   -2.1698    0.4010    2.4204 H   0  0  0  0  0  0  0  0  0  0  0  0
   -1.6296   -1.2741    2.5186 H   0  0  0  0  0  0  0  0  0  0  0  0
    5.3303    2.0779   -2.1797 H   0  0  0  0  0  0  0  0  0  0  0  0
    7.7367    1.8208   -2.0465 H   0  0  0  0  0  0  0  0  0  0  0  0
  1  2  1  0
  2  3  1  0
  2  4  1  0
  2  5  1  0
  5  6  2  0
  6  7  1  0
  7  8  2  0
  8  9  1  0
  9 10  1  0
  9 11  1  0
 11 12  1  0
 12 13  1  0
 13 14  1  0
 14 15  1  0
 15 16  1  0
 16 17  1  0
 17 18  1  0
 18 19  1  0
 18 20  1  0
 20 21  2  0
 21 22  1  0
 22 23  2  0
 23 24  1  0
 24 25  2  0
 18 26  1  0
 26 27  2  0
 27 28  1  0
 28 29  2  0
 29 30  1  0
 30 31  2  0
 17 32  1  0
 32 33  1  0
  8 34  1  0
 34 35  2  0
 35  5  1  0
 33 14  1  0
 25 20  1  0
 31 26  1  0
  1 36  1  0
  1 37  1  0
  1 38  1  0
  3 39  1  0
  3 40  1  0
  3 41  1  0
  4 42  1  0
  4 43  1  0
  4 44  1  0
  6 45  1  0
  7 46  1  0
  9 47  1  0
 10 48  1  0
 11 49  1  0
 11 50  1  0
 12 51  1  0
 12 52  1  0
 13 53  1  0
 13 54  1  0
 15 55  1  0
 15 56  1  0
 16 57  1  0
 16 58  1  0
 17 59  1  0
 19 60  1  0
 21 61  1  0
 22 62  1  0
 23 63  1  0
 24 64  1  0
 25 65  1  0
 27 66  1  0
 28 67  1  0
 29 68  1  0
 30 69  1  0
 31 70  1  0
 32 71  1  0
 32 72  1  0
 33 73  1  0
 33 74  1  0
 34 75  1  0
 35 76  1  0
M  END
$$$$
