
     RDKit          3D

 40 42  0  0  0  0  0  0  0  0999 V2000
   -3.5758    2.2049   -1.7248 C   0  0  0  0  0  0  0  0  0  0  0  0
   -3.0862    1.4071   -0.6530 O   0  0  0  0  0  0  0  0  0  0  0  0
   -3.6990    0.1985   -0.4388 C   0  0  0  0  0  0  0  0  0  0  0  0
   -4.6776   -0.3581   -1.2682 C   0  0  0  0  0  0  0  0  0  0  0  0
   -5.2240   -1.6098   -0.9742 C   0  0  0  0  0  0  0  0  0  0  0  0
   -4.7942   -2.3166    0.1450 C   0  0  0  0  0  0  0  0  0  0  0  0
   -3.8186   -1.7715    0.9776 C   0  0  0  0  0  0  0  0  0  0  0  0
   -3.2664   -0.5102    0.6998 C   0  0  0  0  0  0  0  0  0  0  0  0
   -2.2142    0.0660    1.6219 C   0  0  0  0  0  0  0  0  0  0  0  0
   -0.9015    0.1349    0.9507 N   0  0  0  0  0  0  0  0  0  0  0  0
    0.2893    0.8676    1.8834 S   0  0  0  0  0  6  0  0  0  0  0  0
    0.4332    0.1396    3.1232 O   0  0  0  0  0  0  0  0  0  0  0  0
    0.0706    2.2943    1.8345 O   0  0  0  0  0  0  0  0  0  0  0  0
    1.7854    0.6323    1.0508 C   0  0  0  0  0  0  0  0  0  0  0  0
    2.1785    1.2978   -0.1362 C   0  0  0  0  0  0  0  0  0  0  0  0
    3.4222    0.8054   -0.4773 C   0  0  0  0  0  0  0  0  0  0  0  0
    4.2970    1.1099   -1.5753 C   0  0  0  0  0  0  0  0  0  0  0  0
    4.0428    1.9193   -2.4608 O   0  0  0  0  0  0  0  0  0  0  0  0
    5.4832    0.3945   -1.5590 N   0  0  0  0  0  0  0  0  0  0  0  0
    5.8604   -0.5406   -0.6162 N   0  0  0  0  0  0  0  0  0  0  0  0
    5.0317   -0.7836    0.3576 C   0  0  0  0  0  0  0  0  0  0  0  0
    5.3341   -1.7760    1.4356 C   0  0  0  0  0  0  0  0  0  0  0  0
    3.7999   -0.1289    0.4591 N   0  0  0  0  0  0  0  0  0  0  0  0
    2.7969   -0.2462    1.3940 C   0  0  0  0  0  0  0  0  0  0  0  0
   -3.3922    1.7209   -2.6895 H   0  0  0  0  0  0  0  0  0  0  0  0
   -4.6371    2.4390   -1.5927 H   0  0  0  0  0  0  0  0  0  0  0  0
   -3.0231    3.1493   -1.7162 H   0  0  0  0  0  0  0  0  0  0  0  0
   -5.0343    0.1519   -2.1568 H   0  0  0  0  0  0  0  0  0  0  0  0
   -5.9836   -2.0359   -1.6250 H   0  0  0  0  0  0  0  0  0  0  0  0
   -5.2166   -3.2931    0.3684 H   0  0  0  0  0  0  0  0  0  0  0  0
   -3.4886   -2.3375    1.8462 H   0  0  0  0  0  0  0  0  0  0  0  0
   -2.5374    1.0655    1.9370 H   0  0  0  0  0  0  0  0  0  0  0  0
   -2.1291   -0.5536    2.5220 H   0  0  0  0  0  0  0  0  0  0  0  0
   -1.0074    0.6489    0.0720 H   0  0  0  0  0  0  0  0  0  0  0  0
    1.6258    2.0549   -0.6805 H   0  0  0  0  0  0  0  0  0  0  0  0
    6.1401    0.5713   -2.3122 H   0  0  0  0  0  0  0  0  0  0  0  0
    4.5842   -2.5724    1.4384 H   0  0  0  0  0  0  0  0  0  0  0  0
    5.3495   -1.2818    2.4113 H   0  0  0  0  0  0  0  0  0  0  0  0
    6.3158   -2.2270    1.2619 H   0  0  0  0  0  0  0  0  0  0  0  0
    2.8663   -0.9312    2.2294 H   0  0  0  0  0  0  0  0  0  0  0  0
  1  2  1  0
  2  3  1  0
  3  4  2  0
  4  5  1  0
  5  6  2  0
  6  7  1  0
  7  8  2  0
  8  9  1  0
  9 10  1  0
 10 11  1  0
 11 12  2  0
 11 13  2  0
 11 14  1  0
 14 15  1  0
 15 16  2  0
 16 17  1  0
 17 18  2  0
 17 19  1  0
 19 20  1  0
 20 21  2  0
 21 22  1  0
 21 23  1  0
 23 24  1  0
  8  3  1  0
 24 14  2  0
 23 16  1  0
  1 25  1  0
  1 26  1  0
  1 27  1  0
  4 28  1  0
  5 29  1  0
  6 30  1  0
  7 31  1  0
  9 32  1  0
  9 33  1  0
 10 34  1  0
 15 35  1  0
 19 36  1  0
 22 37  1  0
 22 38  1  0
 22 39  1  0
 24 40  1  0
M  END
$$$$
