
     RDKit          3D

125128  0  0  0  0  0  0  0  0999 V2000
   -0.2701    5.4225   -2.0797 C   0  0  0  0  0  0  0  0  0  0  0  0
   -0.6693    4.0685   -1.5056 C   0  0  0  0  0  0  0  0  0  0  0  0
   -0.8273    4.0092    0.0248 C   0  0  2  0  0  0  0  0  0  0  0  0
   -1.7782    5.0481    0.5757 C   0  0  0  0  0  0  0  0  0  0  0  0
   -2.9890    4.8445    1.1362 C   0  0  0  0  0  0  0  0  0  0  0  0
   -3.7819    6.0072    1.6815 C   0  0  0  0  0  0  0  0  0  0  0  0
   -3.6185    3.4790    1.3236 C   0  0  0  0  0  0  0  0  0  0  0  0
   -4.2466    2.8889    0.0390 C   0  0  2  0  0  0  0  0  0  0  0  0
   -5.4838    3.6992   -0.3790 C   0  0  0  0  0  0  0  0  0  0  0  0
   -4.5765    1.3901    0.2541 C   0  0  0  0  0  0  0  0  0  0  0  0
   -4.5398    0.5754   -1.0585 C   0  0  2  0  0  0  0  0  0  0  0  0
   -5.6357    0.9784   -1.8886 O   0  0  0  0  0  0  0  0  0  0  0  0
   -5.3087    0.9759   -3.2727 C   0  0  0  0  0  0  0  0  0  0  0  0
   -4.6013   -0.9572   -0.8325 C   0  0  1  0  0  0  0  0  0  0  0  0
   -3.4088   -1.3718   -0.1288 O   0  0  0  0  0  0  0  0  0  0  0  0
   -3.4373   -2.7758    0.1888 C   0  0  1  0  0  0  0  0  0  0  0  0
   -3.7646   -3.4846   -0.9950 O   0  0  0  0  0  0  0  0  0  0  0  0
   -2.0251   -3.1312    0.7484 C   0  0  0  0  0  0  0  0  0  0  0  0
   -1.4675   -2.5572    1.6822 O   0  0  0  0  0  0  0  0  0  0  0  0
   -1.3548   -4.3234    0.0765 C   0  0  0  0  0  0  0  0  0  0  0  0
   -2.0736   -5.2757   -0.2225 O   0  0  0  0  0  0  0  0  0  0  0  0
    0.0049   -4.2575   -0.2327 N   0  0  0  0  0  0  0  0  0  0  0  0
    0.5282   -5.2260   -1.1888 C   0  0  0  0  0  0  0  0  0  0  0  0
    1.6973   -4.6338   -1.9655 C   0  0  0  0  0  0  0  0  0  0  0  0
    2.8278   -4.1823   -1.0421 C   0  0  0  0  0  0  0  0  0  0  0  0
    2.4084   -4.1209    0.4322 C   0  0  0  0  0  0  0  0  0  0  0  0
    0.9855   -3.5489    0.6187 C   0  0  1  0  0  0  0  0  0  0  0  0
    1.0596   -2.0287    0.3938 C   0  0  0  0  0  0  0  0  0  0  0  0
    0.7635   -1.4417   -0.6357 O   0  0  0  0  0  0  0  0  0  0  0  0
    1.6107   -1.4599    1.5044 O   0  0  0  0  0  0  0  0  0  0  0  0
    2.1311   -0.1229    1.3914 C   0  0  2  0  0  0  0  0  0  0  0  0
    3.6538   -0.2761    1.4792 C   0  0  0  0  0  0  0  0  0  0  0  0
    4.1930   -0.8529    2.7666 C   0  0  0  0  0  0  0  0  0  0  0  0
    4.4145    0.0547    0.4137 C   0  0  0  0  0  0  0  0  0  0  0  0
    5.9149   -0.0539    0.2487 C   0  0  2  0  0  0  0  0  0  0  0  0
    6.4932    1.2827   -0.2220 C   0  0  0  0  0  0  0  0  0  0  0  0
    8.0202    1.2399   -0.3597 C   0  0  0  0  0  0  0  0  0  0  0  0
    8.5732   -0.1572   -0.6684 C   0  0  1  0  0  0  0  0  0  0  0  0
    8.8817   -0.8402    0.5511 O   0  0  0  0  0  0  0  0  0  0  0  0
    7.5806   -1.0032   -1.4848 C   0  0  2  0  0  0  0  0  0  0  0  0
    7.2700   -0.3884   -2.7470 O   0  0  0  0  0  0  0  0  0  0  0  0
    8.3060   -0.5189   -3.7127 C   0  0  0  0  0  0  0  0  0  0  0  0
    6.2529   -1.1978   -0.7310 C   0  0  0  0  0  0  0  0  0  0  0  0
    1.5350    0.7991    2.4975 C   0  0  2  0  0  0  0  0  0  0  0  0
    0.8639    0.0081    3.6320 C   0  0  0  0  0  0  0  0  0  0  0  0
    0.5672    1.8524    1.8842 C   0  0  1  0  0  0  0  0  0  0  0  0
   -0.0920    2.5649    2.9296 O   0  0  0  0  0  0  0  0  0  0  0  0
    1.3212    2.8785    1.0233 C   0  0  0  0  0  0  0  0  0  0  0  0
    0.5436    4.1443    0.7045 C   0  0  0  0  0  0  0  0  0  0  0  0
    1.0688    5.2486    0.8911 O   0  0  0  0  0  0  0  0  0  0  0  0
   -4.4756   -2.9730    1.3315 C   0  0  2  0  0  0  0  0  0  0  0  0
   -5.0488   -4.3918    1.4034 C   0  0  0  0  0  0  0  0  0  0  0  0
   -5.5929   -1.9049    1.2960 C   0  0  0  0  0  0  0  0  0  0  0  0
   -5.9076   -1.4138   -0.1197 C   0  0  2  0  0  0  0  0  0  0  0  0
   -6.5504   -2.5171   -0.7807 O   0  0  0  0  0  0  0  0  0  0  0  0
   -7.1922   -2.1521   -1.9974 C   0  0  0  0  0  0  0  0  0  0  0  0
   -1.0245    6.1879   -1.8742 H   0  0  0  0  0  0  0  0  0  0  0  0
    0.6894    5.7623   -1.6849 H   0  0  0  0  0  0  0  0  0  0  0  0
   -0.1708    5.3473   -3.1681 H   0  0  0  0  0  0  0  0  0  0  0  0
   -1.6141    3.7648   -1.9737 H   0  0  0  0  0  0  0  0  0  0  0  0
    0.0796    3.3306   -1.8182 H   0  0  0  0  0  0  0  0  0  0  0  0
   -1.2070    3.0138    0.2585 H   0  0  0  0  0  0  0  0  0  0  0  0
   -1.4040    6.0705    0.5259 H   0  0  0  0  0  0  0  0  0  0  0  0
   -3.2416    6.9542    1.5894 H   0  0  0  0  0  0  0  0  0  0  0  0
   -4.7307    6.1125    1.1495 H   0  0  0  0  0  0  0  0  0  0  0  0
   -3.9958    5.8553    2.7454 H   0  0  0  0  0  0  0  0  0  0  0  0
   -2.8535    2.7952    1.7150 H   0  0  0  0  0  0  0  0  0  0  0  0
   -4.3770    3.5207    2.1191 H   0  0  0  0  0  0  0  0  0  0  0  0
   -3.5119    2.9642   -0.7729 H   0  0  0  0  0  0  0  0  0  0  0  0
   -6.0212    3.2397   -1.2112 H   0  0  0  0  0  0  0  0  0  0  0  0
   -6.1863    3.8143    0.4526 H   0  0  0  0  0  0  0  0  0  0  0  0
   -5.1868    4.6952   -0.7230 H   0  0  0  0  0  0  0  0  0  0  0  0
   -5.5589    1.3099    0.7322 H   0  0  0  0  0  0  0  0  0  0  0  0
   -3.8407    0.9560    0.9419 H   0  0  0  0  0  0  0  0  0  0  0  0
   -3.5842    0.8035   -1.5533 H   0  0  0  0  0  0  0  0  0  0  0  0
   -6.2058    1.2483   -3.8359 H   0  0  0  0  0  0  0  0  0  0  0  0
   -4.9813   -0.0145   -3.6003 H   0  0  0  0  0  0  0  0  0  0  0  0
   -4.5328    1.7182   -3.4817 H   0  0  0  0  0  0  0  0  0  0  0  0
   -4.5529   -1.4130   -1.8260 H   0  0  0  0  0  0  0  0  0  0  0  0
   -3.7792   -4.4342   -0.7852 H   0  0  0  0  0  0  0  0  0  0  0  0
   -0.2668   -5.5313   -1.8846 H   0  0  0  0  0  0  0  0  0  0  0  0
    0.8332   -6.1235   -0.6360 H   0  0  0  0  0  0  0  0  0  0  0  0
    2.0748   -5.3595   -2.6943 H   0  0  0  0  0  0  0  0  0  0  0  0
    1.3419   -3.7683   -2.5406 H   0  0  0  0  0  0  0  0  0  0  0  0
    3.1855   -3.1980   -1.3694 H   0  0  0  0  0  0  0  0  0  0  0  0
    3.6840   -4.8621   -1.1397 H   0  0  0  0  0  0  0  0  0  0  0  0
    3.1501   -3.5360    0.9894 H   0  0  0  0  0  0  0  0  0  0  0  0
    2.4428   -5.1367    0.8494 H   0  0  0  0  0  0  0  0  0  0  0  0
    0.6804   -3.7169    1.6602 H   0  0  0  0  0  0  0  0  0  0  0  0
    1.8776    0.2903    0.4092 H   0  0  0  0  0  0  0  0  0  0  0  0
    3.9847   -0.1804    3.6042 H   0  0  0  0  0  0  0  0  0  0  0  0
    3.7265   -1.8210    2.9763 H   0  0  0  0  0  0  0  0  0  0  0  0
    5.2700   -1.0197    2.7522 H   0  0  0  0  0  0  0  0  0  0  0  0
    3.9078    0.4303   -0.4804 H   0  0  0  0  0  0  0  0  0  0  0  0
    6.3834   -0.2821    1.2118 H   0  0  0  0  0  0  0  0  0  0  0  0
    6.2188    2.0908    0.4687 H   0  0  0  0  0  0  0  0  0  0  0  0
    6.0582    1.5521   -1.1944 H   0  0  0  0  0  0  0  0  0  0  0  0
    8.3043    1.9303   -1.1640 H   0  0  0  0  0  0  0  0  0  0  0  0
    8.4730    1.6271    0.5599 H   0  0  0  0  0  0  0  0  0  0  0  0
    9.5187   -0.0470   -1.2102 H   0  0  0  0  0  0  0  0  0  0  0  0
    9.5228   -0.2928    1.0364 H   0  0  0  0  0  0  0  0  0  0  0  0
    7.9947   -2.0023   -1.6702 H   0  0  0  0  0  0  0  0  0  0  0  0
    9.1638    0.1032   -3.4474 H   0  0  0  0  0  0  0  0  0  0  0  0
    8.6116   -1.5627   -3.8201 H   0  0  0  0  0  0  0  0  0  0  0  0
    7.9148   -0.1732   -4.6719 H   0  0  0  0  0  0  0  0  0  0  0  0
    5.4417   -1.3350   -1.4629 H   0  0  0  0  0  0  0  0  0  0  0  0
    6.2993   -2.1320   -0.1512 H   0  0  0  0  0  0  0  0  0  0  0  0
    2.3438    1.3759    2.9678 H   0  0  0  0  0  0  0  0  0  0  0  0
   -0.0351   -0.5090    3.2822 H   0  0  0  0  0  0  0  0  0  0  0  0
    1.5476   -0.7345    4.0524 H   0  0  0  0  0  0  0  0  0  0  0  0
    0.5746    0.6667    4.4579 H   0  0  0  0  0  0  0  0  0  0  0  0
   -0.2017    1.3483    1.2880 H   0  0  0  0  0  0  0  0  0  0  0  0
   -0.7910    1.9917    3.2924 H   0  0  0  0  0  0  0  0  0  0  0  0
    2.2223    3.2026    1.5625 H   0  0  0  0  0  0  0  0  0  0  0  0
    1.6545    2.4425    0.0758 H   0  0  0  0  0  0  0  0  0  0  0  0
   -3.9697   -2.8123    2.2946 H   0  0  0  0  0  0  0  0  0  0  0  0
   -4.2468   -5.1329    1.4758 H   0  0  0  0  0  0  0  0  0  0  0  0
   -5.6768   -4.5047    2.2929 H   0  0  0  0  0  0  0  0  0  0  0  0
   -5.6613   -4.6325    0.5307 H   0  0  0  0  0  0  0  0  0  0  0  0
   -6.5007   -2.2909    1.7752 H   0  0  0  0  0  0  0  0  0  0  0  0
   -5.2688   -1.0450    1.8957 H   0  0  0  0  0  0  0  0  0  0  0  0
   -6.6409   -0.6033   -0.0573 H   0  0  0  0  0  0  0  0  0  0  0  0
   -7.8762   -1.3108   -1.8414 H   0  0  0  0  0  0  0  0  0  0  0  0
   -6.4585   -1.9058   -2.7691 H   0  0  0  0  0  0  0  0  0  0  0  0
   -7.7735   -3.0115   -2.3498 H   0  0  0  0  0  0  0  0  0  0  0  0
  1  2  1  0
  2  3  1  0
  3  4  1  0
  4  5  2  0
  5  6  1  0
  5  7  1  0
  7  8  1  0
  8  9  1  0
  8 10  1  0
 10 11  1  0
 11 12  1  0
 12 13  1  0
 11 14  1  0
 14 15  1  0
 15 16  1  0
 16 17  1  6
 16 18  1  0
 18 19  2  0
 18 20  1  0
 20 21  2  0
 20 22  1  0
 22 23  1  0
 23 24  1  0
 24 25  1  0
 25 26  1  0
 26 27  1  0
 27 28  1  0
 28 29  2  0
 28 30  1  0
 30 31  1  0
 31 32  1  0
 32 33  1  0
 32 34  2  0
 34 35  1  0
 35 36  1  0
 36 37  1  0
 37 38  1  0
 38 39  1  0
 38 40  1  0
 40 41  1  0
 41 42  1  0
 40 43  1  0
 31 44  1  0
 44 45  1  0
 44 46  1  0
 46 47  1  0
 46 48  1  0
 48 49  1  0
 49 50  2  0
 16 51  1  0
 51 52  1  0
 51 53  1  0
 53 54  1  0
 54 55  1  0
 55 56  1  0
 49  3  1  0
 54 14  1  0
 27 22  1  0
 43 35  1  0
  1 57  1  0
  1 58  1  0
  1 59  1  0
  2 60  1  0
  2 61  1  0
  3 62  1  6
  4 63  1  0
  6 64  1  0
  6 65  1  0
  6 66  1  0
  7 67  1  0
  7 68  1  0
  8 69  1  6
  9 70  1  0
  9 71  1  0
  9 72  1  0
 10 73  1  0
 10 74  1  0
 11 75  1  6
 13 76  1  0
 13 77  1  0
 13 78  1  0
 14 79  1  6
 17 80  1  0
 23 81  1  0
 23 82  1  0
 24 83  1  0
 24 84  1  0
 25 85  1  0
 25 86  1  0
 26 87  1  0
 26 88  1  0
 27 89  1  1
 31 90  1  6
 33 91  1  0
 33 92  1  0
 33 93  1  0
 34 94  1  0
 35 95  1  1
 36 96  1  0
 36 97  1  0
 37 98  1  0
 37 99  1  0
 38100  1  6
 39101  1  0
 40102  1  6
 42103  1  0
 42104  1  0
 42105  1  0
 43106  1  0
 43107  1  0
 44108  1  1
 45109  1  0
 45110  1  0
 45111  1  0
 46112  1  6
 47113  1  0
 48114  1  0
 48115  1  0
 51116  1  1
 52117  1  0
 52118  1  0
 52119  1  0
 53120  1  0
 53121  1  0
 54122  1  1
 56123  1  0
 56124  1  0
 56125  1  0
M  END
$$$$
