
     RDKit          3D

 44 46  0  0  0  0  0  0  0  0999 V2000
   -5.5029    0.5240    1.3859 C   0  0  0  0  0  0  0  0  0  0  0  0
   -4.9728    0.3875    0.0724 O   0  0  0  0  0  0  0  0  0  0  0  0
   -3.7162    0.8877   -0.1415 C   0  0  0  0  0  0  0  0  0  0  0  0
   -2.9907    1.6767    0.7507 C   0  0  0  0  0  0  0  0  0  0  0  0
   -1.7148    2.1183    0.3985 C   0  0  0  0  0  0  0  0  0  0  0  0
   -0.9240    2.8746    1.3213 N   0  0  0  0  0  0  0  0  0  0  0  0
   -0.0885    1.9598    2.4875 S   0  0  0  0  0  6  0  0  0  0  0  0
    0.7570    2.8810    3.2162 O   0  0  0  0  0  0  0  0  0  0  0  0
   -1.0347    1.1061    3.1728 O   0  0  0  0  0  0  0  0  0  0  0  0
    1.0079    0.8938    1.6838 C   0  0  0  0  0  0  0  0  0  0  0  0
    0.7861   -0.4837    1.4168 C   0  0  0  0  0  0  0  0  0  0  0  0
    1.8870   -0.9584    0.7240 C   0  0  0  0  0  0  0  0  0  0  0  0
    2.7449    0.1056    0.5727 N   0  0  0  0  0  0  0  0  0  0  0  0
    2.2343    1.2335    1.1427 C   0  0  0  0  0  0  0  0  0  0  0  0
    4.0004   -0.0278   -0.1398 C   0  0  0  0  0  0  0  0  0  0  0  0
    4.4892   -1.4696   -0.0372 C   0  0  0  0  0  0  0  0  0  0  0  0
    3.4399   -2.4433   -0.3475 N   0  0  0  0  0  0  0  0  0  0  0  0
    3.8581   -3.7802   -0.7227 C   0  0  0  0  0  0  0  0  0  0  0  0
    2.1613   -2.2871    0.2105 C   0  0  0  0  0  0  0  0  0  0  0  0
    1.3421   -3.1995    0.2563 O   0  0  0  0  0  0  0  0  0  0  0  0
   -1.1570    1.7657   -0.8289 C   0  0  0  0  0  0  0  0  0  0  0  0
   -1.8768    0.9789   -1.7275 C   0  0  0  0  0  0  0  0  0  0  0  0
   -1.2242    0.7040   -2.8979 O   0  0  0  0  0  0  0  0  0  0  0  0
   -1.8572   -0.2133   -3.7823 C   0  0  0  0  0  0  0  0  0  0  0  0
   -3.1591    0.5501   -1.3818 C   0  0  0  0  0  0  0  0  0  0  0  0
   -6.4633    0.0003    1.4144 H   0  0  0  0  0  0  0  0  0  0  0  0
   -5.6902    1.5759    1.6248 H   0  0  0  0  0  0  0  0  0  0  0  0
   -4.8472    0.0592    2.1298 H   0  0  0  0  0  0  0  0  0  0  0  0
   -3.3906    1.9427    1.7227 H   0  0  0  0  0  0  0  0  0  0  0  0
   -1.4573    3.5866    1.8205 H   0  0  0  0  0  0  0  0  0  0  0  0
   -0.0834   -1.0699    1.6917 H   0  0  0  0  0  0  0  0  0  0  0  0
    2.7591    2.1805    1.1232 H   0  0  0  0  0  0  0  0  0  0  0  0
    3.7988    0.2491   -1.1805 H   0  0  0  0  0  0  0  0  0  0  0  0
    4.7269    0.6690    0.2892 H   0  0  0  0  0  0  0  0  0  0  0  0
    5.3285   -1.6180   -0.7252 H   0  0  0  0  0  0  0  0  0  0  0  0
    4.8367   -1.6835    0.9812 H   0  0  0  0  0  0  0  0  0  0  0  0
    4.2989   -4.2699    0.1507 H   0  0  0  0  0  0  0  0  0  0  0  0
    3.0090   -4.3738   -1.0731 H   0  0  0  0  0  0  0  0  0  0  0  0
    4.5977   -3.7156   -1.5256 H   0  0  0  0  0  0  0  0  0  0  0  0
   -0.1575    2.1004   -1.0928 H   0  0  0  0  0  0  0  0  0  0  0  0
   -1.1858   -0.3760   -4.6310 H   0  0  0  0  0  0  0  0  0  0  0  0
   -2.0229   -1.1816   -3.2983 H   0  0  0  0  0  0  0  0  0  0  0  0
   -2.7928    0.2003   -4.1728 H   0  0  0  0  0  0  0  0  0  0  0  0
   -3.7541   -0.0602   -2.0539 H   0  0  0  0  0  0  0  0  0  0  0  0
  1  2  1  0
  2  3  1  0
  3  4  2  0
  4  5  1  0
  5  6  1  0
  6  7  1  0
  7  8  2  0
  7  9  2  0
  7 10  1  0
 10 11  1  0
 11 12  2  0
 12 13  1  0
 13 14  1  0
 13 15  1  0
 15 16  1  0
 16 17  1  0
 17 18  1  0
 17 19  1  0
 19 20  2  0
  5 21  2  0
 21 22  1  0
 22 23  1  0
 23 24  1  0
 22 25  2  0
 25  3  1  0
 14 10  2  0
 19 12  1  0
  1 26  1  0
  1 27  1  0
  1 28  1  0
  4 29  1  0
  6 30  1  0
 11 31  1  0
 14 32  1  0
 15 33  1  0
 15 34  1  0
 16 35  1  0
 16 36  1  0
 18 37  1  0
 18 38  1  0
 18 39  1  0
 21 40  1  0
 24 41  1  0
 24 42  1  0
 24 43  1  0
 25 44  1  0
M  END
$$$$
