
     RDKit          3D

 44 45  0  0  0  0  0  0  0  0999 V2000
    6.2312    2.0538    1.6559 Cl  0  0  0  0  0  0  0  0  0  0  0  0
    4.7953    1.4240    0.9475 C   0  0  0  0  0  0  0  0  0  0  0  0
    3.8124    2.2949    0.4823 C   0  0  0  0  0  0  0  0  0  0  0  0
    2.6508    1.7820   -0.0983 C   0  0  0  0  0  0  0  0  0  0  0  0
    2.4658    0.3945   -0.2169 C   0  0  0  0  0  0  0  0  0  0  0  0
    1.2146   -0.1514   -0.8531 C   0  0  0  0  0  0  0  0  0  0  0  0
    0.0978    0.2680   -0.0701 O   0  0  0  0  0  0  0  0  0  0  0  0
   -1.1393   -0.3155   -0.5125 C   0  0  0  0  0  0  0  0  0  0  0  0
   -2.2761    0.6647   -0.1806 C   0  0  0  0  0  0  0  0  0  0  0  0
   -2.2849    1.8045   -1.0804 N   0  0  0  0  0  0  0  0  0  0  0  0
   -1.6441    2.9959   -0.8890 C   0  0  0  0  0  0  0  0  0  0  0  0
   -1.9624    3.7495   -1.9942 C   0  0  0  0  0  0  0  0  0  0  0  0
   -2.7755    3.0440   -2.8440 N   0  0  0  0  0  0  0  0  0  0  0  0
   -2.9587    1.8796   -2.2649 C   0  0  0  0  0  0  0  0  0  0  0  0
   -1.3749   -1.6350    0.2121 C   0  0  0  0  0  0  0  0  0  0  0  0
   -0.8847   -1.8164    1.5205 C   0  0  0  0  0  0  0  0  0  0  0  0
   -1.1075   -3.0082    2.2140 C   0  0  0  0  0  0  0  0  0  0  0  0
   -1.8306   -4.0322    1.6119 C   0  0  0  0  0  0  0  0  0  0  0  0
   -2.1057   -5.5003    2.4673 Cl  0  0  0  0  0  0  0  0  0  0  0  0
   -2.3367   -3.8751    0.3251 C   0  0  0  0  0  0  0  0  0  0  0  0
   -2.1127   -2.6822   -0.3690 C   0  0  0  0  0  0  0  0  0  0  0  0
   -2.7931   -2.5464   -1.9524 Cl  0  0  0  0  0  0  0  0  0  0  0  0
    3.4622   -0.4690    0.2617 C   0  0  0  0  0  0  0  0  0  0  0  0
    4.6237    0.0446    0.8439 C   0  0  0  0  0  0  0  0  0  0  0  0
   -0.4131   -0.4557   -1.0945 O   0  0  0  0  0  0  0  0  0  0  0  0
   -0.3147    0.2566   -0.1014 N   0  0  0  0  0  4  0  0  0  0  0  0
   -0.9360    1.2423    0.2758 O   0  0  0  0  0  1  0  0  0  0  0  0
    0.7025   -0.1489    0.7415 O   0  0  0  0  0  0  0  0  0  0  0  0
    3.9444    3.3700    0.5621 H   0  0  0  0  0  0  0  0  0  0  0  0
    1.8843    2.4669   -0.4582 H   0  0  0  0  0  0  0  0  0  0  0  0
    1.1235    0.2386   -1.8734 H   0  0  0  0  0  0  0  0  0  0  0  0
    1.2518   -1.2455   -0.9008 H   0  0  0  0  0  0  0  0  0  0  0  0
   -1.0805   -0.4692   -1.5967 H   0  0  0  0  0  0  0  0  0  0  0  0
   -3.2621    0.1918   -0.2645 H   0  0  0  0  0  0  0  0  0  0  0  0
   -2.1789    1.0606    0.8380 H   0  0  0  0  0  0  0  0  0  0  0  0
   -1.0361    3.2014   -0.0192 H   0  0  0  0  0  0  0  0  0  0  0  0
   -1.6508    4.7610   -2.2232 H   0  0  0  0  0  0  0  0  0  0  0  0
   -3.5612    1.0700   -2.6572 H   0  0  0  0  0  0  0  0  0  0  0  0
   -0.3179   -1.0245    2.0104 H   0  0  0  0  0  0  0  0  0  0  0  0
   -0.7131   -3.1282    3.2202 H   0  0  0  0  0  0  0  0  0  0  0  0
   -2.9060   -4.6788   -0.1343 H   0  0  0  0  0  0  0  0  0  0  0  0
    3.3443   -1.5487    0.1804 H   0  0  0  0  0  0  0  0  0  0  0  0
    5.3916   -0.6337    1.2060 H   0  0  0  0  0  0  0  0  0  0  0  0
    0.9613   -0.8943    0.1786 H   0  0  0  0  0  0  0  0  0  0  0  0
  1  2  1  0
  2  3  2  0
  3  4  1  0
  4  5  2  0
  5  6  1  0
  6  7  1  0
  7  8  1  0
  8  9  1  0
  9 10  1  0
 10 11  1  0
 11 12  2  0
 12 13  1  0
 13 14  2  0
  8 15  1  0
 15 16  2  0
 16 17  1  0
 17 18  2  0
 18 19  1  0
 18 20  1  0
 20 21  2  0
 21 22  1  0
  5 23  1  0
 23 24  2  0
 25 26  2  0
 26 27  1  0
 26 28  1  0
 24  2  1  0
 14 10  1  0
 21 15  1  0
  3 29  1  0
  4 30  1  0
  6 31  1  0
  6 32  1  0
  8 33  1  0
  9 34  1  0
  9 35  1  0
 11 36  1  0
 12 37  1  0
 14 38  1  0
 16 39  1  0
 17 40  1  0
 20 41  1  0
 23 42  1  0
 24 43  1  0
 28 44  1  0
M  CHG  2  26   1  27  -1
M  END
$$$$
