
     RDKit          3D

 26 28  0  0  0  0  0  0  0  0999 V2000
   -4.0432    0.6922    2.4695 O   0  0  0  0  0  0  0  0  0  0  0  0
   -3.3787    0.3588    1.4976 C   0  0  0  0  0  0  0  0  0  0  0  0
   -1.8923    0.2445    1.5176 C   0  0  0  0  0  0  0  0  0  0  0  0
   -1.2251   -0.1376    0.4082 C   0  0  0  0  0  0  0  0  0  0  0  0
    0.2858   -0.2713    0.4105 C   0  0  0  0  0  0  0  0  0  0  0  0
    1.0097    0.9509   -0.7218 S   0  0  0  0  0  0  0  0  0  0  0  0
    2.7295    0.5501   -0.5447 C   0  0  0  0  0  0  0  0  0  0  0  0
    3.0906   -0.4205    0.3128 N   0  0  0  0  0  0  0  0  0  0  0  0
    4.4097   -0.6778    0.4029 C   0  0  0  0  0  0  0  0  0  0  0  0
    5.3657   -0.0102   -0.3235 C   0  0  0  0  0  0  0  0  0  0  0  0
    4.8908    0.9611   -1.1703 C   0  0  0  0  0  0  0  0  0  0  0  0
    3.5851    1.2589   -1.2995 N   0  0  0  0  0  0  0  0  0  0  0  0
   -1.9091   -0.4474   -0.7622 N   0  0  0  0  0  0  0  0  0  0  0  0
   -3.2494   -0.3405   -0.8531 C   0  0  0  0  0  0  0  0  0  0  0  0
   -4.0657   -0.5433   -1.8552 N   0  0  0  0  0  0  0  0  0  0  0  0
   -5.2882   -0.2708   -1.3009 C   0  0  0  0  0  0  0  0  0  0  0  0
   -5.2834    0.0899   -0.0140 N   0  0  0  0  0  0  0  0  0  0  0  0
   -3.9556    0.0491    0.2638 N   0  0  0  0  0  0  0  0  0  0  0  0
   -1.4086    0.4890    2.4552 H   0  0  0  0  0  0  0  0  0  0  0  0
    0.6851   -0.1147    1.4189 H   0  0  0  0  0  0  0  0  0  0  0  0
    0.5533   -1.2851    0.0911 H   0  0  0  0  0  0  0  0  0  0  0  0
    4.6837   -1.4640    1.1008 H   0  0  0  0  0  0  0  0  0  0  0  0
    6.4196   -0.2332   -0.2350 H   0  0  0  0  0  0  0  0  0  0  0  0
    5.5636    1.5477   -1.7896 H   0  0  0  0  0  0  0  0  0  0  0  0
   -1.3579   -0.6365   -1.5971 H   0  0  0  0  0  0  0  0  0  0  0  0
   -6.2149   -0.3392   -1.8576 H   0  0  0  0  0  0  0  0  0  0  0  0
  1  2  2  0
  2  3  1  0
  3  4  2  0
  4  5  1  0
  5  6  1  0
  6  7  1  0
  7  8  2  0
  8  9  1  0
  9 10  2  0
 10 11  1  0
 11 12  2  0
  4 13  1  0
 13 14  1  0
 14 15  2  0
 15 16  1  0
 16 17  2  0
 17 18  1  0
 18  2  1  0
 12  7  1  0
 18 14  1  0
  3 19  1  0
  5 20  1  0
  5 21  1  0
  9 22  1  0
 10 23  1  0
 11 24  1  0
 13 25  1  0
 16 26  1  0
M  END
$$$$
