
     RDKit          3D

 37 40  0  0  0  0  0  0  0  0999 V2000
   -5.0822   -1.6597   -0.9259 O   0  0  0  0  0  0  0  0  0  0  0  0
   -4.8278   -1.9652    0.2266 C   0  0  0  0  0  0  0  0  0  0  0  0
   -5.8219   -2.3925    1.0384 O   0  0  0  0  0  0  0  0  0  0  0  0
   -3.4903   -1.9940    0.9140 C   0  0  0  0  0  0  0  0  0  0  0  0
   -2.4990   -1.1637    0.2470 N   0  0  0  0  0  0  0  0  0  0  0  0
   -1.5470   -1.6393   -0.6179 C   0  0  0  0  0  0  0  0  0  0  0  0
   -0.7527   -0.5813   -1.0182 C   0  0  0  0  0  0  0  0  0  0  0  0
    0.4005   -0.6421   -1.9739 C   0  0  0  0  0  0  0  0  0  0  0  0
    1.7265   -0.4136   -1.3032 C   0  0  0  0  0  0  0  0  0  0  0  0
    2.4256    0.6985   -1.4020 N   0  0  0  0  0  0  0  0  0  0  0  0
    3.5902    0.6071   -0.6507 C   0  0  0  0  0  0  0  0  0  0  0  0
    4.5772    1.6038   -0.4929 C   0  0  0  0  0  0  0  0  0  0  0  0
    4.4480    2.7931   -1.1004 F   0  0  0  0  0  0  0  0  0  0  0  0
    5.6977    1.3551    0.2992 C   0  0  0  0  0  0  0  0  0  0  0  0
    6.6333    2.3036    0.4468 F   0  0  0  0  0  0  0  0  0  0  0  0
    5.8679    0.1397    0.9408 C   0  0  0  0  0  0  0  0  0  0  0  0
    4.9049   -0.8540    0.7947 C   0  0  0  0  0  0  0  0  0  0  0  0
    5.0775   -2.0282    1.4167 F   0  0  0  0  0  0  0  0  0  0  0  0
    3.7726   -0.6157    0.0018 C   0  0  0  0  0  0  0  0  0  0  0  0
    2.4441   -1.6508   -0.3496 S   0  0  0  0  0  0  0  0  0  0  0  0
   -1.2501    0.5847   -0.3511 C   0  0  0  0  0  0  0  0  0  0  0  0
   -0.8631    1.9417   -0.3457 C   0  0  0  0  0  0  0  0  0  0  0  0
   -1.5704    2.8615    0.4345 C   0  0  0  0  0  0  0  0  0  0  0  0
   -2.6532    2.4497    1.2040 C   0  0  0  0  0  0  0  0  0  0  0  0
   -3.0577    1.1116    1.2182 C   0  0  0  0  0  0  0  0  0  0  0  0
   -2.3392    0.1940    0.4335 C   0  0  0  0  0  0  0  0  0  0  0  0
   -6.6237   -2.3407    0.4741 H   0  0  0  0  0  0  0  0  0  0  0  0
   -3.1192   -3.0237    0.9335 H   0  0  0  0  0  0  0  0  0  0  0  0
   -3.5852   -1.6319    1.9426 H   0  0  0  0  0  0  0  0  0  0  0  0
   -1.5116   -2.6872   -0.8886 H   0  0  0  0  0  0  0  0  0  0  0  0
    0.4113   -1.6088   -2.4932 H   0  0  0  0  0  0  0  0  0  0  0  0
    0.2579    0.1187   -2.7520 H   0  0  0  0  0  0  0  0  0  0  0  0
    6.7457   -0.0377    1.5529 H   0  0  0  0  0  0  0  0  0  0  0  0
   -0.0165    2.2756   -0.9405 H   0  0  0  0  0  0  0  0  0  0  0  0
   -1.2689    3.9059    0.4360 H   0  0  0  0  0  0  0  0  0  0  0  0
   -3.1942    3.1790    1.8024 H   0  0  0  0  0  0  0  0  0  0  0  0
   -3.9069    0.8069    1.8207 H   0  0  0  0  0  0  0  0  0  0  0  0
  1  2  2  0
  2  3  1  0
  2  4  1  0
  4  5  1  0
  5  6  1  0
  6  7  2  0
  7  8  1  0
  8  9  1  0
  9 10  2  0
 10 11  1  0
 11 12  2  0
 12 13  1  0
 12 14  1  0
 14 15  1  0
 14 16  2  0
 16 17  1  0
 17 18  1  0
 17 19  2  0
 19 20  1  0
  7 21  1  0
 21 22  2  0
 22 23  1  0
 23 24  2  0
 24 25  1  0
 25 26  2  0
 26  5  1  0
 20  9  1  0
 26 21  1  0
 19 11  1  0
  3 27  1  0
  4 28  1  0
  4 29  1  0
  6 30  1  0
  8 31  1  0
  8 32  1  0
 16 33  1  0
 22 34  1  0
 23 35  1  0
 24 36  1  0
 25 37  1  0
M  END
$$$$
