
     RDKit          3D

 36 38  0  0  0  0  0  0  0  0999 V2000
    5.5005    0.1141   -0.8117 C   0  0  0  0  0  0  0  0  0  0  0  0
    4.6074    0.1481    0.3442 N   0  0  0  0  0  0  0  0  0  0  0  0
    5.1629    0.7366    1.5602 C   0  0  0  0  0  0  0  0  0  0  0  0
    3.2254    0.1998    0.1276 C   0  0  0  0  0  0  0  0  0  0  0  0
    2.3221    0.6122    1.1227 C   0  0  0  0  0  0  0  0  0  0  0  0
    0.9345    0.6537    0.9105 C   0  0  0  0  0  0  0  0  0  0  0  0
    0.3915    0.2551   -0.3074 C   0  0  0  0  0  0  0  0  0  0  0  0
   -1.0449    0.3370   -0.5902 C   0  0  0  0  0  0  0  0  0  0  0  0
   -2.0458   -0.2325    0.0985 C   0  0  0  0  0  0  0  0  0  0  0  0
   -1.9636   -1.1189    1.3188 C   0  0  0  0  0  0  0  0  0  0  0  0
   -0.9841   -1.4832    1.9375 O   0  0  0  0  0  0  0  0  0  0  0  0
   -3.2800   -1.4482    1.6098 N   0  0  0  0  0  0  0  0  0  0  0  0
   -4.1640   -0.8682    0.7070 C   0  0  0  0  0  0  0  0  0  0  0  0
   -5.5389   -0.9886    0.7022 C   0  0  0  0  0  0  0  0  0  0  0  0
   -6.2374   -0.3158   -0.3027 C   0  0  0  0  0  0  0  0  0  0  0  0
   -5.5536    0.4505   -1.2647 C   0  0  0  0  0  0  0  0  0  0  0  0
   -4.1580    0.5576   -1.2396 C   0  0  0  0  0  0  0  0  0  0  0  0
   -3.4705   -0.1120   -0.2421 C   0  0  0  0  0  0  0  0  0  0  0  0
    1.2616   -0.1643   -1.3119 C   0  0  0  0  0  0  0  0  0  0  0  0
    2.6476   -0.1981   -1.0907 C   0  0  0  0  0  0  0  0  0  0  0  0
    6.5523    0.1321   -0.5043 H   0  0  0  0  0  0  0  0  0  0  0  0
    5.3346    0.9789   -1.4638 H   0  0  0  0  0  0  0  0  0  0  0  0
    5.3711   -0.8097   -1.3854 H   0  0  0  0  0  0  0  0  0  0  0  0
    4.9806    1.8164    1.5939 H   0  0  0  0  0  0  0  0  0  0  0  0
    6.2463    0.5814    1.6159 H   0  0  0  0  0  0  0  0  0  0  0  0
    4.7470    0.2640    2.4566 H   0  0  0  0  0  0  0  0  0  0  0  0
    2.6700    0.9167    2.1047 H   0  0  0  0  0  0  0  0  0  0  0  0
    0.2913    0.9893    1.7203 H   0  0  0  0  0  0  0  0  0  0  0  0
   -1.2719    0.9246   -1.4765 H   0  0  0  0  0  0  0  0  0  0  0  0
   -3.5285   -2.0419    2.3853 H   0  0  0  0  0  0  0  0  0  0  0  0
   -6.0625   -1.5793    1.4448 H   0  0  0  0  0  0  0  0  0  0  0  0
   -7.3225   -0.3834   -0.3439 H   0  0  0  0  0  0  0  0  0  0  0  0
   -6.1190    0.9667   -2.0381 H   0  0  0  0  0  0  0  0  0  0  0  0
   -3.6425    1.1521   -1.9859 H   0  0  0  0  0  0  0  0  0  0  0  0
    0.8774   -0.4830   -2.2778 H   0  0  0  0  0  0  0  0  0  0  0  0
    3.2636   -0.5598   -1.9077 H   0  0  0  0  0  0  0  0  0  0  0  0
  1  2  1  0
  2  3  1  0
  2  4  1  0
  4  5  2  0
  5  6  1  0
  6  7  2  0
  7  8  1  0
  8  9  2  0
  9 10  1  0
 10 11  2  0
 10 12  1  0
 12 13  1  0
 13 14  2  0
 14 15  1  0
 15 16  2  0
 16 17  1  0
 17 18  2  0
  7 19  1  0
 19 20  2  0
 20  4  1  0
 18  9  1  0
 18 13  1  0
  1 21  1  0
  1 22  1  0
  1 23  1  0
  3 24  1  0
  3 25  1  0
  3 26  1  0
  5 27  1  0
  6 28  1  0
  8 29  1  0
 12 30  1  0
 14 31  1  0
 15 32  1  0
 16 33  1  0
 17 34  1  0
 19 35  1  0
 20 36  1  0
M  END
$$$$
