
     RDKit          3D

 39 42  0  0  0  0  0  0  0  0999 V2000
   -7.5274    2.4120   -2.1994 N   0  0  0  0  0  0  0  0  0  0  0  0
   -6.6078    2.0838   -1.5722 C   0  0  0  0  0  0  0  0  0  0  0  0
   -5.4709    1.6785   -0.7986 C   0  0  0  0  0  0  0  0  0  0  0  0
   -4.8224    0.4738   -1.0800 C   0  0  0  0  0  0  0  0  0  0  0  0
   -3.7120    0.0806   -0.3246 C   0  0  0  0  0  0  0  0  0  0  0  0
   -3.2294    0.8801    0.7253 C   0  0  0  0  0  0  0  0  0  0  0  0
   -2.0627    0.4648    1.5169 C   0  0  0  0  0  0  0  0  0  0  0  0
   -2.1205    0.3675    2.9119 C   0  0  0  0  0  0  0  0  0  0  0  0
   -1.1128    0.0012    3.7426 N   0  0  0  0  0  0  0  0  0  0  0  0
    0.0244   -0.2838    3.0851 C   0  0  0  0  0  0  0  0  0  0  0  0
    1.1854   -0.6781    3.6877 N   0  0  0  0  0  0  0  0  0  0  0  0
    2.1514   -0.8892    2.7380 C   0  0  0  0  0  0  0  0  0  0  0  0
    1.6069   -0.6219    1.5003 C   0  0  0  0  0  0  0  0  0  0  0  0
    2.2320   -0.7075    0.2649 N   0  0  0  0  0  0  0  0  0  0  0  0
    3.5643   -1.0219    0.0636 C   0  0  0  0  0  0  0  0  0  0  0  0
    4.4142   -1.2106    0.9265 O   0  0  0  0  0  0  0  0  0  0  0  0
    3.9875   -1.0912   -1.3546 C   0  0  0  0  0  0  0  0  0  0  0  0
    5.2669   -0.6688   -1.7202 C   0  0  0  0  0  0  0  0  0  0  0  0
    5.6544   -0.7376   -3.0564 C   0  0  0  0  0  0  0  0  0  0  0  0
    4.7471   -1.2343   -3.9796 C   0  0  0  0  0  0  0  0  0  0  0  0
    3.5072   -1.6667   -3.6568 N   0  0  0  0  0  0  0  0  0  0  0  0
    3.1615   -1.5998   -2.3482 C   0  0  0  0  0  0  0  0  0  0  0  0
    0.2464   -0.2390    1.7136 C   0  0  0  0  0  0  0  0  0  0  0  0
   -0.8386    0.1488    0.9035 C   0  0  0  0  0  0  0  0  0  0  0  0
   -3.8937    2.0886    0.9950 C   0  0  0  0  0  0  0  0  0  0  0  0
   -5.0037    2.4860    0.2410 C   0  0  0  0  0  0  0  0  0  0  0  0
   -5.1756   -0.1694   -1.8843 H   0  0  0  0  0  0  0  0  0  0  0  0
   -3.2313   -0.8691   -0.5554 H   0  0  0  0  0  0  0  0  0  0  0  0
   -3.0495    0.5894    3.4357 H   0  0  0  0  0  0  0  0  0  0  0  0
    1.2914   -0.7906    4.6852 H   0  0  0  0  0  0  0  0  0  0  0  0
    3.1419   -1.2093    3.0342 H   0  0  0  0  0  0  0  0  0  0  0  0
    1.6596   -0.4449   -0.5260 H   0  0  0  0  0  0  0  0  0  0  0  0
    5.9561   -0.2889   -0.9693 H   0  0  0  0  0  0  0  0  0  0  0  0
    6.6414   -0.4137   -3.3687 H   0  0  0  0  0  0  0  0  0  0  0  0
    5.0035   -1.3055   -5.0334 H   0  0  0  0  0  0  0  0  0  0  0  0
    2.1763   -2.0004   -2.1286 H   0  0  0  0  0  0  0  0  0  0  0  0
   -0.7245    0.2151   -0.1734 H   0  0  0  0  0  0  0  0  0  0  0  0
   -3.5421    2.7424    1.7923 H   0  0  0  0  0  0  0  0  0  0  0  0
   -5.4952    3.4296    0.4719 H   0  0  0  0  0  0  0  0  0  0  0  0
  1  2  3  0
  2  3  1  0
  3  4  2  0
  4  5  1  0
  5  6  2  0
  6  7  1  0
  7  8  2  0
  8  9  1  0
  9 10  2  0
 10 11  1  0
 11 12  1  0
 12 13  2  0
 13 14  1  0
 14 15  1  0
 15 16  2  0
 15 17  1  0
 17 18  2  0
 18 19  1  0
 19 20  2  0
 20 21  1  0
 21 22  2  0
 13 23  1  0
 23 24  2  0
  6 25  1  0
 25 26  2  0
 26  3  1  0
 24  7  1  0
 23 10  1  0
 22 17  1  0
  4 27  1  0
  5 28  1  0
  8 29  1  0
 11 30  1  0
 12 31  1  0
 14 32  1  0
 18 33  1  0
 19 34  1  0
 20 35  1  0
 22 36  1  0
 24 37  1  0
 25 38  1  0
 26 39  1  0
M  END
$$$$
