
     RDKit          3D

 40 41  0  0  0  0  0  0  0  0999 V2000
    6.6563   -1.6901    0.1552 C   0  0  0  0  0  0  0  0  0  0  0  0
    5.8902   -0.5041    0.0065 O   0  0  0  0  0  0  0  0  0  0  0  0
    4.5325   -0.5947    0.1916 C   0  0  0  0  0  0  0  0  0  0  0  0
    3.8519   -1.7819    0.4821 C   0  0  0  0  0  0  0  0  0  0  0  0
    2.4649   -1.7810    0.6524 C   0  0  0  0  0  0  0  0  0  0  0  0
    1.7388   -0.5929    0.5383 C   0  0  0  0  0  0  0  0  0  0  0  0
    0.2390   -0.5871    0.6998 C   0  0  0  0  0  0  0  0  0  0  0  0
   -0.4761   -0.6597   -0.6520 C   0  0  0  0  0  0  0  0  0  0  0  0
   -1.9199   -0.6557   -0.5105 N   0  0  0  0  0  0  0  0  0  0  0  0
   -2.6176    0.5150   -0.2628 C   0  0  0  0  0  0  0  0  0  0  0  0
   -2.0284    1.5921   -0.1910 O   0  0  0  0  0  0  0  0  0  0  0  0
   -4.0556    0.3494   -0.0818 C   0  0  0  0  0  0  0  0  0  0  0  0
   -4.8781   -0.7287   -0.3610 C   0  0  0  0  0  0  0  0  0  0  0  0
   -6.2430   -0.4807   -0.0271 C   0  0  0  0  0  0  0  0  0  0  0  0
   -6.4312    0.7814    0.4918 C   0  0  0  0  0  0  0  0  0  0  0  0
   -7.6971    1.4172    0.9541 C   0  0  0  0  0  0  0  0  0  0  0  0
   -4.9644    1.6547    0.5662 S   0  0  0  0  0  0  0  0  0  0  0  0
    2.4191    0.5986    0.2432 C   0  0  0  0  0  0  0  0  0  0  0  0
    3.8087    0.6082    0.0698 C   0  0  0  0  0  0  0  0  0  0  0  0
    4.5462    1.7299   -0.2208 O   0  0  0  0  0  0  0  0  0  0  0  0
    3.8513    2.9636   -0.3336 C   0  0  0  0  0  0  0  0  0  0  0  0
    6.3776   -2.4370   -0.5953 H   0  0  0  0  0  0  0  0  0  0  0  0
    6.5678   -2.0943    1.1691 H   0  0  0  0  0  0  0  0  0  0  0  0
    7.7072   -1.4323   -0.0082 H   0  0  0  0  0  0  0  0  0  0  0  0
    4.3727   -2.7280    0.5818 H   0  0  0  0  0  0  0  0  0  0  0  0
    1.9593   -2.7176    0.8767 H   0  0  0  0  0  0  0  0  0  0  0  0
   -0.0605    0.3137    1.2502 H   0  0  0  0  0  0  0  0  0  0  0  0
   -0.0712   -1.4301    1.3308 H   0  0  0  0  0  0  0  0  0  0  0  0
   -0.1861    0.1837   -1.2898 H   0  0  0  0  0  0  0  0  0  0  0  0
   -0.2094   -1.5816   -1.1807 H   0  0  0  0  0  0  0  0  0  0  0  0
   -2.3927   -1.5419   -0.4179 H   0  0  0  0  0  0  0  0  0  0  0  0
   -4.5368   -1.6576   -0.7992 H   0  0  0  0  0  0  0  0  0  0  0  0
   -7.0463   -1.1943   -0.1688 H   0  0  0  0  0  0  0  0  0  0  0  0
   -7.9187    2.3140    0.3663 H   0  0  0  0  0  0  0  0  0  0  0  0
   -7.6276    1.6988    2.0100 H   0  0  0  0  0  0  0  0  0  0  0  0
   -8.5421    0.7291    0.8464 H   0  0  0  0  0  0  0  0  0  0  0  0
    1.8361    1.5108    0.1530 H   0  0  0  0  0  0  0  0  0  0  0  0
    4.5871    3.7423   -0.5565 H   0  0  0  0  0  0  0  0  0  0  0  0
    3.3620    3.2298    0.6091 H   0  0  0  0  0  0  0  0  0  0  0  0
    3.1341    2.9389   -1.1606 H   0  0  0  0  0  0  0  0  0  0  0  0
  1  2  1  0
  2  3  1  0
  3  4  2  0
  4  5  1  0
  5  6  2  0
  6  7  1  0
  7  8  1  0
  8  9  1  0
  9 10  1  0
 10 11  2  0
 10 12  1  0
 12 13  2  0
 13 14  1  0
 14 15  2  0
 15 16  1  0
 15 17  1  0
  6 18  1  0
 18 19  2  0
 19 20  1  0
 20 21  1  0
 19  3  1  0
 17 12  1  0
  1 22  1  0
  1 23  1  0
  1 24  1  0
  4 25  1  0
  5 26  1  0
  7 27  1  0
  7 28  1  0
  8 29  1  0
  8 30  1  0
  9 31  1  0
 13 32  1  0
 14 33  1  0
 16 34  1  0
 16 35  1  0
 16 36  1  0
 18 37  1  0
 21 38  1  0
 21 39  1  0
 21 40  1  0
M  END
$$$$
