
     RDKit          3D

 52 55  0  0  0  0  0  0  0  0999 V2000
    5.6254    3.1415   -0.1958 N   0  0  0  0  0  0  0  0  0  0  0  0
    5.9348    2.5064   -1.3603 C   0  0  0  0  0  0  0  0  0  0  0  0
    6.9150    2.8726   -2.0085 O   0  0  0  0  0  0  0  0  0  0  0  0
    5.1031    1.3672   -1.8402 C   0  0  0  0  0  0  0  0  0  0  0  0
    5.6317    0.6380   -2.9253 C   0  0  0  0  0  0  0  0  0  0  0  0
    4.9539   -0.4609   -3.4646 C   0  0  0  0  0  0  0  0  0  0  0  0
    5.4987   -1.1310   -4.4897 F   0  0  0  0  0  0  0  0  0  0  0  0
    3.7308   -0.8779   -2.9558 C   0  0  0  0  0  0  0  0  0  0  0  0
    3.2099   -0.1741   -1.8822 C   0  0  0  0  0  0  0  0  0  0  0  0
    3.8822    0.9329   -1.3300 C   0  0  0  0  0  0  0  0  0  0  0  0
    3.0341    1.4158   -0.2214 C   0  0  0  0  0  0  0  0  0  0  0  0
    3.2298    2.4202    0.4385 O   0  0  0  0  0  0  0  0  0  0  0  0
    1.9770    0.5272   -0.0810 N   0  0  0  0  0  0  0  0  0  0  0  0
    0.8564    0.7623    0.8361 C   0  0  0  0  0  0  0  0  0  0  0  0
    0.2510   -0.5257    1.4096 C   0  0  0  0  0  0  0  0  0  0  0  0
   -0.9620   -1.0219    0.6216 C   0  0  0  0  0  0  0  0  0  0  0  0
   -1.9774    0.0046    0.3526 N   0  0  0  0  0  0  0  0  0  0  0  0
   -3.3577   -0.3473    0.7267 C   0  0  0  0  0  0  0  0  0  0  0  0
   -3.8749   -1.5068   -0.1450 C   0  0  0  0  0  0  0  0  0  0  0  0
   -5.3347   -1.8525    0.1626 C   0  0  0  0  0  0  0  0  0  0  0  0
   -5.6476   -1.8601    1.6536 C   0  0  0  0  0  0  0  0  0  0  0  0
   -6.4284   -0.7843    1.9488 F   0  0  0  0  0  0  0  0  0  0  0  0
   -6.3845   -2.9590    1.9532 F   0  0  0  0  0  0  0  0  0  0  0  0
   -4.4182   -1.8261    2.5396 C   0  0  0  0  0  0  0  0  0  0  0  0
   -3.5530   -0.6045    2.2419 C   0  0  0  0  0  0  0  0  0  0  0  0
   -1.5969    1.3641    0.7416 C   0  0  0  0  0  0  0  0  0  0  0  0
   -0.2005    1.6847    0.2136 C   0  0  0  0  0  0  0  0  0  0  0  0
    1.9287   -0.4356   -1.1636 C   0  0  0  0  0  0  0  0  0  0  0  0
    4.7135    3.0580    0.2463 H   0  0  0  0  0  0  0  0  0  0  0  0
    6.1339    3.9929   -0.0037 H   0  0  0  0  0  0  0  0  0  0  0  0
    6.5960    0.9107   -3.3616 H   0  0  0  0  0  0  0  0  0  0  0  0
    3.2214   -1.7322   -3.3890 H   0  0  0  0  0  0  0  0  0  0  0  0
    1.2905    1.3027    1.6893 H   0  0  0  0  0  0  0  0  0  0  0  0
    1.0021   -1.3192    1.4892 H   0  0  0  0  0  0  0  0  0  0  0  0
   -0.0771   -0.3229    2.4385 H   0  0  0  0  0  0  0  0  0  0  0  0
   -0.6298   -1.4200   -0.3455 H   0  0  0  0  0  0  0  0  0  0  0  0
   -1.3768   -1.8802    1.1648 H   0  0  0  0  0  0  0  0  0  0  0  0
   -3.9980    0.5099    0.4671 H   0  0  0  0  0  0  0  0  0  0  0  0
   -3.7874   -1.2491   -1.2084 H   0  0  0  0  0  0  0  0  0  0  0  0
   -3.2655   -2.4076    0.0043 H   0  0  0  0  0  0  0  0  0  0  0  0
   -5.9847   -1.1207   -0.3365 H   0  0  0  0  0  0  0  0  0  0  0  0
   -5.5669   -2.8305   -0.2780 H   0  0  0  0  0  0  0  0  0  0  0  0
   -3.8402   -2.7440    2.3914 H   0  0  0  0  0  0  0  0  0  0  0  0
   -4.7142   -1.8191    3.5940 H   0  0  0  0  0  0  0  0  0  0  0  0
   -4.0254    0.2854    2.6812 H   0  0  0  0  0  0  0  0  0  0  0  0
   -2.6002   -0.7141    2.7746 H   0  0  0  0  0  0  0  0  0  0  0  0
   -2.3008    2.0856    0.3088 H   0  0  0  0  0  0  0  0  0  0  0  0
   -1.6296    1.4949    1.8295 H   0  0  0  0  0  0  0  0  0  0  0  0
    0.0518    2.7305    0.4271 H   0  0  0  0  0  0  0  0  0  0  0  0
   -0.2013    1.5975   -0.8806 H   0  0  0  0  0  0  0  0  0  0  0  0
    1.8935   -1.4504   -0.7555 H   0  0  0  0  0  0  0  0  0  0  0  0
    1.0685   -0.2278   -1.8072 H   0  0  0  0  0  0  0  0  0  0  0  0
  1  2  1  0
  2  3  2  0
  2  4  1  0
  4  5  2  0
  5  6  1  0
  6  7  1  0
  6  8  2  0
  8  9  1  0
  9 10  2  0
 10 11  1  0
 11 12  2  0
 11 13  1  0
 13 14  1  0
 14 15  1  0
 15 16  1  0
 16 17  1  0
 17 18  1  0
 18 19  1  0
 19 20  1  0
 20 21  1  0
 21 22  1  0
 21 23  1  0
 21 24  1  0
 24 25  1  0
 17 26  1  0
 26 27  1  0
 13 28  1  0
 10  4  1  0
 27 14  1  0
 28  9  1  0
 25 18  1  0
  1 29  1  0
  1 30  1  0
  5 31  1  0
  8 32  1  0
 14 33  1  0
 15 34  1  0
 15 35  1  0
 16 36  1  0
 16 37  1  0
 18 38  1  0
 19 39  1  0
 19 40  1  0
 20 41  1  0
 20 42  1  0
 24 43  1  0
 24 44  1  0
 25 45  1  0
 25 46  1  0
 26 47  1  0
 26 48  1  0
 27 49  1  0
 27 50  1  0
 28 51  1  0
 28 52  1  0
M  END
$$$$
