
     RDKit          3D

 28 28  0  0  0  0  0  0  0  0999 V2000
   -1.6174   -0.2444    1.9703 C   0  0  0  0  0  0  0  0  0  0  0  0
   -1.8939    0.1621    0.5185 C   0  0  2  0  0  0  0  0  0  0  0  0
   -2.0913   -1.0889   -0.2599 N   0  0  0  0  0  0  0  0  0  0  0  0
   -0.7861    1.0758   -0.0693 C   0  0  0  0  0  0  0  0  0  0  0  0
    0.5978    0.4727   -0.1746 C   0  0  0  0  0  0  0  0  0  0  0  0
    1.5061    0.5723    0.8940 C   0  0  0  0  0  0  0  0  0  0  0  0
    2.7838    0.0103    0.8044 C   0  0  0  0  0  0  0  0  0  0  0  0
    3.1533   -0.6499   -0.3600 C   0  0  0  0  0  0  0  0  0  0  0  0
    4.3866   -1.2214   -0.5083 O   0  0  0  0  0  0  0  0  0  0  0  0
    2.2626   -0.7468   -1.4247 C   0  0  0  0  0  0  0  0  0  0  0  0
    2.6330   -1.3964   -2.5673 O   0  0  0  0  0  0  0  0  0  0  0  0
    0.9934   -0.1909   -1.3452 C   0  0  0  0  0  0  0  0  0  0  0  0
   -3.1942    0.9938    0.4772 C   0  0  0  0  0  0  0  0  0  0  0  0
   -3.6322    1.7156    1.3597 O   0  0  0  0  0  0  0  0  0  0  0  0
   -3.8352    0.9237   -0.7145 O   0  0  0  0  0  0  0  0  0  0  0  0
   -1.4119    0.6331    2.5944 H   0  0  0  0  0  0  0  0  0  0  0  0
   -2.4826   -0.7549    2.4111 H   0  0  0  0  0  0  0  0  0  0  0  0
   -0.7601   -0.9215    2.0520 H   0  0  0  0  0  0  0  0  0  0  0  0
   -1.1918   -1.5509   -0.3924 H   0  0  0  0  0  0  0  0  0  0  0  0
   -2.4257   -0.8315   -1.1911 H   0  0  0  0  0  0  0  0  0  0  0  0
   -0.7174    1.9980    0.5257 H   0  0  0  0  0  0  0  0  0  0  0  0
   -1.0846    1.4212   -1.0699 H   0  0  0  0  0  0  0  0  0  0  0  0
    1.2213    1.0910    1.8078 H   0  0  0  0  0  0  0  0  0  0  0  0
    3.4642    0.0997    1.6450 H   0  0  0  0  0  0  0  0  0  0  0  0
    4.8888   -1.0714    0.3111 H   0  0  0  0  0  0  0  0  0  0  0  0
    3.5488   -1.6925   -2.3930 H   0  0  0  0  0  0  0  0  0  0  0  0
    0.3226   -0.2768   -2.1958 H   0  0  0  0  0  0  0  0  0  0  0  0
   -4.6378    1.4688   -0.5781 H   0  0  0  0  0  0  0  0  0  0  0  0
  1  2  1  0
  2  3  1  6
  2  4  1  0
  4  5  1  0
  5  6  2  0
  6  7  1  0
  7  8  2  0
  8  9  1  0
  8 10  1  0
 10 11  1  0
 10 12  2  0
  2 13  1  0
 13 14  2  0
 13 15  1  0
 12  5  1  0
  1 16  1  0
  1 17  1  0
  1 18  1  0
  3 19  1  0
  3 20  1  0
  4 21  1  0
  4 22  1  0
  6 23  1  0
  7 24  1  0
  9 25  1  0
 11 26  1  0
 12 27  1  0
 15 28  1  0
M  END
$$$$
