
     RDKit          3D

 48 51  0  0  0  0  0  0  0  0999 V2000
    4.0213    4.5194   -0.7689 C   0  0  0  0  0  0  0  0  0  0  0  0
    4.7038    3.2729   -0.7175 O   0  0  0  0  0  0  0  0  0  0  0  0
    3.9447    2.1623   -0.4751 C   0  0  0  0  0  0  0  0  0  0  0  0
    4.6574    0.9624   -0.4464 C   0  0  0  0  0  0  0  0  0  0  0  0
    4.0065   -0.2538   -0.2095 C   0  0  0  0  0  0  0  0  0  0  0  0
    2.6234   -0.2897    0.0051 C   0  0  0  0  0  0  0  0  0  0  0  0
    1.9225   -1.5551    0.2519 C   0  0  0  0  0  0  0  0  0  0  0  0
    2.4001   -2.8799    0.0317 C   0  0  0  0  0  0  0  0  0  0  0  0
    1.3742   -3.7057    0.4205 C   0  0  0  0  0  0  0  0  0  0  0  0
    1.2010   -5.1218    0.4797 C   0  0  0  0  0  0  0  0  0  0  0  0
    2.0496   -5.9386    0.1390 O   0  0  0  0  0  0  0  0  0  0  0  0
   -0.0323   -5.5148    0.9836 N   0  0  0  0  0  0  0  0  0  0  0  0
   -1.0603   -4.6762    1.3847 N   0  0  0  0  0  0  0  0  0  0  0  0
   -0.8535   -3.3915    1.2817 C   0  0  0  0  0  0  0  0  0  0  0  0
   -1.8686   -2.3602    1.6599 C   0  0  0  0  0  0  0  0  0  0  0  0
   -2.4071   -1.6106    0.4659 C   0  0  0  0  0  0  0  0  0  0  0  0
   -2.4250   -2.0909   -0.6630 O   0  0  0  0  0  0  0  0  0  0  0  0
   -2.9134   -0.3629    0.7721 N   0  0  0  0  0  0  0  0  0  0  0  0
   -3.3752    0.5234   -0.2743 C   0  0  0  0  0  0  0  0  0  0  0  0
   -2.2366    1.2691   -0.9635 C   0  0  0  0  0  0  0  0  0  0  0  0
   -2.9234    2.4478   -1.6440 C   0  0  0  0  0  0  0  0  0  0  0  0
   -4.2128    2.6986   -0.8599 C   0  0  0  0  0  0  0  0  0  0  0  0
   -4.2376    1.6616    0.2577 C   0  0  0  0  0  0  0  0  0  0  0  0
    0.3592   -2.8925    0.8109 N   0  0  0  0  0  0  0  0  0  0  0  0
    0.6723   -1.5803    0.7552 N   0  0  0  0  0  0  0  0  0  0  0  0
    1.9159    0.9213   -0.0224 C   0  0  0  0  0  0  0  0  0  0  0  0
    2.5683    2.1379   -0.2616 C   0  0  0  0  0  0  0  0  0  0  0  0
    3.5510    4.7519    0.1922 H   0  0  0  0  0  0  0  0  0  0  0  0
    4.7624    5.2981   -0.9735 H   0  0  0  0  0  0  0  0  0  0  0  0
    3.2884    4.5351   -1.5823 H   0  0  0  0  0  0  0  0  0  0  0  0
    5.7327    0.9732   -0.6097 H   0  0  0  0  0  0  0  0  0  0  0  0
    4.6047   -1.1605   -0.1896 H   0  0  0  0  0  0  0  0  0  0  0  0
    3.3589   -3.1952   -0.3566 H   0  0  0  0  0  0  0  0  0  0  0  0
   -0.2134   -6.5127    1.0399 H   0  0  0  0  0  0  0  0  0  0  0  0
   -1.4309   -1.6677    2.3874 H   0  0  0  0  0  0  0  0  0  0  0  0
   -2.7158   -2.8574    2.1462 H   0  0  0  0  0  0  0  0  0  0  0  0
   -2.6464    0.0519    1.6560 H   0  0  0  0  0  0  0  0  0  0  0  0
   -3.9384   -0.0593   -1.0147 H   0  0  0  0  0  0  0  0  0  0  0  0
   -1.5136    1.6383   -0.2256 H   0  0  0  0  0  0  0  0  0  0  0  0
   -1.6902    0.6407   -1.6737 H   0  0  0  0  0  0  0  0  0  0  0  0
   -2.2768    3.3309   -1.6585 H   0  0  0  0  0  0  0  0  0  0  0  0
   -3.1646    2.2003   -2.6843 H   0  0  0  0  0  0  0  0  0  0  0  0
   -4.2554    3.7168   -0.4601 H   0  0  0  0  0  0  0  0  0  0  0  0
   -5.0786    2.5686   -1.5196 H   0  0  0  0  0  0  0  0  0  0  0  0
   -5.2543    1.3368    0.4999 H   0  0  0  0  0  0  0  0  0  0  0  0
   -3.8030    2.0895    1.1701 H   0  0  0  0  0  0  0  0  0  0  0  0
    0.8400    0.9262    0.1374 H   0  0  0  0  0  0  0  0  0  0  0  0
    1.9692    3.0420   -0.2747 H   0  0  0  0  0  0  0  0  0  0  0  0
  1  2  1  0
  2  3  1  0
  3  4  2  0
  4  5  1  0
  5  6  2  0
  6  7  1  0
  7  8  1  0
  8  9  2  0
  9 10  1  0
 10 11  2  0
 10 12  1  0
 12 13  1  0
 13 14  2  0
 14 15  1  0
 15 16  1  0
 16 17  2  0
 16 18  1  0
 18 19  1  0
 19 20  1  0
 20 21  1  0
 21 22  1  0
 22 23  1  0
 14 24  1  0
 24 25  1  0
  6 26  1  0
 26 27  2  0
 27  3  1  0
 25  7  2  0
 24  9  1  0
 23 19  1  0
  1 28  1  0
  1 29  1  0
  1 30  1  0
  4 31  1  0
  5 32  1  0
  8 33  1  0
 12 34  1  0
 15 35  1  0
 15 36  1  0
 18 37  1  0
 19 38  1  0
 20 39  1  0
 20 40  1  0
 21 41  1  0
 21 42  1  0
 22 43  1  0
 22 44  1  0
 23 45  1  0
 23 46  1  0
 26 47  1  0
 27 48  1  0
M  END
$$$$
