
     RDKit          3D

102106  0  0  0  0  0  0  0  0999 V2000
    7.3562   -0.5052    3.0175 C   0  0  0  0  0  0  0  0  0  0  0  0
    6.3394   -0.7921    1.9216 C   0  0  0  0  0  0  0  0  0  0  0  0
    5.5664    0.4729    1.5281 C   0  0  0  0  0  0  0  0  0  0  0  0
    4.4791    0.2568    0.4601 C   0  0  2  0  0  0  0  0  0  0  0  0
    3.4512   -0.6733    0.9370 N   0  0  0  0  0  0  0  0  0  0  0  0
    2.1984   -0.6967    0.3427 C   0  0  0  0  0  0  0  0  0  0  0  0
    1.8842    0.0570   -0.5660 O   0  0  0  0  0  0  0  0  0  0  0  0
    1.2807   -1.7842    0.9325 C   0  0  2  0  0  0  0  0  0  0  0  0
    1.7181   -3.1560    0.3887 C   0  0  1  0  0  0  0  0  0  0  0  0
    1.7831   -4.2669    1.4361 C   0  0  0  0  0  0  0  0  0  0  0  0
    1.5350   -5.5328    0.6266 C   0  0  0  0  0  0  0  0  0  0  0  0
    0.5876   -5.1270   -0.5014 C   0  0  0  0  0  0  0  0  0  0  0  0
    0.5839   -3.5997   -0.5312 C   0  0  1  0  0  0  0  0  0  0  0  0
   -0.6443   -2.9580    0.0994 C   0  0  0  0  0  0  0  0  0  0  0  0
   -0.1612   -1.7068    0.6586 N   0  0  0  0  0  0  0  0  0  0  0  0
   -1.0747   -0.8870    1.2966 C   0  0  0  0  0  0  0  0  0  0  0  0
   -2.2235   -1.2954    1.5325 O   0  0  0  0  0  0  0  0  0  0  0  0
   -0.7247    0.6006    1.5911 C   0  0  1  0  0  0  0  0  0  0  0  0
   -1.9442    1.2949    1.1105 N   0  0  0  0  0  0  0  0  0  0  0  0
   -2.1078    1.6569   -0.2097 C   0  0  0  0  0  0  0  0  0  0  0  0
   -1.1733    1.5957   -1.0150 O   0  0  0  0  0  0  0  0  0  0  0  0
   -3.5616    1.9707   -0.6976 C   0  0  1  0  0  0  0  0  0  0  0  0
   -3.8386    0.9069   -1.6790 N   0  0  0  0  0  0  0  0  0  0  0  0
   -4.4746    1.2043   -2.8767 C   0  0  0  0  0  0  0  0  0  0  0  0
   -4.9653    2.3015   -3.1143 O   0  0  0  0  0  0  0  0  0  0  0  0
   -4.5503    0.1015   -3.8812 C   0  0  0  0  0  0  0  0  0  0  0  0
   -4.6133   -1.2293   -3.4877 C   0  0  0  0  0  0  0  0  0  0  0  0
   -4.7048   -2.2561   -4.3741 N   0  0  0  0  0  0  0  0  0  0  0  0
   -4.7386   -1.8912   -5.6747 C   0  0  0  0  0  0  0  0  0  0  0  0
   -4.6919   -0.5654   -6.0709 C   0  0  0  0  0  0  0  0  0  0  0  0
   -4.5927    0.4545   -5.1905 N   0  0  0  0  0  0  0  0  0  0  0  0
   -4.6629    2.0710    0.3971 C   0  0  0  0  0  0  0  0  0  0  0  0
   -4.4347    3.3151    1.2824 C   0  0  0  0  0  0  0  0  0  0  0  0
   -5.4755    3.4329    2.3954 C   0  0  0  0  0  0  0  0  0  0  0  0
   -6.8930    3.4356    1.8384 C   0  0  0  0  0  0  0  0  0  0  0  0
   -7.1456    2.2323    0.9392 C   0  0  0  0  0  0  0  0  0  0  0  0
   -6.0989    2.1232   -0.1682 C   0  0  0  0  0  0  0  0  0  0  0  0
   -0.4686    0.9784    3.0894 C   0  0  0  0  0  0  0  0  0  0  0  0
    0.7540    0.2489    3.6638 C   0  0  0  0  0  0  0  0  0  0  0  0
   -0.1774    2.4986    3.1690 C   0  0  0  0  0  0  0  0  0  0  0  0
   -1.6715    0.6718    4.0104 C   0  0  0  0  0  0  0  0  0  0  0  0
    5.0604   -0.2684   -0.8505 C   0  0  0  0  0  0  0  0  0  0  0  0
    5.1039   -1.4549   -1.1738 O   0  0  0  0  0  0  0  0  0  0  0  0
    5.6361    0.7897   -1.7843 C   0  0  0  0  0  0  0  0  0  0  0  0
    5.9571    1.8857   -1.3487 O   0  0  0  0  0  0  0  0  0  0  0  0
    5.7430    0.3556   -3.0885 N   0  0  0  0  0  0  0  0  0  0  0  0
    6.1757    1.2006   -4.1476 C   0  0  0  0  0  0  0  0  0  0  0  0
    6.1896    0.7148   -5.5704 C   0  0  0  0  0  0  0  0  0  0  0  0
    5.1723    1.7312   -5.1327 C   0  0  0  0  0  0  0  0  0  0  0  0
    6.8612   -0.1411    3.9234 H   0  0  0  0  0  0  0  0  0  0  0  0
    7.9091   -1.4132    3.2726 H   0  0  0  0  0  0  0  0  0  0  0  0
    8.0792    0.2466    2.6907 H   0  0  0  0  0  0  0  0  0  0  0  0
    5.6552   -1.5624    2.2867 H   0  0  0  0  0  0  0  0  0  0  0  0
    6.8657   -1.2075    1.0535 H   0  0  0  0  0  0  0  0  0  0  0  0
    6.2804    1.2264    1.1699 H   0  0  0  0  0  0  0  0  0  0  0  0
    5.0876    0.8932    2.4228 H   0  0  0  0  0  0  0  0  0  0  0  0
    3.9758    1.2130    0.2515 H   0  0  0  0  0  0  0  0  0  0  0  0
    3.7793   -1.5472    1.3229 H   0  0  0  0  0  0  0  0  0  0  0  0
    1.4116   -1.7632    2.0174 H   0  0  0  0  0  0  0  0  0  0  0  0
    2.6665   -3.1234   -0.1621 H   0  0  0  0  0  0  0  0  0  0  0  0
    1.0127   -4.1486    2.2122 H   0  0  0  0  0  0  0  0  0  0  0  0
    2.7561   -4.2847    1.9376 H   0  0  0  0  0  0  0  0  0  0  0  0
    2.4769   -5.8987    0.2022 H   0  0  0  0  0  0  0  0  0  0  0  0
    1.1175   -6.3351    1.2388 H   0  0  0  0  0  0  0  0  0  0  0  0
    0.9545   -5.5309   -1.4524 H   0  0  0  0  0  0  0  0  0  0  0  0
   -0.4183   -5.5299   -0.3477 H   0  0  0  0  0  0  0  0  0  0  0  0
    0.7247   -3.2161   -1.5456 H   0  0  0  0  0  0  0  0  0  0  0  0
   -1.0656   -3.5653    0.9073 H   0  0  0  0  0  0  0  0  0  0  0  0
   -1.4307   -2.7628   -0.6353 H   0  0  0  0  0  0  0  0  0  0  0  0
    0.1161    0.9155    0.9699 H   0  0  0  0  0  0  0  0  0  0  0  0
   -2.7783    0.9341    1.5608 H   0  0  0  0  0  0  0  0  0  0  0  0
   -3.4959    2.9263   -1.2325 H   0  0  0  0  0  0  0  0  0  0  0  0
   -3.1631    0.1502   -1.6934 H   0  0  0  0  0  0  0  0  0  0  0  0
   -4.6212   -1.5195   -2.4451 H   0  0  0  0  0  0  0  0  0  0  0  0
   -4.8167   -2.6954   -6.3997 H   0  0  0  0  0  0  0  0  0  0  0  0
   -4.7325   -0.2881   -7.1178 H   0  0  0  0  0  0  0  0  0  0  0  0
   -4.6227    1.1725    1.0273 H   0  0  0  0  0  0  0  0  0  0  0  0
   -4.4554    4.2181    0.6616 H   0  0  0  0  0  0  0  0  0  0  0  0
   -3.4453    3.2942    1.7461 H   0  0  0  0  0  0  0  0  0  0  0  0
   -5.3048    4.3565    2.9594 H   0  0  0  0  0  0  0  0  0  0  0  0
   -5.3559    2.6024    3.1028 H   0  0  0  0  0  0  0  0  0  0  0  0
   -7.6084    3.4353    2.6668 H   0  0  0  0  0  0  0  0  0  0  0  0
   -7.0631    4.3599    1.2709 H   0  0  0  0  0  0  0  0  0  0  0  0
   -7.1280    1.3151    1.5434 H   0  0  0  0  0  0  0  0  0  0  0  0
   -8.1465    2.3099    0.4989 H   0  0  0  0  0  0  0  0  0  0  0  0
   -6.3129    1.2178   -0.7457 H   0  0  0  0  0  0  0  0  0  0  0  0
   -6.2063    2.9814   -0.8425 H   0  0  0  0  0  0  0  0  0  0  0  0
    1.0020    0.6159    4.6686 H   0  0  0  0  0  0  0  0  0  0  0  0
    1.6408    0.4013    3.0404 H   0  0  0  0  0  0  0  0  0  0  0  0
    0.5684   -0.8240    3.7647 H   0  0  0  0  0  0  0  0  0  0  0  0
   -1.0395    3.0953    2.8464 H   0  0  0  0  0  0  0  0  0  0  0  0
    0.6762    2.7675    2.5337 H   0  0  0  0  0  0  0  0  0  0  0  0
    0.0639    2.8090    4.1944 H   0  0  0  0  0  0  0  0  0  0  0  0
   -1.4401    0.9416    5.0504 H   0  0  0  0  0  0  0  0  0  0  0  0
   -1.9224   -0.3969    3.9999 H   0  0  0  0  0  0  0  0  0  0  0  0
   -2.5638    1.2376    3.7237 H   0  0  0  0  0  0  0  0  0  0  0  0
    5.4442   -0.5969   -3.2862 H   0  0  0  0  0  0  0  0  0  0  0  0
    6.9796    1.8816   -3.8649 H   0  0  0  0  0  0  0  0  0  0  0  0
    7.0073    1.0464   -6.2021 H   0  0  0  0  0  0  0  0  0  0  0  0
    5.8438   -0.2939   -5.7803 H   0  0  0  0  0  0  0  0  0  0  0  0
    5.2986    2.7564   -5.4645 H   0  0  0  0  0  0  0  0  0  0  0  0
    4.1403    1.4109   -5.0519 H   0  0  0  0  0  0  0  0  0  0  0  0
  1  2  1  0
  2  3  1  0
  3  4  1  0
  4  5  1  0
  5  6  1  0
  6  7  2  0
  6  8  1  0
  8  9  1  0
  9 10  1  0
 10 11  1  0
 11 12  1  0
 12 13  1  0
 13 14  1  0
 14 15  1  0
 15 16  1  0
 16 17  2  0
 16 18  1  0
 18 19  1  0
 19 20  1  0
 20 21  2  0
 20 22  1  0
 22 23  1  0
 23 24  1  0
 24 25  2  0
 24 26  1  0
 26 27  2  0
 27 28  1  0
 28 29  2  0
 29 30  1  0
 30 31  2  0
 22 32  1  0
 32 33  1  0
 33 34  1  0
 34 35  1  0
 35 36  1  0
 36 37  1  0
 18 38  1  0
 38 39  1  0
 38 40  1  0
 38 41  1  0
  4 42  1  0
 42 43  2  0
 42 44  1  0
 44 45  2  0
 44 46  1  0
 46 47  1  0
 47 48  1  0
 48 49  1  0
 15  8  1  0
 31 26  1  0
 37 32  1  0
 49 47  1  0
 13  9  1  0
  1 50  1  0
  1 51  1  0
  1 52  1  0
  2 53  1  0
  2 54  1  0
  3 55  1  0
  3 56  1  0
  4 57  1  6
  5 58  1  0
  8 59  1  1
  9 60  1  6
 10 61  1  0
 10 62  1  0
 11 63  1  0
 11 64  1  0
 12 65  1  0
 12 66  1  0
 13 67  1  6
 14 68  1  0
 14 69  1  0
 18 70  1  6
 19 71  1  0
 22 72  1  6
 23 73  1  0
 27 74  1  0
 29 75  1  0
 30 76  1  0
 32 77  1  0
 33 78  1  0
 33 79  1  0
 34 80  1  0
 34 81  1  0
 35 82  1  0
 35 83  1  0
 36 84  1  0
 36 85  1  0
 37 86  1  0
 37 87  1  0
 39 88  1  0
 39 89  1  0
 39 90  1  0
 40 91  1  0
 40 92  1  0
 40 93  1  0
 41 94  1  0
 41 95  1  0
 41 96  1  0
 46 97  1  0
 47 98  1  0
 48 99  1  0
 48100  1  0
 49101  1  0
 49102  1  0
M  END
$$$$
