
     RDKit          3D

 42 43  0  0  0  0  0  0  0  0999 V2000
   -5.7784   -0.8943    1.0044 C   0  0  0  0  0  0  0  0  0  0  0  0
   -5.7173   -0.0816   -0.2008 N   0  0  0  0  0  0  0  0  0  0  0  0
   -4.3776   -0.0613   -0.8057 C   0  0  0  0  0  0  0  0  0  0  0  0
   -3.3152    0.7141    0.0121 C   0  0  0  0  0  0  0  0  0  0  0  0
   -2.0334    0.9043   -0.6940 N   0  0  0  0  0  0  0  0  0  0  0  0
   -1.1347    1.8034    0.0464 C   0  0  0  0  0  0  0  0  0  0  0  0
   -0.0589    1.0688    0.8379 C   0  0  0  0  0  0  0  0  0  0  0  0
    0.8392    0.2387   -0.0867 C   0  0  0  0  0  0  0  0  0  0  0  0
    1.3127   -0.9258    0.6069 O   0  0  0  0  0  0  0  0  0  0  0  0
    2.3808   -0.6688    1.5214 C   0  0  0  0  0  0  0  0  0  0  0  0
    3.7084   -0.5282    0.8168 C   0  0  0  0  0  0  0  0  0  0  0  0
    4.0814   -1.4291   -0.1913 C   0  0  0  0  0  0  0  0  0  0  0  0
    5.3172   -1.3100   -0.8283 C   0  0  0  0  0  0  0  0  0  0  0  0
    6.1967   -0.2945   -0.4587 C   0  0  0  0  0  0  0  0  0  0  0  0
    5.8424    0.6005    0.5491 C   0  0  0  0  0  0  0  0  0  0  0  0
    4.6060    0.4831    1.1871 C   0  0  0  0  0  0  0  0  0  0  0  0
    0.0879   -0.2350   -1.3354 C   0  0  0  0  0  0  0  0  0  0  0  0
   -1.4053   -0.3805   -1.0509 C   0  0  0  0  0  0  0  0  0  0  0  0
   -5.1766   -0.4726    1.8148 H   0  0  0  0  0  0  0  0  0  0  0  0
   -6.8144   -0.9425    1.3546 H   0  0  0  0  0  0  0  0  0  0  0  0
   -5.4514   -1.9208    0.8101 H   0  0  0  0  0  0  0  0  0  0  0  0
   -6.0095    0.8719    0.0106 H   0  0  0  0  0  0  0  0  0  0  0  0
   -4.4763    0.4151   -1.7888 H   0  0  0  0  0  0  0  0  0  0  0  0
   -4.0514   -1.0907   -0.9947 H   0  0  0  0  0  0  0  0  0  0  0  0
   -3.1401    0.2134    0.9724 H   0  0  0  0  0  0  0  0  0  0  0  0
   -3.7381    1.7022    0.2368 H   0  0  0  0  0  0  0  0  0  0  0  0
   -0.6467    2.4629   -0.6830 H   0  0  0  0  0  0  0  0  0  0  0  0
   -1.6912    2.4736    0.7131 H   0  0  0  0  0  0  0  0  0  0  0  0
   -0.5222    0.4325    1.6032 H   0  0  0  0  0  0  0  0  0  0  0  0
    0.5548    1.7955    1.3837 H   0  0  0  0  0  0  0  0  0  0  0  0
    1.6953    0.8367   -0.4225 H   0  0  0  0  0  0  0  0  0  0  0  0
    2.1537    0.2068    2.1393 H   0  0  0  0  0  0  0  0  0  0  0  0
    2.4454   -1.5294    2.1968 H   0  0  0  0  0  0  0  0  0  0  0  0
    3.4009   -2.2258   -0.4861 H   0  0  0  0  0  0  0  0  0  0  0  0
    5.5926   -2.0108   -1.6120 H   0  0  0  0  0  0  0  0  0  0  0  0
    7.1594   -0.2025   -0.9546 H   0  0  0  0  0  0  0  0  0  0  0  0
    6.5310    1.3897    0.8398 H   0  0  0  0  0  0  0  0  0  0  0  0
    4.3488    1.1877    1.9745 H   0  0  0  0  0  0  0  0  0  0  0  0
    0.4903   -1.1908   -1.6910 H   0  0  0  0  0  0  0  0  0  0  0  0
    0.2255    0.4931   -2.1454 H   0  0  0  0  0  0  0  0  0  0  0  0
   -1.5389   -1.1211   -0.2511 H   0  0  0  0  0  0  0  0  0  0  0  0
   -1.8928   -0.7779   -1.9485 H   0  0  0  0  0  0  0  0  0  0  0  0
  1  2  1  0
  2  3  1  0
  3  4  1  0
  4  5  1  0
  5  6  1  0
  6  7  1  0
  7  8  1  0
  8  9  1  0
  9 10  1  0
 10 11  1  0
 11 12  2  0
 12 13  1  0
 13 14  2  0
 14 15  1  0
 15 16  2  0
  8 17  1  0
 17 18  1  0
 18  5  1  0
 16 11  1  0
  1 19  1  0
  1 20  1  0
  1 21  1  0
  2 22  1  0
  3 23  1  0
  3 24  1  0
  4 25  1  0
  4 26  1  0
  6 27  1  0
  6 28  1  0
  7 29  1  0
  7 30  1  0
  8 31  1  0
 10 32  1  0
 10 33  1  0
 12 34  1  0
 13 35  1  0
 14 36  1  0
 15 37  1  0
 16 38  1  0
 17 39  1  0
 17 40  1  0
 18 41  1  0
 18 42  1  0
M  END
$$$$
