
     RDKit          3D

 59 63  0  0  0  0  0  0  0  0999 V2000
    2.0946    2.9647    1.9747 O   0  0  0  0  0  0  0  0  0  0  0  0
    2.1420    1.8812    1.4043 C   0  0  0  0  0  0  0  0  0  0  0  0
    3.2332    1.3495    0.7452 N   0  0  0  0  0  0  0  0  0  0  0  0
    4.4988    1.9478    0.5395 C   0  0  0  0  0  0  0  0  0  0  0  0
    4.8252    3.2427    0.9513 C   0  0  0  0  0  0  0  0  0  0  0  0
    6.1024    3.7653    0.7141 C   0  0  0  0  0  0  0  0  0  0  0  0
    7.0657    2.9997    0.0603 C   0  0  0  0  0  0  0  0  0  0  0  0
    6.7439    1.7082   -0.3587 C   0  0  0  0  0  0  0  0  0  0  0  0
    7.7348    0.8761   -1.0554 C   0  0  0  0  0  0  0  0  0  0  0  0
    8.8704    1.2668   -1.2883 O   0  0  0  0  0  0  0  0  0  0  0  0
    7.2970   -0.4636   -1.4697 C   0  0  0  0  0  0  0  0  0  0  0  0
    6.0468   -0.8656   -1.1984 C   0  0  0  0  0  0  0  0  0  0  0  0
    5.5353   -2.1507   -1.5726 C   0  0  0  0  0  0  0  0  0  0  0  0
    4.2303   -2.4813   -1.2875 N   0  0  0  0  0  0  0  0  0  0  0  0
    4.0379   -3.7093   -1.7469 N   0  0  0  0  0  0  0  0  0  0  0  0
    5.2148   -4.0593   -2.2785 N   0  0  0  0  0  0  0  0  0  0  0  0
    6.1896   -3.1388   -2.2073 N   0  0  0  0  0  0  0  0  0  0  0  0
    5.1175   -0.0817   -0.5295 O   0  0  0  0  0  0  0  0  0  0  0  0
    5.4742    1.1844   -0.1252 C   0  0  0  0  0  0  0  0  0  0  0  0
    0.9310    1.0081    1.4376 C   0  0  0  0  0  0  0  0  0  0  0  0
    0.6233    0.1126    0.4079 C   0  0  0  0  0  0  0  0  0  0  0  0
   -0.5251   -0.6805    0.4966 C   0  0  0  0  0  0  0  0  0  0  0  0
   -1.3819   -0.5866    1.5977 C   0  0  0  0  0  0  0  0  0  0  0  0
   -2.4622   -1.4198    1.5416 O   0  0  0  0  0  0  0  0  0  0  0  0
   -3.4006   -1.4172    2.6148 C   0  0  0  0  0  0  0  0  0  0  0  0
   -4.4509   -0.3139    2.4700 C   0  0  0  0  0  0  0  0  0  0  0  0
   -5.4571   -0.5418    1.3347 C   0  0  0  0  0  0  0  0  0  0  0  0
   -4.8524   -0.4493   -0.0686 C   0  0  0  0  0  0  0  0  0  0  0  0
   -5.9243   -0.4615   -1.1321 C   0  0  0  0  0  0  0  0  0  0  0  0
   -6.4488    0.7402   -1.6267 C   0  0  0  0  0  0  0  0  0  0  0  0
   -7.4519    0.7270   -2.5972 C   0  0  0  0  0  0  0  0  0  0  0  0
   -7.9421   -0.4857   -3.0786 C   0  0  0  0  0  0  0  0  0  0  0  0
   -7.4310   -1.6865   -2.5893 C   0  0  0  0  0  0  0  0  0  0  0  0
   -6.4280   -1.6754   -1.6188 C   0  0  0  0  0  0  0  0  0  0  0  0
   -1.0854    0.3205    2.6134 C   0  0  0  0  0  0  0  0  0  0  0  0
    0.0636    1.1165    2.5318 C   0  0  0  0  0  0  0  0  0  0  0  0
    3.1642    0.3930    0.4146 H   0  0  0  0  0  0  0  0  0  0  0  0
    4.1059    3.8763    1.4622 H   0  0  0  0  0  0  0  0  0  0  0  0
    6.3404    4.7747    1.0434 H   0  0  0  0  0  0  0  0  0  0  0  0
    8.0570    3.4093   -0.1216 H   0  0  0  0  0  0  0  0  0  0  0  0
    8.0202   -1.0789   -1.9910 H   0  0  0  0  0  0  0  0  0  0  0  0
    5.3566   -4.9690   -2.7098 H   0  0  0  0  0  0  0  0  0  0  0  0
    1.2406    0.0308   -0.4820 H   0  0  0  0  0  0  0  0  0  0  0  0
   -0.7605   -1.3753   -0.3073 H   0  0  0  0  0  0  0  0  0  0  0  0
   -3.9019   -2.3922    2.5959 H   0  0  0  0  0  0  0  0  0  0  0  0
   -2.8969   -1.3690    3.5871 H   0  0  0  0  0  0  0  0  0  0  0  0
   -3.9718    0.6607    2.3262 H   0  0  0  0  0  0  0  0  0  0  0  0
   -5.0151   -0.2597    3.4090 H   0  0  0  0  0  0  0  0  0  0  0  0
   -6.2478    0.2134    1.4367 H   0  0  0  0  0  0  0  0  0  0  0  0
   -5.9470   -1.5148    1.4674 H   0  0  0  0  0  0  0  0  0  0  0  0
   -4.2528    0.4642   -0.1659 H   0  0  0  0  0  0  0  0  0  0  0  0
   -4.1717   -1.2870   -0.2555 H   0  0  0  0  0  0  0  0  0  0  0  0
   -6.0781    1.6938   -1.2577 H   0  0  0  0  0  0  0  0  0  0  0  0
   -7.8512    1.6638   -2.9768 H   0  0  0  0  0  0  0  0  0  0  0  0
   -8.7231   -0.4948   -3.8341 H   0  0  0  0  0  0  0  0  0  0  0  0
   -7.8139   -2.6326   -2.9628 H   0  0  0  0  0  0  0  0  0  0  0  0
   -6.0396   -2.6195   -1.2437 H   0  0  0  0  0  0  0  0  0  0  0  0
   -1.7248    0.4455    3.4805 H   0  0  0  0  0  0  0  0  0  0  0  0
    0.2809    1.8246    3.3300 H   0  0  0  0  0  0  0  0  0  0  0  0
  1  2  2  0
  2  3  1  0
  3  4  1  0
  4  5  2  0
  5  6  1  0
  6  7  2  0
  7  8  1  0
  8  9  1  0
  9 10  2  0
  9 11  1  0
 11 12  2  0
 12 13  1  0
 13 14  1  0
 14 15  2  0
 15 16  1  0
 16 17  1  0
 12 18  1  0
 18 19  1  0
  2 20  1  0
 20 21  2  0
 21 22  1  0
 22 23  2  0
 23 24  1  0
 24 25  1  0
 25 26  1  0
 26 27  1  0
 27 28  1  0
 28 29  1  0
 29 30  2  0
 30 31  1  0
 31 32  2  0
 32 33  1  0
 33 34  2  0
 23 35  1  0
 35 36  2  0
 19  4  1  0
 36 20  1  0
 19  8  2  0
 34 29  1  0
 17 13  2  0
  3 37  1  0
  5 38  1  0
  6 39  1  0
  7 40  1  0
 11 41  1  0
 16 42  1  0
 21 43  1  0
 22 44  1  0
 25 45  1  0
 25 46  1  0
 26 47  1  0
 26 48  1  0
 27 49  1  0
 27 50  1  0
 28 51  1  0
 28 52  1  0
 30 53  1  0
 31 54  1  0
 32 55  1  0
 33 56  1  0
 34 57  1  0
 35 58  1  0
 36 59  1  0
M  END
$$$$
