
     RDKit          3D

 50 52  0  0  0  0  0  0  0  0999 V2000
    6.5850    0.1942    0.4487 O   0  0  0  0  0  0  0  0  0  0  0  0
    5.9642   -0.8486    0.5616 C   0  0  0  0  0  0  0  0  0  0  0  0
    6.5786   -2.0346    0.3521 O   0  0  0  0  0  0  0  0  0  0  0  0
    4.5128   -1.0255    0.9479 C   0  0  0  0  0  0  0  0  0  0  0  0
    3.7299    0.3024    1.0095 C   0  0  0  0  0  0  0  0  0  0  0  0
    2.3441    0.0951    1.6658 C   0  0  0  0  0  0  0  0  0  0  0  0
    1.2632   -0.2000    0.6302 C   0  0  0  0  0  0  0  0  0  0  0  0
    1.0519    0.9871   -0.3673 C   0  0  0  0  0  0  0  0  0  0  0  0
    2.3611    1.8150   -0.5032 C   0  0  0  0  0  0  0  0  0  0  0  0
    3.6123    0.9452   -0.3889 C   0  0  0  0  0  0  0  0  0  0  0  0
    0.6500    0.4115   -1.7515 C   0  0  0  0  0  0  0  0  0  0  0  0
   -0.6839   -0.3473   -1.7124 C   0  0  0  0  0  0  0  0  0  0  0  0
   -1.6506    0.3240   -0.8312 N   0  0  0  0  0  0  0  0  0  0  0  0
   -2.9857   -0.0600   -1.0543 C   0  0  0  0  0  0  0  0  0  0  0  0
   -3.5371   -0.9519   -0.1122 C   0  0  0  0  0  0  0  0  0  0  0  0
   -4.8517   -1.4121   -0.2273 C   0  0  0  0  0  0  0  0  0  0  0  0
   -5.4213   -2.3060    0.6383 O   0  0  0  0  0  0  0  0  0  0  0  0
   -5.3316   -1.9314    2.0142 C   0  0  0  0  0  0  0  0  0  0  0  0
   -6.1547   -2.7362    2.7213 F   0  0  0  0  0  0  0  0  0  0  0  0
   -5.7245   -0.6481    2.2125 F   0  0  0  0  0  0  0  0  0  0  0  0
   -4.0781   -2.0989    2.4988 F   0  0  0  0  0  0  0  0  0  0  0  0
   -5.6277   -1.0251   -1.3181 C   0  0  0  0  0  0  0  0  0  0  0  0
   -5.1054   -0.1456   -2.2647 C   0  0  0  0  0  0  0  0  0  0  0  0
   -3.7961    0.3385   -2.1384 C   0  0  0  0  0  0  0  0  0  0  0  0
   -3.2330    1.3923   -3.3962 Cl  0  0  0  0  0  0  0  0  0  0  0  0
   -1.4218    1.7538   -0.6074 C   0  0  0  0  0  0  0  0  0  0  0  0
   -0.0918    1.9292    0.1447 C   0  0  0  0  0  0  0  0  0  0  0  0
    7.4994   -1.7820    0.1209 H   0  0  0  0  0  0  0  0  0  0  0  0
    4.0404   -1.7075    0.2317 H   0  0  0  0  0  0  0  0  0  0  0  0
    4.5075   -1.5062    1.9346 H   0  0  0  0  0  0  0  0  0  0  0  0
    4.2883    0.9953    1.6554 H   0  0  0  0  0  0  0  0  0  0  0  0
    2.3790   -0.7140    2.4084 H   0  0  0  0  0  0  0  0  0  0  0  0
    2.0660    1.0046    2.2205 H   0  0  0  0  0  0  0  0  0  0  0  0
    0.3219   -0.4467    1.1441 H   0  0  0  0  0  0  0  0  0  0  0  0
    1.5566   -1.1111    0.0875 H   0  0  0  0  0  0  0  0  0  0  0  0
    2.4116    2.5830    0.2796 H   0  0  0  0  0  0  0  0  0  0  0  0
    2.3721    2.3570   -1.4574 H   0  0  0  0  0  0  0  0  0  0  0  0
    4.4992    1.5636   -0.5844 H   0  0  0  0  0  0  0  0  0  0  0  0
    3.5940    0.1766   -1.1711 H   0  0  0  0  0  0  0  0  0  0  0  0
    0.5638    1.2344   -2.4759 H   0  0  0  0  0  0  0  0  0  0  0  0
    1.4299   -0.2534   -2.1459 H   0  0  0  0  0  0  0  0  0  0  0  0
   -1.0535   -0.4617   -2.7368 H   0  0  0  0  0  0  0  0  0  0  0  0
   -0.5136   -1.3582   -1.3236 H   0  0  0  0  0  0  0  0  0  0  0  0
   -2.8955   -1.2886    0.6994 H   0  0  0  0  0  0  0  0  0  0  0  0
   -6.6397   -1.4011   -1.4347 H   0  0  0  0  0  0  0  0  0  0  0  0
   -5.7161    0.1506   -3.1139 H   0  0  0  0  0  0  0  0  0  0  0  0
   -1.3778    2.3073   -1.5532 H   0  0  0  0  0  0  0  0  0  0  0  0
   -2.2245    2.1978   -0.0055 H   0  0  0  0  0  0  0  0  0  0  0  0
   -0.2614    1.7515    1.2228 H   0  0  0  0  0  0  0  0  0  0  0  0
    0.1943    2.9919    0.0679 H   0  0  0  0  0  0  0  0  0  0  0  0
  1  2  2  0
  2  3  1  0
  2  4  1  0
  4  5  1  0
  5  6  1  0
  6  7  1  0
  7  8  1  0
  8  9  1  0
  9 10  1  0
  8 11  1  0
 11 12  1  0
 12 13  1  0
 13 14  1  0
 14 15  2  0
 15 16  1  0
 16 17  1  0
 17 18  1  0
 18 19  1  0
 18 20  1  0
 18 21  1  0
 16 22  2  0
 22 23  1  0
 23 24  2  0
 24 25  1  0
 13 26  1  0
 26 27  1  0
 10  5  1  0
 24 14  1  0
 27  8  1  0
  3 28  1  0
  4 29  1  0
  4 30  1  0
  5 31  1  0
  6 32  1  0
  6 33  1  0
  7 34  1  0
  7 35  1  0
  9 36  1  0
  9 37  1  0
 10 38  1  0
 10 39  1  0
 11 40  1  0
 11 41  1  0
 12 42  1  0
 12 43  1  0
 15 44  1  0
 22 45  1  0
 23 46  1  0
 26 47  1  0
 26 48  1  0
 27 49  1  0
 27 50  1  0
M  END
$$$$
