
     RDKit          3D

 18 19  0  0  0  0  0  0  0  0999 V2000
    4.4500   -0.8010   -1.4898 S   0  0  0  0  0  0  0  0  0  0  0  0
    3.1311   -0.2841   -0.4959 C   0  0  0  0  0  0  0  0  0  0  0  0
    3.2779    0.3135    0.6659 N   0  0  0  0  0  0  0  0  0  0  0  0
    2.0061    0.5633    1.1393 N   0  0  0  0  0  0  0  0  0  0  0  0
    1.1648    0.1006    0.2369 C   0  0  0  0  0  0  0  0  0  0  0  0
   -0.2962    0.0897    0.1910 C   0  0  0  0  0  0  0  0  0  0  0  0
   -0.9483   -0.1108   -1.0443 C   0  0  0  0  0  0  0  0  0  0  0  0
   -2.3428   -0.1180   -1.1423 C   0  0  0  0  0  0  0  0  0  0  0  0
   -3.1186    0.0748   -0.0061 C   0  0  0  0  0  0  0  0  0  0  0  0
   -2.4991    0.2721    1.2261 C   0  0  0  0  0  0  0  0  0  0  0  0
   -1.0998    0.2798    1.3296 C   0  0  0  0  0  0  0  0  0  0  0  0
   -0.4565    0.5043    2.9207 Cl  0  0  0  0  0  0  0  0  0  0  0  0
    1.8185   -0.4515   -0.8389 O   0  0  0  0  0  0  0  0  0  0  0  0
    5.4210   -0.3897   -0.6633 H   0  0  0  0  0  0  0  0  0  0  0  0
   -0.3711   -0.2582   -1.9565 H   0  0  0  0  0  0  0  0  0  0  0  0
   -2.8192   -0.2727   -2.1080 H   0  0  0  0  0  0  0  0  0  0  0  0
   -4.2037    0.0702   -0.0765 H   0  0  0  0  0  0  0  0  0  0  0  0
   -3.1140    0.4176    2.1120 H   0  0  0  0  0  0  0  0  0  0  0  0
  1  2  1  0
  2  3  2  0
  3  4  1  0
  4  5  2  0
  5  6  1  0
  6  7  2  0
  7  8  1  0
  8  9  2  0
  9 10  1  0
 10 11  2  0
 11 12  1  0
  5 13  1  0
 13  2  1  0
 11  6  1  0
  1 14  1  0
  7 15  1  0
  8 16  1  0
  9 17  1  0
 10 18  1  0
M  END
$$$$
