
     RDKit          3D

 50 52  0  0  0  0  0  0  0  0999 V2000
   -3.4968   -3.4939    1.5260 C   0  0  0  0  0  0  0  0  0  0  0  0
   -3.0854   -2.1650    1.2410 O   0  0  0  0  0  0  0  0  0  0  0  0
   -1.7863   -1.9747    0.8565 C   0  0  0  0  0  0  0  0  0  0  0  0
   -0.8540   -2.9928    0.6624 C   0  0  0  0  0  0  0  0  0  0  0  0
    0.4702   -2.6980    0.3008 C   0  0  0  0  0  0  0  0  0  0  0  0
    0.9109   -1.3737    0.1243 C   0  0  0  0  0  0  0  0  0  0  0  0
    2.3755   -1.0244   -0.2358 C   0  0  2  0  0  0  0  0  0  0  0  0
    3.1766   -2.2439   -0.5656 C   0  0  0  0  0  0  0  0  0  0  0  0
    3.7997   -3.1895   -0.8264 N   0  0  0  0  0  0  0  0  0  0  0  0
    3.0695   -0.3359    0.9815 C   0  0  0  0  0  0  0  0  0  0  0  0
    3.1929    1.1841    0.8456 C   0  0  0  0  0  0  0  0  0  0  0  0
    3.9466    1.6116   -0.4238 C   0  0  1  0  0  0  0  0  0  0  0  0
    5.4314    1.7506   -0.1557 C   0  0  0  0  0  0  0  0  0  0  0  0
    6.0881    1.1286    0.6638 O   0  0  0  0  0  0  0  0  0  0  0  0
    6.0204    2.6452   -0.9706 O   0  0  0  0  0  0  0  0  0  0  0  0
    3.7321    0.6632   -1.6090 C   0  0  0  0  0  0  0  0  0  0  0  0
    2.4173   -0.1099   -1.4987 C   0  0  0  0  0  0  0  0  0  0  0  0
   -0.0414   -0.3592    0.3288 C   0  0  0  0  0  0  0  0  0  0  0  0
   -1.3707   -0.6538    0.6560 C   0  0  0  0  0  0  0  0  0  0  0  0
   -2.1887    0.4345    0.8354 O   0  0  0  0  0  0  0  0  0  0  0  0
   -3.3079    0.4525   -0.0663 C   0  0  0  0  0  0  0  0  0  0  0  0
   -3.1828    1.6799   -0.9663 C   0  0  0  0  0  0  0  0  0  0  0  0
   -3.6538    2.8183   -0.0765 C   0  0  0  0  0  0  0  0  0  0  0  0
   -4.8259    2.2238    0.6901 C   0  0  0  0  0  0  0  0  0  0  0  0
   -4.5847    0.7116    0.7404 C   0  0  0  0  0  0  0  0  0  0  0  0
   -2.9185   -3.9214    2.3517 H   0  0  0  0  0  0  0  0  0  0  0  0
   -4.5456   -3.4605    1.8382 H   0  0  0  0  0  0  0  0  0  0  0  0
   -3.4376   -4.1234    0.6337 H   0  0  0  0  0  0  0  0  0  0  0  0
   -1.1163   -4.0382    0.7914 H   0  0  0  0  0  0  0  0  0  0  0  0
    1.1435   -3.5456    0.1770 H   0  0  0  0  0  0  0  0  0  0  0  0
    2.5443   -0.5706    1.9172 H   0  0  0  0  0  0  0  0  0  0  0  0
    4.0855   -0.7318    1.1145 H   0  0  0  0  0  0  0  0  0  0  0  0
    2.1906    1.6259    0.8271 H   0  0  0  0  0  0  0  0  0  0  0  0
    3.6799    1.5891    1.7416 H   0  0  0  0  0  0  0  0  0  0  0  0
    3.5765    2.6127   -0.6808 H   0  0  0  0  0  0  0  0  0  0  0  0
    6.9652    2.6256   -0.7056 H   0  0  0  0  0  0  0  0  0  0  0  0
    4.5671   -0.0420   -1.7028 H   0  0  0  0  0  0  0  0  0  0  0  0
    3.7315    1.2474   -2.5373 H   0  0  0  0  0  0  0  0  0  0  0  0
    1.6062    0.6269   -1.4979 H   0  0  0  0  0  0  0  0  0  0  0  0
    2.2670   -0.7063   -2.4080 H   0  0  0  0  0  0  0  0  0  0  0  0
    0.2244    0.6900    0.2361 H   0  0  0  0  0  0  0  0  0  0  0  0
   -3.3928   -0.4609   -0.6691 H   0  0  0  0  0  0  0  0  0  0  0  0
   -3.8440    1.5853   -1.8331 H   0  0  0  0  0  0  0  0  0  0  0  0
   -2.1631    1.8482   -1.3181 H   0  0  0  0  0  0  0  0  0  0  0  0
   -3.9388    3.7038   -0.6500 H   0  0  0  0  0  0  0  0  0  0  0  0
   -2.8609    3.1094    0.6207 H   0  0  0  0  0  0  0  0  0  0  0  0
   -5.7665    2.4278    0.1662 H   0  0  0  0  0  0  0  0  0  0  0  0
   -4.9068    2.6564    1.6908 H   0  0  0  0  0  0  0  0  0  0  0  0
   -5.4339    0.2080    0.2668 H   0  0  0  0  0  0  0  0  0  0  0  0
   -4.5096    0.3549    1.7710 H   0  0  0  0  0  0  0  0  0  0  0  0
  1  2  1  0
  2  3  1  0
  3  4  2  0
  4  5  1  0
  5  6  2  0
  6  7  1  0
  7  8  1  6
  8  9  3  0
  7 10  1  0
 10 11  1  0
 11 12  1  0
 12 13  1  0
 13 14  2  0
 13 15  1  0
 12 16  1  0
 16 17  1  0
  6 18  1  0
 18 19  2  0
 19 20  1  0
 20 21  1  0
 21 22  1  0
 22 23  1  0
 23 24  1  0
 24 25  1  0
 19  3  1  0
 25 21  1  0
 17  7  1  0
  1 26  1  0
  1 27  1  0
  1 28  1  0
  4 29  1  0
  5 30  1  0
 10 31  1  0
 10 32  1  0
 11 33  1  0
 11 34  1  0
 12 35  1  6
 15 36  1  0
 16 37  1  0
 16 38  1  0
 17 39  1  0
 17 40  1  0
 18 41  1  0
 21 42  1  0
 22 43  1  0
 22 44  1  0
 23 45  1  0
 23 46  1  0
 24 47  1  0
 24 48  1  0
 25 49  1  0
 25 50  1  0
M  END
$$$$
