
     RDKit          3D

 47 50  0  0  0  0  0  0  0  0999 V2000
   -4.3934    2.4874    0.0002 C   0  0  0  0  0  0  0  0  0  0  0  0
   -5.1859    1.2334    0.2503 C   0  0  0  0  0  0  0  0  0  0  0  0
   -6.5255    1.4187    0.6548 C   0  0  0  0  0  0  0  0  0  0  0  0
   -7.4003    0.3417    0.7964 C   0  0  0  0  0  0  0  0  0  0  0  0
   -6.9510   -0.9430    0.5281 C   0  0  0  0  0  0  0  0  0  0  0  0
   -8.0303   -2.2745    0.6786 Cl  0  0  0  0  0  0  0  0  0  0  0  0
   -5.6279   -1.1596    0.1517 C   0  0  0  0  0  0  0  0  0  0  0  0
   -4.7189   -0.0833    0.0489 C   0  0  0  0  0  0  0  0  0  0  0  0
   -3.3678   -0.4231   -0.2741 N   0  0  0  0  0  0  0  0  0  0  0  0
   -3.1291   -1.5529   -1.0131 N   0  0  0  0  0  0  0  0  0  0  0  0
   -1.8103   -1.5580   -1.1994 C   0  0  0  0  0  0  0  0  0  0  0  0
   -1.1547   -0.5248   -0.5137 C   0  0  0  0  0  0  0  0  0  0  0  0
    0.1674   -0.1019   -0.3128 C   0  0  0  0  0  0  0  0  0  0  0  0
    1.2531   -0.7485   -0.9065 N   0  0  0  0  0  0  0  0  0  0  0  0
    2.5568   -0.4770   -0.2994 C   0  0  0  0  0  0  0  0  0  0  0  0
    3.6607   -1.2459   -1.0533 C   0  0  0  0  0  0  0  0  0  0  0  0
    5.0552   -1.1113   -0.6240 N   0  0  0  0  0  0  0  0  0  0  0  0
    5.6712    0.1988   -0.8833 C   0  0  0  0  0  0  0  0  0  0  0  0
    5.5889    1.2081    0.2733 C   0  0  0  0  0  0  0  0  0  0  0  0
    6.0562    0.6376    1.5000 O   0  0  0  0  0  0  0  0  0  0  0  0
    5.2820   -0.5173    1.8372 C   0  0  0  0  0  0  0  0  0  0  0  0
    5.3553   -1.5863    0.7341 C   0  0  0  0  0  0  0  0  0  0  0  0
    0.3652    0.9703    0.4893 N   0  0  0  0  0  0  0  0  0  0  0  0
   -0.6979    1.5577    1.0670 C   0  0  0  0  0  0  0  0  0  0  0  0
   -1.9901    1.2274    0.9410 N   0  0  0  0  0  0  0  0  0  0  0  0
   -2.1725    0.1865    0.1042 C   0  0  0  0  0  0  0  0  0  0  0  0
   -5.0498    3.2885   -0.3608 H   0  0  0  0  0  0  0  0  0  0  0  0
   -3.9243    2.8371    0.9237 H   0  0  0  0  0  0  0  0  0  0  0  0
   -3.6476    2.3478   -0.7871 H   0  0  0  0  0  0  0  0  0  0  0  0
   -6.9060    2.4233    0.8372 H   0  0  0  0  0  0  0  0  0  0  0  0
   -8.4295    0.5165    1.0978 H   0  0  0  0  0  0  0  0  0  0  0  0
   -5.2993   -2.1822   -0.0290 H   0  0  0  0  0  0  0  0  0  0  0  0
   -1.3758   -2.3389   -1.8100 H   0  0  0  0  0  0  0  0  0  0  0  0
    1.0655   -1.7275   -1.0926 H   0  0  0  0  0  0  0  0  0  0  0  0
    2.7678    0.5953   -0.3504 H   0  0  0  0  0  0  0  0  0  0  0  0
    2.5379   -0.7917    0.7491 H   0  0  0  0  0  0  0  0  0  0  0  0
    3.6020   -0.9834   -2.1186 H   0  0  0  0  0  0  0  0  0  0  0  0
    3.4085   -2.3151   -1.0286 H   0  0  0  0  0  0  0  0  0  0  0  0
    5.2806    0.6475   -1.8041 H   0  0  0  0  0  0  0  0  0  0  0  0
    6.7353    0.0056   -1.0729 H   0  0  0  0  0  0  0  0  0  0  0  0
    4.5722    1.5854    0.4186 H   0  0  0  0  0  0  0  0  0  0  0  0
    6.2252    2.0709    0.0504 H   0  0  0  0  0  0  0  0  0  0  0  0
    5.6902   -0.9252    2.7678 H   0  0  0  0  0  0  0  0  0  0  0  0
    4.2525   -0.2088    2.0433 H   0  0  0  0  0  0  0  0  0  0  0  0
    6.3873   -1.9600    0.7090 H   0  0  0  0  0  0  0  0  0  0  0  0
    4.7313   -2.4476    1.0000 H   0  0  0  0  0  0  0  0  0  0  0  0
   -0.4804    2.4023    1.7142 H   0  0  0  0  0  0  0  0  0  0  0  0
  1  2  1  0
  2  3  2  0
  3  4  1  0
  4  5  2  0
  5  6  1  0
  5  7  1  0
  7  8  2  0
  8  9  1  0
  9 10  1  0
 10 11  2  0
 11 12  1  0
 12 13  2  0
 13 14  1  0
 14 15  1  0
 15 16  1  0
 16 17  1  0
 17 18  1  0
 18 19  1  0
 19 20  1  0
 20 21  1  0
 21 22  1  0
 13 23  1  0
 23 24  2  0
 24 25  1  0
 25 26  2  0
  8  2  1  0
 26  9  1  0
 26 12  1  0
 22 17  1  0
  1 27  1  0
  1 28  1  0
  1 29  1  0
  3 30  1  0
  4 31  1  0
  7 32  1  0
 11 33  1  0
 14 34  1  0
 15 35  1  0
 15 36  1  0
 16 37  1  0
 16 38  1  0
 18 39  1  0
 18 40  1  0
 19 41  1  0
 19 42  1  0
 21 43  1  0
 21 44  1  0
 22 45  1  0
 22 46  1  0
 24 47  1  0
M  END
$$$$
