
     RDKit          3D

 58 60  0  0  0  0  0  0  0  0999 V2000
   -4.3527   -0.5636   -3.0215 C   0  0  0  0  0  0  0  0  0  0  0  0
   -4.0965    0.4672   -1.9529 C   0  0  0  0  0  0  0  0  0  0  0  0
   -4.3620    0.0535   -0.6353 N   0  0  0  0  0  0  0  0  0  0  0  0
   -3.5416   -0.9270   -0.0638 C   0  0  0  0  0  0  0  0  0  0  0  0
   -2.0995   -0.4233   -0.0074 C   0  0  0  0  0  0  0  0  0  0  0  0
   -0.9985   -1.1559   -0.0037 C   0  0  0  0  0  0  0  0  0  0  0  0
    0.2398   -0.5066    0.0605 C   0  0  0  0  0  0  0  0  0  0  0  0
    1.5130   -1.1464    0.0743 N   0  0  0  0  0  0  0  0  0  0  0  0
    2.6774   -0.3354    0.1431 C   0  0  0  0  0  0  0  0  0  0  0  0
    2.5748    0.9836    0.1920 N   0  0  0  0  0  0  0  0  0  0  0  0
    3.6858    1.7274    0.2567 C   0  0  0  0  0  0  0  0  0  0  0  0
    3.6137    3.2280    0.3131 C   0  0  0  0  0  0  0  0  0  0  0  0
    4.9354    1.1080    0.2720 C   0  0  0  0  0  0  0  0  0  0  0  0
    5.0257   -0.2422    0.2215 N   0  0  0  0  0  0  0  0  0  0  0  0
    6.0699   -1.1025    0.2215 C   0  0  0  0  0  0  0  0  0  0  0  0
    7.4801   -0.8253    0.2788 C   0  0  0  0  0  0  0  0  0  0  0  0
    8.4349   -1.8575    0.2702 C   0  0  0  0  0  0  0  0  0  0  0  0
    9.6496   -1.3127    0.3320 N   0  0  0  0  0  0  0  0  0  0  0  0
    9.5089   -0.0116    0.3781 N   0  0  0  0  0  0  0  0  0  0  0  0
    8.1805    0.3255    0.3471 C   0  0  0  0  0  0  0  0  0  0  0  0
    5.5026   -2.3776    0.1533 C   0  0  0  0  0  0  0  0  0  0  0  0
    4.1888   -2.3003    0.1139 N   0  0  0  0  0  0  0  0  0  0  0  0
    3.9042   -0.9789    0.1565 C   0  0  0  0  0  0  0  0  0  0  0  0
   -0.1219    1.1797    0.1183 S   0  0  0  0  0  0  0  0  0  0  0  0
   -1.9426    0.9490    0.0535 N   0  0  0  0  0  0  0  0  0  0  0  0
   -5.6735    0.2426   -0.1482 C   0  0  0  0  0  0  0  0  0  0  0  0
   -6.0285    1.7391   -0.1186 C   0  0  0  0  0  0  0  0  0  0  0  0
   -6.7615   -0.4150   -0.9899 C   0  0  0  0  0  0  0  0  0  0  0  0
   -5.8561   -0.2360    1.2592 C   0  0  0  0  0  0  0  0  0  0  0  0
   -5.0191    0.4259    2.1628 O   0  0  0  0  0  0  0  0  0  0  0  0
    0.6912    0.0000    0.0000 Cl  0  0  0  0  0  0  0  0  0  0  0  0
   -4.2175   -1.5920   -2.6982 H   0  0  0  0  0  0  0  0  0  0  0  0
   -3.5811   -0.3904   -3.8259 H   0  0  0  0  0  0  0  0  0  0  0  0
   -5.3273   -0.4258   -3.5353 H   0  0  0  0  0  0  0  0  0  0  0  0
   -4.7706    1.3341   -2.1877 H   0  0  0  0  0  0  0  0  0  0  0  0
   -3.0676    0.8755   -2.0351 H   0  0  0  0  0  0  0  0  0  0  0  0
   -3.7972   -1.1467    0.9690 H   0  0  0  0  0  0  0  0  0  0  0  0
   -3.4995   -1.8961   -0.6016 H   0  0  0  0  0  0  0  0  0  0  0  0
   -1.0545   -2.2903   -0.0516 H   0  0  0  0  0  0  0  0  0  0  0  0
    1.5545   -2.1632    0.0345 H   0  0  0  0  0  0  0  0  0  0  0  0
    3.7234    3.6052    1.3413 H   0  0  0  0  0  0  0  0  0  0  0  0
    4.3986    3.6141   -0.3697 H   0  0  0  0  0  0  0  0  0  0  0  0
    2.6227    3.5174   -0.1417 H   0  0  0  0  0  0  0  0  0  0  0  0
    5.8274    1.6980    0.3238 H   0  0  0  0  0  0  0  0  0  0  0  0
    8.2650   -2.9295    0.2231 H   0  0  0  0  0  0  0  0  0  0  0  0
   10.3118    0.6592    0.4305 H   0  0  0  0  0  0  0  0  0  0  0  0
    7.8771    1.3606    0.3777 H   0  0  0  0  0  0  0  0  0  0  0  0
    6.1061   -3.2802    0.1370 H   0  0  0  0  0  0  0  0  0  0  0  0
   -5.1223    2.3614   -0.0668 H   0  0  0  0  0  0  0  0  0  0  0  0
   -6.6470    1.9908    0.7665 H   0  0  0  0  0  0  0  0  0  0  0  0
   -6.6578    2.0091   -1.0143 H   0  0  0  0  0  0  0  0  0  0  0  0
   -6.5913   -1.4828   -1.1278 H   0  0  0  0  0  0  0  0  0  0  0  0
   -6.9756    0.1588   -1.8931 H   0  0  0  0  0  0  0  0  0  0  0  0
   -7.6932   -0.3382   -0.3544 H   0  0  0  0  0  0  0  0  0  0  0  0
   -5.7995   -1.3422    1.3657 H   0  0  0  0  0  0  0  0  0  0  0  0
   -6.8994    0.0367    1.5564 H   0  0  0  0  0  0  0  0  0  0  0  0
   -5.3163    0.3448    3.0862 H   0  0  0  0  0  0  0  0  0  0  0  0
   -0.6912    0.0000    0.0000 H   0  0  0  0  0  0  0  0  0  0  0  0
  1  2  1  0
  2  3  1  0
  3  4  1  0
  4  5  1  0
  5  6  1  0
  6  7  2  0
  7  8  1  0
  8  9  1  0
  9 10  2  0
 10 11  1  0
 11 12  1  0
 11 13  2  0
 13 14  1  0
 14 15  1  0
 15 16  1  0
 16 17  1  0
 17 18  2  0
 18 19  1  0
 19 20  1  0
 15 21  2  0
 21 22  1  0
 22 23  2  0
  7 24  1  0
 24 25  1  0
  3 26  1  0
 26 27  1  0
 26 28  1  0
 26 29  1  0
 29 30  1  0
 25  5  2  0
 23  9  1  0
 23 14  1  0
 20 16  2  0
  1 32  1  0
  1 33  1  0
  1 34  1  0
  2 35  1  0
  2 36  1  0
  4 37  1  0
  4 38  1  0
  6 39  1  0
  8 40  1  0
 12 41  1  0
 12 42  1  0
 12 43  1  0
 13 44  1  0
 17 45  1  0
 19 46  1  0
 20 47  1  0
 21 48  1  0
 27 49  1  0
 27 50  1  0
 27 51  1  0
 28 52  1  0
 28 53  1  0
 28 54  1  0
 29 55  1  0
 29 56  1  0
 30 57  1  0
 31 58  1  0
M  END
$$$$
