
     RDKit          3D

 69 73  0  0  0  0  0  0  0  0999 V2000
   -2.3018    2.7250   -1.3496 C   0  0  0  0  0  0  0  0  0  0  0  0
   -3.1118    1.5671   -1.1964 O   0  0  0  0  0  0  0  0  0  0  0  0
   -2.4752    0.3691   -0.9935 C   0  0  0  0  0  0  0  0  0  0  0  0
   -1.1220    0.2366   -0.6780 C   0  0  0  0  0  0  0  0  0  0  0  0
   -0.5421   -1.0408   -0.4664 C   0  0  0  0  0  0  0  0  0  0  0  0
    0.8098   -1.2751   -0.1371 C   0  0  0  0  0  0  0  0  0  0  0  0
    1.6673   -0.1587    0.0668 N   0  0  0  0  0  0  0  0  0  0  0  0
    3.0773   -0.1401    0.1475 C   0  0  0  0  0  0  0  0  0  0  0  0
    3.7084    0.9077    0.8309 C   0  0  0  0  0  0  0  0  0  0  0  0
    5.1057    1.0069    0.8857 C   0  0  0  0  0  0  0  0  0  0  0  0
    5.9059    0.0705    0.2361 C   0  0  0  0  0  0  0  0  0  0  0  0
    7.3155    0.0975    0.2381 N   0  0  0  0  0  0  0  0  0  0  0  0
    8.1371    0.9625    0.9381 C   0  0  0  0  0  0  0  0  0  0  0  0
    7.7901    1.8248    1.7356 O   0  0  0  0  0  0  0  0  0  0  0  0
    9.5952    0.7629    0.7020 C   0  0  0  0  0  0  0  0  0  0  0  0
   10.0976    0.4309   -0.5633 C   0  0  0  0  0  0  0  0  0  0  0  0
   11.4713    0.2524   -0.7417 C   0  0  0  0  0  0  0  0  0  0  0  0
   12.3438    0.4107    0.3356 C   0  0  0  0  0  0  0  0  0  0  0  0
   11.8486    0.7600    1.5918 C   0  0  0  0  0  0  0  0  0  0  0  0
   10.4771    0.9416    1.7750 C   0  0  0  0  0  0  0  0  0  0  0  0
    5.2851   -0.9543   -0.4838 C   0  0  0  0  0  0  0  0  0  0  0  0
    3.8885   -1.0496   -0.5359 C   0  0  0  0  0  0  0  0  0  0  0  0
    1.3007   -2.5189    0.0084 N   0  0  0  0  0  0  0  0  0  0  0  0
    0.4419   -3.5285   -0.1467 C   0  0  0  0  0  0  0  0  0  0  0  0
   -0.8587   -3.4202   -0.4346 N   0  0  0  0  0  0  0  0  0  0  0  0
   -1.3385   -2.1845   -0.5957 C   0  0  0  0  0  0  0  0  0  0  0  0
   -2.6854   -2.0377   -0.9022 C   0  0  0  0  0  0  0  0  0  0  0  0
   -3.2708   -0.7829   -1.0933 C   0  0  0  0  0  0  0  0  0  0  0  0
   -4.5888   -0.5721   -1.4013 O   0  0  0  0  0  0  0  0  0  0  0  0
   -5.5266   -1.6440   -1.3203 C   0  0  0  0  0  0  0  0  0  0  0  0
   -5.9526   -1.9335    0.1165 C   0  0  0  0  0  0  0  0  0  0  0  0
   -6.4797   -0.7296    0.9115 C   0  0  0  0  0  0  0  0  0  0  0  0
   -7.7846   -0.2530    0.4297 N   0  0  0  0  0  0  0  0  0  0  0  0
   -7.6725    0.8341   -0.5724 C   0  0  0  0  0  0  0  0  0  0  0  0
   -7.9982    2.2319   -0.0200 C   0  0  0  0  0  0  0  0  0  0  0  0
   -9.3181    2.3280    0.5316 O   0  0  0  0  0  0  0  0  0  0  0  0
   -9.7824    1.0906    1.0881 C   0  0  0  0  0  0  0  0  0  0  0  0
   -8.6358    0.1846    1.5592 C   0  0  0  0  0  0  0  0  0  0  0  0
   -1.8114    2.9862   -0.4063 H   0  0  0  0  0  0  0  0  0  0  0  0
   -2.9569    3.5572   -1.6251 H   0  0  0  0  0  0  0  0  0  0  0  0
   -1.5700    2.5970   -2.1543 H   0  0  0  0  0  0  0  0  0  0  0  0
   -0.4890    1.1141   -0.5993 H   0  0  0  0  0  0  0  0  0  0  0  0
    1.2537    0.4418    0.7734 H   0  0  0  0  0  0  0  0  0  0  0  0
    3.1215    1.6672    1.3408 H   0  0  0  0  0  0  0  0  0  0  0  0
    5.5339    1.8362    1.4395 H   0  0  0  0  0  0  0  0  0  0  0  0
    7.7669   -0.6499   -0.2729 H   0  0  0  0  0  0  0  0  0  0  0  0
    9.4396    0.3403   -1.4228 H   0  0  0  0  0  0  0  0  0  0  0  0
   11.8642    0.0013   -1.7240 H   0  0  0  0  0  0  0  0  0  0  0  0
   13.4134    0.2751    0.1940 H   0  0  0  0  0  0  0  0  0  0  0  0
   12.5303    0.8964    2.4278 H   0  0  0  0  0  0  0  0  0  0  0  0
   10.0948    1.2228    2.7546 H   0  0  0  0  0  0  0  0  0  0  0  0
    5.8705   -1.6954   -1.0209 H   0  0  0  0  0  0  0  0  0  0  0  0
    3.4449   -1.8470   -1.1257 H   0  0  0  0  0  0  0  0  0  0  0  0
    0.8361   -4.5314   -0.0239 H   0  0  0  0  0  0  0  0  0  0  0  0
   -3.2659   -2.9499   -0.9924 H   0  0  0  0  0  0  0  0  0  0  0  0
   -5.1564   -2.5443   -1.8227 H   0  0  0  0  0  0  0  0  0  0  0  0
   -6.4029   -1.3402   -1.9039 H   0  0  0  0  0  0  0  0  0  0  0  0
   -5.0942   -2.3332    0.6695 H   0  0  0  0  0  0  0  0  0  0  0  0
   -6.7083   -2.7288    0.1103 H   0  0  0  0  0  0  0  0  0  0  0  0
   -5.7404    0.0799    0.9582 H   0  0  0  0  0  0  0  0  0  0  0  0
   -6.5862   -1.0907    1.9440 H   0  0  0  0  0  0  0  0  0  0  0  0
   -8.3948    0.6035   -1.3655 H   0  0  0  0  0  0  0  0  0  0  0  0
   -6.6886    0.8634   -1.0482 H   0  0  0  0  0  0  0  0  0  0  0  0
   -7.9241    2.9766   -0.8190 H   0  0  0  0  0  0  0  0  0  0  0  0
   -7.2799    2.5180    0.7571 H   0  0  0  0  0  0  0  0  0  0  0  0
  -10.4376    1.3367    1.9300 H   0  0  0  0  0  0  0  0  0  0  0  0
  -10.3969    0.5847    0.3341 H   0  0  0  0  0  0  0  0  0  0  0  0
   -8.0385    0.7398    2.2946 H   0  0  0  0  0  0  0  0  0  0  0  0
   -9.0495   -0.6994    2.0570 H   0  0  0  0  0  0  0  0  0  0  0  0
  1  2  1  0
  2  3  1  0
  3  4  2  0
  4  5  1  0
  5  6  2  0
  6  7  1  0
  7  8  1  0
  8  9  2  0
  9 10  1  0
 10 11  2  0
 11 12  1  0
 12 13  1  0
 13 14  2  0
 13 15  1  0
 15 16  2  0
 16 17  1  0
 17 18  2  0
 18 19  1  0
 19 20  2  0
 11 21  1  0
 21 22  2  0
  6 23  1  0
 23 24  2  0
 24 25  1  0
 25 26  2  0
 26 27  1  0
 27 28  2  0
 28 29  1  0
 29 30  1  0
 30 31  1  0
 31 32  1  0
 32 33  1  0
 33 34  1  0
 34 35  1  0
 35 36  1  0
 36 37  1  0
 37 38  1  0
 28  3  1  0
 38 33  1  0
 26  5  1  0
 22  8  1  0
 20 15  1  0
  1 39  1  0
  1 40  1  0
  1 41  1  0
  4 42  1  0
  7 43  1  0
  9 44  1  0
 10 45  1  0
 12 46  1  0
 16 47  1  0
 17 48  1  0
 18 49  1  0
 19 50  1  0
 20 51  1  0
 21 52  1  0
 22 53  1  0
 24 54  1  0
 27 55  1  0
 30 56  1  0
 30 57  1  0
 31 58  1  0
 31 59  1  0
 32 60  1  0
 32 61  1  0
 34 62  1  0
 34 63  1  0
 35 64  1  0
 35 65  1  0
 37 66  1  0
 37 67  1  0
 38 68  1  0
 38 69  1  0
M  END
$$$$
