
     RDKit          3D

 48 50  0  0  0  0  0  0  0  0999 V2000
   -2.8182    5.2452   -1.7998 C   0  0  0  0  0  0  0  0  0  0  0  0
   -2.3795    3.8055   -1.7845 C   0  0  0  0  0  0  0  0  0  0  0  0
   -1.8040    3.2899   -2.7357 O   0  0  0  0  0  0  0  0  0  0  0  0
   -2.6936    3.1377   -0.6207 N   0  0  0  0  0  0  0  0  0  0  0  0
   -2.5004    1.7026   -0.4866 C   0  0  0  0  0  0  0  0  0  0  0  0
   -1.8924    1.3403    0.8740 C   0  0  0  0  0  0  0  0  0  0  0  0
   -1.9202   -0.1064    1.1224 N   0  0  0  0  0  0  0  0  0  0  0  0
   -0.8875   -0.9755    0.8089 C   0  0  0  0  0  0  0  0  0  0  0  0
    0.5686   -0.3158    0.0847 S   0  0  0  0  0  0  0  0  0  0  0  0
    1.1428   -1.7815   -0.8347 C   0  0  0  0  0  0  0  0  0  0  0  0
    2.3313   -1.4740   -1.7304 C   0  0  0  0  0  0  0  0  0  0  0  0
    2.4708   -2.0201   -2.8262 O   0  0  0  0  0  0  0  0  0  0  0  0
    3.2805   -0.6257   -1.1963 N   0  0  0  0  0  0  0  0  0  0  0  0
    4.3993   -0.2008   -2.0082 C   0  0  0  0  0  0  0  0  0  0  0  0
    5.4415    0.4081   -1.1465 C   0  0  0  0  0  0  0  0  0  0  0  0
    5.9368    0.1134    0.1095 C   0  0  0  0  0  0  0  0  0  0  0  0
    6.9704    1.0506    0.3601 C   0  0  0  0  0  0  0  0  0  0  0  0
    7.0417    1.8511   -0.7561 C   0  0  0  0  0  0  0  0  0  0  0  0
    6.1147    1.4734   -1.6722 O   0  0  0  0  0  0  0  0  0  0  0  0
   -0.9193   -2.2500    1.0240 N   0  0  0  0  0  0  0  0  0  0  0  0
   -2.0673   -2.8089    1.5919 C   0  0  0  0  0  0  0  0  0  0  0  0
   -2.0966   -4.1807    1.8546 C   0  0  0  0  0  0  0  0  0  0  0  0
   -3.2366   -4.7759    2.4043 C   0  0  0  0  0  0  0  0  0  0  0  0
   -4.3591   -4.0013    2.6946 C   0  0  0  0  0  0  0  0  0  0  0  0
   -4.3394   -2.6306    2.4411 C   0  0  0  0  0  0  0  0  0  0  0  0
   -3.1908   -2.0465    1.8936 C   0  0  0  0  0  0  0  0  0  0  0  0
   -3.1266   -0.6024    1.6177 C   0  0  0  0  0  0  0  0  0  0  0  0
   -4.1207    0.0939    1.8142 O   0  0  0  0  0  0  0  0  0  0  0  0
   -3.7332    5.3329   -2.3906 H   0  0  0  0  0  0  0  0  0  0  0  0
   -3.0104    5.6195   -0.7922 H   0  0  0  0  0  0  0  0  0  0  0  0
   -2.0321    5.8543   -2.2486 H   0  0  0  0  0  0  0  0  0  0  0  0
   -3.3481    3.5775    0.0164 H   0  0  0  0  0  0  0  0  0  0  0  0
   -3.4932    1.2463   -0.6035 H   0  0  0  0  0  0  0  0  0  0  0  0
   -1.8733    1.3183   -1.3018 H   0  0  0  0  0  0  0  0  0  0  0  0
   -0.8759    1.7398    0.9541 H   0  0  0  0  0  0  0  0  0  0  0  0
   -2.4618    1.8407    1.6706 H   0  0  0  0  0  0  0  0  0  0  0  0
    1.4430   -2.5781   -0.1438 H   0  0  0  0  0  0  0  0  0  0  0  0
    0.3266   -2.1400   -1.4725 H   0  0  0  0  0  0  0  0  0  0  0  0
    2.9573    0.0119   -0.4738 H   0  0  0  0  0  0  0  0  0  0  0  0
    4.0229    0.5134   -2.7467 H   0  0  0  0  0  0  0  0  0  0  0  0
    4.8119   -1.0627   -2.5441 H   0  0  0  0  0  0  0  0  0  0  0  0
    5.5967   -0.6844    0.7570 H   0  0  0  0  0  0  0  0  0  0  0  0
    7.5934    1.1276    1.2402 H   0  0  0  0  0  0  0  0  0  0  0  0
    7.6629    2.6887   -1.0402 H   0  0  0  0  0  0  0  0  0  0  0  0
   -1.2259   -4.7909    1.6294 H   0  0  0  0  0  0  0  0  0  0  0  0
   -3.2478   -5.8447    2.6034 H   0  0  0  0  0  0  0  0  0  0  0  0
   -5.2467   -4.4634    3.1209 H   0  0  0  0  0  0  0  0  0  0  0  0
   -5.2126   -2.0222    2.6681 H   0  0  0  0  0  0  0  0  0  0  0  0
  1  2  1  0
  2  3  2  0
  2  4  1  0
  4  5  1  0
  5  6  1  0
  6  7  1  0
  7  8  1  0
  8  9  1  0
  9 10  1  0
 10 11  1  0
 11 12  2  0
 11 13  1  0
 13 14  1  0
 14 15  1  0
 15 16  2  0
 16 17  1  0
 17 18  2  0
 18 19  1  0
  8 20  2  0
 20 21  1  0
 21 22  2  0
 22 23  1  0
 23 24  2  0
 24 25  1  0
 25 26  2  0
 26 27  1  0
 27 28  2  0
 27  7  1  0
 19 15  1  0
 26 21  1  0
  1 29  1  0
  1 30  1  0
  1 31  1  0
  4 32  1  0
  5 33  1  0
  5 34  1  0
  6 35  1  0
  6 36  1  0
 10 37  1  0
 10 38  1  0
 13 39  1  0
 14 40  1  0
 14 41  1  0
 16 42  1  0
 17 43  1  0
 18 44  1  0
 22 45  1  0
 23 46  1  0
 24 47  1  0
 25 48  1  0
M  END
$$$$
