
     RDKit          3D

 48 51  0  0  0  0  0  0  0  0999 V2000
   -4.4875   -2.2875   -1.5790 C   0  0  0  0  0  0  0  0  0  0  0  0
   -4.4390   -1.5214   -0.3609 N   0  0  0  0  0  0  0  0  0  0  0  0
   -4.8797   -0.2143   -0.3316 C   0  0  0  0  0  0  0  0  0  0  0  0
   -5.4474    0.3375   -1.2689 O   0  0  0  0  0  0  0  0  0  0  0  0
   -4.6827    0.4574    1.0322 C   0  0  1  0  0  0  0  0  0  0  0  0
   -3.4695    0.0207    1.6759 O   0  0  0  0  0  0  0  0  0  0  0  0
   -2.6179    1.1742    1.8254 C   0  0  1  0  0  0  0  0  0  0  0  0
   -1.2445    0.7758    1.6043 N   0  0  0  0  0  0  0  0  0  0  0  0
   -0.2399    0.8642    2.5332 C   0  0  0  0  0  0  0  0  0  0  0  0
    0.9087    0.4270    2.0627 N   0  0  0  0  0  0  0  0  0  0  0  0
    0.6343    0.0414    0.7682 C   0  0  0  0  0  0  0  0  0  0  0  0
    1.4542   -0.4904   -0.2483 C   0  0  0  0  0  0  0  0  0  0  0  0
    2.8056   -0.7624   -0.0227 N   0  0  0  0  0  0  0  0  0  0  0  0
    3.6643   -0.6122   -1.1816 C   0  0  0  0  0  0  0  0  0  0  0  0
    5.1032   -0.7941   -0.7561 C   0  0  0  0  0  0  0  0  0  0  0  0
    5.5824   -2.0679   -0.4122 C   0  0  0  0  0  0  0  0  0  0  0  0
    6.9065   -2.2440   -0.0076 C   0  0  0  0  0  0  0  0  0  0  0  0
    7.7669   -1.1488    0.0616 C   0  0  0  0  0  0  0  0  0  0  0  0
    7.2964    0.1211   -0.2712 C   0  0  0  0  0  0  0  0  0  0  0  0
    8.5763    1.7566   -0.1617 I   0  0  0  0  0  0  0  0  0  0  0  0
    5.9724    0.3043   -0.6758 C   0  0  0  0  0  0  0  0  0  0  0  0
    0.8867   -0.7362   -1.4550 N   0  0  0  0  0  0  0  0  0  0  0  0
   -0.4267   -0.4779   -1.6037 C   0  0  0  0  0  0  0  0  0  0  0  0
   -1.0559   -0.7901   -3.1643 Cl  0  0  0  0  0  0  0  0  0  0  0  0
   -1.3109    0.0077   -0.7090 N   0  0  0  0  0  0  0  0  0  0  0  0
   -0.7015    0.2535    0.4621 C   0  0  0  0  0  0  0  0  0  0  0  0
   -3.1379    2.2560    0.8801 C   0  0  2  0  0  0  0  0  0  0  0  0
   -2.8384    3.5750    1.3362 O   0  0  0  0  0  0  0  0  0  0  0  0
   -4.6316    1.9798    0.9138 C   0  0  2  0  0  0  0  0  0  0  0  0
   -5.1653    2.6066    2.0998 O   0  0  0  0  0  0  0  0  0  0  0  0
   -5.4853   -2.2177   -2.0221 H   0  0  0  0  0  0  0  0  0  0  0  0
   -4.2513   -3.3289   -1.3467 H   0  0  0  0  0  0  0  0  0  0  0  0
   -3.7541   -1.8859   -2.2819 H   0  0  0  0  0  0  0  0  0  0  0  0
   -3.7311   -1.7584    0.3295 H   0  0  0  0  0  0  0  0  0  0  0  0
   -5.5192    0.1408    1.6665 H   0  0  0  0  0  0  0  0  0  0  0  0
   -2.6951    1.5054    2.8692 H   0  0  0  0  0  0  0  0  0  0  0  0
   -0.3990    1.2513    3.5328 H   0  0  0  0  0  0  0  0  0  0  0  0
    3.1279   -0.2833    0.8170 H   0  0  0  0  0  0  0  0  0  0  0  0
    3.4294   -1.3598   -1.9499 H   0  0  0  0  0  0  0  0  0  0  0  0
    3.5357    0.3784   -1.6367 H   0  0  0  0  0  0  0  0  0  0  0  0
    4.9144   -2.9270   -0.4514 H   0  0  0  0  0  0  0  0  0  0  0  0
    7.2651   -3.2357    0.2575 H   0  0  0  0  0  0  0  0  0  0  0  0
    8.7951   -1.3003    0.3795 H   0  0  0  0  0  0  0  0  0  0  0  0
    5.6103    1.2982   -0.9283 H   0  0  0  0  0  0  0  0  0  0  0  0
   -2.7545    2.1419   -0.1383 H   0  0  0  0  0  0  0  0  0  0  0  0
   -3.5770    3.8245    1.9315 H   0  0  0  0  0  0  0  0  0  0  0  0
   -5.1555    2.4136    0.0578 H   0  0  0  0  0  0  0  0  0  0  0  0
   -6.1377    2.5314    2.0469 H   0  0  0  0  0  0  0  0  0  0  0  0
  1  2  1  0
  2  3  1  0
  3  4  2  0
  3  5  1  0
  5  6  1  0
  6  7  1  0
  7  8  1  0
  8  9  1  0
  9 10  2  0
 10 11  1  0
 11 12  2  0
 12 13  1  0
 13 14  1  0
 14 15  1  0
 15 16  2  0
 16 17  1  0
 17 18  2  0
 18 19  1  0
 19 20  1  0
 19 21  2  0
 12 22  1  0
 22 23  2  0
 23 24  1  0
 23 25  1  0
 25 26  2  0
  7 27  1  0
 27 28  1  0
 27 29  1  0
 29 30  1  0
 29  5  1  0
 26  8  1  0
 26 11  1  0
 21 15  1  0
  1 31  1  0
  1 32  1  0
  1 33  1  0
  2 34  1  0
  5 35  1  1
  7 36  1  1
  9 37  1  0
 13 38  1  0
 14 39  1  0
 14 40  1  0
 16 41  1  0
 17 42  1  0
 18 43  1  0
 21 44  1  0
 27 45  1  6
 28 46  1  0
 29 47  1  6
 30 48  1  0
M  END
$$$$
