
     RDKit          3D

 60 63  0  0  0  0  0  0  0  0999 V2000
    5.8140    3.0245    0.5122 O   0  0  0  0  0  0  0  0  0  0  0  0
    6.8133    2.3383    0.7181 C   0  0  0  0  0  0  0  0  0  0  0  0
    6.7032    0.9733    0.9255 N   0  0  0  0  0  0  0  0  0  0  0  0
    5.4213    0.2952    0.8918 C   0  0  0  0  0  0  0  0  0  0  0  0
    4.9493    0.0446   -0.5396 C   0  0  0  0  0  0  0  0  0  0  0  0
    3.5859   -0.6434   -0.5712 C   0  0  0  0  0  0  0  0  0  0  0  0
    3.7195   -2.0272   -0.1198 N   0  0  0  0  0  0  0  0  0  0  0  0
    2.5078   -2.7437   -0.0088 C   0  0  0  0  0  0  0  0  0  0  0  0
    1.3433   -2.0710   -0.1097 N   0  0  0  0  0  0  0  0  0  0  0  0
    0.1863   -2.7405    0.0359 C   0  0  0  0  0  0  0  0  0  0  0  0
   -0.9567   -1.9550   -0.0761 N   0  0  0  0  0  0  0  0  0  0  0  0
   -2.3296   -2.2256   -0.0760 C   0  0  0  0  0  0  0  0  0  0  0  0
   -2.8699   -3.5102   -0.0029 C   0  0  0  0  0  0  0  0  0  0  0  0
   -4.2526   -3.7088    0.0041 C   0  0  0  0  0  0  0  0  0  0  0  0
   -5.1244   -2.6211   -0.0539 C   0  0  0  0  0  0  0  0  0  0  0  0
   -4.6207   -1.3249   -0.1140 C   0  0  0  0  0  0  0  0  0  0  0  0
   -5.4221   -0.1641   -0.1666 N   0  0  0  0  0  0  0  0  0  0  0  0
   -6.7963   -0.0805   -0.1780 C   0  0  0  0  0  0  0  0  0  0  0  0
   -7.5661   -1.0377   -0.1414 O   0  0  0  0  0  0  0  0  0  0  0  0
   -7.2843    1.2124   -0.2359 N   0  0  0  0  0  0  0  0  0  0  0  0
   -6.5475    2.4636   -0.3441 C   0  0  0  0  0  0  0  0  0  0  0  0
   -7.6102    3.5147   -0.6346 C   0  0  0  0  0  0  0  0  0  0  0  0
   -8.8512    2.9450    0.0398 C   0  0  0  0  0  0  0  0  0  0  0  0
   -8.7183    1.4513   -0.2143 C   0  0  0  0  0  0  0  0  0  0  0  0
   -3.2277   -1.1422   -0.1219 C   0  0  0  0  0  0  0  0  0  0  0  0
    0.1277   -4.0539    0.2830 N   0  0  0  0  0  0  0  0  0  0  0  0
    1.2983   -4.7082    0.3996 C   0  0  0  0  0  0  0  0  0  0  0  0
    2.5261   -4.1034    0.2679 C   0  0  0  0  0  0  0  0  0  0  0  0
    4.2585   -5.2287    0.4659 I   0  0  0  0  0  0  0  0  0  0  0  0
    8.1762    2.8597    0.7464 C   0  0  0  0  0  0  0  0  0  0  0  0
    9.3549    2.2737    1.1791 C   0  0  0  0  0  0  0  0  0  0  0  0
   10.4846    3.1340    1.0341 C   0  0  0  0  0  0  0  0  0  0  0  0
   10.1376    4.3537    0.5018 C   0  0  0  0  0  0  0  0  0  0  0  0
    8.4632    4.4592    0.1831 S   0  0  0  0  0  0  0  0  0  0  0  0
    7.5370    0.4078    0.9654 H   0  0  0  0  0  0  0  0  0  0  0  0
    5.5483   -0.6478    1.4338 H   0  0  0  0  0  0  0  0  0  0  0  0
    4.6903    0.9042    1.4352 H   0  0  0  0  0  0  0  0  0  0  0  0
    4.8708    0.9997   -1.0727 H   0  0  0  0  0  0  0  0  0  0  0  0
    5.6950   -0.5535   -1.0780 H   0  0  0  0  0  0  0  0  0  0  0  0
    3.2058   -0.6283   -1.6000 H   0  0  0  0  0  0  0  0  0  0  0  0
    2.8874   -0.0820    0.0614 H   0  0  0  0  0  0  0  0  0  0  0  0
    4.3583   -2.5628   -0.7045 H   0  0  0  0  0  0  0  0  0  0  0  0
   -0.6766   -0.9991   -0.2376 H   0  0  0  0  0  0  0  0  0  0  0  0
   -2.2309   -4.3864    0.0430 H   0  0  0  0  0  0  0  0  0  0  0  0
   -4.6532   -4.7181    0.0566 H   0  0  0  0  0  0  0  0  0  0  0  0
   -6.1903   -2.8233   -0.0446 H   0  0  0  0  0  0  0  0  0  0  0  0
   -4.9272    0.7106   -0.1797 H   0  0  0  0  0  0  0  0  0  0  0  0
   -5.7940    2.4089   -1.1355 H   0  0  0  0  0  0  0  0  0  0  0  0
   -6.0525    2.6466    0.6162 H   0  0  0  0  0  0  0  0  0  0  0  0
   -7.3358    4.5051   -0.2600 H   0  0  0  0  0  0  0  0  0  0  0  0
   -7.7779    3.5905   -1.7165 H   0  0  0  0  0  0  0  0  0  0  0  0
   -8.8132    3.1486    1.1173 H   0  0  0  0  0  0  0  0  0  0  0  0
   -9.7826    3.3591   -0.3563 H   0  0  0  0  0  0  0  0  0  0  0  0
   -9.1197    1.1756   -1.1963 H   0  0  0  0  0  0  0  0  0  0  0  0
   -9.2106    0.8492    0.5550 H   0  0  0  0  0  0  0  0  0  0  0  0
   -2.8249   -0.1335   -0.1641 H   0  0  0  0  0  0  0  0  0  0  0  0
    1.1994   -5.7691    0.6109 H   0  0  0  0  0  0  0  0  0  0  0  0
    9.4203    1.2778    1.5990 H   0  0  0  0  0  0  0  0  0  0  0  0
   11.4984    2.8731    1.3137 H   0  0  0  0  0  0  0  0  0  0  0  0
   10.7846    5.1937    0.2888 H   0  0  0  0  0  0  0  0  0  0  0  0
  1  2  2  0
  2  3  1  0
  3  4  1  0
  4  5  1  0
  5  6  1  0
  6  7  1  0
  7  8  1  0
  8  9  2  0
  9 10  1  0
 10 11  1  0
 11 12  1  0
 12 13  2  0
 13 14  1  0
 14 15  2  0
 15 16  1  0
 16 17  1  0
 17 18  1  0
 18 19  2  0
 18 20  1  0
 20 21  1  0
 21 22  1  0
 22 23  1  0
 23 24  1  0
 16 25  2  0
 10 26  2  0
 26 27  1  0
 27 28  2  0
 28 29  1  0
  2 30  1  0
 30 31  2  0
 31 32  1  0
 32 33  2  0
 33 34  1  0
 28  8  1  0
 34 30  1  0
 25 12  1  0
 24 20  1  0
  3 35  1  0
  4 36  1  0
  4 37  1  0
  5 38  1  0
  5 39  1  0
  6 40  1  0
  6 41  1  0
  7 42  1  0
 11 43  1  0
 13 44  1  0
 14 45  1  0
 15 46  1  0
 17 47  1  0
 21 48  1  0
 21 49  1  0
 22 50  1  0
 22 51  1  0
 23 52  1  0
 23 53  1  0
 24 54  1  0
 24 55  1  0
 25 56  1  0
 27 57  1  0
 31 58  1  0
 32 59  1  0
 33 60  1  0
M  END
$$$$
