
     RDKit          3D

 55 59  0  0  0  0  0  0  0  0999 V2000
    0.3231   -3.6564   -1.4140 O   0  0  0  0  0  0  0  0  0  0  0  0
    0.4677   -2.4376   -1.4755 C   0  0  0  0  0  0  0  0  0  0  0  0
   -0.6773   -1.6434   -1.9512 C   0  0  0  0  0  0  0  0  0  0  0  0
   -1.8961   -1.7363   -1.2688 C   0  0  0  0  0  0  0  0  0  0  0  0
   -3.0147   -1.0114   -1.7126 C   0  0  0  0  0  0  0  0  0  0  0  0
   -4.3312   -1.1091   -0.9733 C   0  0  0  0  0  0  0  0  0  0  0  0
   -4.2189   -0.7020    0.4914 C   0  0  0  0  0  0  0  0  0  0  0  0
   -4.0939   -1.6613    1.3617 N   0  0  0  0  0  0  0  0  0  0  0  0
   -3.9683   -1.3350    2.6748 N   0  0  0  0  0  0  0  0  0  0  0  0
   -3.9450   -0.0650    3.1949 C   0  0  0  0  0  0  0  0  0  0  0  0
   -3.8097    0.1542    4.3933 O   0  0  0  0  0  0  0  0  0  0  0  0
   -4.0921    1.0333    2.2264 C   0  0  0  0  0  0  0  0  0  0  0  0
   -4.0912    2.3621    2.6693 C   0  0  0  0  0  0  0  0  0  0  0  0
   -4.2344    3.3989    1.7494 C   0  0  0  0  0  0  0  0  0  0  0  0
   -4.3787    3.1077    0.3940 C   0  0  0  0  0  0  0  0  0  0  0  0
   -4.3792    1.7801   -0.0469 C   0  0  0  0  0  0  0  0  0  0  0  0
   -4.2337    0.7343    0.8724 C   0  0  0  0  0  0  0  0  0  0  0  0
   -2.8989   -0.2288   -2.8722 C   0  0  0  0  0  0  0  0  0  0  0  0
   -1.6850   -0.1542   -3.5607 C   0  0  0  0  0  0  0  0  0  0  0  0
   -0.5806   -0.8637   -3.0989 C   0  0  0  0  0  0  0  0  0  0  0  0
    0.5683   -0.7819   -3.7847 F   0  0  0  0  0  0  0  0  0  0  0  0
    1.6360   -1.7881   -1.0939 N   0  0  0  0  0  0  0  0  0  0  0  0
    1.7853   -0.3355   -0.9440 C   0  0  0  0  0  0  0  0  0  0  0  0
    2.7968    0.0464    0.1473 C   0  0  0  0  0  0  0  0  0  0  0  0
    4.0968   -0.6076   -0.0245 N   0  0  0  0  0  0  0  0  0  0  0  0
    5.2808   -0.1536    0.5353 C   0  0  0  0  0  0  0  0  0  0  0  0
    6.3632   -0.7050    0.3716 O   0  0  0  0  0  0  0  0  0  0  0  0
    5.1992    1.0677    1.3859 C   0  0  0  0  0  0  0  0  0  0  0  0
    6.4227    1.9339    1.5946 C   0  0  0  0  0  0  0  0  0  0  0  0
    5.2910    2.4387    0.7532 C   0  0  0  0  0  0  0  0  0  0  0  0
    4.1160   -1.8510   -0.8002 C   0  0  0  0  0  0  0  0  0  0  0  0
    2.7886   -2.6124   -0.7187 C   0  0  0  0  0  0  0  0  0  0  0  0
   -1.9680   -2.3835   -0.3945 H   0  0  0  0  0  0  0  0  0  0  0  0
   -5.1088   -0.5119   -1.4617 H   0  0  0  0  0  0  0  0  0  0  0  0
   -4.6808   -2.1484   -1.0277 H   0  0  0  0  0  0  0  0  0  0  0  0
   -3.8679   -2.1073    3.3270 H   0  0  0  0  0  0  0  0  0  0  0  0
   -3.9814    2.5875    3.7286 H   0  0  0  0  0  0  0  0  0  0  0  0
   -4.2362    4.4319    2.0906 H   0  0  0  0  0  0  0  0  0  0  0  0
   -4.4932    3.9186   -0.3228 H   0  0  0  0  0  0  0  0  0  0  0  0
   -4.4967    1.5994   -1.1095 H   0  0  0  0  0  0  0  0  0  0  0  0
   -3.7562    0.3186   -3.2595 H   0  0  0  0  0  0  0  0  0  0  0  0
   -1.5970    0.4429   -4.4636 H   0  0  0  0  0  0  0  0  0  0  0  0
    2.1320    0.0455   -1.9114 H   0  0  0  0  0  0  0  0  0  0  0  0
    0.8181    0.1251   -0.7229 H   0  0  0  0  0  0  0  0  0  0  0  0
    2.4188   -0.2634    1.1290 H   0  0  0  0  0  0  0  0  0  0  0  0
    2.9216    1.1325    0.1659 H   0  0  0  0  0  0  0  0  0  0  0  0
    4.5588    0.9549    2.2549 H   0  0  0  0  0  0  0  0  0  0  0  0
    6.5699    2.3699    2.5754 H   0  0  0  0  0  0  0  0  0  0  0  0
    7.3437    1.6508    1.0957 H   0  0  0  0  0  0  0  0  0  0  0  0
    4.6699    3.2282    1.1592 H   0  0  0  0  0  0  0  0  0  0  0  0
    5.4519    2.5021   -0.3175 H   0  0  0  0  0  0  0  0  0  0  0  0
    4.9364   -2.4947   -0.4660 H   0  0  0  0  0  0  0  0  0  0  0  0
    4.3201   -1.5663   -1.8394 H   0  0  0  0  0  0  0  0  0  0  0  0
    2.6130   -2.9475    0.3109 H   0  0  0  0  0  0  0  0  0  0  0  0
    2.8259   -3.5032   -1.3555 H   0  0  0  0  0  0  0  0  0  0  0  0
  1  2  2  0
  2  3  1  0
  3  4  2  0
  4  5  1  0
  5  6  1  0
  6  7  1  0
  7  8  2  0
  8  9  1  0
  9 10  1  0
 10 11  2  0
 10 12  1  0
 12 13  2  0
 13 14  1  0
 14 15  2  0
 15 16  1  0
 16 17  2  0
  5 18  2  0
 18 19  1  0
 19 20  2  0
 20 21  1  0
  2 22  1  0
 22 23  1  0
 23 24  1  0
 24 25  1  0
 25 26  1  0
 26 27  2  0
 26 28  1  0
 28 29  1  0
 29 30  1  0
 25 31  1  0
 31 32  1  0
 20  3  1  0
 32 22  1  0
 17  7  1  0
 30 28  1  0
 17 12  1  0
  4 33  1  0
  6 34  1  0
  6 35  1  0
  9 36  1  0
 13 37  1  0
 14 38  1  0
 15 39  1  0
 16 40  1  0
 18 41  1  0
 19 42  1  0
 23 43  1  0
 23 44  1  0
 24 45  1  0
 24 46  1  0
 28 47  1  0
 29 48  1  0
 29 49  1  0
 30 50  1  0
 30 51  1  0
 31 52  1  0
 31 53  1  0
 32 54  1  0
 32 55  1  0
M  END
$$$$
