
     RDKit          3D

 47 46  0  0  0  0  0  0  0  0999 V2000
   -6.0074    1.5090   -0.9929 C   0  0  0  0  0  0  0  0  0  0  0  0
   -4.5832    1.2495   -0.7636 C   0  0  0  0  0  0  0  0  0  0  0  0
   -3.7297    1.8932   -1.4266 O   0  0  0  0  0  0  0  0  0  0  0  0
   -4.1233    0.3063    0.1712 O   0  0  0  0  0  0  0  0  0  0  0  0
   -2.7357    0.1546    0.2944 C   0  0  0  0  0  0  0  0  0  0  0  0
   -2.0320   -0.7687   -0.4676 C   0  0  0  0  0  0  0  0  0  0  0  0
   -0.6671   -0.9185   -0.3475 C   0  0  0  0  0  0  0  0  0  0  0  0
    0.1237   -1.8969   -1.1465 C   0  0  0  0  0  0  0  0  0  0  0  0
   -0.8163   -2.7251   -1.9940 C   0  0  0  0  0  0  0  0  0  0  0  0
    0.9163   -2.8406   -0.2655 C   0  0  0  0  0  0  0  0  0  0  0  0
   -0.0231   -0.1012    0.5736 C   0  0  0  0  0  0  0  0  0  0  0  0
    1.3555   -0.2519    0.6939 O   0  0  0  0  0  0  0  0  0  0  0  0
    2.0328    0.5799    1.6390 C   0  0  0  0  0  0  0  0  0  0  0  0
    3.5129    0.2758    1.6113 C   0  0  0  0  0  0  0  0  0  0  0  0
    4.1343    0.4896    0.3713 N   0  0  0  0  0  0  0  0  0  0  0  0
    4.2751    1.7951   -0.1284 C   0  0  0  0  0  0  0  0  0  0  0  0
    4.8029   -0.5681   -0.2674 C   0  0  0  0  0  0  0  0  0  0  0  0
   -0.7253    0.8144    1.3286 C   0  0  0  0  0  0  0  0  0  0  0  0
   -2.0928    0.9640    1.2079 C   0  0  0  0  0  0  0  0  0  0  0  0
   -2.8619    1.9454    2.0120 C   0  0  0  0  0  0  0  0  0  0  0  0
    0.6868    0.0000    0.0000 Cl  0  0  0  0  0  0  0  0  0  0  0  0
   -6.6361    0.5933   -1.0282 H   0  0  0  0  0  0  0  0  0  0  0  0
   -6.1307    2.1202   -1.9072 H   0  0  0  0  0  0  0  0  0  0  0  0
   -6.4364    2.1465   -0.1634 H   0  0  0  0  0  0  0  0  0  0  0  0
   -2.5773   -1.3887   -1.1770 H   0  0  0  0  0  0  0  0  0  0  0  0
    0.8449   -1.3442   -1.7824 H   0  0  0  0  0  0  0  0  0  0  0  0
   -0.2260   -3.5999   -2.3520 H   0  0  0  0  0  0  0  0  0  0  0  0
   -1.5761   -3.1565   -1.3026 H   0  0  0  0  0  0  0  0  0  0  0  0
   -1.2555   -2.1447   -2.8279 H   0  0  0  0  0  0  0  0  0  0  0  0
    0.4336   -2.8250    0.7294 H   0  0  0  0  0  0  0  0  0  0  0  0
    1.9797   -2.5361   -0.1795 H   0  0  0  0  0  0  0  0  0  0  0  0
    0.9206   -3.8612   -0.6998 H   0  0  0  0  0  0  0  0  0  0  0  0
    1.6243    0.2899    2.6296 H   0  0  0  0  0  0  0  0  0  0  0  0
    1.8100    1.6405    1.4838 H   0  0  0  0  0  0  0  0  0  0  0  0
    3.7130   -0.7564    1.9603 H   0  0  0  0  0  0  0  0  0  0  0  0
    3.9979    0.9397    2.3838 H   0  0  0  0  0  0  0  0  0  0  0  0
    3.4797    2.5056    0.1558 H   0  0  0  0  0  0  0  0  0  0  0  0
    5.2249    2.2491    0.2248 H   0  0  0  0  0  0  0  0  0  0  0  0
    4.3713    1.7663   -1.2530 H   0  0  0  0  0  0  0  0  0  0  0  0
    4.1238   -1.3148   -0.7695 H   0  0  0  0  0  0  0  0  0  0  0  0
    5.5387   -1.1142    0.3789 H   0  0  0  0  0  0  0  0  0  0  0  0
    5.4254   -0.1390   -1.1029 H   0  0  0  0  0  0  0  0  0  0  0  0
   -0.1912    1.4391    2.0416 H   0  0  0  0  0  0  0  0  0  0  0  0
   -3.5126    1.3787    2.7062 H   0  0  0  0  0  0  0  0  0  0  0  0
   -3.4875    2.5294    1.3052 H   0  0  0  0  0  0  0  0  0  0  0  0
   -2.2144    2.6765    2.5207 H   0  0  0  0  0  0  0  0  0  0  0  0
   -0.6868    0.0000    0.0000 H   0  0  0  0  0  0  0  0  0  0  0  0
  1  2  1  0
  2  3  2  0
  2  4  1  0
  4  5  1  0
  5  6  2  0
  6  7  1  0
  7  8  1  0
  8  9  1  0
  8 10  1  0
  7 11  2  0
 11 12  1  0
 12 13  1  0
 13 14  1  0
 14 15  1  0
 15 16  1  0
 15 17  1  0
 11 18  1  0
 18 19  2  0
 19 20  1  0
 19  5  1  0
  1 22  1  0
  1 23  1  0
  1 24  1  0
  6 25  1  0
  8 26  1  0
  9 27  1  0
  9 28  1  0
  9 29  1  0
 10 30  1  0
 10 31  1  0
 10 32  1  0
 13 33  1  0
 13 34  1  0
 14 35  1  0
 14 36  1  0
 16 37  1  0
 16 38  1  0
 16 39  1  0
 17 40  1  0
 17 41  1  0
 17 42  1  0
 18 43  1  0
 20 44  1  0
 20 45  1  0
 20 46  1  0
 21 47  1  0
M  END
$$$$
