
     RDKit          3D

 39 41  0  0  0  0  0  0  0  0999 V2000
    1.4817   -0.5345   -1.3644 C   0  0  0  0  0  0  0  0  0  0  0  0
    1.6551    0.8116   -0.7128 C   0  0  0  0  0  0  0  0  0  0  0  0
    2.5069    0.9754    0.3955 C   0  0  0  0  0  0  0  0  0  0  0  0
    3.1552   -0.1494    0.8361 O   0  0  0  0  0  0  0  0  0  0  0  0
    3.7420   -0.1065    2.1419 C   0  0  0  0  0  0  0  0  0  0  0  0
    4.1988   -1.4945    2.5643 C   0  0  0  0  0  0  0  0  0  0  0  0
    3.1704   -2.3684    2.6223 F   0  0  0  0  0  0  0  0  0  0  0  0
    4.7567   -1.4469    3.7985 F   0  0  0  0  0  0  0  0  0  0  0  0
    5.1297   -1.9955    1.7231 F   0  0  0  0  0  0  0  0  0  0  0  0
    2.6710    2.2362    0.9613 C   0  0  0  0  0  0  0  0  0  0  0  0
    1.9723    3.2934    0.4145 C   0  0  0  0  0  0  0  0  0  0  0  0
    1.1337    3.1753   -0.6308 N   0  0  0  0  0  0  0  0  0  0  0  0
    0.9565    1.9402   -1.1743 C   0  0  0  0  0  0  0  0  0  0  0  0
   -0.0005    1.8870   -2.3405 C   0  0  0  0  0  0  0  0  0  0  0  0
   -1.6383    2.5720   -1.9316 S   0  0  0  0  0  4  0  0  0  0  0  0
   -2.4273    2.7159   -3.2051 O   0  0  0  0  0  0  0  0  0  0  0  0
   -2.3209    1.1044   -1.1369 C   0  0  0  0  0  0  0  0  0  0  0  0
   -1.7311    0.3875   -0.2065 N   0  0  0  0  0  0  0  0  0  0  0  0
   -2.6164   -0.6229    0.0812 C   0  0  0  0  0  0  0  0  0  0  0  0
   -2.5019   -1.6803    0.9946 C   0  0  0  0  0  0  0  0  0  0  0  0
   -3.5574   -2.5957    1.0968 C   0  0  0  0  0  0  0  0  0  0  0  0
   -4.7019   -2.4607    0.3062 C   0  0  0  0  0  0  0  0  0  0  0  0
   -4.8343   -1.4119   -0.6115 C   0  0  0  0  0  0  0  0  0  0  0  0
   -3.7681   -0.5146   -0.6924 C   0  0  0  0  0  0  0  0  0  0  0  0
   -3.5525    0.6005   -1.4577 N   0  0  0  0  0  0  0  0  0  0  0  0
    0.4639   -0.9046   -1.2124 H   0  0  0  0  0  0  0  0  0  0  0  0
    2.1649   -1.2921   -0.9695 H   0  0  0  0  0  0  0  0  0  0  0  0
    1.6883   -0.4637   -2.4375 H   0  0  0  0  0  0  0  0  0  0  0  0
    4.6130    0.5582    2.1294 H   0  0  0  0  0  0  0  0  0  0  0  0
    3.0104    0.2561    2.8737 H   0  0  0  0  0  0  0  0  0  0  0  0
    3.3296    2.4294    1.7973 H   0  0  0  0  0  0  0  0  0  0  0  0
    2.0727    4.2982    0.8152 H   0  0  0  0  0  0  0  0  0  0  0  0
    0.4115    2.5050   -3.1464 H   0  0  0  0  0  0  0  0  0  0  0  0
   -0.1447    0.8841   -2.7492 H   0  0  0  0  0  0  0  0  0  0  0  0
   -1.6110   -1.7805    1.6045 H   0  0  0  0  0  0  0  0  0  0  0  0
   -3.4819   -3.4214    1.8005 H   0  0  0  0  0  0  0  0  0  0  0  0
   -5.5074   -3.1861    0.4058 H   0  0  0  0  0  0  0  0  0  0  0  0
   -5.7230   -1.3082   -1.2246 H   0  0  0  0  0  0  0  0  0  0  0  0
   -4.1659    0.9927   -2.1585 H   0  0  0  0  0  0  0  0  0  0  0  0
  1  2  1  0
  2  3  2  0
  3  4  1  0
  4  5  1  0
  5  6  1  0
  6  7  1  0
  6  8  1  0
  6  9  1  0
  3 10  1  0
 10 11  2  0
 11 12  1  0
 12 13  2  0
 13 14  1  0
 14 15  1  0
 15 16  2  0
 15 17  1  0
 17 18  2  0
 18 19  1  0
 19 20  2  0
 20 21  1  0
 21 22  2  0
 22 23  1  0
 23 24  2  0
 24 25  1  0
 13  2  1  0
 25 17  1  0
 24 19  1  0
  1 26  1  0
  1 27  1  0
  1 28  1  0
  5 29  1  0
  5 30  1  0
 10 31  1  0
 11 32  1  0
 14 33  1  0
 14 34  1  0
 20 35  1  0
 21 36  1  0
 22 37  1  0
 23 38  1  0
 25 39  1  0
M  END
$$$$
