
     RDKit          3D

 52 54  0  0  0  0  0  0  0  0999 V2000
   10.0514    2.9311   -0.8023 C   0  0  0  0  0  0  0  0  0  0  0  0
    9.3579    1.9382   -1.5411 O   0  0  0  0  0  0  0  0  0  0  0  0
    8.1333    1.5647   -1.0661 C   0  0  0  0  0  0  0  0  0  0  0  0
    7.4619    2.1276    0.0183 C   0  0  0  0  0  0  0  0  0  0  0  0
    6.2098    1.6373    0.4108 C   0  0  0  0  0  0  0  0  0  0  0  0
    5.6173    0.5799   -0.2751 C   0  0  0  0  0  0  0  0  0  0  0  0
    4.3860    0.0033    0.0737 N   0  0  0  0  0  0  0  0  0  0  0  0
    3.5283    0.3413    1.1120 C   0  0  0  0  0  0  0  0  0  0  0  0
    3.6848    1.2972    1.8670 O   0  0  0  0  0  0  0  0  0  0  0  0
    2.4047   -0.5844    1.2060 C   0  0  0  0  0  0  0  0  0  0  0  0
    2.1804   -1.5308    0.3017 N   0  0  0  0  0  0  0  0  0  0  0  0
    1.0923   -2.3089    0.6316 N   0  0  0  0  0  0  0  0  0  0  0  0
    0.5386   -1.9342    1.7774 C   0  0  0  0  0  0  0  0  0  0  0  0
   -0.6052   -2.6333    2.4383 C   0  0  0  0  0  0  0  0  0  0  0  0
   -1.8273   -2.2096    1.8379 O   0  0  0  0  0  0  0  0  0  0  0  0
   -2.4601   -1.1536    2.5494 C   0  0  0  0  0  0  0  0  0  0  0  0
   -3.9245   -1.0464    2.1268 C   0  0  0  0  0  0  0  0  0  0  0  0
   -4.8499   -1.2342    2.9128 O   0  0  0  0  0  0  0  0  0  0  0  0
   -4.1012   -0.7032    0.8059 N   0  0  0  0  0  0  0  0  0  0  0  0
   -5.4213   -0.4067    0.2495 C   0  0  0  0  0  0  0  0  0  0  0  0
   -5.8238    1.0140    0.6207 C   0  0  0  0  0  0  0  0  0  0  0  0
   -5.4190   -0.6295   -1.2679 C   0  0  0  0  0  0  0  0  0  0  0  0
   -6.7673   -0.5228   -1.8769 C   0  0  0  0  0  0  0  0  0  0  0  0
   -7.7949   -1.4195   -2.0813 C   0  0  0  0  0  0  0  0  0  0  0  0
   -8.8283   -0.7085   -2.7266 C   0  0  0  0  0  0  0  0  0  0  0  0
   -8.3663    0.5733   -2.8731 C   0  0  0  0  0  0  0  0  0  0  0  0
   -7.1127    0.6933   -2.3656 O   0  0  0  0  0  0  0  0  0  0  0  0
    1.2940   -0.5629    2.5105 S   0  0  0  0  0  0  0  0  0  0  0  0
    6.2888    0.0266   -1.3707 C   0  0  0  0  0  0  0  0  0  0  0  0
    7.5342    0.5192   -1.7642 C   0  0  0  0  0  0  0  0  0  0  0  0
   10.2042    2.6226    0.2360 H   0  0  0  0  0  0  0  0  0  0  0  0
   11.0363    3.0585   -1.2590 H   0  0  0  0  0  0  0  0  0  0  0  0
    9.5343    3.8941   -0.8540 H   0  0  0  0  0  0  0  0  0  0  0  0
    7.8794    2.9503    0.5858 H   0  0  0  0  0  0  0  0  0  0  0  0
    5.7310    2.1049    1.2657 H   0  0  0  0  0  0  0  0  0  0  0  0
    4.0831   -0.7914   -0.4842 H   0  0  0  0  0  0  0  0  0  0  0  0
   -0.5153   -3.7003    2.2452 H   0  0  0  0  0  0  0  0  0  0  0  0
   -0.6135   -2.5074    3.5185 H   0  0  0  0  0  0  0  0  0  0  0  0
   -1.9583   -0.2013    2.3345 H   0  0  0  0  0  0  0  0  0  0  0  0
   -2.4374   -1.3341    3.6310 H   0  0  0  0  0  0  0  0  0  0  0  0
   -3.2787   -0.4718    0.2657 H   0  0  0  0  0  0  0  0  0  0  0  0
   -6.1301   -1.0938    0.7111 H   0  0  0  0  0  0  0  0  0  0  0  0
   -6.8601    1.2152    0.3417 H   0  0  0  0  0  0  0  0  0  0  0  0
   -5.7250    1.1905    1.7029 H   0  0  0  0  0  0  0  0  0  0  0  0
   -5.1872    1.7437    0.1098 H   0  0  0  0  0  0  0  0  0  0  0  0
   -5.0177   -1.6226   -1.4845 H   0  0  0  0  0  0  0  0  0  0  0  0
   -4.7388    0.0746   -1.7478 H   0  0  0  0  0  0  0  0  0  0  0  0
   -7.7956   -2.4582   -1.8019 H   0  0  0  0  0  0  0  0  0  0  0  0
   -9.7952   -1.0830   -3.0414 H   0  0  0  0  0  0  0  0  0  0  0  0
   -8.7810    1.4656   -3.3024 H   0  0  0  0  0  0  0  0  0  0  0  0
    5.8587   -0.7935   -1.9369 H   0  0  0  0  0  0  0  0  0  0  0  0
    8.0450    0.0793   -2.6187 H   0  0  0  0  0  0  0  0  0  0  0  0
  1  2  1  0
  2  3  1  0
  3  4  2  0
  4  5  1  0
  5  6  2  0
  6  7  1  0
  7  8  1  0
  8  9  2  0
  8 10  1  0
 10 11  2  0
 11 12  1  0
 12 13  2  0
 13 14  1  0
 14 15  1  0
 15 16  1  0
 16 17  1  0
 17 18  2  0
 17 19  1  0
 19 20  1  0
 20 21  1  0
 20 22  1  0
 22 23  1  0
 23 24  2  0
 24 25  1  0
 25 26  2  0
 26 27  1  0
 13 28  1  0
  6 29  1  0
 29 30  2  0
 30  3  1  0
 28 10  1  0
 27 23  1  0
  1 31  1  0
  1 32  1  0
  1 33  1  0
  4 34  1  0
  5 35  1  0
  7 36  1  0
 14 37  1  0
 14 38  1  0
 16 39  1  0
 16 40  1  0
 19 41  1  0
 20 42  1  0
 21 43  1  0
 21 44  1  0
 21 45  1  0
 22 46  1  0
 22 47  1  0
 24 48  1  0
 25 49  1  0
 26 50  1  0
 29 51  1  0
 30 52  1  0
M  END
$$$$
