
     RDKit          3D

 41 42  0  0  0  0  0  0  0  0999 V2000
   -4.2859    2.2230   -1.1431 C   0  0  0  0  0  0  0  0  0  0  0  0
   -4.8891    1.4171    0.0022 C   0  0  0  0  0  0  0  0  0  0  0  0
   -6.2492    0.8466   -0.3928 C   0  0  0  0  0  0  0  0  0  0  0  0
   -3.9815    0.3531    0.3930 N   0  0  0  0  0  0  0  0  0  0  0  0
   -4.0115   -0.2256    1.6442 C   0  0  0  0  0  0  0  0  0  0  0  0
   -4.6900    0.1878    2.5796 O   0  0  0  0  0  0  0  0  0  0  0  0
   -3.0620   -1.4152    1.7834 C   0  0  0  0  0  0  0  0  0  0  0  0
   -2.8652   -2.0646    0.5252 O   0  0  0  0  0  0  0  0  0  0  0  0
   -1.7677   -2.9828    0.5501 C   0  0  0  0  0  0  0  0  0  0  0  0
   -0.4952   -2.2465    0.2664 C   0  0  0  0  0  0  0  0  0  0  0  0
   -0.3968   -1.0662   -0.3162 N   0  0  0  0  0  0  0  0  0  0  0  0
    0.9124   -0.6488   -0.4379 N   0  0  0  0  0  0  0  0  0  0  0  0
    1.7578   -1.5350    0.0530 C   0  0  0  0  0  0  0  0  0  0  0  0
    3.2021   -1.3406    0.0480 C   0  0  0  0  0  0  0  0  0  0  0  0
    3.9919   -2.1641    0.5022 O   0  0  0  0  0  0  0  0  0  0  0  0
    3.5645   -0.1279   -0.5253 N   0  0  0  0  0  0  0  0  0  0  0  0
    4.8545    0.4061   -0.7070 C   0  0  0  0  0  0  0  0  0  0  0  0
    6.0327   -0.2382   -0.3171 C   0  0  0  0  0  0  0  0  0  0  0  0
    7.2796    0.3619   -0.5340 C   0  0  0  0  0  0  0  0  0  0  0  0
    7.3571    1.6111   -1.1429 C   0  0  0  0  0  0  0  0  0  0  0  0
    6.1868    2.2490   -1.5292 C   0  0  0  0  0  0  0  0  0  0  0  0
    6.2544    3.4514   -2.1159 F   0  0  0  0  0  0  0  0  0  0  0  0
    4.9425    1.6616   -1.3182 C   0  0  0  0  0  0  0  0  0  0  0  0
    1.0215   -2.9376    0.6997 S   0  0  0  0  0  0  0  0  0  0  0  0
   -3.3175    2.6444   -0.8519 H   0  0  0  0  0  0  0  0  0  0  0  0
   -4.9435    3.0505   -1.4287 H   0  0  0  0  0  0  0  0  0  0  0  0
   -4.1201    1.5968   -2.0269 H   0  0  0  0  0  0  0  0  0  0  0  0
   -5.0271    2.0788    0.8656 H   0  0  0  0  0  0  0  0  0  0  0  0
   -6.1580    0.1540   -1.2369 H   0  0  0  0  0  0  0  0  0  0  0  0
   -6.7002    0.2939    0.4383 H   0  0  0  0  0  0  0  0  0  0  0  0
   -6.9399    1.6464   -0.6793 H   0  0  0  0  0  0  0  0  0  0  0  0
   -3.5238   -0.2007   -0.3275 H   0  0  0  0  0  0  0  0  0  0  0  0
   -2.1164   -1.0358    2.1857 H   0  0  0  0  0  0  0  0  0  0  0  0
   -3.5049   -2.1321    2.4824 H   0  0  0  0  0  0  0  0  0  0  0  0
   -1.9386   -3.7114   -0.2494 H   0  0  0  0  0  0  0  0  0  0  0  0
   -1.7399   -3.5235    1.5031 H   0  0  0  0  0  0  0  0  0  0  0  0
    2.7833    0.4370   -0.8512 H   0  0  0  0  0  0  0  0  0  0  0  0
    6.0221   -1.2130    0.1612 H   0  0  0  0  0  0  0  0  0  0  0  0
    8.1870   -0.1515   -0.2251 H   0  0  0  0  0  0  0  0  0  0  0  0
    8.3161    2.0880   -1.3173 H   0  0  0  0  0  0  0  0  0  0  0  0
    4.0578    2.2026   -1.6389 H   0  0  0  0  0  0  0  0  0  0  0  0
  1  2  1  0
  2  3  1  0
  2  4  1  0
  4  5  1  0
  5  6  2  0
  5  7  1  0
  7  8  1  0
  8  9  1  0
  9 10  1  0
 10 11  2  0
 11 12  1  0
 12 13  2  0
 13 14  1  0
 14 15  2  0
 14 16  1  0
 16 17  1  0
 17 18  2  0
 18 19  1  0
 19 20  2  0
 20 21  1  0
 21 22  1  0
 21 23  2  0
 13 24  1  0
 24 10  1  0
 23 17  1  0
  1 25  1  0
  1 26  1  0
  1 27  1  0
  2 28  1  0
  3 29  1  0
  3 30  1  0
  3 31  1  0
  4 32  1  0
  7 33  1  0
  7 34  1  0
  9 35  1  0
  9 36  1  0
 16 37  1  0
 18 38  1  0
 19 39  1  0
 20 40  1  0
 23 41  1  0
M  END
$$$$
