
     RDKit          3D

 46 48  0  0  0  0  0  0  0  0999 V2000
   -5.3580   -2.3566    0.5695 C   0  0  0  0  0  0  0  0  0  0  0  0
   -5.7929   -1.1103   -0.1885 C   0  0  0  0  0  0  0  0  0  0  0  0
   -4.9633   -0.8772   -1.4520 C   0  0  0  0  0  0  0  0  0  0  0  0
   -3.5676   -0.7705   -1.1676 O   0  0  0  0  0  0  0  0  0  0  0  0
   -3.1533    0.4769   -0.7257 C   0  0  0  0  0  0  0  0  0  0  0  0
   -4.0126    1.5244   -0.7834 N   0  0  0  0  0  0  0  0  0  0  0  0
   -3.5061    2.6978   -0.3543 C   0  0  0  0  0  0  0  0  0  0  0  0
   -2.2049    2.8229    0.0981 C   0  0  0  0  0  0  0  0  0  0  0  0
   -1.3421    1.7812    0.1447 N   0  0  0  0  0  0  0  0  0  0  0  0
   -1.8133    0.5860   -0.2799 C   0  0  0  0  0  0  0  0  0  0  0  0
   -1.0089   -0.5618   -0.1991 N   0  0  0  0  0  0  0  0  0  0  0  0
    0.4307   -0.4534    0.0543 C   0  0  0  0  0  0  0  0  0  0  0  0
    0.7549    0.0658    1.4655 C   0  0  0  0  0  0  0  0  0  0  0  0
    1.7367    1.2305    1.4203 C   0  0  0  0  0  0  0  0  0  0  0  0
    2.9125    0.8793    0.6248 N   0  0  0  0  0  0  0  0  0  0  0  0
    4.1371    0.7103    1.2823 C   0  0  0  0  0  0  0  0  0  0  0  0
    4.2402    0.7762    2.5051 O   0  0  0  0  0  0  0  0  0  0  0  0
    5.3203    0.4111    0.4725 C   0  0  0  0  0  0  0  0  0  0  0  0
    6.2818   -0.6091    0.7863 C   0  0  0  0  0  0  0  0  0  0  0  0
    7.3136   -0.6701   -0.1234 C   0  0  0  0  0  0  0  0  0  0  0  0
    7.1616    0.5196   -1.3398 S   0  0  0  0  0  0  0  0  0  0  0  0
    5.7226    1.1269   -0.6411 C   0  0  0  0  0  0  0  0  0  0  0  0
    2.6580    0.4070   -0.7384 C   0  0  0  0  0  0  0  0  0  0  0  0
    1.1718    0.2831   -1.0685 C   0  0  0  0  0  0  0  0  0  0  0  0
   -5.9999   -2.5097    1.4429 H   0  0  0  0  0  0  0  0  0  0  0  0
   -4.3258   -2.2682    0.9228 H   0  0  0  0  0  0  0  0  0  0  0  0
   -5.4303   -3.2460   -0.0645 H   0  0  0  0  0  0  0  0  0  0  0  0
   -6.8487   -1.2062   -0.4658 H   0  0  0  0  0  0  0  0  0  0  0  0
   -5.7097   -0.2506    0.4851 H   0  0  0  0  0  0  0  0  0  0  0  0
   -5.0759   -1.7465   -2.1111 H   0  0  0  0  0  0  0  0  0  0  0  0
   -5.3360   -0.0225   -2.0296 H   0  0  0  0  0  0  0  0  0  0  0  0
   -4.1795    3.5469   -0.3829 H   0  0  0  0  0  0  0  0  0  0  0  0
   -1.8156    3.7746    0.4421 H   0  0  0  0  0  0  0  0  0  0  0  0
   -1.2371   -1.1718   -0.9823 H   0  0  0  0  0  0  0  0  0  0  0  0
    0.7957   -1.4901    0.0296 H   0  0  0  0  0  0  0  0  0  0  0  0
    1.2115   -0.7537    2.0372 H   0  0  0  0  0  0  0  0  0  0  0  0
   -0.1412    0.3524    2.0266 H   0  0  0  0  0  0  0  0  0  0  0  0
    1.2820    2.1158    0.9620 H   0  0  0  0  0  0  0  0  0  0  0  0
    2.0184    1.5171    2.4386 H   0  0  0  0  0  0  0  0  0  0  0  0
    6.2042   -1.2670    1.6445 H   0  0  0  0  0  0  0  0  0  0  0  0
    8.1557   -1.3488   -0.1254 H   0  0  0  0  0  0  0  0  0  0  0  0
    5.2443    1.9911   -1.0814 H   0  0  0  0  0  0  0  0  0  0  0  0
    3.1454   -0.5670   -0.8639 H   0  0  0  0  0  0  0  0  0  0  0  0
    3.1173    1.1095   -1.4400 H   0  0  0  0  0  0  0  0  0  0  0  0
    0.7611    1.2869   -1.2253 H   0  0  0  0  0  0  0  0  0  0  0  0
    1.0452   -0.2456   -2.0211 H   0  0  0  0  0  0  0  0  0  0  0  0
  1  2  1  0
  2  3  1  0
  3  4  1  0
  4  5  1  0
  5  6  2  0
  6  7  1  0
  7  8  2  0
  8  9  1  0
  9 10  2  0
 10 11  1  0
 11 12  1  0
 12 13  1  0
 13 14  1  0
 14 15  1  0
 15 16  1  0
 16 17  2  0
 16 18  1  0
 18 19  1  0
 19 20  2  0
 20 21  1  0
 21 22  1  0
 15 23  1  0
 23 24  1  0
 10  5  1  0
 24 12  1  0
 22 18  2  0
  1 25  1  0
  1 26  1  0
  1 27  1  0
  2 28  1  0
  2 29  1  0
  3 30  1  0
  3 31  1  0
  7 32  1  0
  8 33  1  0
 11 34  1  0
 12 35  1  0
 13 36  1  0
 13 37  1  0
 14 38  1  0
 14 39  1  0
 19 40  1  0
 20 41  1  0
 22 42  1  0
 23 43  1  0
 23 44  1  0
 24 45  1  0
 24 46  1  0
M  END
$$$$
