
     RDKit          3D

 56 60  0  0  0  0  0  0  0  0999 V2000
   -1.4228   -0.5245    1.8446 O   0  0  0  0  0  0  0  0  0  0  0  0
   -0.8375   -0.4934    0.7539 C   0  0  0  0  0  0  0  0  0  0  0  0
   -1.6407   -0.6421   -0.5822 C   0  0  0  0  0  0  0  0  0  0  0  0
   -2.1246   -2.0846   -0.7619 C   0  0  0  0  0  0  0  0  0  0  0  0
   -1.1879   -3.1267   -0.8860 C   0  0  0  0  0  0  0  0  0  0  0  0
   -1.6021   -4.4464   -1.0724 C   0  0  0  0  0  0  0  0  0  0  0  0
   -2.9581   -4.7466   -1.1446 C   0  0  0  0  0  0  0  0  0  0  0  0
   -3.9014   -3.7287   -1.0244 C   0  0  0  0  0  0  0  0  0  0  0  0
   -3.4947   -2.4015   -0.8217 C   0  0  0  0  0  0  0  0  0  0  0  0
   -4.5309   -1.3159   -0.7175 C   0  0  0  0  0  0  0  0  0  0  0  0
   -3.9877   -0.0942    0.0162 C   0  0  0  0  0  0  0  0  0  0  0  0
   -2.7365    0.3592   -0.5864 N   0  0  0  0  0  0  0  0  0  0  0  0
   -2.3592    1.6544   -0.9410 C   0  0  0  0  0  0  0  0  0  0  0  0
   -1.1988    1.8837   -1.2862 O   0  0  0  0  0  0  0  0  0  0  0  0
   -3.2672    2.8399   -0.9680 C   0  0  0  0  0  0  0  0  0  0  0  0
   -4.7251    2.8327   -1.3289 C   0  0  0  0  0  0  0  0  0  0  0  0
   -4.2923    3.1820    0.0753 C   0  0  0  0  0  0  0  0  0  0  0  0
    0.5461   -0.3356    0.7017 N   0  0  0  0  0  0  0  0  0  0  0  0
    1.2733   -0.1144    1.9560 C   0  0  0  0  0  0  0  0  0  0  0  0
    2.4372    0.8829    1.8097 C   0  0  0  0  0  0  0  0  0  0  0  0
    3.3822    0.4610    0.7609 N   0  0  0  0  0  0  0  0  0  0  0  0
    4.7072    0.8663    0.7763 C   0  0  0  0  0  0  0  0  0  0  0  0
    5.1293    1.9920    1.5076 C   0  0  0  0  0  0  0  0  0  0  0  0
    6.4668    2.4053    1.5265 C   0  0  0  0  0  0  0  0  0  0  0  0
    7.4118    1.6913    0.8094 C   0  0  0  0  0  0  0  0  0  0  0  0
    8.6926    2.0818    0.8249 F   0  0  0  0  0  0  0  0  0  0  0  0
    7.0424    0.5761    0.0764 C   0  0  0  0  0  0  0  0  0  0  0  0
    5.7020    0.1722    0.0629 C   0  0  0  0  0  0  0  0  0  0  0  0
    2.8505   -0.3872   -0.3174 C   0  0  0  0  0  0  0  0  0  0  0  0
    1.3367   -0.1760   -0.5252 C   0  0  0  0  0  0  0  0  0  0  0  0
   -1.0133   -0.4222   -1.4488 H   0  0  0  0  0  0  0  0  0  0  0  0
   -0.1215   -2.9233   -0.8347 H   0  0  0  0  0  0  0  0  0  0  0  0
   -0.8651   -5.2403   -1.1624 H   0  0  0  0  0  0  0  0  0  0  0  0
   -3.2817   -5.7733   -1.2937 H   0  0  0  0  0  0  0  0  0  0  0  0
   -4.9591   -3.9756   -1.0862 H   0  0  0  0  0  0  0  0  0  0  0  0
   -5.4151   -1.6858   -0.1854 H   0  0  0  0  0  0  0  0  0  0  0  0
   -4.8383   -1.0350   -1.7323 H   0  0  0  0  0  0  0  0  0  0  0  0
   -3.7916   -0.3313    1.0679 H   0  0  0  0  0  0  0  0  0  0  0  0
   -4.7591    0.6644    0.0191 H   0  0  0  0  0  0  0  0  0  0  0  0
   -2.7256    3.7063   -1.3531 H   0  0  0  0  0  0  0  0  0  0  0  0
   -5.2187    1.8956   -1.5402 H   0  0  0  0  0  0  0  0  0  0  0  0
   -5.0867    3.6408   -1.9582 H   0  0  0  0  0  0  0  0  0  0  0  0
   -4.3646    4.2217    0.3810 H   0  0  0  0  0  0  0  0  0  0  0  0
   -4.4648    2.4996    0.8953 H   0  0  0  0  0  0  0  0  0  0  0  0
    1.6600   -1.0932    2.2656 H   0  0  0  0  0  0  0  0  0  0  0  0
    0.5971    0.2351    2.7429 H   0  0  0  0  0  0  0  0  0  0  0  0
    2.0428    1.8748    1.5578 H   0  0  0  0  0  0  0  0  0  0  0  0
    2.9381    0.9474    2.7830 H   0  0  0  0  0  0  0  0  0  0  0  0
    4.4130    2.5910    2.0633 H   0  0  0  0  0  0  0  0  0  0  0  0
    6.7669    3.2807    2.0925 H   0  0  0  0  0  0  0  0  0  0  0  0
    7.7929    0.0216   -0.4767 H   0  0  0  0  0  0  0  0  0  0  0  0
    5.4547   -0.7209   -0.5039 H   0  0  0  0  0  0  0  0  0  0  0  0
    3.3440   -0.1684   -1.2719 H   0  0  0  0  0  0  0  0  0  0  0  0
    3.0411   -1.4380   -0.0672 H   0  0  0  0  0  0  0  0  0  0  0  0
    1.1567    0.8412   -0.8899 H   0  0  0  0  0  0  0  0  0  0  0  0
    0.9872   -0.8761   -1.2874 H   0  0  0  0  0  0  0  0  0  0  0  0
  1  2  2  0
  2  3  1  0
  3  4  1  0
  4  5  2  0
  5  6  1  0
  6  7  2  0
  7  8  1  0
  8  9  2  0
  9 10  1  0
 10 11  1  0
 11 12  1  0
 12 13  1  0
 13 14  2  0
 13 15  1  0
 15 16  1  0
 16 17  1  0
  2 18  1  0
 18 19  1  0
 19 20  1  0
 20 21  1  0
 21 22  1  0
 22 23  2  0
 23 24  1  0
 24 25  2  0
 25 26  1  0
 25 27  1  0
 27 28  2  0
 21 29  1  0
 29 30  1  0
 12  3  1  0
 17 15  1  0
 30 18  1  0
  9  4  1  0
 28 22  1  0
  3 31  1  0
  5 32  1  0
  6 33  1  0
  7 34  1  0
  8 35  1  0
 10 36  1  0
 10 37  1  0
 11 38  1  0
 11 39  1  0
 15 40  1  0
 16 41  1  0
 16 42  1  0
 17 43  1  0
 17 44  1  0
 19 45  1  0
 19 46  1  0
 20 47  1  0
 20 48  1  0
 23 49  1  0
 24 50  1  0
 27 51  1  0
 28 52  1  0
 29 53  1  0
 29 54  1  0
 30 55  1  0
 30 56  1  0
M  END
$$$$
