
     RDKit          3D

 13 13  0  0  0  0  0  0  0  0999 V2000
   -2.4366   -0.7867    0.5290 O   0  0  0  0  0  0  0  0  0  0  0  0
   -1.7478    0.3360   -0.0219 C   0  0  0  0  0  0  0  0  0  0  0  0
   -0.2724    0.1211   -0.0364 C   0  0  0  0  0  0  0  0  0  0  0  0
    0.7450    1.0095   -0.3103 C   0  0  0  0  0  0  0  0  0  0  0  0
    1.8988    0.2866   -0.1781 N   0  0  0  0  0  0  0  0  0  0  0  0
    1.5510   -0.9895    0.1629 C   0  0  0  0  0  0  0  0  0  0  0  0
    0.2484   -1.1252    0.2567 N   0  0  0  0  0  0  0  0  0  0  0  0
   -1.7436   -1.4741    0.6180 H   0  0  0  0  0  0  0  0  0  0  0  0
   -2.0020    1.2154    0.5772 H   0  0  0  0  0  0  0  0  0  0  0  0
   -2.1142    0.4897   -1.0414 H   0  0  0  0  0  0  0  0  0  0  0  0
    0.7476    2.0570   -0.5767 H   0  0  0  0  0  0  0  0  0  0  0  0
    2.8414    0.6280   -0.3071 H   0  0  0  0  0  0  0  0  0  0  0  0
    2.2844   -1.7678    0.3282 H   0  0  0  0  0  0  0  0  0  0  0  0
  1  2  1  0
  2  3  1  0
  3  4  2  0
  4  5  1  0
  5  6  1  0
  6  7  2  0
  7  3  1  0
  1  8  1  0
  2  9  1  0
  2 10  1  0
  4 11  1  0
  5 12  1  0
  6 13  1  0
M  END
$$$$
