
     RDKit          3D

 58 61  0  0  0  0  0  0  0  0999 V2000
    8.2235    1.2988   -0.3027 C   0  0  0  0  0  0  0  0  0  0  0  0
    7.2083    0.2425   -0.6951 C   0  0  0  0  0  0  0  0  0  0  0  0
    5.8859    0.6749   -0.3465 O   0  0  0  0  0  0  0  0  0  0  0  0
    5.4713    0.3680    0.9163 C   0  0  0  0  0  0  0  0  0  0  0  0
    6.1531   -0.1948    1.7630 O   0  0  0  0  0  0  0  0  0  0  0  0
    4.0706    0.8738    1.1277 C   0  0  0  0  0  0  0  0  0  0  0  0
    3.4491    0.1964    2.3435 C   0  0  0  0  0  0  0  0  0  0  0  0
    2.0729    0.6583    2.5791 N   0  0  0  0  0  0  0  0  0  0  0  0
    1.0923    0.0572    1.7624 C   0  0  0  0  0  0  0  0  0  0  0  0
   -0.2283    0.4057    1.9625 C   0  0  0  0  0  0  0  0  0  0  0  0
   -1.1904   -0.1569    1.1407 C   0  0  0  0  0  0  0  0  0  0  0  0
   -2.5492    0.1666    1.3255 N   0  0  0  0  0  0  0  0  0  0  0  0
   -2.8686    1.6039    1.2413 C   0  0  0  0  0  0  0  0  0  0  0  0
   -3.3444    2.0303   -0.1519 C   0  0  0  0  0  0  0  0  0  0  0  0
   -4.8107    1.7750   -0.4429 C   0  0  0  0  0  0  0  0  0  0  0  0
   -5.4675    2.7006   -1.2795 C   0  0  0  0  0  0  0  0  0  0  0  0
   -6.8181    2.5629   -1.5965 C   0  0  0  0  0  0  0  0  0  0  0  0
   -7.5386    1.4924   -1.0869 C   0  0  0  0  0  0  0  0  0  0  0  0
   -6.9020    0.5545   -0.2758 C   0  0  0  0  0  0  0  0  0  0  0  0
   -5.5318    0.6643    0.0392 C   0  0  0  0  0  0  0  0  0  0  0  0
   -4.9400   -0.4204    0.9191 C   0  0  0  0  0  0  0  0  0  0  0  0
   -3.4715   -0.7597    0.6461 C   0  0  0  0  0  0  0  0  0  0  0  0
   -0.8436   -1.0427    0.1943 N   0  0  0  0  0  0  0  0  0  0  0  0
    0.4673   -1.3234    0.0420 C   0  0  0  0  0  0  0  0  0  0  0  0
    0.8510   -2.2787   -1.0302 C   0  0  0  0  0  0  0  0  0  0  0  0
   -0.1018   -2.8639   -1.8706 C   0  0  0  0  0  0  0  0  0  0  0  0
    0.3047   -3.7565   -2.8616 C   0  0  0  0  0  0  0  0  0  0  0  0
    1.6535   -4.0507   -2.9997 C   0  0  0  0  0  0  0  0  0  0  0  0
    2.5442   -3.4374   -2.1380 C   0  0  0  0  0  0  0  0  0  0  0  0
    2.1785   -2.5694   -1.1706 N   0  0  0  0  0  0  0  0  0  0  0  0
    1.4458   -0.7898    0.7947 N   0  0  0  0  0  0  0  0  0  0  0  0
    8.2225    1.4623    0.7796 H   0  0  0  0  0  0  0  0  0  0  0  0
    9.2305    1.0038   -0.6111 H   0  0  0  0  0  0  0  0  0  0  0  0
    7.9781    2.2589   -0.7700 H   0  0  0  0  0  0  0  0  0  0  0  0
    7.4434   -0.7281   -0.2434 H   0  0  0  0  0  0  0  0  0  0  0  0
    7.2233    0.1032   -1.7808 H   0  0  0  0  0  0  0  0  0  0  0  0
    3.4884    0.6690    0.2234 H   0  0  0  0  0  0  0  0  0  0  0  0
    4.1102    1.9595    1.2711 H   0  0  0  0  0  0  0  0  0  0  0  0
    4.0345    0.4667    3.2315 H   0  0  0  0  0  0  0  0  0  0  0  0
    3.5023   -0.8980    2.2783 H   0  0  0  0  0  0  0  0  0  0  0  0
    1.8039    0.5123    3.5497 H   0  0  0  0  0  0  0  0  0  0  0  0
   -0.4996    1.0921    2.7535 H   0  0  0  0  0  0  0  0  0  0  0  0
   -3.6280    1.8417    1.9967 H   0  0  0  0  0  0  0  0  0  0  0  0
   -2.0024    2.2230    1.5037 H   0  0  0  0  0  0  0  0  0  0  0  0
   -3.1708    3.1128   -0.2226 H   0  0  0  0  0  0  0  0  0  0  0  0
   -2.7381    1.5641   -0.9386 H   0  0  0  0  0  0  0  0  0  0  0  0
   -4.9239    3.5506   -1.6877 H   0  0  0  0  0  0  0  0  0  0  0  0
   -7.3046    3.2938   -2.2364 H   0  0  0  0  0  0  0  0  0  0  0  0
   -8.5934    1.3819   -1.3225 H   0  0  0  0  0  0  0  0  0  0  0  0
   -7.4865   -0.2799    0.1085 H   0  0  0  0  0  0  0  0  0  0  0  0
   -5.0915   -0.1465    1.9707 H   0  0  0  0  0  0  0  0  0  0  0  0
   -5.5114   -1.3427    0.7467 H   0  0  0  0  0  0  0  0  0  0  0  0
   -3.2907   -0.7963   -0.4366 H   0  0  0  0  0  0  0  0  0  0  0  0
   -3.2915   -1.7681    1.0430 H   0  0  0  0  0  0  0  0  0  0  0  0
   -1.1563   -2.6281   -1.7573 H   0  0  0  0  0  0  0  0  0  0  0  0
   -0.4286   -4.2159   -3.5175 H   0  0  0  0  0  0  0  0  0  0  0  0
    2.0040   -4.7410   -3.7589 H   0  0  0  0  0  0  0  0  0  0  0  0
    3.6109   -3.6329   -2.2019 H   0  0  0  0  0  0  0  0  0  0  0  0
  1  2  1  0
  2  3  1  0
  3  4  1  0
  4  5  2  0
  4  6  1  0
  6  7  1  0
  7  8  1  0
  8  9  1  0
  9 10  2  0
 10 11  1  0
 11 12  1  0
 12 13  1  0
 13 14  1  0
 14 15  1  0
 15 16  2  0
 16 17  1  0
 17 18  2  0
 18 19  1  0
 19 20  2  0
 20 21  1  0
 21 22  1  0
 11 23  2  0
 23 24  1  0
 24 25  1  0
 25 26  2  0
 26 27  1  0
 27 28  2  0
 28 29  1  0
 29 30  2  0
 24 31  2  0
 31  9  1  0
 22 12  1  0
 30 25  1  0
 20 15  1  0
  1 32  1  0
  1 33  1  0
  1 34  1  0
  2 35  1  0
  2 36  1  0
  6 37  1  0
  6 38  1  0
  7 39  1  0
  7 40  1  0
  8 41  1  0
 10 42  1  0
 13 43  1  0
 13 44  1  0
 14 45  1  0
 14 46  1  0
 16 47  1  0
 17 48  1  0
 18 49  1  0
 19 50  1  0
 21 51  1  0
 21 52  1  0
 22 53  1  0
 22 54  1  0
 26 55  1  0
 27 56  1  0
 28 57  1  0
 29 58  1  0
M  END
$$$$
