
     RDKit          3D

 50 53  0  0  0  0  0  0  0  0999 V2000
    1.5277   -0.9134   -0.1501 O   0  0  0  0  0  0  0  0  0  0  0  0
    1.6992    0.2966   -0.1493 C   0  0  0  0  0  0  0  0  0  0  0  0
    2.8086    0.9412   -0.6802 N   0  0  0  0  0  0  0  0  0  0  0  0
    3.9686    0.3481   -1.2198 C   0  0  0  0  0  0  0  0  0  0  0  0
    4.8784    1.1948   -1.8650 C   0  0  0  0  0  0  0  0  0  0  0  0
    6.0500    0.6870   -2.4282 C   0  0  0  0  0  0  0  0  0  0  0  0
    6.3291   -0.6757   -2.3450 C   0  0  0  0  0  0  0  0  0  0  0  0
    5.4438   -1.5391   -1.6855 C   0  0  0  0  0  0  0  0  0  0  0  0
    5.7329   -3.0189   -1.6012 C   0  0  0  0  0  0  0  0  0  0  0  0
    5.1688   -3.7181   -2.6234 F   0  0  0  0  0  0  0  0  0  0  0  0
    7.0651   -3.3022   -1.6517 F   0  0  0  0  0  0  0  0  0  0  0  0
    5.2808   -3.5943   -0.4537 F   0  0  0  0  0  0  0  0  0  0  0  0
    4.2620   -1.0144   -1.1294 C   0  0  0  0  0  0  0  0  0  0  0  0
    0.8115    1.2230    0.3728 N   0  0  0  0  0  0  0  0  0  0  0  0
   -0.4724    0.9924    0.9339 C   0  0  0  0  0  0  0  0  0  0  0  0
   -1.0884   -0.2651    0.9219 C   0  0  0  0  0  0  0  0  0  0  0  0
   -2.3590   -0.4321    1.4870 C   0  0  0  0  0  0  0  0  0  0  0  0
   -3.1435   -2.0253    1.4689 S   0  0  0  0  0  6  0  0  0  0  0  0
   -2.2583   -2.9796    0.8366 O   0  0  0  0  0  0  0  0  0  0  0  0
   -3.7068   -2.2481    2.7840 O   0  0  0  0  0  0  0  0  0  0  0  0
   -4.3936   -1.7431    0.3422 N   0  0  0  0  0  0  0  0  0  0  0  0
   -5.6669   -2.4045    0.6726 C   0  0  0  0  0  0  0  0  0  0  0  0
   -6.6878   -2.6608   -0.4009 C   0  0  0  0  0  0  0  0  0  0  0  0
   -5.9588   -3.8102    0.2327 C   0  0  0  0  0  0  0  0  0  0  0  0
   -3.0313    0.6370    2.0814 C   0  0  0  0  0  0  0  0  0  0  0  0
   -2.4345    1.8947    2.0928 C   0  0  0  0  0  0  0  0  0  0  0  0
   -1.1649    2.0814    1.5208 C   0  0  0  0  0  0  0  0  0  0  0  0
   -0.6076    3.4283    1.5357 C   0  0  0  0  0  0  0  0  0  0  0  0
   -0.5770    4.3558    0.4471 C   0  0  0  0  0  0  0  0  0  0  0  0
    0.0416    5.5378    0.7905 C   0  0  0  0  0  0  0  0  0  0  0  0
    0.5877    5.5311    2.4120 S   0  0  0  0  0  0  0  0  0  0  0  0
   -0.0071    3.9456    2.6662 C   0  0  0  0  0  0  0  0  0  0  0  0
    2.7164    1.9346   -0.8242 H   0  0  0  0  0  0  0  0  0  0  0  0
    4.6877    2.2611   -1.9434 H   0  0  0  0  0  0  0  0  0  0  0  0
    6.7447    1.3539   -2.9336 H   0  0  0  0  0  0  0  0  0  0  0  0
    7.2443   -1.0641   -2.7909 H   0  0  0  0  0  0  0  0  0  0  0  0
    3.5896   -1.7004   -0.6190 H   0  0  0  0  0  0  0  0  0  0  0  0
    1.1766    2.1570    0.4892 H   0  0  0  0  0  0  0  0  0  0  0  0
   -0.6027   -1.1287    0.4779 H   0  0  0  0  0  0  0  0  0  0  0  0
   -4.0388   -2.0440   -0.5695 H   0  0  0  0  0  0  0  0  0  0  0  0
   -6.0592   -2.0885    1.6378 H   0  0  0  0  0  0  0  0  0  0  0  0
   -7.7323   -2.5198   -0.1486 H   0  0  0  0  0  0  0  0  0  0  0  0
   -6.4429   -2.4049   -1.4244 H   0  0  0  0  0  0  0  0  0  0  0  0
   -6.5044   -4.4469    0.9198 H   0  0  0  0  0  0  0  0  0  0  0  0
   -5.2167   -4.3348   -0.3582 H   0  0  0  0  0  0  0  0  0  0  0  0
   -4.0146    0.4944    2.5262 H   0  0  0  0  0  0  0  0  0  0  0  0
   -2.9654    2.7315    2.5438 H   0  0  0  0  0  0  0  0  0  0  0  0
   -0.9947    4.1669   -0.5354 H   0  0  0  0  0  0  0  0  0  0  0  0
    0.1970    6.4095    0.1695 H   0  0  0  0  0  0  0  0  0  0  0  0
    0.1177    3.4735    3.6321 H   0  0  0  0  0  0  0  0  0  0  0  0
  1  2  2  0
  2  3  1  0
  3  4  1  0
  4  5  2  0
  5  6  1  0
  6  7  2  0
  7  8  1  0
  8  9  1  0
  9 10  1  0
  9 11  1  0
  9 12  1  0
  8 13  2  0
  2 14  1  0
 14 15  1  0
 15 16  2  0
 16 17  1  0
 17 18  1  0
 18 19  2  0
 18 20  2  0
 18 21  1  0
 21 22  1  0
 22 23  1  0
 23 24  1  0
 17 25  2  0
 25 26  1  0
 26 27  2  0
 27 28  1  0
 28 29  1  0
 29 30  2  0
 30 31  1  0
 31 32  1  0
 13  4  1  0
 27 15  1  0
 32 28  2  0
 24 22  1  0
  3 33  1  0
  5 34  1  0
  6 35  1  0
  7 36  1  0
 13 37  1  0
 14 38  1  0
 16 39  1  0
 21 40  1  0
 22 41  1  0
 23 42  1  0
 23 43  1  0
 24 44  1  0
 24 45  1  0
 25 46  1  0
 26 47  1  0
 29 48  1  0
 30 49  1  0
 32 50  1  0
M  END
$$$$
