
     RDKit          3D

 59 61  0  0  0  0  0  0  0  0999 V2000
    7.4424   -3.4503   -0.5555 C   0  0  0  0  0  0  0  0  0  0  0  0
    6.8066   -2.1767   -0.0485 C   0  0  0  0  0  0  0  0  0  0  0  0
    5.4890   -2.0141   -0.5342 O   0  0  0  0  0  0  0  0  0  0  0  0
    4.8003   -0.8457   -0.1250 C   0  0  0  0  0  0  0  0  0  0  0  0
    5.3984   -0.0572    0.6206 O   0  0  0  0  0  0  0  0  0  0  0  0
    3.4728   -0.6345   -0.5786 N   0  0  0  0  0  0  0  0  0  0  0  0
    2.7448    0.4983   -0.2174 C   0  0  0  0  0  0  0  0  0  0  0  0
    3.2514    1.7093    0.2168 C   0  0  0  0  0  0  0  0  0  0  0  0
    2.4404    2.7692    0.5892 C   0  0  0  0  0  0  0  0  0  0  0  0
    1.0465    2.6541    0.5402 C   0  0  0  0  0  0  0  0  0  0  0  0
    0.5938    1.4243    0.0984 C   0  0  0  0  0  0  0  0  0  0  0  0
    1.3528    0.3581   -0.2772 C   0  0  0  0  0  0  0  0  0  0  0  0
   -0.8474    1.1273   -0.0214 N   0  0  0  0  0  0  0  0  0  0  0  0
   -1.2185   -0.1274    0.4125 C   0  0  0  0  0  0  0  0  0  0  0  0
   -0.4766   -1.0996    0.6972 O   0  0  0  0  0  0  0  0  0  0  0  0
   -2.5884   -0.5188    0.6406 C   0  0  0  0  0  0  0  0  0  0  0  0
   -2.6848   -1.9278    1.0349 N   0  0  0  0  0  0  0  0  0  0  0  0
   -3.9586   -2.2504    1.5658 C   0  0  0  0  0  0  0  0  0  0  0  0
   -4.7200   -3.3832    1.0160 C   0  0  0  0  0  0  0  0  0  0  0  0
   -3.9078   -4.3454    0.3766 O   0  0  0  0  0  0  0  0  0  0  0  0
   -3.1929   -3.6815   -0.6078 C   0  0  0  0  0  0  0  0  0  0  0  0
   -2.1470   -2.8152    0.0678 C   0  0  0  0  0  0  0  0  0  0  0  0
   -1.7805    2.0506   -0.5724 C   0  0  0  0  0  0  0  0  0  0  0  0
   -2.6651    1.4207   -1.4096 C   0  0  0  0  0  0  0  0  0  0  0  0
   -3.6440    2.1605   -2.0286 C   0  0  0  0  0  0  0  0  0  0  0  0
   -3.6928    3.4933   -1.7868 C   0  0  0  0  0  0  0  0  0  0  0  0
   -2.7842    4.1133   -0.9381 C   0  0  0  0  0  0  0  0  0  0  0  0
   -1.7763    3.3922   -0.2908 C   0  0  0  0  0  0  0  0  0  0  0  0
   -0.9320    4.2834    0.4937 C   0  0  0  0  0  0  0  0  0  0  0  0
    0.3639    3.8735    1.0073 C   0  0  0  0  0  0  0  0  0  0  0  0
    0.6849    0.0000    0.0000 Cl  0  0  0  0  0  0  0  0  0  0  0  0
    7.0483   -4.3505   -0.0658 H   0  0  0  0  0  0  0  0  0  0  0  0
    7.3527   -3.5777   -1.6366 H   0  0  0  0  0  0  0  0  0  0  0  0
    8.5259   -3.3837   -0.2490 H   0  0  0  0  0  0  0  0  0  0  0  0
    7.4258   -1.3292   -0.3910 H   0  0  0  0  0  0  0  0  0  0  0  0
    6.7778   -2.2122    1.0597 H   0  0  0  0  0  0  0  0  0  0  0  0
    3.0528   -1.3790   -1.2178 H   0  0  0  0  0  0  0  0  0  0  0  0
    4.3455    1.8374    0.2519 H   0  0  0  0  0  0  0  0  0  0  0  0
    2.8821    3.6963    0.9210 H   0  0  0  0  0  0  0  0  0  0  0  0
    0.8568   -0.5268   -0.6133 H   0  0  0  0  0  0  0  0  0  0  0  0
   -3.4240   -0.2373    0.0572 H   0  0  0  0  0  0  0  0  0  0  0  0
   -2.9354   -0.0287    1.6671 H   0  0  0  0  0  0  0  0  0  0  0  0
   -4.6309   -1.3421    1.6134 H   0  0  0  0  0  0  0  0  0  0  0  0
   -3.7870   -2.4776    2.6675 H   0  0  0  0  0  0  0  0  0  0  0  0
   -5.2481   -3.9734    1.8225 H   0  0  0  0  0  0  0  0  0  0  0  0
   -5.5564   -3.0679    0.3329 H   0  0  0  0  0  0  0  0  0  0  0  0
   -2.7209   -4.4561   -1.2455 H   0  0  0  0  0  0  0  0  0  0  0  0
   -3.8518   -3.0035   -1.1916 H   0  0  0  0  0  0  0  0  0  0  0  0
   -1.4243   -3.4931    0.5563 H   0  0  0  0  0  0  0  0  0  0  0  0
   -1.5994   -2.2896   -0.7447 H   0  0  0  0  0  0  0  0  0  0  0  0
   -2.5274    0.3445   -1.6116 H   0  0  0  0  0  0  0  0  0  0  0  0
   -4.3264    1.6475   -2.6732 H   0  0  0  0  0  0  0  0  0  0  0  0
   -4.4813    4.0779   -2.2858 H   0  0  0  0  0  0  0  0  0  0  0  0
   -2.8857    5.1724   -0.7985 H   0  0  0  0  0  0  0  0  0  0  0  0
   -1.5816    4.5887    1.3890 H   0  0  0  0  0  0  0  0  0  0  0  0
   -0.8344    5.2919   -0.0296 H   0  0  0  0  0  0  0  0  0  0  0  0
    0.2841    3.7268    2.1367 H   0  0  0  0  0  0  0  0  0  0  0  0
    1.0772    4.7445    0.8936 H   0  0  0  0  0  0  0  0  0  0  0  0
   -0.6849    0.0000    0.0000 H   0  0  0  0  0  0  0  0  0  0  0  0
  1  2  1  0
  2  3  1  0
  3  4  1  0
  4  5  2  0
  4  6  1  0
  6  7  1  0
  7  8  2  0
  8  9  1  0
  9 10  2  0
 10 11  1  0
 11 12  2  0
 11 13  1  0
 13 14  1  0
 14 15  2  0
 14 16  1  0
 16 17  1  0
 17 18  1  0
 18 19  1  0
 19 20  1  0
 20 21  1  0
 21 22  1  0
 13 23  1  0
 23 24  2  0
 24 25  1  0
 25 26  2  0
 26 27  1  0
 27 28  2  0
 28 29  1  0
 29 30  1  0
 12  7  1  0
 22 17  1  0
 28 23  1  0
 30 10  1  0
  1 32  1  0
  1 33  1  0
  1 34  1  0
  2 35  1  0
  2 36  1  0
  6 37  1  0
  8 38  1  0
  9 39  1  0
 12 40  1  0
 16 41  1  0
 16 42  1  0
 18 43  1  0
 18 44  1  0
 19 45  1  0
 19 46  1  0
 21 47  1  0
 21 48  1  0
 22 49  1  0
 22 50  1  0
 24 51  1  0
 25 52  1  0
 26 53  1  0
 27 54  1  0
 29 55  1  0
 29 56  1  0
 30 57  1  0
 30 58  1  0
 31 59  1  0
M  END
$$$$
