
     RDKit          3D

 57 62  0  0  0  0  0  0  0  0999 V2000
   -4.3030   -1.8456    2.5398 C   0  0  0  0  0  0  0  0  0  0  0  0
   -4.1531   -1.0799    1.3528 O   0  0  0  0  0  0  0  0  0  0  0  0
   -5.2853   -0.6159    0.7289 C   0  0  0  0  0  0  0  0  0  0  0  0
   -6.5797   -0.9365    1.1774 C   0  0  0  0  0  0  0  0  0  0  0  0
   -7.7106   -0.4243    0.5422 C   0  0  0  0  0  0  0  0  0  0  0  0
   -7.5633    0.4108   -0.5530 C   0  0  0  0  0  0  0  0  0  0  0  0
   -6.2834    0.7303   -1.0080 C   0  0  0  0  0  0  0  0  0  0  0  0
   -5.1125    0.2383   -0.3893 C   0  0  0  0  0  0  0  0  0  0  0  0
   -3.8892    0.6139   -0.9509 N   0  0  0  0  0  0  0  0  0  0  0  0
   -2.6859   -0.2378   -0.8677 C   0  0  0  0  0  0  0  0  0  0  0  0
   -1.6695    0.2670    0.1845 C   0  0  0  0  0  0  0  0  0  0  0  0
   -1.4005    1.7032    0.0105 N   0  0  0  0  0  0  0  0  0  0  0  0
   -0.3523    2.1677   -0.7849 C   0  0  0  0  0  0  0  0  0  0  0  0
   -0.4826    3.1593   -1.5029 O   0  0  0  0  0  0  0  0  0  0  0  0
    0.9161    1.4618   -0.7639 C   0  0  0  0  0  0  0  0  0  0  0  0
    1.8188    1.3578   -1.8400 C   0  0  0  0  0  0  0  0  0  0  0  0
    2.9218    0.6749   -1.5427 N   0  0  0  0  0  0  0  0  0  0  0  0
    2.7914    0.3720   -0.2236 N   0  0  0  0  0  0  0  0  0  0  0  0
    3.7022   -0.3119    0.6055 C   0  0  0  0  0  0  0  0  0  0  0  0
    4.9977   -0.8072    0.1020 C   0  0  0  0  0  0  0  0  0  0  0  0
    5.2971   -2.1901    0.1371 C   0  0  0  0  0  0  0  0  0  0  0  0
    6.5266   -2.6735   -0.3238 C   0  0  0  0  0  0  0  0  0  0  0  0
    7.4317   -1.7576   -0.8121 C   0  0  0  0  0  0  0  0  0  0  0  0
    7.1500   -0.4129   -0.8527 C   0  0  0  0  0  0  0  0  0  0  0  0
    5.9471    0.0936   -0.4064 C   0  0  0  0  0  0  0  0  0  0  0  0
    8.1762    0.3159   -1.3681 O   0  0  0  0  0  0  0  0  0  0  0  0
    9.1258   -0.7270   -1.6698 C   0  0  0  0  0  0  0  0  0  0  0  0
    8.6684   -2.0445   -1.2988 O   0  0  0  0  0  0  0  0  0  0  0  0
    3.3971   -0.4984    1.9029 C   0  0  0  0  0  0  0  0  0  0  0  0
    2.0887    0.0430    2.3450 C   0  0  0  0  0  0  0  0  0  0  0  0
    1.2246    0.6645    1.6045 N   0  0  0  0  0  0  0  0  0  0  0  0
    1.5673    0.8400    0.2883 C   0  0  0  0  0  0  0  0  0  0  0  0
   -2.6248    2.5061    0.0475 C   0  0  0  0  0  0  0  0  0  0  0  0
   -3.6079    2.0667   -1.0543 C   0  0  0  0  0  0  0  0  0  0  0  0
   -3.3012   -2.0824    2.9112 H   0  0  0  0  0  0  0  0  0  0  0  0
   -4.8177   -1.2742    3.3192 H   0  0  0  0  0  0  0  0  0  0  0  0
   -4.8122   -2.7931    2.3362 H   0  0  0  0  0  0  0  0  0  0  0  0
   -6.7439   -1.5890    2.0282 H   0  0  0  0  0  0  0  0  0  0  0  0
   -8.7028   -0.6837    0.9014 H   0  0  0  0  0  0  0  0  0  0  0  0
   -8.4360    0.8065   -1.0648 H   0  0  0  0  0  0  0  0  0  0  0  0
   -6.1965    1.3566   -1.8938 H   0  0  0  0  0  0  0  0  0  0  0  0
   -2.9281   -1.2952   -0.7154 H   0  0  0  0  0  0  0  0  0  0  0  0
   -2.2000   -0.1935   -1.8518 H   0  0  0  0  0  0  0  0  0  0  0  0
   -2.0474    0.1414    1.2028 H   0  0  0  0  0  0  0  0  0  0  0  0
   -0.7647   -0.3343    0.0887 H   0  0  0  0  0  0  0  0  0  0  0  0
    1.7006    1.7538   -2.8417 H   0  0  0  0  0  0  0  0  0  0  0  0
    4.5642   -2.9009    0.5139 H   0  0  0  0  0  0  0  0  0  0  0  0
    6.7593   -3.7321   -0.3045 H   0  0  0  0  0  0  0  0  0  0  0  0
    5.7510    1.1597   -0.4612 H   0  0  0  0  0  0  0  0  0  0  0  0
   10.0585   -0.5169   -1.1340 H   0  0  0  0  0  0  0  0  0  0  0  0
    9.3291   -0.7163   -2.7469 H   0  0  0  0  0  0  0  0  0  0  0  0
    4.0309   -0.9904    2.6275 H   0  0  0  0  0  0  0  0  0  0  0  0
    1.8550   -0.1151    3.4113 H   0  0  0  0  0  0  0  0  0  0  0  0
   -2.3863    3.5696   -0.0610 H   0  0  0  0  0  0  0  0  0  0  0  0
   -3.0775    2.3685    1.0369 H   0  0  0  0  0  0  0  0  0  0  0  0
   -3.1667    2.2553   -2.0406 H   0  0  0  0  0  0  0  0  0  0  0  0
   -4.5123    2.6817   -0.9884 H   0  0  0  0  0  0  0  0  0  0  0  0
  1  2  1  0
  2  3  1  0
  3  4  2  0
  4  5  1  0
  5  6  2  0
  6  7  1  0
  7  8  2  0
  8  9  1  0
  9 10  1  0
 10 11  1  0
 11 12  1  0
 12 13  1  0
 13 14  2  0
 13 15  1  0
 15 16  1  0
 16 17  2  0
 17 18  1  0
 18 19  1  0
 19 20  1  0
 20 21  2  0
 21 22  1  0
 22 23  2  0
 23 24  1  0
 24 25  2  0
 24 26  1  0
 26 27  1  0
 27 28  1  0
 19 29  2  0
 29 30  1  0
 30 31  2  0
 31 32  1  0
 12 33  1  0
 33 34  1  0
  8  3  1  0
 34  9  1  0
 32 15  2  0
 32 18  1  0
 25 20  1  0
 28 23  1  0
  1 35  1  0
  1 36  1  0
  1 37  1  0
  4 38  1  0
  5 39  1  0
  6 40  1  0
  7 41  1  0
 10 42  1  0
 10 43  1  0
 11 44  1  0
 11 45  1  0
 16 46  1  0
 21 47  1  0
 22 48  1  0
 25 49  1  0
 27 50  1  0
 27 51  1  0
 29 52  1  0
 30 53  1  0
 33 54  1  0
 33 55  1  0
 34 56  1  0
 34 57  1  0
M  END
$$$$
