
     RDKit          3D

 82 86  0  0  0  0  0  0  0  0999 V2000
   -6.0204    4.2354   -0.2606 C   0  0  0  0  0  0  0  0  0  0  0  0
   -4.8195    4.1542    0.6729 C   0  0  0  0  0  0  0  0  0  0  0  0
   -4.6256    2.7636    1.2782 C   0  0  0  0  0  0  0  0  0  0  0  0
   -4.1644    1.7194    0.2602 C   0  0  0  0  0  0  0  0  0  0  0  0
   -3.8374    0.4300    0.9671 C   0  0  0  0  0  0  0  0  0  0  0  0
   -4.7416   -0.4891    1.1059 N   0  0  0  0  0  0  0  0  0  0  0  0
   -4.0733   -1.5645    1.8836 C   0  0  0  0  0  0  0  0  0  0  0  0
   -3.9932   -2.8410    1.0361 C   0  0  0  0  0  0  0  0  0  0  0  0
   -4.6661   -3.9207    1.8808 C   0  0  0  0  0  0  0  0  0  0  0  0
   -5.6743   -3.1554    2.7207 C   0  0  0  0  0  0  0  0  0  0  0  0
   -4.9001   -1.9061    3.1241 C   0  0  0  0  0  0  0  0  0  0  0  0
   -2.7100   -0.9853    2.2097 C   0  0  0  0  0  0  0  0  0  0  0  0
   -1.8674   -1.4689    2.9525 O   0  0  0  0  0  0  0  0  0  0  0  0
   -2.6424    0.1980    1.5329 N   0  0  0  0  0  0  0  0  0  0  0  0
   -1.4687    1.0476    1.5877 C   0  0  0  0  0  0  0  0  0  0  0  0
   -0.3429    0.5275    0.7217 C   0  0  0  0  0  0  0  0  0  0  0  0
    0.7968   -0.0307    1.3053 C   0  0  0  0  0  0  0  0  0  0  0  0
    1.8376   -0.5113    0.5078 C   0  0  0  0  0  0  0  0  0  0  0  0
    1.7716   -0.4520   -0.8970 C   0  0  0  0  0  0  0  0  0  0  0  0
    2.8920   -1.0028   -1.6810 C   0  0  0  0  0  0  0  0  0  0  0  0
    2.8773   -2.3830   -1.9684 C   0  0  0  0  0  0  0  0  0  0  0  0
    3.9167   -2.9966   -2.6709 C   0  0  0  0  0  0  0  0  0  0  0  0
    4.9991   -2.2397   -3.1092 C   0  0  0  0  0  0  0  0  0  0  0  0
    5.0396   -0.8709   -2.8478 C   0  0  0  0  0  0  0  0  0  0  0  0
    3.9963   -0.2534   -2.1361 C   0  0  0  0  0  0  0  0  0  0  0  0
    4.1106    1.5077   -1.8748 S   0  0  0  0  0  6  0  0  0  0  0  0
    2.8489    2.0976   -2.2827 O   0  0  0  0  0  0  0  0  0  0  0  0
    5.3389    1.9938   -2.4687 O   0  0  0  0  0  0  0  0  0  0  0  0
    4.2072    1.6816   -0.2202 N   0  0  0  0  0  0  0  0  0  0  0  0
    5.2205    1.1561    0.5634 C   0  0  0  0  0  0  0  0  0  0  0  0
    6.2565    0.4628    0.0902 N   0  0  0  0  0  0  0  0  0  0  0  0
    7.0225    0.1193    1.1812 O   0  0  0  0  0  0  0  0  0  0  0  0
    6.4450    0.6033    2.3093 C   0  0  0  0  0  0  0  0  0  0  0  0
    7.1669    0.3218    3.5667 C   0  0  0  0  0  0  0  0  0  0  0  0
    5.2782    1.2635    1.9795 C   0  0  0  0  0  0  0  0  0  0  0  0
    4.3217    1.9421    2.8844 C   0  0  0  0  0  0  0  0  0  0  0  0
    0.6080    0.0767   -1.4967 C   0  0  0  0  0  0  0  0  0  0  0  0
    0.4117    0.0735   -2.9974 C   0  0  0  0  0  0  0  0  0  0  0  0
   -0.1004   -1.2089   -3.3603 O   0  0  0  0  0  0  0  0  0  0  0  0
   -0.3430   -1.3556   -4.7566 C   0  0  0  0  0  0  0  0  0  0  0  0
    0.9426   -1.4699   -5.5587 C   0  0  0  0  0  0  0  0  0  0  0  0
   -0.4308    0.5648   -0.6780 C   0  0  0  0  0  0  0  0  0  0  0  0
   -5.8714    3.6222   -1.1522 H   0  0  0  0  0  0  0  0  0  0  0  0
   -6.1747    5.2694   -0.5891 H   0  0  0  0  0  0  0  0  0  0  0  0
   -6.9329    3.9015    0.2455 H   0  0  0  0  0  0  0  0  0  0  0  0
   -3.9145    4.4645    0.1353 H   0  0  0  0  0  0  0  0  0  0  0  0
   -4.9709    4.8715    1.4877 H   0  0  0  0  0  0  0  0  0  0  0  0
   -5.5620    2.4316    1.7433 H   0  0  0  0  0  0  0  0  0  0  0  0
   -3.8972    2.8360    2.0946 H   0  0  0  0  0  0  0  0  0  0  0  0
   -3.2913    2.0768   -0.2920 H   0  0  0  0  0  0  0  0  0  0  0  0
   -4.9575    1.5194   -0.4700 H   0  0  0  0  0  0  0  0  0  0  0  0
   -4.5426   -2.7220    0.0930 H   0  0  0  0  0  0  0  0  0  0  0  0
   -2.9682   -3.1278    0.7809 H   0  0  0  0  0  0  0  0  0  0  0  0
   -5.1340   -4.6947    1.2671 H   0  0  0  0  0  0  0  0  0  0  0  0
   -3.9253   -4.4012    2.5309 H   0  0  0  0  0  0  0  0  0  0  0  0
   -6.5476   -2.8802    2.1155 H   0  0  0  0  0  0  0  0  0  0  0  0
   -6.0200   -3.7294    3.5842 H   0  0  0  0  0  0  0  0  0  0  0  0
   -5.5726   -1.0992    3.4315 H   0  0  0  0  0  0  0  0  0  0  0  0
   -4.2526   -2.1397    3.9781 H   0  0  0  0  0  0  0  0  0  0  0  0
   -1.1382    1.1043    2.6302 H   0  0  0  0  0  0  0  0  0  0  0  0
   -1.7099    2.0671    1.2767 H   0  0  0  0  0  0  0  0  0  0  0  0
    0.8729   -0.1263    2.3868 H   0  0  0  0  0  0  0  0  0  0  0  0
    2.7023   -0.9633    0.9923 H   0  0  0  0  0  0  0  0  0  0  0  0
    2.0337   -2.9903   -1.6406 H   0  0  0  0  0  0  0  0  0  0  0  0
    3.8817   -4.0658   -2.8687 H   0  0  0  0  0  0  0  0  0  0  0  0
    5.8168   -2.7146   -3.6458 H   0  0  0  0  0  0  0  0  0  0  0  0
    5.8984   -0.2935   -3.1862 H   0  0  0  0  0  0  0  0  0  0  0  0
    3.3679    2.0615    0.2053 H   0  0  0  0  0  0  0  0  0  0  0  0
    8.2201    0.6055    3.4750 H   0  0  0  0  0  0  0  0  0  0  0  0
    6.7405    0.8748    4.4083 H   0  0  0  0  0  0  0  0  0  0  0  0
    7.1108   -0.7447    3.8031 H   0  0  0  0  0  0  0  0  0  0  0  0
    4.3593    3.0255    2.7346 H   0  0  0  0  0  0  0  0  0  0  0  0
    3.2985    1.6031    2.6921 H   0  0  0  0  0  0  0  0  0  0  0  0
    4.5447    1.7396    3.9364 H   0  0  0  0  0  0  0  0  0  0  0  0
   -0.3051    0.8509   -3.2894 H   0  0  0  0  0  0  0  0  0  0  0  0
    1.3530    0.2755   -3.5137 H   0  0  0  0  0  0  0  0  0  0  0  0
   -0.9769   -0.5375   -5.1218 H   0  0  0  0  0  0  0  0  0  0  0  0
   -0.9096   -2.2860   -4.8762 H   0  0  0  0  0  0  0  0  0  0  0  0
    1.4592   -0.5057   -5.6075 H   0  0  0  0  0  0  0  0  0  0  0  0
    1.6389   -2.1823   -5.0994 H   0  0  0  0  0  0  0  0  0  0  0  0
    0.7221   -1.7877   -6.5821 H   0  0  0  0  0  0  0  0  0  0  0  0
   -1.3306    0.9567   -1.1510 H   0  0  0  0  0  0  0  0  0  0  0  0
  1  2  1  0
  2  3  1  0
  3  4  1  0
  4  5  1  0
  5  6  2  0
  6  7  1  0
  7  8  1  0
  8  9  1  0
  9 10  1  0
 10 11  1  0
  7 12  1  0
 12 13  2  0
 12 14  1  0
 14 15  1  0
 15 16  1  0
 16 17  2  0
 17 18  1  0
 18 19  2  0
 19 20  1  0
 20 21  2  0
 21 22  1  0
 22 23  2  0
 23 24  1  0
 24 25  2  0
 25 26  1  0
 26 27  2  0
 26 28  2  0
 26 29  1  0
 29 30  1  0
 30 31  2  0
 31 32  1  0
 32 33  1  0
 33 34  1  0
 33 35  2  0
 35 36  1  0
 19 37  1  0
 37 38  1  0
 38 39  1  0
 39 40  1  0
 40 41  1  0
 37 42  2  0
 14  5  1  0
 42 16  1  0
 11  7  1  0
 25 20  1  0
 35 30  1  0
  1 43  1  0
  1 44  1  0
  1 45  1  0
  2 46  1  0
  2 47  1  0
  3 48  1  0
  3 49  1  0
  4 50  1  0
  4 51  1  0
  8 52  1  0
  8 53  1  0
  9 54  1  0
  9 55  1  0
 10 56  1  0
 10 57  1  0
 11 58  1  0
 11 59  1  0
 15 60  1  0
 15 61  1  0
 17 62  1  0
 18 63  1  0
 21 64  1  0
 22 65  1  0
 23 66  1  0
 24 67  1  0
 29 68  1  0
 34 69  1  0
 34 70  1  0
 34 71  1  0
 36 72  1  0
 36 73  1  0
 36 74  1  0
 38 75  1  0
 38 76  1  0
 40 77  1  0
 40 78  1  0
 41 79  1  0
 41 80  1  0
 41 81  1  0
 42 82  1  0
M  END
$$$$
