
     RDKit          3D

 41 43  0  0  0  0  0  0  0  0999 V2000
    6.3573   -2.3090    0.3242 C   0  0  0  0  0  0  0  0  0  0  0  0
    5.4874   -1.1098    0.2730 C   0  0  0  0  0  0  0  0  0  0  0  0
    5.8567    0.2361    0.4395 C   0  0  0  0  0  0  0  0  0  0  0  0
    4.6906    0.9594    0.2991 C   0  0  0  0  0  0  0  0  0  0  0  0
    4.4864    2.4279    0.3823 C   0  0  0  0  0  0  0  0  0  0  0  0
    3.6825    0.0341    0.0534 N   0  0  0  0  0  0  0  0  0  0  0  0
    2.2840    0.2707   -0.1772 C   0  0  0  0  0  0  0  0  0  0  0  0
    1.4471   -0.8253   -0.4030 C   0  0  0  0  0  0  0  0  0  0  0  0
    0.0865   -0.6100   -0.6363 C   0  0  0  0  0  0  0  0  0  0  0  0
   -0.4098    0.6927   -0.6374 C   0  0  0  0  0  0  0  0  0  0  0  0
   -1.8298    1.0206   -0.9002 C   0  0  0  0  0  0  0  0  0  0  0  0
   -2.1280    2.1213   -1.3484 O   0  0  0  0  0  0  0  0  0  0  0  0
   -2.7543    0.0427   -0.5920 N   0  0  0  0  0  0  0  0  0  0  0  0
   -4.1813    0.2812   -0.7566 C   0  0  0  0  0  0  0  0  0  0  0  0
   -4.9618   -1.0435   -0.7740 C   0  0  0  0  0  0  0  0  0  0  0  0
   -5.9682   -0.9526    0.3704 C   0  0  0  0  0  0  0  0  0  0  0  0
   -5.3467    0.0365    1.3395 C   0  0  0  0  0  0  0  0  0  0  0  0
   -4.7620    1.0876    0.4113 C   0  0  0  0  0  0  0  0  0  0  0  0
    0.4885    1.7280   -0.4209 C   0  0  0  0  0  0  0  0  0  0  0  0
    1.8132    1.5472   -0.1810 N   0  0  0  0  0  0  0  0  0  0  0  0
    4.1781   -1.2399    0.0475 N   0  0  0  0  0  0  0  0  0  0  0  0
    7.4033   -2.0314    0.4912 H   0  0  0  0  0  0  0  0  0  0  0  0
    6.3010   -2.8654   -0.6173 H   0  0  0  0  0  0  0  0  0  0  0  0
    6.0487   -2.9722    1.1386 H   0  0  0  0  0  0  0  0  0  0  0  0
    6.8429    0.6337    0.6364 H   0  0  0  0  0  0  0  0  0  0  0  0
    4.1063    2.8282   -0.5631 H   0  0  0  0  0  0  0  0  0  0  0  0
    5.4339    2.9364    0.5922 H   0  0  0  0  0  0  0  0  0  0  0  0
    3.7950    2.6840    1.1912 H   0  0  0  0  0  0  0  0  0  0  0  0
    1.8369   -1.8399   -0.4124 H   0  0  0  0  0  0  0  0  0  0  0  0
   -0.5533   -1.4619   -0.8458 H   0  0  0  0  0  0  0  0  0  0  0  0
   -2.4711   -0.7136    0.0167 H   0  0  0  0  0  0  0  0  0  0  0  0
   -4.3225    0.8283   -1.6961 H   0  0  0  0  0  0  0  0  0  0  0  0
   -4.3014   -1.9105   -0.6262 H   0  0  0  0  0  0  0  0  0  0  0  0
   -5.4770   -1.1900   -1.7326 H   0  0  0  0  0  0  0  0  0  0  0  0
   -6.1610   -1.9266    0.8326 H   0  0  0  0  0  0  0  0  0  0  0  0
   -6.9222   -0.5596   -0.0055 H   0  0  0  0  0  0  0  0  0  0  0  0
   -6.0803    0.4582    2.0324 H   0  0  0  0  0  0  0  0  0  0  0  0
   -4.5520   -0.4459    1.9222 H   0  0  0  0  0  0  0  0  0  0  0  0
   -4.0308    1.7296    0.9170 H   0  0  0  0  0  0  0  0  0  0  0  0
   -5.5754    1.7283    0.0424 H   0  0  0  0  0  0  0  0  0  0  0  0
    0.1626    2.7653   -0.4273 H   0  0  0  0  0  0  0  0  0  0  0  0
  1  2  1  0
  2  3  1  0
  3  4  2  0
  4  5  1  0
  4  6  1  0
  6  7  1  0
  7  8  2  0
  8  9  1  0
  9 10  2  0
 10 11  1  0
 11 12  2  0
 11 13  1  0
 13 14  1  0
 14 15  1  0
 15 16  1  0
 16 17  1  0
 17 18  1  0
 10 19  1  0
 19 20  2  0
  6 21  1  0
 21  2  2  0
 20  7  1  0
 18 14  1  0
  1 22  1  0
  1 23  1  0
  1 24  1  0
  3 25  1  0
  5 26  1  0
  5 27  1  0
  5 28  1  0
  8 29  1  0
  9 30  1  0
 13 31  1  0
 14 32  1  0
 15 33  1  0
 15 34  1  0
 16 35  1  0
 16 36  1  0
 17 37  1  0
 17 38  1  0
 18 39  1  0
 18 40  1  0
 19 41  1  0
M  END
$$$$
