
     RDKit          3D

 53 56  0  0  0  0  0  0  0  0999 V2000
    5.0095   -1.3765   -2.6318 C   0  0  0  0  0  0  0  0  0  0  0  0
    4.4949   -0.6078   -1.4498 C   0  0  0  0  0  0  0  0  0  0  0  0
    3.2461   -0.1001   -1.6054 N   0  0  0  0  0  0  0  0  0  0  0  0
    2.7080    0.5896   -0.6007 C   0  0  0  0  0  0  0  0  0  0  0  0
    1.4395    1.1385   -0.6753 N   0  0  0  0  0  0  0  0  0  0  0  0
    0.5896    1.0864   -1.7582 C   0  0  0  0  0  0  0  0  0  0  0  0
    0.8218    0.5483   -2.8369 O   0  0  0  0  0  0  0  0  0  0  0  0
   -0.7432    1.8094   -1.4842 C   0  0  0  0  0  0  0  0  0  0  0  0
   -1.9050    0.9341   -1.7197 N   0  0  0  0  0  0  0  0  0  0  0  0
   -3.1822    1.6627   -1.5987 C   0  0  0  0  0  0  0  0  0  0  0  0
   -3.9274    1.5027   -0.2511 C   0  0  0  0  0  0  0  0  0  0  0  0
   -4.1355    0.0838    0.0972 N   0  0  0  0  0  0  0  0  0  0  0  0
   -5.3018   -0.3190    0.7447 C   0  0  0  0  0  0  0  0  0  0  0  0
   -5.9634    0.5532    1.6305 C   0  0  0  0  0  0  0  0  0  0  0  0
   -7.1376    0.1869    2.3048 C   0  0  0  0  0  0  0  0  0  0  0  0
   -7.6875   -1.0765    2.1185 C   0  0  0  0  0  0  0  0  0  0  0  0
   -7.0553   -1.9721    1.2653 C   0  0  0  0  0  0  0  0  0  0  0  0
   -5.8848   -1.5968    0.5981 C   0  0  0  0  0  0  0  0  0  0  0  0
   -5.3408   -2.5110   -0.2228 F   0  0  0  0  0  0  0  0  0  0  0  0
   -3.2797   -0.8887   -0.6059 C   0  0  0  0  0  0  0  0  0  0  0  0
   -1.8828   -0.2744   -0.8665 C   0  0  0  0  0  0  0  0  0  0  0  0
    3.3293    0.8157    0.5657 N   0  0  0  0  0  0  0  0  0  0  0  0
    4.5747    0.3035    0.7138 C   0  0  0  0  0  0  0  0  0  0  0  0
    5.2177   -0.4207   -0.2810 C   0  0  0  0  0  0  0  0  0  0  0  0
    6.5892   -0.9441   -0.0537 C   0  0  0  0  0  0  0  0  0  0  0  0
    7.2069   -1.5218   -0.9440 O   0  0  0  0  0  0  0  0  0  0  0  0
    7.2382   -0.7001    1.2946 C   0  0  0  0  0  0  0  0  0  0  0  0
    6.2145   -0.5131    2.4009 C   0  0  0  0  0  0  0  0  0  0  0  0
    5.2437    0.5958    2.0293 C   0  0  0  0  0  0  0  0  0  0  0  0
    5.2657   -2.4016   -2.3442 H   0  0  0  0  0  0  0  0  0  0  0  0
    5.8808   -0.8770   -3.0680 H   0  0  0  0  0  0  0  0  0  0  0  0
    4.2430   -1.4429   -3.4138 H   0  0  0  0  0  0  0  0  0  0  0  0
    1.1738    1.6160    0.1705 H   0  0  0  0  0  0  0  0  0  0  0  0
   -0.7661    2.6628   -2.1738 H   0  0  0  0  0  0  0  0  0  0  0  0
   -0.7658    2.2141   -0.4650 H   0  0  0  0  0  0  0  0  0  0  0  0
   -3.0528    2.7311   -1.8169 H   0  0  0  0  0  0  0  0  0  0  0  0
   -3.8400    1.2828   -2.3931 H   0  0  0  0  0  0  0  0  0  0  0  0
   -3.3506    1.9824    0.5503 H   0  0  0  0  0  0  0  0  0  0  0  0
   -4.8828    2.0343   -0.3468 H   0  0  0  0  0  0  0  0  0  0  0  0
   -5.5565    1.5412    1.8328 H   0  0  0  0  0  0  0  0  0  0  0  0
   -7.6147    0.8938    2.9793 H   0  0  0  0  0  0  0  0  0  0  0  0
   -8.5997   -1.3626    2.6359 H   0  0  0  0  0  0  0  0  0  0  0  0
   -7.4622   -2.9661    1.1044 H   0  0  0  0  0  0  0  0  0  0  0  0
   -3.1328   -1.7848    0.0103 H   0  0  0  0  0  0  0  0  0  0  0  0
   -3.7416   -1.1864   -1.5563 H   0  0  0  0  0  0  0  0  0  0  0  0
   -1.2477   -1.0323   -1.3393 H   0  0  0  0  0  0  0  0  0  0  0  0
   -1.4396   -0.0388    0.1117 H   0  0  0  0  0  0  0  0  0  0  0  0
    7.8832    0.1821    1.2063 H   0  0  0  0  0  0  0  0  0  0  0  0
    7.8676   -1.5646    1.5351 H   0  0  0  0  0  0  0  0  0  0  0  0
    6.7194   -0.2705    3.3425 H   0  0  0  0  0  0  0  0  0  0  0  0
    5.6659   -1.4510    2.5590 H   0  0  0  0  0  0  0  0  0  0  0  0
    5.7693    1.5551    1.9514 H   0  0  0  0  0  0  0  0  0  0  0  0
    4.4879    0.6954    2.8168 H   0  0  0  0  0  0  0  0  0  0  0  0
  1  2  1  0
  2  3  2  0
  3  4  1  0
  4  5  1  0
  5  6  1  0
  6  7  2  0
  6  8  1  0
  8  9  1  0
  9 10  1  0
 10 11  1  0
 11 12  1  0
 12 13  1  0
 13 14  2  0
 14 15  1  0
 15 16  2  0
 16 17  1  0
 17 18  2  0
 18 19  1  0
 12 20  1  0
 20 21  1  0
  4 22  2  0
 22 23  1  0
 23 24  2  0
 24 25  1  0
 25 26  2  0
 25 27  1  0
 27 28  1  0
 28 29  1  0
 24  2  1  0
 21  9  1  0
 29 23  1  0
 18 13  1  0
  1 30  1  0
  1 31  1  0
  1 32  1  0
  5 33  1  0
  8 34  1  0
  8 35  1  0
 10 36  1  0
 10 37  1  0
 11 38  1  0
 11 39  1  0
 14 40  1  0
 15 41  1  0
 16 42  1  0
 17 43  1  0
 20 44  1  0
 20 45  1  0
 21 46  1  0
 21 47  1  0
 27 48  1  0
 27 49  1  0
 28 50  1  0
 28 51  1  0
 29 52  1  0
 29 53  1  0
M  END
$$$$
