
     RDKit          3D

 30 32  0  0  0  0  0  0  0  0999 V2000
   -3.8802    1.5008    0.0298 N   0  0  0  0  0  0  0  0  0  0  0  0
   -2.6187    1.4813   -0.4911 C   0  0  0  0  0  0  0  0  0  0  0  0
   -2.1229    2.5421   -0.8732 O   0  0  0  0  0  0  0  0  0  0  0  0
   -1.9449    0.1086   -0.6759 C   0  0  0  0  0  0  0  0  0  0  0  0
   -2.3951   -0.9682    0.3429 C   0  0  0  0  0  0  0  0  0  0  0  0
   -1.5166   -2.2342    0.2846 C   0  0  0  0  0  0  0  0  0  0  0  0
   -0.0432   -1.9435    0.6200 C   0  0  0  0  0  0  0  0  0  0  0  0
    0.4252   -0.7017   -0.0577 C   0  0  0  0  0  0  0  0  0  0  0  0
   -0.4438    0.2199   -0.6080 C   0  0  0  0  0  0  0  0  0  0  0  0
    0.2981    1.2543   -1.1140 N   0  0  0  0  0  0  0  0  0  0  0  0
    1.6390    1.0162   -0.9081 C   0  0  0  0  0  0  0  0  0  0  0  0
    2.7520    1.7940   -1.2493 C   0  0  0  0  0  0  0  0  0  0  0  0
    4.0149    1.3016   -0.9061 C   0  0  0  0  0  0  0  0  0  0  0  0
    4.1480    0.0824   -0.2462 C   0  0  0  0  0  0  0  0  0  0  0  0
    5.7205   -0.4925    0.1631 Cl  0  0  0  0  0  0  0  0  0  0  0  0
    3.0297   -0.6852    0.0933 C   0  0  0  0  0  0  0  0  0  0  0  0
    1.7476   -0.2096   -0.2453 C   0  0  0  0  0  0  0  0  0  0  0  0
   -4.2746    2.4195    0.1912 H   0  0  0  0  0  0  0  0  0  0  0  0
   -4.2607    0.7388    0.5718 H   0  0  0  0  0  0  0  0  0  0  0  0
   -2.2127   -0.2339   -1.6846 H   0  0  0  0  0  0  0  0  0  0  0  0
   -3.4348   -1.2535    0.1424 H   0  0  0  0  0  0  0  0  0  0  0  0
   -2.3683   -0.5613    1.3626 H   0  0  0  0  0  0  0  0  0  0  0  0
   -1.9049   -2.9891    0.9777 H   0  0  0  0  0  0  0  0  0  0  0  0
   -1.5827   -2.6635   -0.7236 H   0  0  0  0  0  0  0  0  0  0  0  0
    0.5754   -2.7997    0.3292 H   0  0  0  0  0  0  0  0  0  0  0  0
    0.0625   -1.8133    1.7039 H   0  0  0  0  0  0  0  0  0  0  0  0
   -0.0936    2.0928   -1.5299 H   0  0  0  0  0  0  0  0  0  0  0  0
    2.6433    2.7452   -1.7605 H   0  0  0  0  0  0  0  0  0  0  0  0
    4.8974    1.8840   -1.1592 H   0  0  0  0  0  0  0  0  0  0  0  0
    3.1440   -1.6323    0.6100 H   0  0  0  0  0  0  0  0  0  0  0  0
  1  2  1  0
  2  3  2  0
  2  4  1  0
  4  5  1  0
  5  6  1  0
  6  7  1  0
  7  8  1  0
  8  9  2  0
  9 10  1  0
 10 11  1  0
 11 12  2  0
 12 13  1  0
 13 14  2  0
 14 15  1  0
 14 16  1  0
 16 17  2  0
  9  4  1  0
 17 11  1  0
 17  8  1  0
  1 18  1  0
  1 19  1  0
  4 20  1  0
  5 21  1  0
  5 22  1  0
  6 23  1  0
  6 24  1  0
  7 25  1  0
  7 26  1  0
 10 27  1  0
 12 28  1  0
 13 29  1  0
 16 30  1  0
M  END
$$$$
