
     RDKit          3D

 51 54  0  0  0  0  0  0  0  0999 V2000
    3.4303   -3.6039    0.2841 C   0  0  0  0  0  0  0  0  0  0  0  0
    3.5077   -2.4068    0.2133 C   0  0  0  0  0  0  0  0  0  0  0  0
    3.6223   -0.9347    0.1289 C   0  0  2  0  0  0  0  0  0  0  0  0
    4.7535   -0.6541   -0.6822 O   0  0  0  0  0  0  0  0  0  0  0  0
    3.7878   -0.3420    1.5563 C   0  0  0  0  0  0  0  0  0  0  0  0
    2.3970    0.1700    1.9871 C   0  0  0  0  0  0  0  0  0  0  0  0
    1.4506   -0.2843    0.8774 C   0  0  1  0  0  0  0  0  0  0  0  0
    0.1106    0.4442    0.7117 C   0  0  2  0  0  0  0  0  0  0  0  0
   -0.7193    0.3827    2.0011 C   0  0  0  0  0  0  0  0  0  0  0  0
   -2.0607    1.0825    1.8275 C   0  0  0  0  0  0  0  0  0  0  0  0
   -2.8394    0.5340    0.6553 C   0  0  0  0  0  0  0  0  0  0  0  0
   -4.1247    0.1748    0.8234 C   0  0  0  0  0  0  0  0  0  0  0  0
   -4.9719   -0.2524   -0.3134 C   0  0  0  0  0  0  0  0  0  0  0  0
   -6.1314   -0.6009   -0.1056 O   0  0  0  0  0  0  0  0  0  0  0  0
   -4.3955   -0.1549   -1.7004 C   0  0  0  0  0  0  0  0  0  0  0  0
   -2.9023   -0.4477   -1.6781 C   0  0  0  0  0  0  0  0  0  0  0  0
   -2.0996    0.4469   -0.6867 C   0  0  1  0  0  0  0  0  0  0  0  0
   -1.9945    1.8733   -1.2718 C   0  0  0  0  0  0  0  0  0  0  0  0
   -0.6809   -0.2070   -0.4657 C   0  0  1  0  0  0  0  0  0  0  0  0
    0.1753   -0.3001   -1.7584 C   0  0  0  0  0  0  0  0  0  0  0  0
    1.5624   -0.9294   -1.5309 C   0  0  0  0  0  0  0  0  0  0  0  0
    2.3290   -0.2323   -0.3921 C   0  0  2  0  0  0  0  0  0  0  0  0
    2.6699    1.2172   -0.8488 C   0  0  0  0  0  0  0  0  0  0  0  0
    3.3703   -4.6662    0.3392 H   0  0  0  0  0  0  0  0  0  0  0  0
    5.0571    0.2465   -0.4896 H   0  0  0  0  0  0  0  0  0  0  0  0
    4.1590   -1.0850    2.2726 H   0  0  0  0  0  0  0  0  0  0  0  0
    4.5051    0.4872    1.5744 H   0  0  0  0  0  0  0  0  0  0  0  0
    2.1089   -0.2430    2.9594 H   0  0  0  0  0  0  0  0  0  0  0  0
    2.4084    1.2616    2.0827 H   0  0  0  0  0  0  0  0  0  0  0  0
    1.2043   -1.3359    1.0949 H   0  0  0  0  0  0  0  0  0  0  0  0
    0.2994    1.5005    0.4916 H   0  0  0  0  0  0  0  0  0  0  0  0
   -0.1768    0.8634    2.8235 H   0  0  0  0  0  0  0  0  0  0  0  0
   -0.8829   -0.6620    2.2961 H   0  0  0  0  0  0  0  0  0  0  0  0
   -2.6294    0.9886    2.7608 H   0  0  0  0  0  0  0  0  0  0  0  0
   -1.8973    2.1564    1.6742 H   0  0  0  0  0  0  0  0  0  0  0  0
   -4.6316    0.2302    1.7807 H   0  0  0  0  0  0  0  0  0  0  0  0
   -4.6079    0.8415   -2.1004 H   0  0  0  0  0  0  0  0  0  0  0  0
   -4.8964   -0.8924   -2.3373 H   0  0  0  0  0  0  0  0  0  0  0  0
   -2.7695   -1.5041   -1.4051 H   0  0  0  0  0  0  0  0  0  0  0  0
   -2.5139   -0.3402   -2.6979 H   0  0  0  0  0  0  0  0  0  0  0  0
   -1.3255    2.5128   -0.6877 H   0  0  0  0  0  0  0  0  0  0  0  0
   -2.9706    2.3721   -1.2937 H   0  0  0  0  0  0  0  0  0  0  0  0
   -1.6213    1.8607   -2.3012 H   0  0  0  0  0  0  0  0  0  0  0  0
   -0.8648   -1.2503   -0.1604 H   0  0  0  0  0  0  0  0  0  0  0  0
    0.2990    0.6898   -2.2074 H   0  0  0  0  0  0  0  0  0  0  0  0
   -0.3435   -0.9106   -2.5059 H   0  0  0  0  0  0  0  0  0  0  0  0
    2.1407   -0.8934   -2.4619 H   0  0  0  0  0  0  0  0  0  0  0  0
    1.4063   -1.9907   -1.3048 H   0  0  0  0  0  0  0  0  0  0  0  0
    1.7831    1.8192   -1.0616 H   0  0  0  0  0  0  0  0  0  0  0  0
    3.2470    1.7683   -0.0996 H   0  0  0  0  0  0  0  0  0  0  0  0
    3.2663    1.1999   -1.7685 H   0  0  0  0  0  0  0  0  0  0  0  0
  1  2  3  0
  3  2  1  1
  3  4  1  0
  3  5  1  0
  5  6  1  0
  6  7  1  0
  7  8  1  0
  8  9  1  0
  9 10  1  0
 10 11  1  0
 11 12  2  0
 12 13  1  0
 13 14  2  0
 13 15  1  0
 15 16  1  0
 16 17  1  0
 17 18  1  6
 17 19  1  0
 19 20  1  0
 20 21  1  0
 21 22  1  0
 22 23  1  6
 22  3  1  0
 22  7  1  0
 19  8  1  0
 17 11  1  0
  1 24  1  0
  4 25  1  0
  5 26  1  0
  5 27  1  0
  6 28  1  0
  6 29  1  0
  7 30  1  1
  8 31  1  6
  9 32  1  0
  9 33  1  0
 10 34  1  0
 10 35  1  0
 12 36  1  0
 15 37  1  0
 15 38  1  0
 16 39  1  0
 16 40  1  0
 18 41  1  0
 18 42  1  0
 18 43  1  0
 19 44  1  1
 20 45  1  0
 20 46  1  0
 21 47  1  0
 21 48  1  0
 23 49  1  0
 23 50  1  0
 23 51  1  0
M  END
$$$$
