
     RDKit          3D

 48 50  0  0  0  0  0  0  0  0999 V2000
   -6.1368    1.3527   -1.5964 C   0  0  0  0  0  0  0  0  0  0  0  0
   -6.4118    0.7740   -0.2308 C   0  0  0  0  0  0  0  0  0  0  0  0
   -7.6536    0.9862    0.4016 C   0  0  0  0  0  0  0  0  0  0  0  0
   -8.9243    1.9002   -0.3404 Cl  0  0  0  0  0  0  0  0  0  0  0  0
   -7.9146    0.4764    1.6789 C   0  0  0  0  0  0  0  0  0  0  0  0
   -6.9393   -0.2422    2.3614 C   0  0  0  0  0  0  0  0  0  0  0  0
   -5.6913   -0.4434    1.7754 C   0  0  0  0  0  0  0  0  0  0  0  0
   -5.4227    0.0638    0.4928 C   0  0  0  0  0  0  0  0  0  0  0  0
   -3.7868   -0.1588   -0.2069 S   0  0  0  0  0  6  0  0  0  0  0  0
   -3.9262   -1.1498   -1.2550 O   0  0  0  0  0  0  0  0  0  0  0  0
   -3.2628    1.1649   -0.4633 O   0  0  0  0  0  0  0  0  0  0  0  0
   -2.9151   -0.9275    1.0190 N   0  0  0  0  0  0  0  0  0  0  0  0
   -1.6664   -0.2624    1.3241 C   0  0  0  0  0  0  0  0  0  0  0  0
   -0.5492   -0.8434    0.9663 N   0  0  0  0  0  0  0  0  0  0  0  0
    0.5314   -0.0828    1.4070 C   0  0  0  0  0  0  0  0  0  0  0  0
    1.9130   -0.5620    1.0760 C   0  0  0  0  0  0  0  0  0  0  0  0
    2.8131    0.5003    0.4529 C   0  0  0  0  0  0  0  0  0  0  0  0
    2.6339    1.7055    0.6415 O   0  0  0  0  0  0  0  0  0  0  0  0
    3.8850    0.0461   -0.3080 N   0  0  0  0  0  0  0  0  0  0  0  0
    4.7368    1.0217   -0.9937 C   0  0  0  0  0  0  0  0  0  0  0  0
    5.3499    0.4532   -2.2882 C   0  0  0  0  0  0  0  0  0  0  0  0
    6.0661   -0.8317   -2.1408 N   0  0  0  0  0  0  0  0  0  0  0  0
    7.5095   -0.6741   -2.2936 C   0  0  0  0  0  0  0  0  0  0  0  0
    5.7432   -1.5186   -0.8773 C   0  0  0  0  0  0  0  0  0  0  0  0
    4.2673   -1.3616   -0.4664 C   0  0  0  0  0  0  0  0  0  0  0  0
    0.1771    1.0155    2.1741 C   0  0  0  0  0  0  0  0  0  0  0  0
   -1.5292    1.1208    2.3106 S   0  0  0  0  0  0  0  0  0  0  0  0
   -5.4583    0.7280   -2.1833 H   0  0  0  0  0  0  0  0  0  0  0  0
   -5.7067    2.3547   -1.4971 H   0  0  0  0  0  0  0  0  0  0  0  0
   -7.0448    1.4187   -2.2041 H   0  0  0  0  0  0  0  0  0  0  0  0
   -8.8813    0.6455    2.1508 H   0  0  0  0  0  0  0  0  0  0  0  0
   -7.1475   -0.6316    3.3551 H   0  0  0  0  0  0  0  0  0  0  0  0
   -4.9429   -0.9906    2.3420 H   0  0  0  0  0  0  0  0  0  0  0  0
   -2.6949   -1.8657    0.6816 H   0  0  0  0  0  0  0  0  0  0  0  0
    1.8161   -1.4071    0.3848 H   0  0  0  0  0  0  0  0  0  0  0  0
    2.3979   -0.9219    1.9909 H   0  0  0  0  0  0  0  0  0  0  0  0
    4.1617    1.9247   -1.2252 H   0  0  0  0  0  0  0  0  0  0  0  0
    5.5303    1.3067   -0.2921 H   0  0  0  0  0  0  0  0  0  0  0  0
    4.5300    0.2721   -2.9956 H   0  0  0  0  0  0  0  0  0  0  0  0
    5.9829    1.2175   -2.7562 H   0  0  0  0  0  0  0  0  0  0  0  0
    7.9329   -0.0084   -1.5335 H   0  0  0  0  0  0  0  0  0  0  0  0
    7.7500   -0.2681   -3.2825 H   0  0  0  0  0  0  0  0  0  0  0  0
    8.0128   -1.6447   -2.2226 H   0  0  0  0  0  0  0  0  0  0  0  0
    6.3654   -1.1252   -0.0606 H   0  0  0  0  0  0  0  0  0  0  0  0
    5.9751   -2.5854   -0.9786 H   0  0  0  0  0  0  0  0  0  0  0  0
    4.0918   -1.8939    0.4741 H   0  0  0  0  0  0  0  0  0  0  0  0
    3.6100   -1.7948   -1.2297 H   0  0  0  0  0  0  0  0  0  0  0  0
    0.8233    1.7467    2.6406 H   0  0  0  0  0  0  0  0  0  0  0  0
  1  2  1  0
  2  3  2  0
  3  4  1  0
  3  5  1  0
  5  6  2  0
  6  7  1  0
  7  8  2  0
  8  9  1  0
  9 10  2  0
  9 11  2  0
  9 12  1  0
 12 13  1  0
 13 14  2  0
 14 15  1  0
 15 16  1  0
 16 17  1  0
 17 18  2  0
 17 19  1  0
 19 20  1  0
 20 21  1  0
 21 22  1  0
 22 23  1  0
 22 24  1  0
 24 25  1  0
 15 26  2  0
 26 27  1  0
  8  2  1  0
 27 13  1  0
 25 19  1  0
  1 28  1  0
  1 29  1  0
  1 30  1  0
  5 31  1  0
  6 32  1  0
  7 33  1  0
 12 34  1  0
 16 35  1  0
 16 36  1  0
 20 37  1  0
 20 38  1  0
 21 39  1  0
 21 40  1  0
 23 41  1  0
 23 42  1  0
 23 43  1  0
 24 44  1  0
 24 45  1  0
 25 46  1  0
 25 47  1  0
 26 48  1  0
M  END
$$$$
