
     RDKit          3D

 40 42  0  0  0  0  0  0  0  0999 V2000
   -5.1506    2.2493   -1.2185 C   0  0  0  0  0  0  0  0  0  0  0  0
   -5.7641    0.9270   -0.8384 C   0  0  0  0  0  0  0  0  0  0  0  0
   -6.9693    0.7264   -0.9747 O   0  0  0  0  0  0  0  0  0  0  0  0
   -4.8854   -0.1497   -0.2903 C   0  0  0  0  0  0  0  0  0  0  0  0
   -5.4766   -1.3593    0.0897 C   0  0  0  0  0  0  0  0  0  0  0  0
   -4.6922   -2.3893    0.6041 C   0  0  0  0  0  0  0  0  0  0  0  0
   -3.3126   -2.2193    0.7436 C   0  0  0  0  0  0  0  0  0  0  0  0
   -2.7048   -1.0188    0.3725 C   0  0  0  0  0  0  0  0  0  0  0  0
   -1.3177   -0.7745    0.4768 N   0  0  0  0  0  0  0  0  0  0  0  0
   -0.3581   -1.6090    1.0238 C   0  0  0  0  0  0  0  0  0  0  0  0
   -0.5494   -2.6827    1.5808 O   0  0  0  0  0  0  0  0  0  0  0  0
    1.0394   -1.0957    0.9481 C   0  0  0  0  0  0  0  0  0  0  0  0
    1.9234   -1.4000    1.9836 C   0  0  0  0  0  0  0  0  0  0  0  0
    3.2402   -0.9293    1.9398 C   0  0  0  0  0  0  0  0  0  0  0  0
    3.7097   -0.1645    0.8803 C   0  0  0  0  0  0  0  0  0  0  0  0
    4.9844    0.2611    0.8966 N   0  0  0  0  0  0  0  0  0  0  0  0
    5.4443    0.9973   -0.1422 C   0  0  0  0  0  0  0  0  0  0  0  0
    6.8737    1.4469   -0.0810 C   0  0  0  0  0  0  0  0  0  0  0  0
    4.6526    1.3368   -1.2288 C   0  0  0  0  0  0  0  0  0  0  0  0
    3.3365    0.8962   -1.2356 C   0  0  0  0  0  0  0  0  0  0  0  0
    2.5144    1.2148   -2.2857 O   0  0  0  0  0  0  0  0  0  0  0  0
    2.8264    0.1304   -0.1762 C   0  0  0  0  0  0  0  0  0  0  0  0
    1.4962   -0.3449   -0.1389 C   0  0  0  0  0  0  0  0  0  0  0  0
   -3.4995    0.0142   -0.1486 C   0  0  0  0  0  0  0  0  0  0  0  0
   -4.4331    2.1138   -2.0319 H   0  0  0  0  0  0  0  0  0  0  0  0
   -4.6752    2.7114   -0.3495 H   0  0  0  0  0  0  0  0  0  0  0  0
   -5.9386    2.9231   -1.5694 H   0  0  0  0  0  0  0  0  0  0  0  0
   -6.5504   -1.5062   -0.0134 H   0  0  0  0  0  0  0  0  0  0  0  0
   -5.1528   -3.3298    0.8976 H   0  0  0  0  0  0  0  0  0  0  0  0
   -2.7396   -3.0508    1.1431 H   0  0  0  0  0  0  0  0  0  0  0  0
   -1.0065    0.1385    0.1720 H   0  0  0  0  0  0  0  0  0  0  0  0
    1.5950   -2.0020    2.8289 H   0  0  0  0  0  0  0  0  0  0  0  0
    3.9194   -1.1698    2.7551 H   0  0  0  0  0  0  0  0  0  0  0  0
    7.3542    1.0954    0.8378 H   0  0  0  0  0  0  0  0  0  0  0  0
    6.9271    2.5400   -0.0966 H   0  0  0  0  0  0  0  0  0  0  0  0
    7.4327    1.0466   -0.9325 H   0  0  0  0  0  0  0  0  0  0  0  0
    5.0618    1.9301   -2.0378 H   0  0  0  0  0  0  0  0  0  0  0  0
    3.0286    1.6931   -2.9580 H   0  0  0  0  0  0  0  0  0  0  0  0
    0.8435   -0.1429   -0.9848 H   0  0  0  0  0  0  0  0  0  0  0  0
   -3.0271    0.9462   -0.4415 H   0  0  0  0  0  0  0  0  0  0  0  0
  1  2  1  0
  2  3  2  0
  2  4  1  0
  4  5  2  0
  5  6  1  0
  6  7  2  0
  7  8  1  0
  8  9  1  0
  9 10  1  0
 10 11  2  0
 10 12  1  0
 12 13  2  0
 13 14  1  0
 14 15  2  0
 15 16  1  0
 16 17  2  0
 17 18  1  0
 17 19  1  0
 19 20  2  0
 20 21  1  0
 20 22  1  0
 22 23  2  0
  8 24  2  0
 24  4  1  0
 23 12  1  0
 22 15  1  0
  1 25  1  0
  1 26  1  0
  1 27  1  0
  5 28  1  0
  6 29  1  0
  7 30  1  0
  9 31  1  0
 13 32  1  0
 14 33  1  0
 18 34  1  0
 18 35  1  0
 18 36  1  0
 19 37  1  0
 21 38  1  0
 23 39  1  0
 24 40  1  0
M  END
$$$$
