
     RDKit          3D

 55 58  0  0  0  0  0  0  0  0999 V2000
    8.4162   -1.6412    0.5562 C   0  0  0  0  0  0  0  0  0  0  0  0
    8.0302   -0.2837   -0.0051 C   0  0  0  0  0  0  0  0  0  0  0  0
    6.7234   -0.3248   -0.5759 O   0  0  0  0  0  0  0  0  0  0  0  0
    5.6432   -0.0424    0.2156 C   0  0  0  0  0  0  0  0  0  0  0  0
    5.6646    0.1541    1.5987 C   0  0  0  0  0  0  0  0  0  0  0  0
    4.4904    0.4349    2.3114 C   0  0  0  0  0  0  0  0  0  0  0  0
    3.3114    0.5016    1.5753 C   0  0  0  0  0  0  0  0  0  0  0  0
    2.0833    0.7610    2.0834 O   0  0  0  0  0  0  0  0  0  0  0  0
    1.1804    0.7263    1.0511 C   0  0  0  0  0  0  0  0  0  0  0  0
   -0.2093    0.9647    1.4053 C   0  0  0  0  0  0  0  0  0  0  0  0
   -0.5644    1.4976    2.4563 O   0  0  0  0  0  0  0  0  0  0  0  0
   -1.1417    0.5349    0.4908 N   0  0  0  0  0  0  0  0  0  0  0  0
   -2.5718    0.6700    0.7087 C   0  0  1  0  0  0  0  0  0  0  0  0
   -3.0245    2.1126    0.4300 C   0  0  0  0  0  0  0  0  0  0  0  0
   -4.5224    2.3870    0.5796 C   0  0  0  0  0  0  0  0  0  0  0  0
   -5.2753    1.8135    2.1413 S   0  0  0  0  0  0  0  0  0  0  0  0
   -4.3593    2.8509    3.3135 C   0  0  0  0  0  0  0  0  0  0  0  0
   -3.2253   -0.3147   -0.2163 C   0  0  0  0  0  0  0  0  0  0  0  0
   -2.7725   -0.7126   -1.3923 N   0  0  0  0  0  0  0  0  0  0  0  0
   -3.6965   -1.6205   -1.8510 C   0  0  0  0  0  0  0  0  0  0  0  0
   -3.7214   -2.3467   -3.0501 C   0  0  0  0  0  0  0  0  0  0  0  0
   -4.7920   -3.2193   -3.2846 C   0  0  0  0  0  0  0  0  0  0  0  0
   -5.8157   -3.3650   -2.3448 C   0  0  0  0  0  0  0  0  0  0  0  0
   -5.8072   -2.6488   -1.1420 C   0  0  0  0  0  0  0  0  0  0  0  0
   -4.7282   -1.7875   -0.9341 C   0  0  0  0  0  0  0  0  0  0  0  0
   -4.4002   -0.9533    0.1023 N   0  0  0  0  0  0  0  0  0  0  0  0
    1.8548    0.4691   -0.1435 C   0  0  0  0  0  0  0  0  0  0  0  0
    1.2985    0.3913   -1.5200 C   0  0  0  0  0  0  0  0  0  0  0  0
    3.2349    0.3089    0.2067 C   0  0  0  0  0  0  0  0  0  0  0  0
    4.4282    0.0300   -0.4877 C   0  0  0  0  0  0  0  0  0  0  0  0
    8.3328   -2.4125   -0.2167 H   0  0  0  0  0  0  0  0  0  0  0  0
    7.7538   -1.9401    1.3739 H   0  0  0  0  0  0  0  0  0  0  0  0
    9.4445   -1.6270    0.9286 H   0  0  0  0  0  0  0  0  0  0  0  0
    8.1449    0.5218    0.7284 H   0  0  0  0  0  0  0  0  0  0  0  0
    8.7172   -0.0417   -0.8242 H   0  0  0  0  0  0  0  0  0  0  0  0
    6.5853    0.0884    2.1692 H   0  0  0  0  0  0  0  0  0  0  0  0
    4.4920    0.5903    3.3836 H   0  0  0  0  0  0  0  0  0  0  0  0
   -0.8683   -0.0118   -0.3154 H   0  0  0  0  0  0  0  0  0  0  0  0
   -2.7680    0.3928    1.7505 H   0  0  0  0  0  0  0  0  0  0  0  0
   -2.7329    2.3959   -0.5914 H   0  0  0  0  0  0  0  0  0  0  0  0
   -2.4733    2.8007    1.0833 H   0  0  0  0  0  0  0  0  0  0  0  0
   -5.0694    1.9038   -0.2370 H   0  0  0  0  0  0  0  0  0  0  0  0
   -4.7122    3.4613    0.4791 H   0  0  0  0  0  0  0  0  0  0  0  0
   -4.7832    2.7171    4.3124 H   0  0  0  0  0  0  0  0  0  0  0  0
   -3.3072    2.5587    3.3468 H   0  0  0  0  0  0  0  0  0  0  0  0
   -4.4447    3.9054    3.0391 H   0  0  0  0  0  0  0  0  0  0  0  0
   -2.9250   -2.2288   -3.7759 H   0  0  0  0  0  0  0  0  0  0  0  0
   -4.8246   -3.7888   -4.2104 H   0  0  0  0  0  0  0  0  0  0  0  0
   -6.6363   -4.0494   -2.5513 H   0  0  0  0  0  0  0  0  0  0  0  0
   -6.6018   -2.7629   -0.4128 H   0  0  0  0  0  0  0  0  0  0  0  0
   -4.9401   -0.8082    0.9459 H   0  0  0  0  0  0  0  0  0  0  0  0
    0.5632    1.1837   -1.6918 H   0  0  0  0  0  0  0  0  0  0  0  0
    0.8203   -0.5793   -1.6846 H   0  0  0  0  0  0  0  0  0  0  0  0
    2.0825    0.5109   -2.2745 H   0  0  0  0  0  0  0  0  0  0  0  0
    4.4185   -0.1284   -1.5621 H   0  0  0  0  0  0  0  0  0  0  0  0
  1  2  1  0
  2  3  1  0
  3  4  1  0
  4  5  2  0
  5  6  1  0
  6  7  2  0
  7  8  1  0
  8  9  1  0
  9 10  1  0
 10 11  2  0
 10 12  1  0
 12 13  1  0
 13 14  1  0
 14 15  1  0
 15 16  1  0
 16 17  1  0
 13 18  1  0
 18 19  2  0
 19 20  1  0
 20 21  2  0
 21 22  1  0
 22 23  2  0
 23 24  1  0
 24 25  2  0
 25 26  1  0
  9 27  2  0
 27 28  1  0
 27 29  1  0
 29 30  2  0
 30  4  1  0
 29  7  1  0
 26 18  1  0
 25 20  1  0
  1 31  1  0
  1 32  1  0
  1 33  1  0
  2 34  1  0
  2 35  1  0
  5 36  1  0
  6 37  1  0
 12 38  1  0
 13 39  1  1
 14 40  1  0
 14 41  1  0
 15 42  1  0
 15 43  1  0
 17 44  1  0
 17 45  1  0
 17 46  1  0
 21 47  1  0
 22 48  1  0
 23 49  1  0
 24 50  1  0
 26 51  1  0
 28 52  1  0
 28 53  1  0
 28 54  1  0
 30 55  1  0
M  END
$$$$
