
     RDKit          3D

 57 59  0  0  0  0  0  0  0  0999 V2000
    7.9698   -1.4401   -0.4091 C   0  0  0  0  0  0  0  0  0  0  0  0
    6.6430   -1.0221   -0.1178 O   0  0  0  0  0  0  0  0  0  0  0  0
    5.6962   -1.2292   -1.0836 C   0  0  0  0  0  0  0  0  0  0  0  0
    5.9099   -1.8468   -2.3148 C   0  0  0  0  0  0  0  0  0  0  0  0
    4.8540   -2.0021   -3.2197 C   0  0  0  0  0  0  0  0  0  0  0  0
    3.5761   -1.5390   -2.8978 C   0  0  0  0  0  0  0  0  0  0  0  0
    2.4717   -1.6450   -3.7133 O   0  0  0  0  0  0  0  0  0  0  0  0
    2.6708   -2.2207   -4.9987 C   0  0  0  0  0  0  0  0  0  0  0  0
    3.3539   -0.9128   -1.6530 C   0  0  0  0  0  0  0  0  0  0  0  0
    2.0364   -0.4724   -1.3920 N   0  0  0  0  0  0  0  0  0  0  0  0
    1.5520    0.2032   -0.3005 C   0  0  0  0  0  0  0  0  0  0  0  0
    2.2212    0.5619    0.6646 O   0  0  0  0  0  0  0  0  0  0  0  0
    0.1932    0.4506   -0.3450 N   0  0  0  0  0  0  0  0  0  0  0  0
   -0.7643    0.0705   -1.3748 C   0  0  0  0  0  0  0  0  0  0  0  0
   -2.0880    0.7039   -0.9592 C   0  0  0  0  0  0  0  0  0  0  0  0
   -1.9518    0.8130    0.5631 C   0  0  0  0  0  0  0  0  0  0  0  0
   -2.9285    1.6975    1.2240 N   0  0  0  0  0  0  0  0  0  0  0  0
   -2.9056    3.0639    0.9361 C   0  0  0  0  0  0  0  0  0  0  0  0
   -3.8548    3.9637    1.6877 C   0  0  0  0  0  0  0  0  0  0  0  0
   -2.1504    3.5579    0.0984 O   0  0  0  0  0  0  0  0  0  0  0  0
   -3.8748    1.0847    2.1872 C   0  0  0  0  0  0  0  0  0  0  0  0
   -3.1695    0.5877    3.4590 C   0  0  0  0  0  0  0  0  0  0  0  0
   -3.9588   -0.5288    4.1340 C   0  0  0  0  0  0  0  0  0  0  0  0
   -5.3538   -0.3263    3.9360 O   0  0  0  0  0  0  0  0  0  0  0  0
   -5.7567   -0.5316    2.5806 C   0  0  0  0  0  0  0  0  0  0  0  0
   -4.7353   -0.0197    1.5653 C   0  0  0  0  0  0  0  0  0  0  0  0
   -0.4656    1.1548    0.7475 C   0  0  0  0  0  0  0  0  0  0  0  0
    4.4167   -0.7658   -0.7583 C   0  0  0  0  0  0  0  0  0  0  0  0
    8.0192   -2.5249   -0.5500 H   0  0  0  0  0  0  0  0  0  0  0  0
    8.5969   -1.1878    0.4516 H   0  0  0  0  0  0  0  0  0  0  0  0
    8.3696   -0.9091   -1.2795 H   0  0  0  0  0  0  0  0  0  0  0  0
    6.8865   -2.2215   -2.6025 H   0  0  0  0  0  0  0  0  0  0  0  0
    5.0667   -2.4906   -4.1644 H   0  0  0  0  0  0  0  0  0  0  0  0
    3.3791   -1.6317   -5.5907 H   0  0  0  0  0  0  0  0  0  0  0  0
    1.7097   -2.2083   -5.5218 H   0  0  0  0  0  0  0  0  0  0  0  0
    2.9909   -3.2646   -4.9176 H   0  0  0  0  0  0  0  0  0  0  0  0
    1.4003   -0.6513   -2.1539 H   0  0  0  0  0  0  0  0  0  0  0  0
   -0.8313   -1.0229   -1.3870 H   0  0  0  0  0  0  0  0  0  0  0  0
   -0.4344    0.4200   -2.3577 H   0  0  0  0  0  0  0  0  0  0  0  0
   -2.1905    1.6830   -1.4374 H   0  0  0  0  0  0  0  0  0  0  0  0
   -2.9498    0.1016   -1.2632 H   0  0  0  0  0  0  0  0  0  0  0  0
   -2.0833   -0.1988    0.9676 H   0  0  0  0  0  0  0  0  0  0  0  0
   -3.7026    3.8663    2.7658 H   0  0  0  0  0  0  0  0  0  0  0  0
   -3.6532    5.0052    1.4171 H   0  0  0  0  0  0  0  0  0  0  0  0
   -4.8881    3.7371    1.4128 H   0  0  0  0  0  0  0  0  0  0  0  0
   -4.5851    1.8503    2.5116 H   0  0  0  0  0  0  0  0  0  0  0  0
   -3.0717    1.4371    4.1473 H   0  0  0  0  0  0  0  0  0  0  0  0
   -2.1482    0.2391    3.2725 H   0  0  0  0  0  0  0  0  0  0  0  0
   -3.6719   -1.5130    3.7443 H   0  0  0  0  0  0  0  0  0  0  0  0
   -3.7577   -0.5331    5.2100 H   0  0  0  0  0  0  0  0  0  0  0  0
   -5.9535   -1.5979    2.4242 H   0  0  0  0  0  0  0  0  0  0  0  0
   -6.7082   -0.0055    2.4502 H   0  0  0  0  0  0  0  0  0  0  0  0
   -4.1104   -0.8641    1.2518 H   0  0  0  0  0  0  0  0  0  0  0  0
   -5.2451    0.3292    0.6596 H   0  0  0  0  0  0  0  0  0  0  0  0
   -0.2331    2.2175    0.6416 H   0  0  0  0  0  0  0  0  0  0  0  0
   -0.0863    0.8189    1.7183 H   0  0  0  0  0  0  0  0  0  0  0  0
    4.2789   -0.2909    0.2081 H   0  0  0  0  0  0  0  0  0  0  0  0
  1  2  1  0
  2  3  1  0
  3  4  2  0
  4  5  1  0
  5  6  2  0
  6  7  1  0
  7  8  1  0
  6  9  1  0
  9 10  1  0
 10 11  1  0
 11 12  2  0
 11 13  1  0
 13 14  1  0
 14 15  1  0
 15 16  1  0
 16 17  1  0
 17 18  1  0
 18 19  1  0
 18 20  2  0
 17 21  1  0
 21 22  1  0
 22 23  1  0
 23 24  1  0
 24 25  1  0
 25 26  1  0
 16 27  1  0
  9 28  2  0
 28  3  1  0
 27 13  1  0
 26 21  1  0
  1 29  1  0
  1 30  1  0
  1 31  1  0
  4 32  1  0
  5 33  1  0
  8 34  1  0
  8 35  1  0
  8 36  1  0
 10 37  1  0
 14 38  1  0
 14 39  1  0
 15 40  1  0
 15 41  1  0
 16 42  1  0
 19 43  1  0
 19 44  1  0
 19 45  1  0
 21 46  1  0
 22 47  1  0
 22 48  1  0
 23 49  1  0
 23 50  1  0
 25 51  1  0
 25 52  1  0
 26 53  1  0
 26 54  1  0
 27 55  1  0
 27 56  1  0
 28 57  1  0
M  END
$$$$
