
     RDKit          3D

 18 19  0  0  0  0  0  0  0  0999 V2000
    1.8762   -0.2821   -2.1569 O   0  0  0  0  0  0  0  0  0  0  0  0
    1.3864   -0.0741   -0.8835 C   0  0  0  0  0  0  0  0  0  0  0  0
    2.2668    0.1847    0.1717 C   0  0  0  0  0  0  0  0  0  0  0  0
    4.3357    0.2680   -0.1223 I   0  0  0  0  0  0  0  0  0  0  0  0
    1.7729    0.3937    1.4517 C   0  0  0  0  0  0  0  0  0  0  0  0
    0.3934    0.3425    1.6707 C   0  0  0  0  0  0  0  0  0  0  0  0
   -0.2229    0.6783    3.6643 I   0  0  0  0  0  0  0  0  0  0  0  0
   -0.5168    0.0806    0.6096 C   0  0  0  0  0  0  0  0  0  0  0  0
   -1.9243    0.0130    0.7517 C   0  0  0  0  0  0  0  0  0  0  0  0
   -2.7463   -0.2483   -0.3377 C   0  0  0  0  0  0  0  0  0  0  0  0
   -2.1460   -0.4391   -1.5591 C   0  0  0  0  0  0  0  0  0  0  0  0
   -0.8136   -0.3850   -1.7461 N   0  0  0  0  0  0  0  0  0  0  0  0
   -0.0027   -0.1314   -0.6933 C   0  0  0  0  0  0  0  0  0  0  0  0
    2.8448   -0.2116   -2.1280 H   0  0  0  0  0  0  0  0  0  0  0  0
    2.4545    0.5953    2.2747 H   0  0  0  0  0  0  0  0  0  0  0  0
   -2.4045    0.1629    1.7143 H   0  0  0  0  0  0  0  0  0  0  0  0
   -3.8236   -0.3005   -0.2311 H   0  0  0  0  0  0  0  0  0  0  0  0
   -2.7302   -0.6471   -2.4506 H   0  0  0  0  0  0  0  0  0  0  0  0
  1  2  1  0
  2  3  2  0
  3  4  1  0
  3  5  1  0
  5  6  2  0
  6  7  1  0
  6  8  1  0
  8  9  2  0
  9 10  1  0
 10 11  2  0
 11 12  1  0
 12 13  2  0
 13  2  1  0
 13  8  1  0
  1 14  1  0
  5 15  1  0
  9 16  1  0
 10 17  1  0
 11 18  1  0
M  END
$$$$
