
     RDKit          3D

 72 77  0  0  0  0  0  0  0  0999 V2000
   -8.3537    3.1557   -0.0000 C   0  0  0  0  0  0  0  0  0  0  0  0
   -8.3102    1.8050    0.6929 C   0  0  0  0  0  0  0  0  0  0  0  0
   -8.1610    0.7062   -0.2431 N   0  0  0  0  0  0  0  0  0  0  0  0
   -9.1656    0.0121   -0.8841 C   0  0  0  0  0  0  0  0  0  0  0  0
  -10.7101    0.2844   -0.8018 C   0  0  0  0  0  0  0  0  0  0  0  0
  -11.2628    1.2780   -0.1020 N   0  0  0  0  0  0  0  0  0  0  0  0
  -12.6298    1.1575   -0.3395 O   0  0  0  0  0  0  0  0  0  0  0  0
  -12.9062    0.0937   -1.1901 N   0  0  0  0  0  0  0  0  0  0  0  0
  -11.7229   -0.4516   -1.4626 C   0  0  0  0  0  0  0  0  0  0  0  0
  -11.5277   -1.5290   -2.2501 N   0  0  0  0  0  0  0  0  0  0  0  0
   -8.6605   -0.9525   -1.6366 N   0  0  0  0  0  0  0  0  0  0  0  0
   -7.2982   -0.8754   -1.4899 C   0  0  0  0  0  0  0  0  0  0  0  0
   -6.2814   -1.6466   -2.0635 C   0  0  0  0  0  0  0  0  0  0  0  0
   -4.9784   -1.3873   -1.7806 N   0  0  0  0  0  0  0  0  0  0  0  0
   -4.6917   -0.3772   -0.9268 C   0  0  0  0  0  0  0  0  0  0  0  0
   -3.3577   -0.0996   -0.7021 O   0  0  0  0  0  0  0  0  0  0  0  0
   -2.6606   -0.9315    0.1481 C   0  0  0  0  0  0  0  0  0  0  0  0
   -3.1751   -2.0548    0.7959 C   0  0  0  0  0  0  0  0  0  0  0  0
   -2.3606   -2.7937    1.6545 C   0  0  0  0  0  0  0  0  0  0  0  0
   -1.0332   -2.4144    1.8732 C   0  0  0  0  0  0  0  0  0  0  0  0
   -0.5047   -1.2943    1.2321 C   0  0  0  0  0  0  0  0  0  0  0  0
    0.8250   -0.8494    1.3910 N   0  0  0  0  0  0  0  0  0  0  0  0
    1.7754   -1.3458    2.2646 C   0  0  0  0  0  0  0  0  0  0  0  0
    1.6162   -2.2142    3.1130 O   0  0  0  0  0  0  0  0  0  0  0  0
    3.1126   -0.6982    2.1613 C   0  0  0  0  0  0  0  0  0  0  0  0
    3.8455   -0.4826    3.3311 C   0  0  0  0  0  0  0  0  0  0  0  0
    5.1032    0.1211    3.2636 C   0  0  0  0  0  0  0  0  0  0  0  0
    5.6486    0.5034    2.0342 C   0  0  0  0  0  0  0  0  0  0  0  0
    6.8877    1.0725    2.1216 O   0  0  0  0  0  0  0  0  0  0  0  0
    7.5328    1.5169    0.9242 C   0  0  0  0  0  0  0  0  0  0  0  0
    8.3205    0.3680    0.2695 C   0  0  0  0  0  0  0  0  0  0  0  0
    8.9560    0.7482   -1.0027 N   0  0  0  0  0  0  0  0  0  0  0  0
    9.3186   -0.4603   -1.7783 C   0  0  0  0  0  0  0  0  0  0  0  0
   10.3858   -0.1565   -2.8393 C   0  0  0  0  0  0  0  0  0  0  0  0
   11.6326    0.2611   -2.2668 O   0  0  0  0  0  0  0  0  0  0  0  0
   11.4817    0.8894   -0.9880 C   0  0  0  0  0  0  0  0  0  0  0  0
   10.1387    1.6219   -0.8276 C   0  0  0  0  0  0  0  0  0  0  0  0
    4.9237    0.2682    0.8647 C   0  0  0  0  0  0  0  0  0  0  0  0
    3.6597   -0.3331    0.9253 C   0  0  0  0  0  0  0  0  0  0  0  0
   -1.3268   -0.5617    0.3657 C   0  0  0  0  0  0  0  0  0  0  0  0
   -5.6253    0.4566   -0.3220 C   0  0  0  0  0  0  0  0  0  0  0  0
   -6.9544    0.1602   -0.6265 C   0  0  0  0  0  0  0  0  0  0  0  0
   -9.1849    3.2182   -0.7092 H   0  0  0  0  0  0  0  0  0  0  0  0
   -8.4722    3.9560    0.7369 H   0  0  0  0  0  0  0  0  0  0  0  0
   -7.4293    3.3413   -0.5572 H   0  0  0  0  0  0  0  0  0  0  0  0
   -9.2034    1.6326    1.2983 H   0  0  0  0  0  0  0  0  0  0  0  0
   -7.4649    1.7706    1.3892 H   0  0  0  0  0  0  0  0  0  0  0  0
  -12.2611   -1.8056   -2.8921 H   0  0  0  0  0  0  0  0  0  0  0  0
  -10.5808   -1.7418   -2.5653 H   0  0  0  0  0  0  0  0  0  0  0  0
   -6.4832   -2.4630   -2.7455 H   0  0  0  0  0  0  0  0  0  0  0  0
   -4.1987   -2.3845    0.6445 H   0  0  0  0  0  0  0  0  0  0  0  0
   -2.7574   -3.6737    2.1551 H   0  0  0  0  0  0  0  0  0  0  0  0
   -0.4351   -3.0235    2.5442 H   0  0  0  0  0  0  0  0  0  0  0  0
    1.0802   -0.0316    0.8529 H   0  0  0  0  0  0  0  0  0  0  0  0
    3.4404   -0.7822    4.2956 H   0  0  0  0  0  0  0  0  0  0  0  0
    5.6662    0.2897    4.1791 H   0  0  0  0  0  0  0  0  0  0  0  0
    8.2246    2.3061    1.2374 H   0  0  0  0  0  0  0  0  0  0  0  0
    6.8312    1.9968    0.2322 H   0  0  0  0  0  0  0  0  0  0  0  0
    7.6185   -0.4557    0.0878 H   0  0  0  0  0  0  0  0  0  0  0  0
    9.0576   -0.0302    0.9800 H   0  0  0  0  0  0  0  0  0  0  0  0
    9.7103   -1.2392   -1.1104 H   0  0  0  0  0  0  0  0  0  0  0  0
    8.4195   -0.8543   -2.2650 H   0  0  0  0  0  0  0  0  0  0  0  0
   10.5850   -1.0499   -3.4398 H   0  0  0  0  0  0  0  0  0  0  0  0
   10.0438    0.6275   -3.5253 H   0  0  0  0  0  0  0  0  0  0  0  0
   11.5994    0.1233   -0.2127 H   0  0  0  0  0  0  0  0  0  0  0  0
   12.3097    1.5964   -0.8724 H   0  0  0  0  0  0  0  0  0  0  0  0
   10.1266    2.1496    0.1316 H   0  0  0  0  0  0  0  0  0  0  0  0
   10.0757    2.3945   -1.6046 H   0  0  0  0  0  0  0  0  0  0  0  0
    5.3155    0.5230   -0.1149 H   0  0  0  0  0  0  0  0  0  0  0  0
    3.1320   -0.5392   -0.0025 H   0  0  0  0  0  0  0  0  0  0  0  0
   -0.9425    0.3146   -0.1500 H   0  0  0  0  0  0  0  0  0  0  0  0
   -5.3284    1.2639    0.3335 H   0  0  0  0  0  0  0  0  0  0  0  0
  1  2  1  0
  2  3  1  0
  3  4  1  0
  4  5  1  0
  5  6  2  0
  6  7  1  0
  7  8  1  0
  8  9  2  0
  9 10  1  0
  4 11  2  0
 11 12  1  0
 12 13  2  0
 13 14  1  0
 14 15  2  0
 15 16  1  0
 16 17  1  0
 17 18  2  0
 18 19  1  0
 19 20  2  0
 20 21  1  0
 21 22  1  0
 22 23  1  0
 23 24  2  0
 23 25  1  0
 25 26  2  0
 26 27  1  0
 27 28  2  0
 28 29  1  0
 29 30  1  0
 30 31  1  0
 31 32  1  0
 32 33  1  0
 33 34  1  0
 34 35  1  0
 35 36  1  0
 36 37  1  0
 28 38  1  0
 38 39  2  0
 21 40  2  0
 15 41  1  0
 41 42  2  0
 42  3  1  0
  9  5  1  0
 42 12  1  0
 40 17  1  0
 39 25  1  0
 37 32  1  0
  1 43  1  0
  1 44  1  0
  1 45  1  0
  2 46  1  0
  2 47  1  0
 10 48  1  0
 10 49  1  0
 13 50  1  0
 18 51  1  0
 19 52  1  0
 20 53  1  0
 22 54  1  0
 26 55  1  0
 27 56  1  0
 30 57  1  0
 30 58  1  0
 31 59  1  0
 31 60  1  0
 33 61  1  0
 33 62  1  0
 34 63  1  0
 34 64  1  0
 36 65  1  0
 36 66  1  0
 37 67  1  0
 37 68  1  0
 38 69  1  0
 39 70  1  0
 40 71  1  0
 41 72  1  0
M  END
$$$$
