
     RDKit          3D

 48 48  0  0  0  0  0  0  0  0999 V2000
   -2.9856    0.4801   -1.2480 C   0  0  0  0  0  0  0  0  0  0  0  0
   -2.2794    0.5797   -0.2202 C   0  0  0  0  0  0  0  0  0  0  0  0
   -1.4231    0.6878    0.9843 C   0  0  0  0  0  0  0  0  0  0  0  0
   -0.3531   -0.1008    1.0241 O   0  0  0  0  0  0  0  0  0  0  0  0
   -0.5370   -1.4720    0.9269 C   0  0  0  0  0  0  0  0  0  0  0  0
    0.7727   -2.1944    1.1529 C   0  0  0  0  0  0  0  0  0  0  0  0
    0.7064   -3.5657    1.0478 O   0  0  0  0  0  0  0  0  0  0  0  0
    1.9648   -1.5639    0.4867 C   0  0  0  0  0  0  0  0  0  0  0  0
    2.1546   -1.7813   -0.8583 N   0  0  0  0  0  0  0  0  0  0  0  0
    1.3918   -1.3330   -1.9120 C   0  0  0  0  0  0  0  0  0  0  0  0
    1.2178    0.1457   -2.1295 C   0  0  0  0  0  0  0  0  0  0  0  0
    2.5289    0.6683   -2.6464 C   0  0  0  0  0  0  0  0  0  0  0  0
    3.2523   -0.5454   -3.2057 C   0  0  0  0  0  0  0  0  0  0  0  0
    2.2445   -1.6721   -3.1943 C   0  0  0  0  0  0  0  0  0  0  0  0
   -2.3201    0.4292    2.2149 C   0  0  0  0  0  0  0  0  0  0  0  0
   -3.4016    1.5022    2.3267 C   0  0  0  0  0  0  0  0  0  0  0  0
   -2.6949    2.7769    2.7127 C   0  0  0  0  0  0  0  0  0  0  0  0
   -1.2396    2.7436    2.3757 C   0  0  0  0  0  0  0  0  0  0  0  0
   -0.9880    2.1534    1.0132 C   0  0  0  0  0  0  0  0  0  0  0  0
    0.6842    0.0000    0.0000 Cl  0  0  0  0  0  0  0  0  0  0  0  0
   -3.5339    0.3989   -2.0758 H   0  0  0  0  0  0  0  0  0  0  0  0
   -0.8992   -1.6807   -0.1089 H   0  0  0  0  0  0  0  0  0  0  0  0
   -1.3221   -1.8550    1.6068 H   0  0  0  0  0  0  0  0  0  0  0  0
    0.9146   -2.0544    2.3110 H   0  0  0  0  0  0  0  0  0  0  0  0
    1.0342   -3.9377    0.1874 H   0  0  0  0  0  0  0  0  0  0  0  0
    2.8626   -2.0360    1.0299 H   0  0  0  0  0  0  0  0  0  0  0  0
    2.0771   -0.4895    0.8221 H   0  0  0  0  0  0  0  0  0  0  0  0
    2.9447   -2.4333   -1.0804 H   0  0  0  0  0  0  0  0  0  0  0  0
    0.4552   -1.8807   -2.0621 H   0  0  0  0  0  0  0  0  0  0  0  0
    0.7408    0.7114   -1.3424 H   0  0  0  0  0  0  0  0  0  0  0  0
    0.5135    0.2187   -3.0193 H   0  0  0  0  0  0  0  0  0  0  0  0
    3.1359    1.2064   -1.9170 H   0  0  0  0  0  0  0  0  0  0  0  0
    2.4109    1.3789   -3.5200 H   0  0  0  0  0  0  0  0  0  0  0  0
    4.1091   -0.7613   -2.5327 H   0  0  0  0  0  0  0  0  0  0  0  0
    3.6327   -0.4187   -4.2214 H   0  0  0  0  0  0  0  0  0  0  0  0
    2.7889   -2.6143   -3.0090 H   0  0  0  0  0  0  0  0  0  0  0  0
    1.6249   -1.7593   -4.0685 H   0  0  0  0  0  0  0  0  0  0  0  0
   -1.7360    0.4347    3.1420 H   0  0  0  0  0  0  0  0  0  0  0  0
   -2.7938   -0.5826    2.1242 H   0  0  0  0  0  0  0  0  0  0  0  0
   -4.0632    1.2087    3.1529 H   0  0  0  0  0  0  0  0  0  0  0  0
   -3.9960    1.5855    1.3878 H   0  0  0  0  0  0  0  0  0  0  0  0
   -2.8324    2.9100    3.8249 H   0  0  0  0  0  0  0  0  0  0  0  0
   -3.1582    3.6407    2.1708 H   0  0  0  0  0  0  0  0  0  0  0  0
   -0.8186    3.7680    2.4146 H   0  0  0  0  0  0  0  0  0  0  0  0
   -0.6830    2.1474    3.1224 H   0  0  0  0  0  0  0  0  0  0  0  0
    0.0928    2.2007    0.8215 H   0  0  0  0  0  0  0  0  0  0  0  0
   -1.5127    2.7552    0.2287 H   0  0  0  0  0  0  0  0  0  0  0  0
   -0.6842    0.0000    0.0000 H   0  0  0  0  0  0  0  0  0  0  0  0
  1  2  3  0
  2  3  1  0
  3  4  1  0
  4  5  1  0
  5  6  1  0
  6  7  1  0
  6  8  1  0
  8  9  1  0
  9 10  1  0
 10 11  1  0
 11 12  1  0
 12 13  1  0
 13 14  1  0
  3 15  1  0
 15 16  1  0
 16 17  1  0
 17 18  1  0
 18 19  1  0
 19  3  1  0
 14 10  1  0
  1 21  1  0
  5 22  1  0
  5 23  1  0
  6 24  1  0
  7 25  1  0
  8 26  1  0
  8 27  1  0
  9 28  1  0
 10 29  1  0
 11 30  1  0
 11 31  1  0
 12 32  1  0
 12 33  1  0
 13 34  1  0
 13 35  1  0
 14 36  1  0
 14 37  1  0
 15 38  1  0
 15 39  1  0
 16 40  1  0
 16 41  1  0
 17 42  1  0
 17 43  1  0
 18 44  1  0
 18 45  1  0
 19 46  1  0
 19 47  1  0
 20 48  1  0
M  END
$$$$
