
     RDKit          3D

135137  0  0  0  0  0  0  0  0999 V2000
    4.1248    3.5572    5.8705 C   0  0  0  0  0  0  0  0  0  0  0  0
    3.0256    3.2517    4.8715 C   0  0  0  0  0  0  0  0  0  0  0  0
    3.5639    2.5094    3.7658 O   0  0  0  0  0  0  0  0  0  0  0  0
    3.5005    1.1527    3.8748 C   0  0  0  0  0  0  0  0  0  0  0  0
    3.1009    0.5453    4.8595 O   0  0  0  0  0  0  0  0  0  0  0  0
    4.0501    0.4701    2.6479 C   0  0  0  0  0  0  0  0  0  0  0  0
    3.7607    1.2336    1.3619 C   0  0  0  0  0  0  0  0  0  0  0  0
    3.7048    0.3204    0.1639 C   0  0  0  0  0  0  0  0  0  0  0  0
    4.1239   -0.8281    0.1330 O   0  0  0  0  0  0  0  0  0  0  0  0
    3.1276    0.9918   -0.8691 O   0  0  0  0  0  0  0  0  0  0  0  0
    3.0302    0.3087   -2.1462 C   0  0  1  0  0  0  0  0  0  0  0  0
    1.6592    0.6864   -2.7555 C   0  0  2  0  0  0  0  0  0  0  0  0
    0.6098    0.0416   -2.0094 O   0  0  0  0  0  0  0  0  0  0  0  0
   -0.7072    0.4155   -2.4668 C   0  0  2  0  0  0  0  0  0  0  0  0
   -1.2861    1.3441   -1.3623 C   0  0  1  0  0  0  0  0  0  0  0  0
   -2.4598    2.1666   -1.9233 C   0  0  0  0  0  0  0  0  0  0  0  0
   -1.6747    0.7526    0.0360 C   0  0  2  0  0  0  0  0  0  0  0  0
   -1.3251    1.7466    1.0183 O   0  0  0  0  0  0  0  0  0  0  0  0
   -2.3774    2.5394    1.5534 C   0  0  1  0  0  0  0  0  0  0  0  0
   -2.3065    2.4764    3.0816 C   0  0  0  0  0  0  0  0  0  0  0  0
   -2.5277    3.8374    3.7556 C   0  0  1  0  0  0  0  0  0  0  0  0
   -3.9667    4.3290    3.4879 C   0  0  0  0  0  0  0  0  0  0  0  0
   -2.3700    3.5968    5.1725 O   0  0  0  0  0  0  0  0  0  0  0  0
   -2.5357    4.7096    6.0369 C   0  0  0  0  0  0  0  0  0  0  0  0
   -1.4700    4.8383    3.1854 C   0  0  1  0  0  0  0  0  0  0  0  0
   -0.2248    4.7489    3.9031 O   0  0  0  0  0  0  0  0  0  0  0  0
   -1.1742    4.5705    1.6909 C   0  0  2  0  0  0  0  0  0  0  0  0
   -0.9399    5.8730    0.9339 C   0  0  0  0  0  0  0  0  0  0  0  0
   -2.2518    3.8820    1.0618 O   0  0  0  0  0  0  0  0  0  0  0  0
   -1.0077   -0.5689    0.5041 C   0  0  1  0  0  0  0  0  0  0  0  0
    0.2305   -0.4015    1.3799 C   0  0  0  0  0  0  0  0  0  0  0  0
   -2.0460   -1.3620    1.2858 C   0  0  0  0  0  0  0  0  0  0  0  0
   -2.9054   -0.8602    2.0018 O   0  0  0  0  0  0  0  0  0  0  0  0
   -1.8782   -2.6982    1.0842 O   0  0  0  0  0  0  0  0  0  0  0  0
   -2.7672   -3.6140    1.7743 C   0  0  2  0  0  0  0  0  0  0  0  0
   -1.9211   -4.3492    2.8279 C   0  0  0  0  0  0  0  0  0  0  0  0
   -1.3195   -3.4035    3.8673 C   0  0  0  0  0  0  0  0  0  0  0  0
   -3.5066   -4.5310    0.7293 C   0  0  1  0  0  0  0  0  0  0  0  0
   -3.6543   -5.9934    1.1841 C   0  0  0  0  0  0  0  0  0  0  0  0
   -4.8756   -4.0392    0.6463 O   0  0  0  0  0  0  0  0  0  0  0  0
   -2.9712   -4.4170   -0.7385 C   0  0  2  0  0  0  0  0  0  0  0  0
   -3.9258   -5.0950   -1.5943 O   0  0  0  0  0  0  0  0  0  0  0  0
   -1.5446   -4.9400   -0.9681 C   0  0  1  0  0  0  0  0  0  0  0  0
   -1.4479   -6.3646   -1.5168 C   0  0  0  0  0  0  0  0  0  0  0  0
   -0.6746   -3.9986   -1.8145 C   0  0  0  0  0  0  0  0  0  0  0  0
    0.4914   -3.7914   -1.4509 O   0  0  0  0  0  0  0  0  0  0  0  0
   -1.1751   -3.4563   -3.1668 C   0  0  2  0  0  0  0  0  0  0  0  0
   -0.6597   -4.3861   -4.2698 C   0  0  0  0  0  0  0  0  0  0  0  0
   -0.6323   -2.0260   -3.4172 C   0  0  0  0  0  0  0  0  0  0  0  0
   -1.5425   -0.8414   -2.9517 C   0  0  2  0  0  0  0  0  0  0  0  0
   -2.4364   -0.4530   -4.1521 C   0  0  0  0  0  0  0  0  0  0  0  0
   -2.4311   -1.3072   -1.9336 O   0  0  0  0  0  0  0  0  0  0  0  0
    1.5537    0.2988   -4.1248 O   0  0  0  0  0  0  0  0  0  0  0  0
    2.5309    0.9283   -4.9446 C   0  0  2  0  0  0  0  0  0  0  0  0
    2.2162    0.5802   -6.3897 C   0  0  0  0  0  0  0  0  0  0  0  0
    3.9143    0.4372   -4.5337 C   0  0  0  0  0  0  0  0  0  0  0  0
    4.1795    0.8222   -3.0669 C   0  0  2  0  0  0  0  0  0  0  0  0
    5.5332    0.4704   -2.5697 N   0  0  0  0  0  0  0  0  0  0  0  0
    5.8760   -0.9464   -2.7024 C   0  0  0  0  0  0  0  0  0  0  0  0
    6.5848    1.3039   -3.1587 C   0  0  0  0  0  0  0  0  0  0  0  0
    3.7416    4.1595    6.7002 H   0  0  0  0  0  0  0  0  0  0  0  0
    4.5545    2.6337    6.2741 H   0  0  0  0  0  0  0  0  0  0  0  0
    4.9427    4.1036    5.3878 H   0  0  0  0  0  0  0  0  0  0  0  0
    2.6266    4.1866    4.4640 H   0  0  0  0  0  0  0  0  0  0  0  0
    2.1868    2.7246    5.3445 H   0  0  0  0  0  0  0  0  0  0  0  0
    3.5845   -0.5241    2.6113 H   0  0  0  0  0  0  0  0  0  0  0  0
    5.1291    0.3314    2.7777 H   0  0  0  0  0  0  0  0  0  0  0  0
    4.5346    1.9884    1.1836 H   0  0  0  0  0  0  0  0  0  0  0  0
    2.7935    1.7456    1.4362 H   0  0  0  0  0  0  0  0  0  0  0  0
    3.0684   -0.7792   -2.0198 H   0  0  0  0  0  0  0  0  0  0  0  0
    1.5075    1.7703   -2.6663 H   0  0  0  0  0  0  0  0  0  0  0  0
   -0.5792    1.0468   -3.3584 H   0  0  0  0  0  0  0  0  0  0  0  0
   -0.4903    2.0804   -1.1598 H   0  0  0  0  0  0  0  0  0  0  0  0
   -3.3556    1.5539   -2.0554 H   0  0  0  0  0  0  0  0  0  0  0  0
   -2.1978    2.6159   -2.8903 H   0  0  0  0  0  0  0  0  0  0  0  0
   -2.7255    2.9896   -1.2542 H   0  0  0  0  0  0  0  0  0  0  0  0
   -2.7627    0.6029    0.0259 H   0  0  0  0  0  0  0  0  0  0  0  0
   -3.3613    2.1830    1.2253 H   0  0  0  0  0  0  0  0  0  0  0  0
   -3.0302    1.7354    3.4533 H   0  0  0  0  0  0  0  0  0  0  0  0
   -1.3354    2.0706    3.4018 H   0  0  0  0  0  0  0  0  0  0  0  0
   -4.6965    3.6607    3.9612 H   0  0  0  0  0  0  0  0  0  0  0  0
   -4.2135    4.4031    2.4263 H   0  0  0  0  0  0  0  0  0  0  0  0
   -4.1326    5.3227    3.9196 H   0  0  0  0  0  0  0  0  0  0  0  0
   -3.5915    4.9792    6.1170 H   0  0  0  0  0  0  0  0  0  0  0  0
   -2.1916    4.4148    7.0322 H   0  0  0  0  0  0  0  0  0  0  0  0
   -1.9467    5.5738    5.7195 H   0  0  0  0  0  0  0  0  0  0  0  0
   -1.8376    5.8606    3.3369 H   0  0  0  0  0  0  0  0  0  0  0  0
    0.3460    5.4735    3.5951 H   0  0  0  0  0  0  0  0  0  0  0  0
   -0.2547    3.9766    1.5899 H   0  0  0  0  0  0  0  0  0  0  0  0
   -1.8347    6.5034    0.9494 H   0  0  0  0  0  0  0  0  0  0  0  0
   -0.1025    6.4370    1.3571 H   0  0  0  0  0  0  0  0  0  0  0  0
   -0.7232    5.6676   -0.1188 H   0  0  0  0  0  0  0  0  0  0  0  0
   -0.7328   -1.1873   -0.3500 H   0  0  0  0  0  0  0  0  0  0  0  0
    0.7088   -1.3731    1.5524 H   0  0  0  0  0  0  0  0  0  0  0  0
    0.9576    0.2532    0.8955 H   0  0  0  0  0  0  0  0  0  0  0  0
   -0.0152    0.0095    2.3648 H   0  0  0  0  0  0  0  0  0  0  0  0
   -3.5396   -3.0506    2.3148 H   0  0  0  0  0  0  0  0  0  0  0  0
   -1.0959   -4.8879    2.3496 H   0  0  0  0  0  0  0  0  0  0  0  0
   -2.5353   -5.0768    3.3681 H   0  0  0  0  0  0  0  0  0  0  0  0
   -2.0777   -2.7104    4.2565 H   0  0  0  0  0  0  0  0  0  0  0  0
   -0.9093   -3.9735    4.7095 H   0  0  0  0  0  0  0  0  0  0  0  0
   -0.5043   -2.8105    3.4387 H   0  0  0  0  0  0  0  0  0  0  0  0
   -2.6834   -6.4814    1.3172 H   0  0  0  0  0  0  0  0  0  0  0  0
   -4.2319   -6.5837    0.4603 H   0  0  0  0  0  0  0  0  0  0  0  0
   -4.2133   -6.0529    2.1264 H   0  0  0  0  0  0  0  0  0  0  0  0
   -5.2432   -4.4535   -0.1585 H   0  0  0  0  0  0  0  0  0  0  0  0
   -3.0557   -3.3654   -1.0186 H   0  0  0  0  0  0  0  0  0  0  0  0
   -3.7108   -4.8704   -2.5162 H   0  0  0  0  0  0  0  0  0  0  0  0
   -1.0343   -4.9469    0.0034 H   0  0  0  0  0  0  0  0  0  0  0  0
   -1.9872   -6.4764   -2.4600 H   0  0  0  0  0  0  0  0  0  0  0  0
   -0.4036   -6.6406   -1.6994 H   0  0  0  0  0  0  0  0  0  0  0  0
   -1.8627   -7.0866   -0.8065 H   0  0  0  0  0  0  0  0  0  0  0  0
   -2.2657   -3.4540   -3.2021 H   0  0  0  0  0  0  0  0  0  0  0  0
    0.4337   -4.4417   -4.2636 H   0  0  0  0  0  0  0  0  0  0  0  0
   -0.9780   -4.0320   -5.2563 H   0  0  0  0  0  0  0  0  0  0  0  0
   -1.0417   -5.4038   -4.1535 H   0  0  0  0  0  0  0  0  0  0  0  0
   -0.4280   -1.8892   -4.4899 H   0  0  0  0  0  0  0  0  0  0  0  0
    0.3582   -1.9624   -2.9568 H   0  0  0  0  0  0  0  0  0  0  0  0
   -3.0051   -1.3210   -4.5082 H   0  0  0  0  0  0  0  0  0  0  0  0
   -1.8419   -0.0696   -4.9881 H   0  0  0  0  0  0  0  0  0  0  0  0
   -3.1786    0.3056   -3.8842 H   0  0  0  0  0  0  0  0  0  0  0  0
   -3.2341   -0.7546   -1.9354 H   0  0  0  0  0  0  0  0  0  0  0  0
    2.4612    2.0152   -4.8220 H   0  0  0  0  0  0  0  0  0  0  0  0
    2.1757   -0.5014   -6.5462 H   0  0  0  0  0  0  0  0  0  0  0  0
    2.9556    1.0102   -7.0769 H   0  0  0  0  0  0  0  0  0  0  0  0
    1.2302    0.9721   -6.6607 H   0  0  0  0  0  0  0  0  0  0  0  0
    4.6702    0.8745   -5.1957 H   0  0  0  0  0  0  0  0  0  0  0  0
    3.9556   -0.6521   -4.6454 H   0  0  0  0  0  0  0  0  0  0  0  0
    4.1221    1.9195   -3.0014 H   0  0  0  0  0  0  0  0  0  0  0  0
    5.9656   -1.2556   -3.7470 H   0  0  0  0  0  0  0  0  0  0  0  0
    5.1370   -1.5921   -2.2196 H   0  0  0  0  0  0  0  0  0  0  0  0
    6.8324   -1.1568   -2.2132 H   0  0  0  0  0  0  0  0  0  0  0  0
    6.3751    2.3655   -2.9914 H   0  0  0  0  0  0  0  0  0  0  0  0
    6.7001    1.1360   -4.2336 H   0  0  0  0  0  0  0  0  0  0  0  0
    7.5456    1.0963   -2.6771 H   0  0  0  0  0  0  0  0  0  0  0  0
  1  2  1  0
  2  3  1  0
  3  4  1  0
  4  5  2  0
  4  6  1  0
  6  7  1  0
  7  8  1  0
  8  9  2  0
  8 10  1  0
 10 11  1  0
 11 12  1  0
 12 13  1  0
 13 14  1  0
 14 15  1  0
 15 16  1  0
 15 17  1  0
 17 18  1  0
 18 19  1  0
 19 20  1  0
 20 21  1  0
 21 22  1  0
 21 23  1  1
 23 24  1  0
 21 25  1  0
 25 26  1  0
 25 27  1  0
 27 28  1  0
 27 29  1  0
 17 30  1  0
 30 31  1  0
 30 32  1  0
 32 33  2  0
 32 34  1  0
 34 35  1  0
 35 36  1  0
 36 37  1  0
 35 38  1  0
 38 39  1  0
 38 40  1  6
 38 41  1  0
 41 42  1  0
 41 43  1  0
 43 44  1  0
 43 45  1  0
 45 46  2  0
 45 47  1  0
 47 48  1  0
 47 49  1  0
 49 50  1  0
 50 51  1  0
 50 52  1  1
 12 53  1  0
 53 54  1  0
 54 55  1  0
 54 56  1  0
 56 57  1  0
 57 58  1  0
 58 59  1  0
 58 60  1  0
 57 11  1  0
 50 14  1  0
 29 19  1  0
  1 61  1  0
  1 62  1  0
  1 63  1  0
  2 64  1  0
  2 65  1  0
  6 66  1  0
  6 67  1  0
  7 68  1  0
  7 69  1  0
 11 70  1  1
 12 71  1  6
 14 72  1  6
 15 73  1  1
 16 74  1  0
 16 75  1  0
 16 76  1  0
 17 77  1  6
 19 78  1  6
 20 79  1  0
 20 80  1  0
 22 81  1  0
 22 82  1  0
 22 83  1  0
 24 84  1  0
 24 85  1  0
 24 86  1  0
 25 87  1  6
 26 88  1  0
 27 89  1  1
 28 90  1  0
 28 91  1  0
 28 92  1  0
 30 93  1  6
 31 94  1  0
 31 95  1  0
 31 96  1  0
 35 97  1  1
 36 98  1  0
 36 99  1  0
 37100  1  0
 37101  1  0
 37102  1  0
 39103  1  0
 39104  1  0
 39105  1  0
 40106  1  0
 41107  1  6
 42108  1  0
 43109  1  1
 44110  1  0
 44111  1  0
 44112  1  0
 47113  1  1
 48114  1  0
 48115  1  0
 48116  1  0
 49117  1  0
 49118  1  0
 51119  1  0
 51120  1  0
 51121  1  0
 52122  1  0
 54123  1  6
 55124  1  0
 55125  1  0
 55126  1  0
 56127  1  0
 56128  1  0
 57129  1  6
 59130  1  0
 59131  1  0
 59132  1  0
 60133  1  0
 60134  1  0
 60135  1  0
M  END
$$$$
