
     RDKit          3D

 49 52  0  0  0  0  0  0  0  0999 V2000
    3.6384   -1.6414   -0.0925 O   0  0  0  0  0  0  0  0  0  0  0  0
    2.8850   -0.6787   -0.1171 C   0  0  0  0  0  0  0  0  0  0  0  0
    3.4174    0.6571    0.3728 C   0  0  0  0  0  0  0  0  0  0  0  0
    2.9878    1.8924   -0.0841 C   0  0  0  0  0  0  0  0  0  0  0  0
    3.6328    3.0479    0.3645 C   0  0  0  0  0  0  0  0  0  0  0  0
    4.7125    2.9247    1.2185 C   0  0  0  0  0  0  0  0  0  0  0  0
    5.3853    4.0156    1.6032 F   0  0  0  0  0  0  0  0  0  0  0  0
    5.1036    1.6710    1.6158 C   0  0  0  0  0  0  0  0  0  0  0  0
    4.4809    0.5471    1.2191 N   0  0  0  0  0  0  0  0  0  0  0  0
    1.5986   -0.8524   -0.5791 N   0  0  0  0  0  0  0  0  0  0  0  0
    1.1795   -2.1728   -1.0036 C   0  0  0  0  0  0  0  0  0  0  0  0
   -0.0668   -1.9043   -1.8402 C   0  0  1  0  0  0  0  0  0  0  0  0
   -0.7756   -3.1638   -2.3257 C   0  0  0  0  0  0  0  0  0  0  0  0
   -1.8963   -3.6996   -1.4500 C   0  0  0  0  0  0  0  0  0  0  0  0
   -2.9918   -2.6588   -1.2748 C   0  0  0  0  0  0  0  0  0  0  0  0
   -2.7845   -1.9092    0.0139 C   0  0  0  0  0  0  0  0  0  0  0  0
   -3.6532   -1.9615    0.8874 O   0  0  0  0  0  0  0  0  0  0  0  0
   -1.5888   -1.2001    0.1503 N   0  0  0  0  0  0  0  0  0  0  0  0
   -1.4420   -0.4887    1.4333 C   0  0  0  0  0  0  0  0  0  0  0  0
   -1.7845    0.9888    1.3966 C   0  0  0  0  0  0  0  0  0  0  0  0
   -1.0762    1.8806    2.2282 C   0  0  0  0  0  0  0  0  0  0  0  0
   -1.3528    3.2496    2.2032 C   0  0  0  0  0  0  0  0  0  0  0  0
   -2.3405    3.7454    1.3516 C   0  0  0  0  0  0  0  0  0  0  0  0
   -3.0766    2.8709    0.5541 C   0  0  0  0  0  0  0  0  0  0  0  0
   -2.8051    1.5016    0.5816 C   0  0  0  0  0  0  0  0  0  0  0  0
   -0.7753   -0.7788   -1.0286 C   0  0  1  0  0  0  0  0  0  0  0  0
    0.4804    0.0920   -0.7085 C   0  0  0  0  0  0  0  0  0  0  0  0
    2.1850    1.9905   -0.7951 H   0  0  0  0  0  0  0  0  0  0  0  0
    3.3252    4.0288    0.0211 H   0  0  0  0  0  0  0  0  0  0  0  0
    5.9736    1.5340    2.2549 H   0  0  0  0  0  0  0  0  0  0  0  0
    1.9685   -2.6719   -1.5683 H   0  0  0  0  0  0  0  0  0  0  0  0
    0.9550   -2.7606   -0.1133 H   0  0  0  0  0  0  0  0  0  0  0  0
    0.2955   -1.4196   -2.7683 H   0  0  0  0  0  0  0  0  0  0  0  0
   -0.0369   -3.9656   -2.4823 H   0  0  0  0  0  0  0  0  0  0  0  0
   -1.1960   -2.9546   -3.3246 H   0  0  0  0  0  0  0  0  0  0  0  0
   -2.3186   -4.5841   -1.9429 H   0  0  0  0  0  0  0  0  0  0  0  0
   -1.4975   -4.0444   -0.4796 H   0  0  0  0  0  0  0  0  0  0  0  0
   -3.9613   -3.1632   -1.2033 H   0  0  0  0  0  0  0  0  0  0  0  0
   -3.0646   -1.9637   -2.1127 H   0  0  0  0  0  0  0  0  0  0  0  0
   -0.4012   -0.6345    1.7553 H   0  0  0  0  0  0  0  0  0  0  0  0
   -2.0582   -0.9586    2.2092 H   0  0  0  0  0  0  0  0  0  0  0  0
   -0.3003    1.5134    2.8996 H   0  0  0  0  0  0  0  0  0  0  0  0
   -0.7953    3.9271    2.8521 H   0  0  0  0  0  0  0  0  0  0  0  0
   -2.5548    4.8092    1.3330 H   0  0  0  0  0  0  0  0  0  0  0  0
   -3.8599    3.2521   -0.0980 H   0  0  0  0  0  0  0  0  0  0  0  0
   -3.4128    0.8336   -0.0301 H   0  0  0  0  0  0  0  0  0  0  0  0
   -1.4527   -0.2055   -1.6772 H   0  0  0  0  0  0  0  0  0  0  0  0
    0.6841    0.7249   -1.5894 H   0  0  0  0  0  0  0  0  0  0  0  0
    0.4308    0.7383    0.1699 H   0  0  0  0  0  0  0  0  0  0  0  0
  1  2  2  0
  2  3  1  0
  3  4  2  0
  4  5  1  0
  5  6  2  0
  6  7  1  0
  6  8  1  0
  8  9  2  0
  2 10  1  0
 10 11  1  0
 11 12  1  0
 12 13  1  0
 13 14  1  0
 14 15  1  0
 15 16  1  0
 16 17  2  0
 16 18  1  0
 18 19  1  0
 19 20  1  0
 20 21  2  0
 21 22  1  0
 22 23  2  0
 23 24  1  0
 24 25  2  0
 18 26  1  0
 26 27  1  0
  9  3  1  0
 27 10  1  0
 26 12  1  0
 25 20  1  0
  4 28  1  0
  5 29  1  0
  8 30  1  0
 11 31  1  0
 11 32  1  0
 12 33  1  6
 13 34  1  0
 13 35  1  0
 14 36  1  0
 14 37  1  0
 15 38  1  0
 15 39  1  0
 19 40  1  0
 19 41  1  0
 21 42  1  0
 22 43  1  0
 23 44  1  0
 24 45  1  0
 25 46  1  0
 26 47  1  6
 27 48  1  0
 27 49  1  0
M  END
$$$$
