
     RDKit          3D

 43 44  0  0  0  0  0  0  0  0999 V2000
    6.8920    1.5805   -0.9737 C   0  0  0  0  0  0  0  0  0  0  0  0
    6.4431    0.4097   -1.6431 O   0  0  0  0  0  0  0  0  0  0  0  0
    5.4520   -0.2948   -0.9167 C   0  0  0  0  0  0  0  0  0  0  0  0
    4.0354    0.3157   -0.8330 C   0  0  0  0  0  0  0  0  0  0  0  0
    3.7642    1.4156   -1.3027 O   0  0  0  0  0  0  0  0  0  0  0  0
    3.1551   -0.5274   -0.1632 N   0  0  0  0  0  0  0  0  0  0  0  0
    1.7907   -0.3009    0.1117 C   0  0  0  0  0  0  0  0  0  0  0  0
    1.0976    0.8479   -0.2571 C   0  0  0  0  0  0  0  0  0  0  0  0
   -0.2635    0.9929    0.0495 C   0  0  0  0  0  0  0  0  0  0  0  0
   -0.9617   -0.0021    0.7428 C   0  0  0  0  0  0  0  0  0  0  0  0
   -0.2619   -1.1585    1.1184 C   0  0  0  0  0  0  0  0  0  0  0  0
    1.0990   -1.3056    0.7950 C   0  0  0  0  0  0  0  0  0  0  0  0
   -0.9954   -2.2844    1.7874 C   0  0  0  0  0  0  0  0  0  0  0  0
   -2.0766   -1.7284    2.6835 C   0  0  0  0  0  0  0  0  0  0  0  0
   -2.9833   -0.7956    1.9186 C   0  0  0  0  0  0  0  0  0  0  0  0
   -4.1961   -0.8041    2.1345 O   0  0  0  0  0  0  0  0  0  0  0  0
   -2.3535    0.1060    1.0567 N   0  0  0  0  0  0  0  0  0  0  0  0
   -3.1828    1.1418    0.4321 C   0  0  0  0  0  0  0  0  0  0  0  0
   -3.5200    0.8589   -1.0464 C   0  0  0  0  0  0  0  0  0  0  0  0
   -4.3859   -0.3918   -1.2090 C   0  0  0  0  0  0  0  0  0  0  0  0
   -4.2337    2.0678   -1.6547 C   0  0  0  0  0  0  0  0  0  0  0  0
    7.6805    2.0371   -1.5784 H   0  0  0  0  0  0  0  0  0  0  0  0
    6.0853    2.3084   -0.8580 H   0  0  0  0  0  0  0  0  0  0  0  0
    7.3113    1.3261    0.0046 H   0  0  0  0  0  0  0  0  0  0  0  0
    5.3449   -1.2679   -1.4104 H   0  0  0  0  0  0  0  0  0  0  0  0
    5.8100   -0.4870    0.1024 H   0  0  0  0  0  0  0  0  0  0  0  0
    3.5275   -1.4133    0.1552 H   0  0  0  0  0  0  0  0  0  0  0  0
    1.5797    1.6598   -0.7932 H   0  0  0  0  0  0  0  0  0  0  0  0
   -0.7417    1.9129   -0.2710 H   0  0  0  0  0  0  0  0  0  0  0  0
    1.6086   -2.2231    1.0804 H   0  0  0  0  0  0  0  0  0  0  0  0
   -1.4280   -2.9290    1.0124 H   0  0  0  0  0  0  0  0  0  0  0  0
   -0.3090   -2.8932    2.3871 H   0  0  0  0  0  0  0  0  0  0  0  0
   -1.6515   -1.1702    3.5263 H   0  0  0  0  0  0  0  0  0  0  0  0
   -2.6749   -2.5508    3.0911 H   0  0  0  0  0  0  0  0  0  0  0  0
   -4.1190    1.2488    0.9947 H   0  0  0  0  0  0  0  0  0  0  0  0
   -2.6817    2.1097    0.5469 H   0  0  0  0  0  0  0  0  0  0  0  0
   -2.5947    0.6994   -1.6122 H   0  0  0  0  0  0  0  0  0  0  0  0
   -4.6447   -0.5497   -2.2616 H   0  0  0  0  0  0  0  0  0  0  0  0
   -5.3191   -0.3064   -0.6421 H   0  0  0  0  0  0  0  0  0  0  0  0
   -3.8573   -1.2866   -0.8656 H   0  0  0  0  0  0  0  0  0  0  0  0
   -5.1781    2.2734   -1.1394 H   0  0  0  0  0  0  0  0  0  0  0  0
   -3.6073    2.9635   -1.5863 H   0  0  0  0  0  0  0  0  0  0  0  0
   -4.4556    1.8969   -2.7135 H   0  0  0  0  0  0  0  0  0  0  0  0
  1  2  1  0
  2  3  1  0
  3  4  1  0
  4  5  2  0
  4  6  1  0
  6  7  1  0
  7  8  2  0
  8  9  1  0
  9 10  2  0
 10 11  1  0
 11 12  2  0
 11 13  1  0
 13 14  1  0
 14 15  1  0
 15 16  2  0
 15 17  1  0
 17 18  1  0
 18 19  1  0
 19 20  1  0
 19 21  1  0
 12  7  1  0
 17 10  1  0
  1 22  1  0
  1 23  1  0
  1 24  1  0
  3 25  1  0
  3 26  1  0
  6 27  1  0
  8 28  1  0
  9 29  1  0
 12 30  1  0
 13 31  1  0
 13 32  1  0
 14 33  1  0
 14 34  1  0
 18 35  1  0
 18 36  1  0
 19 37  1  0
 20 38  1  0
 20 39  1  0
 20 40  1  0
 21 41  1  0
 21 42  1  0
 21 43  1  0
M  END
$$$$
