
     RDKit          3D

 49 52  0  0  0  0  0  0  0  0999 V2000
   -3.4850   -0.8887   -0.0215 O   0  0  0  0  0  0  0  0  0  0  0  0
   -2.3215   -0.8134    0.3627 C   0  0  0  0  0  0  0  0  0  0  0  0
   -1.6858   -2.0588    0.8673 C   0  0  0  0  0  0  0  0  0  0  0  0
   -0.8966   -2.9716   -0.0429 C   0  0  0  0  0  0  0  0  0  0  0  0
   -2.2395   -3.4088    0.4448 C   0  0  0  0  0  0  0  0  0  0  0  0
   -1.6056    0.3958    0.3794 N   0  0  0  0  0  0  0  0  0  0  0  0
   -2.3185    1.5961   -0.1335 C   0  0  0  0  0  0  0  0  0  0  0  0
   -2.6448    1.5142   -1.6350 C   0  0  0  0  0  0  0  0  0  0  0  0
   -3.8748    2.3441   -1.9789 C   0  0  0  0  0  0  0  0  0  0  0  0
   -3.8776    3.5358   -1.1981 O   0  0  0  0  0  0  0  0  0  0  0  0
   -4.1569    3.2855    0.1811 C   0  0  0  0  0  0  0  0  0  0  0  0
   -3.5492    1.9816    0.6974 C   0  0  0  0  0  0  0  0  0  0  0  0
   -0.1450    0.5547    0.5305 C   0  0  0  0  0  0  0  0  0  0  0  0
    0.5806   -0.1165    1.6887 C   0  0  0  0  0  0  0  0  0  0  0  0
    2.0412    0.1346    1.3295 C   0  0  0  0  0  0  0  0  0  0  0  0
    2.0973    0.0674   -0.1579 N   0  0  0  0  0  0  0  0  0  0  0  0
    3.0276   -1.1817   -0.8304 S   0  0  0  0  0  6  0  0  0  0  0  0
    2.6412   -2.4123   -0.1720 O   0  0  0  0  0  0  0  0  0  0  0  0
    2.9914   -1.0529   -2.2699 O   0  0  0  0  0  0  0  0  0  0  0  0
    4.7244   -0.9333   -0.3747 C   0  0  0  0  0  0  0  0  0  0  0  0
    5.6793   -1.7846    0.1543 C   0  0  0  0  0  0  0  0  0  0  0  0
    6.9303   -1.1311    0.3609 C   0  0  0  0  0  0  0  0  0  0  0  0
    6.8655    0.1835   -0.0222 C   0  0  0  0  0  0  0  0  0  0  0  0
    8.1354    1.3361    0.0570 Cl  0  0  0  0  0  0  0  0  0  0  0  0
    5.3511    0.6427   -0.6189 S   0  0  0  0  0  0  0  0  0  0  0  0
    0.6988    0.1418   -0.6807 C   0  0  0  0  0  0  0  0  0  0  0  0
   -1.4586   -2.0250    1.9277 H   0  0  0  0  0  0  0  0  0  0  0  0
   -0.0199   -3.4625    0.3646 H   0  0  0  0  0  0  0  0  0  0  0  0
   -0.8196   -2.7382   -1.0988 H   0  0  0  0  0  0  0  0  0  0  0  0
   -2.2821   -4.1950    1.1896 H   0  0  0  0  0  0  0  0  0  0  0  0
   -3.0574   -3.4340   -0.2676 H   0  0  0  0  0  0  0  0  0  0  0  0
   -1.6342    2.4478   -0.0180 H   0  0  0  0  0  0  0  0  0  0  0  0
   -1.7790    1.9028   -2.1872 H   0  0  0  0  0  0  0  0  0  0  0  0
   -2.7862    0.4906   -1.9960 H   0  0  0  0  0  0  0  0  0  0  0  0
   -4.8023    1.7846   -1.8072 H   0  0  0  0  0  0  0  0  0  0  0  0
   -3.8531    2.6247   -3.0367 H   0  0  0  0  0  0  0  0  0  0  0  0
   -5.2424    3.2889    0.3300 H   0  0  0  0  0  0  0  0  0  0  0  0
   -3.7526    4.1336    0.7439 H   0  0  0  0  0  0  0  0  0  0  0  0
   -4.3208    1.2067    0.6424 H   0  0  0  0  0  0  0  0  0  0  0  0
   -3.2990    2.0774    1.7605 H   0  0  0  0  0  0  0  0  0  0  0  0
    0.0287    1.6282    0.6938 H   0  0  0  0  0  0  0  0  0  0  0  0
    0.4379   -1.1946    1.7329 H   0  0  0  0  0  0  0  0  0  0  0  0
    0.3103    0.3046    2.6614 H   0  0  0  0  0  0  0  0  0  0  0  0
    2.7026   -0.5837    1.8219 H   0  0  0  0  0  0  0  0  0  0  0  0
    2.3531    1.1398    1.6352 H   0  0  0  0  0  0  0  0  0  0  0  0
    5.4785   -2.8268    0.3762 H   0  0  0  0  0  0  0  0  0  0  0  0
    7.8186   -1.6028    0.7631 H   0  0  0  0  0  0  0  0  0  0  0  0
    0.3743   -0.8168   -1.0884 H   0  0  0  0  0  0  0  0  0  0  0  0
    0.6402    0.8896   -1.4777 H   0  0  0  0  0  0  0  0  0  0  0  0
  1  2  2  0
  2  3  1  0
  3  4  1  0
  4  5  1  0
  2  6  1  0
  6  7  1  0
  7  8  1  0
  8  9  1  0
  9 10  1  0
 10 11  1  0
 11 12  1  0
  6 13  1  0
 13 14  1  0
 14 15  1  0
 15 16  1  0
 16 17  1  0
 17 18  2  0
 17 19  2  0
 17 20  1  0
 20 21  2  0
 21 22  1  0
 22 23  2  0
 23 24  1  0
 23 25  1  0
 16 26  1  0
  5  3  1  0
 12  7  1  0
 26 13  1  0
 25 20  1  0
  3 27  1  0
  4 28  1  0
  4 29  1  0
  5 30  1  0
  5 31  1  0
  7 32  1  0
  8 33  1  0
  8 34  1  0
  9 35  1  0
  9 36  1  0
 11 37  1  0
 11 38  1  0
 12 39  1  0
 12 40  1  0
 13 41  1  0
 14 42  1  0
 14 43  1  0
 15 44  1  0
 15 45  1  0
 21 46  1  0
 22 47  1  0
 26 48  1  0
 26 49  1  0
M  END
$$$$
