
     RDKit          3D

 44 46  0  0  0  0  0  0  0  0999 V2000
   -6.2595   -1.4209    0.2664 C   0  0  0  0  0  0  0  0  0  0  0  0
   -4.8364   -0.9882    0.4631 C   0  0  0  0  0  0  0  0  0  0  0  0
   -3.9262   -1.0443   -0.5970 C   0  0  0  0  0  0  0  0  0  0  0  0
   -2.5992   -0.6095   -0.4415 C   0  0  0  0  0  0  0  0  0  0  0  0
   -1.6647   -0.7135   -1.6173 C   0  0  0  0  0  0  0  0  0  0  0  0
   -2.1744   -0.1209    0.8129 C   0  0  0  0  0  0  0  0  0  0  0  0
   -0.8375    0.2994    1.0300 N   0  0  0  0  0  0  0  0  0  0  0  0
    0.2706   -0.5723    1.0419 C   0  0  0  0  0  0  0  0  0  0  0  0
    0.2158   -1.7904    1.6811 C   0  0  0  0  0  0  0  0  0  0  0  0
    1.3594   -2.5422    1.6329 C   0  0  0  0  0  0  0  0  0  0  0  0
    2.4823   -2.1401    1.0140 N   0  0  0  0  0  0  0  0  0  0  0  0
    2.4585   -0.9327    0.4275 C   0  0  0  0  0  0  0  0  0  0  0  0
    3.6470   -0.5705   -0.2011 N   0  0  0  0  0  0  0  0  0  0  0  0
    4.0879    0.5767   -0.8658 C   0  0  0  0  0  0  0  0  0  0  0  0
    5.3673    0.5643   -1.4467 C   0  0  0  0  0  0  0  0  0  0  0  0
    5.8657    1.6718   -2.1430 C   0  0  0  0  0  0  0  0  0  0  0  0
    5.0857    2.8205   -2.2763 C   0  0  0  0  0  0  0  0  0  0  0  0
    5.5885    3.9583   -2.9881 C   0  0  0  0  0  0  0  0  0  0  0  0
    5.9979    4.8782   -3.5657 N   0  0  0  0  0  0  0  0  0  0  0  0
    3.8103    2.8499   -1.7114 C   0  0  0  0  0  0  0  0  0  0  0  0
    3.3199    1.7360   -1.0167 C   0  0  0  0  0  0  0  0  0  0  0  0
    1.3816   -0.1346    0.4260 N   0  0  0  0  0  0  0  0  0  0  0  0
   -3.0969   -0.0329    1.8777 C   0  0  0  0  0  0  0  0  0  0  0  0
   -2.6821    0.5111    3.2185 C   0  0  0  0  0  0  0  0  0  0  0  0
   -4.4180   -0.4669    1.6904 C   0  0  0  0  0  0  0  0  0  0  0  0
   -6.8628   -0.5761   -0.0797 H   0  0  0  0  0  0  0  0  0  0  0  0
   -6.3241   -2.2282   -0.4708 H   0  0  0  0  0  0  0  0  0  0  0  0
   -6.6851   -1.8010    1.2010 H   0  0  0  0  0  0  0  0  0  0  0  0
   -4.2555   -1.4309   -1.5603 H   0  0  0  0  0  0  0  0  0  0  0  0
   -2.2171   -0.8565   -2.5525 H   0  0  0  0  0  0  0  0  0  0  0  0
   -1.0799    0.2042   -1.7351 H   0  0  0  0  0  0  0  0  0  0  0  0
   -0.9901   -1.5656   -1.4906 H   0  0  0  0  0  0  0  0  0  0  0  0
   -0.5793    1.0414    0.3825 H   0  0  0  0  0  0  0  0  0  0  0  0
   -0.6725   -2.1380    2.1891 H   0  0  0  0  0  0  0  0  0  0  0  0
    1.4096   -3.5189    2.1044 H   0  0  0  0  0  0  0  0  0  0  0  0
    4.3147   -1.3173   -0.0737 H   0  0  0  0  0  0  0  0  0  0  0  0
    5.9956   -0.3203   -1.3629 H   0  0  0  0  0  0  0  0  0  0  0  0
    6.8622    1.6251   -2.5778 H   0  0  0  0  0  0  0  0  0  0  0  0
    3.1836    3.7350   -1.8032 H   0  0  0  0  0  0  0  0  0  0  0  0
    2.3234    1.8033   -0.5908 H   0  0  0  0  0  0  0  0  0  0  0  0
   -1.9436   -0.1492    3.6840 H   0  0  0  0  0  0  0  0  0  0  0  0
   -3.5350    0.5902    3.9010 H   0  0  0  0  0  0  0  0  0  0  0  0
   -2.2584    1.5147    3.1096 H   0  0  0  0  0  0  0  0  0  0  0  0
   -5.1291   -0.3983    2.5117 H   0  0  0  0  0  0  0  0  0  0  0  0
  1  2  1  0
  2  3  2  0
  3  4  1  0
  4  5  1  0
  4  6  2  0
  6  7  1  0
  7  8  1  0
  8  9  2  0
  9 10  1  0
 10 11  2  0
 11 12  1  0
 12 13  1  0
 13 14  1  0
 14 15  2  0
 15 16  1  0
 16 17  2  0
 17 18  1  0
 18 19  3  0
 17 20  1  0
 20 21  2  0
 12 22  2  0
  6 23  1  0
 23 24  1  0
 23 25  2  0
 25  2  1  0
 22  8  1  0
 21 14  1  0
  1 26  1  0
  1 27  1  0
  1 28  1  0
  3 29  1  0
  5 30  1  0
  5 31  1  0
  5 32  1  0
  7 33  1  0
  9 34  1  0
 10 35  1  0
 13 36  1  0
 15 37  1  0
 16 38  1  0
 20 39  1  0
 21 40  1  0
 24 41  1  0
 24 42  1  0
 24 43  1  0
 25 44  1  0
M  END
$$$$
