
     RDKit          3D

 26 26  0  0  0  0  0  0  0  0999 V2000
    4.5774    1.0674   -0.5943 N   0  0  0  0  0  0  0  0  0  0  0  0
    3.9017   -0.4577   -0.8303 S   0  0  0  0  0  6  0  0  0  0  0  0
    4.0437   -0.7978   -2.2257 O   0  0  0  0  0  0  0  0  0  0  0  0
    4.4306   -1.2841    0.2305 O   0  0  0  0  0  0  0  0  0  0  0  0
    2.1898   -0.1394   -0.4999 C   0  0  0  0  0  0  0  0  0  0  0  0
    1.6650   -0.3990    0.7677 C   0  0  0  0  0  0  0  0  0  0  0  0
    0.3147   -0.1470    1.0156 C   0  0  0  0  0  0  0  0  0  0  0  0
   -0.5125    0.3594    0.0021 C   0  0  0  0  0  0  0  0  0  0  0  0
   -1.9780    0.6072    0.2673 C   0  0  0  0  0  0  0  0  0  0  0  0
   -2.8208   -0.6287   -0.0345 C   0  0  0  0  0  0  0  0  0  0  0  0
   -4.2745   -0.3654    0.2356 C   0  0  0  0  0  0  0  0  0  0  0  0
   -4.7770    0.6670    0.6438 O   0  0  0  0  0  0  0  0  0  0  0  0
   -5.0386   -1.4432   -0.0284 O   0  0  0  0  0  0  0  0  0  0  0  0
    0.0266    0.5980   -1.2707 C   0  0  0  0  0  0  0  0  0  0  0  0
    1.3756    0.3481   -1.5250 C   0  0  0  0  0  0  0  0  0  0  0  0
    5.2148    1.0242    0.2027 H   0  0  0  0  0  0  0  0  0  0  0  0
    3.8796    1.8023   -0.4841 H   0  0  0  0  0  0  0  0  0  0  0  0
    2.2919   -0.7999    1.5614 H   0  0  0  0  0  0  0  0  0  0  0  0
   -0.0916   -0.3535    2.0043 H   0  0  0  0  0  0  0  0  0  0  0  0
   -2.1122    0.9160    1.3124 H   0  0  0  0  0  0  0  0  0  0  0  0
   -2.3185    1.4592   -0.3357 H   0  0  0  0  0  0  0  0  0  0  0  0
   -2.7123   -0.9142   -1.0871 H   0  0  0  0  0  0  0  0  0  0  0  0
   -2.5008   -1.4688    0.5925 H   0  0  0  0  0  0  0  0  0  0  0  0
   -5.9507   -1.1524    0.1827 H   0  0  0  0  0  0  0  0  0  0  0  0
   -0.6048    0.9745   -2.0736 H   0  0  0  0  0  0  0  0  0  0  0  0
    1.7808    0.5276   -2.5192 H   0  0  0  0  0  0  0  0  0  0  0  0
  1  2  1  0
  2  3  2  0
  2  4  2  0
  2  5  1  0
  5  6  2  0
  6  7  1  0
  7  8  2  0
  8  9  1  0
  9 10  1  0
 10 11  1  0
 11 12  2  0
 11 13  1  0
  8 14  1  0
 14 15  2  0
 15  5  1  0
  1 16  1  0
  1 17  1  0
  6 18  1  0
  7 19  1  0
  9 20  1  0
  9 21  1  0
 10 22  1  0
 10 23  1  0
 13 24  1  0
 14 25  1  0
 15 26  1  0
M  END
$$$$
