
     RDKit          3D

 37 39  0  0  0  0  0  0  0  0999 V2000
    4.5299   -1.8334   -0.2922 O   0  0  0  0  0  0  0  0  0  0  0  0
    4.3120   -0.7767   -0.8546 C   0  0  0  0  0  0  0  0  0  0  0  0
    5.0876   -0.3469   -1.8645 O   0  0  0  0  0  0  0  0  0  0  0  0
    3.2080    0.1602   -0.5356 C   0  0  0  0  0  0  0  0  0  0  0  0
    2.9615    1.3056   -1.3050 C   0  0  0  0  0  0  0  0  0  0  0  0
    1.9101    2.1634   -0.9730 C   0  0  0  0  0  0  0  0  0  0  0  0
    1.0949    1.8772    0.1216 C   0  0  0  0  0  0  0  0  0  0  0  0
    1.3257    0.7210    0.8747 C   0  0  0  0  0  0  0  0  0  0  0  0
    0.2986    0.3778    2.2971 S   0  0  0  0  0  6  0  0  0  0  0  0
    1.0473   -0.5221    3.1533 O   0  0  0  0  0  0  0  0  0  0  0  0
   -0.1496    1.6558    2.8101 O   0  0  0  0  0  0  0  0  0  0  0  0
   -1.0219   -0.5123    1.6184 N   0  0  0  0  0  0  0  0  0  0  0  0
   -0.6796   -1.9426    1.3559 C   0  0  0  0  0  0  0  0  0  0  0  0
   -1.6442   -2.6078    0.3897 C   0  0  0  0  0  0  0  0  0  0  0  0
   -1.7051   -1.7953   -0.8936 C   0  0  0  0  0  0  0  0  0  0  0  0
   -2.1832   -0.4080   -0.5695 C   0  0  0  0  0  0  0  0  0  0  0  0
   -2.9572    0.2922   -1.5080 C   0  0  0  0  0  0  0  0  0  0  0  0
   -3.4819    1.5436   -1.1951 C   0  0  0  0  0  0  0  0  0  0  0  0
   -3.2510    2.0932    0.0610 C   0  0  0  0  0  0  0  0  0  0  0  0
   -2.4635    1.4089    0.9904 C   0  0  0  0  0  0  0  0  0  0  0  0
   -1.8757    0.1806    0.6696 C   0  0  0  0  0  0  0  0  0  0  0  0
    2.3934   -0.1278    0.5658 C   0  0  0  0  0  0  0  0  0  0  0  0
    5.7694   -1.0459   -1.9536 H   0  0  0  0  0  0  0  0  0  0  0  0
    3.5876    1.5429   -2.1625 H   0  0  0  0  0  0  0  0  0  0  0  0
    1.7299    3.0578   -1.5655 H   0  0  0  0  0  0  0  0  0  0  0  0
    0.2869    2.5583    0.3812 H   0  0  0  0  0  0  0  0  0  0  0  0
   -0.7000   -2.4828    2.3093 H   0  0  0  0  0  0  0  0  0  0  0  0
    0.3308   -2.0290    0.9443 H   0  0  0  0  0  0  0  0  0  0  0  0
   -2.6407   -2.6829    0.8440 H   0  0  0  0  0  0  0  0  0  0  0  0
   -1.3089   -3.6281    0.1725 H   0  0  0  0  0  0  0  0  0  0  0  0
   -0.7212   -1.7388   -1.3738 H   0  0  0  0  0  0  0  0  0  0  0  0
   -2.3941   -2.2854   -1.5912 H   0  0  0  0  0  0  0  0  0  0  0  0
   -3.1758   -0.1473   -2.4788 H   0  0  0  0  0  0  0  0  0  0  0  0
   -4.0934    2.0760   -1.9192 H   0  0  0  0  0  0  0  0  0  0  0  0
   -3.6881    3.0527    0.3264 H   0  0  0  0  0  0  0  0  0  0  0  0
   -2.3349    1.8521    1.9740 H   0  0  0  0  0  0  0  0  0  0  0  0
    2.5964   -1.0062    1.1764 H   0  0  0  0  0  0  0  0  0  0  0  0
  1  2  2  0
  2  3  1  0
  2  4  1  0
  4  5  2  0
  5  6  1  0
  6  7  2  0
  7  8  1  0
  8  9  1  0
  9 10  2  0
  9 11  2  0
  9 12  1  0
 12 13  1  0
 13 14  1  0
 14 15  1  0
 15 16  1  0
 16 17  2  0
 17 18  1  0
 18 19  2  0
 19 20  1  0
 20 21  2  0
  8 22  2  0
 22  4  1  0
 21 12  1  0
 21 16  1  0
  3 23  1  0
  5 24  1  0
  6 25  1  0
  7 26  1  0
 13 27  1  0
 13 28  1  0
 14 29  1  0
 14 30  1  0
 15 31  1  0
 15 32  1  0
 17 33  1  0
 18 34  1  0
 19 35  1  0
 20 36  1  0
 22 37  1  0
M  END
$$$$
