
     RDKit          3D

 34 36  0  0  0  0  0  0  0  0999 V2000
   -4.1152    1.8148    0.4267 C   0  0  0  0  0  0  0  0  0  0  0  0
   -3.6183    0.4362    0.0299 C   0  0  0  0  0  0  0  0  0  0  0  0
   -2.1950    0.4421    0.1204 O   0  0  0  0  0  0  0  0  0  0  0  0
   -1.5278   -0.7136   -0.1971 C   0  0  0  0  0  0  0  0  0  0  0  0
   -2.1524   -1.8956   -0.6116 C   0  0  0  0  0  0  0  0  0  0  0  0
   -1.3943   -3.0195   -0.9423 C   0  0  0  0  0  0  0  0  0  0  0  0
   -0.0079   -2.9700   -0.8673 C   0  0  0  0  0  0  0  0  0  0  0  0
    0.6255   -1.7984   -0.4538 C   0  0  0  0  0  0  0  0  0  0  0  0
   -0.1191   -0.6576   -0.0978 C   0  0  0  0  0  0  0  0  0  0  0  0
    0.5628    0.6434    0.3361 C   0  0  0  0  0  0  0  0  0  0  0  0
    0.8109    1.5598   -0.8743 C   0  0  0  0  0  0  0  0  0  0  0  0
    2.1209    1.2878   -1.6021 C   0  0  0  0  0  0  0  0  0  0  0  0
    2.2496    1.4889   -2.8094 O   0  0  0  0  0  0  0  0  0  0  0  0
    3.2060    0.9270   -0.8400 N   0  0  0  0  0  0  0  0  0  0  0  0
    3.0969    0.5884    0.4908 C   0  0  0  0  0  0  0  0  0  0  0  0
    4.1532    0.2946    1.3890 C   0  0  0  0  0  0  0  0  0  0  0  0
    3.6757   -0.0111    2.6476 C   0  0  0  0  0  0  0  0  0  0  0  0
    1.9620    0.0408    2.7210 S   0  0  0  0  0  0  0  0  0  0  0  0
    1.8604    0.4574    1.0744 C   0  0  0  0  0  0  0  0  0  0  0  0
   -3.6927    2.5810   -0.2319 H   0  0  0  0  0  0  0  0  0  0  0  0
   -3.7977    2.0604    1.4456 H   0  0  0  0  0  0  0  0  0  0  0  0
   -5.2063    1.8662    0.3743 H   0  0  0  0  0  0  0  0  0  0  0  0
   -3.9337    0.2255   -0.9984 H   0  0  0  0  0  0  0  0  0  0  0  0
   -4.0404   -0.3068    0.7161 H   0  0  0  0  0  0  0  0  0  0  0  0
   -3.2310   -1.9758   -0.6940 H   0  0  0  0  0  0  0  0  0  0  0  0
   -1.8884   -3.9322   -1.2652 H   0  0  0  0  0  0  0  0  0  0  0  0
    0.5841   -3.8423   -1.1326 H   0  0  0  0  0  0  0  0  0  0  0  0
    1.7120   -1.7941   -0.4139 H   0  0  0  0  0  0  0  0  0  0  0  0
   -0.1140    1.1732    1.0207 H   0  0  0  0  0  0  0  0  0  0  0  0
    0.8689    2.6026   -0.5339 H   0  0  0  0  0  0  0  0  0  0  0  0
   -0.0111    1.5002   -1.5972 H   0  0  0  0  0  0  0  0  0  0  0  0
    4.1024    0.8769   -1.3060 H   0  0  0  0  0  0  0  0  0  0  0  0
    5.2078    0.3143    1.1454 H   0  0  0  0  0  0  0  0  0  0  0  0
    4.2463   -0.2646    3.5306 H   0  0  0  0  0  0  0  0  0  0  0  0
  1  2  1  0
  2  3  1  0
  3  4  1  0
  4  5  2  0
  5  6  1  0
  6  7  2  0
  7  8  1  0
  8  9  2  0
  9 10  1  0
 10 11  1  0
 11 12  1  0
 12 13  2  0
 12 14  1  0
 14 15  1  0
 15 16  1  0
 16 17  2  0
 17 18  1  0
 18 19  1  0
  9  4  1  0
 19 10  1  0
 19 15  2  0
  1 20  1  0
  1 21  1  0
  1 22  1  0
  2 23  1  0
  2 24  1  0
  5 25  1  0
  6 26  1  0
  7 27  1  0
  8 28  1  0
 10 29  1  0
 11 30  1  0
 11 31  1  0
 14 32  1  0
 16 33  1  0
 17 34  1  0
M  END
$$$$
