
     RDKit          3D

 48 50  0  0  0  0  0  0  0  0999 V2000
    4.7628   -0.0524   -2.3398 C   0  0  0  0  0  0  0  0  0  0  0  0
    3.4464    0.5243   -1.8879 C   0  0  0  0  0  0  0  0  0  0  0  0
    2.6545    1.1859   -2.8427 C   0  0  0  0  0  0  0  0  0  0  0  0
    1.4245    1.7400   -2.4929 C   0  0  0  0  0  0  0  0  0  0  0  0
    0.9651    1.6383   -1.1781 C   0  0  0  0  0  0  0  0  0  0  0  0
   -0.3512    2.1902   -0.7575 C   0  0  0  0  0  0  0  0  0  0  0  0
   -0.8329    2.0511    0.3563 O   0  0  0  0  0  0  0  0  0  0  0  0
   -0.9527    2.8447   -1.7796 O   0  0  0  0  0  0  0  0  0  0  0  0
   -2.2306    3.4049   -1.4718 C   0  0  0  0  0  0  0  0  0  0  0  0
   -3.3739    2.3840   -1.5128 C   0  0  0  0  0  0  0  0  0  0  0  0
   -4.1334    2.3477   -2.4771 O   0  0  0  0  0  0  0  0  0  0  0  0
   -3.4194    1.5841   -0.3884 N   0  0  0  0  0  0  0  0  0  0  0  0
   -4.3548    0.5676   -0.1351 C   0  0  0  0  0  0  0  0  0  0  0  0
   -5.3428    0.3280   -1.0232 N   0  0  0  0  0  0  0  0  0  0  0  0
   -6.2278   -0.6601   -0.7568 C   0  0  0  0  0  0  0  0  0  0  0  0
   -6.1912   -1.4426    0.3848 C   0  0  0  0  0  0  0  0  0  0  0  0
   -7.1969   -2.5307    0.5919 C   0  0  0  0  0  0  0  0  0  0  0  0
   -7.4837   -2.7410    1.9061 F   0  0  0  0  0  0  0  0  0  0  0  0
   -6.7698   -3.7276    0.1065 F   0  0  0  0  0  0  0  0  0  0  0  0
   -8.3903   -2.2830   -0.0135 F   0  0  0  0  0  0  0  0  0  0  0  0
   -5.1644   -1.1933    1.2993 C   0  0  0  0  0  0  0  0  0  0  0  0
   -4.2393   -0.1799    1.0421 C   0  0  0  0  0  0  0  0  0  0  0  0
   -2.9942    0.1064    2.2020 Cl  0  0  0  0  0  0  0  0  0  0  0  0
    1.7505    0.9822   -0.2171 C   0  0  0  0  0  0  0  0  0  0  0  0
    2.9925    0.4258   -0.5523 C   0  0  0  0  0  0  0  0  0  0  0  0
    3.8088   -0.2481    0.3900 N   0  0  0  0  0  0  0  0  0  0  0  0
    3.6195   -0.3762    1.7616 C   0  0  0  0  0  0  0  0  0  0  0  0
    2.7005    0.1481    2.3822 O   0  0  0  0  0  0  0  0  0  0  0  0
    4.6377   -1.1853    2.4236 C   0  0  0  0  0  0  0  0  0  0  0  0
    5.6729   -1.9874    1.9674 C   0  0  0  0  0  0  0  0  0  0  0  0
    6.3212   -2.5196    3.1103 C   0  0  0  0  0  0  0  0  0  0  0  0
    5.6495   -2.0177    4.1967 C   0  0  0  0  0  0  0  0  0  0  0  0
    4.6328   -1.2170    3.7953 O   0  0  0  0  0  0  0  0  0  0  0  0
    5.5891    0.4117   -1.7914 H   0  0  0  0  0  0  0  0  0  0  0  0
    4.9380    0.1226   -3.4066 H   0  0  0  0  0  0  0  0  0  0  0  0
    4.7770   -1.1359   -2.1812 H   0  0  0  0  0  0  0  0  0  0  0  0
    2.9914    1.2731   -3.8748 H   0  0  0  0  0  0  0  0  0  0  0  0
    0.8355    2.2389   -3.2591 H   0  0  0  0  0  0  0  0  0  0  0  0
   -2.4379    4.1725   -2.2261 H   0  0  0  0  0  0  0  0  0  0  0  0
   -2.2188    3.9217   -0.5040 H   0  0  0  0  0  0  0  0  0  0  0  0
   -2.6710    1.6870    0.2992 H   0  0  0  0  0  0  0  0  0  0  0  0
   -6.9898   -0.7982   -1.5221 H   0  0  0  0  0  0  0  0  0  0  0  0
   -5.0887   -1.7840    2.2106 H   0  0  0  0  0  0  0  0  0  0  0  0
    1.3562    0.9113    0.7932 H   0  0  0  0  0  0  0  0  0  0  0  0
    4.6632   -0.6417    0.0286 H   0  0  0  0  0  0  0  0  0  0  0  0
    5.9354   -2.1849    0.9381 H   0  0  0  0  0  0  0  0  0  0  0  0
    7.1699   -3.1889    3.1394 H   0  0  0  0  0  0  0  0  0  0  0  0
    5.7603   -2.1289    5.2669 H   0  0  0  0  0  0  0  0  0  0  0  0
  1  2  1  0
  2  3  2  0
  3  4  1  0
  4  5  2  0
  5  6  1  0
  6  7  2  0
  6  8  1  0
  8  9  1  0
  9 10  1  0
 10 11  2  0
 10 12  1  0
 12 13  1  0
 13 14  2  0
 14 15  1  0
 15 16  2  0
 16 17  1  0
 17 18  1  0
 17 19  1  0
 17 20  1  0
 16 21  1  0
 21 22  2  0
 22 23  1  0
  5 24  1  0
 24 25  2  0
 25 26  1  0
 26 27  1  0
 27 28  2  0
 27 29  1  0
 29 30  2  0
 30 31  1  0
 31 32  2  0
 32 33  1  0
 25  2  1  0
 33 29  1  0
 22 13  1  0
  1 34  1  0
  1 35  1  0
  1 36  1  0
  3 37  1  0
  4 38  1  0
  9 39  1  0
  9 40  1  0
 12 41  1  0
 15 42  1  0
 21 43  1  0
 24 44  1  0
 26 45  1  0
 30 46  1  0
 31 47  1  0
 32 48  1  0
M  END
$$$$
