
     RDKit          3D

 97101  0  0  0  0  0  0  0  0999 V2000
   -4.2886   -0.9730   -3.1112 C   0  0  0  0  0  0  0  0  0  0  0  0
   -2.8085   -1.2534   -3.3161 C   0  0  0  0  0  0  0  0  0  0  0  0
   -2.0310   -0.7937   -2.2098 O   0  0  0  0  0  0  0  0  0  0  0  0
   -2.1378   -1.4778   -1.0318 C   0  0  0  0  0  0  0  0  0  0  0  0
   -2.1623   -2.8790   -0.9632 C   0  0  0  0  0  0  0  0  0  0  0  0
   -2.2937   -3.5627    0.2617 C   0  0  0  0  0  0  0  0  0  0  0  0
   -2.2877   -5.1011    0.3576 C   0  0  0  0  0  0  0  0  0  0  0  0
   -0.9738   -5.5470    1.0335 C   0  0  0  0  0  0  0  0  0  0  0  0
   -3.4887   -5.5999    1.1963 C   0  0  0  0  0  0  0  0  0  0  0  0
   -2.3782   -5.8120   -1.0127 C   0  0  0  0  0  0  0  0  0  0  0  0
   -2.4022   -2.7818    1.4269 C   0  0  0  0  0  0  0  0  0  0  0  0
   -2.3523   -1.3869    1.3761 C   0  0  0  0  0  0  0  0  0  0  0  0
   -2.1700   -0.7374    0.1519 C   0  0  0  0  0  0  0  0  0  0  0  0
   -2.0883    0.7352    0.1760 C   0  0  0  0  0  0  0  0  0  0  0  0
   -2.9952    1.4217    0.8044 N   0  0  0  0  0  0  0  0  0  0  0  0
   -2.8146    2.8569    0.4186 C   0  0  1  0  0  0  0  0  0  0  0  0
   -4.0203    3.1120   -0.5305 C   0  0  0  0  0  0  0  0  0  0  0  0
   -3.0220    3.8059    1.6139 C   0  0  0  0  0  0  0  0  0  0  0  0
   -2.8493    5.1975    1.4780 C   0  0  0  0  0  0  0  0  0  0  0  0
   -3.0146    6.0545    2.5714 C   0  0  0  0  0  0  0  0  0  0  0  0
   -3.3678    5.5329    3.8128 C   0  0  0  0  0  0  0  0  0  0  0  0
   -3.5581    6.5858    5.1620 Cl  0  0  0  0  0  0  0  0  0  0  0  0
   -3.5697    4.1651    3.9685 C   0  0  0  0  0  0  0  0  0  0  0  0
   -3.4037    3.3102    2.8752 C   0  0  0  0  0  0  0  0  0  0  0  0
   -1.3694    2.8957   -0.3019 C   0  0  1  0  0  0  0  0  0  0  0  0
   -1.4878    3.5880   -1.6891 C   0  0  0  0  0  0  0  0  0  0  0  0
   -0.2454    3.5285    0.5810 C   0  0  0  0  0  0  0  0  0  0  0  0
    0.5921    4.5646    0.1241 C   0  0  0  0  0  0  0  0  0  0  0  0
    1.6052    5.0938    0.9344 C   0  0  0  0  0  0  0  0  0  0  0  0
    1.8006    4.6006    2.2198 C   0  0  0  0  0  0  0  0  0  0  0  0
    3.0491    5.2505    3.2090 Cl  0  0  0  0  0  0  0  0  0  0  0  0
    0.9970    3.5766    2.7005 C   0  0  0  0  0  0  0  0  0  0  0  0
   -0.0107    3.0456    1.8880 C   0  0  0  0  0  0  0  0  0  0  0  0
   -1.0546    1.4576   -0.4303 N   0  0  0  0  0  0  0  0  0  0  0  0
    0.0281    1.0121   -1.1910 C   0  0  0  0  0  0  0  0  0  0  0  0
    0.3143    1.5234   -2.2760 O   0  0  0  0  0  0  0  0  0  0  0  0
    0.7743   -0.0527   -0.7040 N   0  0  0  0  0  0  0  0  0  0  0  0
    0.9515   -0.3750    0.7169 C   0  0  0  0  0  0  0  0  0  0  0  0
    2.4396   -0.5610    1.0709 C   0  0  0  0  0  0  0  0  0  0  0  0
    3.0253   -1.6982    0.3432 N   0  0  0  0  0  0  0  0  0  0  0  0
    4.4796   -1.8134    0.4442 C   0  0  0  0  0  0  0  0  0  0  0  0
    5.2812   -0.6437   -0.1498 C   0  0  0  0  0  0  0  0  0  0  0  0
    6.7840   -0.9027   -0.1315 C   0  0  0  0  0  0  0  0  0  0  0  0
    7.3295   -1.8952   -1.5156 S   0  0  0  0  0  6  0  0  0  0  0  0
    9.0943   -1.9266   -1.3071 C   0  0  0  0  0  0  0  0  0  0  0  0
    7.0508   -1.1576   -2.7318 O   0  0  0  0  0  0  0  0  0  0  0  0
    6.8507   -3.2513   -1.3372 O   0  0  0  0  0  0  0  0  0  0  0  0
    2.4998   -1.8465   -1.0291 C   0  0  0  0  0  0  0  0  0  0  0  0
    1.8013   -0.5976   -1.5941 C   0  0  0  0  0  0  0  0  0  0  0  0
   -4.4477    0.0550   -2.7765 H   0  0  0  0  0  0  0  0  0  0  0  0
   -4.8406   -1.1278   -4.0419 H   0  0  0  0  0  0  0  0  0  0  0  0
   -4.7127   -1.6372   -2.3511 H   0  0  0  0  0  0  0  0  0  0  0  0
   -2.6173   -2.3040   -3.5582 H   0  0  0  0  0  0  0  0  0  0  0  0
   -2.4658   -0.6834   -4.1874 H   0  0  0  0  0  0  0  0  0  0  0  0
   -2.0425   -3.4394   -1.8819 H   0  0  0  0  0  0  0  0  0  0  0  0
   -0.8748   -5.1422    2.0489 H   0  0  0  0  0  0  0  0  0  0  0  0
   -0.9205   -6.6389    1.1139 H   0  0  0  0  0  0  0  0  0  0  0  0
   -0.1003   -5.2127    0.4591 H   0  0  0  0  0  0  0  0  0  0  0  0
   -4.4383   -5.2354    0.7806 H   0  0  0  0  0  0  0  0  0  0  0  0
   -3.5305   -6.6955    1.2151 H   0  0  0  0  0  0  0  0  0  0  0  0
   -3.4356   -5.2671    2.2398 H   0  0  0  0  0  0  0  0  0  0  0  0
   -1.5098   -5.5906   -1.6451 H   0  0  0  0  0  0  0  0  0  0  0  0
   -3.2836   -5.5187   -1.5565 H   0  0  0  0  0  0  0  0  0  0  0  0
   -2.4094   -6.9015   -0.8899 H   0  0  0  0  0  0  0  0  0  0  0  0
   -2.5013   -3.2517    2.4024 H   0  0  0  0  0  0  0  0  0  0  0  0
   -2.4264   -0.8097    2.2953 H   0  0  0  0  0  0  0  0  0  0  0  0
   -4.0289    2.4078   -1.3701 H   0  0  0  0  0  0  0  0  0  0  0  0
   -4.0340    4.1298   -0.9327 H   0  0  0  0  0  0  0  0  0  0  0  0
   -4.9699    2.9676    0.0024 H   0  0  0  0  0  0  0  0  0  0  0  0
   -2.5707    5.6322    0.5198 H   0  0  0  0  0  0  0  0  0  0  0  0
   -2.8615    7.1240    2.4472 H   0  0  0  0  0  0  0  0  0  0  0  0
   -3.8581    3.7545    4.9330 H   0  0  0  0  0  0  0  0  0  0  0  0
   -3.5728    2.2445    3.0201 H   0  0  0  0  0  0  0  0  0  0  0  0
   -0.5299    3.6809   -2.2091 H   0  0  0  0  0  0  0  0  0  0  0  0
   -2.1349    3.0247   -2.3692 H   0  0  0  0  0  0  0  0  0  0  0  0
   -1.8814    4.6061   -1.5945 H   0  0  0  0  0  0  0  0  0  0  0  0
    0.4902    4.9874   -0.8723 H   0  0  0  0  0  0  0  0  0  0  0  0
    2.2343    5.8916    0.5516 H   0  0  0  0  0  0  0  0  0  0  0  0
    1.1435    3.1832    3.7016 H   0  0  0  0  0  0  0  0  0  0  0  0
   -0.6256    2.2459    2.2969 H   0  0  0  0  0  0  0  0  0  0  0  0
    0.5132    0.3964    1.3471 H   0  0  0  0  0  0  0  0  0  0  0  0
    0.4286   -1.3177    0.9114 H   0  0  0  0  0  0  0  0  0  0  0  0
    2.9585    0.3761    0.8416 H   0  0  0  0  0  0  0  0  0  0  0  0
    2.5331   -0.7406    2.1472 H   0  0  0  0  0  0  0  0  0  0  0  0
    4.7481   -1.9233    1.5049 H   0  0  0  0  0  0  0  0  0  0  0  0
    4.7745   -2.7590   -0.0236 H   0  0  0  0  0  0  0  0  0  0  0  0
    5.0964    0.2558    0.4511 H   0  0  0  0  0  0  0  0  0  0  0  0
    4.9491   -0.4194   -1.1696 H   0  0  0  0  0  0  0  0  0  0  0  0
    7.1029   -1.3984    0.7898 H   0  0  0  0  0  0  0  0  0  0  0  0
    7.3154    0.0494   -0.2173 H   0  0  0  0  0  0  0  0  0  0  0  0
    9.5261   -2.4900   -2.1384 H   0  0  0  0  0  0  0  0  0  0  0  0
    9.3261   -2.4218   -0.3623 H   0  0  0  0  0  0  0  0  0  0  0  0
    9.4684   -0.8998   -1.3114 H   0  0  0  0  0  0  0  0  0  0  0  0
    3.2755   -2.1755   -1.7312 H   0  0  0  0  0  0  0  0  0  0  0  0
    1.7613   -2.6578   -0.9988 H   0  0  0  0  0  0  0  0  0  0  0  0
    2.5410    0.1933   -1.7753 H   0  0  0  0  0  0  0  0  0  0  0  0
    1.3359   -0.8344   -2.5568 H   0  0  0  0  0  0  0  0  0  0  0  0
  1  2  1  0
  2  3  1  0
  3  4  1  0
  4  5  2  0
  5  6  1  0
  6  7  1  0
  7  8  1  0
  7  9  1  0
  7 10  1  0
  6 11  2  0
 11 12  1  0
 12 13  2  0
 13 14  1  0
 14 15  2  0
 15 16  1  0
 16 17  1  6
 16 18  1  0
 18 19  2  0
 19 20  1  0
 20 21  2  0
 21 22  1  0
 21 23  1  0
 23 24  2  0
 16 25  1  0
 25 26  1  6
 25 27  1  0
 27 28  2  0
 28 29  1  0
 29 30  2  0
 30 31  1  0
 30 32  1  0
 32 33  2  0
 25 34  1  0
 34 35  1  0
 35 36  2  0
 35 37  1  0
 37 38  1  0
 38 39  1  0
 39 40  1  0
 40 41  1  0
 41 42  1  0
 42 43  1  0
 43 44  1  0
 44 45  1  0
 44 46  2  0
 44 47  2  0
 40 48  1  0
 48 49  1  0
 13  4  1  0
 34 14  1  0
 49 37  1  0
 24 18  1  0
 33 27  1  0
  1 50  1  0
  1 51  1  0
  1 52  1  0
  2 53  1  0
  2 54  1  0
  5 55  1  0
  8 56  1  0
  8 57  1  0
  8 58  1  0
  9 59  1  0
  9 60  1  0
  9 61  1  0
 10 62  1  0
 10 63  1  0
 10 64  1  0
 11 65  1  0
 12 66  1  0
 17 67  1  0
 17 68  1  0
 17 69  1  0
 19 70  1  0
 20 71  1  0
 23 72  1  0
 24 73  1  0
 26 74  1  0
 26 75  1  0
 26 76  1  0
 28 77  1  0
 29 78  1  0
 32 79  1  0
 33 80  1  0
 38 81  1  0
 38 82  1  0
 39 83  1  0
 39 84  1  0
 41 85  1  0
 41 86  1  0
 42 87  1  0
 42 88  1  0
 43 89  1  0
 43 90  1  0
 45 91  1  0
 45 92  1  0
 45 93  1  0
 48 94  1  0
 48 95  1  0
 49 96  1  0
 49 97  1  0
M  END
$$$$
