
     RDKit          3D

 30 32  0  0  0  0  0  0  0  0999 V2000
   -2.1743   -3.8277    1.0303 O   0  0  0  0  0  0  0  0  0  0  0  0
   -1.8384   -2.7130    0.6503 C   0  0  0  0  0  0  0  0  0  0  0  0
   -2.5764   -2.0289   -0.2725 N   0  0  0  0  0  0  0  0  0  0  0  0
   -2.2084   -0.8102   -0.8236 C   0  0  0  0  0  0  0  0  0  0  0  0
   -2.8996   -0.3015   -1.9235 C   0  0  0  0  0  0  0  0  0  0  0  0
   -2.5162    0.9236   -2.4707 C   0  0  0  0  0  0  0  0  0  0  0  0
   -1.4575    1.6316   -1.9058 C   0  0  0  0  0  0  0  0  0  0  0  0
   -0.9925    3.1481   -2.5713 Cl  0  0  0  0  0  0  0  0  0  0  0  0
   -0.7811    1.1271   -0.7937 C   0  0  0  0  0  0  0  0  0  0  0  0
   -1.1516   -0.1132   -0.2438 C   0  0  0  0  0  0  0  0  0  0  0  0
   -0.5431   -0.6941    1.0237 C   0  0  1  0  0  0  0  0  0  0  0  0
    0.9190   -0.4333    1.0790 C   0  0  0  0  0  0  0  0  0  0  0  0
    2.1004   -0.2183    1.1172 C   0  0  0  0  0  0  0  0  0  0  0  0
    3.5081    0.0446    1.1534 C   0  0  0  0  0  0  0  0  0  0  0  0
    3.9768    1.4762    1.1266 C   0  0  0  0  0  0  0  0  0  0  0  0
    4.1676    0.6037   -0.0802 C   0  0  0  0  0  0  0  0  0  0  0  0
   -1.2395   -0.0871    2.2758 C   0  0  0  0  0  0  0  0  0  0  0  0
   -2.5738   -0.3340    2.2863 F   0  0  0  0  0  0  0  0  0  0  0  0
   -0.7416   -0.5914    3.4318 F   0  0  0  0  0  0  0  0  0  0  0  0
   -1.0914    1.2610    2.3374 F   0  0  0  0  0  0  0  0  0  0  0  0
   -0.6839   -2.1365    1.0588 O   0  0  0  0  0  0  0  0  0  0  0  0
   -3.3711   -2.5401   -0.6363 H   0  0  0  0  0  0  0  0  0  0  0  0
   -3.7275   -0.8476   -2.3681 H   0  0  0  0  0  0  0  0  0  0  0  0
   -3.0472    1.3215   -3.3320 H   0  0  0  0  0  0  0  0  0  0  0  0
    0.0227    1.7142   -0.3526 H   0  0  0  0  0  0  0  0  0  0  0  0
    4.0974   -0.6501    1.7462 H   0  0  0  0  0  0  0  0  0  0  0  0
    3.2399    2.2694    1.0675 H   0  0  0  0  0  0  0  0  0  0  0  0
    4.8522    1.7323    1.7129 H   0  0  0  0  0  0  0  0  0  0  0  0
    3.5594    0.8066   -0.9548 H   0  0  0  0  0  0  0  0  0  0  0  0
    5.1718    0.2670   -0.3118 H   0  0  0  0  0  0  0  0  0  0  0  0
  1  2  2  0
  2  3  1  0
  3  4  1  0
  4  5  2  0
  5  6  1  0
  6  7  2  0
  7  8  1  0
  7  9  1  0
  9 10  2  0
 10 11  1  0
 11 12  1  1
 12 13  3  0
 13 14  1  0
 14 15  1  0
 15 16  1  0
 11 17  1  0
 17 18  1  0
 17 19  1  0
 17 20  1  0
 11 21  1  0
 21  2  1  0
 10  4  1  0
 16 14  1  0
  3 22  1  0
  5 23  1  0
  6 24  1  0
  9 25  1  0
 14 26  1  0
 15 27  1  0
 15 28  1  0
 16 29  1  0
 16 30  1  0
M  END
$$$$
