
     RDKit          3D

 48 51  0  0  0  0  0  0  0  0999 V2000
    5.9162    1.8937    2.4639 C   0  0  0  0  0  0  0  0  0  0  0  0
    6.0694    1.7652    1.0561 O   0  0  0  0  0  0  0  0  0  0  0  0
    5.0290    1.2039    0.3695 C   0  0  0  0  0  0  0  0  0  0  0  0
    3.8143    0.7895    0.9139 C   0  0  0  0  0  0  0  0  0  0  0  0
    2.8297    0.2279    0.0904 C   0  0  0  0  0  0  0  0  0  0  0  0
    3.0447    0.0719   -1.2862 C   0  0  0  0  0  0  0  0  0  0  0  0
    2.0101   -0.5171   -2.1277 C   0  0  0  0  0  0  0  0  0  0  0  0
    2.2211   -0.9689   -3.3757 N   0  0  0  0  0  0  0  0  0  0  0  0
    0.9834   -1.4773   -3.7601 O   0  0  0  0  0  0  0  0  0  0  0  0
    0.1360   -1.2604   -2.7162 C   0  0  0  0  0  0  0  0  0  0  0  0
   -1.2675   -1.6980   -2.8863 C   0  0  0  0  0  0  0  0  0  0  0  0
   -1.6448   -3.2797   -2.0736 S   0  0  0  0  0  0  0  0  0  0  0  0
   -1.0539   -3.0194   -0.4601 C   0  0  0  0  0  0  0  0  0  0  0  0
   -0.0358   -3.6835    0.0354 N   0  0  0  0  0  0  0  0  0  0  0  0
    0.2834   -3.1256    1.2421 N   0  0  0  0  0  0  0  0  0  0  0  0
   -0.5578   -2.1386    1.4781 C   0  0  0  0  0  0  0  0  0  0  0  0
   -0.5976   -1.3620    2.7408 C   0  0  0  0  0  0  0  0  0  0  0  0
   -1.4567   -2.0297    0.4218 N   0  0  0  0  0  0  0  0  0  0  0  0
   -2.5414   -1.1208    0.3070 C   0  0  0  0  0  0  0  0  0  0  0  0
   -2.3735    0.2226    0.6632 C   0  0  0  0  0  0  0  0  0  0  0  0
   -3.4378    1.1238    0.5380 C   0  0  0  0  0  0  0  0  0  0  0  0
   -4.6748    0.6900    0.0625 C   0  0  0  0  0  0  0  0  0  0  0  0
   -5.7885    1.4638   -0.1070 O   0  0  0  0  0  0  0  0  0  0  0  0
   -5.6773    2.8398    0.2353 C   0  0  0  0  0  0  0  0  0  0  0  0
   -4.8383   -0.6521   -0.2879 C   0  0  0  0  0  0  0  0  0  0  0  0
   -3.7809   -1.5580   -0.1705 C   0  0  0  0  0  0  0  0  0  0  0  0
    0.7027   -0.6434   -1.7032 N   0  0  0  0  0  0  0  0  0  0  0  0
    4.2687    0.4871   -1.8245 C   0  0  0  0  0  0  0  0  0  0  0  0
    5.2489    1.0509   -1.0012 C   0  0  0  0  0  0  0  0  0  0  0  0
    6.8381    2.3287    2.8620 H   0  0  0  0  0  0  0  0  0  0  0  0
    5.0937    2.5737    2.7095 H   0  0  0  0  0  0  0  0  0  0  0  0
    5.7775    0.9165    2.9387 H   0  0  0  0  0  0  0  0  0  0  0  0
    3.6000    0.8815    1.9732 H   0  0  0  0  0  0  0  0  0  0  0  0
    1.8946   -0.1044    0.5370 H   0  0  0  0  0  0  0  0  0  0  0  0
   -1.9407   -0.9226   -2.5094 H   0  0  0  0  0  0  0  0  0  0  0  0
   -1.4961   -1.8132   -3.9515 H   0  0  0  0  0  0  0  0  0  0  0  0
   -0.1095   -0.3914    2.6150 H   0  0  0  0  0  0  0  0  0  0  0  0
   -0.0591   -1.8996    3.5287 H   0  0  0  0  0  0  0  0  0  0  0  0
   -1.6221   -1.2111    3.0935 H   0  0  0  0  0  0  0  0  0  0  0  0
   -1.4115    0.6098    0.9901 H   0  0  0  0  0  0  0  0  0  0  0  0
   -3.2635    2.1600    0.8114 H   0  0  0  0  0  0  0  0  0  0  0  0
   -6.6460    3.3112    0.0436 H   0  0  0  0  0  0  0  0  0  0  0  0
   -5.4503    2.9646    1.2995 H   0  0  0  0  0  0  0  0  0  0  0  0
   -4.9326    3.3418   -0.3904 H   0  0  0  0  0  0  0  0  0  0  0  0
   -5.8050   -0.9976   -0.6488 H   0  0  0  0  0  0  0  0  0  0  0  0
   -3.9669   -2.6004   -0.4191 H   0  0  0  0  0  0  0  0  0  0  0  0
    4.4736    0.3775   -2.8876 H   0  0  0  0  0  0  0  0  0  0  0  0
    6.1948    1.3686   -1.4335 H   0  0  0  0  0  0  0  0  0  0  0  0
  1  2  1  0
  2  3  1  0
  3  4  2  0
  4  5  1  0
  5  6  2  0
  6  7  1  0
  7  8  2  0
  8  9  1  0
  9 10  1  0
 10 11  1  0
 11 12  1  0
 12 13  1  0
 13 14  2  0
 14 15  1  0
 15 16  2  0
 16 17  1  0
 16 18  1  0
 18 19  1  0
 19 20  2  0
 20 21  1  0
 21 22  2  0
 22 23  1  0
 23 24  1  0
 22 25  1  0
 25 26  2  0
 10 27  2  0
  6 28  1  0
 28 29  2  0
 29  3  1  0
 27  7  1  0
 18 13  1  0
 26 19  1  0
  1 30  1  0
  1 31  1  0
  1 32  1  0
  4 33  1  0
  5 34  1  0
 11 35  1  0
 11 36  1  0
 17 37  1  0
 17 38  1  0
 17 39  1  0
 20 40  1  0
 21 41  1  0
 24 42  1  0
 24 43  1  0
 24 44  1  0
 25 45  1  0
 26 46  1  0
 28 47  1  0
 29 48  1  0
M  END
$$$$
