
     RDKit          3D

 44 46  0  0  0  0  0  0  0  0999 V2000
    7.9120   -0.4895   -1.5622 C   0  0  0  0  0  0  0  0  0  0  0  0
    6.5182   -0.7353   -1.4256 O   0  0  0  0  0  0  0  0  0  0  0  0
    5.7480    0.3023   -0.9718 C   0  0  0  0  0  0  0  0  0  0  0  0
    6.2018    1.5797   -0.6509 C   0  0  0  0  0  0  0  0  0  0  0  0
    5.3040    2.5439   -0.1904 C   0  0  0  0  0  0  0  0  0  0  0  0
    3.9506    2.2340   -0.0461 C   0  0  0  0  0  0  0  0  0  0  0  0
    3.4690    0.9562   -0.3650 C   0  0  0  0  0  0  0  0  0  0  0  0
    2.0450    0.6255   -0.2117 C   0  0  0  0  0  0  0  0  0  0  0  0
    1.3982    0.7683    1.0259 C   0  0  0  0  0  0  0  0  0  0  0  0
    0.0393    0.4563    1.1837 C   0  0  0  0  0  0  0  0  0  0  0  0
   -0.7086   -0.0036    0.1015 C   0  0  0  0  0  0  0  0  0  0  0  0
   -2.0833   -0.3354    0.1605 N   0  0  0  0  0  0  0  0  0  0  0  0
   -2.9038   -0.3059    1.2571 C   0  0  0  0  0  0  0  0  0  0  0  0
   -2.5635    0.0021    2.3962 O   0  0  0  0  0  0  0  0  0  0  0  0
   -4.3150   -0.7529    1.0476 C   0  0  0  0  0  0  0  0  0  0  0  0
   -5.1305   -0.7718   -0.0211 C   0  0  0  0  0  0  0  0  0  0  0  0
   -4.8209   -0.3780   -1.3952 C   0  0  0  0  0  0  0  0  0  0  0  0
   -3.7159   -0.3665   -1.9028 O   0  0  0  0  0  0  0  0  0  0  0  0
   -5.9182   -0.0526   -2.0914 O   0  0  0  0  0  0  0  0  0  0  0  0
   -6.4939   -1.2882    0.3267 C   0  0  0  0  0  0  0  0  0  0  0  0
   -6.5044   -1.2287    1.8483 C   0  0  0  0  0  0  0  0  0  0  0  0
   -5.0405   -1.2545    2.2694 C   0  0  0  0  0  0  0  0  0  0  0  0
   -0.0602   -0.1489   -1.1310 C   0  0  0  0  0  0  0  0  0  0  0  0
   -0.7441   -0.6051   -2.1926 F   0  0  0  0  0  0  0  0  0  0  0  0
    1.2906    0.1559   -1.2939 C   0  0  0  0  0  0  0  0  0  0  0  0
    4.3882    0.0023   -0.8306 C   0  0  0  0  0  0  0  0  0  0  0  0
    8.1024    0.2852   -2.3113 H   0  0  0  0  0  0  0  0  0  0  0  0
    8.3643   -0.2277   -0.5994 H   0  0  0  0  0  0  0  0  0  0  0  0
    8.3831   -1.4140   -1.9108 H   0  0  0  0  0  0  0  0  0  0  0  0
    7.2456    1.8579   -0.7470 H   0  0  0  0  0  0  0  0  0  0  0  0
    5.6589    3.5405    0.0577 H   0  0  0  0  0  0  0  0  0  0  0  0
    3.2672    3.0042    0.3095 H   0  0  0  0  0  0  0  0  0  0  0  0
    1.9552    1.1144    1.8945 H   0  0  0  0  0  0  0  0  0  0  0  0
   -0.3972    0.5851    2.1695 H   0  0  0  0  0  0  0  0  0  0  0  0
   -2.4811   -0.6127   -0.7389 H   0  0  0  0  0  0  0  0  0  0  0  0
   -5.5792    0.1721   -2.9837 H   0  0  0  0  0  0  0  0  0  0  0  0
   -7.3063   -0.6796   -0.0807 H   0  0  0  0  0  0  0  0  0  0  0  0
   -6.6097   -2.3167   -0.0297 H   0  0  0  0  0  0  0  0  0  0  0  0
   -7.0770   -2.0525    2.2873 H   0  0  0  0  0  0  0  0  0  0  0  0
   -6.9707   -0.2923    2.1804 H   0  0  0  0  0  0  0  0  0  0  0  0
   -4.8912   -0.6240    3.1517 H   0  0  0  0  0  0  0  0  0  0  0  0
   -4.7149   -2.2750    2.5049 H   0  0  0  0  0  0  0  0  0  0  0  0
    1.7398    0.0281   -2.2750 H   0  0  0  0  0  0  0  0  0  0  0  0
    4.0487   -1.0025   -1.0756 H   0  0  0  0  0  0  0  0  0  0  0  0
  1  2  1  0
  2  3  1  0
  3  4  2  0
  4  5  1  0
  5  6  2  0
  6  7  1  0
  7  8  1  0
  8  9  2  0
  9 10  1  0
 10 11  2  0
 11 12  1  0
 12 13  1  0
 13 14  2  0
 13 15  1  0
 15 16  2  0
 16 17  1  0
 17 18  2  0
 17 19  1  0
 16 20  1  0
 20 21  1  0
 21 22  1  0
 11 23  1  0
 23 24  1  0
 23 25  2  0
  7 26  2  0
 26  3  1  0
 25  8  1  0
 22 15  1  0
  1 27  1  0
  1 28  1  0
  1 29  1  0
  4 30  1  0
  5 31  1  0
  6 32  1  0
  9 33  1  0
 10 34  1  0
 12 35  1  0
 19 36  1  0
 20 37  1  0
 20 38  1  0
 21 39  1  0
 21 40  1  0
 22 41  1  0
 22 42  1  0
 25 43  1  0
 26 44  1  0
M  END
$$$$
