
     RDKit          3D

 44 44  0  0  0  0  0  0  0  0999 V2000
   -0.8155    0.3563    1.6494 C   0  0  0  0  0  0  0  0  0  0  0  0
   -0.8589   -0.6193    0.5304 C   0  0  1  0  0  0  0  0  0  0  0  0
    0.1754   -1.6122    0.5580 N   0  0  0  0  0  0  0  0  0  0  0  0
    1.5074   -1.1429    0.4487 C   0  0  0  0  0  0  0  0  0  0  0  0
    1.8507   -0.5613   -0.9210 C   0  0  0  0  0  0  0  0  0  0  0  0
    3.2565   -0.1088   -0.9347 C   0  0  0  0  0  0  0  0  0  0  0  0
    3.5942    1.1735   -0.5869 C   0  0  0  0  0  0  0  0  0  0  0  0
    4.9091    1.6274   -0.5879 C   0  0  0  0  0  0  0  0  0  0  0  0
    5.9276    0.7501   -0.9556 C   0  0  0  0  0  0  0  0  0  0  0  0
    7.2586    1.1789   -0.9655 O   0  0  0  0  0  0  0  0  0  0  0  0
    5.6050   -0.5384   -1.3070 C   0  0  0  0  0  0  0  0  0  0  0  0
    4.2964   -0.9565   -1.2959 C   0  0  0  0  0  0  0  0  0  0  0  0
   -2.2051   -1.3252    0.5562 C   0  0  1  0  0  0  0  0  0  0  0  0
   -2.3709   -2.1109    1.6917 O   0  0  0  0  0  0  0  0  0  0  0  0
   -3.3033   -0.3682    0.3375 C   0  0  0  0  0  0  0  0  0  0  0  0
   -3.8045   -0.1656   -0.9236 C   0  0  0  0  0  0  0  0  0  0  0  0
   -4.8479    0.7263   -1.1427 C   0  0  0  0  0  0  0  0  0  0  0  0
   -5.4085    1.4346   -0.0858 C   0  0  0  0  0  0  0  0  0  0  0  0
   -6.4587    2.3291   -0.3237 O   0  0  0  0  0  0  0  0  0  0  0  0
   -4.9060    1.2316    1.1798 C   0  0  0  0  0  0  0  0  0  0  0  0
   -3.8633    0.3352    1.3722 C   0  0  0  0  0  0  0  0  0  0  0  0
    0.6841    0.0000    0.0000 Cl  0  0  0  0  0  0  0  0  0  0  0  0
    0.1818    0.8766    1.7330 H   0  0  0  0  0  0  0  0  0  0  0  0
   -1.5300    1.1750    1.4303 H   0  0  0  0  0  0  0  0  0  0  0  0
   -1.1185   -0.0725    2.6269 H   0  0  0  0  0  0  0  0  0  0  0  0
   -0.7453   -0.0605   -0.4212 H   0  0  0  0  0  0  0  0  0  0  0  0
   -0.0435   -2.4587    0.0221 H   0  0  0  0  0  0  0  0  0  0  0  0
    1.7255   -0.3278    1.1686 H   0  0  0  0  0  0  0  0  0  0  0  0
    2.2761   -1.9192    0.6417 H   0  0  0  0  0  0  0  0  0  0  0  0
    1.1429    0.2523   -1.1961 H   0  0  0  0  0  0  0  0  0  0  0  0
    1.7456   -1.3383   -1.7141 H   0  0  0  0  0  0  0  0  0  0  0  0
    2.8421    1.8993   -0.2922 H   0  0  0  0  0  0  0  0  0  0  0  0
    5.1788    2.6309   -0.3162 H   0  0  0  0  0  0  0  0  0  0  0  0
    7.9732    0.5347   -1.2317 H   0  0  0  0  0  0  0  0  0  0  0  0
    6.3921   -1.2089   -1.5888 H   0  0  0  0  0  0  0  0  0  0  0  0
    3.9896   -1.9672   -1.5651 H   0  0  0  0  0  0  0  0  0  0  0  0
   -2.2112   -2.0573   -0.3144 H   0  0  0  0  0  0  0  0  0  0  0  0
   -2.5478   -1.6175    2.5114 H   0  0  0  0  0  0  0  0  0  0  0  0
   -3.3620   -0.7224   -1.7423 H   0  0  0  0  0  0  0  0  0  0  0  0
   -5.2104    0.8563   -2.1394 H   0  0  0  0  0  0  0  0  0  0  0  0
   -7.3909    1.9264   -0.2679 H   0  0  0  0  0  0  0  0  0  0  0  0
   -5.3433    1.7823    1.9967 H   0  0  0  0  0  0  0  0  0  0  0  0
   -3.4830    0.1831    2.3649 H   0  0  0  0  0  0  0  0  0  0  0  0
   -0.6841    0.0000    0.0000 H   0  0  0  0  0  0  0  0  0  0  0  0
  1  2  1  0
  2  3  1  0
  3  4  1  0
  4  5  1  0
  5  6  1  0
  6  7  2  0
  7  8  1  0
  8  9  2  0
  9 10  1  0
  9 11  1  0
 11 12  2  0
  2 13  1  0
 13 14  1  0
 13 15  1  0
 15 16  2  0
 16 17  1  0
 17 18  2  0
 18 19  1  0
 18 20  1  0
 20 21  2  0
 12  6  1  0
 21 15  1  0
  1 23  1  0
  1 24  1  0
  1 25  1  0
  2 26  1  6
  3 27  1  0
  4 28  1  0
  4 29  1  0
  5 30  1  0
  5 31  1  0
  7 32  1  0
  8 33  1  0
 10 34  1  0
 11 35  1  0
 12 36  1  0
 13 37  1  6
 14 38  1  0
 16 39  1  0
 17 40  1  0
 19 41  1  0
 20 42  1  0
 21 43  1  0
 22 44  1  0
M  END
$$$$
