
     RDKit          3D

 27 29  0  0  0  0  0  0  0  0999 V2000
    1.0959    0.4819    1.7263 O   0  0  0  0  0  0  0  0  0  0  0  0
    1.5544    0.2104    0.6203 C   0  0  0  0  0  0  0  0  0  0  0  0
    0.9385    0.5019   -0.5942 O   0  0  0  0  0  0  0  0  0  0  0  0
   -0.3647    0.9924   -0.4061 C   0  0  0  0  0  0  0  0  0  0  0  0
   -0.5813    2.3717   -0.4171 C   0  0  0  0  0  0  0  0  0  0  0  0
    0.7130    3.4854   -0.6562 Cl  0  0  0  0  0  0  0  0  0  0  0  0
   -1.8650    2.8628   -0.2355 C   0  0  0  0  0  0  0  0  0  0  0  0
   -2.9205    1.9677   -0.0545 C   0  0  0  0  0  0  0  0  0  0  0  0
   -4.4968    2.6543    0.1655 Cl  0  0  0  0  0  0  0  0  0  0  0  0
   -2.7106    0.5637   -0.0617 C   0  0  0  0  0  0  0  0  0  0  0  0
   -3.7351   -0.3950    0.1066 C   0  0  0  0  0  0  0  0  0  0  0  0
   -3.4487   -1.7546    0.0825 C   0  0  0  0  0  0  0  0  0  0  0  0
   -2.1391   -2.1319   -0.1144 C   0  0  0  0  0  0  0  0  0  0  0  0
   -1.1282   -1.2549   -0.2837 N   0  0  0  0  0  0  0  0  0  0  0  0
   -1.4015    0.0685   -0.2496 C   0  0  0  0  0  0  0  0  0  0  0  0
    2.8268   -0.4247    0.3604 C   0  0  0  0  0  0  0  0  0  0  0  0
    3.4643   -0.8061   -0.8089 C   0  0  0  0  0  0  0  0  0  0  0  0
    4.7019   -1.3838   -0.4351 C   0  0  0  0  0  0  0  0  0  0  0  0
    4.7510   -1.3236    0.9363 C   0  0  0  0  0  0  0  0  0  0  0  0
    3.6256   -0.7471    1.4277 O   0  0  0  0  0  0  0  0  0  0  0  0
   -2.0462    3.9347   -0.2334 H   0  0  0  0  0  0  0  0  0  0  0  0
   -4.7678   -0.0901    0.2610 H   0  0  0  0  0  0  0  0  0  0  0  0
   -4.2288   -2.4958    0.2151 H   0  0  0  0  0  0  0  0  0  0  0  0
   -1.8538   -3.1799   -0.1419 H   0  0  0  0  0  0  0  0  0  0  0  0
    3.0761   -0.6821   -1.8110 H   0  0  0  0  0  0  0  0  0  0  0  0
    5.4631   -1.7942   -1.0838 H   0  0  0  0  0  0  0  0  0  0  0  0
    5.4778   -1.6316    1.6754 H   0  0  0  0  0  0  0  0  0  0  0  0
  1  2  2  0
  2  3  1  0
  3  4  1  0
  4  5  2  0
  5  6  1  0
  5  7  1  0
  7  8  2  0
  8  9  1  0
  8 10  1  0
 10 11  2  0
 11 12  1  0
 12 13  2  0
 13 14  1  0
 14 15  2  0
  2 16  1  0
 16 17  2  0
 17 18  1  0
 18 19  2  0
 19 20  1  0
 15  4  1  0
 20 16  1  0
 15 10  1  0
  7 21  1  0
 11 22  1  0
 12 23  1  0
 13 24  1  0
 17 25  1  0
 18 26  1  0
 19 27  1  0
M  END
$$$$
