
     RDKit          3D

 38 41  0  0  0  0  0  0  0  0999 V2000
   -4.4470   -1.5285   -0.0890 C   0  0  0  0  0  0  0  0  0  0  0  0
   -3.3108   -1.4582    0.9307 C   0  0  0  0  0  0  0  0  0  0  0  0
   -3.8172   -1.0569    2.3156 C   0  0  0  0  0  0  0  0  0  0  0  0
   -2.2192   -0.6038    0.4772 N   0  0  0  0  0  0  0  0  0  0  0  0
   -1.0040   -1.1532    0.2575 N   0  0  0  0  0  0  0  0  0  0  0  0
   -0.2387   -0.1175   -0.1254 C   0  0  0  0  0  0  0  0  0  0  0  0
    1.1731   -0.3284   -0.4186 C   0  0  0  0  0  0  0  0  0  0  0  0
    1.5432   -1.1870   -1.4709 C   0  0  0  0  0  0  0  0  0  0  0  0
    2.8871   -1.4211   -1.7920 C   0  0  0  0  0  0  0  0  0  0  0  0
    3.8144   -0.7568   -1.0008 C   0  0  0  0  0  0  0  0  0  0  0  0
    5.1744   -0.8026   -1.0985 O   0  0  0  0  0  0  0  0  0  0  0  0
    5.5975    0.0114   -0.0904 C   0  0  0  0  0  0  0  0  0  0  0  0
    6.9181    0.1518    0.0374 N   0  0  0  0  0  0  0  0  0  0  0  0
    4.6471    0.5788    0.6140 N   0  0  0  0  0  0  0  0  0  0  0  0
    3.4974    0.0871    0.0511 C   0  0  0  0  0  0  0  0  0  0  0  0
    2.1513    0.3099    0.3664 C   0  0  0  0  0  0  0  0  0  0  0  0
   -0.9840    1.0950   -0.1852 C   0  0  0  0  0  0  0  0  0  0  0  0
   -0.7873    2.4369   -0.5369 C   0  0  0  0  0  0  0  0  0  0  0  0
    0.3965    2.9724   -1.0118 N   0  0  0  0  0  0  0  0  0  0  0  0
   -1.8254    3.2926   -0.4238 N   0  0  0  0  0  0  0  0  0  0  0  0
   -3.0117    2.8176   -0.0001 C   0  0  0  0  0  0  0  0  0  0  0  0
   -3.3205    1.5582    0.3438 N   0  0  0  0  0  0  0  0  0  0  0  0
   -2.2591    0.7414    0.2254 C   0  0  0  0  0  0  0  0  0  0  0  0
   -4.0689   -1.8159   -1.0763 H   0  0  0  0  0  0  0  0  0  0  0  0
   -5.1918   -2.2712    0.2160 H   0  0  0  0  0  0  0  0  0  0  0  0
   -4.9605   -0.5675   -0.1961 H   0  0  0  0  0  0  0  0  0  0  0  0
   -2.8867   -2.4679    1.0178 H   0  0  0  0  0  0  0  0  0  0  0  0
   -4.5447   -1.7874    2.6854 H   0  0  0  0  0  0  0  0  0  0  0  0
   -2.9922   -1.0092    3.0348 H   0  0  0  0  0  0  0  0  0  0  0  0
   -4.3062   -0.0775    2.3045 H   0  0  0  0  0  0  0  0  0  0  0  0
    0.7685   -1.6887   -2.0508 H   0  0  0  0  0  0  0  0  0  0  0  0
    3.1859   -2.0787   -2.5983 H   0  0  0  0  0  0  0  0  0  0  0  0
    7.4736   -0.0572   -0.7824 H   0  0  0  0  0  0  0  0  0  0  0  0
    7.2213    0.9753    0.5427 H   0  0  0  0  0  0  0  0  0  0  0  0
    1.8884    0.9500    1.2017 H   0  0  0  0  0  0  0  0  0  0  0  0
    0.3969    3.9846   -0.9692 H   0  0  0  0  0  0  0  0  0  0  0  0
    1.2574    2.5038   -0.7751 H   0  0  0  0  0  0  0  0  0  0  0  0
   -3.8160    3.5439    0.0695 H   0  0  0  0  0  0  0  0  0  0  0  0
  1  2  1  0
  2  3  1  0
  2  4  1  0
  4  5  1  0
  5  6  2  0
  6  7  1  0
  7  8  2  0
  8  9  1  0
  9 10  2  0
 10 11  1  0
 11 12  1  0
 12 13  1  0
 12 14  2  0
 14 15  1  0
 15 16  2  0
  6 17  1  0
 17 18  2  0
 18 19  1  0
 18 20  1  0
 20 21  2  0
 21 22  1  0
 22 23  2  0
 23  4  1  0
 16  7  1  0
 23 17  1  0
 15 10  1  0
  1 24  1  0
  1 25  1  0
  1 26  1  0
  2 27  1  0
  3 28  1  0
  3 29  1  0
  3 30  1  0
  8 31  1  0
  9 32  1  0
 13 33  1  0
 13 34  1  0
 16 35  1  0
 19 36  1  0
 19 37  1  0
 21 38  1  0
M  END
$$$$
