
     RDKit          3D

 35 37  0  0  0  0  0  0  0  0999 V2000
   -2.1019   -1.3477   -2.2970 O   0  0  0  0  0  0  0  0  0  0  0  0
   -1.3731   -0.5718   -1.6953 C   0  0  0  0  0  0  0  0  0  0  0  0
   -0.1121   -0.0422   -2.3101 C   0  0  0  0  0  0  0  0  0  0  0  0
    0.6978    0.4213   -1.1139 C   0  0  0  0  0  0  0  0  0  0  0  0
    1.6192   -0.6871   -0.5852 C   0  0  0  0  0  0  0  0  0  0  0  0
    2.7333   -0.1474    0.2792 C   0  0  0  0  0  0  0  0  0  0  0  0
    2.5673   -0.0200    1.6642 C   0  0  0  0  0  0  0  0  0  0  0  0
    3.5965    0.4922    2.4558 C   0  0  0  0  0  0  0  0  0  0  0  0
    4.7998    0.8823    1.8718 C   0  0  0  0  0  0  0  0  0  0  0  0
    4.9745    0.7637    0.4948 C   0  0  0  0  0  0  0  0  0  0  0  0
    3.9460    0.2535   -0.2991 C   0  0  0  0  0  0  0  0  0  0  0  0
   -0.3939    0.7248   -0.1167 C   0  0  0  0  0  0  0  0  0  0  0  0
   -0.2382    1.5165    0.8028 O   0  0  0  0  0  0  0  0  0  0  0  0
   -1.5118   -0.0211   -0.4387 N   0  0  0  0  0  0  0  0  0  0  0  0
   -2.6670   -0.1615    0.3963 C   0  0  0  0  0  0  0  0  0  0  0  0
   -3.8662   -0.7165   -0.0882 C   0  0  0  0  0  0  0  0  0  0  0  0
   -4.9937   -0.8585    0.7316 C   0  0  0  0  0  0  0  0  0  0  0  0
   -4.9386   -0.4477    2.0527 C   0  0  0  0  0  0  0  0  0  0  0  0
   -6.0150   -0.5831    2.8370 F   0  0  0  0  0  0  0  0  0  0  0  0
   -3.7765    0.1012    2.5676 C   0  0  0  0  0  0  0  0  0  0  0  0
   -2.6509    0.2415    1.7454 C   0  0  0  0  0  0  0  0  0  0  0  0
    0.3907   -0.8125   -2.9008 H   0  0  0  0  0  0  0  0  0  0  0  0
   -0.3772    0.7978   -2.9618 H   0  0  0  0  0  0  0  0  0  0  0  0
    1.2494    1.3327   -1.3688 H   0  0  0  0  0  0  0  0  0  0  0  0
    2.0786   -1.2296   -1.4220 H   0  0  0  0  0  0  0  0  0  0  0  0
    1.0570   -1.4402   -0.0171 H   0  0  0  0  0  0  0  0  0  0  0  0
    1.6320   -0.3082    2.1391 H   0  0  0  0  0  0  0  0  0  0  0  0
    3.4559    0.5919    3.5290 H   0  0  0  0  0  0  0  0  0  0  0  0
    5.5991    1.2826    2.4897 H   0  0  0  0  0  0  0  0  0  0  0  0
    5.9120    1.0708    0.0387 H   0  0  0  0  0  0  0  0  0  0  0  0
    4.1003    0.1705   -1.3724 H   0  0  0  0  0  0  0  0  0  0  0  0
   -3.9754   -1.0413   -1.1190 H   0  0  0  0  0  0  0  0  0  0  0  0
   -5.9110   -1.2857    0.3381 H   0  0  0  0  0  0  0  0  0  0  0  0
   -3.7440    0.4173    3.6058 H   0  0  0  0  0  0  0  0  0  0  0  0
   -1.7627    0.6615    2.2093 H   0  0  0  0  0  0  0  0  0  0  0  0
  1  2  2  0
  2  3  1  0
  3  4  1  0
  4  5  1  0
  5  6  1  0
  6  7  2  0
  7  8  1  0
  8  9  2  0
  9 10  1  0
 10 11  2  0
  4 12  1  0
 12 13  2  0
 12 14  1  0
 14 15  1  0
 15 16  2  0
 16 17  1  0
 17 18  2  0
 18 19  1  0
 18 20  1  0
 20 21  2  0
 14  2  1  0
 21 15  1  0
 11  6  1  0
  3 22  1  0
  3 23  1  0
  4 24  1  0
  5 25  1  0
  5 26  1  0
  7 27  1  0
  8 28  1  0
  9 29  1  0
 10 30  1  0
 11 31  1  0
 16 32  1  0
 17 33  1  0
 20 34  1  0
 21 35  1  0
M  END
$$$$
