
     RDKit          3D

 48 51  0  0  0  0  0  0  0  0999 V2000
    1.6596   -1.3405   -2.2308 C   0  0  0  0  0  0  0  0  0  0  0  0
    2.3545   -0.6726   -1.1344 N   0  0  0  0  0  0  0  0  0  0  0  0
    3.7556   -0.7718   -1.1445 C   0  0  0  0  0  0  0  0  0  0  0  0
    4.3681   -1.3078   -2.0726 O   0  0  0  0  0  0  0  0  0  0  0  0
    4.5759   -0.3340    0.0076 C   0  0  0  0  0  0  0  0  0  0  0  0
    5.7302   -1.0708    0.3213 C   0  0  0  0  0  0  0  0  0  0  0  0
    6.5757   -0.6638    1.3567 C   0  0  0  0  0  0  0  0  0  0  0  0
    6.2849    0.4945    2.0738 C   0  0  0  0  0  0  0  0  0  0  0  0
    5.1499    1.2397    1.7586 C   0  0  0  0  0  0  0  0  0  0  0  0
    4.2941    0.8138    0.7369 C   0  0  0  0  0  0  0  0  0  0  0  0
    3.2183    1.6062    0.4540 O   0  0  0  0  0  0  0  0  0  0  0  0
    2.0176    0.9836    0.6878 C   0  0  0  0  0  0  0  0  0  0  0  0
    1.2182    1.5653    1.6846 C   0  0  0  0  0  0  0  0  0  0  0  0
   -0.0536    1.0653    1.9387 C   0  0  0  0  0  0  0  0  0  0  0  0
   -0.5268    0.0120    1.1595 C   0  0  0  0  0  0  0  0  0  0  0  0
   -1.8589   -0.5530    1.4281 C   0  0  0  0  0  0  0  0  0  0  0  0
   -1.9082   -1.5087    2.1984 O   0  0  0  0  0  0  0  0  0  0  0  0
   -2.9708   -0.0014    0.7893 N   0  0  0  0  0  0  0  0  0  0  0  0
   -2.9298    1.1951   -0.0555 C   0  0  0  0  0  0  0  0  0  0  0  0
   -2.9877    0.8466   -1.5403 C   0  0  0  0  0  0  0  0  0  0  0  0
   -4.3932    0.5299   -2.0471 C   0  0  0  0  0  0  0  0  0  0  0  0
   -5.0810   -0.6358   -1.3371 C   0  0  0  0  0  0  0  0  0  0  0  0
   -5.4099   -0.3350    0.1232 C   0  0  0  0  0  0  0  0  0  0  0  0
   -4.2608   -0.6203    1.0875 C   0  0  0  0  0  0  0  0  0  0  0  0
    0.2657   -0.5663    0.1595 C   0  0  0  0  0  0  0  0  0  0  0  0
    1.5645   -0.0927   -0.0911 C   0  0  0  0  0  0  0  0  0  0  0  0
    0.7614   -0.7818   -2.5099 H   0  0  0  0  0  0  0  0  0  0  0  0
    2.2904   -1.4088   -3.1228 H   0  0  0  0  0  0  0  0  0  0  0  0
    1.3989   -2.3566   -1.9208 H   0  0  0  0  0  0  0  0  0  0  0  0
    5.9788   -1.9645   -0.2493 H   0  0  0  0  0  0  0  0  0  0  0  0
    7.4638   -1.2450    1.5912 H   0  0  0  0  0  0  0  0  0  0  0  0
    6.9469    0.8213    2.8715 H   0  0  0  0  0  0  0  0  0  0  0  0
    4.9291    2.1520    2.3067 H   0  0  0  0  0  0  0  0  0  0  0  0
    1.5972    2.4052    2.2607 H   0  0  0  0  0  0  0  0  0  0  0  0
   -0.6703    1.4920    2.7264 H   0  0  0  0  0  0  0  0  0  0  0  0
   -2.0050    1.7479    0.1268 H   0  0  0  0  0  0  0  0  0  0  0  0
   -3.7409    1.8696    0.2402 H   0  0  0  0  0  0  0  0  0  0  0  0
   -2.3178    0.0065   -1.7613 H   0  0  0  0  0  0  0  0  0  0  0  0
   -2.6156    1.7061   -2.1120 H   0  0  0  0  0  0  0  0  0  0  0  0
   -5.0210    1.4264   -1.9672 H   0  0  0  0  0  0  0  0  0  0  0  0
   -4.3299    0.2965   -3.1181 H   0  0  0  0  0  0  0  0  0  0  0  0
   -4.4776   -1.5458   -1.4218 H   0  0  0  0  0  0  0  0  0  0  0  0
   -6.0235   -0.8283   -1.8636 H   0  0  0  0  0  0  0  0  0  0  0  0
   -6.2550   -0.9660    0.4254 H   0  0  0  0  0  0  0  0  0  0  0  0
   -5.7548    0.6999    0.2302 H   0  0  0  0  0  0  0  0  0  0  0  0
   -4.1174   -1.7065    1.1559 H   0  0  0  0  0  0  0  0  0  0  0  0
   -4.5468   -0.2816    2.0915 H   0  0  0  0  0  0  0  0  0  0  0  0
   -0.1432   -1.4159   -0.3812 H   0  0  0  0  0  0  0  0  0  0  0  0
  1  2  1  0
  2  3  1  0
  3  4  2  0
  3  5  1  0
  5  6  2  0
  6  7  1  0
  7  8  2  0
  8  9  1  0
  9 10  2  0
 10 11  1  0
 11 12  1  0
 12 13  2  0
 13 14  1  0
 14 15  2  0
 15 16  1  0
 16 17  2  0
 16 18  1  0
 18 19  1  0
 19 20  1  0
 20 21  1  0
 21 22  1  0
 22 23  1  0
 23 24  1  0
 15 25  1  0
 25 26  2  0
 26  2  1  0
 10  5  1  0
 26 12  1  0
 24 18  1  0
  1 27  1  0
  1 28  1  0
  1 29  1  0
  6 30  1  0
  7 31  1  0
  8 32  1  0
  9 33  1  0
 13 34  1  0
 14 35  1  0
 19 36  1  0
 19 37  1  0
 20 38  1  0
 20 39  1  0
 21 40  1  0
 21 41  1  0
 22 42  1  0
 22 43  1  0
 23 44  1  0
 23 45  1  0
 24 46  1  0
 24 47  1  0
 25 48  1  0
M  END
$$$$
