
     RDKit          3D

 43 45  0  0  0  0  0  0  0  0999 V2000
   -7.6621   -1.9037   -0.4786 O   0  0  0  0  0  0  0  0  0  0  0  0
   -7.5767   -0.5339   -0.1156 C   0  0  0  0  0  0  0  0  0  0  0  0
   -6.1228   -0.0879   -0.0436 C   0  0  0  0  0  0  0  0  0  0  0  0
   -5.3119   -0.9309    0.9418 C   0  0  0  0  0  0  0  0  0  0  0  0
   -4.0477   -0.2720    1.2905 N   0  0  0  0  0  0  0  0  0  0  0  0
   -3.0029   -0.4073    0.3578 C   0  0  0  0  0  0  0  0  0  0  0  0
   -1.7839    0.2013    0.6596 C   0  0  0  0  0  0  0  0  0  0  0  0
   -0.7024    0.1220   -0.2318 C   0  0  0  0  0  0  0  0  0  0  0  0
    0.5974    0.7596    0.0501 C   0  0  0  0  0  0  0  0  0  0  0  0
    0.7149    1.9526    0.7323 C   0  0  0  0  0  0  0  0  0  0  0  0
    1.9921    2.4185    0.9127 C   0  0  0  0  0  0  0  0  0  0  0  0
    3.0850    1.7774    0.4682 N   0  0  0  0  0  0  0  0  0  0  0  0
    2.8977    0.6268   -0.1900 C   0  0  0  0  0  0  0  0  0  0  0  0
    3.9585   -0.1209   -0.6929 N   0  0  0  0  0  0  0  0  0  0  0  0
    5.3492    0.0301   -0.6857 C   0  0  0  0  0  0  0  0  0  0  0  0
    6.0132    1.1191   -0.1091 C   0  0  0  0  0  0  0  0  0  0  0  0
    7.4096    1.2191   -0.1349 C   0  0  0  0  0  0  0  0  0  0  0  0
    8.1700    0.2253   -0.7432 C   0  0  0  0  0  0  0  0  0  0  0  0
    7.5275   -0.8628   -1.3226 C   0  0  0  0  0  0  0  0  0  0  0  0
    8.4567   -2.0987   -2.0796 Cl  0  0  0  0  0  0  0  0  0  0  0  0
    6.1344   -0.9618   -1.2963 C   0  0  0  0  0  0  0  0  0  0  0  0
    1.6829    0.1010   -0.4175 N   0  0  0  0  0  0  0  0  0  0  0  0
   -0.9059   -0.5981   -1.4124 C   0  0  0  0  0  0  0  0  0  0  0  0
   -2.1446   -1.1645   -1.6467 C   0  0  0  0  0  0  0  0  0  0  0  0
   -3.1851   -1.0738   -0.7940 N   0  0  0  0  0  0  0  0  0  0  0  0
   -8.6033   -2.1063   -0.6166 H   0  0  0  0  0  0  0  0  0  0  0  0
   -8.1112    0.0589   -0.8649 H   0  0  0  0  0  0  0  0  0  0  0  0
   -8.0728   -0.3997    0.8510 H   0  0  0  0  0  0  0  0  0  0  0  0
   -6.0900    0.9700    0.2436 H   0  0  0  0  0  0  0  0  0  0  0  0
   -5.6757   -0.1638   -1.0414 H   0  0  0  0  0  0  0  0  0  0  0  0
   -5.8843   -1.0253    1.8730 H   0  0  0  0  0  0  0  0  0  0  0  0
   -5.1544   -1.9534    0.5770 H   0  0  0  0  0  0  0  0  0  0  0  0
   -3.7051   -0.6048    2.1880 H   0  0  0  0  0  0  0  0  0  0  0  0
   -1.6893    0.7335    1.6008 H   0  0  0  0  0  0  0  0  0  0  0  0
   -0.1372    2.5113    1.0940 H   0  0  0  0  0  0  0  0  0  0  0  0
    2.1821    3.3521    1.4338 H   0  0  0  0  0  0  0  0  0  0  0  0
    3.5874   -0.9528   -1.1282 H   0  0  0  0  0  0  0  0  0  0  0  0
    5.4582    1.9176    0.3747 H   0  0  0  0  0  0  0  0  0  0  0  0
    7.8968    2.0769    0.3220 H   0  0  0  0  0  0  0  0  0  0  0  0
    9.2531    0.3051   -0.7621 H   0  0  0  0  0  0  0  0  0  0  0  0
    5.6589   -1.8234   -1.7578 H   0  0  0  0  0  0  0  0  0  0  0  0
   -0.1144   -0.7091   -2.1472 H   0  0  0  0  0  0  0  0  0  0  0  0
   -2.3417   -1.7232   -2.5570 H   0  0  0  0  0  0  0  0  0  0  0  0
  1  2  1  0
  2  3  1  0
  3  4  1  0
  4  5  1  0
  5  6  1  0
  6  7  2  0
  7  8  1  0
  8  9  1  0
  9 10  2  0
 10 11  1  0
 11 12  2  0
 12 13  1  0
 13 14  1  0
 14 15  1  0
 15 16  2  0
 16 17  1  0
 17 18  2  0
 18 19  1  0
 19 20  1  0
 19 21  2  0
 13 22  2  0
  8 23  2  0
 23 24  1  0
 24 25  2  0
 25  6  1  0
 22  9  1  0
 21 15  1  0
  1 26  1  0
  2 27  1  0
  2 28  1  0
  3 29  1  0
  3 30  1  0
  4 31  1  0
  4 32  1  0
  5 33  1  0
  7 34  1  0
 10 35  1  0
 11 36  1  0
 14 37  1  0
 16 38  1  0
 17 39  1  0
 18 40  1  0
 21 41  1  0
 23 42  1  0
 24 43  1  0
M  END
$$$$
