
     RDKit          3D

 42 44  0  0  0  0  0  0  0  0999 V2000
   -5.9594   -0.6936   -1.6054 N   0  0  0  0  0  0  0  0  0  0  0  0
   -4.6249   -0.7978   -1.2410 C   0  0  0  0  0  0  0  0  0  0  0  0
   -3.8239   -1.6065   -1.9700 N   0  0  0  0  0  0  0  0  0  0  0  0
   -2.5232   -1.7024   -1.6246 C   0  0  0  0  0  0  0  0  0  0  0  0
   -1.8833   -1.1030   -0.5979 N   0  0  0  0  0  0  0  0  0  0  0  0
   -2.7211   -0.3213    0.1019 C   0  0  0  0  0  0  0  0  0  0  0  0
   -4.0716   -0.1207   -0.1411 C   0  0  0  0  0  0  0  0  0  0  0  0
   -4.6186    0.7263    0.7995 N   0  0  0  0  0  0  0  0  0  0  0  0
   -3.6100    1.0624    1.5740 C   0  0  0  0  0  0  0  0  0  0  0  0
   -2.4435    0.4378    1.2047 N   0  0  0  0  0  0  0  0  0  0  0  0
   -1.1831    0.5981    1.8958 C   0  0  2  0  0  0  0  0  0  0  0  0
   -0.5143    1.7473    1.3351 O   0  0  0  0  0  0  0  0  0  0  0  0
    0.8415    1.3735    1.0292 C   0  0  2  0  0  0  0  0  0  0  0  0
    1.3270    2.1442   -0.1965 C   0  0  0  0  0  0  0  0  0  0  0  0
    2.7227    1.9703   -0.3763 O   0  0  0  0  0  0  0  0  0  0  0  0
    3.2320    1.5491   -1.8429 P   0  0  0  0  0  5  0  0  0  0  0  0
    2.5999    2.3313   -2.9463 O   0  0  0  0  0  0  0  0  0  0  0  0
    4.8114    1.7529   -1.6966 O   0  0  0  0  0  0  0  0  0  0  0  0
    2.9986   -0.0158   -1.8880 O   0  0  0  0  0  0  0  0  0  0  0  0
    4.0432   -1.1585   -1.5933 P   0  0  0  0  0  5  0  0  0  0  0  0
    4.7950   -1.7222   -2.7463 O   0  0  0  0  0  0  0  0  0  0  0  0
    3.2175   -2.2262   -0.7426 O   0  0  0  0  0  0  0  0  0  0  0  0
    5.0251   -0.5843   -0.4615 O   0  0  0  0  0  0  0  0  0  0  0  0
    0.8258   -0.1423    0.8301 C   0  0  1  0  0  0  0  0  0  0  0  0
    2.0929   -0.7669    1.0668 O   0  0  0  0  0  0  0  0  0  0  0  0
   -0.2008   -0.5828    1.8650 C   0  0  1  0  0  0  0  0  0  0  0  0
    0.4996   -0.7097    3.1264 O   0  0  0  0  0  0  0  0  0  0  0  0
   -6.2746   -1.4738   -2.1657 H   0  0  0  0  0  0  0  0  0  0  0  0
   -6.5655   -0.3572   -0.8663 H   0  0  0  0  0  0  0  0  0  0  0  0
   -1.9159   -2.3489   -2.2528 H   0  0  0  0  0  0  0  0  0  0  0  0
   -3.6648    1.7492    2.4104 H   0  0  0  0  0  0  0  0  0  0  0  0
   -1.4258    0.8453    2.9368 H   0  0  0  0  0  0  0  0  0  0  0  0
    1.4739    1.6341    1.8879 H   0  0  0  0  0  0  0  0  0  0  0  0
    1.1354    3.2146   -0.0629 H   0  0  0  0  0  0  0  0  0  0  0  0
    0.7622    1.8374   -1.0851 H   0  0  0  0  0  0  0  0  0  0  0  0
    5.1586    1.3013   -0.8995 H   0  0  0  0  0  0  0  0  0  0  0  0
    2.7712   -1.7848    0.0192 H   0  0  0  0  0  0  0  0  0  0  0  0
    5.7680   -1.2152   -0.3569 H   0  0  0  0  0  0  0  0  0  0  0  0
    0.5026   -0.3939   -0.1833 H   0  0  0  0  0  0  0  0  0  0  0  0
    2.1675   -0.7846    2.0500 H   0  0  0  0  0  0  0  0  0  0  0  0
   -0.6394   -1.5616    1.6552 H   0  0  0  0  0  0  0  0  0  0  0  0
   -0.1081   -1.1440    3.7548 H   0  0  0  0  0  0  0  0  0  0  0  0
  1  2  1  0
  2  3  2  0
  3  4  1  0
  4  5  2  0
  5  6  1  0
  6  7  2  0
  7  8  1  0
  8  9  2  0
  9 10  1  0
 10 11  1  0
 11 12  1  0
 12 13  1  0
 13 14  1  0
 14 15  1  0
 15 16  1  0
 16 17  2  0
 16 18  1  0
 16 19  1  0
 19 20  1  0
 20 21  2  0
 20 22  1  0
 20 23  1  0
 13 24  1  0
 24 25  1  0
 24 26  1  0
 26 27  1  0
  7  2  1  0
 26 11  1  0
 10  6  1  0
  1 28  1  0
  1 29  1  0
  4 30  1  0
  9 31  1  0
 11 32  1  1
 13 33  1  1
 14 34  1  0
 14 35  1  0
 18 36  1  0
 22 37  1  0
 23 38  1  0
 24 39  1  6
 25 40  1  0
 26 41  1  6
 27 42  1  0
M  END
$$$$
