
     RDKit          3D

 53 55  0  0  0  0  0  0  0  0999 V2000
    5.7932    1.8117    0.9182 C   0  0  0  0  0  0  0  0  0  0  0  0
    4.3953    1.5226    0.6961 N   0  0  0  0  0  0  0  0  0  0  0  0
    3.8243    2.2755   -0.3738 C   0  0  0  0  0  0  0  0  0  0  0  0
    3.1921    1.4712   -1.4483 C   0  0  0  0  0  0  0  0  0  0  0  0
    1.9136    0.8133   -1.1155 C   0  0  0  0  0  0  0  0  0  0  0  0
    1.7007    0.3918    0.2818 C   0  0  0  0  0  0  0  0  0  0  0  0
    0.4820   -0.4108    0.3142 N   0  0  0  0  0  0  0  0  0  0  0  0
   -0.6197   -0.0357    0.8881 N   0  0  0  0  0  0  0  0  0  0  0  0
   -1.7685   -0.7459    0.9339 C   0  0  0  0  0  0  0  0  0  0  0  0
   -2.9601   -0.1412    1.5506 C   0  0  0  0  0  0  0  0  0  0  0  0
   -3.8160    0.6193    0.6082 C   0  0  0  0  0  0  0  0  0  0  0  0
   -4.8110    0.1088   -0.1818 C   0  0  0  0  0  0  0  0  0  0  0  0
   -5.5832    0.8874   -1.0487 C   0  0  0  0  0  0  0  0  0  0  0  0
   -5.3551    2.2286   -1.1311 C   0  0  0  0  0  0  0  0  0  0  0  0
   -6.2987    3.2473   -2.2140 Cl  0  0  0  0  0  0  0  0  0  0  0  0
   -4.3675    2.7907   -0.3590 C   0  0  0  0  0  0  0  0  0  0  0  0
   -3.6318    2.0149    0.4746 C   0  0  0  0  0  0  0  0  0  0  0  0
   -1.7438   -1.9731    0.3121 C   0  0  0  0  0  0  0  0  0  0  0  0
   -2.8537   -2.7804    0.3208 C   0  0  0  0  0  0  0  0  0  0  0  0
   -2.8112   -4.0153   -0.2944 C   0  0  0  0  0  0  0  0  0  0  0  0
   -1.6679   -4.4498   -0.9175 C   0  0  0  0  0  0  0  0  0  0  0  0
   -0.5530   -3.6488   -0.9288 C   0  0  0  0  0  0  0  0  0  0  0  0
   -0.6014   -2.4300   -0.3186 C   0  0  0  0  0  0  0  0  0  0  0  0
    0.5186   -1.6122   -0.3017 C   0  0  0  0  0  0  0  0  0  0  0  0
    1.5397   -2.0652   -0.8883 O   0  0  0  0  0  0  0  0  0  0  0  0
    2.7734   -0.2995    0.9884 C   0  0  0  0  0  0  0  0  0  0  0  0
    4.1784    0.1126    0.6364 C   0  0  0  0  0  0  0  0  0  0  0  0
    0.6906    0.0000    0.0000 Cl  0  0  0  0  0  0  0  0  0  0  0  0
    6.2617    2.3827    0.0976 H   0  0  0  0  0  0  0  0  0  0  0  0
    5.9584    2.4130    1.8569 H   0  0  0  0  0  0  0  0  0  0  0  0
    6.4095    0.8837    1.0468 H   0  0  0  0  0  0  0  0  0  0  0  0
    3.0968    3.0275   -0.0206 H   0  0  0  0  0  0  0  0  0  0  0  0
    4.6675    2.8616   -0.8446 H   0  0  0  0  0  0  0  0  0  0  0  0
    3.0112    2.1853   -2.3082 H   0  0  0  0  0  0  0  0  0  0  0  0
    3.9006    0.7198   -1.8971 H   0  0  0  0  0  0  0  0  0  0  0  0
    1.7559    0.0060   -1.8831 H   0  0  0  0  0  0  0  0  0  0  0  0
    1.0731    1.5361   -1.3616 H   0  0  0  0  0  0  0  0  0  0  0  0
    1.4415    1.3296    0.8621 H   0  0  0  0  0  0  0  0  0  0  0  0
   -2.5796    0.6079    2.3044 H   0  0  0  0  0  0  0  0  0  0  0  0
   -3.5457   -0.8507    2.1674 H   0  0  0  0  0  0  0  0  0  0  0  0
   -5.0586   -0.9187   -0.1787 H   0  0  0  0  0  0  0  0  0  0  0  0
   -6.3617    0.4322   -1.6595 H   0  0  0  0  0  0  0  0  0  0  0  0
   -4.1568    3.8507   -0.3943 H   0  0  0  0  0  0  0  0  0  0  0  0
   -2.8502    2.4729    1.0866 H   0  0  0  0  0  0  0  0  0  0  0  0
   -3.7059   -2.4087    0.8360 H   0  0  0  0  0  0  0  0  0  0  0  0
   -3.7106   -4.6096   -0.2575 H   0  0  0  0  0  0  0  0  0  0  0  0
   -1.6314   -5.4186   -1.4014 H   0  0  0  0  0  0  0  0  0  0  0  0
    0.3659   -3.9682   -1.4169 H   0  0  0  0  0  0  0  0  0  0  0  0
    2.6723   -0.0908    2.0996 H   0  0  0  0  0  0  0  0  0  0  0  0
    2.7659   -1.4180    0.9584 H   0  0  0  0  0  0  0  0  0  0  0  0
    4.8363   -0.3361    1.4445 H   0  0  0  0  0  0  0  0  0  0  0  0
    4.5155   -0.3774   -0.2908 H   0  0  0  0  0  0  0  0  0  0  0  0
   -0.6906    0.0000    0.0000 H   0  0  0  0  0  0  0  0  0  0  0  0
  1  2  1  0
  2  3  1  0
  3  4  1  0
  4  5  1  0
  5  6  1  0
  6  7  1  0
  7  8  1  0
  8  9  2  0
  9 10  1  0
 10 11  1  0
 11 12  2  0
 12 13  1  0
 13 14  2  0
 14 15  1  0
 14 16  1  0
 16 17  2  0
  9 18  1  0
 18 19  2  0
 19 20  1  0
 20 21  2  0
 21 22  1  0
 22 23  2  0
 23 24  1  0
 24 25  2  0
  6 26  1  0
 26 27  1  0
 27  2  1  0
 24  7  1  0
 17 11  1  0
 23 18  1  0
  1 29  1  0
  1 30  1  0
  1 31  1  0
  3 32  1  0
  3 33  1  0
  4 34  1  0
  4 35  1  0
  5 36  1  0
  5 37  1  0
  6 38  1  0
 10 39  1  0
 10 40  1  0
 12 41  1  0
 13 42  1  0
 16 43  1  0
 17 44  1  0
 19 45  1  0
 20 46  1  0
 21 47  1  0
 22 48  1  0
 26 49  1  0
 26 50  1  0
 27 51  1  0
 27 52  1  0
 28 53  1  0
M  END
$$$$
