
     RDKit          3D

 28 27  0  0  0  0  0  0  0  0999 V2000
   -3.5103   -0.6378   -1.5180 N   0  0  0  0  0  0  0  0  0  0  0  0
   -3.2754   -0.3520   -0.2871 C   0  0  0  0  0  0  0  0  0  0  0  0
   -2.0193   -0.1840    0.2369 N   0  0  0  0  0  0  0  0  0  0  0  0
   -0.8057   -0.1049   -0.5638 C   0  0  0  0  0  0  0  0  0  0  0  0
    0.4124   -0.0209    0.3568 C   0  0  0  0  0  0  0  0  0  0  0  0
    1.7108    0.0581   -0.4515 C   0  0  0  0  0  0  0  0  0  0  0  0
    2.9746    0.0628    0.4183 C   0  0  2  0  0  0  0  0  0  0  0  0
    2.9881    1.2439    1.3084 N   0  0  0  0  0  0  0  0  0  0  0  0
    4.2330    0.0508   -0.4651 C   0  0  0  0  0  0  0  0  0  0  0  0
    4.3291   -0.3757   -1.6043 O   0  0  0  0  0  0  0  0  0  0  0  0
    5.3281    0.5209    0.1794 O   0  0  0  0  0  0  0  0  0  0  0  0
   -4.2127   -0.2305    0.6994 N   0  0  0  0  0  0  0  0  0  0  0  0
   -5.5047   -0.3128    0.3306 N   0  0  0  0  0  4  0  0  0  0  0  0
   -5.9457    0.5311   -0.4524 O   0  0  0  0  0  0  0  0  0  0  0  0
   -6.1443   -1.1589    0.9612 O   0  0  0  0  0  1  0  0  0  0  0  0
   -2.6486   -0.6921   -2.0588 H   0  0  0  0  0  0  0  0  0  0  0  0
   -2.0087    0.4841    1.0038 H   0  0  0  0  0  0  0  0  0  0  0  0
   -0.8502    0.7773   -1.2124 H   0  0  0  0  0  0  0  0  0  0  0  0
   -0.7178   -0.9952   -1.1968 H   0  0  0  0  0  0  0  0  0  0  0  0
    0.4383   -0.8991    1.0141 H   0  0  0  0  0  0  0  0  0  0  0  0
    0.3145    0.8579    1.0053 H   0  0  0  0  0  0  0  0  0  0  0  0
    1.7527   -0.7989   -1.1366 H   0  0  0  0  0  0  0  0  0  0  0  0
    1.6927    0.9536   -1.0873 H   0  0  0  0  0  0  0  0  0  0  0  0
    3.0173   -0.8458    1.0306 H   0  0  0  0  0  0  0  0  0  0  0  0
    2.4365    1.0457    2.1411 H   0  0  0  0  0  0  0  0  0  0  0  0
    3.9519    1.3663    1.6366 H   0  0  0  0  0  0  0  0  0  0  0  0
    6.0369    0.4587   -0.4953 H   0  0  0  0  0  0  0  0  0  0  0  0
   -3.9734   -0.8027    1.4920 H   0  0  0  0  0  0  0  0  0  0  0  0
  1  2  2  3
  2  3  1  0
  3  4  1  0
  4  5  1  0
  5  6  1  0
  6  7  1  0
  7  8  1  0
  7  9  1  0
  9 10  2  0
  9 11  1  0
  2 12  1  0
 12 13  1  0
 13 14  2  0
 13 15  1  0
  1 16  1  0
  3 17  1  0
  4 18  1  0
  4 19  1  0
  5 20  1  0
  5 21  1  0
  6 22  1  0
  6 23  1  0
  7 24  1  1
  8 25  1  0
  8 26  1  0
 11 27  1  0
 12 28  1  0
M  CHG  2  13   1  15  -1
M  END
$$$$
