
     RDKit          3D

 55 58  0  0  0  0  0  0  0  0999 V2000
   -2.6425   -0.5036    2.2258 C   0  0  0  0  0  0  0  0  0  0  0  0
   -2.4903   -0.4044    0.6933 C   0  0  0  0  0  0  0  0  0  0  0  0
   -3.1108   -1.6777    0.0451 C   0  0  0  0  0  0  0  0  0  0  0  0
   -4.6335   -1.6867    0.0479 C   0  0  0  0  0  0  0  0  0  0  0  0
   -5.1675   -0.4447   -0.6093 C   0  0  0  0  0  0  0  0  0  0  0  0
   -6.2386   -0.4280   -1.2107 O   0  0  0  0  0  0  0  0  0  0  0  0
   -4.4047    0.8167   -0.4474 C   0  0  0  0  0  0  0  0  0  0  0  0
   -3.2180    0.8526    0.1846 C   0  0  0  0  0  0  0  0  0  0  0  0
   -2.5387    2.1908    0.4110 C   0  0  0  0  0  0  0  0  0  0  0  0
   -1.0539    2.1974    0.0284 C   0  0  0  0  0  0  0  0  0  0  0  0
   -0.3344    1.0305    0.7057 C   0  0  0  0  0  0  0  0  0  0  0  0
   -0.9889   -0.3025    0.2480 C   0  0  0  0  0  0  0  0  0  0  0  0
   -0.0714   -1.4792    0.6177 C   0  0  0  0  0  0  0  0  0  0  0  0
    1.2811   -1.4233   -0.1334 C   0  0  0  0  0  0  0  0  0  0  0  0
    1.8015    0.0084   -0.4361 C   0  0  0  0  0  0  0  0  0  0  0  0
    1.4540    0.4030   -1.8962 C   0  0  0  0  0  0  0  0  0  0  0  0
    1.1989    0.9806    0.6062 C   0  0  0  0  0  0  0  0  0  0  0  0
    1.9870    2.2716    0.4262 C   0  0  0  0  0  0  0  0  0  0  0  0
    3.3993    1.8049    0.0275 C   0  0  0  0  0  0  0  0  0  0  0  0
    3.3280    0.2634   -0.1759 C   0  0  1  0  0  0  0  0  0  0  0  0
    3.7306   -0.3154    1.0760 O   0  0  0  0  0  0  0  0  0  0  0  0
    4.2889   -0.2084   -1.2988 C   0  0  0  0  0  0  0  0  0  0  0  0
    4.9600    0.5709   -1.9825 O   0  0  0  0  0  0  0  0  0  0  0  0
    4.3640   -1.7103   -1.5635 C   0  0  0  0  0  0  0  0  0  0  0  0
    4.5798   -2.4608   -0.3725 O   0  0  0  0  0  0  0  0  0  0  0  0
   -2.1289   -1.3896    2.6185 H   0  0  0  0  0  0  0  0  0  0  0  0
   -2.2410    0.3707    2.7506 H   0  0  0  0  0  0  0  0  0  0  0  0
   -3.6963   -0.5791    2.5210 H   0  0  0  0  0  0  0  0  0  0  0  0
   -2.7754   -1.7584   -0.9986 H   0  0  0  0  0  0  0  0  0  0  0  0
   -2.7574   -2.5813    0.5556 H   0  0  0  0  0  0  0  0  0  0  0  0
   -4.9872   -2.5550   -0.5217 H   0  0  0  0  0  0  0  0  0  0  0  0
   -5.0401   -1.7571    1.0627 H   0  0  0  0  0  0  0  0  0  0  0  0
   -4.8977    1.7039   -0.8270 H   0  0  0  0  0  0  0  0  0  0  0  0
   -2.6320    2.4431    1.4740 H   0  0  0  0  0  0  0  0  0  0  0  0
   -3.0447    2.9900   -0.1457 H   0  0  0  0  0  0  0  0  0  0  0  0
   -0.9442    2.1425   -1.0608 H   0  0  0  0  0  0  0  0  0  0  0  0
   -0.6261    3.1543    0.3487 H   0  0  0  0  0  0  0  0  0  0  0  0
   -0.5226    1.1561    1.7809 H   0  0  0  0  0  0  0  0  0  0  0  0
   -1.0301   -0.2973   -0.8486 H   0  0  0  0  0  0  0  0  0  0  0  0
    0.1191   -1.4740    1.6981 H   0  0  0  0  0  0  0  0  0  0  0  0
   -0.5390   -2.4428    0.3927 H   0  0  0  0  0  0  0  0  0  0  0  0
    1.9994   -2.0017    0.4559 H   0  0  0  0  0  0  0  0  0  0  0  0
    1.1725   -1.9774   -1.0749 H   0  0  0  0  0  0  0  0  0  0  0  0
    1.9013   -0.2999   -2.6088 H   0  0  0  0  0  0  0  0  0  0  0  0
    1.8240    1.3990   -2.1616 H   0  0  0  0  0  0  0  0  0  0  0  0
    0.3819    0.4056   -2.1000 H   0  0  0  0  0  0  0  0  0  0  0  0
    1.5061    0.5974    1.5945 H   0  0  0  0  0  0  0  0  0  0  0  0
    1.5726    2.9006   -0.3673 H   0  0  0  0  0  0  0  0  0  0  0  0
    2.0056    2.8671    1.3446 H   0  0  0  0  0  0  0  0  0  0  0  0
    4.1201    2.0742    0.8067 H   0  0  0  0  0  0  0  0  0  0  0  0
    3.6937    2.3382   -0.8817 H   0  0  0  0  0  0  0  0  0  0  0  0
    3.9285   -1.2594    0.9231 H   0  0  0  0  0  0  0  0  0  0  0  0
    3.4297   -2.0360   -2.0230 H   0  0  0  0  0  0  0  0  0  0  0  0
    5.1844   -1.9156   -2.2612 H   0  0  0  0  0  0  0  0  0  0  0  0
    5.5437   -2.5642   -0.2802 H   0  0  0  0  0  0  0  0  0  0  0  0
  1  2  1  0
  2  3  1  0
  3  4  1  0
  4  5  1  0
  5  6  2  0
  5  7  1  0
  7  8  2  0
  8  9  1  0
  9 10  1  0
 10 11  1  0
 11 12  1  0
 12 13  1  0
 13 14  1  0
 14 15  1  0
 15 16  1  0
 15 17  1  0
 17 18  1  0
 18 19  1  0
 19 20  1  0
 20 21  1  1
 20 22  1  0
 22 23  2  0
 22 24  1  0
 24 25  1  0
  8  2  1  0
 17 11  1  0
 12  2  1  0
 20 15  1  0
  1 26  1  0
  1 27  1  0
  1 28  1  0
  3 29  1  0
  3 30  1  0
  4 31  1  0
  4 32  1  0
  7 33  1  0
  9 34  1  0
  9 35  1  0
 10 36  1  0
 10 37  1  0
 11 38  1  0
 12 39  1  0
 13 40  1  0
 13 41  1  0
 14 42  1  0
 14 43  1  0
 16 44  1  0
 16 45  1  0
 16 46  1  0
 17 47  1  0
 18 48  1  0
 18 49  1  0
 19 50  1  0
 19 51  1  0
 21 52  1  0
 24 53  1  0
 24 54  1  0
 25 55  1  0
M  END
$$$$
