
     RDKit          3D

 57 59  0  0  0  0  0  0  0  0999 V2000
    7.5664   -0.9615    0.4634 C   0  0  0  0  0  0  0  0  0  0  0  0
    7.1142    0.3602    1.0897 C   0  0  0  0  0  0  0  0  0  0  0  0
    7.8300    0.5679    2.4261 C   0  0  0  0  0  0  0  0  0  0  0  0
    5.5916    0.3893    1.2971 C   0  0  0  0  0  0  0  0  0  0  0  0
    4.7932    0.5463    0.0060 C   0  0  0  0  0  0  0  0  0  0  0  0
    5.3342    0.8103   -1.0605 O   0  0  0  0  0  0  0  0  0  0  0  0
    3.4398    0.3796    0.2453 N   0  0  0  0  0  0  0  0  0  0  0  0
    2.4474    0.4541   -0.7075 C   0  0  0  0  0  0  0  0  0  0  0  0
    2.6303    0.6877   -2.0161 N   0  0  0  0  0  0  0  0  0  0  0  0
    1.3978    0.6715   -2.5658 N   0  0  0  0  0  0  0  0  0  0  0  0
    0.4509    0.4316   -1.6379 C   0  0  0  0  0  0  0  0  0  0  0  0
    1.0830    0.2917   -0.4442 C   0  0  0  0  0  0  0  0  0  0  0  0
    0.1278    0.0308    0.6269 C   0  0  0  0  0  0  0  0  0  0  0  0
   -1.1548   -0.1065   -0.1403 N   0  0  0  0  0  0  0  0  0  0  0  0
   -2.2256   -0.5533    0.6096 C   0  0  0  0  0  0  0  0  0  0  0  0
   -2.1030   -0.6419    1.8383 O   0  0  0  0  0  0  0  0  0  0  0  0
   -3.5431   -0.9784   -0.0473 C   0  0  0  0  0  0  0  0  0  0  0  0
   -4.4284    0.2255   -0.3873 C   0  0  0  0  0  0  0  0  0  0  0  0
   -5.9151   -0.0407   -0.1516 C   0  0  0  0  0  0  0  0  0  0  0  0
   -6.2458   -0.4623    1.2087 N   0  0  0  0  0  0  0  0  0  0  0  0
   -6.6776    0.6527    2.0480 C   0  0  0  0  0  0  0  0  0  0  0  0
   -5.1850   -1.2323    1.8711 C   0  0  0  0  0  0  0  0  0  0  0  0
   -4.2946   -1.9695    0.8710 C   0  0  0  0  0  0  0  0  0  0  0  0
   -1.0264    0.3139   -1.6010 C   0  0  0  0  0  0  0  0  0  0  0  0
   -1.4975   -0.7262   -2.6141 C   0  0  0  0  0  0  0  0  0  0  0  0
   -1.6283    1.7004   -1.8564 C   0  0  0  0  0  0  0  0  0  0  0  0
    7.3077   -1.8128    1.1024 H   0  0  0  0  0  0  0  0  0  0  0  0
    8.6520   -0.9683    0.3176 H   0  0  0  0  0  0  0  0  0  0  0  0
    7.1018   -1.1209   -0.5143 H   0  0  0  0  0  0  0  0  0  0  0  0
    7.4092    1.1776    0.4199 H   0  0  0  0  0  0  0  0  0  0  0  0
    7.5560    1.5315    2.8685 H   0  0  0  0  0  0  0  0  0  0  0  0
    8.9168    0.5611    2.2908 H   0  0  0  0  0  0  0  0  0  0  0  0
    7.5723   -0.2199    3.1422 H   0  0  0  0  0  0  0  0  0  0  0  0
    5.2652   -0.5237    1.8105 H   0  0  0  0  0  0  0  0  0  0  0  0
    5.3250    1.2431    1.9333 H   0  0  0  0  0  0  0  0  0  0  0  0
    3.1357    0.1871    1.1870 H   0  0  0  0  0  0  0  0  0  0  0  0
    1.3135    0.8345   -3.5646 H   0  0  0  0  0  0  0  0  0  0  0  0
    0.3374   -0.8971    1.1676 H   0  0  0  0  0  0  0  0  0  0  0  0
    0.0348    0.8716    1.3212 H   0  0  0  0  0  0  0  0  0  0  0  0
   -3.3009   -1.5475   -0.9465 H   0  0  0  0  0  0  0  0  0  0  0  0
   -4.1195    1.1127    0.1794 H   0  0  0  0  0  0  0  0  0  0  0  0
   -4.3118    0.4646   -1.4483 H   0  0  0  0  0  0  0  0  0  0  0  0
   -6.2350   -0.8386   -0.8348 H   0  0  0  0  0  0  0  0  0  0  0  0
   -6.5004    0.8380   -0.4512 H   0  0  0  0  0  0  0  0  0  0  0  0
   -6.9737    0.2964    3.0411 H   0  0  0  0  0  0  0  0  0  0  0  0
   -5.8903    1.4051    2.1701 H   0  0  0  0  0  0  0  0  0  0  0  0
   -7.5581    1.1417    1.6168 H   0  0  0  0  0  0  0  0  0  0  0  0
   -4.5598   -0.5825    2.4958 H   0  0  0  0  0  0  0  0  0  0  0  0
   -5.6524   -1.9613    2.5432 H   0  0  0  0  0  0  0  0  0  0  0  0
   -4.9156   -2.6351    0.2562 H   0  0  0  0  0  0  0  0  0  0  0  0
   -3.5948   -2.6230    1.4059 H   0  0  0  0  0  0  0  0  0  0  0  0
   -1.1816   -1.7367   -2.3306 H   0  0  0  0  0  0  0  0  0  0  0  0
   -1.0900   -0.5222   -3.6118 H   0  0  0  0  0  0  0  0  0  0  0  0
   -2.5848   -0.7257   -2.7243 H   0  0  0  0  0  0  0  0  0  0  0  0
   -2.7153    1.7016   -1.8135 H   0  0  0  0  0  0  0  0  0  0  0  0
   -1.2786    2.4329   -1.1183 H   0  0  0  0  0  0  0  0  0  0  0  0
   -1.3461    2.0753   -2.8477 H   0  0  0  0  0  0  0  0  0  0  0  0
  1  2  1  0
  2  3  1  0
  2  4  1  0
  4  5  1  0
  5  6  2  0
  5  7  1  0
  7  8  1  0
  8  9  2  0
  9 10  1  0
 10 11  1  0
 11 12  2  0
 12 13  1  0
 13 14  1  0
 14 15  1  0
 15 16  2  0
 15 17  1  0
 17 18  1  0
 18 19  1  0
 19 20  1  0
 20 21  1  0
 20 22  1  0
 22 23  1  0
 14 24  1  0
 24 25  1  0
 24 26  1  0
 12  8  1  0
 23 17  1  0
 24 11  1  0
  1 27  1  0
  1 28  1  0
  1 29  1  0
  2 30  1  0
  3 31  1  0
  3 32  1  0
  3 33  1  0
  4 34  1  0
  4 35  1  0
  7 36  1  0
 10 37  1  0
 13 38  1  0
 13 39  1  0
 17 40  1  0
 18 41  1  0
 18 42  1  0
 19 43  1  0
 19 44  1  0
 21 45  1  0
 21 46  1  0
 21 47  1  0
 22 48  1  0
 22 49  1  0
 23 50  1  0
 23 51  1  0
 25 52  1  0
 25 53  1  0
 25 54  1  0
 26 55  1  0
 26 56  1  0
 26 57  1  0
M  END
$$$$
