
     RDKit          3D

 30 31  0  0  0  0  0  0  0  0999 V2000
    5.1790    0.6240    0.1617 C   0  0  0  0  0  0  0  0  0  0  0  0
    4.1407   -0.4185   -0.2138 C   0  0  0  0  0  0  0  0  0  0  0  0
    2.7160    0.0707   -0.0007 C   0  0  0  0  0  0  0  0  0  0  0  0
    2.4678    1.1875    0.4348 O   0  0  0  0  0  0  0  0  0  0  0  0
    1.7927   -0.9005   -0.3561 N   0  0  0  0  0  0  0  0  0  0  0  0
    0.3855   -0.8161   -0.3079 C   0  0  0  0  0  0  0  0  0  0  0  0
   -0.3275   -1.9465   -0.6992 C   0  0  0  0  0  0  0  0  0  0  0  0
   -1.7229   -1.9435   -0.6878 C   0  0  0  0  0  0  0  0  0  0  0  0
   -2.4584   -0.8109   -0.2864 C   0  0  0  0  0  0  0  0  0  0  0  0
   -3.9541   -0.9327   -0.3789 C   0  0  0  0  0  0  0  0  0  0  0  0
   -1.7454    0.3314    0.1407 C   0  0  0  0  0  0  0  0  0  0  0  0
   -2.3574    1.5316    0.6160 N   0  0  0  0  0  0  0  0  0  0  0  0
   -3.6512    1.8142    0.9810 C   0  0  0  0  0  0  0  0  0  0  0  0
   -3.7517    3.0734    1.3416 N   0  0  0  0  0  0  0  0  0  0  0  0
   -2.4940    3.5895    1.2287 N   0  0  0  0  0  0  0  0  0  0  0  0
   -1.6400    2.6685    0.8106 N   0  0  0  0  0  0  0  0  0  0  0  0
   -0.3266    0.3123    0.1050 C   0  0  0  0  0  0  0  0  0  0  0  0
    6.1879    0.2348   -0.0062 H   0  0  0  0  0  0  0  0  0  0  0  0
    5.0915    0.9039    1.2168 H   0  0  0  0  0  0  0  0  0  0  0  0
    5.0586    1.5326   -0.4376 H   0  0  0  0  0  0  0  0  0  0  0  0
    4.2617   -0.6879   -1.2692 H   0  0  0  0  0  0  0  0  0  0  0  0
    4.2936   -1.3185    0.3925 H   0  0  0  0  0  0  0  0  0  0  0  0
    2.1725   -1.7792   -0.6854 H   0  0  0  0  0  0  0  0  0  0  0  0
    0.1860   -2.8477   -1.0248 H   0  0  0  0  0  0  0  0  0  0  0  0
   -2.2389   -2.8466   -1.0133 H   0  0  0  0  0  0  0  0  0  0  0  0
   -4.3818   -0.0799   -0.9142 H   0  0  0  0  0  0  0  0  0  0  0  0
   -4.2516   -1.8216   -0.9475 H   0  0  0  0  0  0  0  0  0  0  0  0
   -4.3913   -1.0317    0.6188 H   0  0  0  0  0  0  0  0  0  0  0  0
   -4.4630    1.1112    1.0012 H   0  0  0  0  0  0  0  0  0  0  0  0
    0.2224    1.1960    0.4227 H   0  0  0  0  0  0  0  0  0  0  0  0
  1  2  1  0
  2  3  1  0
  3  4  2  0
  3  5  1  0
  5  6  1  0
  6  7  2  0
  7  8  1  0
  8  9  2  0
  9 10  1  0
  9 11  1  0
 11 12  1  0
 12 13  1  0
 13 14  2  0
 14 15  1  0
 15 16  2  0
 11 17  2  0
 17  6  1  0
 16 12  1  0
  1 18  1  0
  1 19  1  0
  1 20  1  0
  2 21  1  0
  2 22  1  0
  5 23  1  0
  7 24  1  0
  8 25  1  0
 10 26  1  0
 10 27  1  0
 10 28  1  0
 13 29  1  0
 17 30  1  0
M  END
$$$$
