
     RDKit          3D

 67 71  0  0  0  0  0  0  0  0999 V2000
    4.5530    3.5735   -2.7181 C   0  0  0  0  0  0  0  0  0  0  0  0
    4.3502    2.4028   -1.9373 O   0  0  0  0  0  0  0  0  0  0  0  0
    3.0622    2.0887   -1.5929 C   0  0  0  0  0  0  0  0  0  0  0  0
    1.9487    2.8817   -1.8712 C   0  0  0  0  0  0  0  0  0  0  0  0
    0.6667    2.4492   -1.5160 C   0  0  0  0  0  0  0  0  0  0  0  0
    0.4685    1.2154   -0.8776 C   0  0  0  0  0  0  0  0  0  0  0  0
    1.5833    0.4240   -0.5624 C   0  0  0  0  0  0  0  0  0  0  0  0
    2.8700    0.8710   -0.9176 C   0  0  0  0  0  0  0  0  0  0  0  0
    3.9276    0.0327   -0.6522 O   0  0  0  0  0  0  0  0  0  0  0  0
    4.7329    0.5403    0.4173 C   0  0  0  0  0  0  0  0  0  0  0  0
    5.6039   -0.5848    0.9253 C   0  0  0  0  0  0  0  0  0  0  0  0
    6.5538   -1.1769    0.0791 C   0  0  0  0  0  0  0  0  0  0  0  0
    7.3636   -2.2158    0.5388 C   0  0  0  0  0  0  0  0  0  0  0  0
    7.2344   -2.6727    1.8492 C   0  0  0  0  0  0  0  0  0  0  0  0
    6.2931   -2.0932    2.6992 C   0  0  0  0  0  0  0  0  0  0  0  0
    5.4807   -1.0544    2.2408 C   0  0  0  0  0  0  0  0  0  0  0  0
    1.3825   -0.9191    0.0963 C   0  0  0  0  0  0  0  0  0  0  0  0
    0.0671   -1.0041    0.8721 C   0  0  1  0  0  0  0  0  0  0  0  0
    0.1426   -0.2435    2.2036 C   0  0  0  0  0  0  0  0  0  0  0  0
   -0.5584    0.6906    2.5649 O   0  0  0  0  0  0  0  0  0  0  0  0
    1.0939   -0.7220    3.0366 O   0  0  0  0  0  0  0  0  0  0  0  0
   -1.0662   -0.5435    0.0477 N   0  0  0  0  0  0  0  0  0  0  0  0
   -2.3155   -1.1191    0.3276 C   0  0  0  0  0  0  0  0  0  0  0  0
   -2.4142   -1.9992    1.1891 O   0  0  0  0  0  0  0  0  0  0  0  0
   -3.5447   -0.6294   -0.4817 C   0  0  0  0  0  0  0  0  0  0  0  0
   -4.6086   -1.7174   -0.6556 C   0  0  0  0  0  0  0  0  0  0  0  0
   -5.4105   -2.1422    0.4160 C   0  0  0  0  0  0  0  0  0  0  0  0
   -6.3750   -3.1356    0.2362 C   0  0  0  0  0  0  0  0  0  0  0  0
   -6.5515   -3.7201   -1.0152 C   0  0  0  0  0  0  0  0  0  0  0  0
   -5.7622   -3.3137   -2.0884 C   0  0  0  0  0  0  0  0  0  0  0  0
   -4.7967   -2.3206   -1.9113 C   0  0  0  0  0  0  0  0  0  0  0  0
   -4.1328    0.6871    0.0292 C   0  0  0  0  0  0  0  0  0  0  0  0
   -4.7799    1.5481   -0.8751 C   0  0  0  0  0  0  0  0  0  0  0  0
   -5.3187    2.7616   -0.4446 C   0  0  0  0  0  0  0  0  0  0  0  0
   -5.2268    3.1288    0.8953 C   0  0  0  0  0  0  0  0  0  0  0  0
   -4.6036    2.2804    1.8072 C   0  0  0  0  0  0  0  0  0  0  0  0
   -4.0658    1.0644    1.3804 C   0  0  0  0  0  0  0  0  0  0  0  0
   -0.9417    0.7921   -0.5395 C   0  0  0  0  0  0  0  0  0  0  0  0
    4.2820    4.4728   -2.1549 H   0  0  0  0  0  0  0  0  0  0  0  0
    4.0064    3.5189   -3.6659 H   0  0  0  0  0  0  0  0  0  0  0  0
    5.6191    3.6368   -2.9544 H   0  0  0  0  0  0  0  0  0  0  0  0
    2.0378    3.8374   -2.3753 H   0  0  0  0  0  0  0  0  0  0  0  0
   -0.1873    3.0829   -1.7516 H   0  0  0  0  0  0  0  0  0  0  0  0
    4.1023    0.9232    1.2321 H   0  0  0  0  0  0  0  0  0  0  0  0
    5.3822    1.3536    0.0710 H   0  0  0  0  0  0  0  0  0  0  0  0
    6.6543   -0.8336   -0.9498 H   0  0  0  0  0  0  0  0  0  0  0  0
    8.0912   -2.6716   -0.1283 H   0  0  0  0  0  0  0  0  0  0  0  0
    7.8623   -3.4840    2.2059 H   0  0  0  0  0  0  0  0  0  0  0  0
    6.1887   -2.4544    3.7184 H   0  0  0  0  0  0  0  0  0  0  0  0
    4.7468   -0.6184    2.9149 H   0  0  0  0  0  0  0  0  0  0  0  0
    1.3801   -1.6753   -0.6997 H   0  0  0  0  0  0  0  0  0  0  0  0
    2.2191   -1.1486    0.7654 H   0  0  0  0  0  0  0  0  0  0  0  0
   -0.0974   -2.0561    1.1377 H   0  0  0  0  0  0  0  0  0  0  0  0
    0.9780   -0.1853    3.8487 H   0  0  0  0  0  0  0  0  0  0  0  0
   -3.1631   -0.4317   -1.4921 H   0  0  0  0  0  0  0  0  0  0  0  0
   -5.2792   -1.7101    1.4057 H   0  0  0  0  0  0  0  0  0  0  0  0
   -6.9830   -3.4565    1.0777 H   0  0  0  0  0  0  0  0  0  0  0  0
   -7.2994   -4.4961   -1.1522 H   0  0  0  0  0  0  0  0  0  0  0  0
   -5.8961   -3.7734   -3.0642 H   0  0  0  0  0  0  0  0  0  0  0  0
   -4.1907   -2.0255   -2.7648 H   0  0  0  0  0  0  0  0  0  0  0  0
   -4.8756    1.2733   -1.9241 H   0  0  0  0  0  0  0  0  0  0  0  0
   -5.8170    3.4171   -1.1541 H   0  0  0  0  0  0  0  0  0  0  0  0
   -5.6480    4.0722    1.2320 H   0  0  0  0  0  0  0  0  0  0  0  0
   -4.5372    2.5617    2.8550 H   0  0  0  0  0  0  0  0  0  0  0  0
   -3.5901    0.4217    2.1199 H   0  0  0  0  0  0  0  0  0  0  0  0
   -1.3590    1.5114    0.1737 H   0  0  0  0  0  0  0  0  0  0  0  0
   -1.5333    0.8329   -1.4578 H   0  0  0  0  0  0  0  0  0  0  0  0
  1  2  1  0
  2  3  1  0
  3  4  2  0
  4  5  1  0
  5  6  2  0
  6  7  1  0
  7  8  2  0
  8  9  1  0
  9 10  1  0
 10 11  1  0
 11 12  2  0
 12 13  1  0
 13 14  2  0
 14 15  1  0
 15 16  2  0
  7 17  1  0
 17 18  1  0
 18 19  1  0
 19 20  2  0
 19 21  1  0
 18 22  1  0
 22 23  1  0
 23 24  2  0
 23 25  1  0
 25 26  1  0
 26 27  2  0
 27 28  1  0
 28 29  2  0
 29 30  1  0
 30 31  2  0
 25 32  1  0
 32 33  2  0
 33 34  1  0
 34 35  2  0
 35 36  1  0
 36 37  2  0
 22 38  1  0
  8  3  1  0
 16 11  1  0
 31 26  1  0
 37 32  1  0
 38  6  1  0
  1 39  1  0
  1 40  1  0
  1 41  1  0
  4 42  1  0
  5 43  1  0
 10 44  1  0
 10 45  1  0
 12 46  1  0
 13 47  1  0
 14 48  1  0
 15 49  1  0
 16 50  1  0
 17 51  1  0
 17 52  1  0
 18 53  1  1
 21 54  1  0
 25 55  1  0
 27 56  1  0
 28 57  1  0
 29 58  1  0
 30 59  1  0
 31 60  1  0
 33 61  1  0
 34 62  1  0
 35 63  1  0
 36 64  1  0
 37 65  1  0
 38 66  1  0
 38 67  1  0
M  END
$$$$
