
     RDKit          3D

 53 57  0  0  0  0  0  0  0  0999 V2000
   -5.9494    1.1432   -1.5395 C   0  0  0  0  0  0  0  0  0  0  0  0
   -5.9000    0.5517   -0.1548 C   0  0  0  0  0  0  0  0  0  0  0  0
   -7.0983    0.0537    0.3915 C   0  0  0  0  0  0  0  0  0  0  0  0
   -7.1326   -0.4701    1.6801 C   0  0  0  0  0  0  0  0  0  0  0  0
   -5.9689   -0.5048    2.4352 C   0  0  0  0  0  0  0  0  0  0  0  0
   -4.7703   -0.0280    1.8958 C   0  0  0  0  0  0  0  0  0  0  0  0
   -4.6991    0.4930    0.5921 C   0  0  0  0  0  0  0  0  0  0  0  0
   -3.4935    0.9359    0.0444 N   0  0  0  0  0  0  0  0  0  0  0  0
   -2.9703    0.1470   -1.0969 C   0  0  0  0  0  0  0  0  0  0  0  0
   -1.5151   -0.3226   -0.8648 C   0  0  0  0  0  0  0  0  0  0  0  0
   -0.5879    0.8075   -0.5786 N   0  0  0  0  0  0  0  0  0  0  0  0
    0.5417    0.3354    0.1156 C   0  0  0  0  0  0  0  0  0  0  0  0
    0.6969    0.5924    1.4425 N   0  0  0  0  0  0  0  0  0  0  0  0
    1.7809    0.1097    2.0841 C   0  0  0  0  0  0  0  0  0  0  0  0
    2.7833   -0.6295    1.5812 N   0  0  0  0  0  0  0  0  0  0  0  0
    2.6073   -0.8506    0.2669 C   0  0  0  0  0  0  0  0  0  0  0  0
    1.5480   -0.4181   -0.5102 C   0  0  0  0  0  0  0  0  0  0  0  0
    1.8418   -0.9013   -1.8026 C   0  0  0  0  0  0  0  0  0  0  0  0
    2.9737   -1.6138   -1.8522 N   0  0  0  0  0  0  0  0  0  0  0  0
    3.4376   -1.5405   -0.5779 N   0  0  0  0  0  0  0  0  0  0  0  0
    4.6824   -2.1944   -0.2125 C   0  0  0  0  0  0  0  0  0  0  0  0
    5.8554   -1.2503   -0.3216 C   0  0  0  0  0  0  0  0  0  0  0  0
    6.4680   -1.0186   -1.5630 C   0  0  0  0  0  0  0  0  0  0  0  0
    7.5447   -0.1353   -1.6682 C   0  0  0  0  0  0  0  0  0  0  0  0
    8.0110    0.5254   -0.5341 C   0  0  0  0  0  0  0  0  0  0  0  0
    9.3370    1.6143   -0.6632 Cl  0  0  0  0  0  0  0  0  0  0  0  0
    7.4076    0.3137    0.7037 C   0  0  0  0  0  0  0  0  0  0  0  0
    6.3307   -0.5695    0.8097 C   0  0  0  0  0  0  0  0  0  0  0  0
   -1.2457    1.9690    0.0764 C   0  0  0  0  0  0  0  0  0  0  0  0
   -2.4652    1.5397    0.9193 C   0  0  0  0  0  0  0  0  0  0  0  0
   -5.6340    0.4019   -2.2796 H   0  0  0  0  0  0  0  0  0  0  0  0
   -5.3121    2.0302   -1.6133 H   0  0  0  0  0  0  0  0  0  0  0  0
   -6.9647    1.4676   -1.7932 H   0  0  0  0  0  0  0  0  0  0  0  0
   -8.0184    0.0872   -0.1878 H   0  0  0  0  0  0  0  0  0  0  0  0
   -8.0652   -0.8436    2.0934 H   0  0  0  0  0  0  0  0  0  0  0  0
   -5.9851   -0.9098    3.4433 H   0  0  0  0  0  0  0  0  0  0  0  0
   -3.8814   -0.1013    2.5143 H   0  0  0  0  0  0  0  0  0  0  0  0
   -3.5877   -0.7373   -1.2989 H   0  0  0  0  0  0  0  0  0  0  0  0
   -3.0025    0.7810   -1.9913 H   0  0  0  0  0  0  0  0  0  0  0  0
   -1.5204   -1.0401   -0.0316 H   0  0  0  0  0  0  0  0  0  0  0  0
   -1.1723   -0.8540   -1.7600 H   0  0  0  0  0  0  0  0  0  0  0  0
    1.8485    0.3481    3.1415 H   0  0  0  0  0  0  0  0  0  0  0  0
    1.2678   -0.7644   -2.7098 H   0  0  0  0  0  0  0  0  0  0  0  0
    4.8185   -3.0604   -0.8713 H   0  0  0  0  0  0  0  0  0  0  0  0
    4.5779   -2.5837    0.8067 H   0  0  0  0  0  0  0  0  0  0  0  0
    6.1000   -1.5183   -2.4583 H   0  0  0  0  0  0  0  0  0  0  0  0
    8.0082    0.0362   -2.6359 H   0  0  0  0  0  0  0  0  0  0  0  0
    7.7658    0.8356    1.5869 H   0  0  0  0  0  0  0  0  0  0  0  0
    5.8587   -0.7158    1.7800 H   0  0  0  0  0  0  0  0  0  0  0  0
   -0.5472    2.5632    0.6782 H   0  0  0  0  0  0  0  0  0  0  0  0
   -1.5867    2.6395   -0.7234 H   0  0  0  0  0  0  0  0  0  0  0  0
   -2.1337    0.8332    1.6881 H   0  0  0  0  0  0  0  0  0  0  0  0
   -2.8858    2.4211    1.4170 H   0  0  0  0  0  0  0  0  0  0  0  0
  1  2  1  0
  2  3  2  0
  3  4  1  0
  4  5  2  0
  5  6  1  0
  6  7  2  0
  7  8  1  0
  8  9  1  0
  9 10  1  0
 10 11  1  0
 11 12  1  0
 12 13  2  0
 13 14  1  0
 14 15  2  0
 15 16  1  0
 16 17  2  0
 17 18  1  0
 18 19  2  0
 19 20  1  0
 20 21  1  0
 21 22  1  0
 22 23  2  0
 23 24  1  0
 24 25  2  0
 25 26  1  0
 25 27  1  0
 27 28  2  0
 11 29  1  0
 29 30  1  0
  7  2  1  0
 30  8  1  0
 17 12  1  0
 28 22  1  0
 20 16  1  0
  1 31  1  0
  1 32  1  0
  1 33  1  0
  3 34  1  0
  4 35  1  0
  5 36  1  0
  6 37  1  0
  9 38  1  0
  9 39  1  0
 10 40  1  0
 10 41  1  0
 14 42  1  0
 18 43  1  0
 21 44  1  0
 21 45  1  0
 23 46  1  0
 24 47  1  0
 27 48  1  0
 28 49  1  0
 29 50  1  0
 29 51  1  0
 30 52  1  0
 30 53  1  0
M  END
$$$$
