
     RDKit          3D

 55 58  0  0  0  0  0  0  0  0999 V2000
    9.5709   -0.6960    2.1776 C   0  0  0  0  0  0  0  0  0  0  0  0
    8.2635   -0.3438    1.6789 N   0  0  0  0  0  0  0  0  0  0  0  0
    7.8469   -0.7265    0.4216 C   0  0  0  0  0  0  0  0  0  0  0  0
    8.5593   -1.3357   -0.3717 O   0  0  0  0  0  0  0  0  0  0  0  0
    6.4060   -0.3316    0.1246 C   0  0  0  0  0  0  0  0  0  0  0  0
    6.0955   -0.4318   -1.3746 C   0  0  0  0  0  0  0  0  0  0  0  0
    4.6368   -0.0606   -1.6454 C   0  0  0  0  0  0  0  0  0  0  0  0
    3.7323   -0.7279   -0.7079 N   0  0  0  0  0  0  0  0  0  0  0  0
    2.4585   -0.2453   -0.5984 C   0  0  0  0  0  0  0  0  0  0  0  0
    2.0167    0.7663   -1.3222 N   0  0  0  0  0  0  0  0  0  0  0  0
    0.7243    1.0823   -0.9899 C   0  0  0  0  0  0  0  0  0  0  0  0
    0.0124    2.1264   -1.5955 N   0  0  0  0  0  0  0  0  0  0  0  0
   -1.1646    2.3269   -1.0946 C   0  0  0  0  0  0  0  0  0  0  0  0
   -1.7511    1.6368   -0.0482 N   0  0  0  0  0  0  0  0  0  0  0  0
   -3.0647    2.0209    0.4387 C   0  0  0  0  0  0  0  0  0  0  0  0
   -4.1642    1.2916   -0.3403 C   0  0  0  0  0  0  0  0  0  0  0  0
   -4.0287    1.0290   -1.5313 O   0  0  0  0  0  0  0  0  0  0  0  0
   -5.2992    1.0681    0.4210 N   0  0  0  0  0  0  0  0  0  0  0  0
   -6.5233    0.4925    0.0047 C   0  0  0  0  0  0  0  0  0  0  0  0
   -6.7638   -0.0270   -1.2659 C   0  0  0  0  0  0  0  0  0  0  0  0
   -8.0231   -0.5577   -1.5839 C   0  0  0  0  0  0  0  0  0  0  0  0
   -9.0601   -0.5771   -0.6391 C   0  0  0  0  0  0  0  0  0  0  0  0
  -10.4060   -1.1255   -1.0108 C   0  0  0  0  0  0  0  0  0  0  0  0
   -8.8171   -0.0574    0.6335 C   0  0  0  0  0  0  0  0  0  0  0  0
   -7.5630    0.4610    0.9428 C   0  0  0  0  0  0  0  0  0  0  0  0
   -7.3524    0.9630    2.1710 F   0  0  0  0  0  0  0  0  0  0  0  0
   -1.1263    0.5366    0.5306 C   0  0  0  0  0  0  0  0  0  0  0  0
   -1.6561   -0.1338    1.4157 O   0  0  0  0  0  0  0  0  0  0  0  0
    0.1801    0.3165    0.0017 C   0  0  0  0  0  0  0  0  0  0  0  0
    1.2688   -0.8689    0.5141 S   0  0  0  0  0  0  0  0  0  0  0  0
    4.2928   -1.7701    0.1405 C   0  0  0  0  0  0  0  0  0  0  0  0
    5.4350   -1.1772    0.9696 C   0  0  0  0  0  0  0  0  0  0  0  0
    9.5159   -1.6885    2.6275 H   0  0  0  0  0  0  0  0  0  0  0  0
    9.8590    0.0368    2.9360 H   0  0  0  0  0  0  0  0  0  0  0  0
   10.3059   -0.7026    1.3680 H   0  0  0  0  0  0  0  0  0  0  0  0
    7.5931    0.0476    2.3278 H   0  0  0  0  0  0  0  0  0  0  0  0
    6.2962    0.7239    0.4173 H   0  0  0  0  0  0  0  0  0  0  0  0
    6.2951   -1.4494   -1.7388 H   0  0  0  0  0  0  0  0  0  0  0  0
    6.7572    0.2309   -1.9459 H   0  0  0  0  0  0  0  0  0  0  0  0
    4.3757   -0.3319   -2.6726 H   0  0  0  0  0  0  0  0  0  0  0  0
    4.5410    1.0286   -1.5533 H   0  0  0  0  0  0  0  0  0  0  0  0
   -1.7972    3.1285   -1.5155 H   0  0  0  0  0  0  0  0  0  0  0  0
   -3.2128    3.0965    0.2919 H   0  0  0  0  0  0  0  0  0  0  0  0
   -3.1418    1.8024    1.5099 H   0  0  0  0  0  0  0  0  0  0  0  0
   -5.2882    1.3480    1.3977 H   0  0  0  0  0  0  0  0  0  0  0  0
   -5.9941   -0.0426   -2.0340 H   0  0  0  0  0  0  0  0  0  0  0  0
   -8.1883   -0.9578   -2.5835 H   0  0  0  0  0  0  0  0  0  0  0  0
  -10.8575   -0.5126   -1.8018 H   0  0  0  0  0  0  0  0  0  0  0  0
  -10.3120   -2.1584   -1.3641 H   0  0  0  0  0  0  0  0  0  0  0  0
  -11.0895   -1.1255   -0.1556 H   0  0  0  0  0  0  0  0  0  0  0  0
   -9.5954   -0.0456    1.3936 H   0  0  0  0  0  0  0  0  0  0  0  0
    4.6708   -2.5886   -0.4876 H   0  0  0  0  0  0  0  0  0  0  0  0
    3.5666   -2.2356    0.8142 H   0  0  0  0  0  0  0  0  0  0  0  0
    5.0112   -0.5340    1.7529 H   0  0  0  0  0  0  0  0  0  0  0  0
    5.9534   -1.9942    1.4892 H   0  0  0  0  0  0  0  0  0  0  0  0
  1  2  1  0
  2  3  1  0
  3  4  2  0
  3  5  1  0
  5  6  1  0
  6  7  1  0
  7  8  1  0
  8  9  1  0
  9 10  2  0
 10 11  1  0
 11 12  1  0
 12 13  2  0
 13 14  1  0
 14 15  1  0
 15 16  1  0
 16 17  2  0
 16 18  1  0
 18 19  1  0
 19 20  2  0
 20 21  1  0
 21 22  2  0
 22 23  1  0
 22 24  1  0
 24 25  2  0
 25 26  1  0
 14 27  1  0
 27 28  2  0
 27 29  1  0
 29 30  1  0
  8 31  1  0
 31 32  1  0
 32  5  1  0
 30  9  1  0
 29 11  2  0
 25 19  1  0
  1 33  1  0
  1 34  1  0
  1 35  1  0
  2 36  1  0
  5 37  1  0
  6 38  1  0
  6 39  1  0
  7 40  1  0
  7 41  1  0
 13 42  1  0
 15 43  1  0
 15 44  1  0
 18 45  1  0
 20 46  1  0
 21 47  1  0
 23 48  1  0
 23 49  1  0
 23 50  1  0
 24 51  1  0
 31 52  1  0
 31 53  1  0
 32 54  1  0
 32 55  1  0
M  END
$$$$
