
     RDKit          3D

 42 43  0  0  0  0  0  0  0  0999 V2000
    6.4792    1.6471    1.2417 C   0  0  0  0  0  0  0  0  0  0  0  0
    5.5912    0.5193    1.6986 C   0  0  0  0  0  0  0  0  0  0  0  0
    5.6963    0.0474    2.8287 O   0  0  0  0  0  0  0  0  0  0  0  0
    4.5686   -0.0251    0.7548 C   0  0  0  0  0  0  0  0  0  0  0  0
    4.3908    0.4945   -0.5351 C   0  0  0  0  0  0  0  0  0  0  0  0
    3.4199   -0.0469   -1.3848 C   0  0  0  0  0  0  0  0  0  0  0  0
    2.6189   -1.1036   -0.9400 C   0  0  0  0  0  0  0  0  0  0  0  0
    1.4236   -1.8215   -2.0406 S   0  0  0  0  0  6  0  0  0  0  0  0
    1.1165   -3.1641   -1.6037 O   0  0  0  0  0  0  0  0  0  0  0  0
    1.8886   -1.5738   -3.3915 O   0  0  0  0  0  0  0  0  0  0  0  0
    0.0852   -0.8560   -1.8614 N   0  0  0  0  0  0  0  0  0  0  0  0
   -0.6196   -0.6868   -0.6841 C   0  0  0  0  0  0  0  0  0  0  0  0
   -0.2932   -1.1886    0.3776 O   0  0  0  0  0  0  0  0  0  0  0  0
   -1.7109    0.1168   -0.8511 N   0  0  0  0  0  0  0  0  0  0  0  0
   -2.6773    0.3206    0.2226 C   0  0  0  0  0  0  0  0  0  0  0  0
   -3.6002   -0.9062    0.3457 C   0  0  0  0  0  0  0  0  0  0  0  0
   -4.9670   -0.5353    0.9057 C   0  0  0  0  0  0  0  0  0  0  0  0
   -5.6958    0.4619    0.0034 C   0  0  0  0  0  0  0  0  0  0  0  0
   -4.7550    1.4017   -0.7538 C   0  0  0  0  0  0  0  0  0  0  0  0
   -3.4524    1.6311    0.0045 C   0  0  0  0  0  0  0  0  0  0  0  0
    2.7998   -1.6406    0.3359 C   0  0  0  0  0  0  0  0  0  0  0  0
    3.7679   -1.0949    1.1828 C   0  0  0  0  0  0  0  0  0  0  0  0
    7.0673    1.3392    0.3733 H   0  0  0  0  0  0  0  0  0  0  0  0
    5.8801    2.5327    1.0149 H   0  0  0  0  0  0  0  0  0  0  0  0
    7.1750    1.9049    2.0464 H   0  0  0  0  0  0  0  0  0  0  0  0
    4.9975    1.3157   -0.9061 H   0  0  0  0  0  0  0  0  0  0  0  0
    3.3017    0.3540   -2.3894 H   0  0  0  0  0  0  0  0  0  0  0  0
   -0.1459   -0.3392   -2.6977 H   0  0  0  0  0  0  0  0  0  0  0  0
   -2.0164    0.2890   -1.7959 H   0  0  0  0  0  0  0  0  0  0  0  0
   -2.1056    0.4242    1.1540 H   0  0  0  0  0  0  0  0  0  0  0  0
   -3.1253   -1.6596    0.9858 H   0  0  0  0  0  0  0  0  0  0  0  0
   -3.7377   -1.3828   -0.6343 H   0  0  0  0  0  0  0  0  0  0  0  0
   -5.5823   -1.4331    1.0334 H   0  0  0  0  0  0  0  0  0  0  0  0
   -4.8407   -0.0993    1.9047 H   0  0  0  0  0  0  0  0  0  0  0  0
   -6.3908    1.0474    0.6175 H   0  0  0  0  0  0  0  0  0  0  0  0
   -6.3134   -0.0779   -0.7248 H   0  0  0  0  0  0  0  0  0  0  0  0
   -5.2608    2.3566   -0.9367 H   0  0  0  0  0  0  0  0  0  0  0  0
   -4.5298    0.9752   -1.7393 H   0  0  0  0  0  0  0  0  0  0  0  0
   -2.8348    2.3675   -0.5234 H   0  0  0  0  0  0  0  0  0  0  0  0
   -3.6936    2.0703    0.9814 H   0  0  0  0  0  0  0  0  0  0  0  0
    2.1856   -2.4702    0.6831 H   0  0  0  0  0  0  0  0  0  0  0  0
    3.8947   -1.5118    2.1812 H   0  0  0  0  0  0  0  0  0  0  0  0
  1  2  1  0
  2  3  2  0
  2  4  1  0
  4  5  2  0
  5  6  1  0
  6  7  2  0
  7  8  1  0
  8  9  2  0
  8 10  2  0
  8 11  1  0
 11 12  1  0
 12 13  2  0
 12 14  1  0
 14 15  1  0
 15 16  1  0
 16 17  1  0
 17 18  1  0
 18 19  1  0
 19 20  1  0
  7 21  1  0
 21 22  2  0
 22  4  1  0
 20 15  1  0
  1 23  1  0
  1 24  1  0
  1 25  1  0
  5 26  1  0
  6 27  1  0
 11 28  1  0
 14 29  1  0
 15 30  1  0
 16 31  1  0
 16 32  1  0
 17 33  1  0
 17 34  1  0
 18 35  1  0
 18 36  1  0
 19 37  1  0
 19 38  1  0
 20 39  1  0
 20 40  1  0
 21 41  1  0
 22 42  1  0
M  END
$$$$
