
     RDKit          3D

 44 46  0  0  0  0  0  0  0  0999 V2000
   -3.4346   -0.4972    3.0116 C   0  0  0  0  0  0  0  0  0  0  0  0
   -3.3603   -0.7169    1.6123 O   0  0  0  0  0  0  0  0  0  0  0  0
   -2.2244   -0.4555    0.8666 C   0  0  0  0  0  0  0  0  0  0  0  0
   -1.2255   -0.0044    1.4734 O   0  0  0  0  0  0  0  0  0  0  0  0
   -2.1176   -0.6699   -0.5664 C   0  0  0  0  0  0  0  0  0  0  0  0
   -3.2126   -1.1662   -1.2418 C   0  0  0  0  0  0  0  0  0  0  0  0
   -3.1882   -1.3944   -2.5915 C   0  0  0  0  0  0  0  0  0  0  0  0
   -2.0340   -1.1187   -3.2917 C   0  0  0  0  0  0  0  0  0  0  0  0
   -0.9576   -0.6296   -2.6214 C   0  0  0  0  0  0  0  0  0  0  0  0
   -0.9601   -0.3888   -1.2425 C   0  0  0  0  0  0  0  0  0  0  0  0
    0.2187    0.1312   -0.5975 C   0  0  0  0  0  0  0  0  0  0  0  0
    0.4317    1.4806   -0.4661 C   0  0  0  0  0  0  0  0  0  0  0  0
   -0.4525    2.4093   -0.9344 C   0  0  0  0  0  0  0  0  0  0  0  0
   -0.1778    3.7507   -0.7696 C   0  0  0  0  0  0  0  0  0  0  0  0
    0.9746    4.2096   -0.1395 C   0  0  0  0  0  0  0  0  0  0  0  0
    1.1459    5.4790   -0.0316 N   0  0  0  0  0  0  0  0  0  0  0  0
    1.9062    3.3238    0.3550 C   0  0  0  0  0  0  0  0  0  0  0  0
    1.6547    1.9854    0.2028 C   0  0  0  0  0  0  0  0  0  0  0  0
    2.4935    1.0931    0.6470 O   0  0  0  0  0  0  0  0  0  0  0  0
    2.3204   -0.2110    0.5377 C   0  0  0  0  0  0  0  0  0  0  0  0
    3.2900   -1.0287    1.0535 C   0  0  0  0  0  0  0  0  0  0  0  0
    3.1670   -2.3901    0.9708 C   0  0  0  0  0  0  0  0  0  0  0  0
    4.1838   -3.2327    1.5120 N   0  0  0  0  0  0  0  0  0  0  0  0
    2.0557   -2.9138    0.3622 C   0  0  0  0  0  0  0  0  0  0  0  0
    1.0683   -2.0926   -0.1633 C   0  0  0  0  0  0  0  0  0  0  0  0
    1.1710   -0.7185   -0.0914 C   0  0  0  0  0  0  0  0  0  0  0  0
    0.6837    0.0000    0.0000 Cl  0  0  0  0  0  0  0  0  0  0  0  0
   -4.1896   -1.2246    3.4015 H   0  0  0  0  0  0  0  0  0  0  0  0
   -3.7361    0.5373    3.2604 H   0  0  0  0  0  0  0  0  0  0  0  0
   -2.4590   -0.6799    3.5091 H   0  0  0  0  0  0  0  0  0  0  0  0
   -4.1413   -1.3935   -0.7096 H   0  0  0  0  0  0  0  0  0  0  0  0
   -4.0692   -1.7844   -3.0814 H   0  0  0  0  0  0  0  0  0  0  0  0
   -2.0006   -1.2961   -4.3697 H   0  0  0  0  0  0  0  0  0  0  0  0
   -0.0541   -0.4090   -3.1423 H   0  0  0  0  0  0  0  0  0  0  0  0
   -1.3710    2.0794   -1.4361 H   0  0  0  0  0  0  0  0  0  0  0  0
   -0.8883    4.4681   -1.1462 H   0  0  0  0  0  0  0  0  0  0  0  0
    1.9583    5.9176    0.4140 H   0  0  0  0  0  0  0  0  0  0  0  0
    2.7813    3.7224    0.8340 H   0  0  0  0  0  0  0  0  0  0  0  0
    4.1754   -0.6175    1.5383 H   0  0  0  0  0  0  0  0  0  0  0  0
    4.1161   -4.2673    1.4670 H   0  0  0  0  0  0  0  0  0  0  0  0
    5.0159   -2.8219    1.9639 H   0  0  0  0  0  0  0  0  0  0  0  0
    1.9409   -3.9757    0.2874 H   0  0  0  0  0  0  0  0  0  0  0  0
    0.1850   -2.4884   -0.6468 H   0  0  0  0  0  0  0  0  0  0  0  0
   -0.6837    0.0000    0.0000 H   0  0  0  0  0  0  0  0  0  0  0  0
  1  2  1  0
  2  3  1  0
  3  4  2  0
  3  5  1  0
  5  6  2  0
  6  7  1  0
  7  8  2  0
  8  9  1  0
  9 10  2  0
 10 11  1  0
 11 12  2  0
 12 13  1  0
 13 14  2  0
 14 15  1  0
 15 16  2  3
 15 17  1  0
 17 18  2  0
 18 19  1  0
 19 20  1  0
 20 21  2  0
 21 22  1  0
 22 23  1  0
 22 24  2  0
 24 25  1  0
 25 26  2  0
 10  5  1  0
 26 11  1  0
 18 12  1  0
 26 20  1  0
  1 28  1  0
  1 29  1  0
  1 30  1  0
  6 31  1  0
  7 32  1  0
  8 33  1  0
  9 34  1  0
 13 35  1  0
 14 36  1  0
 16 37  1  0
 17 38  1  0
 21 39  1  0
 23 40  1  0
 23 41  1  0
 24 42  1  0
 25 43  1  0
 27 44  1  0
M  END
$$$$
