
     RDKit          3D

 37 41  0  0  0  0  0  0  0  0999 V2000
   -2.0837    0.7399    1.7351 C   0  0  0  0  0  0  0  0  0  0  0  0
   -1.7059    0.3855    0.2837 C   0  0  2  0  0  0  0  0  0  0  0  0
   -2.6573    1.0385   -0.7136 C   0  0  0  0  0  0  0  0  0  0  0  0
   -3.8537    0.0759   -0.7687 C   0  0  0  0  0  0  0  0  0  0  0  0
   -3.3480   -1.2502   -0.1930 C   0  0  0  0  0  0  0  0  0  0  0  0
   -1.9222   -1.0213   -0.0892 N   0  0  0  0  0  0  0  0  0  0  0  0
   -1.1215   -2.0088    0.6422 C   0  0  0  0  0  0  0  0  0  0  0  0
    0.3908   -1.6940    0.4737 C   0  0  0  0  0  0  0  0  0  0  0  0
    1.2482   -2.6518    0.6375 N   0  0  0  0  0  0  0  0  0  0  0  0
    2.6060   -2.5842    0.5386 N   0  0  0  0  0  0  0  0  0  0  0  0
    3.5549   -1.6266    0.2416 C   0  0  0  0  0  0  0  0  0  0  0  0
    4.7387   -1.9812    0.2303 O   0  0  0  0  0  0  0  0  0  0  0  0
    3.2663   -0.2142   -0.0537 C   0  0  0  0  0  0  0  0  0  0  0  0
    4.3145    0.6795   -0.3359 C   0  0  0  0  0  0  0  0  0  0  0  0
    4.0476    2.0168   -0.6039 C   0  0  0  0  0  0  0  0  0  0  0  0
    5.0676    2.8447   -0.8686 F   0  0  0  0  0  0  0  0  0  0  0  0
    2.7502    2.5283   -0.6040 C   0  0  0  0  0  0  0  0  0  0  0  0
    1.7175    1.6298   -0.3221 C   0  0  0  0  0  0  0  0  0  0  0  0
    0.3519    1.8255   -0.2478 N   0  0  0  0  0  0  0  0  0  0  0  0
   -0.2536    0.6403    0.0621 C   0  0  0  0  0  0  0  0  0  0  0  0
    0.7272   -0.3265    0.1757 C   0  0  0  0  0  0  0  0  0  0  0  0
    1.9627    0.2781   -0.0524 C   0  0  0  0  0  0  0  0  0  0  0  0
   -1.9460    1.8131    1.9156 H   0  0  0  0  0  0  0  0  0  0  0  0
   -1.4573    0.2123    2.4635 H   0  0  0  0  0  0  0  0  0  0  0  0
   -3.1282    0.5064    1.9666 H   0  0  0  0  0  0  0  0  0  0  0  0
   -2.2082    1.1127   -1.7134 H   0  0  0  0  0  0  0  0  0  0  0  0
   -2.9664    2.0477   -0.4207 H   0  0  0  0  0  0  0  0  0  0  0  0
   -4.6863    0.4589   -0.1683 H   0  0  0  0  0  0  0  0  0  0  0  0
   -4.2042   -0.0373   -1.8002 H   0  0  0  0  0  0  0  0  0  0  0  0
   -3.8101   -1.4483    0.7808 H   0  0  0  0  0  0  0  0  0  0  0  0
   -3.5795   -2.0851   -0.8616 H   0  0  0  0  0  0  0  0  0  0  0  0
   -1.3604   -2.0293    1.7111 H   0  0  0  0  0  0  0  0  0  0  0  0
   -1.2989   -3.0111    0.2351 H   0  0  0  0  0  0  0  0  0  0  0  0
    3.0469   -3.4859    0.7053 H   0  0  0  0  0  0  0  0  0  0  0  0
    5.3458    0.3359   -0.3465 H   0  0  0  0  0  0  0  0  0  0  0  0
    2.5695    3.5757   -0.8157 H   0  0  0  0  0  0  0  0  0  0  0  0
   -0.1150    2.7101   -0.3999 H   0  0  0  0  0  0  0  0  0  0  0  0
  2  1  1  1
  2  3  1  0
  3  4  1  0
  4  5  1  0
  5  6  1  0
  6  7  1  0
  7  8  1  0
  8  9  2  0
  9 10  1  0
 10 11  1  0
 11 12  2  0
 11 13  1  0
 13 14  1  0
 14 15  2  0
 15 16  1  0
 15 17  1  0
 17 18  2  0
 18 19  1  0
 19 20  1  0
 20 21  2  0
 21 22  1  0
  6  2  1  0
 21  8  1  0
 20  2  1  0
 22 13  2  0
 22 18  1  0
  1 23  1  0
  1 24  1  0
  1 25  1  0
  3 26  1  0
  3 27  1  0
  4 28  1  0
  4 29  1  0
  5 30  1  0
  5 31  1  0
  7 32  1  0
  7 33  1  0
 10 34  1  0
 14 35  1  0
 17 36  1  0
 19 37  1  0
M  END
$$$$
