
     RDKit          3D

 41 43  0  0  0  0  0  0  0  0999 V2000
   -2.5445   -1.6435    0.8094 C   0  0  0  0  0  0  0  0  0  0  0  0
   -2.8880   -0.3533    0.1633 N   0  0  0  0  0  0  0  0  0  0  0  0
   -4.2903   -0.0263    0.2390 C   0  0  0  0  0  0  0  0  0  0  0  0
   -4.6923    0.8755    1.2266 C   0  0  0  0  0  0  0  0  0  0  0  0
   -6.0451    1.1761    1.3924 C   0  0  0  0  0  0  0  0  0  0  0  0
   -6.9996    0.5603    0.5835 C   0  0  0  0  0  0  0  0  0  0  0  0
   -6.6034   -0.3609   -0.3859 C   0  0  0  0  0  0  0  0  0  0  0  0
   -5.2505   -0.6632   -0.5524 C   0  0  0  0  0  0  0  0  0  0  0  0
   -2.1978   -0.1144   -1.3917 S   0  0  0  0  0  6  0  0  0  0  0  0
   -2.5668    1.1965   -1.8855 O   0  0  0  0  0  0  0  0  0  0  0  0
   -2.4321   -1.3071   -2.1818 O   0  0  0  0  0  0  0  0  0  0  0  0
   -0.4596   -0.0394   -1.0162 C   0  0  0  0  0  0  0  0  0  0  0  0
    0.0448    1.0904   -0.3707 C   0  0  0  0  0  0  0  0  0  0  0  0
    1.4097    1.1637   -0.0806 C   0  0  0  0  0  0  0  0  0  0  0  0
    2.2767    0.1172   -0.4313 C   0  0  0  0  0  0  0  0  0  0  0  0
    3.6385    0.2787   -0.0982 N   0  0  0  0  0  0  0  0  0  0  0  0
    4.6752   -0.6298   -0.2779 C   0  0  0  0  0  0  0  0  0  0  0  0
    4.5269   -1.7591   -0.7353 O   0  0  0  0  0  0  0  0  0  0  0  0
    5.9797   -0.1305    0.1439 C   0  0  0  0  0  0  0  0  0  0  0  0
    6.4388    1.0969    0.5981 C   0  0  0  0  0  0  0  0  0  0  0  0
    7.8271    0.9551    0.8485 C   0  0  0  0  0  0  0  0  0  0  0  0
    8.1399   -0.3435    0.5333 C   0  0  0  0  0  0  0  0  0  0  0  0
    7.0369   -1.0054    0.1073 O   0  0  0  0  0  0  0  0  0  0  0  0
    1.7550   -1.0007   -1.0899 C   0  0  0  0  0  0  0  0  0  0  0  0
    0.3899   -1.0808   -1.3890 C   0  0  0  0  0  0  0  0  0  0  0  0
   -1.4637   -1.7319    0.9464 H   0  0  0  0  0  0  0  0  0  0  0  0
   -2.9089   -2.4940    0.2252 H   0  0  0  0  0  0  0  0  0  0  0  0
   -2.9919   -1.6957    1.8083 H   0  0  0  0  0  0  0  0  0  0  0  0
   -3.9521    1.3538    1.8615 H   0  0  0  0  0  0  0  0  0  0  0  0
   -6.3540    1.8901    2.1513 H   0  0  0  0  0  0  0  0  0  0  0  0
   -8.0534    0.7962    0.7098 H   0  0  0  0  0  0  0  0  0  0  0  0
   -7.3477   -0.8456   -1.0127 H   0  0  0  0  0  0  0  0  0  0  0  0
   -4.9608   -1.3934   -1.3034 H   0  0  0  0  0  0  0  0  0  0  0  0
   -0.6159    1.9110   -0.0982 H   0  0  0  0  0  0  0  0  0  0  0  0
    1.7824    2.0526    0.4228 H   0  0  0  0  0  0  0  0  0  0  0  0
    3.8757    1.1522    0.3476 H   0  0  0  0  0  0  0  0  0  0  0  0
    5.8592    1.9988    0.7309 H   0  0  0  0  0  0  0  0  0  0  0  0
    8.5155    1.7067    1.2095 H   0  0  0  0  0  0  0  0  0  0  0  0
    9.0528   -0.9229    0.5530 H   0  0  0  0  0  0  0  0  0  0  0  0
    2.3846   -1.8300   -1.3989 H   0  0  0  0  0  0  0  0  0  0  0  0
    0.0090   -1.9555   -1.9122 H   0  0  0  0  0  0  0  0  0  0  0  0
  1  2  1  0
  2  3  1  0
  3  4  2  0
  4  5  1  0
  5  6  2  0
  6  7  1  0
  7  8  2  0
  2  9  1  0
  9 10  2  0
  9 11  2  0
  9 12  1  0
 12 13  2  0
 13 14  1  0
 14 15  2  0
 15 16  1  0
 16 17  1  0
 17 18  2  0
 17 19  1  0
 19 20  2  0
 20 21  1  0
 21 22  2  0
 22 23  1  0
 15 24  1  0
 24 25  2  0
  8  3  1  0
 25 12  1  0
 23 19  1  0
  1 26  1  0
  1 27  1  0
  1 28  1  0
  4 29  1  0
  5 30  1  0
  6 31  1  0
  7 32  1  0
  8 33  1  0
 13 34  1  0
 14 35  1  0
 16 36  1  0
 20 37  1  0
 21 38  1  0
 22 39  1  0
 24 40  1  0
 25 41  1  0
M  END
$$$$
