
     RDKit          3D

 50 52  0  0  0  0  0  0  0  0999 V2000
   -1.8183    4.2108    0.7783 C   0  0  0  0  0  0  0  0  0  0  0  0
   -2.0326    2.7885    0.4046 C   0  0  0  0  0  0  0  0  0  0  0  0
   -3.2356    2.2262    0.5554 N   0  0  0  0  0  0  0  0  0  0  0  0
   -3.0859    0.9777    0.0925 N   0  0  0  0  0  0  0  0  0  0  0  0
   -4.2177    0.0712    0.1527 C   0  0  0  0  0  0  0  0  0  0  0  0
   -5.5941    0.7313   -0.0538 C   0  0  0  0  0  0  0  0  0  0  0  0
   -6.6227   -0.3579    0.2219 C   0  0  0  0  0  0  0  0  0  0  0  0
   -5.9047   -1.3715    1.5068 S   0  0  0  0  0  6  0  0  0  0  0  0
   -5.7663   -2.7211    1.0001 O   0  0  0  0  0  0  0  0  0  0  0  0
   -6.5504   -1.0836    2.7681 O   0  0  0  0  0  0  0  0  0  0  0  0
   -4.2929   -0.6245    1.5045 C   0  0  0  0  0  0  0  0  0  0  0  0
   -1.8045    0.6995   -0.3252 C   0  0  0  0  0  0  0  0  0  0  0  0
   -1.4098   -0.6063   -0.9217 C   0  0  0  0  0  0  0  0  0  0  0  0
   -1.0756    1.8634   -0.0923 C   0  0  0  0  0  0  0  0  0  0  0  0
    0.3449    2.1280   -0.3244 C   0  0  0  0  0  0  0  0  0  0  0  0
    0.7152    3.2283   -0.7138 O   0  0  0  0  0  0  0  0  0  0  0  0
    1.1379    1.0589   -0.0027 N   0  0  0  0  0  0  0  0  0  0  0  0
    2.4904    0.9982   -0.1417 C   0  0  0  0  0  0  0  0  0  0  0  0
    3.3104    1.9022   -0.6720 N   0  0  0  0  0  0  0  0  0  0  0  0
    4.5019    1.3067   -0.5512 N   0  0  0  0  0  0  0  0  0  0  0  0
    4.3816    0.0717    0.0184 C   0  0  0  0  0  0  0  0  0  0  0  0
    5.5399   -0.8315    0.2616 C   0  0  0  0  0  0  0  0  0  0  0  0
    5.2757   -2.2748   -0.2015 C   0  0  0  0  0  0  0  0  0  0  0  0
    5.1119   -2.3693   -1.7217 C   0  0  0  0  0  0  0  0  0  0  0  0
    6.4155   -3.1883    0.2520 C   0  0  0  0  0  0  0  0  0  0  0  0
    3.1120   -0.1421    0.2930 N   0  0  0  0  0  0  0  0  0  0  0  0
   -2.6730    4.6141    1.3304 H   0  0  0  0  0  0  0  0  0  0  0  0
   -0.9324    4.3124    1.4146 H   0  0  0  0  0  0  0  0  0  0  0  0
   -1.6770    4.8213   -0.1201 H   0  0  0  0  0  0  0  0  0  0  0  0
   -4.0874   -0.6729   -0.6414 H   0  0  0  0  0  0  0  0  0  0  0  0
   -5.7054    1.1386   -1.0622 H   0  0  0  0  0  0  0  0  0  0  0  0
   -5.7448    1.5558    0.6531 H   0  0  0  0  0  0  0  0  0  0  0  0
   -7.5788    0.0453    0.5589 H   0  0  0  0  0  0  0  0  0  0  0  0
   -6.7687   -0.9924   -0.6573 H   0  0  0  0  0  0  0  0  0  0  0  0
   -4.2404    0.0804    2.3410 H   0  0  0  0  0  0  0  0  0  0  0  0
   -3.5307   -1.3973    1.6254 H   0  0  0  0  0  0  0  0  0  0  0  0
   -1.3011   -1.3634   -0.1375 H   0  0  0  0  0  0  0  0  0  0  0  0
   -0.4615   -0.5324   -1.4630 H   0  0  0  0  0  0  0  0  0  0  0  0
   -2.1521   -0.9583   -1.6450 H   0  0  0  0  0  0  0  0  0  0  0  0
    0.7432    0.2456    0.4375 H   0  0  0  0  0  0  0  0  0  0  0  0
    5.3322    1.7879   -0.8779 H   0  0  0  0  0  0  0  0  0  0  0  0
    6.4368   -0.4410   -0.2338 H   0  0  0  0  0  0  0  0  0  0  0  0
    5.7477   -0.8251    1.3398 H   0  0  0  0  0  0  0  0  0  0  0  0
    4.3499   -2.6401    0.2629 H   0  0  0  0  0  0  0  0  0  0  0  0
    6.0092   -2.0141   -2.2391 H   0  0  0  0  0  0  0  0  0  0  0  0
    4.9333   -3.4055   -2.0281 H   0  0  0  0  0  0  0  0  0  0  0  0
    4.2615   -1.7723   -2.0691 H   0  0  0  0  0  0  0  0  0  0  0  0
    6.2037   -4.2295   -0.0111 H   0  0  0  0  0  0  0  0  0  0  0  0
    7.3611   -2.9071   -0.2223 H   0  0  0  0  0  0  0  0  0  0  0  0
    6.5482   -3.1418    1.3372 H   0  0  0  0  0  0  0  0  0  0  0  0
  1  2  1  0
  2  3  2  0
  3  4  1  0
  4  5  1  0
  5  6  1  0
  6  7  1  0
  7  8  1  0
  8  9  2  0
  8 10  2  0
  8 11  1  0
  4 12  1  0
 12 13  1  0
 12 14  2  0
 14 15  1  0
 15 16  2  0
 15 17  1  0
 17 18  1  0
 18 19  2  0
 19 20  1  0
 20 21  1  0
 21 22  1  0
 22 23  1  0
 23 24  1  0
 23 25  1  0
 21 26  2  0
 14  2  1  0
 26 18  1  0
 11  5  1  0
  1 27  1  0
  1 28  1  0
  1 29  1  0
  5 30  1  0
  6 31  1  0
  6 32  1  0
  7 33  1  0
  7 34  1  0
 11 35  1  0
 11 36  1  0
 13 37  1  0
 13 38  1  0
 13 39  1  0
 17 40  1  0
 20 41  1  0
 22 42  1  0
 22 43  1  0
 23 44  1  0
 24 45  1  0
 24 46  1  0
 24 47  1  0
 25 48  1  0
 25 49  1  0
 25 50  1  0
M  END
$$$$
