
     RDKit          3D

 33 34  0  0  0  0  0  0  0  0999 V2000
    6.2031   -0.9370   -0.7804 N   0  0  0  0  0  0  0  0  0  0  0  0
    5.7919    0.1305    0.4476 S   0  0  0  0  0  6  0  0  0  0  0  0
    6.4231    1.3846    0.1076 O   0  0  0  0  0  0  0  0  0  0  0  0
    6.0594   -0.5601    1.6870 O   0  0  0  0  0  0  0  0  0  0  0  0
    4.0436    0.2820    0.2309 C   0  0  0  0  0  0  0  0  0  0  0  0
    3.5214    1.3600   -0.4846 C   0  0  0  0  0  0  0  0  0  0  0  0
    2.1362    1.4844   -0.6282 C   0  0  0  0  0  0  0  0  0  0  0  0
    1.2682    0.5398   -0.0610 C   0  0  0  0  0  0  0  0  0  0  0  0
   -0.1152    0.7446   -0.2443 N   0  0  0  0  0  0  0  0  0  0  0  0
   -1.1445   -0.1369    0.0578 C   0  0  0  0  0  0  0  0  0  0  0  0
   -0.9918   -1.2901    0.4363 O   0  0  0  0  0  0  0  0  0  0  0  0
   -2.3718    0.4830   -0.1351 N   0  0  0  0  0  0  0  0  0  0  0  0
   -3.6514   -0.1038   -0.0499 C   0  0  0  0  0  0  0  0  0  0  0  0
   -3.8723   -1.4808    0.0542 C   0  0  0  0  0  0  0  0  0  0  0  0
   -5.1748   -1.9860    0.1222 C   0  0  0  0  0  0  0  0  0  0  0  0
   -6.2543   -1.1145    0.0806 C   0  0  0  0  0  0  0  0  0  0  0  0
   -7.5008   -1.5996    0.1444 F   0  0  0  0  0  0  0  0  0  0  0  0
   -6.0573    0.2551   -0.0305 C   0  0  0  0  0  0  0  0  0  0  0  0
   -4.7563    0.7601   -0.0983 C   0  0  0  0  0  0  0  0  0  0  0  0
    1.8072   -0.5229    0.6700 C   0  0  0  0  0  0  0  0  0  0  0  0
    3.1923   -0.6538    0.8198 C   0  0  0  0  0  0  0  0  0  0  0  0
    6.8340   -0.4815   -1.4400 H   0  0  0  0  0  0  0  0  0  0  0  0
    6.5758   -1.7987   -0.3805 H   0  0  0  0  0  0  0  0  0  0  0  0
    4.1788    2.1034   -0.9300 H   0  0  0  0  0  0  0  0  0  0  0  0
    1.7486    2.3298   -1.1913 H   0  0  0  0  0  0  0  0  0  0  0  0
   -0.3737    1.5438   -0.8022 H   0  0  0  0  0  0  0  0  0  0  0  0
   -2.3498    1.4899   -0.1840 H   0  0  0  0  0  0  0  0  0  0  0  0
   -3.0513   -2.1911    0.0782 H   0  0  0  0  0  0  0  0  0  0  0  0
   -5.3468   -3.0545    0.2055 H   0  0  0  0  0  0  0  0  0  0  0  0
   -6.9147    0.9195   -0.0635 H   0  0  0  0  0  0  0  0  0  0  0  0
   -4.6218    1.8349   -0.1852 H   0  0  0  0  0  0  0  0  0  0  0  0
    1.1736   -1.2641    1.1489 H   0  0  0  0  0  0  0  0  0  0  0  0
    3.5914   -1.4844    1.3980 H   0  0  0  0  0  0  0  0  0  0  0  0
  1  2  1  0
  2  3  2  0
  2  4  2  0
  2  5  1  0
  5  6  2  0
  6  7  1  0
  7  8  2  0
  8  9  1  0
  9 10  1  0
 10 11  2  0
 10 12  1  0
 12 13  1  0
 13 14  2  0
 14 15  1  0
 15 16  2  0
 16 17  1  0
 16 18  1  0
 18 19  2  0
  8 20  1  0
 20 21  2  0
 21  5  1  0
 19 13  1  0
  1 22  1  0
  1 23  1  0
  6 24  1  0
  7 25  1  0
  9 26  1  0
 12 27  1  0
 14 28  1  0
 15 29  1  0
 18 30  1  0
 19 31  1  0
 20 32  1  0
 21 33  1  0
M  END
$$$$
