
     RDKit          3D

 51 53  0  0  0  0  0  0  0  0999 V2000
   -1.2129    0.7933    2.2836 N   0  0  0  0  0  0  0  0  0  0  0  0
   -0.9877    1.9458    1.5816 C   0  0  0  0  0  0  0  0  0  0  0  0
   -0.6377    2.9679    2.1602 O   0  0  0  0  0  0  0  0  0  0  0  0
   -1.2443    1.8421    0.0705 C   0  0  1  0  0  0  0  0  0  0  0  0
   -1.0240    3.1771   -0.6616 C   0  0  0  0  0  0  0  0  0  0  0  0
   -2.2103    4.1303   -0.4794 C   0  0  0  0  0  0  0  0  0  0  0  0
   -1.9774    5.4530   -1.1777 C   0  0  0  0  0  0  0  0  0  0  0  0
   -0.8879    6.0818   -0.6903 F   0  0  0  0  0  0  0  0  0  0  0  0
   -3.0386    6.2716   -1.0068 F   0  0  0  0  0  0  0  0  0  0  0  0
   -1.8006    5.2807   -2.5040 F   0  0  0  0  0  0  0  0  0  0  0  0
   -0.3777    0.7296   -0.4684 N   0  0  0  0  0  0  0  0  0  0  0  0
    1.0547    1.0933   -0.6724 C   0  0  0  0  0  0  0  0  0  0  0  0
    2.0093   -0.0230   -0.3318 C   0  0  0  0  0  0  0  0  0  0  0  0
    2.0042   -0.6276    0.9312 C   0  0  0  0  0  0  0  0  0  0  0  0
    2.8955   -1.6660    1.2232 C   0  0  0  0  0  0  0  0  0  0  0  0
    3.8148   -2.1173    0.2632 C   0  0  0  0  0  0  0  0  0  0  0  0
    4.7298   -3.2085    0.5790 C   0  0  0  0  0  0  0  0  0  0  0  0
    4.7834   -3.7835    1.8330 N   0  0  0  0  0  0  0  0  0  0  0  0
    5.7064   -4.6978    1.6794 C   0  0  0  0  0  0  0  0  0  0  0  0
    6.2318   -4.7451    0.4317 O   0  0  0  0  0  0  0  0  0  0  0  0
    5.5837   -3.7542   -0.3034 N   0  0  0  0  0  0  0  0  0  0  0  0
    3.8334   -1.4974   -0.9911 C   0  0  0  0  0  0  0  0  0  0  0  0
    2.9451   -0.4616   -1.2719 C   0  0  0  0  0  0  0  0  0  0  0  0
    3.0072    0.1270   -2.4747 F   0  0  0  0  0  0  0  0  0  0  0  0
   -1.0791   -0.1753   -1.7358 S   0  0  0  0  0  6  0  0  0  0  0  0
   -0.1042   -1.0876   -2.2848 O   0  0  0  0  0  0  0  0  0  0  0  0
   -1.8258    0.7382   -2.5721 O   0  0  0  0  0  0  0  0  0  0  0  0
   -2.2455   -1.1744   -0.8329 C   0  0  0  0  0  0  0  0  0  0  0  0
   -1.7618   -2.2277   -0.0477 C   0  0  0  0  0  0  0  0  0  0  0  0
   -2.6610   -3.0175    0.6699 C   0  0  0  0  0  0  0  0  0  0  0  0
   -4.0298   -2.7562    0.5900 C   0  0  0  0  0  0  0  0  0  0  0  0
   -5.1352   -3.7281    1.4792 Cl  0  0  0  0  0  0  0  0  0  0  0  0
   -4.5102   -1.7156   -0.2070 C   0  0  0  0  0  0  0  0  0  0  0  0
   -3.6166   -0.9214   -0.9286 C   0  0  0  0  0  0  0  0  0  0  0  0
   -1.2280   -0.0973    1.8048 H   0  0  0  0  0  0  0  0  0  0  0  0
   -0.9739    0.8028    3.2673 H   0  0  0  0  0  0  0  0  0  0  0  0
   -2.2984    1.5536   -0.0231 H   0  0  0  0  0  0  0  0  0  0  0  0
   -0.1128    3.6706   -0.3018 H   0  0  0  0  0  0  0  0  0  0  0  0
   -0.8793    3.0054   -1.7344 H   0  0  0  0  0  0  0  0  0  0  0  0
   -2.3889    4.3176    0.5848 H   0  0  0  0  0  0  0  0  0  0  0  0
   -3.1188    3.6684   -0.8827 H   0  0  0  0  0  0  0  0  0  0  0  0
    1.3292    1.9347   -0.0256 H   0  0  0  0  0  0  0  0  0  0  0  0
    1.1954    1.4491   -1.7000 H   0  0  0  0  0  0  0  0  0  0  0  0
    1.3125   -0.2941    1.6996 H   0  0  0  0  0  0  0  0  0  0  0  0
    2.8689   -2.1228    2.2117 H   0  0  0  0  0  0  0  0  0  0  0  0
    6.0933   -5.4026    2.3993 H   0  0  0  0  0  0  0  0  0  0  0  0
    4.5326   -1.8052   -1.7639 H   0  0  0  0  0  0  0  0  0  0  0  0
   -0.6952   -2.4413   -0.0034 H   0  0  0  0  0  0  0  0  0  0  0  0
   -2.2929   -3.8399    1.2787 H   0  0  0  0  0  0  0  0  0  0  0  0
   -5.5785   -1.5250   -0.2755 H   0  0  0  0  0  0  0  0  0  0  0  0
   -3.9964   -0.1201   -1.5593 H   0  0  0  0  0  0  0  0  0  0  0  0
  1  2  1  0
  2  3  2  0
  2  4  1  0
  4  5  1  0
  5  6  1  0
  6  7  1  0
  7  8  1  0
  7  9  1  0
  7 10  1  0
  4 11  1  0
 11 12  1  0
 12 13  1  0
 13 14  2  0
 14 15  1  0
 15 16  2  0
 16 17  1  0
 17 18  1  0
 18 19  2  0
 19 20  1  0
 20 21  1  0
 16 22  1  0
 22 23  2  0
 23 24  1  0
 11 25  1  0
 25 26  2  0
 25 27  2  0
 25 28  1  0
 28 29  2  0
 29 30  1  0
 30 31  2  0
 31 32  1  0
 31 33  1  0
 33 34  2  0
 23 13  1  0
 34 28  1  0
 21 17  2  0
  1 35  1  0
  1 36  1  0
  4 37  1  1
  5 38  1  0
  5 39  1  0
  6 40  1  0
  6 41  1  0
 12 42  1  0
 12 43  1  0
 14 44  1  0
 15 45  1  0
 19 46  1  0
 22 47  1  0
 29 48  1  0
 30 49  1  0
 33 50  1  0
 34 51  1  0
M  END
$$$$
