
     RDKit          3D

 50 53  0  0  0  0  0  0  0  0999 V2000
    8.6139   -0.4735   -0.2256 C   0  0  0  0  0  0  0  0  0  0  0  0
    7.6039   -0.3570   -1.3559 C   0  0  0  0  0  0  0  0  0  0  0  0
    6.3098   -0.9027   -0.9983 N   0  0  0  0  0  0  0  0  0  0  0  0
    5.7327   -1.9958   -1.4957 C   0  0  0  0  0  0  0  0  0  0  0  0
    4.5532   -1.9788   -0.8026 C   0  0  0  0  0  0  0  0  0  0  0  0
    4.4354   -0.7571    0.2746 C   0  0  0  0  0  0  0  0  0  0  0  0
    3.3106   -1.4101    0.9261 C   0  0  0  0  0  0  0  0  0  0  0  0
    3.4116   -2.5117    1.4754 O   0  0  0  0  0  0  0  0  0  0  0  0
    2.0855   -0.7116    0.9559 N   0  0  0  0  0  0  0  0  0  0  0  0
    1.8349    0.5055    0.1693 C   0  0  0  0  0  0  0  0  0  0  0  0
    0.7705    1.3851    0.8162 C   0  0  0  0  0  0  0  0  0  0  0  0
   -0.3820    0.5795    1.1594 N   0  0  0  0  0  0  0  0  0  0  0  0
   -1.6182    1.1105    1.2207 N   0  0  0  0  0  0  0  0  0  0  0  0
   -2.3897    0.0681    1.6029 C   0  0  0  0  0  0  0  0  0  0  0  0
   -3.8440    0.1919    1.7838 C   0  0  0  0  0  0  0  0  0  0  0  0
   -4.5446   -0.7455    2.1544 O   0  0  0  0  0  0  0  0  0  0  0  0
   -4.3267    1.4376    1.4654 N   0  0  0  0  0  0  0  0  0  0  0  0
   -5.7357    1.6922    1.2978 C   0  0  0  0  0  0  0  0  0  0  0  0
   -6.1545    1.4541   -0.1341 C   0  0  0  0  0  0  0  0  0  0  0  0
   -6.5508    0.1730   -0.5490 C   0  0  0  0  0  0  0  0  0  0  0  0
   -6.9161   -0.0580   -1.8762 C   0  0  0  0  0  0  0  0  0  0  0  0
   -6.8824    0.9851   -2.8029 C   0  0  0  0  0  0  0  0  0  0  0  0
   -6.4812    2.2611   -2.4048 C   0  0  0  0  0  0  0  0  0  0  0  0
   -6.1126    2.4923   -1.0788 C   0  0  0  0  0  0  0  0  0  0  0  0
   -1.6110   -1.1102    1.7564 C   0  0  0  0  0  0  0  0  0  0  0  0
   -0.3209   -0.7485    1.4453 C   0  0  0  0  0  0  0  0  0  0  0  0
    0.9397   -1.5233    1.3716 C   0  0  0  0  0  0  0  0  0  0  0  0
    5.4647   -0.1456   -0.3211 N   0  0  0  0  0  0  0  0  0  0  0  0
    8.3184    0.1520    0.6239 H   0  0  0  0  0  0  0  0  0  0  0  0
    8.6984   -1.5093    0.1301 H   0  0  0  0  0  0  0  0  0  0  0  0
    9.6037   -0.1496   -0.5675 H   0  0  0  0  0  0  0  0  0  0  0  0
    7.9601   -0.8776   -2.2541 H   0  0  0  0  0  0  0  0  0  0  0  0
    7.4557    0.6951   -1.6416 H   0  0  0  0  0  0  0  0  0  0  0  0
    6.1748   -2.6639   -2.2228 H   0  0  0  0  0  0  0  0  0  0  0  0
    3.8203   -2.7792   -0.8917 H   0  0  0  0  0  0  0  0  0  0  0  0
    2.7558    1.0885    0.0427 H   0  0  0  0  0  0  0  0  0  0  0  0
    1.5075    0.1759   -0.8234 H   0  0  0  0  0  0  0  0  0  0  0  0
    0.4531    2.1895    0.1460 H   0  0  0  0  0  0  0  0  0  0  0  0
    1.1303    1.8208    1.7523 H   0  0  0  0  0  0  0  0  0  0  0  0
   -3.6413    2.0686    1.0578 H   0  0  0  0  0  0  0  0  0  0  0  0
   -6.3173    1.0579    1.9793 H   0  0  0  0  0  0  0  0  0  0  0  0
   -5.9131    2.7347    1.5882 H   0  0  0  0  0  0  0  0  0  0  0  0
   -6.5729   -0.6527    0.1655 H   0  0  0  0  0  0  0  0  0  0  0  0
   -7.2244   -1.0546   -2.1862 H   0  0  0  0  0  0  0  0  0  0  0  0
   -7.1647    0.8112   -3.8353 H   0  0  0  0  0  0  0  0  0  0  0  0
   -6.4526    3.0713   -3.1331 H   0  0  0  0  0  0  0  0  0  0  0  0
   -5.7966    3.4892   -0.7869 H   0  0  0  0  0  0  0  0  0  0  0  0
   -1.9762   -2.0861    2.0384 H   0  0  0  0  0  0  0  0  0  0  0  0
    0.8249   -2.3405    0.6418 H   0  0  0  0  0  0  0  0  0  0  0  0
    1.1601   -1.9777    2.3463 H   0  0  0  0  0  0  0  0  0  0  0  0
  1  2  1  0
  2  3  1  0
  3  4  1  0
  4  5  2  0
  5  6  1  0
  6  7  1  0
  7  8  2  0
  7  9  1  0
  9 10  1  0
 10 11  1  0
 11 12  1  0
 12 13  1  0
 13 14  2  0
 14 15  1  0
 15 16  2  0
 15 17  1  0
 17 18  1  0
 18 19  1  0
 19 20  2  0
 20 21  1  0
 21 22  2  0
 22 23  1  0
 23 24  2  0
 14 25  1  0
 25 26  2  0
 26 27  1  0
  6 28  2  0
 28  3  1  0
 27  9  1  0
 26 12  1  0
 24 19  1  0
  1 29  1  0
  1 30  1  0
  1 31  1  0
  2 32  1  0
  2 33  1  0
  4 34  1  0
  5 35  1  0
 10 36  1  0
 10 37  1  0
 11 38  1  0
 11 39  1  0
 17 40  1  0
 18 41  1  0
 18 42  1  0
 20 43  1  0
 21 44  1  0
 22 45  1  0
 23 46  1  0
 24 47  1  0
 25 48  1  0
 27 49  1  0
 27 50  1  0
M  END
$$$$
