
     RDKit          3D

 52 55  0  0  0  0  0  0  0  0999 V2000
   -2.0669   -2.3665   -2.4840 C   0  0  0  0  0  0  0  0  0  0  0  0
   -2.1698   -1.3728   -1.3702 C   0  0  0  0  0  0  0  0  0  0  0  0
   -1.1541   -0.7792   -0.7179 C   0  0  0  0  0  0  0  0  0  0  0  0
    0.1841   -0.9339   -0.9574 N   0  0  0  0  0  0  0  0  0  0  0  0
    1.2115   -0.6624   -0.0737 C   0  0  0  0  0  0  0  0  0  0  0  0
    1.0820   -0.4556    1.1223 O   0  0  0  0  0  0  0  0  0  0  0  0
    2.5628   -0.7870   -0.7503 C   0  0  0  0  0  0  0  0  0  0  0  0
    3.6617   -0.2855   -0.1531 C   0  0  0  0  0  0  0  0  0  0  0  0
    3.7770    0.4931    1.0835 C   0  0  0  0  0  0  0  0  0  0  0  0
    4.1083   -0.1253    2.2972 C   0  0  0  0  0  0  0  0  0  0  0  0
    4.2082    0.6276    3.4691 C   0  0  0  0  0  0  0  0  0  0  0  0
    3.9704    2.0005    3.4400 C   0  0  0  0  0  0  0  0  0  0  0  0
    3.6311    2.6233    2.2403 C   0  0  0  0  0  0  0  0  0  0  0  0
    3.5325    1.8741    1.0663 C   0  0  0  0  0  0  0  0  0  0  0  0
    5.2193   -0.4504   -0.8792 S   0  0  0  0  0  6  0  0  0  0  0  0
    5.5812    0.7940   -1.5364 O   0  0  0  0  0  0  0  0  0  0  0  0
    6.1482   -1.0990    0.0296 O   0  0  0  0  0  0  0  0  0  0  0  0
    4.9228   -1.6160   -2.1698 C   0  0  0  0  0  0  0  0  0  0  0  0
    3.6446   -1.2161   -2.8473 C   0  0  0  0  0  0  0  0  0  0  0  0
    2.5325   -1.4358   -1.9809 O   0  0  0  0  0  0  0  0  0  0  0  0
   -1.7944    0.1624    0.2637 C   0  0  0  0  0  0  0  0  0  0  0  0
   -1.2015    1.0210    0.8974 O   0  0  0  0  0  0  0  0  0  0  0  0
   -3.1828   -0.0450    0.1480 N   0  0  0  0  0  0  0  0  0  0  0  0
   -4.1737    0.9104    0.5056 C   0  0  0  0  0  0  0  0  0  0  0  0
   -5.3795    1.0146   -0.2057 C   0  0  0  0  0  0  0  0  0  0  0  0
   -6.3539    1.9505    0.1571 C   0  0  0  0  0  0  0  0  0  0  0  0
   -6.1372    2.7996    1.2380 C   0  0  0  0  0  0  0  0  0  0  0  0
   -4.9465    2.7142    1.9536 C   0  0  0  0  0  0  0  0  0  0  0  0
   -3.9734    1.7775    1.5887 C   0  0  0  0  0  0  0  0  0  0  0  0
   -3.4308   -1.0193   -0.8649 N   0  0  0  0  0  0  0  0  0  0  0  0
   -4.3257   -2.1037   -0.4193 C   0  0  0  0  0  0  0  0  0  0  0  0
   -1.0491   -2.4571   -2.8742 H   0  0  0  0  0  0  0  0  0  0  0  0
   -2.3815   -3.3597   -2.1477 H   0  0  0  0  0  0  0  0  0  0  0  0
   -2.7087   -2.0644   -3.3186 H   0  0  0  0  0  0  0  0  0  0  0  0
    0.4628   -1.3793   -1.8220 H   0  0  0  0  0  0  0  0  0  0  0  0
    4.2909   -1.1965    2.3430 H   0  0  0  0  0  0  0  0  0  0  0  0
    4.4646    0.1405    4.4062 H   0  0  0  0  0  0  0  0  0  0  0  0
    4.0409    2.5840    4.3540 H   0  0  0  0  0  0  0  0  0  0  0  0
    3.4346    3.6920    2.2196 H   0  0  0  0  0  0  0  0  0  0  0  0
    3.2616    2.3796    0.1421 H   0  0  0  0  0  0  0  0  0  0  0  0
    4.8496   -2.6094   -1.7153 H   0  0  0  0  0  0  0  0  0  0  0  0
    5.7757   -1.5861   -2.8527 H   0  0  0  0  0  0  0  0  0  0  0  0
    3.6420   -0.1738   -3.1886 H   0  0  0  0  0  0  0  0  0  0  0  0
    3.4862   -1.8442   -3.7303 H   0  0  0  0  0  0  0  0  0  0  0  0
   -5.5663    0.3902   -1.0747 H   0  0  0  0  0  0  0  0  0  0  0  0
   -7.2765    2.0211   -0.4131 H   0  0  0  0  0  0  0  0  0  0  0  0
   -6.8909    3.5299    1.5202 H   0  0  0  0  0  0  0  0  0  0  0  0
   -4.7676    3.3745    2.7990 H   0  0  0  0  0  0  0  0  0  0  0  0
   -3.0624    1.7305    2.1817 H   0  0  0  0  0  0  0  0  0  0  0  0
   -3.8333   -2.7285    0.3344 H   0  0  0  0  0  0  0  0  0  0  0  0
   -4.6079   -2.7338   -1.2691 H   0  0  0  0  0  0  0  0  0  0  0  0
   -5.2527   -1.7189    0.0160 H   0  0  0  0  0  0  0  0  0  0  0  0
  1  2  1  0
  2  3  2  0
  3  4  1  0
  4  5  1  0
  5  6  2  0
  5  7  1  0
  7  8  2  0
  8  9  1  0
  9 10  2  0
 10 11  1  0
 11 12  2  0
 12 13  1  0
 13 14  2  0
  8 15  1  0
 15 16  2  0
 15 17  2  0
 15 18  1  0
 18 19  1  0
 19 20  1  0
  3 21  1  0
 21 22  2  0
 21 23  1  0
 23 24  1  0
 24 25  2  0
 25 26  1  0
 26 27  2  0
 27 28  1  0
 28 29  2  0
 23 30  1  0
 30 31  1  0
 30  2  1  0
 20  7  1  0
 29 24  1  0
 14  9  1  0
  1 32  1  0
  1 33  1  0
  1 34  1  0
  4 35  1  0
 10 36  1  0
 11 37  1  0
 12 38  1  0
 13 39  1  0
 14 40  1  0
 18 41  1  0
 18 42  1  0
 19 43  1  0
 19 44  1  0
 25 45  1  0
 26 46  1  0
 27 47  1  0
 28 48  1  0
 29 49  1  0
 31 50  1  0
 31 51  1  0
 31 52  1  0
M  END
$$$$
