
     RDKit          3D

 63 66  0  0  0  0  0  0  0  0999 V2000
   -6.6753   -3.0268   -2.0416 C   0  0  0  0  0  0  0  0  0  0  0  0
   -5.6428   -2.0544   -1.9286 O   0  0  0  0  0  0  0  0  0  0  0  0
   -4.5460   -2.3913   -1.1807 C   0  0  0  0  0  0  0  0  0  0  0  0
   -4.3654   -3.5867   -0.4835 C   0  0  0  0  0  0  0  0  0  0  0  0
   -3.1889   -3.8019    0.2366 C   0  0  0  0  0  0  0  0  0  0  0  0
   -2.8845   -4.9224    0.9610 O   0  0  0  0  0  0  0  0  0  0  0  0
   -3.8556   -5.9608    0.9918 C   0  0  0  0  0  0  0  0  0  0  0  0
   -2.1979   -2.8150    0.2546 C   0  0  0  0  0  0  0  0  0  0  0  0
   -2.3566   -1.6030   -0.4311 C   0  0  0  0  0  0  0  0  0  0  0  0
   -1.3412   -0.6118   -0.4058 N   0  0  0  0  0  0  0  0  0  0  0  0
   -1.8181    0.7245    0.0210 C   0  0  0  0  0  0  0  0  0  0  0  0
   -1.6365    1.7805   -1.0929 C   0  0  0  0  0  0  0  0  0  0  0  0
   -2.1200    3.1308   -0.7611 N   0  0  0  0  0  0  0  0  0  0  0  0
   -1.3198    3.7954    0.2758 C   0  0  0  0  0  0  0  0  0  0  0  0
   -2.1222    3.9405    1.5715 C   0  0  0  0  0  0  0  0  0  0  0  0
   -0.9100    5.1719   -0.2449 C   0  0  0  0  0  0  0  0  0  0  0  0
    0.0461   -0.8492   -0.5417 C   0  0  0  0  0  0  0  0  0  0  0  0
    0.5035   -1.9450   -1.2891 C   0  0  0  0  0  0  0  0  0  0  0  0
    1.8683   -2.1991   -1.4592 C   0  0  0  0  0  0  0  0  0  0  0  0
    2.8240   -1.3711   -0.8992 C   0  0  0  0  0  0  0  0  0  0  0  0
    4.1308   -1.6359   -1.0853 N   0  0  0  0  0  0  0  0  0  0  0  0
    5.0036   -0.7723   -0.5115 C   0  0  0  0  0  0  0  0  0  0  0  0
    4.5996    0.3254    0.2312 C   0  0  0  0  0  0  0  0  0  0  0  0
    5.5258    1.2510    0.8531 C   0  0  0  0  0  0  0  0  0  0  0  0
    5.2537    2.4109    1.6149 C   0  0  0  0  0  0  0  0  0  0  0  0
    6.3624    3.0206    2.0459 N   0  0  0  0  0  0  0  0  0  0  0  0
    7.3514    2.2545    1.5573 N   0  0  0  0  0  0  0  0  0  0  0  0
    8.7229    2.6067    1.8341 C   0  0  0  0  0  0  0  0  0  0  0  0
    6.9056    1.1833    0.8347 C   0  0  0  0  0  0  0  0  0  0  0  0
    3.2840    0.5900    0.4199 N   0  0  0  0  0  0  0  0  0  0  0  0
    2.3976   -0.2557   -0.1447 C   0  0  0  0  0  0  0  0  0  0  0  0
    1.0332   -0.0220    0.0163 C   0  0  0  0  0  0  0  0  0  0  0  0
   -3.5466   -1.4125   -1.1484 C   0  0  0  0  0  0  0  0  0  0  0  0
   -6.3079   -3.9404   -2.5223 H   0  0  0  0  0  0  0  0  0  0  0  0
   -7.1199   -3.2443   -1.0642 H   0  0  0  0  0  0  0  0  0  0  0  0
   -7.4595   -2.6071   -2.6777 H   0  0  0  0  0  0  0  0  0  0  0  0
   -5.1353   -4.3461   -0.5033 H   0  0  0  0  0  0  0  0  0  0  0  0
   -3.4639   -6.7687    1.6184 H   0  0  0  0  0  0  0  0  0  0  0  0
   -4.0272   -6.3678   -0.0101 H   0  0  0  0  0  0  0  0  0  0  0  0
   -4.7905   -5.6133    1.4450 H   0  0  0  0  0  0  0  0  0  0  0  0
   -1.2942   -2.9948    0.8324 H   0  0  0  0  0  0  0  0  0  0  0  0
   -2.8809    0.7019    0.3003 H   0  0  0  0  0  0  0  0  0  0  0  0
   -1.3094    1.0255    0.9428 H   0  0  0  0  0  0  0  0  0  0  0  0
   -0.5885    1.8449   -1.4080 H   0  0  0  0  0  0  0  0  0  0  0  0
   -2.1841    1.4483   -1.9831 H   0  0  0  0  0  0  0  0  0  0  0  0
   -3.1012    3.0934   -0.4904 H   0  0  0  0  0  0  0  0  0  0  0  0
   -0.4042    3.2339    0.4944 H   0  0  0  0  0  0  0  0  0  0  0  0
   -2.9950    4.5884    1.4325 H   0  0  0  0  0  0  0  0  0  0  0  0
   -2.4791    2.9719    1.9342 H   0  0  0  0  0  0  0  0  0  0  0  0
   -1.4990    4.3810    2.3566 H   0  0  0  0  0  0  0  0  0  0  0  0
   -0.3084    5.0838   -1.1566 H   0  0  0  0  0  0  0  0  0  0  0  0
   -0.3074    5.7010    0.5024 H   0  0  0  0  0  0  0  0  0  0  0  0
   -1.7816    5.7962   -0.4728 H   0  0  0  0  0  0  0  0  0  0  0  0
   -0.2046   -2.6126   -1.7758 H   0  0  0  0  0  0  0  0  0  0  0  0
    2.1849   -3.0552   -2.0497 H   0  0  0  0  0  0  0  0  0  0  0  0
    6.0481   -1.0073   -0.6801 H   0  0  0  0  0  0  0  0  0  0  0  0
    4.2883    2.8285    1.8717 H   0  0  0  0  0  0  0  0  0  0  0  0
    8.8838    2.5362    2.9132 H   0  0  0  0  0  0  0  0  0  0  0  0
    9.3881    1.9158    1.3103 H   0  0  0  0  0  0  0  0  0  0  0  0
    8.8959    3.6282    1.4854 H   0  0  0  0  0  0  0  0  0  0  0  0
    7.6001    0.4858    0.3885 H   0  0  0  0  0  0  0  0  0  0  0  0
    0.7661    0.8439    0.6147 H   0  0  0  0  0  0  0  0  0  0  0  0
   -3.6988   -0.5002   -1.7192 H   0  0  0  0  0  0  0  0  0  0  0  0
  1  2  1  0
  2  3  1  0
  3  4  2  0
  4  5  1  0
  5  6  1  0
  6  7  1  0
  5  8  2  0
  8  9  1  0
  9 10  1  0
 10 11  1  0
 11 12  1  0
 12 13  1  0
 13 14  1  0
 14 15  1  0
 14 16  1  0
 10 17  1  0
 17 18  2  0
 18 19  1  0
 19 20  2  0
 20 21  1  0
 21 22  2  0
 22 23  1  0
 23 24  1  0
 24 25  1  0
 25 26  2  0
 26 27  1  0
 27 28  1  0
 27 29  1  0
 23 30  2  0
 30 31  1  0
 31 32  2  0
  9 33  2  0
 33  3  1  0
 32 17  1  0
 31 20  1  0
 29 24  2  0
  1 34  1  0
  1 35  1  0
  1 36  1  0
  4 37  1  0
  7 38  1  0
  7 39  1  0
  7 40  1  0
  8 41  1  0
 11 42  1  0
 11 43  1  0
 12 44  1  0
 12 45  1  0
 13 46  1  0
 14 47  1  0
 15 48  1  0
 15 49  1  0
 15 50  1  0
 16 51  1  0
 16 52  1  0
 16 53  1  0
 18 54  1  0
 19 55  1  0
 22 56  1  0
 25 57  1  0
 28 58  1  0
 28 59  1  0
 28 60  1  0
 29 61  1  0
 32 62  1  0
 33 63  1  0
M  END
$$$$
