
     RDKit          3D

 80 81  0  0  0  0  0  0  0  0999 V2000
   -6.0235   -1.1732    2.7732 C   0  0  0  0  0  0  0  0  0  0  0  0
   -4.9093   -0.4677    2.2303 O   0  0  0  0  0  0  0  0  0  0  0  0
   -4.0121   -1.2602    1.5242 C   0  0  0  0  0  0  0  0  0  0  0  0
   -3.5591   -0.8368    0.3293 C   0  0  0  0  0  0  0  0  0  0  0  0
   -4.0110    0.4451   -0.3319 C   0  0  0  0  0  0  0  0  0  0  0  0
   -3.0595    1.6645   -0.2077 C   0  0  1  0  0  0  0  0  0  0  0  0
   -2.6932    1.9646    1.2487 C   0  0  0  0  0  0  0  0  0  0  0  0
   -1.7974    1.5452   -1.1034 C   0  0  0  0  0  0  0  0  0  0  0  0
   -1.0416    2.8799   -1.2790 C   0  0  2  0  0  0  0  0  0  0  0  0
   -1.9981    3.8318   -1.8007 O   0  0  0  0  0  0  0  0  0  0  0  0
   -1.7839    5.1533   -1.3199 C   0  0  0  0  0  0  0  0  0  0  0  0
    0.1238    2.8125   -2.3040 C   0  0  2  0  0  0  0  0  0  0  0  0
   -0.3914    2.3483   -3.5626 O   0  0  0  0  0  0  0  0  0  0  0  0
    1.3708    1.9685   -1.9086 C   0  0  1  0  0  0  0  0  0  0  0  0
    2.4285    2.1366   -3.0128 C   0  0  0  0  0  0  0  0  0  0  0  0
    1.9416    2.3998   -0.5702 C   0  0  0  0  0  0  0  0  0  0  0  0
    2.6739    1.7096    0.3340 C   0  0  0  0  0  0  0  0  0  0  0  0
    3.0916    2.4019    1.6145 C   0  0  0  0  0  0  0  0  0  0  0  0
    3.2330    0.2838    0.2239 C   0  0  2  0  0  0  0  0  0  0  0  0
    4.0760    0.2329   -0.9509 O   0  0  0  0  0  0  0  0  0  0  0  0
    5.3720    0.5620   -0.7725 C   0  0  0  0  0  0  0  0  0  0  0  0
    6.0362    0.4475   -1.9446 N   0  0  0  0  0  0  0  0  0  0  0  0
    5.9064    0.9214    0.2630 O   0  0  0  0  0  0  0  0  0  0  0  0
    2.2085   -0.9001    0.1533 C   0  0  1  0  0  0  0  0  0  0  0  0
    2.8981   -2.1361    0.4030 O   0  0  0  0  0  0  0  0  0  0  0  0
    3.4896   -2.7212   -0.7506 C   0  0  0  0  0  0  0  0  0  0  0  0
    1.0867   -0.7657    1.1702 C   0  0  0  0  0  0  0  0  0  0  0  0
    0.5500   -1.6383    2.0391 C   0  0  0  0  0  0  0  0  0  0  0  0
    0.8347   -3.0406    2.2469 C   0  0  0  0  0  0  0  0  0  0  0  0
    0.6985   -4.0809    1.3976 C   0  0  0  0  0  0  0  0  0  0  0  0
    1.0760   -5.4770    1.8067 C   0  0  0  0  0  0  0  0  0  0  0  0
    0.2861   -3.9804   -0.0348 C   0  0  0  0  0  0  0  0  0  0  0  0
    0.9590   -4.5410   -0.9016 O   0  0  0  0  0  0  0  0  0  0  0  0
   -0.8247   -3.2886   -0.4125 N   0  0  0  0  0  0  0  0  0  0  0  0
   -1.8999   -2.7720    0.2696 C   0  0  0  0  0  0  0  0  0  0  0  0
   -2.3510   -3.1843    1.4553 C   0  0  0  0  0  0  0  0  0  0  0  0
   -3.4838   -2.5270    2.1277 C   0  0  0  0  0  0  0  0  0  0  0  0
   -3.9164   -3.0087    3.1682 O   0  0  0  0  0  0  0  0  0  0  0  0
   -2.6220   -1.6837   -0.4489 C   0  0  0  0  0  0  0  0  0  0  0  0
   -2.4068   -1.4900   -1.6416 O   0  0  0  0  0  0  0  0  0  0  0  0
   -6.3705   -1.9692    2.1060 H   0  0  0  0  0  0  0  0  0  0  0  0
   -5.7823   -1.5661    3.7640 H   0  0  0  0  0  0  0  0  0  0  0  0
   -6.8412   -0.4568    2.8940 H   0  0  0  0  0  0  0  0  0  0  0  0
   -4.2233    0.2581   -1.3927 H   0  0  0  0  0  0  0  0  0  0  0  0
   -4.9834    0.7439    0.0833 H   0  0  0  0  0  0  0  0  0  0  0  0
   -3.6487    2.5178   -0.5690 H   0  0  0  0  0  0  0  0  0  0  0  0
   -2.0235    1.2027    1.6614 H   0  0  0  0  0  0  0  0  0  0  0  0
   -3.5909    2.0110    1.8732 H   0  0  0  0  0  0  0  0  0  0  0  0
   -2.1930    2.9336    1.3402 H   0  0  0  0  0  0  0  0  0  0  0  0
   -1.1153    0.7902   -0.6984 H   0  0  0  0  0  0  0  0  0  0  0  0
   -2.1258    1.1968   -2.0896 H   0  0  0  0  0  0  0  0  0  0  0  0
   -0.6743    3.2228   -0.3063 H   0  0  0  0  0  0  0  0  0  0  0  0
   -1.9703    5.1968   -0.2433 H   0  0  0  0  0  0  0  0  0  0  0  0
   -0.7692    5.4948   -1.5378 H   0  0  0  0  0  0  0  0  0  0  0  0
   -2.4909    5.8173   -1.8219 H   0  0  0  0  0  0  0  0  0  0  0  0
    0.4611    3.8391   -2.4985 H   0  0  0  0  0  0  0  0  0  0  0  0
   -1.2279    2.8373   -3.6980 H   0  0  0  0  0  0  0  0  0  0  0  0
    1.0804    0.9137   -1.8786 H   0  0  0  0  0  0  0  0  0  0  0  0
    2.7447    3.1818   -3.1049 H   0  0  0  0  0  0  0  0  0  0  0  0
    3.3209    1.5411   -2.8215 H   0  0  0  0  0  0  0  0  0  0  0  0
    2.0410    1.8158   -3.9853 H   0  0  0  0  0  0  0  0  0  0  0  0
    1.7318    3.4438   -0.3286 H   0  0  0  0  0  0  0  0  0  0  0  0
    4.1820    2.4860    1.6671 H   0  0  0  0  0  0  0  0  0  0  0  0
    2.6776    3.4124    1.7007 H   0  0  0  0  0  0  0  0  0  0  0  0
    2.7424    1.8321    2.4828 H   0  0  0  0  0  0  0  0  0  0  0  0
    3.8587    0.0770    1.1044 H   0  0  0  0  0  0  0  0  0  0  0  0
    5.5239    0.2517   -2.7903 H   0  0  0  0  0  0  0  0  0  0  0  0
    6.9979    0.7480   -1.9844 H   0  0  0  0  0  0  0  0  0  0  0  0
    1.7480   -0.9406   -0.8411 H   0  0  0  0  0  0  0  0  0  0  0  0
    2.8073   -2.7116   -1.6058 H   0  0  0  0  0  0  0  0  0  0  0  0
    3.7348   -3.7605   -0.5147 H   0  0  0  0  0  0  0  0  0  0  0  0
    4.4205   -2.2131   -1.0055 H   0  0  0  0  0  0  0  0  0  0  0  0
    0.6520    0.2321    1.2019 H   0  0  0  0  0  0  0  0  0  0  0  0
   -0.2008   -1.2513    2.7303 H   0  0  0  0  0  0  0  0  0  0  0  0
    1.1660   -3.2528    3.2641 H   0  0  0  0  0  0  0  0  0  0  0  0
    0.2521   -6.1684    1.6044 H   0  0  0  0  0  0  0  0  0  0  0  0
    1.9581   -5.8154    1.2554 H   0  0  0  0  0  0  0  0  0  0  0  0
    1.3059   -5.5447    2.8752 H   0  0  0  0  0  0  0  0  0  0  0  0
   -0.8067   -3.0635   -1.4069 H   0  0  0  0  0  0  0  0  0  0  0  0
   -1.9250   -4.0193    1.9948 H   0  0  0  0  0  0  0  0  0  0  0  0
  1  2  1  0
  2  3  1  0
  3  4  2  0
  4  5  1  0
  5  6  1  0
  6  7  1  0
  6  8  1  0
  8  9  1  0
  9 10  1  0
 10 11  1  0
  9 12  1  0
 12 13  1  0
 12 14  1  0
 14 15  1  0
 14 16  1  0
 16 17  2  0
 17 18  1  0
 17 19  1  0
 19 20  1  0
 20 21  1  0
 21 22  1  0
 21 23  2  0
 19 24  1  0
 24 25  1  0
 25 26  1  0
 24 27  1  0
 27 28  2  0
 28 29  1  0
 29 30  2  0
 30 31  1  0
 30 32  1  0
 32 33  2  0
 32 34  1  0
 34 35  1  0
 35 36  2  0
 36 37  1  0
 37 38  2  0
 35 39  1  0
 39 40  2  0
 37  3  1  0
 39  4  1  0
  1 41  1  0
  1 42  1  0
  1 43  1  0
  5 44  1  0
  5 45  1  0
  6 46  1  6
  7 47  1  0
  7 48  1  0
  7 49  1  0
  8 50  1  0
  8 51  1  0
  9 52  1  1
 11 53  1  0
 11 54  1  0
 11 55  1  0
 12 56  1  6
 13 57  1  0
 14 58  1  1
 15 59  1  0
 15 60  1  0
 15 61  1  0
 16 62  1  0
 18 63  1  0
 18 64  1  0
 18 65  1  0
 19 66  1  1
 22 67  1  0
 22 68  1  0
 24 69  1  6
 26 70  1  0
 26 71  1  0
 26 72  1  0
 27 73  1  0
 28 74  1  0
 29 75  1  0
 31 76  1  0
 31 77  1  0
 31 78  1  0
 34 79  1  0
 36 80  1  0
M  END
$$$$
