
     RDKit          3D

 41 45  0  0  0  0  0  0  0  0999 V2000
    2.1212   -3.2498   -0.8544 N   0  0  0  0  0  0  0  0  0  0  0  0
    0.7544   -3.0470   -0.9759 C   0  0  0  0  0  0  0  0  0  0  0  0
    0.0384   -4.0778   -1.4710 N   0  0  0  0  0  0  0  0  0  0  0  0
   -1.2889   -3.9219   -1.6365 C   0  0  0  0  0  0  0  0  0  0  0  0
   -2.0293   -2.8330   -1.3790 N   0  0  0  0  0  0  0  0  0  0  0  0
   -1.2773   -1.8341   -0.8844 C   0  0  0  0  0  0  0  0  0  0  0  0
    0.0862   -1.8617   -0.6427 C   0  0  0  0  0  0  0  0  0  0  0  0
    0.3856   -0.5769   -0.0979 C   0  0  0  0  0  0  0  0  0  0  0  0
    1.6647   -0.0604    0.3724 C   0  0  0  0  0  0  0  0  0  0  0  0
    2.4755   -0.8012    1.2333 C   0  0  0  0  0  0  0  0  0  0  0  0
    3.6899   -0.4255    1.7118 N   0  0  0  0  0  0  0  0  0  0  0  0
    4.0568    0.7975    1.2885 C   0  0  0  0  0  0  0  0  0  0  0  0
    5.2272    1.4166    1.6321 N   0  0  0  0  0  0  0  0  0  0  0  0
    5.2922    2.6511    1.0367 C   0  0  0  0  0  0  0  0  0  0  0  0
    4.1387    2.8255    0.2999 C   0  0  0  0  0  0  0  0  0  0  0  0
    3.3489    1.6538    0.4527 C   0  0  0  0  0  0  0  0  0  0  0  0
    2.1036    1.2110   -0.0217 C   0  0  0  0  0  0  0  0  0  0  0  0
   -0.7083    0.2052   -0.0610 N   0  0  0  0  0  0  0  0  0  0  0  0
   -1.7016   -0.5852   -0.5234 N   0  0  0  0  0  0  0  0  0  0  0  0
   -3.0647   -0.0851   -0.5952 C   0  0  0  0  0  0  0  0  0  0  0  0
   -3.6762    0.1479    0.7977 C   0  0  0  0  0  0  0  0  0  0  0  0
   -4.3296    1.5226    0.7297 C   0  0  0  0  0  0  0  0  0  0  0  0
   -3.4641    2.2862   -0.2571 C   0  0  0  0  0  0  0  0  0  0  0  0
   -3.1837    1.2551   -1.3414 C   0  0  0  0  0  0  0  0  0  0  0  0
    2.4001   -4.0797   -1.3676 H   0  0  0  0  0  0  0  0  0  0  0  0
    2.7002   -2.4342   -1.0111 H   0  0  0  0  0  0  0  0  0  0  0  0
   -1.8222   -4.7816   -2.0313 H   0  0  0  0  0  0  0  0  0  0  0  0
    2.1553   -1.7795    1.5895 H   0  0  0  0  0  0  0  0  0  0  0  0
    5.9192    1.0039    2.2400 H   0  0  0  0  0  0  0  0  0  0  0  0
    6.1471    3.2958    1.1913 H   0  0  0  0  0  0  0  0  0  0  0  0
    3.8898    3.7020   -0.2841 H   0  0  0  0  0  0  0  0  0  0  0  0
    1.4997    1.8370   -0.6717 H   0  0  0  0  0  0  0  0  0  0  0  0
   -3.6543   -0.8356   -1.1353 H   0  0  0  0  0  0  0  0  0  0  0  0
   -4.4094   -0.6259    1.0491 H   0  0  0  0  0  0  0  0  0  0  0  0
   -2.9146    0.1381    1.5868 H   0  0  0  0  0  0  0  0  0  0  0  0
   -4.3751    2.0086    1.7085 H   0  0  0  0  0  0  0  0  0  0  0  0
   -5.3527    1.4336    0.3455 H   0  0  0  0  0  0  0  0  0  0  0  0
   -3.9667    3.1745   -0.6504 H   0  0  0  0  0  0  0  0  0  0  0  0
   -2.5296    2.6031    0.2202 H   0  0  0  0  0  0  0  0  0  0  0  0
   -2.3042    1.5150   -1.9392 H   0  0  0  0  0  0  0  0  0  0  0  0
   -4.0423    1.2118   -2.0235 H   0  0  0  0  0  0  0  0  0  0  0  0
  1  2  1  0
  2  3  2  0
  3  4  1  0
  4  5  2  0
  5  6  1  0
  6  7  2  0
  7  8  1  0
  8  9  1  0
  9 10  2  0
 10 11  1  0
 11 12  2  0
 12 13  1  0
 13 14  1  0
 14 15  2  0
 15 16  1  0
 16 17  2  0
  8 18  2  0
 18 19  1  0
 19 20  1  0
 20 21  1  0
 21 22  1  0
 22 23  1  0
 23 24  1  0
  7  2  1  0
 17  9  1  0
 24 20  1  0
 19  6  1  0
 16 12  1  0
  1 25  1  0
  1 26  1  0
  4 27  1  0
 10 28  1  0
 13 29  1  0
 14 30  1  0
 15 31  1  0
 17 32  1  0
 20 33  1  0
 21 34  1  0
 21 35  1  0
 22 36  1  0
 22 37  1  0
 23 38  1  0
 23 39  1  0
 24 40  1  0
 24 41  1  0
M  END
$$$$
