
     RDKit          3D

 67 67  0  0  0  0  0  0  0  0999 V2000
    8.0979    1.9701    1.3936 C   0  0  0  0  0  0  0  0  0  0  0  0
    6.8080    1.6690    1.6003 C   0  0  0  0  0  0  0  0  0  0  0  0
    5.9341    0.9398    0.6176 C   0  0  0  0  0  0  0  0  0  0  0  0
    4.8105    1.7648    0.1592 N   0  0  0  0  0  0  0  0  0  0  0  0
    3.7683    1.9058    1.1750 C   0  0  0  0  0  0  0  0  0  0  0  0
    4.2667    1.3030   -1.1272 C   0  0  0  0  0  0  0  0  0  0  0  0
    3.6875   -0.1208   -1.1517 C   0  0  0  0  0  0  0  0  0  0  0  0
    3.1308   -0.4603   -2.5383 C   0  0  0  0  0  0  0  0  0  0  0  0
    2.6604   -1.9122   -2.6700 C   0  0  0  0  0  0  0  0  0  0  0  0
    1.5759   -2.3534   -1.6864 C   0  0  0  0  0  0  0  0  0  0  0  0
    0.2923   -1.5309   -1.7706 C   0  0  0  0  0  0  0  0  0  0  0  0
   -0.6482   -2.1030   -0.8591 O   0  0  0  0  0  0  0  0  0  0  0  0
   -1.8634   -1.4883   -0.7449 C   0  0  0  0  0  0  0  0  0  0  0  0
   -2.2909   -0.3723   -1.4673 C   0  0  0  0  0  0  0  0  0  0  0  0
   -3.5655    0.1628   -1.2450 C   0  0  0  0  0  0  0  0  0  0  0  0
   -4.4135   -0.4085   -0.2894 C   0  0  0  0  0  0  0  0  0  0  0  0
   -5.7542    0.1803   -0.0893 C   0  0  0  0  0  0  0  0  0  0  0  0
   -6.3607    0.6057   -1.0704 O   0  0  0  0  0  0  0  0  0  0  0  0
   -6.3742    0.3008    1.2554 C   0  0  0  0  0  0  0  0  0  0  0  0
   -7.7713    0.2476    1.3504 C   0  0  0  0  0  0  0  0  0  0  0  0
   -8.3975    0.3815    2.5918 C   0  0  0  0  0  0  0  0  0  0  0  0
   -7.6258    0.5806    3.7355 C   0  0  0  0  0  0  0  0  0  0  0  0
   -8.4706    0.7644    5.4164 Br  0  0  0  0  0  0  0  0  0  0  0  0
   -6.2355    0.6540    3.6491 C   0  0  0  0  0  0  0  0  0  0  0  0
   -5.6073    0.5209    2.4071 C   0  0  0  0  0  0  0  0  0  0  0  0
   -3.9911   -1.5382    0.4064 C   0  0  0  0  0  0  0  0  0  0  0  0
   -4.7952   -2.1481    1.2888 F   0  0  0  0  0  0  0  0  0  0  0  0
   -2.7238   -2.0719    0.1879 C   0  0  0  0  0  0  0  0  0  0  0  0
   -2.7265   -1.3839    0.1777 O   0  0  0  0  0  0  0  0  0  0  0  0
   -1.9036   -0.5181   -0.0563 C   0  0  0  0  0  0  0  0  0  0  0  0
   -2.2557    0.6655   -0.5800 O   0  0  0  0  0  0  0  0  0  0  0  0
   -0.4667   -0.6508    0.1957 C   0  0  0  0  0  0  0  0  0  0  0  0
    0.4148    0.3214   -0.0722 C   0  0  0  0  0  0  0  0  0  0  0  0
    1.8321    0.0947    0.2160 C   0  0  0  0  0  0  0  0  0  0  0  0
    2.3375   -0.9050    0.6872 O   0  0  0  0  0  0  0  0  0  0  0  0
    2.5517    1.1764   -0.1175 O   0  0  0  0  0  0  0  0  0  0  0  0
    8.6722    2.4963    2.1495 H   0  0  0  0  0  0  0  0  0  0  0  0
    8.6020    1.7135    0.4671 H   0  0  0  0  0  0  0  0  0  0  0  0
    6.3566    1.9514    2.5475 H   0  0  0  0  0  0  0  0  0  0  0  0
    6.5529    0.6484   -0.2416 H   0  0  0  0  0  0  0  0  0  0  0  0
    5.5829    0.0073    1.0766 H   0  0  0  0  0  0  0  0  0  0  0  0
    4.1434    2.4420    2.0526 H   0  0  0  0  0  0  0  0  0  0  0  0
    2.9327    2.5035    0.7926 H   0  0  0  0  0  0  0  0  0  0  0  0
    3.3736    0.9409    1.5116 H   0  0  0  0  0  0  0  0  0  0  0  0
    5.0584    1.3798   -1.8840 H   0  0  0  0  0  0  0  0  0  0  0  0
    3.4947    2.0115   -1.4551 H   0  0  0  0  0  0  0  0  0  0  0  0
    4.4625   -0.8496   -0.8885 H   0  0  0  0  0  0  0  0  0  0  0  0
    2.8880   -0.2079   -0.4092 H   0  0  0  0  0  0  0  0  0  0  0  0
    3.9105   -0.2888   -3.2914 H   0  0  0  0  0  0  0  0  0  0  0  0
    2.3101    0.2231   -2.7856 H   0  0  0  0  0  0  0  0  0  0  0  0
    2.2954   -2.0658   -3.6933 H   0  0  0  0  0  0  0  0  0  0  0  0
    3.5256   -2.5762   -2.5503 H   0  0  0  0  0  0  0  0  0  0  0  0
    1.9571   -2.3346   -0.6583 H   0  0  0  0  0  0  0  0  0  0  0  0
    1.3339   -3.4067   -1.8794 H   0  0  0  0  0  0  0  0  0  0  0  0
    0.4956   -0.4928   -1.4853 H   0  0  0  0  0  0  0  0  0  0  0  0
   -0.1035   -1.5727   -2.7921 H   0  0  0  0  0  0  0  0  0  0  0  0
   -1.6632    0.1030   -2.2148 H   0  0  0  0  0  0  0  0  0  0  0  0
   -3.8962    1.0263   -1.8202 H   0  0  0  0  0  0  0  0  0  0  0  0
   -8.3749    0.1014    0.4561 H   0  0  0  0  0  0  0  0  0  0  0  0
   -9.4818    0.3329    2.6524 H   0  0  0  0  0  0  0  0  0  0  0  0
   -5.6338    0.8192    4.5397 H   0  0  0  0  0  0  0  0  0  0  0  0
   -4.5251    0.6025    2.3569 H   0  0  0  0  0  0  0  0  0  0  0  0
   -2.4134   -2.9512    0.7448 H   0  0  0  0  0  0  0  0  0  0  0  0
   -3.2277    0.5943   -0.6852 H   0  0  0  0  0  0  0  0  0  0  0  0
   -0.1632   -1.6027    0.6198 H   0  0  0  0  0  0  0  0  0  0  0  0
    0.1346    1.2780   -0.4952 H   0  0  0  0  0  0  0  0  0  0  0  0
    3.4727    0.9302    0.1099 H   0  0  0  0  0  0  0  0  0  0  0  0
  1  2  2  3
  2  3  1  0
  3  4  1  0
  4  5  1  0
  4  6  1  0
  6  7  1  0
  7  8  1  0
  8  9  1  0
  9 10  1  0
 10 11  1  0
 11 12  1  0
 12 13  1  0
 13 14  2  0
 14 15  1  0
 15 16  2  0
 16 17  1  0
 17 18  2  0
 17 19  1  0
 19 20  2  0
 20 21  1  0
 21 22  2  0
 22 23  1  0
 22 24  1  0
 24 25  2  0
 16 26  1  0
 26 27  1  0
 26 28  2  0
 29 30  2  0
 30 31  1  0
 30 32  1  0
 32 33  2  0
 33 34  1  0
 34 35  2  0
 34 36  1  0
 28 13  1  0
 25 19  1  0
  1 37  1  0
  1 38  1  0
  2 39  1  0
  3 40  1  0
  3 41  1  0
  5 42  1  0
  5 43  1  0
  5 44  1  0
  6 45  1  0
  6 46  1  0
  7 47  1  0
  7 48  1  0
  8 49  1  0
  8 50  1  0
  9 51  1  0
  9 52  1  0
 10 53  1  0
 10 54  1  0
 11 55  1  0
 11 56  1  0
 14 57  1  0
 15 58  1  0
 20 59  1  0
 21 60  1  0
 24 61  1  0
 25 62  1  0
 28 63  1  0
 31 64  1  0
 32 65  1  0
 33 66  1  0
 36 67  1  0
M  END
$$$$
