
     RDKit          3D

 38 39  0  0  0  0  0  0  0  0999 V2000
    0.6915    0.6504   -0.7499 O   0  0  0  0  0  0  0  0  0  0  0  0
    1.0245   -0.4694   -0.3741 C   0  0  0  0  0  0  0  0  0  0  0  0
    2.2196   -1.0491   -0.7489 N   0  0  0  0  0  0  0  0  0  0  0  0
    3.1286   -0.3748   -1.6579 C   0  0  0  0  0  0  0  0  0  0  0  0
    3.8694    0.8198   -1.0330 C   0  0  2  0  0  0  0  0  0  0  0  0
    4.6468    1.4741   -2.0507 O   0  0  0  0  0  0  0  0  0  0  0  0
    4.8347    0.3905    0.0766 C   0  0  0  0  0  0  0  0  0  0  0  0
    5.8562   -0.4550   -0.4541 O   0  0  0  0  0  0  0  0  0  0  0  0
    0.1143   -1.2856    0.4831 C   0  0  0  0  0  0  0  0  0  0  0  0
    0.6575   -2.2549    1.3388 C   0  0  0  0  0  0  0  0  0  0  0  0
   -0.2063   -3.0229    2.0947 C   0  0  0  0  0  0  0  0  0  0  0  0
   -1.5436   -2.8984    2.0440 N   0  0  0  0  0  0  0  0  0  0  0  0
   -2.0399   -1.9379    1.2242 C   0  0  0  0  0  0  0  0  0  0  0  0
   -1.2789   -1.0663    0.4466 C   0  0  0  0  0  0  0  0  0  0  0  0
   -1.8584   -0.0708   -0.3662 N   0  0  0  0  0  0  0  0  0  0  0  0
   -3.0411    0.6915   -0.2474 C   0  0  0  0  0  0  0  0  0  0  0  0
   -3.8163    0.7569    0.9147 C   0  0  0  0  0  0  0  0  0  0  0  0
   -5.0038    1.5008    0.9465 C   0  0  0  0  0  0  0  0  0  0  0  0
   -5.4314    2.1858   -0.1906 C   0  0  0  0  0  0  0  0  0  0  0  0
   -7.1922    3.2854   -0.1357 I   0  0  0  0  0  0  0  0  0  0  0  0
   -4.6798    2.1391   -1.3586 C   0  0  0  0  0  0  0  0  0  0  0  0
   -3.5015    1.3969   -1.3745 C   0  0  0  0  0  0  0  0  0  0  0  0
   -2.7867    1.3606   -2.5109 F   0  0  0  0  0  0  0  0  0  0  0  0
    2.3667   -2.0398   -0.6064 H   0  0  0  0  0  0  0  0  0  0  0  0
    3.8384   -1.1203   -2.0339 H   0  0  0  0  0  0  0  0  0  0  0  0
    2.5529   -0.0344   -2.5274 H   0  0  0  0  0  0  0  0  0  0  0  0
    3.1644    1.5527   -0.6266 H   0  0  0  0  0  0  0  0  0  0  0  0
    4.0105    1.9101   -2.6471 H   0  0  0  0  0  0  0  0  0  0  0  0
    5.3332    1.2658    0.5062 H   0  0  0  0  0  0  0  0  0  0  0  0
    4.3204   -0.1445    0.8801 H   0  0  0  0  0  0  0  0  0  0  0  0
    6.2047    0.0347   -1.2264 H   0  0  0  0  0  0  0  0  0  0  0  0
    1.7259   -2.4044    1.4423 H   0  0  0  0  0  0  0  0  0  0  0  0
    0.1645   -3.7835    2.7765 H   0  0  0  0  0  0  0  0  0  0  0  0
   -3.1256   -1.9124    1.1952 H   0  0  0  0  0  0  0  0  0  0  0  0
   -1.1612    0.4387   -0.9265 H   0  0  0  0  0  0  0  0  0  0  0  0
   -3.4970    0.2691    1.8308 H   0  0  0  0  0  0  0  0  0  0  0  0
   -5.5773    1.5390    1.8701 H   0  0  0  0  0  0  0  0  0  0  0  0
   -4.9839    2.6624   -2.2590 H   0  0  0  0  0  0  0  0  0  0  0  0
  1  2  2  0
  2  3  1  0
  3  4  1  0
  4  5  1  0
  5  6  1  0
  5  7  1  0
  7  8  1  0
  2  9  1  0
  9 10  2  0
 10 11  1  0
 11 12  2  0
 12 13  1  0
 13 14  2  0
 14 15  1  0
 15 16  1  0
 16 17  2  0
 17 18  1  0
 18 19  2  0
 19 20  1  0
 19 21  1  0
 21 22  2  0
 22 23  1  0
 14  9  1  0
 22 16  1  0
  3 24  1  0
  4 25  1  0
  4 26  1  0
  5 27  1  1
  6 28  1  0
  7 29  1  0
  7 30  1  0
  8 31  1  0
 10 32  1  0
 11 33  1  0
 13 34  1  0
 15 35  1  0
 17 36  1  0
 18 37  1  0
 21 38  1  0
M  END
$$$$
