
     RDKit          3D

 68 71  0  0  0  0  0  0  0  0999 V2000
   -5.8971   -4.4453   -1.0607 C   0  0  0  0  0  0  0  0  0  0  0  0
   -5.2792   -3.2498   -0.3977 C   0  0  0  0  0  0  0  0  0  0  0  0
   -5.7165   -1.9613   -0.7099 C   0  0  0  0  0  0  0  0  0  0  0  0
   -5.1391   -0.8202   -0.1190 C   0  0  0  0  0  0  0  0  0  0  0  0
   -5.7145    0.5109   -0.5256 C   0  0  0  0  0  0  0  0  0  0  0  0
   -4.0726   -0.9893    0.7987 C   0  0  0  0  0  0  0  0  0  0  0  0
   -3.2882    0.4291    1.5938 S   0  0  0  0  0  6  0  0  0  0  0  0
   -3.2007    0.1302    3.0104 O   0  0  0  0  0  0  0  0  0  0  0  0
   -3.9194    1.6616    1.1815 O   0  0  0  0  0  0  0  0  0  0  0  0
   -1.7021    0.4355    0.9726 N   0  0  0  0  0  0  0  0  0  0  0  0
   -0.8144    1.3912    1.6866 C   0  0  0  0  0  0  0  0  0  0  0  0
    0.6600    1.0787    1.5383 C   0  0  0  0  0  0  0  0  0  0  0  0
    1.5436    2.0232    1.0028 C   0  0  0  0  0  0  0  0  0  0  0  0
    2.9076    1.7358    0.8910 C   0  0  0  0  0  0  0  0  0  0  0  0
    3.4228    0.5064    1.3242 C   0  0  0  0  0  0  0  0  0  0  0  0
    4.8575    0.2159    1.2286 C   0  0  0  0  0  0  0  0  0  0  0  0
    5.6405    0.0773    2.3892 C   0  0  0  0  0  0  0  0  0  0  0  0
    7.0100   -0.1897    2.3073 C   0  0  0  0  0  0  0  0  0  0  0  0
    7.6179   -0.3367    1.0620 C   0  0  0  0  0  0  0  0  0  0  0  0
    6.8445   -0.2201   -0.0954 C   0  0  0  0  0  0  0  0  0  0  0  0
    7.6070   -0.4151   -1.6880 S   0  0  0  0  0  6  0  0  0  0  0  0
    7.3341   -2.1300   -2.0556 C   0  0  0  0  0  0  0  0  0  0  0  0
    6.8474    0.3775   -2.6372 O   0  0  0  0  0  0  0  0  0  0  0  0
    9.0333   -0.2103   -1.5216 O   0  0  0  0  0  0  0  0  0  0  0  0
    5.4784    0.0706   -0.0215 C   0  0  0  0  0  0  0  0  0  0  0  0
    2.5348   -0.4317    1.8675 C   0  0  0  0  0  0  0  0  0  0  0  0
    1.1698   -0.1503    1.9739 C   0  0  0  0  0  0  0  0  0  0  0  0
   -1.5387    0.3915   -0.5038 C   0  0  0  0  0  0  0  0  0  0  0  0
   -1.4667    1.7171   -1.1784 C   0  0  0  0  0  0  0  0  0  0  0  0
   -0.4955    2.3384   -1.9384 C   0  0  0  0  0  0  0  0  0  0  0  0
   -1.0297    3.5914   -2.3267 C   0  0  0  0  0  0  0  0  0  0  0  0
   -2.3007    3.6621   -1.7870 C   0  0  0  0  0  0  0  0  0  0  0  0
   -3.3637    4.6993   -1.8116 C   0  0  0  0  0  0  0  0  0  0  0  0
   -4.5552    4.2110   -2.2436 F   0  0  0  0  0  0  0  0  0  0  0  0
   -3.0405    5.7231   -2.6500 F   0  0  0  0  0  0  0  0  0  0  0  0
   -3.5723    5.2556   -0.5905 F   0  0  0  0  0  0  0  0  0  0  0  0
   -2.5701    2.5107   -1.1048 O   0  0  0  0  0  0  0  0  0  0  0  0
   -3.6088   -2.2948    1.1097 C   0  0  0  0  0  0  0  0  0  0  0  0
   -2.4927   -2.5816    2.0770 C   0  0  0  0  0  0  0  0  0  0  0  0
   -4.2250   -3.4042    0.5015 C   0  0  0  0  0  0  0  0  0  0  0  0
   -5.8842   -5.3121   -0.3917 H   0  0  0  0  0  0  0  0  0  0  0  0
   -6.9434   -4.2546   -1.3226 H   0  0  0  0  0  0  0  0  0  0  0  0
   -5.3447   -4.6940   -1.9734 H   0  0  0  0  0  0  0  0  0  0  0  0
   -6.5333   -1.8440   -1.4225 H   0  0  0  0  0  0  0  0  0  0  0  0
   -6.5463    0.3955   -1.2298 H   0  0  0  0  0  0  0  0  0  0  0  0
   -4.9596    1.1160   -1.0350 H   0  0  0  0  0  0  0  0  0  0  0  0
   -6.1224    1.0353    0.3439 H   0  0  0  0  0  0  0  0  0  0  0  0
   -1.0196    1.3656    2.7642 H   0  0  0  0  0  0  0  0  0  0  0  0
   -1.0261    2.4176    1.3650 H   0  0  0  0  0  0  0  0  0  0  0  0
    1.1799    2.9958    0.6753 H   0  0  0  0  0  0  0  0  0  0  0  0
    3.5750    2.4913    0.4799 H   0  0  0  0  0  0  0  0  0  0  0  0
    5.1852    0.1970    3.3728 H   0  0  0  0  0  0  0  0  0  0  0  0
    7.6000   -0.2744    3.2182 H   0  0  0  0  0  0  0  0  0  0  0  0
    8.6862   -0.5328    1.0025 H   0  0  0  0  0  0  0  0  0  0  0  0
    7.8176   -2.3522   -3.0098 H   0  0  0  0  0  0  0  0  0  0  0  0
    7.7733   -2.7426   -1.2657 H   0  0  0  0  0  0  0  0  0  0  0  0
    6.2616   -2.3090   -2.1353 H   0  0  0  0  0  0  0  0  0  0  0  0
    4.8928    0.1786   -0.9344 H   0  0  0  0  0  0  0  0  0  0  0  0
    2.9029   -1.3938    2.2154 H   0  0  0  0  0  0  0  0  0  0  0  0
    0.5040   -0.8911    2.4095 H   0  0  0  0  0  0  0  0  0  0  0  0
   -2.3346   -0.1940   -0.9708 H   0  0  0  0  0  0  0  0  0  0  0  0
   -0.6225   -0.1738   -0.7157 H   0  0  0  0  0  0  0  0  0  0  0  0
    0.4798    1.9361   -2.1830 H   0  0  0  0  0  0  0  0  0  0  0  0
   -0.5512    4.3548   -2.9268 H   0  0  0  0  0  0  0  0  0  0  0  0
   -2.2078   -3.6414    2.0568 H   0  0  0  0  0  0  0  0  0  0  0  0
   -2.7971   -2.3568    3.1021 H   0  0  0  0  0  0  0  0  0  0  0  0
   -1.5928   -2.0211    1.8169 H   0  0  0  0  0  0  0  0  0  0  0  0
   -3.8786   -4.4097    0.7322 H   0  0  0  0  0  0  0  0  0  0  0  0
  1  2  1  0
  2  3  2  0
  3  4  1  0
  4  5  1  0
  4  6  2  0
  6  7  1  0
  7  8  2  0
  7  9  2  0
  7 10  1  0
 10 11  1  0
 11 12  1  0
 12 13  2  0
 13 14  1  0
 14 15  2  0
 15 16  1  0
 16 17  2  0
 17 18  1  0
 18 19  2  0
 19 20  1  0
 20 21  1  0
 21 22  1  0
 21 23  2  0
 21 24  2  0
 20 25  2  0
 15 26  1  0
 26 27  2  0
 10 28  1  0
 28 29  1  0
 29 30  2  0
 30 31  1  0
 31 32  2  0
 32 33  1  0
 33 34  1  0
 33 35  1  0
 33 36  1  0
 32 37  1  0
  6 38  1  0
 38 39  1  0
 38 40  2  0
 40  2  1  0
 27 12  1  0
 37 29  1  0
 25 16  1  0
  1 41  1  0
  1 42  1  0
  1 43  1  0
  3 44  1  0
  5 45  1  0
  5 46  1  0
  5 47  1  0
 11 48  1  0
 11 49  1  0
 13 50  1  0
 14 51  1  0
 17 52  1  0
 18 53  1  0
 19 54  1  0
 22 55  1  0
 22 56  1  0
 22 57  1  0
 25 58  1  0
 26 59  1  0
 27 60  1  0
 28 61  1  0
 28 62  1  0
 30 63  1  0
 31 64  1  0
 39 65  1  0
 39 66  1  0
 39 67  1  0
 40 68  1  0
M  END
$$$$
