
     RDKit          3D

 56 61  0  0  0  0  0  0  0  0999 V2000
    6.1242   -1.8472    0.1340 O   0  0  0  0  0  0  0  0  0  0  0  0
    6.5037   -0.6964   -0.0410 C   0  0  0  0  0  0  0  0  0  0  0  0
    5.7297    0.4380   -0.1128 N   0  0  0  0  0  0  0  0  0  0  0  0
    4.3606    0.5118   -0.0680 C   0  0  0  0  0  0  0  0  0  0  0  0
    3.7586    1.6772   -0.0748 N   0  0  0  0  0  0  0  0  0  0  0  0
    2.3873    1.4902   -0.0340 C   0  0  0  0  0  0  0  0  0  0  0  0
    1.4145    2.5061   -0.0206 C   0  0  0  0  0  0  0  0  0  0  0  0
    0.0563    2.1647    0.0210 C   0  0  0  0  0  0  0  0  0  0  0  0
   -0.3567    0.8283    0.0487 C   0  0  0  0  0  0  0  0  0  0  0  0
   -1.7495    0.5979    0.0897 N   0  0  0  0  0  0  0  0  0  0  0  0
   -2.4090   -0.6208    0.1193 C   0  0  0  0  0  0  0  0  0  0  0  0
   -1.8612   -1.7194    0.1121 O   0  0  0  0  0  0  0  0  0  0  0  0
   -3.9488   -0.4978    0.1630 C   0  0  0  0  0  0  0  0  0  0  0  0
   -4.4085    0.2629    1.4314 C   0  0  0  0  0  0  0  0  0  0  0  0
   -5.9436    0.3642    1.4751 C   0  0  0  0  0  0  0  0  0  0  0  0
   -6.4373    1.1062    0.2212 C   0  0  0  0  0  0  0  0  0  0  0  0
   -6.0168    0.3421   -1.0461 C   0  0  0  0  0  0  0  0  0  0  0  0
   -6.6194   -1.0709   -1.0091 C   0  0  0  0  0  0  0  0  0  0  0  0
   -6.1240   -1.8200    0.2377 C   0  0  0  0  0  0  0  0  0  0  0  0
   -6.5467   -1.0489    1.4978 C   0  0  0  0  0  0  0  0  0  0  0  0
   -4.5902   -1.9119    0.1940 C   0  0  0  0  0  0  0  0  0  0  0  0
   -4.4817    0.2409   -1.0898 C   0  0  0  0  0  0  0  0  0  0  0  0
    0.6017   -0.1914    0.0352 C   0  0  0  0  0  0  0  0  0  0  0  0
    1.9647    0.1621   -0.0059 C   0  0  0  0  0  0  0  0  0  0  0  0
    3.3530   -0.8557   -0.0318 S   0  0  0  0  0  0  0  0  0  0  0  0
    7.9712   -0.4518   -0.1517 C   0  0  0  0  0  0  0  0  0  0  0  0
    8.8411   -1.2745    0.5753 C   0  0  0  0  0  0  0  0  0  0  0  0
   10.2206   -1.0765    0.5004 C   0  0  0  0  0  0  0  0  0  0  0  0
   10.7363   -0.0640   -0.3081 C   0  0  0  0  0  0  0  0  0  0  0  0
    9.8764    0.7463   -1.0497 C   0  0  0  0  0  0  0  0  0  0  0  0
    8.4948    0.5528   -0.9777 C   0  0  0  0  0  0  0  0  0  0  0  0
    6.1657    1.3481   -0.1264 H   0  0  0  0  0  0  0  0  0  0  0  0
    1.7244    3.5460   -0.0420 H   0  0  0  0  0  0  0  0  0  0  0  0
   -0.6715    2.9728    0.0309 H   0  0  0  0  0  0  0  0  0  0  0  0
   -2.3262    1.4281    0.0977 H   0  0  0  0  0  0  0  0  0  0  0  0
   -4.0405   -0.2484    2.3306 H   0  0  0  0  0  0  0  0  0  0  0  0
   -3.9848    1.2741    1.4613 H   0  0  0  0  0  0  0  0  0  0  0  0
   -6.2515    0.9112    2.3733 H   0  0  0  0  0  0  0  0  0  0  0  0
   -6.0248    2.1224    0.2003 H   0  0  0  0  0  0  0  0  0  0  0  0
   -7.5292    1.2065    0.2520 H   0  0  0  0  0  0  0  0  0  0  0  0
   -6.3766    0.8734   -1.9343 H   0  0  0  0  0  0  0  0  0  0  0  0
   -6.3382   -1.6223   -1.9147 H   0  0  0  0  0  0  0  0  0  0  0  0
   -7.7147   -1.0113   -0.9999 H   0  0  0  0  0  0  0  0  0  0  0  0
   -6.5545   -2.8273    0.2590 H   0  0  0  0  0  0  0  0  0  0  0  0
   -6.2133   -1.5846    2.3951 H   0  0  0  0  0  0  0  0  0  0  0  0
   -7.6407   -0.9888    1.5509 H   0  0  0  0  0  0  0  0  0  0  0  0
   -4.2315   -2.4722    1.0677 H   0  0  0  0  0  0  0  0  0  0  0  0
   -4.2825   -2.4878   -0.6890 H   0  0  0  0  0  0  0  0  0  0  0  0
   -4.0610    1.2512   -1.1619 H   0  0  0  0  0  0  0  0  0  0  0  0
   -4.1661   -0.2862   -1.9997 H   0  0  0  0  0  0  0  0  0  0  0  0
    0.3348   -1.2417    0.0558 H   0  0  0  0  0  0  0  0  0  0  0  0
    8.4445   -2.0714    1.2020 H   0  0  0  0  0  0  0  0  0  0  0  0
   10.8918   -1.7159    1.0688 H   0  0  0  0  0  0  0  0  0  0  0  0
   11.8118    0.0857   -0.3691 H   0  0  0  0  0  0  0  0  0  0  0  0
   10.2849    1.5217   -1.6935 H   0  0  0  0  0  0  0  0  0  0  0  0
    7.8482    1.1720   -1.5934 H   0  0  0  0  0  0  0  0  0  0  0  0
  1  2  2  0
  2  3  1  0
  3  4  1  0
  4  5  2  0
  5  6  1  0
  6  7  2  0
  7  8  1  0
  8  9  2  0
  9 10  1  0
 10 11  1  0
 11 12  2  0
 11 13  1  0
 13 14  1  0
 14 15  1  0
 15 16  1  0
 16 17  1  0
 17 18  1  0
 18 19  1  0
 19 20  1  0
 19 21  1  0
 17 22  1  0
  9 23  1  0
 23 24  2  0
 24 25  1  0
  2 26  1  0
 26 27  2  0
 27 28  1  0
 28 29  2  0
 29 30  1  0
 30 31  2  0
 25  4  1  0
 31 26  1  0
 24  6  1  0
 21 13  1  0
 22 13  1  0
 20 15  1  0
  3 32  1  0
  7 33  1  0
  8 34  1  0
 10 35  1  0
 14 36  1  0
 14 37  1  0
 15 38  1  0
 16 39  1  0
 16 40  1  0
 17 41  1  0
 18 42  1  0
 18 43  1  0
 19 44  1  0
 20 45  1  0
 20 46  1  0
 21 47  1  0
 21 48  1  0
 22 49  1  0
 22 50  1  0
 23 51  1  0
 27 52  1  0
 28 53  1  0
 29 54  1  0
 30 55  1  0
 31 56  1  0
M  END
$$$$
