
     RDKit          3D

 54 56  0  0  0  0  0  0  0  0999 V2000
   -5.8028   -2.3738   -0.6496 C   0  0  0  0  0  0  0  0  0  0  0  0
   -4.6813   -2.8990    0.2288 C   0  0  0  0  0  0  0  0  0  0  0  0
   -3.4145   -2.9677   -0.4796 N   0  0  0  0  0  0  0  0  0  0  0  0
   -3.1390   -4.0788   -1.1948 N   0  0  0  0  0  0  0  0  0  0  0  0
   -1.9446   -3.8287   -1.7271 C   0  0  0  0  0  0  0  0  0  0  0  0
   -1.4407   -2.5797   -1.3314 C   0  0  0  0  0  0  0  0  0  0  0  0
   -2.3941   -2.0426   -0.4824 C   0  0  0  0  0  0  0  0  0  0  0  0
   -2.4422   -0.7766    0.2073 C   0  0  0  0  0  0  0  0  0  0  0  0
   -3.4682   -0.0930    0.2347 O   0  0  0  0  0  0  0  0  0  0  0  0
   -1.3102   -0.3309    0.8685 N   0  0  0  0  0  0  0  0  0  0  0  0
   -0.0870   -1.0831    1.1514 C   0  0  0  0  0  0  0  0  0  0  0  0
    0.8038   -0.1193    1.9527 C   0  0  1  0  0  0  0  0  0  0  0  0
    1.6740    0.6878    1.1086 N   0  0  0  0  0  0  0  0  0  0  0  0
    2.7524    0.1353    0.4525 C   0  0  0  0  0  0  0  0  0  0  0  0
    3.0866   -1.0330    0.6073 O   0  0  0  0  0  0  0  0  0  0  0  0
    3.4510    1.1308   -0.4602 C   0  0  0  0  0  0  0  0  0  0  0  0
    4.6428    0.6044   -1.2740 C   0  0  0  0  0  0  0  0  0  0  0  0
    5.8068    0.1500   -0.3940 C   0  0  0  0  0  0  0  0  0  0  0  0
    4.2410   -0.4853   -2.2678 C   0  0  0  0  0  0  0  0  0  0  0  0
   -0.2236    0.7502    2.6768 C   0  0  0  0  0  0  0  0  0  0  0  0
   -1.3638    0.8936    1.6618 C   0  0  1  0  0  0  0  0  0  0  0  0
   -1.2033    2.0686    0.7492 C   0  0  0  0  0  0  0  0  0  0  0  0
   -0.1328    2.8063    0.5172 N   0  0  0  0  0  0  0  0  0  0  0  0
   -0.5788    3.7254   -0.3999 C   0  0  0  0  0  0  0  0  0  0  0  0
    0.2940    4.7797   -0.9527 C   0  0  0  0  0  0  0  0  0  0  0  0
   -1.8556    3.5787   -0.7670 N   0  0  0  0  0  0  0  0  0  0  0  0
   -2.2291    2.5143   -0.0392 N   0  0  0  0  0  0  0  0  0  0  0  0
   -6.7382   -2.3271   -0.0834 H   0  0  0  0  0  0  0  0  0  0  0  0
   -5.9614   -3.0238   -1.5167 H   0  0  0  0  0  0  0  0  0  0  0  0
   -5.5793   -1.3699   -1.0248 H   0  0  0  0  0  0  0  0  0  0  0  0
   -4.5500   -2.2734    1.1170 H   0  0  0  0  0  0  0  0  0  0  0  0
   -4.9148   -3.9106    0.5804 H   0  0  0  0  0  0  0  0  0  0  0  0
   -1.4956   -4.5624   -2.3847 H   0  0  0  0  0  0  0  0  0  0  0  0
   -0.5119   -2.1262   -1.6462 H   0  0  0  0  0  0  0  0  0  0  0  0
    0.3857   -1.4242    0.2305 H   0  0  0  0  0  0  0  0  0  0  0  0
   -0.3696   -1.9509    1.7578 H   0  0  0  0  0  0  0  0  0  0  0  0
    1.4433   -0.6691    2.6517 H   0  0  0  0  0  0  0  0  0  0  0  0
    1.3123    1.5819    0.7695 H   0  0  0  0  0  0  0  0  0  0  0  0
    2.6982    1.5280   -1.1534 H   0  0  0  0  0  0  0  0  0  0  0  0
    3.7880    1.9678    0.1647 H   0  0  0  0  0  0  0  0  0  0  0  0
    5.0090    1.4536   -1.8671 H   0  0  0  0  0  0  0  0  0  0  0  0
    5.5673   -0.7522    0.1759 H   0  0  0  0  0  0  0  0  0  0  0  0
    6.6853   -0.0739   -1.0090 H   0  0  0  0  0  0  0  0  0  0  0  0
    6.0890    0.9362    0.3142 H   0  0  0  0  0  0  0  0  0  0  0  0
    3.4121   -0.1492   -2.8995 H   0  0  0  0  0  0  0  0  0  0  0  0
    3.9349   -1.4086   -1.7675 H   0  0  0  0  0  0  0  0  0  0  0  0
    5.0816   -0.7309   -2.9260 H   0  0  0  0  0  0  0  0  0  0  0  0
    0.1777    1.7056    3.0307 H   0  0  0  0  0  0  0  0  0  0  0  0
   -0.5946    0.1974    3.5499 H   0  0  0  0  0  0  0  0  0  0  0  0
   -2.3237    0.9681    2.1874 H   0  0  0  0  0  0  0  0  0  0  0  0
    1.0896    5.0322   -0.2446 H   0  0  0  0  0  0  0  0  0  0  0  0
    0.7586    4.4373   -1.8826 H   0  0  0  0  0  0  0  0  0  0  0  0
   -0.2731    5.6919   -1.1634 H   0  0  0  0  0  0  0  0  0  0  0  0
   -3.1609    2.1190   -0.1423 H   0  0  0  0  0  0  0  0  0  0  0  0
  1  2  1  0
  2  3  1  0
  3  4  1  0
  4  5  2  0
  5  6  1  0
  6  7  2  0
  7  8  1  0
  8  9  2  0
  8 10  1  0
 10 11  1  0
 11 12  1  0
 12 13  1  0
 13 14  1  0
 14 15  2  0
 14 16  1  0
 16 17  1  0
 17 18  1  0
 17 19  1  0
 12 20  1  0
 20 21  1  0
 21 22  1  0
 22 23  2  0
 23 24  1  0
 24 25  1  0
 24 26  2  0
 26 27  1  0
  7  3  1  0
 21 10  1  0
 27 22  1  0
  1 28  1  0
  1 29  1  0
  1 30  1  0
  2 31  1  0
  2 32  1  0
  5 33  1  0
  6 34  1  0
 11 35  1  0
 11 36  1  0
 12 37  1  1
 13 38  1  0
 16 39  1  0
 16 40  1  0
 17 41  1  0
 18 42  1  0
 18 43  1  0
 18 44  1  0
 19 45  1  0
 19 46  1  0
 19 47  1  0
 20 48  1  0
 20 49  1  0
 21 50  1  1
 25 51  1  0
 25 52  1  0
 25 53  1  0
 27 54  1  0
M  END
$$$$
