
     RDKit          3D

 56 58  0  0  0  0  0  0  0  0999 V2000
   -0.4268   -2.2261   -4.9682 C   0  0  0  0  0  0  0  0  0  0  0  0
   -0.1625   -0.8530   -4.3760 C   0  0  0  0  0  0  0  0  0  0  0  0
    0.1860   -0.9563   -2.9949 O   0  0  0  0  0  0  0  0  0  0  0  0
   -0.8097   -0.9095   -2.0488 C   0  0  0  0  0  0  0  0  0  0  0  0
   -2.1803   -0.9152   -2.3148 C   0  0  0  0  0  0  0  0  0  0  0  0
   -3.1257   -0.8706   -1.2985 C   0  0  0  0  0  0  0  0  0  0  0  0
   -4.4208   -0.8704   -1.6474 N   0  0  0  0  0  0  0  0  0  0  0  0
   -5.3503   -0.8129   -0.6671 C   0  0  0  0  0  0  0  0  0  0  0  0
   -5.0518   -0.7593    0.6812 C   0  0  0  0  0  0  0  0  0  0  0  0
   -6.1224   -0.7203    1.6282 C   0  0  0  0  0  0  0  0  0  0  0  0
   -7.0235   -0.6895    2.3596 N   0  0  0  0  0  0  0  0  0  0  0  0
   -3.7008   -0.7765    1.0570 C   0  0  0  0  0  0  0  0  0  0  0  0
   -3.3429   -0.6879    2.4327 N   0  0  0  0  0  0  0  0  0  0  0  0
   -3.2513    0.5074    3.1923 C   0  0  0  0  0  0  0  0  0  0  0  0
   -2.7752    0.4238    4.5115 C   0  0  0  0  0  0  0  0  0  0  0  0
   -2.7165    1.5560    5.3277 C   0  0  0  0  0  0  0  0  0  0  0  0
   -3.1522    2.7798    4.8354 C   0  0  0  0  0  0  0  0  0  0  0  0
   -3.0880    3.8563    5.6327 F   0  0  0  0  0  0  0  0  0  0  0  0
   -3.6505    2.8795    3.5401 C   0  0  0  0  0  0  0  0  0  0  0  0
   -4.2000    4.3922    2.9258 Cl  0  0  0  0  0  0  0  0  0  0  0  0
   -3.7099    1.7466    2.7236 C   0  0  0  0  0  0  0  0  0  0  0  0
   -2.6988   -0.8201    0.0455 C   0  0  0  0  0  0  0  0  0  0  0  0
   -1.3093   -0.8086    0.3122 C   0  0  0  0  0  0  0  0  0  0  0  0
   -0.3691   -0.8686   -0.7165 C   0  0  0  0  0  0  0  0  0  0  0  0
    1.0260   -0.8788   -0.4956 N   0  0  0  0  0  0  0  0  0  0  0  0
    1.6926   -0.9527    0.7026 C   0  0  0  0  0  0  0  0  0  0  0  0
    1.1966   -1.0994    1.8142 O   0  0  0  0  0  0  0  0  0  0  0  0
    3.1769   -0.9284    0.5852 C   0  0  0  0  0  0  0  0  0  0  0  0
    3.8698   -0.2738   -0.3621 C   0  0  0  0  0  0  0  0  0  0  0  0
    5.3722   -0.2491   -0.4197 C   0  0  0  0  0  0  0  0  0  0  0  0
    5.9093    1.1011   -0.2104 N   0  0  0  0  0  0  0  0  0  0  0  0
    7.3337    1.0302    0.1272 C   0  0  0  0  0  0  0  0  0  0  0  0
    5.7299    1.9571   -1.3860 C   0  0  0  0  0  0  0  0  0  0  0  0
    0.4360   -2.8823   -4.8124 H   0  0  0  0  0  0  0  0  0  0  0  0
   -1.2829   -2.7115   -4.4903 H   0  0  0  0  0  0  0  0  0  0  0  0
   -0.6228   -2.1527   -6.0417 H   0  0  0  0  0  0  0  0  0  0  0  0
   -0.9853   -0.1519   -4.5524 H   0  0  0  0  0  0  0  0  0  0  0  0
    0.7095   -0.4223   -4.8813 H   0  0  0  0  0  0  0  0  0  0  0  0
   -2.5601   -0.9628   -3.3302 H   0  0  0  0  0  0  0  0  0  0  0  0
   -6.3796   -0.8139   -1.0209 H   0  0  0  0  0  0  0  0  0  0  0  0
   -2.5577   -1.3005    2.6575 H   0  0  0  0  0  0  0  0  0  0  0  0
   -2.4484   -0.5316    4.9173 H   0  0  0  0  0  0  0  0  0  0  0  0
   -2.3408    1.4881    6.3439 H   0  0  0  0  0  0  0  0  0  0  0  0
   -4.1044    1.8501    1.7177 H   0  0  0  0  0  0  0  0  0  0  0  0
   -0.9704   -0.7341    1.3393 H   0  0  0  0  0  0  0  0  0  0  0  0
    1.5706   -0.9039   -1.3506 H   0  0  0  0  0  0  0  0  0  0  0  0
    3.6853   -1.4357    1.4000 H   0  0  0  0  0  0  0  0  0  0  0  0
    3.3535    0.2891   -1.1328 H   0  0  0  0  0  0  0  0  0  0  0  0
    5.7066   -0.6658   -1.3786 H   0  0  0  0  0  0  0  0  0  0  0  0
    5.7585   -0.9223    0.3576 H   0  0  0  0  0  0  0  0  0  0  0  0
    7.4847    0.4537    1.0468 H   0  0  0  0  0  0  0  0  0  0  0  0
    7.7354    2.0312    0.3207 H   0  0  0  0  0  0  0  0  0  0  0  0
    7.9249    0.5685   -0.6720 H   0  0  0  0  0  0  0  0  0  0  0  0
    4.6699    2.1062   -1.6144 H   0  0  0  0  0  0  0  0  0  0  0  0
    6.2211    1.5461   -2.2755 H   0  0  0  0  0  0  0  0  0  0  0  0
    6.1419    2.9556   -1.1991 H   0  0  0  0  0  0  0  0  0  0  0  0
  1  2  1  0
  2  3  1  0
  3  4  1  0
  4  5  2  0
  5  6  1  0
  6  7  2  0
  7  8  1  0
  8  9  2  0
  9 10  1  0
 10 11  3  0
  9 12  1  0
 12 13  1  0
 13 14  1  0
 14 15  2  0
 15 16  1  0
 16 17  2  0
 17 18  1  0
 17 19  1  0
 19 20  1  0
 19 21  2  0
 12 22  2  0
 22 23  1  0
 23 24  2  0
 24 25  1  0
 25 26  1  0
 26 27  2  0
 26 28  1  0
 28 29  2  0
 29 30  1  0
 30 31  1  0
 31 32  1  0
 31 33  1  0
 24  4  1  0
 22  6  1  0
 21 14  1  0
  1 34  1  0
  1 35  1  0
  1 36  1  0
  2 37  1  0
  2 38  1  0
  5 39  1  0
  8 40  1  0
 13 41  1  0
 15 42  1  0
 16 43  1  0
 21 44  1  0
 23 45  1  0
 25 46  1  0
 28 47  1  0
 29 48  1  0
 30 49  1  0
 30 50  1  0
 32 51  1  0
 32 52  1  0
 32 53  1  0
 33 54  1  0
 33 55  1  0
 33 56  1  0
M  END
$$$$
