
     RDKit          3D

 36 38  0  0  0  0  0  0  0  0999 V2000
    4.7738    0.7635    1.6775 C   0  0  0  0  0  0  0  0  0  0  0  0
    4.3387    0.3455    0.2710 C   0  0  0  0  0  0  0  0  0  0  0  0
    5.0246   -0.9455   -0.1368 C   0  0  0  0  0  0  0  0  0  0  0  0
    5.4539   -1.8178    0.6014 O   0  0  0  0  0  0  0  0  0  0  0  0
    5.1283   -1.0810   -1.4763 O   0  0  0  0  0  0  0  0  0  0  0  0
    2.8293    0.2443    0.1536 C   0  0  0  0  0  0  0  0  0  0  0  0
    2.1336    1.0757   -0.7293 C   0  0  0  0  0  0  0  0  0  0  0  0
    0.7398    0.9899   -0.8469 C   0  0  0  0  0  0  0  0  0  0  0  0
   -0.0032    0.0720   -0.0889 C   0  0  0  0  0  0  0  0  0  0  0  0
   -1.4171   -0.0017   -0.2204 N   0  0  0  0  0  0  0  0  0  0  0  0
   -2.1574    0.8572   -1.1365 C   0  0  0  0  0  0  0  0  0  0  0  0
   -3.5746    0.4390   -0.9439 C   0  0  0  0  0  0  0  0  0  0  0  0
   -4.7278    0.9066   -1.5499 C   0  0  0  0  0  0  0  0  0  0  0  0
   -5.9479    0.3297   -1.1792 C   0  0  0  0  0  0  0  0  0  0  0  0
   -6.0004   -0.6965   -0.2180 C   0  0  0  0  0  0  0  0  0  0  0  0
   -4.8319   -1.1611    0.3873 C   0  0  0  0  0  0  0  0  0  0  0  0
   -3.6394   -0.5750    0.0041 C   0  0  0  0  0  0  0  0  0  0  0  0
   -2.2773   -0.8636    0.4708 C   0  0  0  0  0  0  0  0  0  0  0  0
   -2.0549   -1.7178    1.3095 O   0  0  0  0  0  0  0  0  0  0  0  0
    0.7018   -0.7575    0.7896 C   0  0  0  0  0  0  0  0  0  0  0  0
    2.0956   -0.6756    0.9105 C   0  0  0  0  0  0  0  0  0  0  0  0
    4.4933    0.0217    2.4337 H   0  0  0  0  0  0  0  0  0  0  0  0
    5.8624    0.8791    1.7255 H   0  0  0  0  0  0  0  0  0  0  0  0
    4.3186    1.7189    1.9610 H   0  0  0  0  0  0  0  0  0  0  0  0
    4.7097    1.1238   -0.4101 H   0  0  0  0  0  0  0  0  0  0  0  0
    5.5407   -1.9626   -1.5917 H   0  0  0  0  0  0  0  0  0  0  0  0
    2.6681    1.8003   -1.3404 H   0  0  0  0  0  0  0  0  0  0  0  0
    0.2618    1.6638   -1.5509 H   0  0  0  0  0  0  0  0  0  0  0  0
   -2.0215    1.9058   -0.8529 H   0  0  0  0  0  0  0  0  0  0  0  0
   -1.8344    0.6677   -2.1651 H   0  0  0  0  0  0  0  0  0  0  0  0
   -4.6960    1.6979   -2.2923 H   0  0  0  0  0  0  0  0  0  0  0  0
   -6.8708    0.6776   -1.6393 H   0  0  0  0  0  0  0  0  0  0  0  0
   -6.9596   -1.1308    0.0552 H   0  0  0  0  0  0  0  0  0  0  0  0
   -4.8506   -1.9514    1.1306 H   0  0  0  0  0  0  0  0  0  0  0  0
    0.1949   -1.4936    1.4064 H   0  0  0  0  0  0  0  0  0  0  0  0
    2.5958   -1.3482    1.6060 H   0  0  0  0  0  0  0  0  0  0  0  0
  1  2  1  0
  2  3  1  0
  3  4  2  0
  3  5  1  0
  2  6  1  0
  6  7  2  0
  7  8  1  0
  8  9  2  0
  9 10  1  0
 10 11  1  0
 11 12  1  0
 12 13  2  0
 13 14  1  0
 14 15  2  0
 15 16  1  0
 16 17  2  0
 17 18  1  0
 18 19  2  0
  9 20  1  0
 20 21  2  0
 21  6  1  0
 18 10  1  0
 17 12  1  0
  1 22  1  0
  1 23  1  0
  1 24  1  0
  2 25  1  0
  5 26  1  0
  7 27  1  0
  8 28  1  0
 11 29  1  0
 11 30  1  0
 13 31  1  0
 14 32  1  0
 15 33  1  0
 16 34  1  0
 20 35  1  0
 21 36  1  0
M  END
$$$$
