
     RDKit          3D

 48 50  0  0  0  0  0  0  0  0999 V2000
   -4.8801   -4.3421   -0.1379 C   0  0  0  0  0  0  0  0  0  0  0  0
   -4.5254   -2.9181   -0.2944 C   0  0  0  0  0  0  0  0  0  0  0  0
   -5.3750   -1.9270   -0.0062 N   0  0  0  0  0  0  0  0  0  0  0  0
   -4.6307   -0.8441   -0.2833 N   0  0  0  0  0  0  0  0  0  0  0  0
   -3.3857   -1.1941   -0.7330 C   0  0  0  0  0  0  0  0  0  0  0  0
   -2.3747   -0.1783   -1.1529 C   0  0  2  0  0  0  0  0  0  0  0  0
   -1.1322   -0.8293   -1.7731 C   0  0  0  0  0  0  0  0  0  0  0  0
   -0.0290    0.1730   -1.4626 C   0  0  2  0  0  0  0  0  0  0  0  0
    1.2973   -0.4024   -1.5617 N   0  0  0  0  0  0  0  0  0  0  0  0
    2.4211    0.3864   -1.4304 C   0  0  0  0  0  0  0  0  0  0  0  0
    2.3609    1.6008   -1.2773 O   0  0  0  0  0  0  0  0  0  0  0  0
    3.7157   -0.4027   -1.5208 C   0  0  0  0  0  0  0  0  0  0  0  0
    4.9587    0.4125   -1.1331 C   0  0  0  0  0  0  0  0  0  0  0  0
    6.2262   -0.3199   -1.5774 C   0  0  0  0  0  0  0  0  0  0  0  0
    5.0106    0.6637    0.3766 C   0  0  0  0  0  0  0  0  0  0  0  0
   -0.4030    0.6475   -0.0516 C   0  0  0  0  0  0  0  0  0  0  0  0
   -1.8617    0.5821   -0.0102 N   0  0  0  0  0  0  0  0  0  0  0  0
   -2.6674    1.5223    0.6313 C   0  0  0  0  0  0  0  0  0  0  0  0
   -3.8288    1.6857    0.2460 O   0  0  0  0  0  0  0  0  0  0  0  0
   -2.1045    2.2468    1.7613 C   0  0  0  0  0  0  0  0  0  0  0  0
   -1.2532    1.8103    2.7611 C   0  0  0  0  0  0  0  0  0  0  0  0
   -0.9350    2.8379    3.6964 C   0  0  0  0  0  0  0  0  0  0  0  0
   -1.5724    4.0199    3.3961 C   0  0  0  0  0  0  0  0  0  0  0  0
   -2.5510    3.8858    2.0014 S   0  0  0  0  0  0  0  0  0  0  0  0
   -3.2952   -2.5102   -0.7412 N   0  0  0  0  0  0  0  0  0  0  0  0
   -4.2204   -4.9744   -0.7408 H   0  0  0  0  0  0  0  0  0  0  0  0
   -5.9105   -4.5270   -0.4580 H   0  0  0  0  0  0  0  0  0  0  0  0
   -4.7820   -4.6444    0.9092 H   0  0  0  0  0  0  0  0  0  0  0  0
   -4.9943    0.0931   -0.1182 H   0  0  0  0  0  0  0  0  0  0  0  0
   -2.8187    0.5294   -1.8648 H   0  0  0  0  0  0  0  0  0  0  0  0
   -1.2495   -1.0079   -2.8472 H   0  0  0  0  0  0  0  0  0  0  0  0
   -0.8987   -1.7958   -1.3066 H   0  0  0  0  0  0  0  0  0  0  0  0
   -0.0917    1.0199   -2.1591 H   0  0  0  0  0  0  0  0  0  0  0  0
    1.4031   -1.4104   -1.5671 H   0  0  0  0  0  0  0  0  0  0  0  0
    3.8038   -0.7388   -2.5616 H   0  0  0  0  0  0  0  0  0  0  0  0
    3.6357   -1.2955   -0.8885 H   0  0  0  0  0  0  0  0  0  0  0  0
    4.9343    1.3835   -1.6431 H   0  0  0  0  0  0  0  0  0  0  0  0
    6.2309   -0.4667   -2.6624 H   0  0  0  0  0  0  0  0  0  0  0  0
    6.3044   -1.3036   -1.1017 H   0  0  0  0  0  0  0  0  0  0  0  0
    7.1201    0.2556   -1.3149 H   0  0  0  0  0  0  0  0  0  0  0  0
    5.9034    1.2399    0.6426 H   0  0  0  0  0  0  0  0  0  0  0  0
    4.1387    1.2303    0.7176 H   0  0  0  0  0  0  0  0  0  0  0  0
    5.0399   -0.2786    0.9342 H   0  0  0  0  0  0  0  0  0  0  0  0
   -0.0316    1.6574    0.1446 H   0  0  0  0  0  0  0  0  0  0  0  0
   -0.0164   -0.0370    0.7112 H   0  0  0  0  0  0  0  0  0  0  0  0
   -0.8808    0.7956    2.8306 H   0  0  0  0  0  0  0  0  0  0  0  0
   -0.2826    2.7130    4.5522 H   0  0  0  0  0  0  0  0  0  0  0  0
   -1.5227    4.9559    3.9358 H   0  0  0  0  0  0  0  0  0  0  0  0
  1  2  1  0
  2  3  2  0
  3  4  1  0
  4  5  1  0
  5  6  1  0
  6  7  1  0
  7  8  1  0
  8  9  1  0
  9 10  1  0
 10 11  2  0
 10 12  1  0
 12 13  1  0
 13 14  1  0
 13 15  1  0
  8 16  1  0
 16 17  1  0
 17 18  1  0
 18 19  2  0
 18 20  1  0
 20 21  2  0
 21 22  1  0
 22 23  2  0
 23 24  1  0
  5 25  2  0
 25  2  1  0
 17  6  1  0
 24 20  1  0
  1 26  1  0
  1 27  1  0
  1 28  1  0
  4 29  1  0
  6 30  1  6
  7 31  1  0
  7 32  1  0
  8 33  1  6
  9 34  1  0
 12 35  1  0
 12 36  1  0
 13 37  1  0
 14 38  1  0
 14 39  1  0
 14 40  1  0
 15 41  1  0
 15 42  1  0
 15 43  1  0
 16 44  1  0
 16 45  1  0
 21 46  1  0
 22 47  1  0
 23 48  1  0
M  END
$$$$
