
     RDKit          3D

 26 28  0  0  0  0  0  0  0  0999 V2000
    1.0086   -1.0978   -2.7741 O   0  0  0  0  0  0  0  0  0  0  0  0
    0.6069   -0.7495   -1.6636 C   0  0  0  0  0  0  0  0  0  0  0  0
    1.5851   -0.0676   -0.8019 C   0  0  0  0  0  0  0  0  0  0  0  0
    2.0795    1.1723   -1.2290 C   0  0  0  0  0  0  0  0  0  0  0  0
    3.0213    1.8467   -0.4504 C   0  0  0  0  0  0  0  0  0  0  0  0
    3.4750    1.2747    0.7383 C   0  0  0  0  0  0  0  0  0  0  0  0
    4.6323    2.1107    1.6971 Cl  0  0  0  0  0  0  0  0  0  0  0  0
    3.0038    0.0294    1.1543 C   0  0  0  0  0  0  0  0  0  0  0  0
    2.0616   -0.6499    0.3784 C   0  0  0  0  0  0  0  0  0  0  0  0
    1.5357   -2.2020    0.9170 Cl  0  0  0  0  0  0  0  0  0  0  0  0
   -0.7329   -0.9913   -1.3108 N   0  0  0  0  0  0  0  0  0  0  0  0
   -1.4959   -1.7903   -2.1035 N   0  0  0  0  0  0  0  0  0  0  0  0
   -2.6902   -1.9209   -1.5473 N   0  0  0  0  0  0  0  0  0  0  0  0
   -2.7161   -1.1577   -0.4193 C   0  0  0  0  0  0  0  0  0  0  0  0
   -3.7557   -0.9447    0.4978 C   0  0  0  0  0  0  0  0  0  0  0  0
   -3.5374   -0.0781    1.5731 C   0  0  0  0  0  0  0  0  0  0  0  0
   -2.3116    0.5685    1.7260 C   0  0  0  0  0  0  0  0  0  0  0  0
   -1.2619    0.3652    0.8210 C   0  0  0  0  0  0  0  0  0  0  0  0
   -1.4884   -0.5239   -0.2419 C   0  0  0  0  0  0  0  0  0  0  0  0
    1.7422    1.6086   -2.1681 H   0  0  0  0  0  0  0  0  0  0  0  0
    3.4047    2.8103   -0.7797 H   0  0  0  0  0  0  0  0  0  0  0  0
    3.3781   -0.4129    2.0748 H   0  0  0  0  0  0  0  0  0  0  0  0
   -4.7113   -1.4411    0.3642 H   0  0  0  0  0  0  0  0  0  0  0  0
   -4.3361    0.0978    2.2906 H   0  0  0  0  0  0  0  0  0  0  0  0
   -2.1696    1.2476    2.5655 H   0  0  0  0  0  0  0  0  0  0  0  0
   -0.3275    0.8957    0.9598 H   0  0  0  0  0  0  0  0  0  0  0  0
  1  2  2  0
  2  3  1  0
  3  4  2  0
  4  5  1  0
  5  6  2  0
  6  7  1  0
  6  8  1  0
  8  9  2  0
  9 10  1  0
  2 11  1  0
 11 12  1  0
 12 13  2  0
 13 14  1  0
 14 15  2  0
 15 16  1  0
 16 17  2  0
 17 18  1  0
 18 19  2  0
  9  3  1  0
 19 11  1  0
 19 14  1  0
  4 20  1  0
  5 21  1  0
  8 22  1  0
 15 23  1  0
 16 24  1  0
 17 25  1  0
 18 26  1  0
M  END
$$$$
