
     RDKit          3D

 53 55  0  0  0  0  0  0  0  0999 V2000
    1.6209    0.5130   -2.5845 C   0  0  0  0  0  0  0  0  0  0  0  0
    1.6100    0.0196   -1.1252 C   0  0  0  0  0  0  0  0  0  0  0  0
    1.4151    1.2182   -0.1795 C   0  0  0  0  0  0  0  0  0  0  0  0
    2.9793   -0.6107   -0.8079 C   0  0  0  0  0  0  0  0  0  0  0  0
    3.9521   -0.5327   -1.5594 O   0  0  0  0  0  0  0  0  0  0  0  0
    3.0904   -1.2097    0.4321 N   0  0  0  0  0  0  0  0  0  0  0  0
    4.3240   -1.8775    0.8314 C   0  0  0  0  0  0  0  0  0  0  0  0
    5.3016   -1.0402    1.6591 C   0  0  0  0  0  0  0  0  0  0  0  0
    6.2734   -1.8881    2.1268 F   0  0  0  0  0  0  0  0  0  0  0  0
    4.6555   -0.5921    2.7779 F   0  0  0  0  0  0  0  0  0  0  0  0
    5.9447    0.1203    0.9100 C   0  0  0  0  0  0  0  0  0  0  0  0
    6.8447    0.7634    1.6965 F   0  0  0  0  0  0  0  0  0  0  0  0
    5.0473    1.0564    0.5186 F   0  0  0  0  0  0  0  0  0  0  0  0
    6.6167   -0.2935   -0.1850 F   0  0  0  0  0  0  0  0  0  0  0  0
    0.4618   -0.9786   -0.9278 C   0  0  0  0  0  0  0  0  0  0  0  0
    0.6371   -2.0922   -0.4360 O   0  0  0  0  0  0  0  0  0  0  0  0
   -0.7876   -0.5310   -1.2864 N   0  0  0  0  0  0  0  0  0  0  0  0
   -1.9840   -1.3470   -1.0771 C   0  0  2  0  0  0  0  0  0  0  0  0
   -3.1044   -0.9509   -2.0539 C   0  0  0  0  0  0  0  0  0  0  0  0
   -3.4654   -1.7022   -2.9696 O   0  0  0  0  0  0  0  0  0  0  0  0
   -3.6592    0.2986   -1.9938 N   0  0  0  0  0  0  0  0  0  0  0  0
   -3.4072    1.3427   -1.0854 C   0  0  0  0  0  0  0  0  0  0  0  0
   -3.6024    2.6353   -1.6011 C   0  0  0  0  0  0  0  0  0  0  0  0
   -3.2872    3.7654   -0.8466 C   0  0  0  0  0  0  0  0  0  0  0  0
   -2.7772    3.6156    0.4365 C   0  0  0  0  0  0  0  0  0  0  0  0
   -2.6307    2.3370    0.9754 C   0  0  0  0  0  0  0  0  0  0  0  0
   -2.9772    1.1701    0.2506 C   0  0  0  0  0  0  0  0  0  0  0  0
   -2.9472   -0.1378    0.9524 C   0  0  0  0  0  0  0  0  0  0  0  0
   -3.4326   -0.2311    2.2784 C   0  0  0  0  0  0  0  0  0  0  0  0
   -3.4082   -1.4287    2.9939 C   0  0  0  0  0  0  0  0  0  0  0  0
   -2.8968   -2.5744    2.4028 C   0  0  0  0  0  0  0  0  0  0  0  0
   -2.4273   -2.5198    1.0969 C   0  0  0  0  0  0  0  0  0  0  0  0
   -2.4622   -1.3174    0.3571 C   0  0  0  0  0  0  0  0  0  0  0  0
    1.6915   -0.3285   -3.2822 H   0  0  0  0  0  0  0  0  0  0  0  0
    0.7141    1.0698   -2.8344 H   0  0  0  0  0  0  0  0  0  0  0  0
    2.4719    1.1779   -2.7809 H   0  0  0  0  0  0  0  0  0  0  0  0
    2.2807    1.8949   -0.2172 H   0  0  0  0  0  0  0  0  0  0  0  0
    0.5262    1.8016   -0.4376 H   0  0  0  0  0  0  0  0  0  0  0  0
    1.2949    0.8918    0.8620 H   0  0  0  0  0  0  0  0  0  0  0  0
    2.2180   -1.5825    0.8162 H   0  0  0  0  0  0  0  0  0  0  0  0
    4.8242   -2.2962   -0.0491 H   0  0  0  0  0  0  0  0  0  0  0  0
    4.0065   -2.7327    1.4438 H   0  0  0  0  0  0  0  0  0  0  0  0
   -0.9305    0.4476   -1.4977 H   0  0  0  0  0  0  0  0  0  0  0  0
   -1.7107   -2.3759   -1.3466 H   0  0  0  0  0  0  0  0  0  0  0  0
   -4.2195    0.5016   -2.8140 H   0  0  0  0  0  0  0  0  0  0  0  0
   -3.9642    2.7776   -2.6150 H   0  0  0  0  0  0  0  0  0  0  0  0
   -3.4234    4.7582   -1.2654 H   0  0  0  0  0  0  0  0  0  0  0  0
   -2.5129    4.4921    1.0310 H   0  0  0  0  0  0  0  0  0  0  0  0
   -2.2460    2.2585    1.9957 H   0  0  0  0  0  0  0  0  0  0  0  0
   -3.8559    0.6443    2.7727 H   0  0  0  0  0  0  0  0  0  0  0  0
   -3.7882   -1.4606    4.0118 H   0  0  0  0  0  0  0  0  0  0  0  0
   -2.8666   -3.5111    2.9532 H   0  0  0  0  0  0  0  0  0  0  0  0
   -2.0280   -3.4287    0.6478 H   0  0  0  0  0  0  0  0  0  0  0  0
  1  2  1  0
  2  3  1  0
  2  4  1  0
  4  5  2  0
  4  6  1  0
  6  7  1  0
  7  8  1  0
  8  9  1  0
  8 10  1  0
  8 11  1  0
 11 12  1  0
 11 13  1  0
 11 14  1  0
  2 15  1  0
 15 16  2  0
 15 17  1  0
 17 18  1  0
 18 19  1  0
 19 20  2  0
 19 21  1  0
 21 22  1  0
 22 23  2  0
 23 24  1  0
 24 25  2  0
 25 26  1  0
 26 27  2  0
 27 28  1  0
 28 29  2  0
 29 30  1  0
 30 31  2  0
 31 32  1  0
 32 33  2  0
 33 18  1  0
 27 22  1  0
 33 28  1  0
  1 34  1  0
  1 35  1  0
  1 36  1  0
  3 37  1  0
  3 38  1  0
  3 39  1  0
  6 40  1  0
  7 41  1  0
  7 42  1  0
 17 43  1  0
 18 44  1  6
 21 45  1  0
 23 46  1  0
 24 47  1  0
 25 48  1  0
 26 49  1  0
 29 50  1  0
 30 51  1  0
 31 52  1  0
 32 53  1  0
M  END
$$$$
