
     RDKit          3D

 40 42  0  0  0  0  0  0  0  0999 V2000
   -3.6752    3.6693   -1.3755 C   0  0  0  0  0  0  0  0  0  0  0  0
   -3.0706    2.3944   -0.8655 C   0  0  0  0  0  0  0  0  0  0  0  0
   -2.2757    2.3986    0.2864 C   0  0  0  0  0  0  0  0  0  0  0  0
   -1.7380    1.2073    0.7803 C   0  0  0  0  0  0  0  0  0  0  0  0
   -1.9880   -0.0057    0.1278 C   0  0  0  0  0  0  0  0  0  0  0  0
   -1.4403   -1.2538    0.6489 C   0  0  0  0  0  0  0  0  0  0  0  0
   -2.1562   -2.2973    1.2064 C   0  0  0  0  0  0  0  0  0  0  0  0
   -1.2047   -3.2020    1.7207 C   0  0  0  0  0  0  0  0  0  0  0  0
   -1.4885   -4.4825    2.4589 C   0  0  0  0  0  0  0  0  0  0  0  0
   -2.8267   -4.6932    2.6061 F   0  0  0  0  0  0  0  0  0  0  0  0
   -0.9608   -4.4905    3.7116 F   0  0  0  0  0  0  0  0  0  0  0  0
   -0.9996   -5.5736    1.8120 F   0  0  0  0  0  0  0  0  0  0  0  0
    0.0409   -2.7570    1.4914 N   0  0  0  0  0  0  0  0  0  0  0  0
   -0.0954   -1.6115    0.7614 N   0  0  0  0  0  0  0  0  0  0  0  0
    1.0865   -0.9930    0.2376 C   0  0  0  0  0  0  0  0  0  0  0  0
    2.3415   -1.4148    0.7188 C   0  0  0  0  0  0  0  0  0  0  0  0
    3.5235   -0.8438    0.2379 C   0  0  0  0  0  0  0  0  0  0  0  0
    3.4579    0.1549   -0.7328 C   0  0  0  0  0  0  0  0  0  0  0  0
    4.9497    0.8588   -1.3694 S   0  0  0  0  0  6  0  0  0  0  0  0
    5.1959    2.1503   -0.3250 N   0  0  0  0  0  0  0  0  0  0  0  0
    4.6863    1.4418   -2.6643 O   0  0  0  0  0  0  0  0  0  0  0  0
    6.0451   -0.0533   -1.1384 O   0  0  0  0  0  0  0  0  0  0  0  0
    2.2253    0.5630   -1.2451 C   0  0  0  0  0  0  0  0  0  0  0  0
    1.0432   -0.0112   -0.7615 C   0  0  0  0  0  0  0  0  0  0  0  0
   -2.8093   -0.0155   -1.0051 C   0  0  0  0  0  0  0  0  0  0  0  0
   -3.3459    1.1767   -1.4983 C   0  0  0  0  0  0  0  0  0  0  0  0
   -3.8109    3.6300   -2.4614 H   0  0  0  0  0  0  0  0  0  0  0  0
   -3.0242    4.5232   -1.1606 H   0  0  0  0  0  0  0  0  0  0  0  0
   -4.6479    3.8374   -0.9030 H   0  0  0  0  0  0  0  0  0  0  0  0
   -2.0723    3.3304    0.8099 H   0  0  0  0  0  0  0  0  0  0  0  0
   -1.1270    1.2355    1.6799 H   0  0  0  0  0  0  0  0  0  0  0  0
   -3.2340   -2.3676    1.2832 H   0  0  0  0  0  0  0  0  0  0  0  0
    2.4176   -2.1903    1.4805 H   0  0  0  0  0  0  0  0  0  0  0  0
    4.4813   -1.1861    0.6237 H   0  0  0  0  0  0  0  0  0  0  0  0
    6.0665    2.0156    0.1900 H   0  0  0  0  0  0  0  0  0  0  0  0
    5.1570    3.0268   -0.8456 H   0  0  0  0  0  0  0  0  0  0  0  0
    2.1723    1.3178   -2.0275 H   0  0  0  0  0  0  0  0  0  0  0  0
    0.1169    0.3121   -1.2228 H   0  0  0  0  0  0  0  0  0  0  0  0
   -3.0338   -0.9490   -1.5162 H   0  0  0  0  0  0  0  0  0  0  0  0
   -3.9825    1.1479   -2.3801 H   0  0  0  0  0  0  0  0  0  0  0  0
  1  2  1  0
  2  3  2  0
  3  4  1  0
  4  5  2  0
  5  6  1  0
  6  7  2  0
  7  8  1  0
  8  9  1  0
  9 10  1  0
  9 11  1  0
  9 12  1  0
  8 13  2  0
 13 14  1  0
 14 15  1  0
 15 16  2  0
 16 17  1  0
 17 18  2  0
 18 19  1  0
 19 20  1  0
 19 21  2  0
 19 22  2  0
 18 23  1  0
 23 24  2  0
  5 25  1  0
 25 26  2  0
 26  2  1  0
 14  6  1  0
 24 15  1  0
  1 27  1  0
  1 28  1  0
  1 29  1  0
  3 30  1  0
  4 31  1  0
  7 32  1  0
 16 33  1  0
 17 34  1  0
 20 35  1  0
 20 36  1  0
 23 37  1  0
 24 38  1  0
 25 39  1  0
 26 40  1  0
M  END
$$$$
