
     RDKit          3D

 99105  0  0  0  0  0  0  0  0999 V2000
   -5.0851   -2.0709    5.4615 C   0  0  0  0  0  0  0  0  0  0  0  0
   -5.7806   -1.7192    4.2751 O   0  0  0  0  0  0  0  0  0  0  0  0
   -5.1046   -1.0009    3.3303 C   0  0  0  0  0  0  0  0  0  0  0  0
   -3.8214   -0.4934    3.4984 C   0  0  0  0  0  0  0  0  0  0  0  0
   -3.1973    0.1813    2.4519 C   0  0  0  0  0  0  0  0  0  0  0  0
   -3.8193    0.3327    1.1933 C   0  0  0  0  0  0  0  0  0  0  0  0
   -3.2114    0.9346    0.0651 C   0  0  0  0  0  0  0  0  0  0  0  0
   -1.9387    1.4349   -0.0052 O   0  0  0  0  0  0  0  0  0  0  0  0
   -0.8551    0.5468    0.2400 C   0  0  1  0  0  0  0  0  0  0  0  0
   -0.7173   -0.6004   -0.7671 C   0  0  0  0  0  0  0  0  0  0  0  0
    0.7564   -1.0330   -0.6416 C   0  0  0  0  0  0  0  0  0  0  0  0
    0.9046   -2.2052    0.3315 C   0  0  0  0  0  0  0  0  0  0  0  0
    0.1111   -2.3790    1.2547 O   0  0  0  0  0  0  0  0  0  0  0  0
    2.0458   -3.0068    0.1502 N   0  0  0  0  0  0  0  0  0  0  0  0
    2.4127   -3.7714    1.3311 C   0  0  0  0  0  0  0  0  0  0  0  0
    2.1589   -3.7406   -1.1146 C   0  0  0  0  0  0  0  0  0  0  0  0
    3.4010   -3.4265   -1.9586 C   0  0  0  0  0  0  0  0  0  0  0  0
    4.7343   -3.8947   -1.3548 C   0  0  0  0  0  0  0  0  0  0  0  0
    5.4997   -2.8109   -0.5814 C   0  0  0  0  0  0  0  0  0  0  0  0
    6.2135   -1.8502   -1.5077 C   0  0  0  0  0  0  0  0  0  0  0  0
    5.8643   -0.5709   -1.7225 C   0  0  0  0  0  0  0  0  0  0  0  0
    4.7048    0.0898   -1.1265 C   0  0  2  0  0  0  0  0  0  0  0  0
    4.5636    1.5735   -1.0587 C   0  0  0  0  0  0  0  0  0  0  0  0
    4.7280    0.7719    0.2337 C   0  0  2  0  0  0  0  0  0  0  0  0
    5.9773    1.2286    1.0190 C   0  0  0  0  0  0  0  0  0  0  0  0
    5.8067    1.9434    1.9951 O   0  0  0  0  0  0  0  0  0  0  0  0
    7.2421    0.8487    0.5936 N   0  0  0  0  0  0  0  0  0  0  0  0
    8.6674    1.3288    1.2868 S   0  0  0  0  0  6  0  0  0  0  0  0
    9.6055    1.3671    0.1853 O   0  0  0  0  0  0  0  0  0  0  0  0
    8.9039    0.4730    2.4298 O   0  0  0  0  0  0  0  0  0  0  0  0
    8.4860    3.0204    1.9189 C   0  0  0  0  0  0  0  0  0  0  0  0
    9.6242    3.9502    1.6091 C   0  0  0  0  0  0  0  0  0  0  0  0
    8.3258    4.0680    0.8501 C   0  0  0  0  0  0  0  0  0  0  0  0
    3.6328    0.4774    1.1561 N   0  0  0  0  0  0  0  0  0  0  0  0
    2.3082    0.1884    1.0843 C   0  0  0  0  0  0  0  0  0  0  0  0
    1.7463   -0.0629    2.1536 O   0  0  0  0  0  0  0  0  0  0  0  0
    1.5157    0.2537   -0.2116 C   0  0  2  0  0  0  0  0  0  0  0  0
    0.4284    1.3251   -0.0303 C   0  0  0  0  0  0  0  0  0  0  0  0
   -3.9437    1.1597   -1.0957 C   0  0  0  0  0  0  0  0  0  0  0  0
   -5.2550    0.7377   -1.1366 C   0  0  0  0  0  0  0  0  0  0  0  0
   -6.1376    1.0141   -2.2757 C   0  0  0  0  0  0  0  0  0  0  0  0
   -7.3056    1.6212   -2.1984 N   0  0  0  0  0  0  0  0  0  0  0  0
   -7.8898    1.7303   -3.4492 C   0  0  0  0  0  0  0  0  0  0  0  0
   -9.2175    2.4240   -3.5681 C   0  0  0  0  0  0  0  0  0  0  0  0
   -9.1386    3.8669   -3.0628 C   0  0  0  0  0  0  0  0  0  0  0  0
  -10.3139    1.6525   -2.8331 C   0  0  0  0  0  0  0  0  0  0  0  0
   -7.1414    1.1773   -4.4748 C   0  0  0  0  0  0  0  0  0  0  0  0
   -5.6729    0.5369   -3.8617 S   0  0  0  0  0  0  0  0  0  0  0  0
   -5.8374    0.0874   -0.1045 N   0  0  0  0  0  0  0  0  0  0  0  0
   -5.1530   -0.1132    1.0401 C   0  0  0  0  0  0  0  0  0  0  0  0
   -5.7834   -0.7660    2.1147 C   0  0  0  0  0  0  0  0  0  0  0  0
   -7.1973   -1.2746    1.9354 C   0  0  0  0  0  0  0  0  0  0  0  0
   -4.1557   -2.5973    5.2348 H   0  0  0  0  0  0  0  0  0  0  0  0
   -4.9125   -1.1866    6.0882 H   0  0  0  0  0  0  0  0  0  0  0  0
   -5.7232   -2.7545    6.0279 H   0  0  0  0  0  0  0  0  0  0  0  0
   -3.2650   -0.6063    4.4282 H   0  0  0  0  0  0  0  0  0  0  0  0
   -2.2064    0.5828    2.6473 H   0  0  0  0  0  0  0  0  0  0  0  0
   -0.8353    0.1773    1.2658 H   0  0  0  0  0  0  0  0  0  0  0  0
   -1.4364   -1.4069   -0.5730 H   0  0  0  0  0  0  0  0  0  0  0  0
   -0.9189   -0.2366   -1.7891 H   0  0  0  0  0  0  0  0  0  0  0  0
    1.1020   -1.3458   -1.6316 H   0  0  0  0  0  0  0  0  0  0  0  0
    1.6806   -4.5696    1.4887 H   0  0  0  0  0  0  0  0  0  0  0  0
    2.4252   -3.1155    2.2124 H   0  0  0  0  0  0  0  0  0  0  0  0
    3.4063   -4.2009    1.1993 H   0  0  0  0  0  0  0  0  0  0  0  0
    1.2642   -3.5423   -1.7189 H   0  0  0  0  0  0  0  0  0  0  0  0
    2.1170   -4.8144   -0.8906 H   0  0  0  0  0  0  0  0  0  0  0  0
    3.2708   -3.9622   -2.9074 H   0  0  0  0  0  0  0  0  0  0  0  0
    3.4181   -2.3666   -2.2219 H   0  0  0  0  0  0  0  0  0  0  0  0
    4.5672   -4.7585   -0.7022 H   0  0  0  0  0  0  0  0  0  0  0  0
    5.3756   -4.2619   -2.1649 H   0  0  0  0  0  0  0  0  0  0  0  0
    4.8233   -2.2907    0.1034 H   0  0  0  0  0  0  0  0  0  0  0  0
    6.2674   -3.2819    0.0446 H   0  0  0  0  0  0  0  0  0  0  0  0
    7.0832   -2.2445   -2.0368 H   0  0  0  0  0  0  0  0  0  0  0  0
    6.4560    0.0011   -2.4394 H   0  0  0  0  0  0  0  0  0  0  0  0
    3.8048   -0.4370   -1.4125 H   0  0  0  0  0  0  0  0  0  0  0  0
    3.6104    2.0471   -1.2575 H   0  0  0  0  0  0  0  0  0  0  0  0
    5.3954    2.1834   -1.4109 H   0  0  0  0  0  0  0  0  0  0  0  0
    7.3906    0.1669   -0.1433 H   0  0  0  0  0  0  0  0  0  0  0  0
    7.9746    3.1445    2.8663 H   0  0  0  0  0  0  0  0  0  0  0  0
   10.4952    3.5857    1.0682 H   0  0  0  0  0  0  0  0  0  0  0  0
    9.8607    4.7140    2.3452 H   0  0  0  0  0  0  0  0  0  0  0  0
    8.3244    3.7683   -0.1955 H   0  0  0  0  0  0  0  0  0  0  0  0
    7.6938    4.9245    1.0714 H   0  0  0  0  0  0  0  0  0  0  0  0
    3.9289    0.4469    2.1337 H   0  0  0  0  0  0  0  0  0  0  0  0
    2.1359    0.5888   -1.0345 H   0  0  0  0  0  0  0  0  0  0  0  0
    0.6290    2.0494    0.7663 H   0  0  0  0  0  0  0  0  0  0  0  0
    0.3209    1.9129   -0.9502 H   0  0  0  0  0  0  0  0  0  0  0  0
   -3.4975    1.6866   -1.9345 H   0  0  0  0  0  0  0  0  0  0  0  0
   -9.4872    2.4570   -4.6326 H   0  0  0  0  0  0  0  0  0  0  0  0
   -8.3578    4.4282   -3.5895 H   0  0  0  0  0  0  0  0  0  0  0  0
   -8.9136    3.9067   -1.9914 H   0  0  0  0  0  0  0  0  0  0  0  0
  -10.0863    4.3848   -3.2261 H   0  0  0  0  0  0  0  0  0  0  0  0
  -11.2917    2.1218   -2.9810 H   0  0  0  0  0  0  0  0  0  0  0  0
  -10.3801    0.6230   -3.2005 H   0  0  0  0  0  0  0  0  0  0  0  0
  -10.1222    1.6071   -1.7535 H   0  0  0  0  0  0  0  0  0  0  0  0
   -7.3789    1.1228   -5.5280 H   0  0  0  0  0  0  0  0  0  0  0  0
   -7.7994   -0.5741    1.3464 H   0  0  0  0  0  0  0  0  0  0  0  0
   -7.7223   -1.3890    2.8909 H   0  0  0  0  0  0  0  0  0  0  0  0
   -7.1820   -2.2446    1.4246 H   0  0  0  0  0  0  0  0  0  0  0  0
  1  2  1  0
  2  3  1  0
  3  4  2  0
  4  5  1  0
  5  6  2  0
  6  7  1  0
  7  8  1  0
  8  9  1  0
  9 10  1  0
 10 11  1  0
 11 12  1  0
 12 13  2  0
 12 14  1  0
 14 15  1  0
 14 16  1  0
 16 17  1  0
 17 18  1  0
 18 19  1  0
 19 20  1  0
 20 21  2  0
 21 22  1  0
 22 23  1  0
 23 24  1  0
 24 25  1  1
 25 26  2  0
 25 27  1  0
 27 28  1  0
 28 29  2  0
 28 30  2  0
 28 31  1  0
 31 32  1  0
 32 33  1  0
 24 34  1  0
 34 35  1  0
 35 36  2  0
 35 37  1  0
 37 38  1  0
  7 39  2  0
 39 40  1  0
 40 41  1  0
 41 42  2  0
 42 43  1  0
 43 44  1  0
 44 45  1  0
 44 46  1  0
 43 47  2  0
 47 48  1  0
 40 49  2  0
 49 50  1  0
 50 51  2  0
 51 52  1  0
 51  3  1  0
 50  6  1  0
 38  9  1  0
 48 41  1  0
 37 11  1  0
 24 22  1  0
 33 31  1  0
  1 53  1  0
  1 54  1  0
  1 55  1  0
  4 56  1  0
  5 57  1  0
  9 58  1  1
 10 59  1  0
 10 60  1  0
 11 61  1  0
 15 62  1  0
 15 63  1  0
 15 64  1  0
 16 65  1  0
 16 66  1  0
 17 67  1  0
 17 68  1  0
 18 69  1  0
 18 70  1  0
 19 71  1  0
 19 72  1  0
 20 73  1  0
 21 74  1  0
 22 75  1  1
 23 76  1  0
 23 77  1  0
 27 78  1  0
 31 79  1  0
 32 80  1  0
 32 81  1  0
 33 82  1  0
 33 83  1  0
 34 84  1  0
 37 85  1  6
 38 86  1  0
 38 87  1  0
 39 88  1  0
 44 89  1  0
 45 90  1  0
 45 91  1  0
 45 92  1  0
 46 93  1  0
 46 94  1  0
 46 95  1  0
 47 96  1  0
 52 97  1  0
 52 98  1  0
 52 99  1  0
M  END
$$$$
