
     RDKit          3D

 33 33  0  0  0  0  0  0  0  0999 V2000
   -5.0618   -0.0558    0.3999 C   0  0  0  0  0  0  0  0  0  0  0  0
   -3.5899   -0.2651    0.6099 C   0  0  0  0  0  0  0  0  0  0  0  0
   -2.7639   -0.0263   -0.6305 C   0  0  0  0  0  0  0  0  0  0  0  0
   -2.8759    1.3552   -1.1762 C   0  0  0  0  0  0  0  0  0  0  0  0
   -1.4403   -0.5057   -0.4146 N   0  0  0  0  0  0  0  0  0  0  0  0
   -0.7327    0.1698    0.6506 C   0  0  0  0  0  0  0  0  0  0  0  0
    0.6344   -0.3784    0.8189 C   0  0  0  0  0  0  0  0  0  0  0  0
    1.7269    0.1319    0.2366 N   0  0  0  0  0  0  0  0  0  0  0  0
    2.8026   -0.5784    0.5795 C   0  0  0  0  0  0  0  0  0  0  0  0
    4.1911   -0.4105    0.2037 C   0  0  0  0  0  0  0  0  0  0  0  0
    4.8416    0.4947   -0.6005 C   0  0  0  0  0  0  0  0  0  0  0  0
    6.1516    0.4141   -0.7706 C   0  0  0  0  0  0  0  0  0  0  0  0
    6.9064   -0.5565   -0.1648 C   0  0  0  0  0  0  0  0  0  0  0  0
    5.5488   -1.4597    0.7629 S   0  0  0  0  0  0  0  0  0  0  0  0
    2.3325   -1.5575    1.4039 N   0  0  0  0  0  0  0  0  0  0  0  0
    1.0438   -1.4001    1.5170 O   0  0  0  0  0  0  0  0  0  0  0  0
    0.6858    0.0000    0.0000 Cl  0  0  0  0  0  0  0  0  0  0  0  0
   -5.3488    1.0009    0.3677 H   0  0  0  0  0  0  0  0  0  0  0  0
   -5.5629   -0.4770    1.3211 H   0  0  0  0  0  0  0  0  0  0  0  0
   -5.4474   -0.6509   -0.4437 H   0  0  0  0  0  0  0  0  0  0  0  0
   -3.4345   -1.3047    0.9504 H   0  0  0  0  0  0  0  0  0  0  0  0
   -3.2380    0.4107    1.4205 H   0  0  0  0  0  0  0  0  0  0  0  0
   -3.2162   -0.7095   -1.4124 H   0  0  0  0  0  0  0  0  0  0  0  0
   -2.9521    2.1479   -0.4027 H   0  0  0  0  0  0  0  0  0  0  0  0
   -2.0634    1.5177   -1.8955 H   0  0  0  0  0  0  0  0  0  0  0  0
   -3.8344    1.4254   -1.7550 H   0  0  0  0  0  0  0  0  0  0  0  0
   -1.3954   -1.5294   -0.3503 H   0  0  0  0  0  0  0  0  0  0  0  0
   -1.2677   -0.0535    1.6014 H   0  0  0  0  0  0  0  0  0  0  0  0
   -0.7119    1.2520    0.5416 H   0  0  0  0  0  0  0  0  0  0  0  0
    4.1774    1.2851   -1.0853 H   0  0  0  0  0  0  0  0  0  0  0  0
    6.7035    1.1489   -1.4280 H   0  0  0  0  0  0  0  0  0  0  0  0
    7.8767   -0.8351   -0.1239 H   0  0  0  0  0  0  0  0  0  0  0  0
   -0.6858    0.0000    0.0000 H   0  0  0  0  0  0  0  0  0  0  0  0
  1  2  1  0
  2  3  1  0
  3  4  1  0
  3  5  1  0
  5  6  1  0
  6  7  1  0
  7  8  2  0
  8  9  1  0
  9 10  1  0
 10 11  2  0
 11 12  1  0
 12 13  2  0
 13 14  1  0
  9 15  2  0
 15 16  1  0
 16  7  1  0
 14 10  1  0
  1 18  1  0
  1 19  1  0
  1 20  1  0
  2 21  1  0
  2 22  1  0
  3 23  1  0
  4 24  1  0
  4 25  1  0
  4 26  1  0
  5 27  1  0
  6 28  1  0
  6 29  1  0
 11 30  1  0
 12 31  1  0
 13 32  1  0
 17 33  1  0
M  END
$$$$
