
     RDKit          3D

 36 35  0  0  0  0  0  0  0  0999 V2000
   -6.5153    0.5772   -0.2939 N   0  0  0  0  0  0  0  0  0  0  0  0
   -5.1286    0.2009   -0.0148 C   0  0  0  0  0  0  0  0  0  0  0  0
   -4.1414    0.7990   -1.0390 C   0  0  0  0  0  0  0  0  0  0  0  0
   -2.7266    0.5487   -0.7465 N   0  0  0  0  0  0  0  0  0  0  0  0
   -2.3496   -0.8591   -0.9547 C   0  0  0  0  0  0  0  0  0  0  0  0
   -0.8294   -1.0714   -0.7717 C   0  0  0  0  0  0  0  0  0  0  0  0
   -0.3382   -0.4212    0.4528 N   0  0  0  0  0  0  0  0  0  0  0  0
    1.0761   -0.7189    0.7196 C   0  0  0  0  0  0  0  0  0  0  0  0
    2.0691   -0.0072   -0.2272 C   0  0  0  0  0  0  0  0  0  0  0  0
    3.4816   -0.3041    0.0516 N   0  0  0  0  0  0  0  0  0  0  0  0
    3.9646    0.3605    1.2721 C   0  0  0  0  0  0  0  0  0  0  0  0
    5.4597    0.0701    1.5296 C   0  0  0  0  0  0  0  0  0  0  0  0
    6.3016    0.2363    0.3400 N   0  0  0  0  0  0  0  0  0  0  0  0
   -6.7680    0.2736   -1.2338 H   0  0  0  0  0  0  0  0  0  0  0  0
   -6.5986    1.5935   -0.2953 H   0  0  0  0  0  0  0  0  0  0  0  0
   -5.0662   -0.8917   -0.0137 H   0  0  0  0  0  0  0  0  0  0  0  0
   -4.8723    0.5425    0.9944 H   0  0  0  0  0  0  0  0  0  0  0  0
   -4.3839    0.4500   -2.0507 H   0  0  0  0  0  0  0  0  0  0  0  0
   -4.2755    1.8878   -1.0551 H   0  0  0  0  0  0  0  0  0  0  0  0
   -2.5431    0.7662    0.2353 H   0  0  0  0  0  0  0  0  0  0  0  0
   -2.6260   -1.1851   -1.9642 H   0  0  0  0  0  0  0  0  0  0  0  0
   -2.8767   -1.4975   -0.2364 H   0  0  0  0  0  0  0  0  0  0  0  0
   -0.3160   -0.6577   -1.6472 H   0  0  0  0  0  0  0  0  0  0  0  0
   -0.6313   -2.1491   -0.7407 H   0  0  0  0  0  0  0  0  0  0  0  0
   -0.4567    0.5859    0.3349 H   0  0  0  0  0  0  0  0  0  0  0  0
    1.2667   -0.3981    1.7493 H   0  0  0  0  0  0  0  0  0  0  0  0
    1.2433   -1.8030    0.7024 H   0  0  0  0  0  0  0  0  0  0  0  0
    1.8768   -0.3411   -1.2531 H   0  0  0  0  0  0  0  0  0  0  0  0
    1.8994    1.0767   -0.2165 H   0  0  0  0  0  0  0  0  0  0  0  0
    4.0378    0.0360   -0.7319 H   0  0  0  0  0  0  0  0  0  0  0  0
    3.8306    1.4449    1.1740 H   0  0  0  0  0  0  0  0  0  0  0  0
    3.4018    0.0284    2.1502 H   0  0  0  0  0  0  0  0  0  0  0  0
    5.5765   -0.9580    1.8909 H   0  0  0  0  0  0  0  0  0  0  0  0
    5.8244    0.7335    2.3210 H   0  0  0  0  0  0  0  0  0  0  0  0
    6.0408   -0.4889   -0.3290 H   0  0  0  0  0  0  0  0  0  0  0  0
    6.0925    1.1287   -0.1027 H   0  0  0  0  0  0  0  0  0  0  0  0
  1  2  1  0
  2  3  1  0
  3  4  1  0
  4  5  1  0
  5  6  1  0
  6  7  1  0
  7  8  1  0
  8  9  1  0
  9 10  1  0
 10 11  1  0
 11 12  1  0
 12 13  1  0
  1 14  1  0
  1 15  1  0
  2 16  1  0
  2 17  1  0
  3 18  1  0
  3 19  1  0
  4 20  1  0
  5 21  1  0
  5 22  1  0
  6 23  1  0
  6 24  1  0
  7 25  1  0
  8 26  1  0
  8 27  1  0
  9 28  1  0
  9 29  1  0
 10 30  1  0
 11 31  1  0
 11 32  1  0
 12 33  1  0
 12 34  1  0
 13 35  1  0
 13 36  1  0
M  END
$$$$
