
     RDKit          3D

 60 61  0  0  0  0  0  0  0  0999 V2000
    7.7257    1.5922    0.2215 C   0  0  0  0  0  0  0  0  0  0  0  0
    7.9580    1.4367   -1.2820 C   0  0  0  0  0  0  0  0  0  0  0  0
    7.1537    2.4836   -2.0571 C   0  0  0  0  0  0  0  0  0  0  0  0
    7.7114    0.0018   -1.7960 C   0  0  0  0  0  0  0  0  0  0  0  0
    6.2698   -0.5109   -1.7385 C   0  0  0  0  0  0  0  0  0  0  0  0
    5.8914   -0.7148   -0.3800 O   0  0  0  0  0  0  0  0  0  0  0  0
    4.5970   -1.0846   -0.1397 C   0  0  0  0  0  0  0  0  0  0  0  0
    3.6354   -1.3850   -1.0991 C   0  0  0  0  0  0  0  0  0  0  0  0
    2.3404   -1.7475   -0.7047 C   0  0  0  0  0  0  0  0  0  0  0  0
    1.9919   -1.8337    0.6499 C   0  0  0  0  0  0  0  0  0  0  0  0
    0.6542   -2.1707    0.9433 N   0  0  0  0  0  0  0  0  0  0  0  0
    0.0484   -2.6177    2.0900 C   0  0  0  0  0  0  0  0  0  0  0  0
    0.7626   -3.3402    3.4213 S   0  0  0  0  0  0  0  0  0  0  0  0
   -1.3267   -2.5707    2.0937 N   0  0  0  0  0  0  0  0  0  0  0  0
   -2.2343   -1.7893    1.3503 C   0  0  0  0  0  0  0  0  0  0  0  0
   -1.8793   -0.6411    0.6420 C   0  0  0  0  0  0  0  0  0  0  0  0
   -2.8487    0.0797   -0.0641 C   0  0  0  0  0  0  0  0  0  0  0  0
   -4.1860   -0.3214   -0.0633 C   0  0  0  0  0  0  0  0  0  0  0  0
   -5.0149    0.4749   -0.8000 O   0  0  0  0  0  0  0  0  0  0  0  0
   -6.3857    0.1066   -0.9434 C   0  0  0  0  0  0  0  0  0  0  0  0
   -7.2514    0.6509    0.1970 C   0  0  0  0  0  0  0  0  0  0  0  0
   -7.1009    2.1637    0.4572 C   0  0  0  0  0  0  0  0  0  0  0  0
   -7.9638    2.5713    1.6578 C   0  0  0  0  0  0  0  0  0  0  0  0
   -7.4820    3.0027   -0.7629 C   0  0  0  0  0  0  0  0  0  0  0  0
   -4.5498   -1.4456    0.6731 C   0  0  0  0  0  0  0  0  0  0  0  0
   -3.5806   -2.1681    1.3825 C   0  0  0  0  0  0  0  0  0  0  0  0
    2.9556   -1.5164    1.6041 C   0  0  0  0  0  0  0  0  0  0  0  0
    4.2497   -1.1531    1.2098 C   0  0  0  0  0  0  0  0  0  0  0  0
    6.6654    1.5264    0.4825 H   0  0  0  0  0  0  0  0  0  0  0  0
    8.0760    2.5739    0.5591 H   0  0  0  0  0  0  0  0  0  0  0  0
    8.2732    0.8295    0.7863 H   0  0  0  0  0  0  0  0  0  0  0  0
    9.0198    1.6503   -1.4617 H   0  0  0  0  0  0  0  0  0  0  0  0
    6.0806    2.4054   -1.8535 H   0  0  0  0  0  0  0  0  0  0  0  0
    7.4689    3.4948   -1.7759 H   0  0  0  0  0  0  0  0  0  0  0  0
    7.3081    2.3747   -3.1365 H   0  0  0  0  0  0  0  0  0  0  0  0
    8.3527   -0.6819   -1.2254 H   0  0  0  0  0  0  0  0  0  0  0  0
    8.0458   -0.0460   -2.8397 H   0  0  0  0  0  0  0  0  0  0  0  0
    5.5968    0.1999   -2.2321 H   0  0  0  0  0  0  0  0  0  0  0  0
    6.2273   -1.4706   -2.2682 H   0  0  0  0  0  0  0  0  0  0  0  0
    3.8538   -1.3485   -2.1612 H   0  0  0  0  0  0  0  0  0  0  0  0
    1.6092   -1.9710   -1.4788 H   0  0  0  0  0  0  0  0  0  0  0  0
    0.0493   -2.2464    0.1346 H   0  0  0  0  0  0  0  0  0  0  0  0
   -1.7349   -3.1535    2.8174 H   0  0  0  0  0  0  0  0  0  0  0  0
   -0.8681   -0.2458    0.6564 H   0  0  0  0  0  0  0  0  0  0  0  0
   -2.5579    0.9742   -0.6111 H   0  0  0  0  0  0  0  0  0  0  0  0
   -6.7260    0.5392   -1.8912 H   0  0  0  0  0  0  0  0  0  0  0  0
   -6.5113   -0.9753   -1.0656 H   0  0  0  0  0  0  0  0  0  0  0  0
   -8.3009    0.4098   -0.0159 H   0  0  0  0  0  0  0  0  0  0  0  0
   -6.9921    0.1237    1.1232 H   0  0  0  0  0  0  0  0  0  0  0  0
   -6.0543    2.3817    0.7120 H   0  0  0  0  0  0  0  0  0  0  0  0
   -7.6720    2.0136    2.5545 H   0  0  0  0  0  0  0  0  0  0  0  0
   -7.8458    3.6379    1.8797 H   0  0  0  0  0  0  0  0  0  0  0  0
   -9.0271    2.3774    1.4682 H   0  0  0  0  0  0  0  0  0  0  0  0
   -7.4621    4.0721   -0.5223 H   0  0  0  0  0  0  0  0  0  0  0  0
   -6.7781    2.8431   -1.5876 H   0  0  0  0  0  0  0  0  0  0  0  0
   -8.4892    2.7542   -1.1180 H   0  0  0  0  0  0  0  0  0  0  0  0
   -5.5771   -1.7888    0.7265 H   0  0  0  0  0  0  0  0  0  0  0  0
   -3.8953   -3.0430    1.9474 H   0  0  0  0  0  0  0  0  0  0  0  0
    2.7351   -1.5073    2.6656 H   0  0  0  0  0  0  0  0  0  0  0  0
    4.9893   -0.9083    1.9684 H   0  0  0  0  0  0  0  0  0  0  0  0
  1  2  1  0
  2  3  1  0
  2  4  1  0
  4  5  1  0
  5  6  1  0
  6  7  1  0
  7  8  2  0
  8  9  1  0
  9 10  2  0
 10 11  1  0
 11 12  1  0
 12 13  2  0
 12 14  1  0
 14 15  1  0
 15 16  2  0
 16 17  1  0
 17 18  2  0
 18 19  1  0
 19 20  1  0
 20 21  1  0
 21 22  1  0
 22 23  1  0
 22 24  1  0
 18 25  1  0
 25 26  2  0
 10 27  1  0
 27 28  2  0
 28  7  1  0
 26 15  1  0
  1 29  1  0
  1 30  1  0
  1 31  1  0
  2 32  1  0
  3 33  1  0
  3 34  1  0
  3 35  1  0
  4 36  1  0
  4 37  1  0
  5 38  1  0
  5 39  1  0
  8 40  1  0
  9 41  1  0
 11 42  1  0
 14 43  1  0
 16 44  1  0
 17 45  1  0
 20 46  1  0
 20 47  1  0
 21 48  1  0
 21 49  1  0
 22 50  1  0
 23 51  1  0
 23 52  1  0
 23 53  1  0
 24 54  1  0
 24 55  1  0
 24 56  1  0
 25 57  1  0
 26 58  1  0
 27 59  1  0
 28 60  1  0
M  END
$$$$
