
     RDKit          3D

 57 61  0  0  0  0  0  0  0  0999 V2000
   -6.9578   -1.2820   -2.5657 C   0  0  0  0  0  0  0  0  0  0  0  0
   -6.9316    0.0995   -2.2157 O   0  0  0  0  0  0  0  0  0  0  0  0
   -6.0621    0.4227   -1.2068 C   0  0  0  0  0  0  0  0  0  0  0  0
   -4.7602   -0.1020   -1.1542 C   0  0  0  0  0  0  0  0  0  0  0  0
   -3.8473    0.2755   -0.1523 C   0  0  0  0  0  0  0  0  0  0  0  0
   -2.5774   -0.3106   -0.1509 N   0  0  0  0  0  0  0  0  0  0  0  0
   -1.4636   -0.2095    0.6788 C   0  0  0  0  0  0  0  0  0  0  0  0
   -1.4558    0.5685    1.7671 N   0  0  0  0  0  0  0  0  0  0  0  0
   -0.3293    0.5904    2.5020 C   0  0  0  0  0  0  0  0  0  0  0  0
    0.7916   -0.1464    2.2028 C   0  0  0  0  0  0  0  0  0  0  0  0
    0.7088   -0.9155    1.0605 C   0  0  0  0  0  0  0  0  0  0  0  0
   -0.4160   -0.9614    0.3052 N   0  0  0  0  0  0  0  0  0  0  0  0
    1.8169   -1.7825    0.6092 C   0  0  0  0  0  0  0  0  0  0  0  0
    1.5157   -3.0359    0.0303 C   0  0  0  0  0  0  0  0  0  0  0  0
    2.5176   -3.9143   -0.3891 C   0  0  0  0  0  0  0  0  0  0  0  0
    3.8500   -3.5576   -0.2343 C   0  0  0  0  0  0  0  0  0  0  0  0
    5.0893   -4.6381   -0.7384 Cl  0  0  0  0  0  0  0  0  0  0  0  0
    4.1881   -2.3296    0.3250 C   0  0  0  0  0  0  0  0  0  0  0  0
    3.1817   -1.4345    0.7362 C   0  0  0  0  0  0  0  0  0  0  0  0
    3.6262   -0.1055    1.2762 C   0  0  0  0  0  0  0  0  0  0  0  0
    4.7282    0.5928    0.5596 C   0  0  0  0  0  0  0  0  0  0  0  0
    5.9065    0.8726    1.2542 C   0  0  0  0  0  0  0  0  0  0  0  0
    6.0687    0.4757    2.5258 F   0  0  0  0  0  0  0  0  0  0  0  0
    6.9582    1.5311    0.6272 C   0  0  0  0  0  0  0  0  0  0  0  0
    6.8312    1.9161   -0.7055 C   0  0  0  0  0  0  0  0  0  0  0  0
    5.6516    1.6431   -1.4084 C   0  0  0  0  0  0  0  0  0  0  0  0
    4.5856    0.9849   -0.7828 C   0  0  0  0  0  0  0  0  0  0  0  0
    3.3975    0.6824   -1.3923 O   0  0  0  0  0  0  0  0  0  0  0  0
    3.1331    1.2829   -2.6538 C   0  0  0  0  0  0  0  0  0  0  0  0
    3.1315    0.4976    2.3067 N   0  0  0  0  0  0  0  0  0  0  0  0
    2.0279   -0.1099    3.0340 C   0  0  0  0  0  0  0  0  0  0  0  0
   -4.2741    1.2094    0.7944 C   0  0  0  0  0  0  0  0  0  0  0  0
   -5.5608    1.7584    0.7427 C   0  0  0  0  0  0  0  0  0  0  0  0
   -6.4601    1.3721   -0.2590 C   0  0  0  0  0  0  0  0  0  0  0  0
   -7.8335    1.9362   -0.2719 C   0  0  0  0  0  0  0  0  0  0  0  0
   -8.8519    1.4141   -0.6832 O   0  0  0  0  0  0  0  0  0  0  0  0
   -7.8644    3.1764    0.2561 O   0  0  0  0  0  0  0  0  0  0  0  0
   -7.9070   -1.4799   -3.0729 H   0  0  0  0  0  0  0  0  0  0  0  0
   -6.9063   -1.9313   -1.6836 H   0  0  0  0  0  0  0  0  0  0  0  0
   -6.1492   -1.5130   -3.2673 H   0  0  0  0  0  0  0  0  0  0  0  0
   -4.4355   -0.8033   -1.9175 H   0  0  0  0  0  0  0  0  0  0  0  0
   -2.3540   -0.9361   -0.9106 H   0  0  0  0  0  0  0  0  0  0  0  0
   -0.3629    1.2454    3.3683 H   0  0  0  0  0  0  0  0  0  0  0  0
    0.4756   -3.3395   -0.0900 H   0  0  0  0  0  0  0  0  0  0  0  0
    2.2468   -4.8714   -0.8275 H   0  0  0  0  0  0  0  0  0  0  0  0
    5.2387   -2.0768    0.4435 H   0  0  0  0  0  0  0  0  0  0  0  0
    7.8697    1.7350    1.1809 H   0  0  0  0  0  0  0  0  0  0  0  0
    7.6517    2.4299   -1.2018 H   0  0  0  0  0  0  0  0  0  0  0  0
    5.5981    1.9570   -2.4466 H   0  0  0  0  0  0  0  0  0  0  0  0
    2.1086    1.0233   -2.9382 H   0  0  0  0  0  0  0  0  0  0  0  0
    3.8014    0.8858   -3.4241 H   0  0  0  0  0  0  0  0  0  0  0  0
    3.1980    2.3744   -2.5965 H   0  0  0  0  0  0  0  0  0  0  0  0
    2.2865   -1.1123    3.3991 H   0  0  0  0  0  0  0  0  0  0  0  0
    1.8528    0.4873    3.9370 H   0  0  0  0  0  0  0  0  0  0  0  0
   -3.6151    1.5398    1.5922 H   0  0  0  0  0  0  0  0  0  0  0  0
   -5.8526    2.4839    1.4990 H   0  0  0  0  0  0  0  0  0  0  0  0
   -8.8056    3.4349    0.1664 H   0  0  0  0  0  0  0  0  0  0  0  0
  1  2  1  0
  2  3  1  0
  3  4  2  0
  4  5  1  0
  5  6  1  0
  6  7  1  0
  7  8  2  0
  8  9  1  0
  9 10  2  0
 10 11  1  0
 11 12  2  0
 11 13  1  0
 13 14  2  0
 14 15  1  0
 15 16  2  0
 16 17  1  0
 16 18  1  0
 18 19  2  0
 19 20  1  0
 20 21  1  0
 21 22  2  0
 22 23  1  0
 22 24  1  0
 24 25  2  0
 25 26  1  0
 26 27  2  0
 27 28  1  0
 28 29  1  0
 20 30  2  0
 30 31  1  0
  5 32  2  0
 32 33  1  0
 33 34  2  0
 34 35  1  0
 35 36  2  0
 35 37  1  0
 34  3  1  0
 12  7  1  0
 19 13  1  0
 27 21  1  0
 31 10  1  0
  1 38  1  0
  1 39  1  0
  1 40  1  0
  4 41  1  0
  6 42  1  0
  9 43  1  0
 14 44  1  0
 15 45  1  0
 18 46  1  0
 24 47  1  0
 25 48  1  0
 26 49  1  0
 29 50  1  0
 29 51  1  0
 29 52  1  0
 31 53  1  0
 31 54  1  0
 32 55  1  0
 33 56  1  0
 37 57  1  0
M  END
$$$$
