
     RDKit          3D

 43 45  0  0  0  0  0  0  0  0999 V2000
    6.7948   -1.7662   -0.5278 C   0  0  0  0  0  0  0  0  0  0  0  0
    5.4249   -1.2038   -0.8625 C   0  0  0  0  0  0  0  0  0  0  0  0
    4.6815   -1.1052    0.3510 O   0  0  0  0  0  0  0  0  0  0  0  0
    3.4155   -0.5978    0.2654 C   0  0  0  0  0  0  0  0  0  0  0  0
    2.7661   -0.1991   -0.9001 C   0  0  0  0  0  0  0  0  0  0  0  0
    1.4601    0.3058   -0.8424 C   0  0  0  0  0  0  0  0  0  0  0  0
    0.7746    0.4091    0.3771 C   0  0  0  0  0  0  0  0  0  0  0  0
   -0.5593    0.9418    0.4265 N   0  0  0  0  0  0  0  0  0  0  0  0
   -1.6077    0.3276    1.1283 C   0  0  0  0  0  0  0  0  0  0  0  0
   -1.4140   -1.2968    1.7747 S   0  0  0  0  0  0  0  0  0  0  0  0
   -2.2571   -2.3067    0.5057 C   0  0  0  0  0  0  0  0  0  0  0  0
   -3.7680   -2.0967    0.5030 C   0  0  0  0  0  0  0  0  0  0  0  0
   -1.6595   -2.1121   -0.8843 C   0  0  0  0  0  0  0  0  0  0  0  0
   -2.7834    0.8478    1.3080 N   0  0  0  0  0  0  0  0  0  0  0  0
   -3.0077    2.0630    0.7409 C   0  0  0  0  0  0  0  0  0  0  0  0
   -2.1373    2.7234   -0.0168 C   0  0  0  0  0  0  0  0  0  0  0  0
   -0.7929    2.1556   -0.2435 C   0  0  0  0  0  0  0  0  0  0  0  0
    0.0182    2.7562   -0.9472 O   0  0  0  0  0  0  0  0  0  0  0  0
   -2.6863    4.2274   -0.6352 S   0  0  0  0  0  0  0  0  0  0  0  0
   -4.4009    3.8893   -0.0990 C   0  0  0  0  0  0  0  0  0  0  0  0
   -4.3244    2.7547    0.9280 C   0  0  0  0  0  0  0  0  0  0  0  0
    1.4465    0.0258    1.5448 C   0  0  0  0  0  0  0  0  0  0  0  0
    2.7497   -0.4797    1.4855 C   0  0  0  0  0  0  0  0  0  0  0  0
    7.4075   -1.8626   -1.4285 H   0  0  0  0  0  0  0  0  0  0  0  0
    7.3141   -1.1175    0.1855 H   0  0  0  0  0  0  0  0  0  0  0  0
    6.7028   -2.7499   -0.0556 H   0  0  0  0  0  0  0  0  0  0  0  0
    5.5460   -0.2136   -1.3168 H   0  0  0  0  0  0  0  0  0  0  0  0
    4.9218   -1.8809   -1.5624 H   0  0  0  0  0  0  0  0  0  0  0  0
    3.2433   -0.2607   -1.8725 H   0  0  0  0  0  0  0  0  0  0  0  0
    0.9837    0.6060   -1.7737 H   0  0  0  0  0  0  0  0  0  0  0  0
   -2.0728   -3.3463    0.8011 H   0  0  0  0  0  0  0  0  0  0  0  0
   -4.2490   -2.8456   -0.1367 H   0  0  0  0  0  0  0  0  0  0  0  0
   -4.0509   -1.1159    0.1094 H   0  0  0  0  0  0  0  0  0  0  0  0
   -4.1918   -2.2071    1.5070 H   0  0  0  0  0  0  0  0  0  0  0  0
   -0.5795   -2.2940   -0.8840 H   0  0  0  0  0  0  0  0  0  0  0  0
   -2.1068   -2.8215   -1.5897 H   0  0  0  0  0  0  0  0  0  0  0  0
   -1.8453   -1.1075   -1.2777 H   0  0  0  0  0  0  0  0  0  0  0  0
   -4.9818    3.5774   -0.9736 H   0  0  0  0  0  0  0  0  0  0  0  0
   -4.8619    4.7875    0.3218 H   0  0  0  0  0  0  0  0  0  0  0  0
   -5.1648    2.0655    0.7899 H   0  0  0  0  0  0  0  0  0  0  0  0
   -4.3876    3.1558    1.9466 H   0  0  0  0  0  0  0  0  0  0  0  0
    0.9859    0.1406    2.5231 H   0  0  0  0  0  0  0  0  0  0  0  0
    3.2537   -0.7733    2.4035 H   0  0  0  0  0  0  0  0  0  0  0  0
  1  2  1  0
  2  3  1  0
  3  4  1  0
  4  5  2  0
  5  6  1  0
  6  7  2  0
  7  8  1  0
  8  9  1  0
  9 10  1  0
 10 11  1  0
 11 12  1  0
 11 13  1  0
  9 14  2  0
 14 15  1  0
 15 16  2  0
 16 17  1  0
 17 18  2  0
 16 19  1  0
 19 20  1  0
 20 21  1  0
  7 22  1  0
 22 23  2  0
 23  4  1  0
 17  8  1  0
 21 15  1  0
  1 24  1  0
  1 25  1  0
  1 26  1  0
  2 27  1  0
  2 28  1  0
  5 29  1  0
  6 30  1  0
 11 31  1  0
 12 32  1  0
 12 33  1  0
 12 34  1  0
 13 35  1  0
 13 36  1  0
 13 37  1  0
 20 38  1  0
 20 39  1  0
 21 40  1  0
 21 41  1  0
 22 42  1  0
 23 43  1  0
M  END
$$$$
