
     RDKit          3D

 30 32  0  0  0  0  0  0  0  0999 V2000
    6.2851    0.3157   -0.7335 N   0  0  0  0  0  0  0  0  0  0  0  0
    5.1260    0.2837   -0.6844 C   0  0  0  0  0  0  0  0  0  0  0  0
    3.6940    0.2415   -0.6296 C   0  0  0  0  0  0  0  0  0  0  0  0
    3.0489   -0.2927    0.4886 C   0  0  0  0  0  0  0  0  0  0  0  0
    1.6530   -0.3360    0.5396 C   0  0  0  0  0  0  0  0  0  0  0  0
    0.8802    0.1594   -0.5248 C   0  0  0  0  0  0  0  0  0  0  0  0
   -0.6405    0.1109   -0.4934 C   0  0  0  0  0  0  0  0  0  0  0  0
   -1.1465   -1.3385   -0.6640 C   0  0  0  0  0  0  0  0  0  0  0  0
   -2.6387   -1.4516   -0.3408 C   0  0  0  0  0  0  0  0  0  0  0  0
   -2.9095   -1.0403    1.1082 C   0  0  0  0  0  0  0  0  0  0  0  0
   -2.2560    0.2543    1.4274 C   0  0  0  0  0  0  0  0  0  0  0  0
   -2.4830    1.2009    2.4011 C   0  0  0  0  0  0  0  0  0  0  0  0
   -1.6145    2.2537    2.2681 N   0  0  0  0  0  0  0  0  0  0  0  0
   -0.8640    1.9606    1.2296 C   0  0  0  0  0  0  0  0  0  0  0  0
   -1.1921    0.7431    0.7070 N   0  0  0  0  0  0  0  0  0  0  0  0
    1.5392    0.6901   -1.6452 C   0  0  0  0  0  0  0  0  0  0  0  0
    2.9357    0.7322   -1.6963 C   0  0  0  0  0  0  0  0  0  0  0  0
    3.6257   -0.6770    1.3284 H   0  0  0  0  0  0  0  0  0  0  0  0
    1.1724   -0.7535    1.4241 H   0  0  0  0  0  0  0  0  0  0  0  0
   -1.0434    0.7156   -1.3182 H   0  0  0  0  0  0  0  0  0  0  0  0
   -0.9609   -1.6756   -1.6912 H   0  0  0  0  0  0  0  0  0  0  0  0
   -0.5961   -2.0258   -0.0078 H   0  0  0  0  0  0  0  0  0  0  0  0
   -3.2088   -0.8103   -1.0250 H   0  0  0  0  0  0  0  0  0  0  0  0
   -2.9810   -2.4799   -0.5021 H   0  0  0  0  0  0  0  0  0  0  0  0
   -3.9905   -0.9724    1.2738 H   0  0  0  0  0  0  0  0  0  0  0  0
   -2.5233   -1.8097    1.7877 H   0  0  0  0  0  0  0  0  0  0  0  0
   -3.2304    1.1868    3.1841 H   0  0  0  0  0  0  0  0  0  0  0  0
   -0.0790    2.5872    0.8260 H   0  0  0  0  0  0  0  0  0  0  0  0
    0.9720    1.0773   -2.4902 H   0  0  0  0  0  0  0  0  0  0  0  0
    3.4260    1.1502   -2.5741 H   0  0  0  0  0  0  0  0  0  0  0  0
  1  2  3  0
  2  3  1  0
  3  4  2  0
  4  5  1  0
  5  6  2  0
  6  7  1  0
  7  8  1  0
  8  9  1  0
  9 10  1  0
 10 11  1  0
 11 12  2  0
 12 13  1  0
 13 14  2  0
 14 15  1  0
  6 16  1  0
 16 17  2  0
 17  3  1  0
 15  7  1  0
 15 11  1  0
  4 18  1  0
  5 19  1  0
  7 20  1  0
  8 21  1  0
  8 22  1  0
  9 23  1  0
  9 24  1  0
 10 25  1  0
 10 26  1  0
 12 27  1  0
 14 28  1  0
 16 29  1  0
 17 30  1  0
M  END
$$$$
