
     RDKit          3D

 36 38  0  0  0  0  0  0  0  0999 V2000
    5.9033    0.8269   -2.2498 C   0  0  0  0  0  0  0  0  0  0  0  0
    4.7718   -0.5895   -2.2935 S   0  0  0  0  0  0  0  0  0  0  0  0
    3.9515   -0.3961   -0.7194 C   0  0  0  0  0  0  0  0  0  0  0  0
    4.6617   -0.2535    0.4735 C   0  0  0  0  0  0  0  0  0  0  0  0
    3.9782   -0.1133    1.6809 C   0  0  0  0  0  0  0  0  0  0  0  0
    2.5811   -0.1256    1.7066 C   0  0  0  0  0  0  0  0  0  0  0  0
    1.8555   -0.2894    0.5266 C   0  0  0  0  0  0  0  0  0  0  0  0
    0.4475   -0.3156    0.4636 N   0  0  0  0  0  0  0  0  0  0  0  0
   -0.4496   -0.2786    1.5140 C   0  0  0  0  0  0  0  0  0  0  0  0
   -0.1640   -0.2982    2.7054 O   0  0  0  0  0  0  0  0  0  0  0  0
   -1.8480   -0.2718    1.0789 C   0  0  0  0  0  0  0  0  0  0  0  0
   -2.8749   -0.8643    1.8015 C   0  0  0  0  0  0  0  0  0  0  0  0
   -4.0448   -0.7011    1.1125 N   0  0  0  0  0  0  0  0  0  0  0  0
   -5.3404   -1.1855    1.5254 C   0  0  0  0  0  0  0  0  0  0  0  0
   -3.8151    0.0124   -0.0334 C   0  0  0  0  0  0  0  0  0  0  0  0
   -4.7607    0.3551   -0.9316 N   0  0  0  0  0  0  0  0  0  0  0  0
   -4.2842    1.0933   -1.9561 C   0  0  0  0  0  0  0  0  0  0  0  0
   -2.9664    1.4926   -2.1177 C   0  0  0  0  0  0  0  0  0  0  0  0
   -2.0222    1.1090   -1.1646 C   0  0  0  0  0  0  0  0  0  0  0  0
   -2.4556    0.3207   -0.0798 C   0  0  0  0  0  0  0  0  0  0  0  0
    2.5513   -0.4254   -0.6833 C   0  0  0  0  0  0  0  0  0  0  0  0
    6.3869    0.9248   -3.2255 H   0  0  0  0  0  0  0  0  0  0  0  0
    5.3563    1.7503   -2.0404 H   0  0  0  0  0  0  0  0  0  0  0  0
    6.6814    0.6829   -1.4961 H   0  0  0  0  0  0  0  0  0  0  0  0
    5.7480   -0.2636    0.4831 H   0  0  0  0  0  0  0  0  0  0  0  0
    4.5319   -0.0001    2.6100 H   0  0  0  0  0  0  0  0  0  0  0  0
    2.0917   -0.0089    2.6688 H   0  0  0  0  0  0  0  0  0  0  0  0
    0.0463   -0.4563   -0.4535 H   0  0  0  0  0  0  0  0  0  0  0  0
   -2.8441   -1.3948    2.7456 H   0  0  0  0  0  0  0  0  0  0  0  0
   -6.0075   -0.3288    1.6514 H   0  0  0  0  0  0  0  0  0  0  0  0
   -5.7201   -1.8612    0.7547 H   0  0  0  0  0  0  0  0  0  0  0  0
   -5.2451   -1.7223    2.4728 H   0  0  0  0  0  0  0  0  0  0  0  0
   -5.0346    1.3826   -2.6886 H   0  0  0  0  0  0  0  0  0  0  0  0
   -2.6790    2.1012   -2.9685 H   0  0  0  0  0  0  0  0  0  0  0  0
   -0.9921    1.4370   -1.2594 H   0  0  0  0  0  0  0  0  0  0  0  0
    2.0043   -0.5560   -1.6141 H   0  0  0  0  0  0  0  0  0  0  0  0
  1  2  1  0
  2  3  1  0
  3  4  2  0
  4  5  1  0
  5  6  2  0
  6  7  1  0
  7  8  1  0
  8  9  1  0
  9 10  2  0
  9 11  1  0
 11 12  2  0
 12 13  1  0
 13 14  1  0
 13 15  1  0
 15 16  2  0
 16 17  1  0
 17 18  2  0
 18 19  1  0
 19 20  2  0
  7 21  2  0
 21  3  1  0
 20 11  1  0
 20 15  1  0
  1 22  1  0
  1 23  1  0
  1 24  1  0
  4 25  1  0
  5 26  1  0
  6 27  1  0
  8 28  1  0
 12 29  1  0
 14 30  1  0
 14 31  1  0
 14 32  1  0
 17 33  1  0
 18 34  1  0
 19 35  1  0
 21 36  1  0
M  END
$$$$
