
     RDKit          3D

 17 16  0  0  0  0  0  0  0  0999 V2000
   -0.5651   -1.4771    0.7477 N   0  0  0  0  0  0  0  0  0  0  0  0
   -1.1664   -0.1438    0.8369 C   0  0  0  0  0  0  0  0  0  0  0  0
   -0.8035    0.7661   -0.3529 C   0  0  2  0  0  0  0  0  0  0  0  0
   -1.1044    0.1033   -1.5868 O   0  0  0  0  0  0  0  0  0  0  0  0
    0.6317    1.2913   -0.3448 C   0  0  0  0  0  0  0  0  0  0  0  0
    1.6853    0.2222   -0.3127 C   0  0  0  0  0  0  0  0  0  0  0  0
    2.6142    0.1539    0.4757 O   0  0  0  0  0  0  0  0  0  0  0  0
    1.5786   -0.6605   -1.3286 O   0  0  0  0  0  0  0  0  0  0  0  0
   -0.8637   -2.0279    1.5532 H   0  0  0  0  0  0  0  0  0  0  0  0
   -0.9655   -1.9483   -0.0663 H   0  0  0  0  0  0  0  0  0  0  0  0
   -0.8695    0.3312    1.7779 H   0  0  0  0  0  0  0  0  0  0  0  0
   -2.2544   -0.2758    0.8612 H   0  0  0  0  0  0  0  0  0  0  0  0
   -1.4694    1.6365   -0.3132 H   0  0  0  0  0  0  0  0  0  0  0  0
   -0.3652   -0.5199   -1.7439 H   0  0  0  0  0  0  0  0  0  0  0  0
    0.8208    1.9044   -1.2336 H   0  0  0  0  0  0  0  0  0  0  0  0
    0.7800    1.9280    0.5353 H   0  0  0  0  0  0  0  0  0  0  0  0
    2.3166   -1.2836   -1.1525 H   0  0  0  0  0  0  0  0  0  0  0  0
  1  2  1  0
  2  3  1  0
  3  4  1  0
  3  5  1  0
  5  6  1  0
  6  7  2  0
  6  8  1  0
  1  9  1  0
  1 10  1  0
  2 11  1  0
  2 12  1  0
  3 13  1  1
  4 14  1  0
  5 15  1  0
  5 16  1  0
  8 17  1  0
M  END
$$$$
