
     RDKit          3D

 43 44  0  0  0  0  0  0  0  0999 V2000
   -7.4383    2.4488   -1.1634 C   0  0  0  0  0  0  0  0  0  0  0  0
   -6.3284    1.6291   -0.5267 C   0  0  0  0  0  0  0  0  0  0  0  0
   -5.0029    1.8203   -1.2578 C   0  0  0  0  0  0  0  0  0  0  0  0
   -3.9376    1.0630   -0.6332 N   0  0  0  0  0  0  0  0  0  0  0  0
   -3.7274   -0.2692   -0.9206 C   0  0  0  0  0  0  0  0  0  0  0  0
   -4.3886   -0.8992   -1.7374 O   0  0  0  0  0  0  0  0  0  0  0  0
   -2.5994   -0.8742   -0.1057 C   0  0  0  0  0  0  0  0  0  0  0  0
   -2.3140   -2.3231   -0.5056 C   0  0  0  0  0  0  0  0  0  0  0  0
   -1.2863   -3.0053    0.3993 C   0  0  0  0  0  0  0  0  0  0  0  0
    0.0763   -2.4009    0.2839 C   0  0  0  0  0  0  0  0  0  0  0  0
    0.8092   -2.4031   -0.8114 N   0  0  0  0  0  0  0  0  0  0  0  0
    2.0222   -1.7718   -0.6300 N   0  0  0  0  0  0  0  0  0  0  0  0
    2.1599   -1.3187    0.6018 C   0  0  0  0  0  0  0  0  0  0  0  0
    3.3487   -0.6098    1.0561 C   0  0  0  0  0  0  0  0  0  0  0  0
    3.4755   -0.1688    2.1952 O   0  0  0  0  0  0  0  0  0  0  0  0
    4.3032   -0.4944    0.0529 N   0  0  0  0  0  0  0  0  0  0  0  0
    5.5682    0.1208    0.1110 C   0  0  0  0  0  0  0  0  0  0  0  0
    6.3389    0.0941   -1.0604 C   0  0  0  0  0  0  0  0  0  0  0  0
    7.6070    0.6796   -1.0970 C   0  0  0  0  0  0  0  0  0  0  0  0
    8.1173    1.2989    0.0405 C   0  0  0  0  0  0  0  0  0  0  0  0
    7.3555    1.3279    1.2063 C   0  0  0  0  0  0  0  0  0  0  0  0
    7.9894    2.0952    2.6121 Cl  0  0  0  0  0  0  0  0  0  0  0  0
    6.0869    0.7436    1.2478 C   0  0  0  0  0  0  0  0  0  0  0  0
    0.8249   -1.6269    1.6259 S   0  0  0  0  0  0  0  0  0  0  0  0
   -7.5949    2.1538   -2.2059 H   0  0  0  0  0  0  0  0  0  0  0  0
   -7.2000    3.5170   -1.1401 H   0  0  0  0  0  0  0  0  0  0  0  0
   -8.3782    2.2988   -0.6230 H   0  0  0  0  0  0  0  0  0  0  0  0
   -6.6123    0.5701   -0.5308 H   0  0  0  0  0  0  0  0  0  0  0  0
   -6.2180    1.9209    0.5246 H   0  0  0  0  0  0  0  0  0  0  0  0
   -5.0949    1.5103   -2.3048 H   0  0  0  0  0  0  0  0  0  0  0  0
   -4.7012    2.8728   -1.2386 H   0  0  0  0  0  0  0  0  0  0  0  0
   -3.4165    1.4961    0.1179 H   0  0  0  0  0  0  0  0  0  0  0  0
   -1.7059   -0.2566   -0.2506 H   0  0  0  0  0  0  0  0  0  0  0  0
   -2.8851   -0.8272    0.9518 H   0  0  0  0  0  0  0  0  0  0  0  0
   -3.2455   -2.9018   -0.4601 H   0  0  0  0  0  0  0  0  0  0  0  0
   -1.9811   -2.3557   -1.5510 H   0  0  0  0  0  0  0  0  0  0  0  0
   -1.2128   -4.0619    0.1131 H   0  0  0  0  0  0  0  0  0  0  0  0
   -1.6415   -2.9901    1.4367 H   0  0  0  0  0  0  0  0  0  0  0  0
    4.0365   -0.9158   -0.8340 H   0  0  0  0  0  0  0  0  0  0  0  0
    5.9632   -0.3836   -1.9628 H   0  0  0  0  0  0  0  0  0  0  0  0
    8.1941    0.6516   -2.0116 H   0  0  0  0  0  0  0  0  0  0  0  0
    9.1034    1.7548    0.0140 H   0  0  0  0  0  0  0  0  0  0  0  0
    5.5306    0.7904    2.1777 H   0  0  0  0  0  0  0  0  0  0  0  0
  1  2  1  0
  2  3  1  0
  3  4  1  0
  4  5  1  0
  5  6  2  0
  5  7  1  0
  7  8  1  0
  8  9  1  0
  9 10  1  0
 10 11  2  0
 11 12  1  0
 12 13  2  0
 13 14  1  0
 14 15  2  0
 14 16  1  0
 16 17  1  0
 17 18  2  0
 18 19  1  0
 19 20  2  0
 20 21  1  0
 21 22  1  0
 21 23  2  0
 13 24  1  0
 24 10  1  0
 23 17  1  0
  1 25  1  0
  1 26  1  0
  1 27  1  0
  2 28  1  0
  2 29  1  0
  3 30  1  0
  3 31  1  0
  4 32  1  0
  7 33  1  0
  7 34  1  0
  8 35  1  0
  8 36  1  0
  9 37  1  0
  9 38  1  0
 16 39  1  0
 18 40  1  0
 19 41  1  0
 20 42  1  0
 23 43  1  0
M  END
$$$$
