
     RDKit          3D

 21 21  0  0  0  0  0  0  0  0999 V2000
   -2.6601    0.1334   -1.3472 N   0  0  0  0  0  0  0  0  0  0  0  0
   -2.4260    0.4321    0.0672 C   0  0  0  0  0  0  0  0  0  0  0  0
   -1.4682   -0.5624    0.7403 C   0  0  0  0  0  0  0  0  0  0  0  0
   -0.0088   -0.2963    0.4528 C   0  0  0  0  0  0  0  0  0  0  0  0
    0.5503   -0.6391   -0.7866 C   0  0  0  0  0  0  0  0  0  0  0  0
    1.8987   -0.3908   -1.0538 C   0  0  0  0  0  0  0  0  0  0  0  0
    2.6910    0.2024   -0.0772 C   0  0  0  0  0  0  0  0  0  0  0  0
    4.0116    0.4634   -0.2956 O   0  0  0  0  0  0  0  0  0  0  0  0
    2.1566    0.5509    1.1566 C   0  0  0  0  0  0  0  0  0  0  0  0
    0.8084    0.3040    1.4219 C   0  0  0  0  0  0  0  0  0  0  0  0
   -3.1108   -0.7763   -1.4340 H   0  0  0  0  0  0  0  0  0  0  0  0
   -3.3139    0.8156   -1.7291 H   0  0  0  0  0  0  0  0  0  0  0  0
   -3.3934    0.3912    0.5808 H   0  0  0  0  0  0  0  0  0  0  0  0
   -2.0485    1.4563    0.1632 H   0  0  0  0  0  0  0  0  0  0  0  0
   -1.7135   -1.5942    0.4569 H   0  0  0  0  0  0  0  0  0  0  0  0
   -1.6291   -0.5136    1.8253 H   0  0  0  0  0  0  0  0  0  0  0  0
   -0.0702   -1.0941   -1.5559 H   0  0  0  0  0  0  0  0  0  0  0  0
    2.3042   -0.6624   -2.0227 H   0  0  0  0  0  0  0  0  0  0  0  0
    4.2327    0.1805   -1.1978 H   0  0  0  0  0  0  0  0  0  0  0  0
    2.7866    1.0152    1.9096 H   0  0  0  0  0  0  0  0  0  0  0  0
    0.4025    0.5842    2.3908 H   0  0  0  0  0  0  0  0  0  0  0  0
  1  2  1  0
  2  3  1  0
  3  4  1  0
  4  5  2  0
  5  6  1  0
  6  7  2  0
  7  8  1  0
  7  9  1  0
  9 10  2  0
 10  4  1  0
  1 11  1  0
  1 12  1  0
  2 13  1  0
  2 14  1  0
  3 15  1  0
  3 16  1  0
  5 17  1  0
  6 18  1  0
  8 19  1  0
  9 20  1  0
 10 21  1  0
M  END
$$$$
