
     RDKit          3D

 71 72  0  0  0  0  0  0  0  0999 V2000
   -1.6826   -2.3336    1.5430 C   0  0  0  0  0  0  0  0  0  0  0  0
   -2.7935   -1.4326    0.9868 C   0  0  0  0  0  0  0  0  0  0  0  0
   -4.1549   -2.0459    1.3626 C   0  0  0  0  0  0  0  0  0  0  0  0
   -5.3362   -1.1971    0.8990 C   0  0  0  0  0  0  0  0  0  0  0  0
   -4.9296   -0.1504   -0.1296 C   0  0  0  0  0  0  0  0  0  0  0  0
   -3.8773   -0.6644   -1.1220 C   0  0  0  0  0  0  0  0  0  0  0  0
   -4.4757   -1.6916   -2.0892 C   0  0  0  0  0  0  0  0  0  0  0  0
   -2.6999   -1.2793   -0.4741 N   0  0  0  0  0  0  0  0  0  0  0  0
   -1.4372   -0.7168   -0.9845 C   0  0  0  0  0  0  0  0  0  0  0  0
   -1.0511    0.6769   -0.4456 C   0  0  0  0  0  0  0  0  0  0  0  0
    0.1491    1.1775   -1.1644 N   0  0  0  0  0  0  0  0  0  0  0  0
    1.3221    1.4810   -0.3035 C   0  0  0  0  0  0  0  0  0  0  0  0
    2.1184    0.2036   -0.0599 C   0  0  0  0  0  0  0  0  0  0  0  0
    3.3173    0.4719    0.8282 C   0  0  0  0  0  0  0  0  0  0  0  0
    3.5010    1.5840    1.3250 O   0  0  0  0  0  0  0  0  0  0  0  0
    4.1883   -0.5909    1.0440 N   0  0  0  0  0  0  0  0  0  0  0  0
    3.8378   -1.9928    0.7805 C   0  0  0  0  0  0  0  0  0  0  0  0
    5.0770   -2.8855    0.5852 C   0  0  0  0  0  0  0  0  0  0  0  0
    6.0572   -2.7486    1.6727 N   0  0  0  0  0  0  0  0  0  0  0  0
    6.4530   -1.3362    1.7987 C   0  0  0  0  0  0  0  0  0  0  0  0
    5.2550   -0.4010    2.0319 C   0  0  0  0  0  0  0  0  0  0  0  0
   -0.1140    2.2047   -2.4922 S   0  0  0  0  0  6  0  0  0  0  0  0
   -1.3390    1.8117   -3.1535 O   0  0  0  0  0  0  0  0  0  0  0  0
    1.1353    2.2966   -3.2198 O   0  0  0  0  0  0  0  0  0  0  0  0
   -0.3729    3.8601   -1.8718 C   0  0  0  0  0  0  0  0  0  0  0  0
    0.4829    4.9431   -1.7763 C   0  0  0  0  0  0  0  0  0  0  0  0
   -0.1435    6.0848   -1.1989 C   0  0  0  0  0  0  0  0  0  0  0  0
   -1.4582    5.8375   -0.8730 C   0  0  0  0  0  0  0  0  0  0  0  0
   -1.9250    4.2381   -1.2600 S   0  0  0  0  0  0  0  0  0  0  0  0
    0.9313    1.3526    0.6572 O   0  0  0  0  0  0  0  0  0  0  0  0
    0.5234    0.3387    0.1034 C   0  0  0  0  0  0  0  0  0  0  0  0
    1.4255   -0.4823   -0.4953 O   0  0  0  0  0  0  0  0  0  0  0  0
   -0.9235   -0.1614    0.0365 C   0  0  0  0  0  0  0  0  0  0  0  0
   -1.2373   -0.7087   -1.1723 F   0  0  0  0  0  0  0  0  0  0  0  0
   -1.8344    0.8287    0.2525 F   0  0  0  0  0  0  0  0  0  0  0  0
   -1.1761   -1.1236    0.9687 F   0  0  0  0  0  0  0  0  0  0  0  0
   -0.6953   -1.8734    1.4362 H   0  0  0  0  0  0  0  0  0  0  0  0
   -1.6651   -3.3051    1.0360 H   0  0  0  0  0  0  0  0  0  0  0  0
   -1.8327   -2.5174    2.6127 H   0  0  0  0  0  0  0  0  0  0  0  0
   -2.7132   -0.4556    1.4807 H   0  0  0  0  0  0  0  0  0  0  0  0
   -4.2415   -3.0485    0.9220 H   0  0  0  0  0  0  0  0  0  0  0  0
   -4.2233   -2.1883    2.4483 H   0  0  0  0  0  0  0  0  0  0  0  0
   -6.1110   -1.8536    0.4850 H   0  0  0  0  0  0  0  0  0  0  0  0
   -5.7939   -0.6926    1.7581 H   0  0  0  0  0  0  0  0  0  0  0  0
   -4.5201    0.7224    0.3968 H   0  0  0  0  0  0  0  0  0  0  0  0
   -5.8193    0.2089   -0.6610 H   0  0  0  0  0  0  0  0  0  0  0  0
   -3.5805    0.2021   -1.7279 H   0  0  0  0  0  0  0  0  0  0  0  0
   -5.3448   -1.2724   -2.6075 H   0  0  0  0  0  0  0  0  0  0  0  0
   -4.7991   -2.6031   -1.5754 H   0  0  0  0  0  0  0  0  0  0  0  0
   -3.7446   -1.9799   -2.8532 H   0  0  0  0  0  0  0  0  0  0  0  0
   -1.4783   -0.6935   -2.0815 H   0  0  0  0  0  0  0  0  0  0  0  0
   -0.6195   -1.4171   -0.7743 H   0  0  0  0  0  0  0  0  0  0  0  0
   -0.8443    0.6153    0.6286 H   0  0  0  0  0  0  0  0  0  0  0  0
   -1.8846    1.3754   -0.5510 H   0  0  0  0  0  0  0  0  0  0  0  0
    1.9751    2.2200   -0.7819 H   0  0  0  0  0  0  0  0  0  0  0  0
    0.9871    1.9317    0.6385 H   0  0  0  0  0  0  0  0  0  0  0  0
    1.4848   -0.5464    0.4260 H   0  0  0  0  0  0  0  0  0  0  0  0
    2.4650   -0.1930   -1.0209 H   0  0  0  0  0  0  0  0  0  0  0  0
    3.2503   -2.3418    1.6386 H   0  0  0  0  0  0  0  0  0  0  0  0
    3.2023   -2.0727   -0.1051 H   0  0  0  0  0  0  0  0  0  0  0  0
    4.7589   -3.9318    0.5230 H   0  0  0  0  0  0  0  0  0  0  0  0
    5.5586   -2.6381   -0.3692 H   0  0  0  0  0  0  0  0  0  0  0  0
    6.8820   -3.3069    1.4535 H   0  0  0  0  0  0  0  0  0  0  0  0
    7.1547   -1.2373    2.6339 H   0  0  0  0  0  0  0  0  0  0  0  0
    6.9869   -1.0284    0.8910 H   0  0  0  0  0  0  0  0  0  0  0  0
    4.8155   -0.5881    3.0196 H   0  0  0  0  0  0  0  0  0  0  0  0
    5.6004    0.6387    2.0182 H   0  0  0  0  0  0  0  0  0  0  0  0
    1.5126    4.9064   -2.1141 H   0  0  0  0  0  0  0  0  0  0  0  0
    0.3435    7.0387   -1.0351 H   0  0  0  0  0  0  0  0  0  0  0  0
   -2.1703    6.5198   -0.4279 H   0  0  0  0  0  0  0  0  0  0  0  0
    2.2913   -0.0441   -0.3508 H   0  0  0  0  0  0  0  0  0  0  0  0
  1  2  1  0
  2  3  1  0
  3  4  1  0
  4  5  1  0
  5  6  1  0
  6  7  1  0
  6  8  1  0
  8  9  1  0
  9 10  1  0
 10 11  1  0
 11 12  1  0
 12 13  1  0
 13 14  1  0
 14 15  2  0
 14 16  1  0
 16 17  1  0
 17 18  1  0
 18 19  1  0
 19 20  1  0
 20 21  1  0
 11 22  1  0
 22 23  2  0
 22 24  2  0
 22 25  1  0
 25 26  2  0
 26 27  1  0
 27 28  2  0
 28 29  1  0
 30 31  2  0
 31 32  1  0
 31 33  1  0
 33 34  1  0
 33 35  1  0
 33 36  1  0
  8  2  1  0
 21 16  1  0
 29 25  1  0
  1 37  1  0
  1 38  1  0
  1 39  1  0
  2 40  1  0
  3 41  1  0
  3 42  1  0
  4 43  1  0
  4 44  1  0
  5 45  1  0
  5 46  1  0
  6 47  1  0
  7 48  1  0
  7 49  1  0
  7 50  1  0
  9 51  1  0
  9 52  1  0
 10 53  1  0
 10 54  1  0
 12 55  1  0
 12 56  1  0
 13 57  1  0
 13 58  1  0
 17 59  1  0
 17 60  1  0
 18 61  1  0
 18 62  1  0
 19 63  1  0
 20 64  1  0
 20 65  1  0
 21 66  1  0
 21 67  1  0
 26 68  1  0
 27 69  1  0
 28 70  1  0
 32 71  1  0
M  END
$$$$
