
     RDKit          3D

 48 49  0  0  0  0  0  0  0  0999 V2000
   -1.8878   -2.7594    0.2378 C   0  0  0  0  0  0  0  0  0  0  0  0
   -2.1726   -1.2973   -0.0027 C   0  0  0  0  0  0  0  0  0  0  0  0
   -3.4792   -0.8292    0.2439 C   0  0  0  0  0  0  0  0  0  0  0  0
   -3.8121    0.5073    0.0421 C   0  0  0  0  0  0  0  0  0  0  0  0
   -5.0355    1.0825    0.2484 O   0  0  0  0  0  0  0  0  0  0  0  0
   -6.1186    0.2427    0.6130 C   0  0  0  0  0  0  0  0  0  0  0  0
   -6.6608   -0.6429   -0.4975 C   0  0  0  0  0  0  0  0  0  0  0  0
   -6.9221   -1.8338   -0.3988 O   0  0  0  0  0  0  0  0  0  0  0  0
   -6.8804    0.0133   -1.6557 O   0  0  0  0  0  0  0  0  0  0  0  0
   -2.8296    1.3875   -0.4102 C   0  0  0  0  0  0  0  0  0  0  0  0
   -1.5197    0.9547   -0.6806 C   0  0  0  0  0  0  0  0  0  0  0  0
   -0.5164    1.9753   -1.1554 C   0  0  0  0  0  0  0  0  0  0  0  0
   -1.1771   -0.4045   -0.4758 C   0  0  0  0  0  0  0  0  0  0  0  0
    0.2412   -0.8915   -0.7502 C   0  0  0  0  0  0  0  0  0  0  0  0
    1.2920   -0.4811    0.2631 C   0  0  0  0  0  0  0  0  0  0  0  0
    1.0269   -0.4551    1.6369 C   0  0  0  0  0  0  0  0  0  0  0  0
    2.0277   -0.0999    2.5385 C   0  0  0  0  0  0  0  0  0  0  0  0
    3.3074    0.2149    2.0806 C   0  0  0  0  0  0  0  0  0  0  0  0
    4.2014    0.5831    3.0470 O   0  0  0  0  0  0  0  0  0  0  0  0
    3.6327    0.1520    0.7166 C   0  0  0  0  0  0  0  0  0  0  0  0
    5.0394    0.4439    0.2062 C   0  0  0  0  0  0  0  0  0  0  0  0
    5.4779   -0.4329   -0.9775 C   0  0  0  0  0  0  0  0  0  0  0  0
    5.1768    1.9287   -0.1518 C   0  0  0  0  0  0  0  0  0  0  0  0
    2.5969   -0.1857   -0.1781 C   0  0  0  0  0  0  0  0  0  0  0  0
   -1.0320   -2.8793    0.9079 H   0  0  0  0  0  0  0  0  0  0  0  0
   -2.7377   -3.2642    0.7112 H   0  0  0  0  0  0  0  0  0  0  0  0
   -1.6886   -3.2688   -0.7109 H   0  0  0  0  0  0  0  0  0  0  0  0
   -4.2157   -1.5426    0.6020 H   0  0  0  0  0  0  0  0  0  0  0  0
   -5.8711   -0.3636    1.4913 H   0  0  0  0  0  0  0  0  0  0  0  0
   -6.9447    0.8938    0.9233 H   0  0  0  0  0  0  0  0  0  0  0  0
   -7.1958   -0.6752   -2.2765 H   0  0  0  0  0  0  0  0  0  0  0  0
   -3.0980    2.4327   -0.5573 H   0  0  0  0  0  0  0  0  0  0  0  0
    0.2282    2.1685   -0.3750 H   0  0  0  0  0  0  0  0  0  0  0  0
   -1.0010    2.9306   -1.3958 H   0  0  0  0  0  0  0  0  0  0  0  0
   -0.0163    1.6376   -2.0709 H   0  0  0  0  0  0  0  0  0  0  0  0
    0.5263   -0.5366   -1.7501 H   0  0  0  0  0  0  0  0  0  0  0  0
    0.2780   -1.9841   -0.8348 H   0  0  0  0  0  0  0  0  0  0  0  0
    0.0377   -0.6969    2.0214 H   0  0  0  0  0  0  0  0  0  0  0  0
    1.8076   -0.0604    3.6026 H   0  0  0  0  0  0  0  0  0  0  0  0
    4.9199    1.0861    2.6367 H   0  0  0  0  0  0  0  0  0  0  0  0
    5.7532    0.2137    1.0082 H   0  0  0  0  0  0  0  0  0  0  0  0
    4.9411   -0.1811   -1.8985 H   0  0  0  0  0  0  0  0  0  0  0  0
    5.3127   -1.4974   -0.7625 H   0  0  0  0  0  0  0  0  0  0  0  0
    6.5488   -0.2956   -1.1802 H   0  0  0  0  0  0  0  0  0  0  0  0
    4.9470    2.5671    0.7104 H   0  0  0  0  0  0  0  0  0  0  0  0
    4.4936    2.2117   -0.9627 H   0  0  0  0  0  0  0  0  0  0  0  0
    6.1997    2.1553   -0.4757 H   0  0  0  0  0  0  0  0  0  0  0  0
    2.7989   -0.2239   -1.2471 H   0  0  0  0  0  0  0  0  0  0  0  0
  1  2  1  0
  2  3  2  0
  3  4  1  0
  4  5  1  0
  5  6  1  0
  6  7  1  0
  7  8  2  0
  7  9  1  0
  4 10  2  0
 10 11  1  0
 11 12  1  0
 11 13  2  0
 13 14  1  0
 14 15  1  0
 15 16  2  0
 16 17  1  0
 17 18  2  0
 18 19  1  0
 18 20  1  0
 20 21  1  0
 21 22  1  0
 21 23  1  0
 20 24  2  0
 13  2  1  0
 24 15  1  0
  1 25  1  0
  1 26  1  0
  1 27  1  0
  3 28  1  0
  6 29  1  0
  6 30  1  0
  9 31  1  0
 10 32  1  0
 12 33  1  0
 12 34  1  0
 12 35  1  0
 14 36  1  0
 14 37  1  0
 16 38  1  0
 17 39  1  0
 19 40  1  0
 21 41  1  0
 22 42  1  0
 22 43  1  0
 22 44  1  0
 23 45  1  0
 23 46  1  0
 23 47  1  0
 24 48  1  0
M  END
$$$$
