
     RDKit          3D

 43 45  0  0  0  0  0  0  0  0999 V2000
   -4.0466   -0.9415    0.9726 C   0  0  0  0  0  0  0  0  0  0  0  0
   -4.0654    0.5389    0.9279 C   0  0  0  0  0  0  0  0  0  0  0  0
   -4.7224    1.2171    1.8770 N   0  0  0  0  0  0  0  0  0  0  0  0
   -4.6312    2.5482    1.5195 O   0  0  0  0  0  0  0  0  0  0  0  0
   -3.9102    2.6639    0.3731 C   0  0  0  0  0  0  0  0  0  0  0  0
   -3.7421    4.0328   -0.1493 C   0  0  0  0  0  0  0  0  0  0  0  0
   -3.4800    1.4164   -0.0242 C   0  0  0  0  0  0  0  0  0  0  0  0
   -2.6831    1.1326   -1.1963 C   0  0  0  0  0  0  0  0  0  0  0  0
   -3.0334    1.5358   -2.3024 O   0  0  0  0  0  0  0  0  0  0  0  0
   -1.5116    0.3990   -1.0188 N   0  0  0  0  0  0  0  0  0  0  0  0
   -0.7582    0.0230   -2.2184 C   0  0  0  0  0  0  0  0  0  0  0  0
    0.3077   -1.0424   -1.9421 C   0  0  0  0  0  0  0  0  0  0  0  0
    1.2276   -0.6493   -0.8670 N   0  0  0  0  0  0  0  0  0  0  0  0
    2.5502   -1.0786   -0.9400 C   0  0  0  0  0  0  0  0  0  0  0  0
    2.9231   -1.8490   -1.8288 O   0  0  0  0  0  0  0  0  0  0  0  0
    3.5281   -0.5912    0.1535 C   0  0  0  0  0  0  0  0  0  0  0  0
    3.4774   -1.5204    1.3653 C   0  0  0  0  0  0  0  0  0  0  0  0
    4.9309   -1.7585    1.6981 C   0  0  0  0  0  0  0  0  0  0  0  0
    5.5879   -1.6432    0.3459 C   0  0  0  0  0  0  0  0  0  0  0  0
    4.8898   -0.5816   -0.3085 O   0  0  0  0  0  0  0  0  0  0  0  0
    0.6944    0.2585    0.1539 C   0  0  0  0  0  0  0  0  0  0  0  0
   -0.8373    0.1972    0.2708 C   0  0  0  0  0  0  0  0  0  0  0  0
   -3.7558   -1.3672    0.0075 H   0  0  0  0  0  0  0  0  0  0  0  0
   -5.0372   -1.3359    1.2227 H   0  0  0  0  0  0  0  0  0  0  0  0
   -3.3377   -1.2921    1.7297 H   0  0  0  0  0  0  0  0  0  0  0  0
   -3.0361    4.5909    0.4734 H   0  0  0  0  0  0  0  0  0  0  0  0
   -3.3616    4.0292   -1.1747 H   0  0  0  0  0  0  0  0  0  0  0  0
   -4.6978    4.5662   -0.1474 H   0  0  0  0  0  0  0  0  0  0  0  0
   -0.2834    0.9370   -2.5965 H   0  0  0  0  0  0  0  0  0  0  0  0
   -1.4564   -0.3302   -2.9857 H   0  0  0  0  0  0  0  0  0  0  0  0
   -0.1703   -1.9742   -1.6165 H   0  0  0  0  0  0  0  0  0  0  0  0
    0.8602   -1.2566   -2.8628 H   0  0  0  0  0  0  0  0  0  0  0  0
    3.2974    0.4420    0.4272 H   0  0  0  0  0  0  0  0  0  0  0  0
    2.9319   -1.0802    2.2055 H   0  0  0  0  0  0  0  0  0  0  0  0
    2.9839   -2.4693    1.1231 H   0  0  0  0  0  0  0  0  0  0  0  0
    5.1162   -2.7182    2.1870 H   0  0  0  0  0  0  0  0  0  0  0  0
    5.2892   -0.9589    2.3572 H   0  0  0  0  0  0  0  0  0  0  0  0
    5.4657   -2.5584   -0.2438 H   0  0  0  0  0  0  0  0  0  0  0  0
    6.6523   -1.4023    0.4113 H   0  0  0  0  0  0  0  0  0  0  0  0
    1.0055    1.2703   -0.1322 H   0  0  0  0  0  0  0  0  0  0  0  0
    1.1413    0.0315    1.1249 H   0  0  0  0  0  0  0  0  0  0  0  0
   -1.1311   -0.7976    0.6240 H   0  0  0  0  0  0  0  0  0  0  0  0
   -1.1720    0.9359    1.0044 H   0  0  0  0  0  0  0  0  0  0  0  0
  1  2  1  0
  2  3  2  0
  3  4  1  0
  4  5  1  0
  5  6  1  0
  5  7  2  0
  7  8  1  0
  8  9  2  0
  8 10  1  0
 10 11  1  0
 11 12  1  0
 12 13  1  0
 13 14  1  0
 14 15  2  0
 14 16  1  0
 16 17  1  0
 17 18  1  0
 18 19  1  0
 19 20  1  0
 13 21  1  0
 21 22  1  0
  7  2  1  0
 22 10  1  0
 20 16  1  0
  1 23  1  0
  1 24  1  0
  1 25  1  0
  6 26  1  0
  6 27  1  0
  6 28  1  0
 11 29  1  0
 11 30  1  0
 12 31  1  0
 12 32  1  0
 16 33  1  0
 17 34  1  0
 17 35  1  0
 18 36  1  0
 18 37  1  0
 19 38  1  0
 19 39  1  0
 21 40  1  0
 21 41  1  0
 22 42  1  0
 22 43  1  0
M  END
$$$$
