
     RDKit          3D

 75 75  0  0  0  0  0  0  0  0999 V2000
    2.6197    3.3815   -1.8632 C   0  0  0  0  0  0  0  0  0  0  0  0
    3.8584    2.8000   -1.1806 C   0  0  0  0  0  0  0  0  0  0  0  0
    4.7987    3.9322   -0.7573 C   0  0  0  0  0  0  0  0  0  0  0  0
    4.6205    1.8069   -2.0810 C   0  0  0  0  0  0  0  0  0  0  0  0
    3.8045    0.5920   -2.5338 C   0  0  1  0  0  0  0  0  0  0  0  0
    4.7016   -0.3161   -3.3704 C   0  0  0  0  0  0  0  0  0  0  0  0
    5.3216   -1.2771   -2.9158 O   0  0  0  0  0  0  0  0  0  0  0  0
    3.3150   -0.1881   -1.4063 N   0  0  0  0  0  0  0  0  0  0  0  0
    2.1657   -0.9417   -1.5315 C   0  0  0  0  0  0  0  0  0  0  0  0
    1.4533   -0.9095   -2.5341 O   0  0  0  0  0  0  0  0  0  0  0  0
    1.8849   -1.8849   -0.3451 C   0  0  2  0  0  0  0  0  0  0  0  0
    2.6240   -3.2135   -0.5744 C   0  0  0  0  0  0  0  0  0  0  0  0
    2.9880   -3.9663    0.7219 C   0  0  0  0  0  0  0  0  0  0  0  0
    1.7736   -4.3266    1.5746 C   0  0  0  0  0  0  0  0  0  0  0  0
    3.7739   -5.2357    0.3771 C   0  0  0  0  0  0  0  0  0  0  0  0
    0.4382   -2.0932   -0.2540 N   0  0  0  0  0  0  0  0  0  0  0  0
   -0.3265   -1.3198    0.5991 C   0  0  0  0  0  0  0  0  0  0  0  0
    0.1943   -0.5436    1.4012 O   0  0  0  0  0  0  0  0  0  0  0  0
   -1.8480   -1.6487    0.6332 C   0  0  2  0  0  0  0  0  0  0  0  0
   -2.5734   -2.0930   -0.6529 C   0  0  0  0  0  0  0  0  0  0  0  0
   -2.9349   -1.0436   -1.7201 C   0  0  0  0  0  0  0  0  0  0  0  0
   -1.7143   -0.4407   -2.4088 C   0  0  0  0  0  0  0  0  0  0  0  0
   -3.8368   -1.6857   -2.7830 C   0  0  0  0  0  0  0  0  0  0  0  0
   -2.6058   -0.7084    1.4490 N   0  0  0  0  0  0  0  0  0  0  0  0
   -2.6949    0.6268    1.2152 C   0  0  0  0  0  0  0  0  0  0  0  0
   -2.2159    1.2277    0.2678 O   0  0  0  0  0  0  0  0  0  0  0  0
   -3.4115    1.1940    2.2139 O   0  0  0  0  0  0  0  0  0  0  0  0
   -3.5589    2.6081    2.0730 C   0  0  0  0  0  0  0  0  0  0  0  0
   -4.5302    3.0896    3.1209 C   0  0  0  0  0  0  0  0  0  0  0  0
   -5.9063    2.8683    2.9628 C   0  0  0  0  0  0  0  0  0  0  0  0
   -6.8103    3.3105    3.9298 C   0  0  0  0  0  0  0  0  0  0  0  0
   -6.3480    3.9725    5.0660 C   0  0  0  0  0  0  0  0  0  0  0  0
   -4.9818    4.1881    5.2391 C   0  0  0  0  0  0  0  0  0  0  0  0
   -4.0759    3.7456    4.2733 C   0  0  0  0  0  0  0  0  0  0  0  0
    1.8689    2.6087   -2.0563 H   0  0  0  0  0  0  0  0  0  0  0  0
    2.8779    3.8532   -2.8170 H   0  0  0  0  0  0  0  0  0  0  0  0
    2.1495    4.1400   -1.2266 H   0  0  0  0  0  0  0  0  0  0  0  0
    3.5360    2.2825   -0.2686 H   0  0  0  0  0  0  0  0  0  0  0  0
    4.3037    4.6124   -0.0540 H   0  0  0  0  0  0  0  0  0  0  0  0
    5.6885    3.5321   -0.2580 H   0  0  0  0  0  0  0  0  0  0  0  0
    5.1303    4.5183   -1.6217 H   0  0  0  0  0  0  0  0  0  0  0  0
    4.9980    2.3341   -2.9682 H   0  0  0  0  0  0  0  0  0  0  0  0
    5.5109    1.4582   -1.5395 H   0  0  0  0  0  0  0  0  0  0  0  0
    2.9652    0.8941   -3.1700 H   0  0  0  0  0  0  0  0  0  0  0  0
    4.8132   -0.0197   -4.4274 H   0  0  0  0  0  0  0  0  0  0  0  0
    4.0198   -0.5339   -0.7633 H   0  0  0  0  0  0  0  0  0  0  0  0
    2.2515   -1.3996    0.5669 H   0  0  0  0  0  0  0  0  0  0  0  0
    3.5587   -3.0210   -1.1180 H   0  0  0  0  0  0  0  0  0  0  0  0
    2.0269   -3.8661   -1.2257 H   0  0  0  0  0  0  0  0  0  0  0  0
    3.6454   -3.3230    1.3201 H   0  0  0  0  0  0  0  0  0  0  0  0
    2.0675   -4.9515    2.4249 H   0  0  0  0  0  0  0  0  0  0  0  0
    1.3007   -3.4317    1.9886 H   0  0  0  0  0  0  0  0  0  0  0  0
    1.0263   -4.8754    0.9934 H   0  0  0  0  0  0  0  0  0  0  0  0
    3.1678   -5.9295   -0.2143 H   0  0  0  0  0  0  0  0  0  0  0  0
    4.6733   -4.9925   -0.1994 H   0  0  0  0  0  0  0  0  0  0  0  0
    4.0925   -5.7546    1.2875 H   0  0  0  0  0  0  0  0  0  0  0  0
    0.0052   -2.3715   -1.1260 H   0  0  0  0  0  0  0  0  0  0  0  0
   -1.8531   -2.5561    1.2588 H   0  0  0  0  0  0  0  0  0  0  0  0
   -3.5165   -2.5570   -0.3293 H   0  0  0  0  0  0  0  0  0  0  0  0
   -2.0084   -2.9030   -1.1306 H   0  0  0  0  0  0  0  0  0  0  0  0
   -3.5196   -0.2404   -1.2611 H   0  0  0  0  0  0  0  0  0  0  0  0
   -2.0201    0.3104   -3.1453 H   0  0  0  0  0  0  0  0  0  0  0  0
   -1.1466   -1.2113   -2.9399 H   0  0  0  0  0  0  0  0  0  0  0  0
   -1.0472    0.0538   -1.7006 H   0  0  0  0  0  0  0  0  0  0  0  0
   -4.1304   -0.9496   -3.5388 H   0  0  0  0  0  0  0  0  0  0  0  0
   -4.7531   -2.0792   -2.3312 H   0  0  0  0  0  0  0  0  0  0  0  0
   -3.3279   -2.5112   -3.2921 H   0  0  0  0  0  0  0  0  0  0  0  0
   -2.9488   -0.9993    2.3527 H   0  0  0  0  0  0  0  0  0  0  0  0
   -3.9481    2.8646    1.0797 H   0  0  0  0  0  0  0  0  0  0  0  0
   -2.5833    3.0925    2.2028 H   0  0  0  0  0  0  0  0  0  0  0  0
   -6.2773    2.3463    2.0834 H   0  0  0  0  0  0  0  0  0  0  0  0
   -7.8746    3.1361    3.7975 H   0  0  0  0  0  0  0  0  0  0  0  0
   -7.0521    4.3166    5.8190 H   0  0  0  0  0  0  0  0  0  0  0  0
   -4.6205    4.7003    6.1276 H   0  0  0  0  0  0  0  0  0  0  0  0
   -3.0122    3.9153    4.4255 H   0  0  0  0  0  0  0  0  0  0  0  0
  1  2  1  0
  2  3  1  0
  2  4  1  0
  4  5  1  0
  5  6  1  0
  6  7  2  0
  5  8  1  0
  8  9  1  0
  9 10  2  0
  9 11  1  0
 11 12  1  0
 12 13  1  0
 13 14  1  0
 13 15  1  0
 11 16  1  0
 16 17  1  0
 17 18  2  0
 17 19  1  0
 19 20  1  0
 20 21  1  0
 21 22  1  0
 21 23  1  0
 19 24  1  0
 24 25  1  0
 25 26  2  0
 25 27  1  0
 27 28  1  0
 28 29  1  0
 29 30  2  0
 30 31  1  0
 31 32  2  0
 32 33  1  0
 33 34  2  0
 34 29  1  0
  1 35  1  0
  1 36  1  0
  1 37  1  0
  2 38  1  0
  3 39  1  0
  3 40  1  0
  3 41  1  0
  4 42  1  0
  4 43  1  0
  5 44  1  6
  6 45  1  0
  8 46  1  0
 11 47  1  1
 12 48  1  0
 12 49  1  0
 13 50  1  0
 14 51  1  0
 14 52  1  0
 14 53  1  0
 15 54  1  0
 15 55  1  0
 15 56  1  0
 16 57  1  0
 19 58  1  1
 20 59  1  0
 20 60  1  0
 21 61  1  0
 22 62  1  0
 22 63  1  0
 22 64  1  0
 23 65  1  0
 23 66  1  0
 23 67  1  0
 24 68  1  0
 28 69  1  0
 28 70  1  0
 30 71  1  0
 31 72  1  0
 32 73  1  0
 33 74  1  0
 34 75  1  0
M  END
$$$$
