
     RDKit          3D

 33 34  0  0  0  0  0  0  0  0999 V2000
   -3.5629   -0.9609   -1.5071 C   0  0  0  0  0  0  0  0  0  0  0  0
   -4.0601   -0.0821   -0.4032 C   0  0  0  0  0  0  0  0  0  0  0  0
   -5.4321    0.3325   -0.3010 C   0  0  0  0  0  0  0  0  0  0  0  0
   -5.6624    1.1601    0.7713 C   0  0  0  0  0  0  0  0  0  0  0  0
   -4.2423    1.4514    1.6634 S   0  0  0  0  0  0  0  0  0  0  0  0
   -3.2938    0.4515    0.6317 C   0  0  0  0  0  0  0  0  0  0  0  0
   -1.8803    0.3067    0.9534 C   0  0  0  0  0  0  0  0  0  0  0  0
   -1.2422    0.9869    1.7509 O   0  0  0  0  0  0  0  0  0  0  0  0
   -1.3409   -0.7464    0.2695 O   0  0  0  0  0  0  0  0  0  0  0  0
    0.0711   -0.8852    0.4327 C   0  0  0  0  0  0  0  0  0  0  0  0
    0.8543    0.1234   -0.4191 C   0  0  0  0  0  0  0  0  0  0  0  0
    0.2753    0.8698   -1.2116 O   0  0  0  0  0  0  0  0  0  0  0  0
    2.2350    0.1278   -0.2852 N   0  0  0  0  0  0  0  0  0  0  0  0
    2.9987   -0.7338    0.6215 C   0  0  0  0  0  0  0  0  0  0  0  0
    4.4159   -0.1955    0.8443 C   0  0  0  0  0  0  0  0  0  0  0  0
    5.1599   -0.0501   -0.3708 O   0  0  0  0  0  0  0  0  0  0  0  0
    4.3697    0.3558   -1.4989 C   0  0  0  0  0  0  0  0  0  0  0  0
    3.0375    1.0159   -1.1297 C   0  0  0  0  0  0  0  0  0  0  0  0
   -4.3384   -1.1200   -2.2640 H   0  0  0  0  0  0  0  0  0  0  0  0
   -2.7029   -0.5056   -2.0087 H   0  0  0  0  0  0  0  0  0  0  0  0
   -3.2735   -1.9415   -1.1164 H   0  0  0  0  0  0  0  0  0  0  0  0
   -6.2125    0.0403   -0.9942 H   0  0  0  0  0  0  0  0  0  0  0  0
   -6.5977    1.6139    1.0692 H   0  0  0  0  0  0  0  0  0  0  0  0
    0.3393   -0.8066    1.4906 H   0  0  0  0  0  0  0  0  0  0  0  0
    0.3356   -1.8910    0.0901 H   0  0  0  0  0  0  0  0  0  0  0  0
    3.0395   -1.7227    0.1509 H   0  0  0  0  0  0  0  0  0  0  0  0
    2.4803   -0.8258    1.5789 H   0  0  0  0  0  0  0  0  0  0  0  0
    4.9778   -0.8706    1.4974 H   0  0  0  0  0  0  0  0  0  0  0  0
    4.3821    0.7832    1.3372 H   0  0  0  0  0  0  0  0  0  0  0  0
    4.1882   -0.5402   -2.1036 H   0  0  0  0  0  0  0  0  0  0  0  0
    4.9785    1.0386   -2.1000 H   0  0  0  0  0  0  0  0  0  0  0  0
    3.2141    1.9273   -0.5468 H   0  0  0  0  0  0  0  0  0  0  0  0
    2.4893    1.2928   -2.0356 H   0  0  0  0  0  0  0  0  0  0  0  0
  1  2  1  0
  2  3  1  0
  3  4  2  0
  4  5  1  0
  5  6  1  0
  6  7  1  0
  7  8  2  0
  7  9  1  0
  9 10  1  0
 10 11  1  0
 11 12  2  0
 11 13  1  0
 13 14  1  0
 14 15  1  0
 15 16  1  0
 16 17  1  0
 17 18  1  0
  6  2  2  0
 18 13  1  0
  1 19  1  0
  1 20  1  0
  1 21  1  0
  3 22  1  0
  4 23  1  0
 10 24  1  0
 10 25  1  0
 14 26  1  0
 14 27  1  0
 15 28  1  0
 15 29  1  0
 17 30  1  0
 17 31  1  0
 18 32  1  0
 18 33  1  0
M  END
$$$$
