
     RDKit          3D

 49 52  0  0  0  0  0  0  0  0999 V2000
   -3.1837   -2.0787   -1.8201 C   0  0  0  0  0  0  0  0  0  0  0  0
   -2.3983   -1.4342   -0.7405 C   0  0  0  0  0  0  0  0  0  0  0  0
   -1.2216   -2.0075   -0.3056 N   0  0  0  0  0  0  0  0  0  0  0  0
   -0.7941   -1.1950    0.6368 C   0  0  0  0  0  0  0  0  0  0  0  0
    0.4241   -1.3180    1.4244 C   0  0  0  0  0  0  0  0  0  0  0  0
    1.2636   -2.3960    1.2312 N   0  0  0  0  0  0  0  0  0  0  0  0
    2.6725   -2.3519    1.5401 C   0  0  0  0  0  0  0  0  0  0  0  0
    3.4498   -1.8068    0.3646 C   0  0  0  0  0  0  0  0  0  0  0  0
    4.0918   -2.6735   -0.5336 C   0  0  0  0  0  0  0  0  0  0  0  0
    4.7828   -2.1715   -1.6398 C   0  0  0  0  0  0  0  0  0  0  0  0
    4.8395   -0.7973   -1.8661 C   0  0  0  0  0  0  0  0  0  0  0  0
    4.2050    0.0693   -0.9749 C   0  0  0  0  0  0  0  0  0  0  0  0
    4.2459    1.8221   -1.2590 S   0  0  0  0  0  6  0  0  0  0  0  0
    5.3939    2.4080   -0.0416 C   0  0  0  0  0  0  0  0  0  0  0  0
    2.9327    2.3455   -0.9377 O   0  0  0  0  0  0  0  0  0  0  0  0
    4.8372    2.0467   -2.5646 O   0  0  0  0  0  0  0  0  0  0  0  0
    3.5049   -0.4248    0.1299 C   0  0  0  0  0  0  0  0  0  0  0  0
    0.7111   -0.3899    2.3128 N   0  0  0  0  0  0  0  0  0  0  0  0
   -0.1528    0.6797    2.4652 C   0  0  0  0  0  0  0  0  0  0  0  0
   -1.2887    0.8408    1.7671 C   0  0  0  0  0  0  0  0  0  0  0  0
   -1.6211   -0.1224    0.8323 N   0  0  0  0  0  0  0  0  0  0  0  0
   -2.6824   -0.2654   -0.0388 C   0  0  0  0  0  0  0  0  0  0  0  0
   -3.8020    0.6594   -0.1458 C   0  0  0  0  0  0  0  0  0  0  0  0
   -4.7360    0.7647    0.8963 C   0  0  0  0  0  0  0  0  0  0  0  0
   -5.8184    1.6449    0.7968 C   0  0  0  0  0  0  0  0  0  0  0  0
   -5.9662    2.4199   -0.3501 C   0  0  0  0  0  0  0  0  0  0  0  0
   -7.0119    3.2886   -0.4765 O   0  0  0  0  0  0  0  0  0  0  0  0
   -5.0422    2.3142   -1.3886 C   0  0  0  0  0  0  0  0  0  0  0  0
   -5.1792    3.0577   -2.4961 F   0  0  0  0  0  0  0  0  0  0  0  0
   -3.9642    1.4390   -1.2949 C   0  0  0  0  0  0  0  0  0  0  0  0
   -4.2357   -2.1700   -1.5326 H   0  0  0  0  0  0  0  0  0  0  0  0
   -3.1223   -1.4892   -2.7397 H   0  0  0  0  0  0  0  0  0  0  0  0
   -2.8037   -3.0827   -2.0326 H   0  0  0  0  0  0  0  0  0  0  0  0
    1.0286   -2.9244    0.3940 H   0  0  0  0  0  0  0  0  0  0  0  0
    2.8843   -1.7630    2.4406 H   0  0  0  0  0  0  0  0  0  0  0  0
    3.0138   -3.3691    1.7658 H   0  0  0  0  0  0  0  0  0  0  0  0
    4.0493   -3.7505   -0.3833 H   0  0  0  0  0  0  0  0  0  0  0  0
    5.2676   -2.8552   -2.3328 H   0  0  0  0  0  0  0  0  0  0  0  0
    5.3663   -0.4175   -2.7388 H   0  0  0  0  0  0  0  0  0  0  0  0
    5.4897    3.4894   -0.1608 H   0  0  0  0  0  0  0  0  0  0  0  0
    6.3610    1.9296   -0.2057 H   0  0  0  0  0  0  0  0  0  0  0  0
    5.0108    2.1789    0.9540 H   0  0  0  0  0  0  0  0  0  0  0  0
    2.9849    0.2586    0.8002 H   0  0  0  0  0  0  0  0  0  0  0  0
    0.1434    1.4194    3.2044 H   0  0  0  0  0  0  0  0  0  0  0  0
   -1.9482    1.6882    1.8929 H   0  0  0  0  0  0  0  0  0  0  0  0
   -4.6312    0.1515    1.7897 H   0  0  0  0  0  0  0  0  0  0  0  0
   -6.5301    1.7064    1.6151 H   0  0  0  0  0  0  0  0  0  0  0  0
   -7.5611    3.2500    0.3227 H   0  0  0  0  0  0  0  0  0  0  0  0
   -3.2593    1.3820   -2.1196 H   0  0  0  0  0  0  0  0  0  0  0  0
  1  2  1  0
  2  3  1  0
  3  4  2  0
  4  5  1  0
  5  6  1  0
  6  7  1  0
  7  8  1  0
  8  9  2  0
  9 10  1  0
 10 11  2  0
 11 12  1  0
 12 13  1  0
 13 14  1  0
 13 15  2  0
 13 16  2  0
 12 17  2  0
  5 18  2  0
 18 19  1  0
 19 20  2  0
 20 21  1  0
 21 22  1  0
 22 23  1  0
 23 24  2  0
 24 25  1  0
 25 26  2  0
 26 27  1  0
 26 28  1  0
 28 29  1  0
 28 30  2  0
 22  2  2  0
 30 23  1  0
 21  4  1  0
 17  8  1  0
  1 31  1  0
  1 32  1  0
  1 33  1  0
  6 34  1  0
  7 35  1  0
  7 36  1  0
  9 37  1  0
 10 38  1  0
 11 39  1  0
 14 40  1  0
 14 41  1  0
 14 42  1  0
 17 43  1  0
 19 44  1  0
 20 45  1  0
 24 46  1  0
 25 47  1  0
 27 48  1  0
 30 49  1  0
M  END
$$$$
