
     RDKit          3D

 36 38  0  0  0  0  0  0  0  0999 V2000
   -0.8556    0.6187   -1.5043 C   0  0  0  0  0  0  0  0  0  0  0  0
   -1.6271    1.5366   -0.1420 S   0  0  0  0  0  0  0  0  0  0  0  0
   -2.7823    0.2839    0.4186 C   0  0  0  0  0  0  0  0  0  0  0  0
   -4.1269    0.4921    0.0648 C   0  0  0  0  0  0  0  0  0  0  0  0
   -5.1134   -0.4357    0.4048 C   0  0  0  0  0  0  0  0  0  0  0  0
   -4.7712   -1.5880    1.1028 C   0  0  0  0  0  0  0  0  0  0  0  0
   -3.4440   -1.8047    1.4721 C   0  0  0  0  0  0  0  0  0  0  0  0
   -2.4419   -0.8702    1.1511 C   0  0  0  0  0  0  0  0  0  0  0  0
   -1.0697   -1.2091    1.6300 C   0  0  0  0  0  0  0  0  0  0  0  0
   -0.7167   -2.3830    1.6868 O   0  0  0  0  0  0  0  0  0  0  0  0
   -0.2724   -0.1606    2.0245 N   0  0  0  0  0  0  0  0  0  0  0  0
    1.1237   -0.3421    2.3444 C   0  0  0  0  0  0  0  0  0  0  0  0
    1.9812   -0.1147    1.1245 C   0  0  0  0  0  0  0  0  0  0  0  0
    2.2872   -1.1952    0.2640 C   0  0  0  0  0  0  0  0  0  0  0  0
    3.0437   -1.0017   -0.8957 C   0  0  0  0  0  0  0  0  0  0  0  0
    3.4728    0.2772   -1.1730 C   0  0  0  0  0  0  0  0  0  0  0  0
    3.1745    1.3357   -0.3479 C   0  0  0  0  0  0  0  0  0  0  0  0
    2.4312    1.1762    0.8026 C   0  0  0  0  0  0  0  0  0  0  0  0
    3.6838    2.5105   -0.8062 O   0  0  0  0  0  0  0  0  0  0  0  0
    4.3472    2.0672   -2.0082 C   0  0  0  0  0  0  0  0  0  0  0  0
    4.2075    0.6526   -2.2538 O   0  0  0  0  0  0  0  0  0  0  0  0
   -0.0771    1.2380   -1.9576 H   0  0  0  0  0  0  0  0  0  0  0  0
   -0.3995   -0.3075   -1.1478 H   0  0  0  0  0  0  0  0  0  0  0  0
   -1.6007    0.3808   -2.2685 H   0  0  0  0  0  0  0  0  0  0  0  0
   -4.4189    1.3810   -0.4922 H   0  0  0  0  0  0  0  0  0  0  0  0
   -6.1473   -0.2594    0.1173 H   0  0  0  0  0  0  0  0  0  0  0  0
   -5.5342   -2.3176    1.3636 H   0  0  0  0  0  0  0  0  0  0  0  0
   -3.1879   -2.7084    2.0241 H   0  0  0  0  0  0  0  0  0  0  0  0
   -0.5818    0.7799    1.8072 H   0  0  0  0  0  0  0  0  0  0  0  0
    1.2972   -1.3428    2.7558 H   0  0  0  0  0  0  0  0  0  0  0  0
    1.3797    0.3806    3.1269 H   0  0  0  0  0  0  0  0  0  0  0  0
    1.9170   -2.1932    0.4991 H   0  0  0  0  0  0  0  0  0  0  0  0
    3.2787   -1.8281   -1.5567 H   0  0  0  0  0  0  0  0  0  0  0  0
    2.2010    2.0315    1.4287 H   0  0  0  0  0  0  0  0  0  0  0  0
    3.9280    2.6136   -2.8610 H   0  0  0  0  0  0  0  0  0  0  0  0
    5.4141    2.3058   -1.9284 H   0  0  0  0  0  0  0  0  0  0  0  0
  1  2  1  0
  2  3  1  0
  3  4  2  0
  4  5  1  0
  5  6  2  0
  6  7  1  0
  7  8  2  0
  8  9  1  0
  9 10  2  0
  9 11  1  0
 11 12  1  0
 12 13  1  0
 13 14  2  0
 14 15  1  0
 15 16  2  0
 16 17  1  0
 17 18  2  0
 17 19  1  0
 19 20  1  0
 20 21  1  0
  8  3  1  0
 18 13  1  0
 21 16  1  0
  1 22  1  0
  1 23  1  0
  1 24  1  0
  4 25  1  0
  5 26  1  0
  6 27  1  0
  7 28  1  0
 11 29  1  0
 12 30  1  0
 12 31  1  0
 14 32  1  0
 15 33  1  0
 18 34  1  0
 20 35  1  0
 20 36  1  0
M  END
$$$$
