
     RDKit          3D

 54 57  0  0  0  0  0  0  0  0999 V2000
   -3.1981   -1.0855    1.2264 O   0  0  0  0  0  0  0  0  0  0  0  0
   -2.3030   -0.5309    0.5975 C   0  0  0  0  0  0  0  0  0  0  0  0
   -1.8777    0.7484    0.8976 N   0  0  0  0  0  0  0  0  0  0  0  0
   -2.4991    1.5519    1.9225 C   0  0  0  0  0  0  0  0  0  0  0  0
   -3.4928    2.5099    1.3177 C   0  0  0  0  0  0  0  0  0  0  0  0
   -3.1153    3.8180    0.9860 C   0  0  0  0  0  0  0  0  0  0  0  0
   -4.0343    4.6918    0.4012 C   0  0  0  0  0  0  0  0  0  0  0  0
   -5.3336    4.2640    0.1370 C   0  0  0  0  0  0  0  0  0  0  0  0
   -5.7157    2.9610    0.4514 C   0  0  0  0  0  0  0  0  0  0  0  0
   -4.7992    2.0864    1.0353 C   0  0  0  0  0  0  0  0  0  0  0  0
   -1.5764   -1.1904   -0.4851 C   0  0  0  0  0  0  0  0  0  0  0  0
   -0.4593   -0.7638   -1.1790 C   0  0  0  0  0  0  0  0  0  0  0  0
   -0.1473   -1.8157   -1.9909 N   0  0  0  0  0  0  0  0  0  0  0  0
    1.0096   -1.9585   -2.8471 C   0  0  0  0  0  0  0  0  0  0  0  0
    2.1918   -2.7308   -2.2172 C   0  0  2  0  0  0  0  0  0  0  0  0
    2.0081   -4.2549   -2.1578 C   0  0  0  0  0  0  0  0  0  0  0  0
    1.6046   -4.5468   -0.7195 C   0  0  0  0  0  0  0  0  0  0  0  0
    2.2988   -3.4637    0.0887 C   0  0  0  0  0  0  0  0  0  0  0  0
    2.4981   -2.3486   -0.8331 N   0  0  0  0  0  0  0  0  0  0  0  0
    3.0124   -1.0991   -0.5363 C   0  0  0  0  0  0  0  0  0  0  0  0
    3.2217   -0.2777   -1.4332 O   0  0  0  0  0  0  0  0  0  0  0  0
    3.3046   -0.7723    0.9267 C   0  0  0  0  0  0  0  0  0  0  0  0
    2.8889    0.6304    1.2792 C   0  0  0  0  0  0  0  0  0  0  0  0
    3.7796    1.7040    1.2173 C   0  0  0  0  0  0  0  0  0  0  0  0
    3.3282    2.9896    1.4924 C   0  0  0  0  0  0  0  0  0  0  0  0
    1.9899    3.1611    1.8002 C   0  0  0  0  0  0  0  0  0  0  0  0
    1.0942    2.1492    1.8631 N   0  0  0  0  0  0  0  0  0  0  0  0
    1.5695    0.9111    1.6193 C   0  0  0  0  0  0  0  0  0  0  0  0
   -1.0594   -2.7925   -1.8971 N   0  0  0  0  0  0  0  0  0  0  0  0
   -1.9226   -2.4392   -0.9532 N   0  0  0  0  0  0  0  0  0  0  0  0
   -1.1630    1.2184    0.3373 H   0  0  0  0  0  0  0  0  0  0  0  0
   -1.7034    2.1033    2.4354 H   0  0  0  0  0  0  0  0  0  0  0  0
   -2.9874    0.9176    2.6720 H   0  0  0  0  0  0  0  0  0  0  0  0
   -2.1008    4.1604    1.1807 H   0  0  0  0  0  0  0  0  0  0  0  0
   -3.7356    5.7040    0.1457 H   0  0  0  0  0  0  0  0  0  0  0  0
   -6.0456    4.9452   -0.3205 H   0  0  0  0  0  0  0  0  0  0  0  0
   -6.7246    2.6217    0.2351 H   0  0  0  0  0  0  0  0  0  0  0  0
   -5.1013    1.0662    1.2662 H   0  0  0  0  0  0  0  0  0  0  0  0
    0.1491    0.1272   -1.1412 H   0  0  0  0  0  0  0  0  0  0  0  0
    0.6839   -2.4365   -3.7778 H   0  0  0  0  0  0  0  0  0  0  0  0
    1.3239   -0.9403   -3.1114 H   0  0  0  0  0  0  0  0  0  0  0  0
    3.0790   -2.5155   -2.8323 H   0  0  0  0  0  0  0  0  0  0  0  0
    1.2887   -4.6413   -2.8865 H   0  0  0  0  0  0  0  0  0  0  0  0
    2.9727   -4.7449   -2.3593 H   0  0  0  0  0  0  0  0  0  0  0  0
    0.5176   -4.4706   -0.6010 H   0  0  0  0  0  0  0  0  0  0  0  0
    1.8962   -5.5539   -0.3979 H   0  0  0  0  0  0  0  0  0  0  0  0
    1.6847   -3.1568    0.9437 H   0  0  0  0  0  0  0  0  0  0  0  0
    3.2841   -3.7906    0.4441 H   0  0  0  0  0  0  0  0  0  0  0  0
    2.7889   -1.4479    1.6134 H   0  0  0  0  0  0  0  0  0  0  0  0
    4.3773   -0.9162    1.0995 H   0  0  0  0  0  0  0  0  0  0  0  0
    4.8165    1.5471    0.9449 H   0  0  0  0  0  0  0  0  0  0  0  0
    4.0112    3.8354    1.4585 H   0  0  0  0  0  0  0  0  0  0  0  0
    1.5881    4.1471    2.0125 H   0  0  0  0  0  0  0  0  0  0  0  0
    0.8338    0.1145    1.7067 H   0  0  0  0  0  0  0  0  0  0  0  0
  1  2  2  0
  2  3  1  0
  3  4  1  0
  4  5  1  0
  5  6  2  0
  6  7  1  0
  7  8  2  0
  8  9  1  0
  9 10  2  0
  2 11  1  0
 11 12  2  0
 12 13  1  0
 13 14  1  0
 14 15  1  0
 15 16  1  0
 16 17  1  0
 17 18  1  0
 18 19  1  0
 19 20  1  0
 20 21  2  0
 20 22  1  0
 22 23  1  0
 23 24  2  0
 24 25  1  0
 25 26  2  0
 26 27  1  0
 27 28  2  0
 13 29  1  0
 29 30  2  0
 10  5  1  0
 30 11  1  0
 19 15  1  0
 28 23  1  0
  3 31  1  0
  4 32  1  0
  4 33  1  0
  6 34  1  0
  7 35  1  0
  8 36  1  0
  9 37  1  0
 10 38  1  0
 12 39  1  0
 14 40  1  0
 14 41  1  0
 15 42  1  6
 16 43  1  0
 16 44  1  0
 17 45  1  0
 17 46  1  0
 18 47  1  0
 18 48  1  0
 22 49  1  0
 22 50  1  0
 24 51  1  0
 25 52  1  0
 26 53  1  0
 28 54  1  0
M  END
$$$$
