
     RDKit          3D

 85 89  0  0  0  0  0  0  0  0999 V2000
   -6.9362    2.4959    2.5499 C   0  0  0  0  0  0  0  0  0  0  0  0
   -5.7145    3.1898    1.9644 C   0  0  0  0  0  0  0  0  0  0  0  0
   -5.9247    3.7150    0.5395 C   0  0  0  0  0  0  0  0  0  0  0  0
   -6.1369    2.6325   -0.5004 C   0  0  0  0  0  0  0  0  0  0  0  0
   -7.5268    2.3362   -0.8275 C   0  0  0  0  0  0  0  0  0  0  0  0
   -7.8457    1.4286   -1.7609 C   0  0  0  0  0  0  0  0  0  0  0  0
   -9.2520    1.0847   -2.1412 C   0  0  0  0  0  0  0  0  0  0  0  0
   -6.8393    0.7668   -2.4146 N   0  0  0  0  0  0  0  0  0  0  0  0
   -5.5037    0.9585   -2.1765 C   0  0  0  0  0  0  0  0  0  0  0  0
   -4.6487    0.2989   -2.7638 O   0  0  0  0  0  0  0  0  0  0  0  0
   -5.1390    1.9872   -1.1463 C   0  0  0  0  0  0  0  0  0  0  0  0
   -3.6654    2.2097   -0.9589 C   0  0  0  0  0  0  0  0  0  0  0  0
   -3.0361    0.9857   -0.5086 N   0  0  0  0  0  0  0  0  0  0  0  0
   -1.8325    1.0151    0.1586 C   0  0  0  0  0  0  0  0  0  0  0  0
   -1.2897    2.0462    0.5362 O   0  0  0  0  0  0  0  0  0  0  0  0
   -1.1594   -0.2900    0.3543 C   0  0  0  0  0  0  0  0  0  0  0  0
    0.2468   -0.3295    0.3118 C   0  0  0  0  0  0  0  0  0  0  0  0
    0.9547   -1.5305    0.4534 C   0  0  0  0  0  0  0  0  0  0  0  0
    2.4198   -1.5443    0.3676 C   0  0  0  0  0  0  0  0  0  0  0  0
    3.0982   -2.3030   -0.5848 C   0  0  0  0  0  0  0  0  0  0  0  0
    4.4937   -2.2603   -0.6511 C   0  0  0  0  0  0  0  0  0  0  0  0
    5.2178   -1.4581    0.2335 C   0  0  0  0  0  0  0  0  0  0  0  0
    6.6178   -1.4175    0.1419 N   0  0  0  0  0  0  0  0  0  0  0  0
    7.1282   -0.9036   -1.1434 C   0  0  0  0  0  0  0  0  0  0  0  0
    7.0740    0.6428   -1.2082 C   0  0  0  0  0  0  0  0  0  0  0  0
    7.8138    1.3101   -0.1024 N   0  0  0  0  0  0  0  0  0  0  0  0
    7.6931    2.7890   -0.1791 C   0  0  0  0  0  0  0  0  0  0  0  0
    8.3268    3.3414   -1.4681 C   0  0  0  0  0  0  0  0  0  0  0  0
    8.3696    3.4987    1.0057 C   0  0  0  0  0  0  0  0  0  0  0  0
    7.2937    0.7773    1.1863 C   0  0  0  0  0  0  0  0  0  0  0  0
    7.3005   -0.7701    1.2806 C   0  0  0  0  0  0  0  0  0  0  0  0
    4.5766   -0.7501    1.1864 N   0  0  0  0  0  0  0  0  0  0  0  0
    3.2192   -0.7943    1.2255 C   0  0  0  0  0  0  0  0  0  0  0  0
    0.2394   -2.7244    0.6644 C   0  0  0  0  0  0  0  0  0  0  0  0
   -1.1639   -2.6737    0.7395 C   0  0  0  0  0  0  0  0  0  0  0  0
   -1.8736   -1.4820    0.5901 C   0  0  0  0  0  0  0  0  0  0  0  0
   -3.2259   -1.8607    0.7562 C   0  0  0  0  0  0  0  0  0  0  0  0
   -3.3802   -3.1695    0.9550 N   0  0  0  0  0  0  0  0  0  0  0  0
   -2.1184   -3.6462    0.9525 N   0  0  0  0  0  0  0  0  0  0  0  0
   -1.8928   -5.0779    1.1454 C   0  0  0  0  0  0  0  0  0  0  0  0
   -2.6037   -5.6102    2.3883 C   0  0  0  0  0  0  0  0  0  0  0  0
   -2.2929   -5.8621   -0.1033 C   0  0  0  0  0  0  0  0  0  0  0  0
   -7.8221    3.1373    2.4793 H   0  0  0  0  0  0  0  0  0  0  0  0
   -6.7671    2.2651    3.6084 H   0  0  0  0  0  0  0  0  0  0  0  0
   -7.1483    1.5523    2.0352 H   0  0  0  0  0  0  0  0  0  0  0  0
   -4.8613    2.5028    1.9966 H   0  0  0  0  0  0  0  0  0  0  0  0
   -5.4599    4.0414    2.6088 H   0  0  0  0  0  0  0  0  0  0  0  0
   -6.7688    4.4188    0.5314 H   0  0  0  0  0  0  0  0  0  0  0  0
   -5.0589    4.3291    0.2635 H   0  0  0  0  0  0  0  0  0  0  0  0
   -8.3085    2.8709   -0.2967 H   0  0  0  0  0  0  0  0  0  0  0  0
   -9.9845    1.6777   -1.5831 H   0  0  0  0  0  0  0  0  0  0  0  0
   -9.4156    1.2737   -3.2073 H   0  0  0  0  0  0  0  0  0  0  0  0
   -9.4543    0.0277   -1.9398 H   0  0  0  0  0  0  0  0  0  0  0  0
   -7.0612    0.0669   -3.1125 H   0  0  0  0  0  0  0  0  0  0  0  0
   -3.1988    2.4927   -1.9095 H   0  0  0  0  0  0  0  0  0  0  0  0
   -3.4411    3.0051   -0.2425 H   0  0  0  0  0  0  0  0  0  0  0  0
   -3.2240    0.1710   -1.0873 H   0  0  0  0  0  0  0  0  0  0  0  0
    0.7861    0.6018    0.1375 H   0  0  0  0  0  0  0  0  0  0  0  0
    2.5522   -2.9226   -1.2944 H   0  0  0  0  0  0  0  0  0  0  0  0
    5.0099   -2.8698   -1.3865 H   0  0  0  0  0  0  0  0  0  0  0  0
    6.5948   -1.3271   -2.0027 H   0  0  0  0  0  0  0  0  0  0  0  0
    8.1704   -1.2302   -1.2528 H   0  0  0  0  0  0  0  0  0  0  0  0
    7.5096    0.9235   -2.1722 H   0  0  0  0  0  0  0  0  0  0  0  0
    6.0257    0.9685   -1.2111 H   0  0  0  0  0  0  0  0  0  0  0  0
    6.6316    3.0730   -0.1745 H   0  0  0  0  0  0  0  0  0  0  0  0
    8.3531    4.4369   -1.4551 H   0  0  0  0  0  0  0  0  0  0  0  0
    7.7600    3.0516   -2.3584 H   0  0  0  0  0  0  0  0  0  0  0  0
    9.3570    2.9896   -1.5853 H   0  0  0  0  0  0  0  0  0  0  0  0
    9.4116    3.1804    1.1235 H   0  0  0  0  0  0  0  0  0  0  0  0
    7.8416    3.3136    1.9468 H   0  0  0  0  0  0  0  0  0  0  0  0
    8.3662    4.5852    0.8603 H   0  0  0  0  0  0  0  0  0  0  0  0
    6.2819    1.1577    1.3612 H   0  0  0  0  0  0  0  0  0  0  0  0
    7.9217    1.1316    2.0103 H   0  0  0  0  0  0  0  0  0  0  0  0
    8.3443   -1.1097    1.2791 H   0  0  0  0  0  0  0  0  0  0  0  0
    6.8855   -1.1017    2.2395 H   0  0  0  0  0  0  0  0  0  0  0  0
    2.7771   -0.1824    2.0096 H   0  0  0  0  0  0  0  0  0  0  0  0
    0.7713   -3.6638    0.7866 H   0  0  0  0  0  0  0  0  0  0  0  0
   -4.1094   -1.2351    0.7395 H   0  0  0  0  0  0  0  0  0  0  0  0
   -0.8182   -5.2122    1.3021 H   0  0  0  0  0  0  0  0  0  0  0  0
   -3.6928   -5.5744    2.2758 H   0  0  0  0  0  0  0  0  0  0  0  0
   -2.3237   -6.6535    2.5762 H   0  0  0  0  0  0  0  0  0  0  0  0
   -2.3385   -5.0265    3.2770 H   0  0  0  0  0  0  0  0  0  0  0  0
   -1.7539   -5.4921   -0.9823 H   0  0  0  0  0  0  0  0  0  0  0  0
   -3.3644   -5.7710   -0.3119 H   0  0  0  0  0  0  0  0  0  0  0  0
   -2.0580   -6.9259    0.0132 H   0  0  0  0  0  0  0  0  0  0  0  0
  1  2  1  0
  2  3  1  0
  3  4  1  0
  4  5  1  0
  5  6  2  0
  6  7  1  0
  6  8  1  0
  8  9  1  0
  9 10  2  0
  9 11  1  0
 11 12  1  0
 12 13  1  0
 13 14  1  0
 14 15  2  0
 14 16  1  0
 16 17  2  0
 17 18  1  0
 18 19  1  0
 19 20  2  0
 20 21  1  0
 21 22  2  0
 22 23  1  0
 23 24  1  0
 24 25  1  0
 25 26  1  0
 26 27  1  0
 27 28  1  0
 27 29  1  0
 26 30  1  0
 30 31  1  0
 22 32  1  0
 32 33  2  0
 18 34  2  0
 34 35  1  0
 35 36  2  0
 36 37  1  0
 37 38  2  0
 38 39  1  0
 39 40  1  0
 40 41  1  0
 40 42  1  0
 11  4  2  0
 36 16  1  0
 33 19  1  0
 39 35  1  0
 31 23  1  0
  1 43  1  0
  1 44  1  0
  1 45  1  0
  2 46  1  0
  2 47  1  0
  3 48  1  0
  3 49  1  0
  5 50  1  0
  7 51  1  0
  7 52  1  0
  7 53  1  0
  8 54  1  0
 12 55  1  0
 12 56  1  0
 13 57  1  0
 17 58  1  0
 20 59  1  0
 21 60  1  0
 24 61  1  0
 24 62  1  0
 25 63  1  0
 25 64  1  0
 27 65  1  0
 28 66  1  0
 28 67  1  0
 28 68  1  0
 29 69  1  0
 29 70  1  0
 29 71  1  0
 30 72  1  0
 30 73  1  0
 31 74  1  0
 31 75  1  0
 33 76  1  0
 34 77  1  0
 37 78  1  0
 40 79  1  0
 41 80  1  0
 41 81  1  0
 41 82  1  0
 42 83  1  0
 42 84  1  0
 42 85  1  0
M  END
$$$$
