
     RDKit          3D

 57 59  0  0  0  0  0  0  0  0999 V2000
    7.9949    0.4571    1.4871 C   0  0  0  0  0  0  0  0  0  0  0  0
    7.2179   -0.3069    2.4000 O   0  0  0  0  0  0  0  0  0  0  0  0
    6.4424   -1.3259    1.7690 C   0  0  0  0  0  0  0  0  0  0  0  0
    5.1396   -0.7532    1.2268 C   0  0  0  0  0  0  0  0  0  0  0  0
    4.2241   -1.8494    0.6958 C   0  0  0  0  0  0  0  0  0  0  0  0
    2.9951   -1.2845    0.1691 N   0  0  0  0  0  0  0  0  0  0  0  0
    2.1176   -2.0869   -0.5224 C   0  0  0  0  0  0  0  0  0  0  0  0
    2.3512   -3.2675   -0.7660 O   0  0  0  0  0  0  0  0  0  0  0  0
    0.9561   -1.4411   -0.9131 N   0  0  0  0  0  0  0  0  0  0  0  0
   -0.0988   -2.2267   -1.5490 C   0  0  0  0  0  0  0  0  0  0  0  0
   -1.4800   -1.6687   -1.2170 C   0  0  0  0  0  0  0  0  0  0  0  0
   -1.6570   -0.1599   -1.5609 C   0  0  2  0  0  0  0  0  0  0  0  0
   -0.2789    0.4628   -1.9172 C   0  0  1  0  0  0  0  0  0  0  0  0
   -0.2420    1.9740   -2.1614 C   0  0  0  0  0  0  0  0  0  0  0  0
   -1.5195    2.4536   -2.5577 O   0  0  0  0  0  0  0  0  0  0  0  0
   -2.3586    2.8035   -1.4520 C   0  0  0  0  0  0  0  0  0  0  0  0
   -2.2496    1.8732   -0.2316 C   0  0  0  0  0  0  0  0  0  0  0  0
   -2.4608    0.4406   -0.4642 N   0  0  0  0  0  0  0  0  0  0  0  0
   -3.8968    0.1183   -0.6310 C   0  0  0  0  0  0  0  0  0  0  0  0
   -4.7261    0.3721    0.6126 C   0  0  0  0  0  0  0  0  0  0  0  0
   -4.4322   -0.2976    1.8114 C   0  0  0  0  0  0  0  0  0  0  0  0
   -5.1946   -0.0703    2.9604 C   0  0  0  0  0  0  0  0  0  0  0  0
   -6.2615    0.8278    2.9180 C   0  0  0  0  0  0  0  0  0  0  0  0
   -6.5704    1.4934    1.7283 C   0  0  0  0  0  0  0  0  0  0  0  0
   -5.8075    1.2667    0.5809 C   0  0  0  0  0  0  0  0  0  0  0  0
    0.8102    0.0169   -0.9437 C   0  0  0  0  0  0  0  0  0  0  0  0
    7.3597    0.9752    0.7639 H   0  0  0  0  0  0  0  0  0  0  0  0
    8.7133   -0.1831    0.9692 H   0  0  0  0  0  0  0  0  0  0  0  0
    8.5499    1.2075    2.0584 H   0  0  0  0  0  0  0  0  0  0  0  0
    7.0242   -1.8275    0.9869 H   0  0  0  0  0  0  0  0  0  0  0  0
    6.2221   -2.0713    2.5392 H   0  0  0  0  0  0  0  0  0  0  0  0
    5.3456   -0.0278    0.4308 H   0  0  0  0  0  0  0  0  0  0  0  0
    4.6317   -0.1830    2.0161 H   0  0  0  0  0  0  0  0  0  0  0  0
    4.7196   -2.4130   -0.1039 H   0  0  0  0  0  0  0  0  0  0  0  0
    3.9538   -2.5555    1.4913 H   0  0  0  0  0  0  0  0  0  0  0  0
    2.5194   -0.6405    0.7820 H   0  0  0  0  0  0  0  0  0  0  0  0
    0.0806   -2.2205   -2.6308 H   0  0  0  0  0  0  0  0  0  0  0  0
   -0.0397   -3.2704   -1.2215 H   0  0  0  0  0  0  0  0  0  0  0  0
   -1.6481   -1.8349   -0.1448 H   0  0  0  0  0  0  0  0  0  0  0  0
   -2.2449   -2.2540   -1.7404 H   0  0  0  0  0  0  0  0  0  0  0  0
   -2.2489   -0.0951   -2.4883 H   0  0  0  0  0  0  0  0  0  0  0  0
   -0.0213    0.0349   -2.8992 H   0  0  0  0  0  0  0  0  0  0  0  0
    0.4457    2.1753   -2.9933 H   0  0  0  0  0  0  0  0  0  0  0  0
    0.1534    2.5467   -1.3143 H   0  0  0  0  0  0  0  0  0  0  0  0
   -2.0947    3.8250   -1.1477 H   0  0  0  0  0  0  0  0  0  0  0  0
   -3.3907    2.8363   -1.8199 H   0  0  0  0  0  0  0  0  0  0  0  0
   -2.9243    2.2489    0.5458 H   0  0  0  0  0  0  0  0  0  0  0  0
   -1.2613    1.9827    0.2263 H   0  0  0  0  0  0  0  0  0  0  0  0
   -4.3162    0.6596   -1.4877 H   0  0  0  0  0  0  0  0  0  0  0  0
   -4.0273   -0.9457   -0.8602 H   0  0  0  0  0  0  0  0  0  0  0  0
   -3.5963   -0.9948    1.8519 H   0  0  0  0  0  0  0  0  0  0  0  0
   -4.9550   -0.5922    3.8831 H   0  0  0  0  0  0  0  0  0  0  0  0
   -6.8554    1.0076    3.8084 H   0  0  0  0  0  0  0  0  0  0  0  0
   -7.4078    2.1907    1.6949 H   0  0  0  0  0  0  0  0  0  0  0  0
   -6.0578    1.7942   -0.3328 H   0  0  0  0  0  0  0  0  0  0  0  0
    0.5842    0.3444    0.0776 H   0  0  0  0  0  0  0  0  0  0  0  0
    1.7715    0.4591   -1.2302 H   0  0  0  0  0  0  0  0  0  0  0  0
  1  2  1  0
  2  3  1  0
  3  4  1  0
  4  5  1  0
  5  6  1  0
  6  7  1  0
  7  8  2  0
  7  9  1  0
  9 10  1  0
 10 11  1  0
 11 12  1  0
 12 13  1  0
 13 14  1  0
 14 15  1  0
 15 16  1  0
 16 17  1  0
 17 18  1  0
 18 19  1  0
 19 20  1  0
 20 21  2  0
 21 22  1  0
 22 23  2  0
 23 24  1  0
 24 25  2  0
 13 26  1  0
 26  9  1  0
 18 12  1  0
 25 20  1  0
  1 27  1  0
  1 28  1  0
  1 29  1  0
  3 30  1  0
  3 31  1  0
  4 32  1  0
  4 33  1  0
  5 34  1  0
  5 35  1  0
  6 36  1  0
 10 37  1  0
 10 38  1  0
 11 39  1  0
 11 40  1  0
 12 41  1  6
 13 42  1  6
 14 43  1  0
 14 44  1  0
 16 45  1  0
 16 46  1  0
 17 47  1  0
 17 48  1  0
 19 49  1  0
 19 50  1  0
 21 51  1  0
 22 52  1  0
 23 53  1  0
 24 54  1  0
 25 55  1  0
 26 56  1  0
 26 57  1  0
M  END
$$$$
