
     RDKit          3D

 56 60  0  0  0  0  0  0  0  0999 V2000
    6.4442    3.8971   -0.1865 C   0  0  0  0  0  0  0  0  0  0  0  0
    6.7880    2.5426    0.0861 O   0  0  0  0  0  0  0  0  0  0  0  0
    5.7036    1.7716    0.4524 C   0  0  0  0  0  0  0  0  0  0  0  0
    5.9735    0.4467    0.7678 C   0  0  0  0  0  0  0  0  0  0  0  0
    4.9134   -0.3783    1.1362 C   0  0  0  0  0  0  0  0  0  0  0  0
    3.6254    0.1518    1.1618 C   0  0  0  0  0  0  0  0  0  0  0  0
    2.4884   -0.6906    1.5649 C   0  0  0  0  0  0  0  0  0  0  0  0
    2.5452   -1.2553    2.6529 O   0  0  0  0  0  0  0  0  0  0  0  0
    1.4187   -0.8214    0.6970 N   0  0  0  0  0  0  0  0  0  0  0  0
    1.3651   -0.4135   -0.7008 C   0  0  0  0  0  0  0  0  0  0  0  0
    0.1513   -1.1376   -1.2965 C   0  0  2  0  0  0  0  0  0  0  0  0
   -0.7261   -0.2209   -2.1415 C   0  0  0  0  0  0  0  0  0  0  0  0
   -1.7254    0.3137   -1.2244 N   0  0  0  0  0  0  0  0  0  0  0  0
   -2.4654    1.4266   -1.5881 C   0  0  0  0  0  0  0  0  0  0  0  0
   -2.3943    1.9415   -2.6990 O   0  0  0  0  0  0  0  0  0  0  0  0
   -3.3623    2.0288   -0.5822 C   0  0  0  0  0  0  0  0  0  0  0  0
   -4.4814    1.3312   -0.1175 C   0  0  0  0  0  0  0  0  0  0  0  0
   -5.3178    1.9258    0.8274 C   0  0  0  0  0  0  0  0  0  0  0  0
   -5.0423    3.2137    1.2916 C   0  0  0  0  0  0  0  0  0  0  0  0
   -3.9370    3.9158    0.8067 C   0  0  0  0  0  0  0  0  0  0  0  0
   -3.0968    3.3268   -0.1379 C   0  0  0  0  0  0  0  0  0  0  0  0
   -1.5607   -0.2245    0.1282 C   0  0  0  0  0  0  0  0  0  0  0  0
   -0.7191   -1.4947   -0.0728 C   0  0  1  0  0  0  0  0  0  0  0  0
   -1.5758   -2.7026   -0.3005 C   0  0  0  0  0  0  0  0  0  0  0  0
   -1.4596   -3.8903    0.2553 N   0  0  0  0  0  0  0  0  0  0  0  0
   -2.4884   -4.6097   -0.2931 C   0  0  0  0  0  0  0  0  0  0  0  0
   -2.7448   -6.0211    0.0544 C   0  0  0  0  0  0  0  0  0  0  0  0
   -3.2451   -3.9268   -1.1582 N   0  0  0  0  0  0  0  0  0  0  0  0
   -2.6481   -2.7276   -1.1541 N   0  0  0  0  0  0  0  0  0  0  0  0
    0.3087   -1.7008    1.0387 C   0  0  0  0  0  0  0  0  0  0  0  0
    3.4551    1.4948    0.8612 C   0  0  0  0  0  0  0  0  0  0  0  0
    4.4660    2.3163    0.4887 N   0  0  0  0  0  0  0  0  0  0  0  0
    7.3637    4.4266   -0.4543 H   0  0  0  0  0  0  0  0  0  0  0  0
    5.7592    3.9688   -1.0386 H   0  0  0  0  0  0  0  0  0  0  0  0
    6.0246    4.3868    0.6992 H   0  0  0  0  0  0  0  0  0  0  0  0
    6.9895    0.0692    0.7325 H   0  0  0  0  0  0  0  0  0  0  0  0
    5.0888   -1.4169    1.4035 H   0  0  0  0  0  0  0  0  0  0  0  0
    2.2921   -0.6944   -1.2109 H   0  0  0  0  0  0  0  0  0  0  0  0
    1.2618    0.6755   -0.7368 H   0  0  0  0  0  0  0  0  0  0  0  0
    0.4862   -2.0145   -1.8633 H   0  0  0  0  0  0  0  0  0  0  0  0
   -1.2610   -0.7818   -2.9157 H   0  0  0  0  0  0  0  0  0  0  0  0
   -0.1681    0.5856   -2.6287 H   0  0  0  0  0  0  0  0  0  0  0  0
   -4.7119    0.3387   -0.4937 H   0  0  0  0  0  0  0  0  0  0  0  0
   -6.1906    1.3920    1.1962 H   0  0  0  0  0  0  0  0  0  0  0  0
   -5.6990    3.6776    2.0243 H   0  0  0  0  0  0  0  0  0  0  0  0
   -3.7366    4.9248    1.1591 H   0  0  0  0  0  0  0  0  0  0  0  0
   -2.2449    3.8773   -0.5294 H   0  0  0  0  0  0  0  0  0  0  0  0
   -1.0429    0.5407    0.7188 H   0  0  0  0  0  0  0  0  0  0  0  0
   -2.5297   -0.4166    0.5967 H   0  0  0  0  0  0  0  0  0  0  0  0
   -1.8788   -6.4604    0.5594 H   0  0  0  0  0  0  0  0  0  0  0  0
   -3.6066   -6.0979    0.7245 H   0  0  0  0  0  0  0  0  0  0  0  0
   -2.9487   -6.6130   -0.8434 H   0  0  0  0  0  0  0  0  0  0  0  0
   -3.0183   -1.9842   -1.7378 H   0  0  0  0  0  0  0  0  0  0  0  0
   -0.0742   -1.4604    2.0366 H   0  0  0  0  0  0  0  0  0  0  0  0
    0.7092   -2.7217    1.0630 H   0  0  0  0  0  0  0  0  0  0  0  0
    2.4798    1.9690    0.9204 H   0  0  0  0  0  0  0  0  0  0  0  0
  1  2  1  0
  2  3  1  0
  3  4  2  0
  4  5  1  0
  5  6  2  0
  6  7  1  0
  7  8  2  0
  7  9  1  0
  9 10  1  0
 10 11  1  0
 11 12  1  0
 12 13  1  0
 13 14  1  0
 14 15  2  0
 14 16  1  0
 16 17  2  0
 17 18  1  0
 18 19  2  0
 19 20  1  0
 20 21  2  0
 13 22  1  0
 22 23  1  0
 23 24  1  6
 24 25  2  0
 25 26  1  0
 26 27  1  0
 26 28  2  0
 28 29  1  0
 23 30  1  0
  6 31  1  0
 31 32  2  0
 32  3  1  0
 30  9  1  0
 23 11  1  0
 29 24  1  0
 21 16  1  0
  1 33  1  0
  1 34  1  0
  1 35  1  0
  4 36  1  0
  5 37  1  0
 10 38  1  0
 10 39  1  0
 11 40  1  6
 12 41  1  0
 12 42  1  0
 17 43  1  0
 18 44  1  0
 19 45  1  0
 20 46  1  0
 21 47  1  0
 22 48  1  0
 22 49  1  0
 27 50  1  0
 27 51  1  0
 27 52  1  0
 29 53  1  0
 30 54  1  0
 30 55  1  0
 31 56  1  0
M  END
$$$$
