
     RDKit          3D

 36 38  0  0  0  0  0  0  0  0999 V2000
   -1.3678    0.4040    1.9655 O   0  0  0  0  0  0  0  0  0  0  0  0
   -1.9304   -0.0405    0.9838 C   0  0  0  0  0  0  0  0  0  0  0  0
   -3.2985    0.3074    0.6046 C   0  0  0  0  0  0  0  0  0  0  0  0
   -4.1976    1.1748    1.1935 C   0  0  0  0  0  0  0  0  0  0  0  0
   -5.4557    1.2946    0.5943 C   0  0  0  0  0  0  0  0  0  0  0  0
   -5.7803    0.5534   -0.5613 C   0  0  0  0  0  0  0  0  0  0  0  0
   -4.8523   -0.3201   -1.1375 C   0  0  0  0  0  0  0  0  0  0  0  0
   -3.6169   -0.4191   -0.5278 C   0  0  0  0  0  0  0  0  0  0  0  0
   -2.4511   -1.2290   -0.8741 C   0  0  0  0  0  0  0  0  0  0  0  0
   -2.4107   -2.0011   -1.8129 O   0  0  0  0  0  0  0  0  0  0  0  0
   -1.4827   -0.9342    0.0477 N   0  0  0  0  0  0  0  0  0  0  0  0
   -0.1751   -1.5645    0.0808 C   0  0  0  0  0  0  0  0  0  0  0  0
    0.7192   -1.1643   -1.0966 C   0  0  0  0  0  0  0  0  0  0  0  0
    1.1174    0.3106   -1.0823 C   0  0  0  0  0  0  0  0  0  0  0  0
    1.7684    0.6714    0.1326 O   0  0  0  0  0  0  0  0  0  0  0  0
    3.1085    0.4460    0.2666 C   0  0  0  0  0  0  0  0  0  0  0  0
    3.9622   -0.0904   -0.6970 C   0  0  0  0  0  0  0  0  0  0  0  0
    5.3208   -0.2667   -0.4129 C   0  0  0  0  0  0  0  0  0  0  0  0
    5.8314    0.0917    0.8334 C   0  0  0  0  0  0  0  0  0  0  0  0
    4.9842    0.6276    1.7993 C   0  0  0  0  0  0  0  0  0  0  0  0
    3.6292    0.8028    1.5140 C   0  0  0  0  0  0  0  0  0  0  0  0
   -3.9343    1.7367    2.0839 H   0  0  0  0  0  0  0  0  0  0  0  0
   -6.1958    1.9672    1.0248 H   0  0  0  0  0  0  0  0  0  0  0  0
   -6.7670    0.6634   -1.0082 H   0  0  0  0  0  0  0  0  0  0  0  0
   -5.0889   -0.8980   -2.0249 H   0  0  0  0  0  0  0  0  0  0  0  0
    0.3152   -1.3452    1.0353 H   0  0  0  0  0  0  0  0  0  0  0  0
   -0.3407   -2.6475    0.0354 H   0  0  0  0  0  0  0  0  0  0  0  0
    1.6194   -1.7877   -1.0537 H   0  0  0  0  0  0  0  0  0  0  0  0
    0.2220   -1.3878   -2.0471 H   0  0  0  0  0  0  0  0  0  0  0  0
    1.7121    0.5806   -1.9621 H   0  0  0  0  0  0  0  0  0  0  0  0
    0.2142    0.9285   -1.1461 H   0  0  0  0  0  0  0  0  0  0  0  0
    3.6098   -0.3852   -1.6788 H   0  0  0  0  0  0  0  0  0  0  0  0
    5.9816   -0.6852   -1.1679 H   0  0  0  0  0  0  0  0  0  0  0  0
    6.8872   -0.0462    1.0509 H   0  0  0  0  0  0  0  0  0  0  0  0
    5.3738    0.9096    2.7736 H   0  0  0  0  0  0  0  0  0  0  0  0
    2.9690    1.2204    2.2710 H   0  0  0  0  0  0  0  0  0  0  0  0
  1  2  2  0
  2  3  1  0
  3  4  2  0
  4  5  1  0
  5  6  2  0
  6  7  1  0
  7  8  2  0
  8  9  1  0
  9 10  2  0
  9 11  1  0
 11 12  1  0
 12 13  1  0
 13 14  1  0
 14 15  1  0
 15 16  1  0
 16 17  2  0
 17 18  1  0
 18 19  2  0
 19 20  1  0
 20 21  2  0
 11  2  1  0
 21 16  1  0
  8  3  1  0
  4 22  1  0
  5 23  1  0
  6 24  1  0
  7 25  1  0
 12 26  1  0
 12 27  1  0
 13 28  1  0
 13 29  1  0
 14 30  1  0
 14 31  1  0
 17 32  1  0
 18 33  1  0
 19 34  1  0
 20 35  1  0
 21 36  1  0
M  END
$$$$
