
     RDKit          3D

 43 44  0  0  0  0  0  0  0  0999 V2000
    5.4614    2.3472    0.3785 C   0  0  0  0  0  0  0  0  0  0  0  0
    4.6455    1.3221    0.9340 O   0  0  0  0  0  0  0  0  0  0  0  0
    3.7685    0.7065    0.0787 C   0  0  0  0  0  0  0  0  0  0  0  0
    3.6088    0.9824   -1.2778 C   0  0  0  0  0  0  0  0  0  0  0  0
    2.6656    0.2695   -2.0308 C   0  0  0  0  0  0  0  0  0  0  0  0
    1.8670   -0.7168   -1.4360 C   0  0  0  0  0  0  0  0  0  0  0  0
    0.8978   -1.4465   -2.2628 C   0  0  0  0  0  0  0  0  0  0  0  0
   -0.4199   -1.5825   -2.0349 C   0  0  0  0  0  0  0  0  0  0  0  0
   -1.1899   -1.0008   -0.9270 C   0  0  0  0  0  0  0  0  0  0  0  0
   -1.9978   -1.8407   -0.1428 C   0  0  0  0  0  0  0  0  0  0  0  0
   -2.7593   -1.3229    0.9119 C   0  0  0  0  0  0  0  0  0  0  0  0
   -3.5780   -2.0651    1.7240 O   0  0  0  0  0  0  0  0  0  0  0  0
   -3.4517   -3.4788    1.6546 C   0  0  0  0  0  0  0  0  0  0  0  0
   -2.7206    0.0570    1.1635 C   0  0  0  0  0  0  0  0  0  0  0  0
   -3.4505    0.5839    2.2027 O   0  0  0  0  0  0  0  0  0  0  0  0
   -4.7221    1.0179    1.7227 C   0  0  0  0  0  0  0  0  0  0  0  0
   -1.8949    0.8910    0.4016 C   0  0  0  0  0  0  0  0  0  0  0  0
   -1.8227    2.2424    0.6246 O   0  0  0  0  0  0  0  0  0  0  0  0
   -0.9657    2.5039    1.7374 C   0  0  0  0  0  0  0  0  0  0  0  0
   -1.1604    0.3717   -0.6617 C   0  0  0  0  0  0  0  0  0  0  0  0
    2.0386   -1.0039   -0.0792 C   0  0  0  0  0  0  0  0  0  0  0  0
    2.9771   -0.2912    0.6593 C   0  0  0  0  0  0  0  0  0  0  0  0
    3.1163   -0.5907    1.9885 O   0  0  0  0  0  0  0  0  0  0  0  0
    6.0967    2.7384    1.1790 H   0  0  0  0  0  0  0  0  0  0  0  0
    4.8525    3.1756    0.0016 H   0  0  0  0  0  0  0  0  0  0  0  0
    6.1174    1.9495   -0.4029 H   0  0  0  0  0  0  0  0  0  0  0  0
    4.1960    1.7410   -1.7837 H   0  0  0  0  0  0  0  0  0  0  0  0
    2.5513    0.5001   -3.0881 H   0  0  0  0  0  0  0  0  0  0  0  0
    1.3231   -1.9177   -3.1470 H   0  0  0  0  0  0  0  0  0  0  0  0
   -1.0069   -2.1812   -2.7290 H   0  0  0  0  0  0  0  0  0  0  0  0
   -2.0145   -2.9009   -0.3743 H   0  0  0  0  0  0  0  0  0  0  0  0
   -3.8190   -3.8576    0.6954 H   0  0  0  0  0  0  0  0  0  0  0  0
   -4.0773   -3.9092    2.4425 H   0  0  0  0  0  0  0  0  0  0  0  0
   -2.4200   -3.7976    1.8379 H   0  0  0  0  0  0  0  0  0  0  0  0
   -4.6176    1.8142    0.9775 H   0  0  0  0  0  0  0  0  0  0  0  0
   -5.2791    1.4234    2.5726 H   0  0  0  0  0  0  0  0  0  0  0  0
   -5.2987    0.1833    1.3086 H   0  0  0  0  0  0  0  0  0  0  0  0
   -1.4060    2.1522    2.6755 H   0  0  0  0  0  0  0  0  0  0  0  0
    0.0252    2.0594    1.5903 H   0  0  0  0  0  0  0  0  0  0  0  0
   -0.8404    3.5884    1.8128 H   0  0  0  0  0  0  0  0  0  0  0  0
   -0.5561    1.0420   -1.2666 H   0  0  0  0  0  0  0  0  0  0  0  0
    1.4485   -1.7732    0.4101 H   0  0  0  0  0  0  0  0  0  0  0  0
    3.8118    0.0145    2.3110 H   0  0  0  0  0  0  0  0  0  0  0  0
  1  2  1  0
  2  3  1  0
  3  4  2  0
  4  5  1  0
  5  6  2  0
  6  7  1  0
  7  8  2  0
  8  9  1  0
  9 10  2  0
 10 11  1  0
 11 12  1  0
 12 13  1  0
 11 14  2  0
 14 15  1  0
 15 16  1  0
 14 17  1  0
 17 18  1  0
 18 19  1  0
 17 20  2  0
  6 21  1  0
 21 22  2  0
 22 23  1  0
 22  3  1  0
 20  9  1  0
  1 24  1  0
  1 25  1  0
  1 26  1  0
  4 27  1  0
  5 28  1  0
  7 29  1  0
  8 30  1  0
 10 31  1  0
 13 32  1  0
 13 33  1  0
 13 34  1  0
 16 35  1  0
 16 36  1  0
 16 37  1  0
 19 38  1  0
 19 39  1  0
 19 40  1  0
 20 41  1  0
 21 42  1  0
 23 43  1  0
M  END
$$$$
