
     RDKit          3D

 99 96  0  0  0  0  0  0  0  0999 V2000
    6.9540   -2.2065    2.5978 C   0  0  0  0  0  0  0  0  0  0  0  0
    7.0853   -1.8804    1.1320 C   0  0  0  0  0  0  0  0  0  0  0  0
    5.9516   -2.3717    0.3540 N   0  0  0  0  0  4  0  0  0  0  0  0
    6.3105   -2.5217   -1.0419 C   0  0  0  0  0  0  0  0  0  0  0  0
    6.8346   -1.2660   -1.6625 C   0  0  0  0  0  0  0  0  0  0  0  0
    5.5438   -3.6644    0.8494 C   0  0  0  0  0  0  0  0  0  0  0  0
    6.6415   -4.6899    0.7192 C   0  0  0  0  0  0  0  0  0  0  0  0
    4.9192   -1.3879    0.4262 C   0  0  0  0  0  0  0  0  0  0  0  0
    3.5660   -1.8571    0.0278 C   0  0  0  0  0  0  0  0  0  0  0  0
    2.5645   -0.8581    0.1158 O   0  0  0  0  0  0  0  0  0  0  0  0
    1.2636   -1.1946   -0.2322 C   0  0  0  0  0  0  0  0  0  0  0  0
    0.9684   -2.4660   -0.6618 C   0  0  0  0  0  0  0  0  0  0  0  0
   -0.3239   -2.7894   -1.0022 C   0  0  0  0  0  0  0  0  0  0  0  0
   -1.3009   -1.8238   -0.9030 C   0  0  0  0  0  0  0  0  0  0  0  0
   -0.9875   -0.5282   -0.4602 C   0  0  0  0  0  0  0  0  0  0  0  0
   -1.9813    0.4145   -0.3554 O   0  0  0  0  0  0  0  0  0  0  0  0
   -3.3557    0.2414   -0.5682 C   0  0  0  0  0  0  0  0  0  0  0  0
   -3.9331   -0.6493    0.4862 C   0  0  0  0  0  0  0  0  0  0  0  0
   -5.3561   -0.8974    0.3347 N   0  0  0  0  0  4  0  0  0  0  0  0
   -6.0350    0.2960    0.8090 C   0  0  0  0  0  0  0  0  0  0  0  0
   -7.4888    0.0925    1.0741 C   0  0  0  0  0  0  0  0  0  0  0  0
   -5.6738   -2.0736    1.0963 C   0  0  0  0  0  0  0  0  0  0  0  0
   -5.8961   -1.8499    2.5543 C   0  0  0  0  0  0  0  0  0  0  0  0
   -5.7390   -1.0589   -1.0652 C   0  0  0  0  0  0  0  0  0  0  0  0
   -5.1752   -2.2848   -1.6947 C   0  0  0  0  0  0  0  0  0  0  0  0
    0.2878   -0.1777   -0.1177 C   0  0  0  0  0  0  0  0  0  0  0  0
    0.7711    1.0066    0.3230 O   0  0  0  0  0  0  0  0  0  0  0  0
    1.3695    2.0725   -0.2486 C   0  0  0  0  0  0  0  0  0  0  0  0
    0.6890    2.9470   -1.1780 C   0  0  0  0  0  0  0  0  0  0  0  0
   -0.4506    3.7284   -0.7733 N   0  0  0  0  0  4  0  0  0  0  0  0
   -0.8680    3.5265    0.5770 C   0  0  0  0  0  0  0  0  0  0  0  0
    0.0300    4.1972    1.5978 C   0  0  0  0  0  0  0  0  0  0  0  0
   -1.5101    3.4810   -1.7258 C   0  0  0  0  0  0  0  0  0  0  0  0
   -2.8619    3.9703   -1.3605 C   0  0  0  0  0  0  0  0  0  0  0  0
   -0.1022    5.1439   -1.0077 C   0  0  0  0  0  0  0  0  0  0  0  0
   -0.9037    6.1447   -0.2985 C   0  0  0  0  0  0  0  0  0  0  0  0
    0.0000    0.0000    0.0000 I   0  0  0  0  0 15  0  0  0  0  0  0
    0.0000    0.0000    0.0000 I   0  0  0  0  0 15  0  0  0  0  0  0
    0.0000    0.0000    0.0000 I   0  0  0  0  0 15  0  0  0  0  0  0
    7.7245   -1.5844    3.1295 H   0  0  0  0  0  0  0  0  0  0  0  0
    5.9752   -1.8614    2.9963 H   0  0  0  0  0  0  0  0  0  0  0  0
    7.1815   -3.2504    2.8332 H   0  0  0  0  0  0  0  0  0  0  0  0
    7.0621   -0.7510    1.0768 H   0  0  0  0  0  0  0  0  0  0  0  0
    8.0371   -2.2537    0.7554 H   0  0  0  0  0  0  0  0  0  0  0  0
    5.3905   -2.8613   -1.5782 H   0  0  0  0  0  0  0  0  0  0  0  0
    7.0608   -3.3147   -1.2085 H   0  0  0  0  0  0  0  0  0  0  0  0
    7.0462   -0.4544   -0.9464 H   0  0  0  0  0  0  0  0  0  0  0  0
    6.1217   -0.8707   -2.4110 H   0  0  0  0  0  0  0  0  0  0  0  0
    7.8046   -1.4370   -2.2159 H   0  0  0  0  0  0  0  0  0  0  0  0
    4.6874   -4.0281    0.2317 H   0  0  0  0  0  0  0  0  0  0  0  0
    5.2863   -3.6303    1.9396 H   0  0  0  0  0  0  0  0  0  0  0  0
    7.6639   -4.2511    0.6985 H   0  0  0  0  0  0  0  0  0  0  0  0
    6.4723   -5.3742   -0.1493 H   0  0  0  0  0  0  0  0  0  0  0  0
    6.6609   -5.3844    1.6113 H   0  0  0  0  0  0  0  0  0  0  0  0
    5.1467   -0.4829   -0.1741 H   0  0  0  0  0  0  0  0  0  0  0  0
    4.8371   -1.0045    1.4878 H   0  0  0  0  0  0  0  0  0  0  0  0
    3.5462   -2.2052   -1.0327 H   0  0  0  0  0  0  0  0  0  0  0  0
    3.1866   -2.7105    0.6270 H   0  0  0  0  0  0  0  0  0  0  0  0
    1.7616   -3.2250   -0.7346 H   0  0  0  0  0  0  0  0  0  0  0  0
   -0.5397   -3.7851   -1.3363 H   0  0  0  0  0  0  0  0  0  0  0  0
   -2.3266   -2.0411   -1.2044 H   0  0  0  0  0  0  0  0  0  0  0  0
   -3.5133   -0.1644   -1.5987 H   0  0  0  0  0  0  0  0  0  0  0  0
   -3.8392    1.2332   -0.5397 H   0  0  0  0  0  0  0  0  0  0  0  0
   -3.7722   -0.0641    1.4650 H   0  0  0  0  0  0  0  0  0  0  0  0
   -3.3376   -1.5438    0.6380 H   0  0  0  0  0  0  0  0  0  0  0  0
   -5.4962    0.7935    1.6439 H   0  0  0  0  0  0  0  0  0  0  0  0
   -5.9588    1.0316   -0.0466 H   0  0  0  0  0  0  0  0  0  0  0  0
   -7.7344   -0.9841    1.0291 H   0  0  0  0  0  0  0  0  0  0  0  0
   -7.8147    0.5552    2.0456 H   0  0  0  0  0  0  0  0  0  0  0  0
   -8.1394    0.5853    0.2936 H   0  0  0  0  0  0  0  0  0  0  0  0
   -4.7786   -2.7569    0.9984 H   0  0  0  0  0  0  0  0  0  0  0  0
   -6.5492   -2.5974    0.6601 H   0  0  0  0  0  0  0  0  0  0  0  0
   -5.9020   -0.7899    2.8605 H   0  0  0  0  0  0  0  0  0  0  0  0
   -6.8403   -2.3736    2.8828 H   0  0  0  0  0  0  0  0  0  0  0  0
   -5.0958   -2.3292    3.1789 H   0  0  0  0  0  0  0  0  0  0  0  0
   -5.5416   -0.1182   -1.6191 H   0  0  0  0  0  0  0  0  0  0  0  0
   -6.8648   -1.1585   -1.1044 H   0  0  0  0  0  0  0  0  0  0  0  0
   -4.5580   -2.9102   -1.0216 H   0  0  0  0  0  0  0  0  0  0  0  0
   -5.9786   -2.9871   -2.0668 H   0  0  0  0  0  0  0  0  0  0  0  0
   -4.5918   -2.0440   -2.6081 H   0  0  0  0  0  0  0  0  0  0  0  0
    1.9394    2.6185    0.5693 H   0  0  0  0  0  0  0  0  0  0  0  0
    2.2755    1.6404   -0.8410 H   0  0  0  0  0  0  0  0  0  0  0  0
    1.4251    3.6768   -1.6630 H   0  0  0  0  0  0  0  0  0  0  0  0
    0.3606    2.3513   -2.0767 H   0  0  0  0  0  0  0  0  0  0  0  0
   -0.8756    2.4561    0.8721 H   0  0  0  0  0  0  0  0  0  0  0  0
   -1.9004    3.8776    0.7797 H   0  0  0  0  0  0  0  0  0  0  0  0
   -0.6182    4.7634    2.2959 H   0  0  0  0  0  0  0  0  0  0  0  0
    0.5344    3.4424    2.2789 H   0  0  0  0  0  0  0  0  0  0  0  0
    0.7529    4.8987    1.1758 H   0  0  0  0  0  0  0  0  0  0  0  0
   -1.5695    2.4225   -2.0673 H   0  0  0  0  0  0  0  0  0  0  0  0
   -1.2583    4.0202   -2.7094 H   0  0  0  0  0  0  0  0  0  0  0  0
   -3.3493    3.5112   -0.4965 H   0  0  0  0  0  0  0  0  0  0  0  0
   -3.5481    3.7002   -2.2315 H   0  0  0  0  0  0  0  0  0  0  0  0
   -2.9606    5.0958   -1.3500 H   0  0  0  0  0  0  0  0  0  0  0  0
   -0.2002    5.2956   -2.1067 H   0  0  0  0  0  0  0  0  0  0  0  0
    0.9749    5.3124   -0.7960 H   0  0  0  0  0  0  0  0  0  0  0  0
   -1.4091    6.8561   -1.0297 H   0  0  0  0  0  0  0  0  0  0  0  0
   -0.2378    6.8721    0.2763 H   0  0  0  0  0  0  0  0  0  0  0  0
   -1.6236    5.8073    0.4571 H   0  0  0  0  0  0  0  0  0  0  0  0
  1  2  1  0
  2  3  1  0
  3  4  1  0
  4  5  1  0
  3  6  1  0
  6  7  1  0
  3  8  1  0
  8  9  1  0
  9 10  1  0
 10 11  1  0
 11 12  2  0
 12 13  1  0
 13 14  2  0
 14 15  1  0
 15 16  1  0
 16 17  1  0
 17 18  1  0
 18 19  1  0
 19 20  1  0
 20 21  1  0
 19 22  1  0
 22 23  1  0
 19 24  1  0
 24 25  1  0
 15 26  2  0
 26 27  1  0
 27 28  1  0
 28 29  1  0
 29 30  1  0
 30 31  1  0
 31 32  1  0
 30 33  1  0
 33 34  1  0
 30 35  1  0
 35 36  1  0
 26 11  1  0
  1 40  1  0
  1 41  1  0
  1 42  1  0
  2 43  1  0
  2 44  1  0
  4 45  1  0
  4 46  1  0
  5 47  1  0
  5 48  1  0
  5 49  1  0
  6 50  1  0
  6 51  1  0
  7 52  1  0
  7 53  1  0
  7 54  1  0
  8 55  1  0
  8 56  1  0
  9 57  1  0
  9 58  1  0
 12 59  1  0
 13 60  1  0
 14 61  1  0
 17 62  1  0
 17 63  1  0
 18 64  1  0
 18 65  1  0
 20 66  1  0
 20 67  1  0
 21 68  1  0
 21 69  1  0
 21 70  1  0
 22 71  1  0
 22 72  1  0
 23 73  1  0
 23 74  1  0
 23 75  1  0
 24 76  1  0
 24 77  1  0
 25 78  1  0
 25 79  1  0
 25 80  1  0
 28 81  1  0
 28 82  1  0
 29 83  1  0
 29 84  1  0
 31 85  1  0
 31 86  1  0
 32 87  1  0
 32 88  1  0
 32 89  1  0
 33 90  1  0
 33 91  1  0
 34 92  1  0
 34 93  1  0
 34 94  1  0
 35 95  1  0
 35 96  1  0
 36 97  1  0
 36 98  1  0
 36 99  1  0
M  CHG  6   3   1  19   1  30   1  37  -1  38  -1  39  -1
M  END
$$$$
