
     RDKit          3D

 35 38  0  0  0  0  0  0  0  0999 V2000
    4.7090    1.3488    0.6797 C   0  0  0  0  0  0  0  0  0  0  0  0
    3.8429    0.2386    0.1368 C   0  0  0  0  0  0  0  0  0  0  0  0
    4.4812   -0.9237   -0.3135 C   0  0  0  0  0  0  0  0  0  0  0  0
    3.7384   -1.9783   -0.8146 C   0  0  0  0  0  0  0  0  0  0  0  0
    2.3492   -1.8804   -0.8782 C   0  0  0  0  0  0  0  0  0  0  0  0
    1.6449   -0.7265   -0.4505 C   0  0  0  0  0  0  0  0  0  0  0  0
    0.2191   -0.5798   -0.5002 C   0  0  0  0  0  0  0  0  0  0  0  0
   -0.4107    0.5820   -0.0024 C   0  0  0  0  0  0  0  0  0  0  0  0
    0.3706    1.6134    0.5100 C   0  0  0  0  0  0  0  0  0  0  0  0
    1.7581    1.4958    0.5417 C   0  0  0  0  0  0  0  0  0  0  0  0
    2.4236    0.3439    0.0785 C   0  0  0  0  0  0  0  0  0  0  0  0
   -1.8645    0.7019   -0.0095 C   0  0  0  0  0  0  0  0  0  0  0  0
   -2.6859   -0.2788   -0.3475 C   0  0  0  0  0  0  0  0  0  0  0  0
   -2.1758   -1.5592   -0.8121 C   0  0  0  0  0  0  0  0  0  0  0  0
   -2.9072   -2.5234   -0.9736 O   0  0  0  0  0  0  0  0  0  0  0  0
   -0.6783   -1.6201   -1.1098 C   0  0  0  0  0  0  0  0  0  0  0  0
   -0.2835   -2.4858   -1.8782 O   0  0  0  0  0  0  0  0  0  0  0  0
   -4.0895    0.1295   -0.1463 C   0  0  1  0  0  0  0  0  0  0  0  0
   -4.7321   -0.5469    1.0601 C   0  0  0  0  0  0  0  0  0  0  0  0
   -3.8774    1.6368    0.0831 C   0  0  0  0  0  0  0  0  0  0  0  0
   -2.4864    1.8625    0.4291 O   0  0  0  0  0  0  0  0  0  0  0  0
    4.5701    2.2623    0.0924 H   0  0  0  0  0  0  0  0  0  0  0  0
    5.7729    1.0918    0.6325 H   0  0  0  0  0  0  0  0  0  0  0  0
    4.4672    1.5414    1.7299 H   0  0  0  0  0  0  0  0  0  0  0  0
    5.5644   -1.0149   -0.2722 H   0  0  0  0  0  0  0  0  0  0  0  0
    4.2335   -2.8830   -1.1587 H   0  0  0  0  0  0  0  0  0  0  0  0
    1.8274   -2.7497   -1.2713 H   0  0  0  0  0  0  0  0  0  0  0  0
   -0.0881    2.5225    0.8952 H   0  0  0  0  0  0  0  0  0  0  0  0
    2.3166    2.3346    0.9529 H   0  0  0  0  0  0  0  0  0  0  0  0
   -4.7071   -0.0356   -1.0354 H   0  0  0  0  0  0  0  0  0  0  0  0
   -4.8308   -1.6256    0.8988 H   0  0  0  0  0  0  0  0  0  0  0  0
   -4.1451   -0.3969    1.9735 H   0  0  0  0  0  0  0  0  0  0  0  0
   -5.7346   -0.1427    1.2365 H   0  0  0  0  0  0  0  0  0  0  0  0
   -4.5101    2.0439    0.8790 H   0  0  0  0  0  0  0  0  0  0  0  0
   -4.0823    2.2018   -0.8353 H   0  0  0  0  0  0  0  0  0  0  0  0
  1  2  1  0
  2  3  2  0
  3  4  1  0
  4  5  2  0
  5  6  1  0
  6  7  2  0
  7  8  1  0
  8  9  2  0
  9 10  1  0
 10 11  2  0
  8 12  1  0
 12 13  2  0
 13 14  1  0
 14 15  2  0
 14 16  1  0
 16 17  2  0
 13 18  1  0
 18 19  1  0
 18 20  1  0
 20 21  1  0
 11  2  1  0
 21 12  1  0
 11  6  1  0
 16  7  1  0
  1 22  1  0
  1 23  1  0
  1 24  1  0
  3 25  1  0
  4 26  1  0
  5 27  1  0
  9 28  1  0
 10 29  1  0
 18 30  1  6
 19 31  1  0
 19 32  1  0
 19 33  1  0
 20 34  1  0
 20 35  1  0
M  END
$$$$
