
     RDKit          3D

 63 64  0  0  0  0  0  0  0  0999 V2000
   -5.0795   -2.5675    0.1225 C   0  0  0  0  0  0  0  0  0  0  0  0
   -4.1700   -1.5058    0.4636 N   0  0  0  0  0  0  0  0  0  0  0  0
   -2.9771   -1.3549   -0.2109 C   0  0  0  0  0  0  0  0  0  0  0  0
   -2.5742   -2.1527   -1.0571 O   0  0  0  0  0  0  0  0  0  0  0  0
   -2.1926   -0.0699    0.1263 C   0  0  2  0  0  0  0  0  0  0  0  0
   -2.6340    1.0803   -0.7881 C   0  0  0  0  0  0  0  0  0  0  0  0
   -3.9942    1.6410   -0.4464 C   0  0  0  0  0  0  0  0  0  0  0  0
   -5.1233    1.2770   -1.1940 C   0  0  0  0  0  0  0  0  0  0  0  0
   -6.3792    1.7859   -0.8657 C   0  0  0  0  0  0  0  0  0  0  0  0
   -6.5200    2.6698    0.2038 C   0  0  0  0  0  0  0  0  0  0  0  0
   -5.4027    3.0395    0.9523 C   0  0  0  0  0  0  0  0  0  0  0  0
   -4.1452    2.5266    0.6313 C   0  0  0  0  0  0  0  0  0  0  0  0
   -0.7788   -0.3809   -0.1068 N   0  0  0  0  0  0  0  0  0  0  0  0
    0.1401   -0.4005    0.9136 C   0  0  0  0  0  0  0  0  0  0  0  0
   -0.1122   -0.0250    2.0528 O   0  0  0  0  0  0  0  0  0  0  0  0
    1.5074   -0.9366    0.4947 C   0  0  2  0  0  0  0  0  0  0  0  0
    1.4298   -2.4887    0.4693 C   0  0  0  0  0  0  0  0  0  0  0  0
    2.0358   -3.1422   -0.7917 C   0  0  0  0  0  0  0  0  0  0  0  0
    1.2531   -2.8030   -2.0626 C   0  0  0  0  0  0  0  0  0  0  0  0
    2.0822   -4.6624   -0.6172 C   0  0  0  0  0  0  0  0  0  0  0  0
    2.6082   -0.4102    1.4515 C   0  0  2  0  0  0  0  0  0  0  0  0
    2.7019    1.1229    1.6271 C   0  0  0  0  0  0  0  0  0  0  0  0
    2.5589    2.0914    0.0773 S   0  0  0  0  0  0  0  0  0  0  0  0
    3.6717    3.4194    0.3703 C   0  0  0  0  0  0  0  0  0  0  0  0
    4.6207    3.8555   -0.5316 C   0  0  0  0  0  0  0  0  0  0  0  0
    5.3878    4.9476   -0.0264 C   0  0  0  0  0  0  0  0  0  0  0  0
    4.9828    5.3188    1.2368 C   0  0  0  0  0  0  0  0  0  0  0  0
    3.6676    4.3718    1.7895 S   0  0  0  0  0  0  0  0  0  0  0  0
    3.9826   -0.9420    1.0620 C   0  0  0  0  0  0  0  0  0  0  0  0
    4.6149   -1.7228    1.7722 O   0  0  0  0  0  0  0  0  0  0  0  0
    4.4749   -0.5216   -0.1496 N   0  0  0  0  0  0  0  0  0  0  0  0
    5.7953   -0.9361   -0.4418 O   0  0  0  0  0  0  0  0  0  0  0  0
   -5.5923   -2.3000   -0.8045 H   0  0  0  0  0  0  0  0  0  0  0  0
   -5.8061   -2.6759    0.9303 H   0  0  0  0  0  0  0  0  0  0  0  0
   -4.5337   -3.5036   -0.0257 H   0  0  0  0  0  0  0  0  0  0  0  0
   -4.5535   -0.6940    0.9408 H   0  0  0  0  0  0  0  0  0  0  0  0
   -2.3488    0.1743    1.1824 H   0  0  0  0  0  0  0  0  0  0  0  0
   -1.9040    1.9004   -0.7337 H   0  0  0  0  0  0  0  0  0  0  0  0
   -2.6242    0.7570   -1.8365 H   0  0  0  0  0  0  0  0  0  0  0  0
   -5.0307    0.5879   -2.0334 H   0  0  0  0  0  0  0  0  0  0  0  0
   -7.2489    1.5060   -1.4536 H   0  0  0  0  0  0  0  0  0  0  0  0
   -7.4980    3.0768    0.4468 H   0  0  0  0  0  0  0  0  0  0  0  0
   -5.5094    3.7362    1.7809 H   0  0  0  0  0  0  0  0  0  0  0  0
   -3.2841    2.8299    1.2235 H   0  0  0  0  0  0  0  0  0  0  0  0
   -0.5928   -0.9364   -0.9336 H   0  0  0  0  0  0  0  0  0  0  0  0
    1.7087   -0.5670   -0.5157 H   0  0  0  0  0  0  0  0  0  0  0  0
    1.9496   -2.8882    1.3498 H   0  0  0  0  0  0  0  0  0  0  0  0
    0.3926   -2.8319    0.5769 H   0  0  0  0  0  0  0  0  0  0  0  0
    3.0661   -2.7939   -0.9206 H   0  0  0  0  0  0  0  0  0  0  0  0
    0.1981   -3.0692   -1.9618 H   0  0  0  0  0  0  0  0  0  0  0  0
    1.3152   -1.7390   -2.3011 H   0  0  0  0  0  0  0  0  0  0  0  0
    1.6580   -3.3490   -2.9230 H   0  0  0  0  0  0  0  0  0  0  0  0
    2.5560   -5.1347   -1.4837 H   0  0  0  0  0  0  0  0  0  0  0  0
    2.6628   -4.9412    0.2687 H   0  0  0  0  0  0  0  0  0  0  0  0
    1.0752   -5.0778   -0.5096 H   0  0  0  0  0  0  0  0  0  0  0  0
    2.4137   -0.8157    2.4550 H   0  0  0  0  0  0  0  0  0  0  0  0
    1.9120    1.4764    2.2985 H   0  0  0  0  0  0  0  0  0  0  0  0
    3.6541    1.3598    2.1151 H   0  0  0  0  0  0  0  0  0  0  0  0
    4.7746    3.4101   -1.5079 H   0  0  0  0  0  0  0  0  0  0  0  0
    6.1944    5.4338   -0.5604 H   0  0  0  0  0  0  0  0  0  0  0  0
    5.3840    6.1102    1.8559 H   0  0  0  0  0  0  0  0  0  0  0  0
    4.1628    0.3368   -0.6015 H   0  0  0  0  0  0  0  0  0  0  0  0
    6.0158   -1.5028    0.3308 H   0  0  0  0  0  0  0  0  0  0  0  0
  1  2  1  0
  2  3  1  0
  3  4  2  0
  3  5  1  0
  5  6  1  0
  6  7  1  0
  7  8  2  0
  8  9  1  0
  9 10  2  0
 10 11  1  0
 11 12  2  0
  5 13  1  0
 13 14  1  0
 14 15  2  0
 14 16  1  0
 16 17  1  0
 17 18  1  0
 18 19  1  0
 18 20  1  0
 16 21  1  0
 21 22  1  0
 22 23  1  0
 23 24  1  0
 24 25  2  0
 25 26  1  0
 26 27  2  0
 27 28  1  0
 21 29  1  0
 29 30  2  0
 29 31  1  0
 31 32  1  0
 12  7  1  0
 28 24  1  0
  1 33  1  0
  1 34  1  0
  1 35  1  0
  2 36  1  0
  5 37  1  1
  6 38  1  0
  6 39  1  0
  8 40  1  0
  9 41  1  0
 10 42  1  0
 11 43  1  0
 12 44  1  0
 13 45  1  0
 16 46  1  6
 17 47  1  0
 17 48  1  0
 18 49  1  0
 19 50  1  0
 19 51  1  0
 19 52  1  0
 20 53  1  0
 20 54  1  0
 20 55  1  0
 21 56  1  1
 22 57  1  0
 22 58  1  0
 25 59  1  0
 26 60  1  0
 27 61  1  0
 31 62  1  0
 32 63  1  0
M  END
$$$$
