
     RDKit          3D

 30 31  0  0  0  0  0  0  0  0999 V2000
   -0.4613    2.5436    0.6717 C   0  0  0  0  0  0  0  0  0  0  0  0
   -0.9953    1.4969   -0.3033 C   0  0  0  0  0  0  0  0  0  0  0  0
   -0.5007    0.0318   -0.0705 C   0  0  0  0  0  0  0  0  0  0  0  0
    1.0356   -0.1454   -0.1373 C   0  0  0  0  0  0  0  0  0  0  0  0
    1.8292    0.6278   -1.0061 C   0  0  0  0  0  0  0  0  0  0  0  0
    3.2118    0.4385   -1.0911 C   0  0  0  0  0  0  0  0  0  0  0  0
    3.8320   -0.5402   -0.3226 C   0  0  0  0  0  0  0  0  0  0  0  0
    3.0679   -1.3382    0.5216 C   0  0  0  0  0  0  0  0  0  0  0  0
    1.6849   -1.1507    0.6052 C   0  0  0  0  0  0  0  0  0  0  0  0
   -1.1227   -0.7909   -1.2275 C   0  0  0  0  0  0  0  0  0  0  0  0
   -0.6969   -0.7837   -2.3835 O   0  0  0  0  0  0  0  0  0  0  0  0
   -2.2465   -1.5226   -0.9659 N   0  0  0  0  0  0  0  0  0  0  0  0
   -3.0497   -1.2518    0.1688 C   0  0  0  0  0  0  0  0  0  0  0  0
   -2.2250   -1.1366    1.3142 N   0  0  0  0  0  0  0  0  0  0  0  0
   -1.0745   -0.4009    1.3011 C   0  0  0  0  0  0  0  0  0  0  0  0
   -0.5776   -0.0986    2.3869 O   0  0  0  0  0  0  0  0  0  0  0  0
   -0.8110    3.5373    0.3715 H   0  0  0  0  0  0  0  0  0  0  0  0
   -0.8234    2.3688    1.6885 H   0  0  0  0  0  0  0  0  0  0  0  0
    0.6309    2.5716    0.6931 H   0  0  0  0  0  0  0  0  0  0  0  0
   -0.7556    1.8221   -1.3238 H   0  0  0  0  0  0  0  0  0  0  0  0
   -2.0917    1.5289   -0.2488 H   0  0  0  0  0  0  0  0  0  0  0  0
    1.3834    1.3810   -1.6508 H   0  0  0  0  0  0  0  0  0  0  0  0
    3.8006    1.0514   -1.7685 H   0  0  0  0  0  0  0  0  0  0  0  0
    4.9060   -0.6883   -0.3899 H   0  0  0  0  0  0  0  0  0  0  0  0
    3.5451   -2.1126    1.1164 H   0  0  0  0  0  0  0  0  0  0  0  0
    1.1276   -1.8070    1.2708 H   0  0  0  0  0  0  0  0  0  0  0  0
   -2.6625   -1.9420   -1.7882 H   0  0  0  0  0  0  0  0  0  0  0  0
   -3.7530   -2.0755    0.3149 H   0  0  0  0  0  0  0  0  0  0  0  0
   -3.5979   -0.3175    0.0166 H   0  0  0  0  0  0  0  0  0  0  0  0
   -2.6099   -1.2973    2.2366 H   0  0  0  0  0  0  0  0  0  0  0  0
  1  2  1  0
  2  3  1  0
  3  4  1  0
  4  5  2  0
  5  6  1  0
  6  7  2  0
  7  8  1  0
  8  9  2  0
  3 10  1  0
 10 11  2  0
 10 12  1  0
 12 13  1  0
 13 14  1  0
 14 15  1  0
 15 16  2  0
 15  3  1  0
  9  4  1  0
  1 17  1  0
  1 18  1  0
  1 19  1  0
  2 20  1  0
  2 21  1  0
  5 22  1  0
  6 23  1  0
  7 24  1  0
  8 25  1  0
  9 26  1  0
 12 27  1  0
 13 28  1  0
 13 29  1  0
 14 30  1  0
M  END
$$$$
