
     RDKit          3D

 20 21  0  0  0  0  0  0  0  0999 V2000
    1.1894   -1.6825    1.7018 O   0  0  0  0  0  0  0  0  0  0  0  0
    0.8749   -0.8546    0.8694 C   0  0  0  0  0  0  0  0  0  0  0  0
   -0.5085   -0.4640    0.5376 C   0  0  0  0  0  0  0  0  0  0  0  0
   -1.6631   -0.9116    1.1593 C   0  0  0  0  0  0  0  0  0  0  0  0
   -2.8894   -0.4185    0.6994 C   0  0  0  0  0  0  0  0  0  0  0  0
   -2.9445    0.5038   -0.3635 C   0  0  0  0  0  0  0  0  0  0  0  0
   -1.7755    0.9476   -0.9858 C   0  0  0  0  0  0  0  0  0  0  0  0
   -0.5788    0.4427   -0.5127 C   0  0  0  0  0  0  0  0  0  0  0  0
    1.0135    0.8178   -1.1025 S   0  0  0  0  0  6  0  0  0  0  0  0
    1.2941    2.2078   -0.8406 O   0  0  0  0  0  0  0  0  0  0  0  0
    1.1841    0.1990   -2.3955 O   0  0  0  0  0  0  0  0  0  0  0  0
    1.7605   -0.1328    0.0490 N   0  0  0  0  0  0  0  0  0  0  0  0
    3.1945   -0.2653    0.0032 C   0  0  0  0  0  0  0  0  0  0  0  0
    3.8793    0.6178    1.3762 Cl  0  0  0  0  0  0  0  0  0  0  0  0
   -1.6179   -1.6215    1.9807 H   0  0  0  0  0  0  0  0  0  0  0  0
   -3.8141   -0.7500    1.1693 H   0  0  0  0  0  0  0  0  0  0  0  0
   -3.9111    0.8740   -0.7018 H   0  0  0  0  0  0  0  0  0  0  0  0
   -1.8073    1.6586   -1.8056 H   0  0  0  0  0  0  0  0  0  0  0  0
    3.4930   -1.3150    0.0747 H   0  0  0  0  0  0  0  0  0  0  0  0
    3.6268    0.1467   -0.9128 H   0  0  0  0  0  0  0  0  0  0  0  0
  1  2  2  0
  2  3  1  0
  3  4  2  0
  4  5  1  0
  5  6  2  0
  6  7  1  0
  7  8  2  0
  8  9  1  0
  9 10  2  0
  9 11  2  0
  9 12  1  0
 12 13  1  0
 13 14  1  0
 12  2  1  0
  8  3  1  0
  4 15  1  0
  5 16  1  0
  6 17  1  0
  7 18  1  0
 13 19  1  0
 13 20  1  0
M  END
$$$$
