
     RDKit          3D

 40 42  0  0  0  0  0  0  0  0999 V2000
    0.0599   -1.9536    2.0784 C   0  0  0  0  0  0  0  0  0  0  0  0
   -0.4544   -0.8401    1.2245 C   0  0  0  0  0  0  0  0  0  0  0  0
    0.2052   -0.1182    0.3033 C   0  0  0  0  0  0  0  0  0  0  0  0
    1.4957   -0.0426   -0.1504 N   0  0  0  0  0  0  0  0  0  0  0  0
    2.6373   -0.6114    0.3650 C   0  0  0  0  0  0  0  0  0  0  0  0
    2.7097   -1.3272    1.3553 O   0  0  0  0  0  0  0  0  0  0  0  0
    3.8945   -0.3062   -0.3777 C   0  0  0  0  0  0  0  0  0  0  0  0
    4.8916   -1.2902   -0.4231 C   0  0  0  0  0  0  0  0  0  0  0  0
    6.0884   -1.0518   -1.1039 C   0  0  0  0  0  0  0  0  0  0  0  0
    6.2930    0.1766   -1.7315 C   0  0  0  0  0  0  0  0  0  0  0  0
    8.0727    0.5354   -2.7430 I   0  0  0  0  0  0  0  0  0  0  0  0
    5.3143    1.1700   -1.6773 C   0  0  0  0  0  0  0  0  0  0  0  0
    4.1157    0.9320   -0.9965 C   0  0  0  0  0  0  0  0  0  0  0  0
   -0.8254    0.7717   -0.3249 C   0  0  0  0  0  0  0  0  0  0  0  0
   -0.5479    1.5218   -1.2512 O   0  0  0  0  0  0  0  0  0  0  0  0
   -2.0370    0.4951    0.3085 N   0  0  0  0  0  0  0  0  0  0  0  0
   -3.3273    0.7215   -0.2364 C   0  0  0  0  0  0  0  0  0  0  0  0
   -3.5475    1.7562   -1.1560 C   0  0  0  0  0  0  0  0  0  0  0  0
   -4.8189    1.9853   -1.6931 C   0  0  0  0  0  0  0  0  0  0  0  0
   -5.8905    1.1785   -1.3225 C   0  0  0  0  0  0  0  0  0  0  0  0
   -5.6908    0.1405   -0.4178 C   0  0  0  0  0  0  0  0  0  0  0  0
   -4.4193   -0.0856    0.1191 C   0  0  0  0  0  0  0  0  0  0  0  0
   -1.8150   -0.4785    1.3255 N   0  0  0  0  0  0  0  0  0  0  0  0
   -2.2974   -0.0509    2.6537 C   0  0  0  0  0  0  0  0  0  0  0  0
    0.7037   -2.6288    1.5082 H   0  0  0  0  0  0  0  0  0  0  0  0
    0.5982   -1.5622    2.9464 H   0  0  0  0  0  0  0  0  0  0  0  0
   -0.7641   -2.5742    2.4482 H   0  0  0  0  0  0  0  0  0  0  0  0
    1.5841    0.5573   -0.9663 H   0  0  0  0  0  0  0  0  0  0  0  0
    4.7366   -2.2474    0.0721 H   0  0  0  0  0  0  0  0  0  0  0  0
    6.8474   -1.8298   -1.1310 H   0  0  0  0  0  0  0  0  0  0  0  0
    5.4735    2.1361   -2.1510 H   0  0  0  0  0  0  0  0  0  0  0  0
    3.3846    1.7339   -0.9370 H   0  0  0  0  0  0  0  0  0  0  0  0
   -2.7405    2.4173   -1.4609 H   0  0  0  0  0  0  0  0  0  0  0  0
   -4.9671    2.7963   -2.4018 H   0  0  0  0  0  0  0  0  0  0  0  0
   -6.8771    1.3546   -1.7431 H   0  0  0  0  0  0  0  0  0  0  0  0
   -6.5205   -0.5021   -0.1348 H   0  0  0  0  0  0  0  0  0  0  0  0
   -4.2907   -0.9263    0.7953 H   0  0  0  0  0  0  0  0  0  0  0  0
   -2.2201   -0.8748    3.3707 H   0  0  0  0  0  0  0  0  0  0  0  0
   -1.7073    0.7936    3.0284 H   0  0  0  0  0  0  0  0  0  0  0  0
   -3.3472    0.2547    2.6284 H   0  0  0  0  0  0  0  0  0  0  0  0
  1  2  1  0
  2  3  2  0
  3  4  1  0
  4  5  1  0
  5  6  2  0
  5  7  1  0
  7  8  2  0
  8  9  1  0
  9 10  2  0
 10 11  1  0
 10 12  1  0
 12 13  2  0
  3 14  1  0
 14 15  2  0
 14 16  1  0
 16 17  1  0
 17 18  2  0
 18 19  1  0
 19 20  2  0
 20 21  1  0
 21 22  2  0
 16 23  1  0
 23 24  1  0
 23  2  1  0
 13  7  1  0
 22 17  1  0
  1 25  1  0
  1 26  1  0
  1 27  1  0
  4 28  1  0
  8 29  1  0
  9 30  1  0
 12 31  1  0
 13 32  1  0
 18 33  1  0
 19 34  1  0
 20 35  1  0
 21 36  1  0
 22 37  1  0
 24 38  1  0
 24 39  1  0
 24 40  1  0
M  END
$$$$
