
     RDKit          3D

 53 53  0  0  0  0  0  0  0  0999 V2000
    4.7435    0.6031    1.7696 C   0  0  0  0  0  0  0  0  0  0  0  0
    4.2989   -0.3505    0.6444 C   0  0  0  0  0  0  0  0  0  0  0  0
    4.7969   -1.7651    0.9813 C   0  0  0  0  0  0  0  0  0  0  0  0
    4.9275    0.1268   -0.6756 C   0  0  0  0  0  0  0  0  0  0  0  0
    2.8282   -0.2649    0.5930 N   0  0  0  0  0  0  0  0  0  0  0  0
    2.1521   -1.2387   -0.2651 C   0  0  0  0  0  0  0  0  0  0  0  0
    0.6451   -0.9389   -0.4259 C   0  0  0  0  0  0  0  0  0  0  0  0
   -0.0183   -2.1122   -0.9286 O   0  0  0  0  0  0  0  0  0  0  0  0
    0.4001    0.2231   -1.4057 C   0  0  0  0  0  0  0  0  0  0  0  0
   -0.9776    0.6131   -1.4391 O   0  0  0  0  0  0  0  0  0  0  0  0
   -1.4073    1.3635   -0.3887 C   0  0  0  0  0  0  0  0  0  0  0  0
   -0.5074    1.9356    0.4156 N   0  0  0  0  0  0  0  0  0  0  0  0
   -1.4223    2.8104    1.5010 S   0  0  0  0  0  0  0  0  0  0  0  0
   -2.9576    2.4633    0.9578 N   0  0  0  0  0  0  0  0  0  0  0  0
   -2.8123    1.6359   -0.0869 C   0  0  0  0  0  0  0  0  0  0  0  0
   -3.8744    1.1311   -0.8087 N   0  0  0  0  0  0  0  0  0  0  0  0
   -5.2327    1.6261   -0.4935 C   0  0  0  0  0  0  0  0  0  0  0  0
   -5.8649    0.7853    0.6273 C   0  0  0  0  0  0  0  0  0  0  0  0
   -5.9006   -0.6101    0.2749 O   0  0  0  0  0  0  0  0  0  0  0  0
   -4.5733   -1.0966    0.0078 C   0  0  0  0  0  0  0  0  0  0  0  0
   -3.9052   -0.3118   -1.1352 C   0  0  0  0  0  0  0  0  0  0  0  0
    0.7047   -0.9674   -1.5040 O   0  0  0  0  0  0  0  0  0  0  0  0
    0.5785   -0.2697   -0.5179 C   0  0  0  0  0  0  0  0  0  0  0  0
    1.5212    0.5915   -0.1095 O   0  0  0  0  0  0  0  0  0  0  0  0
   -0.6547   -0.2761    0.4136 C   0  0  0  0  0  0  0  0  0  0  0  0
   -1.0099   -1.2236    1.0855 O   0  0  0  0  0  0  0  0  0  0  0  0
   -1.3152    0.8903    0.3920 O   0  0  0  0  0  0  0  0  0  0  0  0
    5.8347    0.6084    1.8755 H   0  0  0  0  0  0  0  0  0  0  0  0
    4.4289    1.6349    1.5718 H   0  0  0  0  0  0  0  0  0  0  0  0
    4.3206    0.3044    2.7361 H   0  0  0  0  0  0  0  0  0  0  0  0
    4.3279   -2.1456    1.8959 H   0  0  0  0  0  0  0  0  0  0  0  0
    4.5893   -2.4748    0.1735 H   0  0  0  0  0  0  0  0  0  0  0  0
    5.8814   -1.7705    1.1419 H   0  0  0  0  0  0  0  0  0  0  0  0
    6.0195    0.1769   -0.5924 H   0  0  0  0  0  0  0  0  0  0  0  0
    4.5731    1.1278   -0.9476 H   0  0  0  0  0  0  0  0  0  0  0  0
    4.6984   -0.5478   -1.5069 H   0  0  0  0  0  0  0  0  0  0  0  0
    2.5506    0.6883    0.3547 H   0  0  0  0  0  0  0  0  0  0  0  0
    2.6040   -1.2879   -1.2621 H   0  0  0  0  0  0  0  0  0  0  0  0
    2.2540   -2.2386    0.1724 H   0  0  0  0  0  0  0  0  0  0  0  0
    0.1944   -0.7324    0.5509 H   0  0  0  0  0  0  0  0  0  0  0  0
    0.0621   -2.7961   -0.2408 H   0  0  0  0  0  0  0  0  0  0  0  0
    0.6275   -0.1231   -2.4217 H   0  0  0  0  0  0  0  0  0  0  0  0
    1.0521    1.0863   -1.2285 H   0  0  0  0  0  0  0  0  0  0  0  0
   -5.2337    2.6910   -0.2348 H   0  0  0  0  0  0  0  0  0  0  0  0
   -5.8420    1.5251   -1.4008 H   0  0  0  0  0  0  0  0  0  0  0  0
   -5.3236    0.8966    1.5736 H   0  0  0  0  0  0  0  0  0  0  0  0
   -6.8977    1.1074    0.7940 H   0  0  0  0  0  0  0  0  0  0  0  0
   -4.6593   -2.1518   -0.2681 H   0  0  0  0  0  0  0  0  0  0  0  0
   -3.9818   -1.0387    0.9291 H   0  0  0  0  0  0  0  0  0  0  0  0
   -4.4995   -0.4353   -2.0489 H   0  0  0  0  0  0  0  0  0  0  0  0
   -2.9191   -0.7330   -1.3419 H   0  0  0  0  0  0  0  0  0  0  0  0
    2.2361    0.4981   -0.7720 H   0  0  0  0  0  0  0  0  0  0  0  0
   -2.0608    0.7569    1.0123 H   0  0  0  0  0  0  0  0  0  0  0  0
  1  2  1  0
  2  3  1  0
  2  4  1  0
  2  5  1  0
  5  6  1  0
  6  7  1  0
  7  8  1  0
  7  9  1  0
  9 10  1  0
 10 11  1  0
 11 12  2  0
 12 13  1  0
 13 14  1  0
 14 15  2  0
 15 16  1  0
 16 17  1  0
 17 18  1  0
 18 19  1  0
 19 20  1  0
 20 21  1  0
 22 23  2  0
 23 24  1  0
 23 25  1  0
 25 26  2  0
 25 27  1  0
 15 11  1  0
 21 16  1  0
  1 28  1  0
  1 29  1  0
  1 30  1  0
  3 31  1  0
  3 32  1  0
  3 33  1  0
  4 34  1  0
  4 35  1  0
  4 36  1  0
  5 37  1  0
  6 38  1  0
  6 39  1  0
  7 40  1  0
  8 41  1  0
  9 42  1  0
  9 43  1  0
 17 44  1  0
 17 45  1  0
 18 46  1  0
 18 47  1  0
 20 48  1  0
 20 49  1  0
 21 50  1  0
 21 51  1  0
 24 52  1  0
 27 53  1  0
M  END
$$$$
