
     RDKit          3D

 50 52  0  0  0  0  0  0  0  0999 V2000
   -5.5139   -3.0162    0.1800 C   0  0  0  0  0  0  0  0  0  0  0  0
   -5.3794   -1.6415   -0.1484 O   0  0  0  0  0  0  0  0  0  0  0  0
   -4.1513   -1.0568    0.0413 C   0  0  0  0  0  0  0  0  0  0  0  0
   -3.0219   -1.7270    0.5228 C   0  0  0  0  0  0  0  0  0  0  0  0
   -1.7988   -1.0557    0.6796 C   0  0  0  0  0  0  0  0  0  0  0  0
   -1.7030    0.3099    0.3673 C   0  0  0  0  0  0  0  0  0  0  0  0
   -2.8448    0.9819   -0.1068 C   0  0  0  0  0  0  0  0  0  0  0  0
   -4.0622    0.3114   -0.2759 C   0  0  0  0  0  0  0  0  0  0  0  0
   -5.2137    0.8989   -0.7395 O   0  0  0  0  0  0  0  0  0  0  0  0
   -5.1690    2.2812   -1.0611 C   0  0  0  0  0  0  0  0  0  0  0  0
   -0.3853    1.0648    0.5158 C   0  0  0  0  0  0  0  0  0  0  0  0
    0.1740    1.4381   -0.8607 C   0  0  0  0  0  0  0  0  0  0  0  0
    1.4812    2.1690   -0.6974 C   0  0  0  0  0  0  0  0  0  0  0  0
    1.7182    3.1994   -1.3302 O   0  0  0  0  0  0  0  0  0  0  0  0
    2.5375    1.5260    0.1794 C   0  0  0  0  0  0  0  0  0  0  0  0
    3.2948    0.4676   -0.6399 C   0  0  0  0  0  0  0  0  0  0  0  0
    4.3680   -0.3334    0.1215 C   0  0  0  0  0  0  0  0  0  0  0  0
    5.4457    0.5659    0.7277 C   0  0  0  0  0  0  0  0  0  0  0  0
    5.0155   -1.3534   -0.8197 C   0  0  0  0  0  0  0  0  0  0  0  0
    1.8640    1.0602    1.4754 C   0  0  0  0  0  0  0  0  0  0  0  0
    0.5941    0.3444    1.3538 N   0  0  0  0  0  0  0  0  0  0  0  0
    0.7121   -1.0681    0.9958 C   0  0  0  0  0  0  0  0  0  0  0  0
   -0.6145   -1.7897    1.2576 C   0  0  0  0  0  0  0  0  0  0  0  0
   -6.5474   -3.3100   -0.0277 H   0  0  0  0  0  0  0  0  0  0  0  0
   -5.3279   -3.1885    1.2451 H   0  0  0  0  0  0  0  0  0  0  0  0
   -4.8613   -3.6370   -0.4426 H   0  0  0  0  0  0  0  0  0  0  0  0
   -3.0662   -2.7774    0.7918 H   0  0  0  0  0  0  0  0  0  0  0  0
   -2.7590    2.0393   -0.3365 H   0  0  0  0  0  0  0  0  0  0  0  0
   -6.1640    2.5763   -1.4081 H   0  0  0  0  0  0  0  0  0  0  0  0
   -4.9329    2.8849   -0.1787 H   0  0  0  0  0  0  0  0  0  0  0  0
   -4.4629    2.4749   -1.8753 H   0  0  0  0  0  0  0  0  0  0  0  0
   -0.6216    1.9926    1.0570 H   0  0  0  0  0  0  0  0  0  0  0  0
   -0.5194    2.1004   -1.3925 H   0  0  0  0  0  0  0  0  0  0  0  0
    0.3367    0.5620   -1.4980 H   0  0  0  0  0  0  0  0  0  0  0  0
    3.2427    2.3235    0.4485 H   0  0  0  0  0  0  0  0  0  0  0  0
    2.5900   -0.2317   -1.1020 H   0  0  0  0  0  0  0  0  0  0  0  0
    3.7733    0.9775   -1.4887 H   0  0  0  0  0  0  0  0  0  0  0  0
    3.8926   -0.8976    0.9316 H   0  0  0  0  0  0  0  0  0  0  0  0
    6.2274   -0.0339    1.2065 H   0  0  0  0  0  0  0  0  0  0  0  0
    5.0295    1.2262    1.4944 H   0  0  0  0  0  0  0  0  0  0  0  0
    5.9201    1.1885   -0.0384 H   0  0  0  0  0  0  0  0  0  0  0  0
    5.7542   -1.9611   -0.2862 H   0  0  0  0  0  0  0  0  0  0  0  0
    5.5233   -0.8588   -1.6547 H   0  0  0  0  0  0  0  0  0  0  0  0
    4.2629   -2.0327   -1.2339 H   0  0  0  0  0  0  0  0  0  0  0  0
    1.6513    1.9604    2.0702 H   0  0  0  0  0  0  0  0  0  0  0  0
    2.5614    0.4915    2.1004 H   0  0  0  0  0  0  0  0  0  0  0  0
    1.4858   -1.5566    1.6001 H   0  0  0  0  0  0  0  0  0  0  0  0
    0.9914   -1.2004   -0.0538 H   0  0  0  0  0  0  0  0  0  0  0  0
   -0.7705   -1.8903    2.3393 H   0  0  0  0  0  0  0  0  0  0  0  0
   -0.5568   -2.7987    0.8322 H   0  0  0  0  0  0  0  0  0  0  0  0
  1  2  1  0
  2  3  1  0
  3  4  2  0
  4  5  1  0
  5  6  2  0
  6  7  1  0
  7  8  2  0
  8  9  1  0
  9 10  1  0
  6 11  1  0
 11 12  1  0
 12 13  1  0
 13 14  2  0
 13 15  1  0
 15 16  1  0
 16 17  1  0
 17 18  1  0
 17 19  1  0
 15 20  1  0
 20 21  1  0
 21 22  1  0
 22 23  1  0
  8  3  1  0
 21 11  1  0
 23  5  1  0
  1 24  1  0
  1 25  1  0
  1 26  1  0
  4 27  1  0
  7 28  1  0
 10 29  1  0
 10 30  1  0
 10 31  1  0
 11 32  1  0
 12 33  1  0
 12 34  1  0
 15 35  1  0
 16 36  1  0
 16 37  1  0
 17 38  1  0
 18 39  1  0
 18 40  1  0
 18 41  1  0
 19 42  1  0
 19 43  1  0
 19 44  1  0
 20 45  1  0
 20 46  1  0
 22 47  1  0
 22 48  1  0
 23 49  1  0
 23 50  1  0
M  END
$$$$
