
     RDKit          3D

 77 79  0  0  0  0  0  0  0  0999 V2000
    4.2105   -3.8910    2.1206 C   0  0  0  0  0  0  0  0  0  0  0  0
    4.5949   -2.7793    3.0422 C   0  0  0  0  0  0  0  0  0  0  0  0
    3.6129   -1.6051    2.9492 C   0  0  0  0  0  0  0  0  0  0  0  0
    3.6665   -1.1357    1.5204 C   0  0  0  0  0  0  0  0  0  0  0  0
    2.7775    0.0039    1.2701 N   0  0  0  0  0  0  0  0  0  0  0  0
    3.3750    1.2993    1.4050 C   0  0  0  0  0  0  0  0  0  0  0  0
    4.1357    1.6352    0.1512 C   0  0  0  0  0  0  0  0  0  0  0  0
    3.3561    1.7007   -1.1048 C   0  0  0  0  0  0  0  0  0  0  0  0
    4.2851    2.0061   -2.2866 C   0  0  0  0  0  0  0  0  0  0  0  0
    1.4473   -0.1761    0.8602 C   0  0  0  0  0  0  0  0  0  0  0  0
    1.1118   -1.3903    0.6254 O   0  0  0  0  0  0  0  0  0  0  0  0
    0.4225    0.8786    0.6871 C   0  0  0  0  0  0  0  0  0  0  0  0
   -0.7985    0.3165    0.2825 N   0  0  0  0  0  0  0  0  0  0  0  0
   -1.3902   -0.4774    1.3468 C   0  0  0  0  0  0  0  0  0  0  0  0
   -2.8185   -0.7478    0.8751 C   0  0  2  0  0  0  0  0  0  0  0  0
   -3.0071   -2.1709    0.5341 C   0  0  0  0  0  0  0  0  0  0  0  0
   -2.1383   -2.8797   -0.2671 C   0  0  0  0  0  0  0  0  0  0  0  0
   -2.3514   -4.1961   -0.5709 C   0  0  0  0  0  0  0  0  0  0  0  0
   -3.4483   -4.8555   -0.0811 C   0  0  0  0  0  0  0  0  0  0  0  0
   -4.3276   -4.1727    0.7190 C   0  0  0  0  0  0  0  0  0  0  0  0
   -4.1023   -2.8365    1.0217 C   0  0  0  0  0  0  0  0  0  0  0  0
   -5.3432   -5.0824    1.0704 O   0  0  0  0  0  0  0  0  0  0  0  0
   -4.8313   -6.3969    0.8138 C   0  0  0  0  0  0  0  0  0  0  0  0
   -3.8955   -6.1663   -0.2324 O   0  0  0  0  0  0  0  0  0  0  0  0
   -2.9608    0.1631   -0.3016 C   0  0  1  0  0  0  0  0  0  0  0  0
   -4.2966    0.7394   -0.4577 C   0  0  0  0  0  0  0  0  0  0  0  0
   -4.5098    1.9837   -0.4565 O   0  0  0  0  0  0  0  0  0  0  0  0
   -5.3818   -0.0997   -0.6138 O   0  0  0  0  0  0  0  0  0  0  0  0
   -1.9041    1.1980    0.0237 C   0  0  2  0  0  0  0  0  0  0  0  0
   -1.7547    2.2727   -0.9087 C   0  0  0  0  0  0  0  0  0  0  0  0
   -1.0817    3.4170   -0.5533 C   0  0  0  0  0  0  0  0  0  0  0  0
   -0.8800    4.4934   -1.3706 C   0  0  0  0  0  0  0  0  0  0  0  0
   -1.3945    4.4376   -2.6717 C   0  0  0  0  0  0  0  0  0  0  0  0
   -1.2024    5.5182   -3.5199 O   0  0  0  0  0  0  0  0  0  0  0  0
   -0.5018    6.6384   -3.0546 C   0  0  0  0  0  0  0  0  0  0  0  0
   -2.0791    3.3111   -3.0804 C   0  0  0  0  0  0  0  0  0  0  0  0
   -2.2537    2.2550   -2.2187 C   0  0  0  0  0  0  0  0  0  0  0  0
    0.6898    0.0000    0.0000 Cl  0  0  0  0  0  0  0  0  0  0  0  0
    4.6111   -4.8376    2.5436 H   0  0  0  0  0  0  0  0  0  0  0  0
    4.6293   -3.7596    1.0925 H   0  0  0  0  0  0  0  0  0  0  0  0
    3.1088   -4.0002    2.0030 H   0  0  0  0  0  0  0  0  0  0  0  0
    5.5756   -2.3733    2.6625 H   0  0  0  0  0  0  0  0  0  0  0  0
    4.7698   -3.1079    4.0655 H   0  0  0  0  0  0  0  0  0  0  0  0
    2.6115   -2.0035    3.1987 H   0  0  0  0  0  0  0  0  0  0  0  0
    3.8826   -0.8401    3.6740 H   0  0  0  0  0  0  0  0  0  0  0  0
    4.6827   -0.8612    1.2060 H   0  0  0  0  0  0  0  0  0  0  0  0
    3.3515   -1.9942    0.8719 H   0  0  0  0  0  0  0  0  0  0  0  0
    4.0344    1.3517    2.3044 H   0  0  0  0  0  0  0  0  0  0  0  0
    2.5835    2.0790    1.6040 H   0  0  0  0  0  0  0  0  0  0  0  0
    4.9476    0.8699    0.0330 H   0  0  0  0  0  0  0  0  0  0  0  0
    4.6861    2.6074    0.2487 H   0  0  0  0  0  0  0  0  0  0  0  0
    2.6410    2.5702   -0.9999 H   0  0  0  0  0  0  0  0  0  0  0  0
    2.7705    0.7976   -1.3136 H   0  0  0  0  0  0  0  0  0  0  0  0
    3.8202    1.6353   -3.2207 H   0  0  0  0  0  0  0  0  0  0  0  0
    5.2615    1.5249   -2.0560 H   0  0  0  0  0  0  0  0  0  0  0  0
    4.3833    3.1056   -2.3742 H   0  0  0  0  0  0  0  0  0  0  0  0
    0.7683    1.7338    0.0684 H   0  0  0  0  0  0  0  0  0  0  0  0
    0.3137    1.3367    1.7221 H   0  0  0  0  0  0  0  0  0  0  0  0
   -0.8708   -1.3736    1.6325 H   0  0  0  0  0  0  0  0  0  0  0  0
   -1.4770    0.1784    2.2636 H   0  0  0  0  0  0  0  0  0  0  0  0
   -3.5551   -0.4196    1.6317 H   0  0  0  0  0  0  0  0  0  0  0  0
   -1.2869   -2.3589   -0.6447 H   0  0  0  0  0  0  0  0  0  0  0  0
   -1.6245   -4.6951   -1.2094 H   0  0  0  0  0  0  0  0  0  0  0  0
   -4.8213   -2.3347    1.6579 H   0  0  0  0  0  0  0  0  0  0  0  0
   -4.2700   -6.7613    1.6750 H   0  0  0  0  0  0  0  0  0  0  0  0
   -5.6077   -7.1101    0.5451 H   0  0  0  0  0  0  0  0  0  0  0  0
   -2.5987   -0.3363   -1.2446 H   0  0  0  0  0  0  0  0  0  0  0  0
   -6.2864    0.1860   -0.9674 H   0  0  0  0  0  0  0  0  0  0  0  0
   -2.1686    1.6205    1.0548 H   0  0  0  0  0  0  0  0  0  0  0  0
   -0.6655    3.5273    0.4699 H   0  0  0  0  0  0  0  0  0  0  0  0
   -0.3505    5.3843   -1.0827 H   0  0  0  0  0  0  0  0  0  0  0  0
    0.5100    6.3777   -2.6420 H   0  0  0  0  0  0  0  0  0  0  0  0
   -1.0271    7.0925   -2.1636 H   0  0  0  0  0  0  0  0  0  0  0  0
   -0.4038    7.4074   -3.8203 H   0  0  0  0  0  0  0  0  0  0  0  0
   -2.4962    3.2210   -4.0761 H   0  0  0  0  0  0  0  0  0  0  0  0
   -2.7753    1.3513   -2.4882 H   0  0  0  0  0  0  0  0  0  0  0  0
   -0.6898    0.0000    0.0000 H   0  0  0  0  0  0  0  0  0  0  0  0
  1  2  1  0
  2  3  1  0
  3  4  1  0
  4  5  1  0
  5  6  1  0
  6  7  1  0
  7  8  1  0
  8  9  1  0
  5 10  1  0
 10 11  2  0
 10 12  1  0
 12 13  1  0
 13 14  1  0
 14 15  1  0
 15 16  1  0
 16 17  2  0
 17 18  1  0
 18 19  2  0
 19 20  1  0
 20 21  2  0
 20 22  1  0
 22 23  1  0
 23 24  1  0
 15 25  1  0
 25 26  1  0
 26 27  2  0
 26 28  1  0
 25 29  1  0
 29 30  1  0
 30 31  2  0
 31 32  1  0
 32 33  2  0
 33 34  1  0
 34 35  1  0
 33 36  1  0
 36 37  2  0
 29 13  1  0
 37 30  1  0
 21 16  1  0
 24 19  1  0
  1 39  1  0
  1 40  1  0
  1 41  1  0
  2 42  1  0
  2 43  1  0
  3 44  1  0
  3 45  1  0
  4 46  1  0
  4 47  1  0
  6 48  1  0
  6 49  1  0
  7 50  1  0
  7 51  1  0
  8 52  1  0
  8 53  1  0
  9 54  1  0
  9 55  1  0
  9 56  1  0
 12 57  1  0
 12 58  1  0
 14 59  1  0
 14 60  1  0
 15 61  1  1
 17 62  1  0
 18 63  1  0
 21 64  1  0
 23 65  1  0
 23 66  1  0
 25 67  1  6
 28 68  1  0
 29 69  1  1
 31 70  1  0
 32 71  1  0
 35 72  1  0
 35 73  1  0
 35 74  1  0
 36 75  1  0
 37 76  1  0
 38 77  1  0
M  END
$$$$
