
     RDKit          3D

 54 56  0  0  0  0  0  0  0  0999 V2000
    7.2565   -1.2899    0.5931 C   0  0  0  0  0  0  0  0  0  0  0  0
    6.4140   -0.9257   -0.4914 O   0  0  0  0  0  0  0  0  0  0  0  0
    5.2362   -0.2843   -0.1962 C   0  0  0  0  0  0  0  0  0  0  0  0
    4.8083    0.0228    1.1018 C   0  0  0  0  0  0  0  0  0  0  0  0
    3.5945    0.6784    1.3170 C   0  0  0  0  0  0  0  0  0  0  0  0
    3.2021    0.9581    2.6346 N   0  0  0  0  0  0  0  0  0  0  0  0
    2.0861    1.5803    2.8129 C   0  0  0  0  0  0  0  0  0  0  0  0
    1.2572    2.0007    1.8017 N   0  0  0  0  0  0  0  0  0  0  0  0
    0.0191    2.6947    2.1173 C   0  0  0  0  0  0  0  0  0  0  0  0
   -1.1143    1.6755    2.2203 C   0  0  0  0  0  0  0  0  0  0  0  0
   -1.4468    1.2370    3.3164 O   0  0  0  0  0  0  0  0  0  0  0  0
   -1.6118    1.3090    0.9854 N   0  0  0  0  0  0  0  0  0  0  0  0
   -2.6444    0.4231    0.7207 C   0  0  0  0  0  0  0  0  0  0  0  0
   -3.6017   -0.2373    1.5423 C   0  0  0  0  0  0  0  0  0  0  0  0
   -3.8361   -0.1724    3.0061 C   0  0  0  0  0  0  0  0  0  0  0  0
   -4.4108   -1.0198    0.8166 N   0  0  0  0  0  0  0  0  0  0  0  0
   -3.9910   -0.8692   -0.4490 N   0  0  0  0  0  0  0  0  0  0  0  0
   -4.6627   -1.6244   -1.5059 C   0  0  0  0  0  0  0  0  0  0  0  0
   -4.4935   -3.1313   -1.3080 C   0  0  0  0  0  0  0  0  0  0  0  0
   -6.1385   -1.2391   -1.6164 C   0  0  0  0  0  0  0  0  0  0  0  0
   -2.9435    0.0118   -0.5702 C   0  0  0  0  0  0  0  0  0  0  0  0
   -2.3334    0.3527   -1.8835 C   0  0  0  0  0  0  0  0  0  0  0  0
    1.5362    1.7138    0.4755 C   0  0  0  0  0  0  0  0  0  0  0  0
    0.7635    1.9782   -0.4442 O   0  0  0  0  0  0  0  0  0  0  0  0
    2.8132    1.0242    0.2163 C   0  0  0  0  0  0  0  0  0  0  0  0
    3.2175    0.7261   -1.0891 C   0  0  0  0  0  0  0  0  0  0  0  0
    4.4319    0.0697   -1.3013 C   0  0  0  0  0  0  0  0  0  0  0  0
    4.9235   -0.2689   -2.5373 O   0  0  0  0  0  0  0  0  0  0  0  0
    4.1344    0.0504   -3.6748 C   0  0  0  0  0  0  0  0  0  0  0  0
    7.5943   -0.4064    1.1444 H   0  0  0  0  0  0  0  0  0  0  0  0
    8.1420   -1.7812    0.1782 H   0  0  0  0  0  0  0  0  0  0  0  0
    6.7598   -2.0059    1.2559 H   0  0  0  0  0  0  0  0  0  0  0  0
    5.3973   -0.2377    1.9748 H   0  0  0  0  0  0  0  0  0  0  0  0
    1.7362    1.8167    3.8311 H   0  0  0  0  0  0  0  0  0  0  0  0
   -0.2152    3.4370    1.3462 H   0  0  0  0  0  0  0  0  0  0  0  0
    0.1088    3.2175    3.0759 H   0  0  0  0  0  0  0  0  0  0  0  0
   -1.0807    1.6228    0.1738 H   0  0  0  0  0  0  0  0  0  0  0  0
   -3.9202    0.8654    3.3420 H   0  0  0  0  0  0  0  0  0  0  0  0
   -4.7718   -0.6729    3.2814 H   0  0  0  0  0  0  0  0  0  0  0  0
   -3.0302   -0.6749    3.5490 H   0  0  0  0  0  0  0  0  0  0  0  0
   -4.1790   -1.3598   -2.4519 H   0  0  0  0  0  0  0  0  0  0  0  0
   -4.9220   -3.6822   -2.1519 H   0  0  0  0  0  0  0  0  0  0  0  0
   -4.9888   -3.4780   -0.3944 H   0  0  0  0  0  0  0  0  0  0  0  0
   -3.4337   -3.3982   -1.2336 H   0  0  0  0  0  0  0  0  0  0  0  0
   -6.6062   -1.7435   -2.4686 H   0  0  0  0  0  0  0  0  0  0  0  0
   -6.6974   -1.5150   -0.7151 H   0  0  0  0  0  0  0  0  0  0  0  0
   -6.2501   -0.1587   -1.7600 H   0  0  0  0  0  0  0  0  0  0  0  0
   -3.0970    0.7026   -2.5860 H   0  0  0  0  0  0  0  0  0  0  0  0
   -1.8365   -0.5235   -2.3122 H   0  0  0  0  0  0  0  0  0  0  0  0
   -1.5893    1.1486   -1.8000 H   0  0  0  0  0  0  0  0  0  0  0  0
    2.5727    1.0154   -1.9117 H   0  0  0  0  0  0  0  0  0  0  0  0
    4.6699   -0.2999   -4.5624 H   0  0  0  0  0  0  0  0  0  0  0  0
    4.0022    1.1330   -3.7718 H   0  0  0  0  0  0  0  0  0  0  0  0
    3.1692   -0.4658   -3.6437 H   0  0  0  0  0  0  0  0  0  0  0  0
  1  2  1  0
  2  3  1  0
  3  4  2  0
  4  5  1  0
  5  6  1  0
  6  7  2  0
  7  8  1  0
  8  9  1  0
  9 10  1  0
 10 11  2  0
 10 12  1  0
 12 13  1  0
 13 14  1  0
 14 15  1  0
 14 16  2  0
 16 17  1  0
 17 18  1  0
 18 19  1  0
 18 20  1  0
 17 21  1  0
 21 22  1  0
  8 23  1  0
 23 24  2  0
 23 25  1  0
 25 26  1  0
 26 27  2  0
 27 28  1  0
 28 29  1  0
 27  3  1  0
 25  5  2  0
 21 13  2  0
  1 30  1  0
  1 31  1  0
  1 32  1  0
  4 33  1  0
  7 34  1  0
  9 35  1  0
  9 36  1  0
 12 37  1  0
 15 38  1  0
 15 39  1  0
 15 40  1  0
 18 41  1  0
 19 42  1  0
 19 43  1  0
 19 44  1  0
 20 45  1  0
 20 46  1  0
 20 47  1  0
 22 48  1  0
 22 49  1  0
 22 50  1  0
 26 51  1  0
 29 52  1  0
 29 53  1  0
 29 54  1  0
M  END
$$$$
