
     RDKit          3D

 31 33  0  0  0  0  0  0  0  0999 V2000
    0.5834    2.4190    0.0782 O   0  0  0  0  0  0  0  0  0  0  0  0
    0.8033    1.2572   -0.2386 C   0  0  0  0  0  0  0  0  0  0  0  0
   -0.0943    0.2172   -0.2909 N   0  0  0  0  0  0  0  0  0  0  0  0
   -1.4190    0.2489    0.0654 C   0  0  0  0  0  0  0  0  0  0  0  0
   -2.1763   -0.8074   -0.1068 N   0  0  0  0  0  0  0  0  0  0  0  0
   -3.4608   -0.5344    0.3358 C   0  0  0  0  0  0  0  0  0  0  0  0
   -4.5542   -1.4238    0.3068 C   0  0  0  0  0  0  0  0  0  0  0  0
   -5.7999   -1.0101    0.7908 C   0  0  0  0  0  0  0  0  0  0  0  0
   -5.9672    0.2736    1.3012 C   0  0  0  0  0  0  0  0  0  0  0  0
   -4.8985    1.1745    1.3416 C   0  0  0  0  0  0  0  0  0  0  0  0
   -3.6527    0.7483    0.8528 C   0  0  0  0  0  0  0  0  0  0  0  0
   -2.1638    1.6054    0.7666 S   0  0  0  0  0  0  0  0  0  0  0  0
    2.1887    0.9008   -0.6614 C   0  0  0  0  0  0  0  0  0  0  0  0
    2.9404    1.8557   -1.3475 C   0  0  0  0  0  0  0  0  0  0  0  0
    4.2391    1.5583   -1.7498 C   0  0  0  0  0  0  0  0  0  0  0  0
    4.7987    0.3081   -1.4643 C   0  0  0  0  0  0  0  0  0  0  0  0
    4.0759   -0.6789   -0.7659 C   0  0  0  0  0  0  0  0  0  0  0  0
    4.6610   -2.0476   -0.4042 C   0  0  0  0  0  0  0  0  0  0  0  0
    4.8391   -2.1620    1.3785 Cl  0  0  0  0  0  0  0  0  0  0  0  0
    3.5480   -3.3510   -0.9586 Cl  0  0  0  0  0  0  0  0  0  0  0  0
    6.2605   -2.3909   -1.1356 Cl  0  0  0  0  0  0  0  0  0  0  0  0
    2.7593   -0.3461   -0.3588 C   0  0  0  0  0  0  0  0  0  0  0  0
    0.1716   -0.6687   -0.6958 H   0  0  0  0  0  0  0  0  0  0  0  0
   -4.4206   -2.4244   -0.0918 H   0  0  0  0  0  0  0  0  0  0  0  0
   -6.6415   -1.6986    0.7667 H   0  0  0  0  0  0  0  0  0  0  0  0
   -6.9416    0.5826    1.6745 H   0  0  0  0  0  0  0  0  0  0  0  0
   -5.0290    2.1762    1.7401 H   0  0  0  0  0  0  0  0  0  0  0  0
    2.5169    2.8344   -1.5668 H   0  0  0  0  0  0  0  0  0  0  0  0
    4.8236    2.3058   -2.2829 H   0  0  0  0  0  0  0  0  0  0  0  0
    5.8221    0.1399   -1.7957 H   0  0  0  0  0  0  0  0  0  0  0  0
    2.1876   -1.0619    0.2318 H   0  0  0  0  0  0  0  0  0  0  0  0
  1  2  2  0
  2  3  1  0
  3  4  1  0
  4  5  2  0
  5  6  1  0
  6  7  2  0
  7  8  1  0
  8  9  2  0
  9 10  1  0
 10 11  2  0
 11 12  1  0
  2 13  1  0
 13 14  2  0
 14 15  1  0
 15 16  2  0
 16 17  1  0
 17 18  1  0
 18 19  1  0
 18 20  1  0
 18 21  1  0
 17 22  2  0
 12  4  1  0
 22 13  1  0
 11  6  1  0
  3 23  1  0
  7 24  1  0
  8 25  1  0
  9 26  1  0
 10 27  1  0
 14 28  1  0
 15 29  1  0
 16 30  1  0
 22 31  1  0
M  END
$$$$
