
     RDKit          3D

 39 41  0  0  0  0  0  0  0  0999 V2000
    8.2444    0.1492   -0.2707 C   0  0  0  0  0  0  0  0  0  0  0  0
    6.8315   -0.0561   -0.7583 C   0  0  0  0  0  0  0  0  0  0  0  0
    6.6126   -0.4244   -1.9067 O   0  0  0  0  0  0  0  0  0  0  0  0
    5.8943    0.2431    0.2138 N   0  0  0  0  0  0  0  0  0  0  0  0
    4.4908    0.1726    0.1033 C   0  0  0  0  0  0  0  0  0  0  0  0
    3.7403    0.5306    1.2279 C   0  0  0  0  0  0  0  0  0  0  0  0
    2.3397    0.4887    1.2036 C   0  0  0  0  0  0  0  0  0  0  0  0
    1.6647    0.0904    0.0517 C   0  0  0  0  0  0  0  0  0  0  0  0
    0.2600    0.0141   -0.0576 N   0  0  0  0  0  0  0  0  0  0  0  0
   -0.6744    0.3885    0.8913 C   0  0  0  0  0  0  0  0  0  0  0  0
   -0.4507    0.9170    1.9734 O   0  0  0  0  0  0  0  0  0  0  0  0
   -2.0891    0.1435    0.5176 C   0  0  0  0  0  0  0  0  0  0  0  0
   -2.4994   -0.9241   -0.2814 C   0  0  0  0  0  0  0  0  0  0  0  0
   -3.8573   -1.0787   -0.5760 C   0  0  0  0  0  0  0  0  0  0  0  0
   -4.7732   -0.1626   -0.0618 C   0  0  0  0  0  0  0  0  0  0  0  0
   -6.2133   -0.2470   -0.3160 C   0  0  0  0  0  0  0  0  0  0  0  0
   -7.2415    0.4321    0.4243 C   0  0  0  0  0  0  0  0  0  0  0  0
   -8.5084    0.1696   -0.0467 C   0  0  0  0  0  0  0  0  0  0  0  0
   -8.4817   -0.8825   -1.3905 S   0  0  0  0  0  0  0  0  0  0  0  0
   -6.7713   -0.9845   -1.3448 C   0  0  0  0  0  0  0  0  0  0  0  0
   -4.3906    0.8662    0.7344 N   0  0  0  0  0  0  0  0  0  0  0  0
   -3.0683    0.9925    1.0123 C   0  0  0  0  0  0  0  0  0  0  0  0
    2.4154   -0.2711   -1.0719 C   0  0  0  0  0  0  0  0  0  0  0  0
    3.8160   -0.2300   -1.0471 C   0  0  0  0  0  0  0  0  0  0  0  0
    8.5139    1.2034   -0.3755 H   0  0  0  0  0  0  0  0  0  0  0  0
    8.3458   -0.1549    0.7751 H   0  0  0  0  0  0  0  0  0  0  0  0
    8.9271   -0.4617   -0.8684 H   0  0  0  0  0  0  0  0  0  0  0  0
    6.2503    0.5563    1.1082 H   0  0  0  0  0  0  0  0  0  0  0  0
    4.2266    0.8488    2.1467 H   0  0  0  0  0  0  0  0  0  0  0  0
    1.8093    0.7720    2.1073 H   0  0  0  0  0  0  0  0  0  0  0  0
   -0.0852   -0.2856   -0.9598 H   0  0  0  0  0  0  0  0  0  0  0  0
   -1.7927   -1.6606   -0.6518 H   0  0  0  0  0  0  0  0  0  0  0  0
   -4.1750   -1.9213   -1.1802 H   0  0  0  0  0  0  0  0  0  0  0  0
   -7.0472    1.0832    1.2693 H   0  0  0  0  0  0  0  0  0  0  0  0
   -9.4468    0.5496    0.3332 H   0  0  0  0  0  0  0  0  0  0  0  0
   -6.2776   -1.5856   -2.0947 H   0  0  0  0  0  0  0  0  0  0  0  0
   -2.8161    1.8286    1.6609 H   0  0  0  0  0  0  0  0  0  0  0  0
    1.9303   -0.5899   -1.9908 H   0  0  0  0  0  0  0  0  0  0  0  0
    4.3470   -0.5197   -1.9485 H   0  0  0  0  0  0  0  0  0  0  0  0
  1  2  1  0
  2  3  2  0
  2  4  1  0
  4  5  1  0
  5  6  2  0
  6  7  1  0
  7  8  2  0
  8  9  1  0
  9 10  1  0
 10 11  2  0
 10 12  1  0
 12 13  2  0
 13 14  1  0
 14 15  2  0
 15 16  1  0
 16 17  1  0
 17 18  2  0
 18 19  1  0
 19 20  1  0
 15 21  1  0
 21 22  2  0
  8 23  1  0
 23 24  2  0
 24  5  1  0
 22 12  1  0
 20 16  2  0
  1 25  1  0
  1 26  1  0
  1 27  1  0
  4 28  1  0
  6 29  1  0
  7 30  1  0
  9 31  1  0
 13 32  1  0
 14 33  1  0
 17 34  1  0
 18 35  1  0
 20 36  1  0
 22 37  1  0
 23 38  1  0
 24 39  1  0
M  END
$$$$
