
     RDKit          3D

 16 16  0  0  0  0  0  0  0  0999 V2000
    2.6981    0.6720   -0.1542 N   0  0  0  0  0  0  0  0  0  0  0  0
    1.8068   -0.1883   -0.7347 C   0  0  0  0  0  0  0  0  0  0  0  0
    2.1783   -1.0008   -1.5720 O   0  0  0  0  0  0  0  0  0  0  0  0
    0.3930   -0.1246   -0.2768 C   0  0  0  0  0  0  0  0  0  0  0  0
   -0.4197   -1.2481   -0.4743 C   0  0  0  0  0  0  0  0  0  0  0  0
   -1.7526   -1.2336   -0.0595 C   0  0  0  0  0  0  0  0  0  0  0  0
   -2.2811   -0.0943    0.5461 C   0  0  0  0  0  0  0  0  0  0  0  0
   -1.4816    1.0335    0.7321 C   0  0  0  0  0  0  0  0  0  0  0  0
   -0.1466    1.0227    0.3194 C   0  0  0  0  0  0  0  0  0  0  0  0
    2.5019    1.1305    0.7234 H   0  0  0  0  0  0  0  0  0  0  0  0
    3.6707    0.5136   -0.3862 H   0  0  0  0  0  0  0  0  0  0  0  0
   -0.0141   -2.1384   -0.9512 H   0  0  0  0  0  0  0  0  0  0  0  0
   -2.3777   -2.1097   -0.2133 H   0  0  0  0  0  0  0  0  0  0  0  0
   -3.3206   -0.0826    0.8652 H   0  0  0  0  0  0  0  0  0  0  0  0
   -1.9020    1.9254    1.1905 H   0  0  0  0  0  0  0  0  0  0  0  0
    0.4470    1.9229    0.4455 H   0  0  0  0  0  0  0  0  0  0  0  0
  1  2  1  0
  2  3  2  0
  2  4  1  0
  4  5  2  0
  5  6  1  0
  6  7  2  0
  7  8  1  0
  8  9  2  0
  9  4  1  0
  1 10  1  0
  1 11  1  0
  5 12  1  0
  6 13  1  0
  7 14  1  0
  8 15  1  0
  9 16  1  0
M  END
$$$$
