
     RDKit          3D

 44 45  0  0  0  0  0  0  0  0999 V2000
    4.5291   -2.0019    1.4951 C   0  0  0  0  0  0  0  0  0  0  0  0
    3.1144   -2.4636    1.2009 C   0  0  0  0  0  0  0  0  0  0  0  0
    2.4367   -1.4931    0.3907 O   0  0  0  0  0  0  0  0  0  0  0  0
    1.8168   -0.4953    1.0692 C   0  0  0  0  0  0  0  0  0  0  0  0
    1.7863   -0.3462    2.2796 O   0  0  0  0  0  0  0  0  0  0  0  0
    1.0931    0.3759    0.1229 C   0  0  0  0  0  0  0  0  0  0  0  0
    1.7025    1.0235   -0.8952 C   0  0  0  0  0  0  0  0  0  0  0  0
    3.1800    0.9634   -1.1856 C   0  0  0  0  0  0  0  0  0  0  0  0
    0.9543    1.8446   -1.7247 N   0  0  0  0  0  0  0  0  0  0  0  0
   -0.3829    2.1553   -1.5238 C   0  0  0  0  0  0  0  0  0  0  0  0
   -0.9629    3.1877   -2.4576 C   0  0  0  0  0  0  0  0  0  0  0  0
   -1.0617    1.5603   -0.5166 C   0  0  0  0  0  0  0  0  0  0  0  0
   -2.4920    1.8482   -0.2780 C   0  0  0  0  0  0  0  0  0  0  0  0
   -3.3529    1.8379   -1.1436 O   0  0  0  0  0  0  0  0  0  0  0  0
   -2.6785    2.1196    1.0360 O   0  0  0  0  0  0  0  0  0  0  0  0
   -4.0374    2.3756    1.3905 C   0  0  0  0  0  0  0  0  0  0  0  0
   -0.4002    0.5313    0.4008 C   0  0  0  0  0  0  0  0  0  0  0  0
   -1.1170   -0.8271    0.3045 C   0  0  0  0  0  0  0  0  0  0  0  0
   -1.1136   -1.5042   -0.9367 C   0  0  0  0  0  0  0  0  0  0  0  0
   -1.7423   -2.7378   -1.0924 C   0  0  0  0  0  0  0  0  0  0  0  0
   -2.3900   -3.3245   -0.0114 C   0  0  0  0  0  0  0  0  0  0  0  0
   -2.4116   -2.6783    1.2274 C   0  0  0  0  0  0  0  0  0  0  0  0
   -3.2454   -3.4839    2.5143 Cl  0  0  0  0  0  0  0  0  0  0  0  0
   -1.7798   -1.4318    1.3954 C   0  0  0  0  0  0  0  0  0  0  0  0
   -1.8289   -0.6509    2.9445 Cl  0  0  0  0  0  0  0  0  0  0  0  0
    4.5264   -1.0691    2.0680 H   0  0  0  0  0  0  0  0  0  0  0  0
    5.0747   -2.7599    2.0642 H   0  0  0  0  0  0  0  0  0  0  0  0
    5.0695   -1.8019    0.5640 H   0  0  0  0  0  0  0  0  0  0  0  0
    3.1426   -3.3957    0.6272 H   0  0  0  0  0  0  0  0  0  0  0  0
    2.5599   -2.6705    2.1235 H   0  0  0  0  0  0  0  0  0  0  0  0
    3.5615    1.9619   -1.4277 H   0  0  0  0  0  0  0  0  0  0  0  0
    3.7695    0.6050   -0.3374 H   0  0  0  0  0  0  0  0  0  0  0  0
    3.3680    0.3087   -2.0426 H   0  0  0  0  0  0  0  0  0  0  0  0
    1.4521    2.3656   -2.4431 H   0  0  0  0  0  0  0  0  0  0  0  0
   -0.2445    3.9996   -2.6191 H   0  0  0  0  0  0  0  0  0  0  0  0
   -1.8727    3.6561   -2.0736 H   0  0  0  0  0  0  0  0  0  0  0  0
   -1.1861    2.7326   -3.4277 H   0  0  0  0  0  0  0  0  0  0  0  0
   -4.0759    2.5713    2.4656 H   0  0  0  0  0  0  0  0  0  0  0  0
   -4.4117    3.2585    0.8629 H   0  0  0  0  0  0  0  0  0  0  0  0
   -4.6601    1.5015    1.1755 H   0  0  0  0  0  0  0  0  0  0  0  0
   -0.4652    0.9403    1.4150 H   0  0  0  0  0  0  0  0  0  0  0  0
   -0.6150   -1.0643   -1.8012 H   0  0  0  0  0  0  0  0  0  0  0  0
   -1.7285   -3.2379   -2.0581 H   0  0  0  0  0  0  0  0  0  0  0  0
   -2.8806   -4.2864   -0.1394 H   0  0  0  0  0  0  0  0  0  0  0  0
  1  2  1  0
  2  3  1  0
  3  4  1  0
  4  5  2  0
  4  6  1  0
  6  7  2  0
  7  8  1  0
  7  9  1  0
  9 10  1  0
 10 11  1  0
 10 12  2  0
 12 13  1  0
 13 14  2  0
 13 15  1  0
 15 16  1  0
 12 17  1  0
 17 18  1  0
 18 19  2  0
 19 20  1  0
 20 21  2  0
 21 22  1  0
 22 23  1  0
 22 24  2  0
 24 25  1  0
 17  6  1  0
 24 18  1  0
  1 26  1  0
  1 27  1  0
  1 28  1  0
  2 29  1  0
  2 30  1  0
  8 31  1  0
  8 32  1  0
  8 33  1  0
  9 34  1  0
 11 35  1  0
 11 36  1  0
 11 37  1  0
 16 38  1  0
 16 39  1  0
 16 40  1  0
 17 41  1  0
 19 42  1  0
 20 43  1  0
 21 44  1  0
M  END
$$$$
