
     RDKit          3D

 11 10  0  0  0  0  0  0  0  0999 V2000
    1.6524   -0.4991   -0.2873 C   0  0  0  0  0  0  0  0  0  0  0  0
    0.2192   -0.0145   -1.2747 S   0  0  0  0  0  0  0  0  0  0  0  0
   -0.9339    0.1075    0.0098 C   0  0  0  0  0  0  0  0  0  0  0  0
   -1.6801   -0.8980    0.2848 N   0  0  0  0  0  0  0  0  0  0  0  0
   -1.0161    1.2866    0.6566 N   0  0  0  0  0  0  0  0  0  0  0  0
    1.8957    0.2778    0.4426 H   0  0  0  0  0  0  0  0  0  0  0  0
    2.5138   -0.6413   -0.9450 H   0  0  0  0  0  0  0  0  0  0  0  0
    1.4554   -1.4381    0.2374 H   0  0  0  0  0  0  0  0  0  0  0  0
   -1.4248   -1.6491   -0.3663 H   0  0  0  0  0  0  0  0  0  0  0  0
   -0.7890    2.0898    0.0846 H   0  0  0  0  0  0  0  0  0  0  0  0
   -1.8926    1.3784    1.1575 H   0  0  0  0  0  0  0  0  0  0  0  0
  1  2  1  0
  2  3  1  0
  3  4  2  3
  3  5  1  0
  1  6  1  0
  1  7  1  0
  1  8  1  0
  4  9  1  0
  5 10  1  0
  5 11  1  0
M  END
$$$$
