
     RDKit          3D

 36 36  0  0  0  0  0  0  0  0999 V2000
   -0.9158   -1.7735   -2.5402 C   0  0  0  0  0  0  0  0  0  0  0  0
    0.2018   -1.1052   -1.8146 C   0  0  0  0  0  0  0  0  0  0  0  0
    1.2878   -0.5760   -2.5001 C   0  0  0  0  0  0  0  0  0  0  0  0
    2.2959    0.0303   -1.8078 C   0  0  0  0  0  0  0  0  0  0  0  0
    2.2936    0.1477   -0.4346 C   0  0  0  0  0  0  0  0  0  0  0  0
    3.2694    0.7377    0.2730 N   0  0  0  0  0  0  0  0  0  0  0  0
    3.2448    0.8417    1.6309 C   0  0  0  0  0  0  0  0  0  0  0  0
    4.3072    1.4780    2.3318 N   0  0  0  0  0  0  0  0  0  0  0  0
    2.1788    0.3181    2.2576 N   0  0  0  0  0  0  0  0  0  0  0  0
    1.1490   -0.2925    1.6493 C   0  0  0  0  0  0  0  0  0  0  0  0
    0.1672   -0.7696    2.2864 O   0  0  0  0  0  0  0  0  0  0  0  0
    1.2250   -0.3714    0.2600 C   0  0  0  0  0  0  0  0  0  0  0  0
    0.2024   -0.9845   -0.4216 C   0  0  0  0  0  0  0  0  0  0  0  0
   -1.1868   -1.6601    0.4749 S   0  0  0  0  0  0  0  0  0  0  0  0
   -2.4472   -0.4219    0.6364 C   0  0  0  0  0  0  0  0  0  0  0  0
   -3.6243   -0.7464    1.3089 C   0  0  0  0  0  0  0  0  0  0  0  0
   -4.5631    0.2614    1.3989 C   0  0  0  0  0  0  0  0  0  0  0  0
   -4.3535    1.4802    0.8699 N   0  0  0  0  0  0  0  0  0  0  0  0
   -3.2258    1.8130    0.2179 C   0  0  0  0  0  0  0  0  0  0  0  0
   -2.2611    0.8343    0.1055 C   0  0  0  0  0  0  0  0  0  0  0  0
    0.6838    0.0000    0.0000 Cl  0  0  0  0  0  0  0  0  0  0  0  0
    0.6915    0.0000    0.0000 Cl  0  0  0  0  0  0  0  0  0  0  0  0
   -1.7695   -1.8360   -1.8574 H   0  0  0  0  0  0  0  0  0  0  0  0
   -1.1339   -1.1931   -3.4588 H   0  0  0  0  0  0  0  0  0  0  0  0
   -0.5573   -2.7689   -2.8885 H   0  0  0  0  0  0  0  0  0  0  0  0
    1.3069   -0.6581   -3.5693 H   0  0  0  0  0  0  0  0  0  0  0  0
    3.1260    0.4316   -2.3701 H   0  0  0  0  0  0  0  0  0  0  0  0
    4.0761    1.1291   -0.2562 H   0  0  0  0  0  0  0  0  0  0  0  0
    4.4877    1.2434    3.3200 H   0  0  0  0  0  0  0  0  0  0  0  0
    4.9193    2.1833    1.8766 H   0  0  0  0  0  0  0  0  0  0  0  0
   -3.7832   -1.7386    1.7340 H   0  0  0  0  0  0  0  0  0  0  0  0
   -5.4978    0.0305    1.9236 H   0  0  0  0  0  0  0  0  0  0  0  0
   -3.0670    2.8073   -0.2078 H   0  0  0  0  0  0  0  0  0  0  0  0
   -1.3525    1.1282   -0.4289 H   0  0  0  0  0  0  0  0  0  0  0  0
   -0.6838    0.0000    0.0000 H   0  0  0  0  0  0  0  0  0  0  0  0
   -0.6915    0.0000    0.0000 H   0  0  0  0  0  0  0  0  0  0  0  0
  1  2  1  0
  2  3  2  0
  3  4  1  0
  4  5  2  0
  5  6  1  0
  6  7  1  0
  7  8  1  0
  7  9  2  0
  9 10  1  0
 10 11  2  0
 10 12  1  0
 12 13  2  0
 13 14  1  0
 14 15  1  0
 15 16  2  0
 16 17  1  0
 17 18  2  0
 18 19  1  0
 19 20  2  0
 13  2  1  0
 20 15  1  0
 12  5  1  0
  1 23  1  0
  1 24  1  0
  1 25  1  0
  3 26  1  0
  4 27  1  0
  6 28  1  0
  8 29  1  0
  8 30  1  0
 16 31  1  0
 17 32  1  0
 19 33  1  0
 20 34  1  0
 21 35  1  0
 22 36  1  0
M  END
$$$$
