
     RDKit          3D

 52 58  0  0  0  0  0  0  0  0999 V2000
   -9.6344    1.5451    0.7385 O   0  0  0  0  0  0  0  0  0  0  0  0
   -8.4682    1.3056    0.4339 C   0  0  0  0  0  0  0  0  0  0  0  0
   -7.3282    2.1969    0.8654 C   0  0  0  0  0  0  0  0  0  0  0  0
   -6.0326    1.4247    1.0615 C   0  0  0  0  0  0  0  0  0  0  0  0
   -5.7802    0.4663   -0.0667 C   0  0  0  0  0  0  0  0  0  0  0  0
   -4.5028    0.0204   -0.4150 C   0  0  0  0  0  0  0  0  0  0  0  0
   -3.4290    0.5845    0.2430 O   0  0  0  0  0  0  0  0  0  0  0  0
   -2.3693   -0.2435    0.5387 C   0  0  0  0  0  0  0  0  0  0  0  0
   -2.5279   -1.3600    1.3824 C   0  0  0  0  0  0  0  0  0  0  0  0
   -1.4329   -2.1725    1.6844 C   0  0  0  0  0  0  0  0  0  0  0  0
   -0.2145   -1.8330    1.1297 C   0  0  0  0  0  0  0  0  0  0  0  0
   -0.0365   -0.7108    0.3070 C   0  0  0  0  0  0  0  0  0  0  0  0
   -1.1190    0.1041    0.0173 C   0  0  0  0  0  0  0  0  0  0  0  0
    1.3801   -0.6216   -0.1236 C   0  0  2  0  0  0  0  0  0  0  0  0
    1.9758   -1.8906    0.4834 C   0  0  2  0  0  0  0  0  0  0  0  0
    0.9600   -2.5400    1.3382 O   0  0  0  0  0  0  0  0  0  0  0  0
    2.4975   -0.5385    0.8955 C   0  0  1  0  0  0  0  0  0  0  0  0
    3.8919   -0.0844    0.3897 C   0  0  0  0  0  0  0  0  0  0  0  0
    4.0735    0.9782   -0.3600 N   0  0  0  0  0  0  0  0  0  0  0  0
    5.4206    1.0124   -0.6166 C   0  0  0  0  0  0  0  0  0  0  0  0
    6.1659    1.9319   -1.3680 C   0  0  0  0  0  0  0  0  0  0  0  0
    7.5482    1.7336   -1.4964 C   0  0  0  0  0  0  0  0  0  0  0  0
    8.1889    0.6362   -0.8923 C   0  0  0  0  0  0  0  0  0  0  0  0
    9.6808    0.4389   -1.0413 C   0  0  0  0  0  0  0  0  0  0  0  0
   10.2577    1.2791   -1.9451 F   0  0  0  0  0  0  0  0  0  0  0  0
   10.3475    0.6333    0.1296 F   0  0  0  0  0  0  0  0  0  0  0  0
   10.0009   -0.8209   -1.4469 F   0  0  0  0  0  0  0  0  0  0  0  0
    7.4450   -0.2847   -0.1245 C   0  0  0  0  0  0  0  0  0  0  0  0
    6.0703   -0.0593   -0.0127 C   0  0  0  0  0  0  0  0  0  0  0  0
    5.0704   -0.7326    0.6416 N   0  0  0  0  0  0  0  0  0  0  0  0
   -4.3492   -0.9136   -1.4404 C   0  0  0  0  0  0  0  0  0  0  0  0
   -5.4908   -1.4139   -2.0385 C   0  0  0  0  0  0  0  0  0  0  0  0
   -6.7414   -1.0383   -1.6984 N   0  0  0  0  0  0  0  0  0  0  0  0
   -6.8573   -0.1016   -0.7379 C   0  0  0  0  0  0  0  0  0  0  0  0
   -8.1495    0.2760   -0.4018 N   0  0  0  0  0  0  0  0  0  0  0  0
   -7.6021    2.6983    1.7999 H   0  0  0  0  0  0  0  0  0  0  0  0
   -7.2037    2.9659    0.0939 H   0  0  0  0  0  0  0  0  0  0  0  0
   -5.2114    2.1449    1.1507 H   0  0  0  0  0  0  0  0  0  0  0  0
   -6.0773    0.8508    1.9964 H   0  0  0  0  0  0  0  0  0  0  0  0
   -3.5021   -1.5899    1.8065 H   0  0  0  0  0  0  0  0  0  0  0  0
   -1.5327   -3.0349    2.3331 H   0  0  0  0  0  0  0  0  0  0  0  0
   -1.0025    0.9841   -0.6100 H   0  0  0  0  0  0  0  0  0  0  0  0
    1.6116   -0.3987   -1.1618 H   0  0  0  0  0  0  0  0  0  0  0  0
    2.5702   -2.5263   -0.1636 H   0  0  0  0  0  0  0  0  0  0  0  0
    2.2433   -0.1662    1.8826 H   0  0  0  0  0  0  0  0  0  0  0  0
    5.6734    2.7783   -1.8340 H   0  0  0  0  0  0  0  0  0  0  0  0
    8.1248    2.4502   -2.0807 H   0  0  0  0  0  0  0  0  0  0  0  0
    7.9233   -1.1357    0.3553 H   0  0  0  0  0  0  0  0  0  0  0  0
    5.1776   -1.5674    1.2011 H   0  0  0  0  0  0  0  0  0  0  0  0
   -3.3738   -1.2533   -1.7696 H   0  0  0  0  0  0  0  0  0  0  0  0
   -5.4277   -2.1530   -2.8318 H   0  0  0  0  0  0  0  0  0  0  0  0
   -8.9021   -0.2551   -0.8197 H   0  0  0  0  0  0  0  0  0  0  0  0
  1  2  2  0
  2  3  1  0
  3  4  1  0
  4  5  1  0
  5  6  2  0
  6  7  1  0
  7  8  1  0
  8  9  2  0
  9 10  1  0
 10 11  2  0
 11 12  1  0
 12 13  2  0
 12 14  1  0
 14 15  1  0
 15 16  1  0
 15 17  1  0
 17 18  1  0
 18 19  2  0
 19 20  1  0
 20 21  2  0
 21 22  1  0
 22 23  2  0
 23 24  1  0
 24 25  1  0
 24 26  1  0
 24 27  1  0
 23 28  1  0
 28 29  2  0
 29 30  1  0
  6 31  1  0
 31 32  2  0
 32 33  1  0
 33 34  2  0
 34 35  1  0
 35  2  1  0
 34  5  1  0
 13  8  1  0
 17 14  1  0
 30 18  1  0
 16 11  1  0
 29 20  1  0
  3 36  1  0
  3 37  1  0
  4 38  1  0
  4 39  1  0
  9 40  1  0
 10 41  1  0
 13 42  1  0
 14 43  1  6
 15 44  1  6
 17 45  1  1
 21 46  1  0
 22 47  1  0
 28 48  1  0
 30 49  1  0
 31 50  1  0
 32 51  1  0
 35 52  1  0
M  END
$$$$
