
     RDKit          3D

 62 65  0  0  0  0  0  0  0  0999 V2000
    1.0521   -1.9188    0.1953 C   0  0  0  0  0  0  0  0  0  0  0  0
    1.0455   -0.4992   -0.2689 C   0  0  0  0  0  0  0  0  0  0  0  0
    2.0402    0.2380   -0.9101 C   0  0  0  0  0  0  0  0  0  0  0  0
    3.4118   -0.1719   -1.2312 C   0  0  0  0  0  0  0  0  0  0  0  0
    3.9305    0.1501   -2.2927 O   0  0  0  0  0  0  0  0  0  0  0  0
    4.0174   -0.8704   -0.2032 N   0  0  0  0  0  0  0  0  0  0  0  0
    5.3051   -1.4380   -0.1836 C   0  0  0  0  0  0  0  0  0  0  0  0
    6.1623   -1.4669   -1.2837 C   0  0  0  0  0  0  0  0  0  0  0  0
    7.4256   -2.0574   -1.1840 C   0  0  0  0  0  0  0  0  0  0  0  0
    7.8422   -2.6290    0.0163 C   0  0  0  0  0  0  0  0  0  0  0  0
    6.9932   -2.6232    1.1318 C   0  0  0  0  0  0  0  0  0  0  0  0
    7.4437   -3.2269    2.4376 C   0  0  0  0  0  0  0  0  0  0  0  0
    8.2290   -2.3801    3.1584 F   0  0  0  0  0  0  0  0  0  0  0  0
    6.4075   -3.5634    3.2583 F   0  0  0  0  0  0  0  0  0  0  0  0
    8.1701   -4.3669    2.2731 F   0  0  0  0  0  0  0  0  0  0  0  0
    5.7282   -2.0191    1.0202 C   0  0  0  0  0  0  0  0  0  0  0  0
    1.4571    1.4864   -1.2592 C   0  0  0  0  0  0  0  0  0  0  0  0
    0.1707    1.5365   -0.7589 C   0  0  0  0  0  0  0  0  0  0  0  0
   -0.7963    2.6268   -0.8745 C   0  0  0  0  0  0  0  0  0  0  0  0
   -1.3461    2.9424   -2.1224 C   0  0  0  0  0  0  0  0  0  0  0  0
   -2.2733    3.9790   -2.2447 C   0  0  0  0  0  0  0  0  0  0  0  0
   -2.6507    4.7129   -1.1211 C   0  0  0  0  0  0  0  0  0  0  0  0
   -2.0973    4.4147    0.1231 C   0  0  0  0  0  0  0  0  0  0  0  0
   -1.1684    3.3788    0.2453 C   0  0  0  0  0  0  0  0  0  0  0  0
   -0.0704    0.3167   -0.1519 N   0  0  0  0  0  0  0  0  0  0  0  0
   -1.3304   -0.0666    0.4833 C   0  0  0  0  0  0  0  0  0  0  0  0
   -2.3691   -0.5445   -0.5309 C   0  0  0  0  0  0  0  0  0  0  0  0
   -3.6688   -1.0137    0.1347 C   0  0  0  0  0  0  0  0  0  0  0  0
   -4.2555   -0.0327    1.0585 N   0  0  0  0  0  0  0  0  0  0  0  0
   -4.7461    1.1947    0.3869 C   0  0  0  0  0  0  0  0  0  0  0  0
   -6.0478    0.9994   -0.4087 C   0  0  0  0  0  0  0  0  0  0  0  0
   -7.0873    0.4585    0.4162 O   0  0  0  0  0  0  0  0  0  0  0  0
   -6.6767   -0.7816    1.0046 C   0  0  0  0  0  0  0  0  0  0  0  0
   -5.3840   -0.6146    1.8224 C   0  0  0  0  0  0  0  0  0  0  0  0
    1.2034   -1.9647    1.2785 H   0  0  0  0  0  0  0  0  0  0  0  0
    1.8455   -2.4943   -0.2904 H   0  0  0  0  0  0  0  0  0  0  0  0
    0.1112   -2.4225   -0.0490 H   0  0  0  0  0  0  0  0  0  0  0  0
    3.4843   -0.9213    0.6538 H   0  0  0  0  0  0  0  0  0  0  0  0
    5.8781   -1.0400   -2.2412 H   0  0  0  0  0  0  0  0  0  0  0  0
    8.0833   -2.0679   -2.0511 H   0  0  0  0  0  0  0  0  0  0  0  0
    8.8308   -3.0817    0.0787 H   0  0  0  0  0  0  0  0  0  0  0  0
    5.0734   -2.0053    1.8910 H   0  0  0  0  0  0  0  0  0  0  0  0
    1.9490    2.2834   -1.8043 H   0  0  0  0  0  0  0  0  0  0  0  0
   -1.0552    2.3778   -3.0050 H   0  0  0  0  0  0  0  0  0  0  0  0
   -2.6950    4.2164   -3.2176 H   0  0  0  0  0  0  0  0  0  0  0  0
   -3.3691    5.5227   -1.2174 H   0  0  0  0  0  0  0  0  0  0  0  0
   -2.3834    4.9925    0.9979 H   0  0  0  0  0  0  0  0  0  0  0  0
   -0.7356    3.1607    1.2193 H   0  0  0  0  0  0  0  0  0  0  0  0
   -1.6831    0.7955    1.0560 H   0  0  0  0  0  0  0  0  0  0  0  0
   -1.1149   -0.8494    1.2184 H   0  0  0  0  0  0  0  0  0  0  0  0
   -2.5833    0.2416   -1.2632 H   0  0  0  0  0  0  0  0  0  0  0  0
   -1.9570   -1.3808   -1.1106 H   0  0  0  0  0  0  0  0  0  0  0  0
   -3.4279   -1.9257    0.6969 H   0  0  0  0  0  0  0  0  0  0  0  0
   -4.3765   -1.3128   -0.6464 H   0  0  0  0  0  0  0  0  0  0  0  0
   -4.9334    1.9375    1.1735 H   0  0  0  0  0  0  0  0  0  0  0  0
   -3.9778    1.6343   -0.2554 H   0  0  0  0  0  0  0  0  0  0  0  0
   -5.9000    0.3472   -1.2767 H   0  0  0  0  0  0  0  0  0  0  0  0
   -6.3971    1.9677   -0.7824 H   0  0  0  0  0  0  0  0  0  0  0  0
   -7.4858   -1.1159    1.6620 H   0  0  0  0  0  0  0  0  0  0  0  0
   -6.5635   -1.5344    0.2164 H   0  0  0  0  0  0  0  0  0  0  0  0
   -5.5906    0.0617    2.6622 H   0  0  0  0  0  0  0  0  0  0  0  0
   -5.0939   -1.5724    2.2701 H   0  0  0  0  0  0  0  0  0  0  0  0
  1  2  1  0
  2  3  2  0
  3  4  1  0
  4  5  2  0
  4  6  1  0
  6  7  1  0
  7  8  2  0
  8  9  1  0
  9 10  2  0
 10 11  1  0
 11 12  1  0
 12 13  1  0
 12 14  1  0
 12 15  1  0
 11 16  2  0
  3 17  1  0
 17 18  2  0
 18 19  1  0
 19 20  2  0
 20 21  1  0
 21 22  2  0
 22 23  1  0
 23 24  2  0
 18 25  1  0
 25 26  1  0
 26 27  1  0
 27 28  1  0
 28 29  1  0
 29 30  1  0
 30 31  1  0
 31 32  1  0
 32 33  1  0
 33 34  1  0
 25  2  1  0
 34 29  1  0
 16  7  1  0
 24 19  1  0
  1 35  1  0
  1 36  1  0
  1 37  1  0
  6 38  1  0
  8 39  1  0
  9 40  1  0
 10 41  1  0
 16 42  1  0
 17 43  1  0
 20 44  1  0
 21 45  1  0
 22 46  1  0
 23 47  1  0
 24 48  1  0
 26 49  1  0
 26 50  1  0
 27 51  1  0
 27 52  1  0
 28 53  1  0
 28 54  1  0
 30 55  1  0
 30 56  1  0
 31 57  1  0
 31 58  1  0
 33 59  1  0
 33 60  1  0
 34 61  1  0
 34 62  1  0
M  END
$$$$
