
     RDKit          3D

 43 44  0  0  0  0  0  0  0  0999 V2000
    1.1702    1.7783   -2.2755 Br  0  0  0  0  0  0  0  0  0  0  0  0
    1.3650    0.7172   -0.6851 C   0  0  0  0  0  0  0  0  0  0  0  0
    0.1981    0.2485   -0.0374 C   0  0  0  0  0  0  0  0  0  0  0  0
   -1.0780    0.5998   -0.5302 N   0  0  0  0  0  0  0  0  0  0  0  0
   -2.2836    0.0467   -0.2372 C   0  0  0  0  0  0  0  0  0  0  0  0
   -2.5876   -0.9122    0.5874 N   0  0  0  0  0  0  0  0  0  0  0  0
   -4.0563   -1.0826    0.4423 C   0  0  0  0  0  0  0  0  0  0  0  0
   -4.5499    0.1328   -0.3409 C   0  0  0  0  0  0  0  0  0  0  0  0
   -3.3172    0.6235   -0.9235 N   0  0  0  0  0  0  0  0  0  0  0  0
    0.3745   -0.4946    1.1281 C   0  0  0  0  0  0  0  0  0  0  0  0
    1.6545   -0.7867    1.6043 C   0  0  0  0  0  0  0  0  0  0  0  0
    2.7922   -0.3413    0.9532 C   0  0  0  0  0  0  0  0  0  0  0  0
    3.9939   -0.6619    1.4725 N   0  0  0  0  0  0  0  0  0  0  0  0
    5.0800   -0.2073    0.8154 C   0  0  0  0  0  0  0  0  0  0  0  0
    4.9755    0.5496   -0.3283 C   0  0  0  0  0  0  0  0  0  0  0  0
    3.7802    0.8806   -0.8595 N   0  0  0  0  0  0  0  0  0  0  0  0
    2.6637    0.4351   -0.2225 C   0  0  0  0  0  0  0  0  0  0  0  0
    1.3311    0.2870   -2.3094 O   0  0  0  0  0  0  0  0  0  0  0  0
    1.0273    0.8948   -1.2968 C   0  0  0  0  0  0  0  0  0  0  0  0
    1.7697    1.9421   -0.8690 O   0  0  0  0  0  0  0  0  0  0  0  0
   -0.1471    0.5977   -0.3719 C   0  0  2  0  0  0  0  0  0  0  0  0
   -0.3637    1.6287    0.6018 O   0  0  0  0  0  0  0  0  0  0  0  0
    0.1063   -0.7421    0.3188 C   0  0  1  0  0  0  0  0  0  0  0  0
    0.8549   -0.5417    1.5246 O   0  0  0  0  0  0  0  0  0  0  0  0
   -1.2258   -1.4264    0.5942 C   0  0  0  0  0  0  0  0  0  0  0  0
   -1.7170   -1.6350    1.6926 O   0  0  0  0  0  0  0  0  0  0  0  0
   -1.8610   -1.8284   -0.5249 O   0  0  0  0  0  0  0  0  0  0  0  0
   -1.0361    1.0407   -1.4418 H   0  0  0  0  0  0  0  0  0  0  0  0
   -4.2555   -2.0122   -0.1025 H   0  0  0  0  0  0  0  0  0  0  0  0
   -4.5361   -1.1453    1.4239 H   0  0  0  0  0  0  0  0  0  0  0  0
   -5.2893   -0.1315   -1.1016 H   0  0  0  0  0  0  0  0  0  0  0  0
   -4.9750    0.8845    0.3325 H   0  0  0  0  0  0  0  0  0  0  0  0
   -3.2590    1.6327   -0.9884 H   0  0  0  0  0  0  0  0  0  0  0  0
   -0.4764   -0.8607    1.6969 H   0  0  0  0  0  0  0  0  0  0  0  0
    1.7611   -1.3764    2.5124 H   0  0  0  0  0  0  0  0  0  0  0  0
    6.0413   -0.4718    1.2398 H   0  0  0  0  0  0  0  0  0  0  0  0
    5.8498    0.9143   -0.8546 H   0  0  0  0  0  0  0  0  0  0  0  0
    2.4859    2.0183   -1.5362 H   0  0  0  0  0  0  0  0  0  0  0  0
   -1.0369    0.5807   -1.0104 H   0  0  0  0  0  0  0  0  0  0  0  0
    0.5218    2.0158    0.7654 H   0  0  0  0  0  0  0  0  0  0  0  0
    0.6891   -1.4301   -0.3042 H   0  0  0  0  0  0  0  0  0  0  0  0
    0.2403   -0.0948    2.1416 H   0  0  0  0  0  0  0  0  0  0  0  0
   -2.6748   -2.2667   -0.1942 H   0  0  0  0  0  0  0  0  0  0  0  0
  1  2  1  0
  2  3  2  0
  3  4  1  0
  4  5  1  0
  5  6  2  0
  6  7  1  0
  7  8  1  0
  8  9  1  0
  3 10  1  0
 10 11  2  0
 11 12  1  0
 12 13  2  0
 13 14  1  0
 14 15  2  0
 15 16  1  0
 16 17  2  0
 18 19  2  0
 19 20  1  0
 19 21  1  0
 21 22  1  0
 21 23  1  0
 23 24  1  0
 23 25  1  0
 25 26  2  0
 25 27  1  0
 17  2  1  0
  9  5  1  0
 17 12  1  0
  4 28  1  0
  7 29  1  0
  7 30  1  0
  8 31  1  0
  8 32  1  0
  9 33  1  0
 10 34  1  0
 11 35  1  0
 14 36  1  0
 15 37  1  0
 20 38  1  0
 21 39  1  6
 22 40  1  0
 23 41  1  6
 24 42  1  0
 27 43  1  0
M  END
$$$$
