
     RDKit          3D

 40 42  0  0  0  0  0  0  0  0999 V2000
   -3.4167   -3.9927    1.4747 C   0  0  0  0  0  0  0  0  0  0  0  0
   -2.8187   -3.5670    0.2558 O   0  0  0  0  0  0  0  0  0  0  0  0
   -2.5074   -2.2416    0.1489 C   0  0  0  0  0  0  0  0  0  0  0  0
   -2.6292   -1.2858    1.1525 C   0  0  0  0  0  0  0  0  0  0  0  0
   -2.2733    0.0476    0.9070 C   0  0  0  0  0  0  0  0  0  0  0  0
   -1.7829    0.4470   -0.3415 C   0  0  0  0  0  0  0  0  0  0  0  0
   -1.4211    1.7268   -0.6357 O   0  0  0  0  0  0  0  0  0  0  0  0
   -1.3428    2.6737    0.4219 C   0  0  0  0  0  0  0  0  0  0  0  0
   -1.6533   -0.5216   -1.3439 C   0  0  0  0  0  0  0  0  0  0  0  0
   -1.0448   -0.1313   -2.9732 S   0  0  0  0  0  6  0  0  0  0  0  0
   -1.3175    1.2483   -3.3060 O   0  0  0  0  0  0  0  0  0  0  0  0
   -1.4857   -1.1913   -3.8601 O   0  0  0  0  0  0  0  0  0  0  0  0
    0.6246   -0.3607   -2.8279 N   0  0  0  0  0  0  0  0  0  0  0  0
    1.3547    0.3813   -1.8582 C   0  0  0  0  0  0  0  0  0  0  0  0
    1.4327    1.7670   -1.8731 C   0  0  0  0  0  0  0  0  0  0  0  0
    2.1027    2.4987   -0.9476 N   0  0  0  0  0  0  0  0  0  0  0  0
    2.7278    1.8392    0.0421 C   0  0  0  0  0  0  0  0  0  0  0  0
    3.4192    2.5563    1.0088 C   0  0  0  0  0  0  0  0  0  0  0  0
    4.0838    1.9200    2.0616 C   0  0  0  0  0  0  0  0  0  0  0  0
    4.0612    0.5333    2.1569 C   0  0  0  0  0  0  0  0  0  0  0  0
    3.3750   -0.2122    1.2002 C   0  0  0  0  0  0  0  0  0  0  0  0
    2.7083    0.4303    0.1419 C   0  0  0  0  0  0  0  0  0  0  0  0
    2.0097   -0.2942   -0.8351 C   0  0  0  0  0  0  0  0  0  0  0  0
   -2.0204   -1.8555   -1.0984 C   0  0  0  0  0  0  0  0  0  0  0  0
   -3.6460   -5.0584    1.3805 H   0  0  0  0  0  0  0  0  0  0  0  0
   -2.7237   -3.8734    2.3143 H   0  0  0  0  0  0  0  0  0  0  0  0
   -4.3576   -3.4637    1.6607 H   0  0  0  0  0  0  0  0  0  0  0  0
   -3.0023   -1.5383    2.1402 H   0  0  0  0  0  0  0  0  0  0  0  0
   -2.3991    0.7564    1.7203 H   0  0  0  0  0  0  0  0  0  0  0  0
   -2.3359    2.8822    0.8327 H   0  0  0  0  0  0  0  0  0  0  0  0
   -0.6521    2.3407    1.2037 H   0  0  0  0  0  0  0  0  0  0  0  0
   -0.9516    3.6075    0.0061 H   0  0  0  0  0  0  0  0  0  0  0  0
    0.8946   -1.3250   -3.0125 H   0  0  0  0  0  0  0  0  0  0  0  0
    0.9457    2.3526   -2.6483 H   0  0  0  0  0  0  0  0  0  0  0  0
    3.4429    3.6412    0.9386 H   0  0  0  0  0  0  0  0  0  0  0  0
    4.6178    2.5116    2.8007 H   0  0  0  0  0  0  0  0  0  0  0  0
    4.5785    0.0334    2.9718 H   0  0  0  0  0  0  0  0  0  0  0  0
    3.3649   -1.2966    1.2844 H   0  0  0  0  0  0  0  0  0  0  0  0
    1.9714   -1.3781   -0.7837 H   0  0  0  0  0  0  0  0  0  0  0  0
   -1.9334   -2.6077   -1.8810 H   0  0  0  0  0  0  0  0  0  0  0  0
  1  2  1  0
  2  3  1  0
  3  4  2  0
  4  5  1  0
  5  6  2  0
  6  7  1  0
  7  8  1  0
  6  9  1  0
  9 10  1  0
 10 11  2  0
 10 12  2  0
 10 13  1  0
 13 14  1  0
 14 15  2  0
 15 16  1  0
 16 17  2  0
 17 18  1  0
 18 19  2  0
 19 20  1  0
 20 21  2  0
 21 22  1  0
 22 23  2  0
  9 24  2  0
 24  3  1  0
 23 14  1  0
 22 17  1  0
  1 25  1  0
  1 26  1  0
  1 27  1  0
  4 28  1  0
  5 29  1  0
  8 30  1  0
  8 31  1  0
  8 32  1  0
 13 33  1  0
 15 34  1  0
 18 35  1  0
 19 36  1  0
 20 37  1  0
 21 38  1  0
 23 39  1  0
 24 40  1  0
M  END
$$$$
