
     RDKit          3D

 44 47  0  0  0  0  0  0  0  0999 V2000
    6.7879    0.4879   -0.0903 C   0  0  0  0  0  0  0  0  0  0  0  0
    6.3819    0.3543    1.2651 O   0  0  0  0  0  0  0  0  0  0  0  0
    5.0418    0.2062    1.5020 C   0  0  0  0  0  0  0  0  0  0  0  0
    4.7034    0.0798    2.8508 C   0  0  0  0  0  0  0  0  0  0  0  0
    3.3738   -0.0774    3.2349 C   0  0  0  0  0  0  0  0  0  0  0  0
    2.3724   -0.1088    2.2651 C   0  0  0  0  0  0  0  0  0  0  0  0
    2.6871    0.0162    0.9039 C   0  0  0  0  0  0  0  0  0  0  0  0
    1.6098   -0.0216   -0.0758 C   0  0  0  0  0  0  0  0  0  0  0  0
    1.7225    0.0726   -1.4469 C   0  0  0  0  0  0  0  0  0  0  0  0
    0.4405   -0.0143   -1.9050 N   0  0  0  0  0  0  0  0  0  0  0  0
   -0.4101   -0.1624   -0.8352 C   0  0  0  0  0  0  0  0  0  0  0  0
    0.2842   -0.1602    0.2771 N   0  0  0  0  0  0  0  0  0  0  0  0
   -1.7883   -0.2732   -1.0300 N   0  0  0  0  0  0  0  0  0  0  0  0
   -2.6031   -0.3651    0.1168 C   0  0  0  0  0  0  0  0  0  0  0  0
   -2.2011   -0.5625    1.2628 O   0  0  0  0  0  0  0  0  0  0  0  0
   -4.0964   -0.2223   -0.1460 C   0  0  0  0  0  0  0  0  0  0  0  0
   -4.8900    0.0338    1.0457 N   0  0  0  0  0  0  0  0  0  0  0  0
   -5.9180   -0.7386    1.5127 C   0  0  0  0  0  0  0  0  0  0  0  0
   -6.4458   -0.0257    2.5641 C   0  0  0  0  0  0  0  0  0  0  0  0
   -5.7797    1.1602    2.7316 N   0  0  0  0  0  0  0  0  0  0  0  0
   -4.8351    1.1598    1.8177 C   0  0  0  0  0  0  0  0  0  0  0  0
   -2.3255   -0.1719   -2.3951 C   0  0  0  0  0  0  0  0  0  0  0  0
   -1.3333   -0.6528   -3.4531 C   0  0  0  0  0  0  0  0  0  0  0  0
    0.0035    0.0521   -3.2817 C   0  0  0  0  0  0  0  0  0  0  0  0
    4.0335    0.1741    0.5328 C   0  0  0  0  0  0  0  0  0  0  0  0
    6.5350   -0.4070   -0.6684 H   0  0  0  0  0  0  0  0  0  0  0  0
    6.3588    1.3872   -0.5443 H   0  0  0  0  0  0  0  0  0  0  0  0
    7.8767    0.5958   -0.1042 H   0  0  0  0  0  0  0  0  0  0  0  0
    5.4831    0.1042    3.6080 H   0  0  0  0  0  0  0  0  0  0  0  0
    3.1145   -0.1754    4.2855 H   0  0  0  0  0  0  0  0  0  0  0  0
    1.3349   -0.2328    2.5758 H   0  0  0  0  0  0  0  0  0  0  0  0
    2.5668    0.1915   -2.1098 H   0  0  0  0  0  0  0  0  0  0  0  0
   -4.2915    0.6209   -0.8167 H   0  0  0  0  0  0  0  0  0  0  0  0
   -4.4677   -1.1478   -0.5984 H   0  0  0  0  0  0  0  0  0  0  0  0
   -6.1818   -1.6944    1.0832 H   0  0  0  0  0  0  0  0  0  0  0  0
   -7.2737   -0.2998    3.2048 H   0  0  0  0  0  0  0  0  0  0  0  0
   -4.0992    1.9407    1.6736 H   0  0  0  0  0  0  0  0  0  0  0  0
   -3.2416   -0.7642   -2.4795 H   0  0  0  0  0  0  0  0  0  0  0  0
   -2.5885    0.8793   -2.5642 H   0  0  0  0  0  0  0  0  0  0  0  0
   -1.7313   -0.4764   -4.4580 H   0  0  0  0  0  0  0  0  0  0  0  0
   -1.1900   -1.7357   -3.3439 H   0  0  0  0  0  0  0  0  0  0  0  0
   -0.0730    1.1140   -3.5402 H   0  0  0  0  0  0  0  0  0  0  0  0
    0.7698   -0.4123   -3.9108 H   0  0  0  0  0  0  0  0  0  0  0  0
    4.2829    0.2715   -0.5163 H   0  0  0  0  0  0  0  0  0  0  0  0
  1  2  1  0
  2  3  1  0
  3  4  2  0
  4  5  1  0
  5  6  2  0
  6  7  1  0
  7  8  1  0
  8  9  2  0
  9 10  1  0
 10 11  1  0
 11 12  2  0
 11 13  1  0
 13 14  1  0
 14 15  2  0
 14 16  1  0
 16 17  1  0
 17 18  1  0
 18 19  2  0
 19 20  1  0
 20 21  2  0
 13 22  1  0
 22 23  1  0
 23 24  1  0
  7 25  2  0
 25  3  1  0
 12  8  1  0
 21 17  1  0
 24 10  1  0
  1 26  1  0
  1 27  1  0
  1 28  1  0
  4 29  1  0
  5 30  1  0
  6 31  1  0
  9 32  1  0
 16 33  1  0
 16 34  1  0
 18 35  1  0
 19 36  1  0
 21 37  1  0
 22 38  1  0
 22 39  1  0
 23 40  1  0
 23 41  1  0
 24 42  1  0
 24 43  1  0
 25 44  1  0
M  END
$$$$
