
     RDKit          3D

 60 61  0  0  0  0  0  0  0  0999 V2000
    0.6843    0.0000    0.0000 Cl  0  0  0  0  0  0  0  0  0  0  0  0
    0.6866    0.0000    0.0000 Cl  0  0  0  0  0  0  0  0  0  0  0  0
    5.2875    4.5951   -0.4954 F   0  0  0  0  0  0  0  0  0  0  0  0
    4.6794    3.4010   -0.2989 C   0  0  0  0  0  0  0  0  0  0  0  0
    4.5881    2.5015   -1.3397 C   0  0  0  0  0  0  0  0  0  0  0  0
    3.9738    1.2851   -1.1545 C   0  0  0  0  0  0  0  0  0  0  0  0
    3.4409    0.9432    0.0629 C   0  0  0  0  0  0  0  0  0  0  0  0
    2.7392   -0.3498    0.3467 C   0  0  0  0  0  0  0  0  0  0  0  0
    3.6562   -1.4710   -0.0203 C   0  0  0  0  0  0  0  0  0  0  0  0
    3.2132   -2.7411   -0.1629 C   0  0  0  0  0  0  0  0  0  0  0  0
    4.0653   -3.8045   -0.4906 C   0  0  0  0  0  0  0  0  0  0  0  0
    5.3971   -3.5808   -0.6786 C   0  0  0  0  0  0  0  0  0  0  0  0
    6.2583   -4.6088   -1.0023 F   0  0  0  0  0  0  0  0  0  0  0  0
    5.8729   -2.2926   -0.5379 C   0  0  0  0  0  0  0  0  0  0  0  0
    5.0161   -1.2624   -0.2151 C   0  0  0  0  0  0  0  0  0  0  0  0
    1.4929   -0.5253   -0.2939 N   0  0  0  0  0  0  0  0  0  0  0  0
    0.4331   -0.8982    0.6493 C   0  0  0  0  0  0  0  0  0  0  0  0
   -0.8829   -0.9198   -0.1090 C   0  0  0  0  0  0  0  0  0  0  0  0
   -1.2875    0.4530   -0.4299 N   0  0  0  0  0  0  0  0  0  0  0  0
   -2.1816    1.0107    0.5341 C   0  0  0  0  0  0  0  0  0  0  0  0
   -3.5240    0.3373    0.4626 C   0  0  0  0  0  0  0  0  0  0  0  0
   -4.6153    1.0276    0.2020 C   0  0  0  0  0  0  0  0  0  0  0  0
   -5.9383    0.4310    0.1187 C   0  0  0  0  0  0  0  0  0  0  0  0
   -7.0448    1.2498   -0.1371 C   0  0  0  0  0  0  0  0  0  0  0  0
   -8.2799    0.6728   -0.2209 C   0  0  0  0  0  0  0  0  0  0  0  0
   -8.4932   -0.6707   -0.0679 C   0  0  0  0  0  0  0  0  0  0  0  0
   -7.4320   -1.4962    0.1829 C   0  0  0  0  0  0  0  0  0  0  0  0
   -6.1648   -0.9165    0.2709 C   0  0  0  0  0  0  0  0  0  0  0  0
   -0.1193    1.2828   -0.6355 C   0  0  0  0  0  0  0  0  0  0  0  0
    1.0231    0.4239   -1.2199 C   0  0  0  0  0  0  0  0  0  0  0  0
    3.5506    1.8678    1.0813 C   0  0  0  0  0  0  0  0  0  0  0  0
    4.1583    3.0990    0.9416 C   0  0  0  0  0  0  0  0  0  0  0  0
   -0.6843    0.0000    0.0000 H   0  0  0  0  0  0  0  0  0  0  0  0
   -0.6866    0.0000    0.0000 H   0  0  0  0  0  0  0  0  0  0  0  0
    5.0065    2.7465   -2.3327 H   0  0  0  0  0  0  0  0  0  0  0  0
    3.9165    0.5629   -1.9845 H   0  0  0  0  0  0  0  0  0  0  0  0
    2.5923   -0.4519    1.4416 H   0  0  0  0  0  0  0  0  0  0  0  0
    2.1616   -2.9685   -0.0315 H   0  0  0  0  0  0  0  0  0  0  0  0
    3.6756   -4.7969   -0.5917 H   0  0  0  0  0  0  0  0  0  0  0  0
    6.9488   -2.1132   -0.6925 H   0  0  0  0  0  0  0  0  0  0  0  0
    5.4599   -0.2930   -0.1173 H   0  0  0  0  0  0  0  0  0  0  0  0
    0.3243   -0.0412    1.3704 H   0  0  0  0  0  0  0  0  0  0  0  0
    0.6053   -1.8413    1.1059 H   0  0  0  0  0  0  0  0  0  0  0  0
   -0.7295   -1.4477   -1.0699 H   0  0  0  0  0  0  0  0  0  0  0  0
   -1.6505   -1.3865    0.5391 H   0  0  0  0  0  0  0  0  0  0  0  0
   -1.8275    0.8612    1.5885 H   0  0  0  0  0  0  0  0  0  0  0  0
   -2.2700    2.0946    0.3243 H   0  0  0  0  0  0  0  0  0  0  0  0
   -3.5598   -0.7186    0.6326 H   0  0  0  0  0  0  0  0  0  0  0  0
   -4.5223    2.1095    0.0376 H   0  0  0  0  0  0  0  0  0  0  0  0
   -6.8688    2.3177   -0.2597 H   0  0  0  0  0  0  0  0  0  0  0  0
   -9.1333    1.3273   -0.4204 H   0  0  0  0  0  0  0  0  0  0  0  0
   -9.4942   -1.0997   -0.1407 H   0  0  0  0  0  0  0  0  0  0  0  0
   -7.5463   -2.5541    0.3112 H   0  0  0  0  0  0  0  0  0  0  0  0
   -5.3431   -1.5890    0.4682 H   0  0  0  0  0  0  0  0  0  0  0  0
   -0.3775    2.0005   -1.4526 H   0  0  0  0  0  0  0  0  0  0  0  0
    0.1986    1.8177    0.2599 H   0  0  0  0  0  0  0  0  0  0  0  0
    0.4956   -0.1496   -2.0476 H   0  0  0  0  0  0  0  0  0  0  0  0
    1.6761    1.1068   -1.7148 H   0  0  0  0  0  0  0  0  0  0  0  0
    3.1484    1.6485    2.0613 H   0  0  0  0  0  0  0  0  0  0  0  0
    4.2308    3.8141    1.7722 H   0  0  0  0  0  0  0  0  0  0  0  0
  3  4  1  0
  4  5  2  0
  5  6  1  0
  6  7  2  0
  7  8  1  0
  8  9  1  0
  9 10  2  0
 10 11  1  0
 11 12  2  0
 12 13  1  0
 12 14  1  0
 14 15  2  0
  8 16  1  0
 16 17  1  0
 17 18  1  0
 18 19  1  0
 19 20  1  0
 20 21  1  0
 21 22  2  0
 22 23  1  0
 23 24  2  0
 24 25  1  0
 25 26  2  0
 26 27  1  0
 27 28  2  0
 19 29  1  0
 29 30  1  0
  7 31  1  0
 31 32  2  0
 32  4  1  0
 15  9  1  0
 30 16  1  0
 28 23  1  0
  1 33  1  0
  2 34  1  0
  5 35  1  0
  6 36  1  0
  8 37  1  0
 10 38  1  0
 11 39  1  0
 14 40  1  0
 15 41  1  0
 17 42  1  0
 17 43  1  0
 18 44  1  0
 18 45  1  0
 20 46  1  0
 20 47  1  0
 21 48  1  0
 22 49  1  0
 24 50  1  0
 25 51  1  0
 26 52  1  0
 27 53  1  0
 28 54  1  0
 29 55  1  0
 29 56  1  0
 30 57  1  0
 30 58  1  0
 31 59  1  0
 32 60  1  0
M  END
$$$$
