
     RDKit          3D

 73 73  0  0  0  0  0  0  0  0999 V2000
    9.0139   -1.8619    3.1964 C   0  0  0  0  0  0  0  0  0  0  0  0
    8.6060   -0.9137    2.2461 O   0  0  0  0  0  0  0  0  0  0  0  0
    7.3362   -0.8284    1.7073 C   0  0  0  0  0  0  0  0  0  0  0  0
    6.3253   -1.6898    2.0637 C   0  0  0  0  0  0  0  0  0  0  0  0
    5.0451   -1.5888    1.5051 C   0  0  0  0  0  0  0  0  0  0  0  0
    4.7485   -0.6148    0.5705 C   0  0  0  0  0  0  0  0  0  0  0  0
    3.4176   -0.4837   -0.0699 C   0  0  0  0  0  0  0  0  0  0  0  0
    2.5363    0.3596    0.8036 C   0  0  0  0  0  0  0  0  0  0  0  0
    1.2361    0.5830    0.2849 N   0  0  0  0  0  0  0  0  0  0  0  0
    0.3828    1.3347    1.0834 C   0  0  0  0  0  0  0  0  0  0  0  0
    0.8734   -0.0612   -0.8812 C   0  0  0  0  0  0  0  0  0  0  0  0
   -0.4462    0.1868   -1.5081 C   0  0  0  0  0  0  0  0  0  0  0  0
   -1.6680   -0.1483   -0.7399 C   0  0  0  0  0  0  0  0  0  0  0  0
   -2.9080    0.1186   -1.5455 C   0  0  0  0  0  0  0  0  0  0  0  0
   -2.7510   -0.7669   -2.7347 C   0  0  0  0  0  0  0  0  0  0  0  0
   -2.6451   -1.4831   -3.6974 N   0  0  0  0  0  0  0  0  0  0  0  0
   -4.1435   -0.3057   -0.8476 C   0  0  0  0  0  0  0  0  0  0  0  0
   -5.2327   -0.7209   -1.6270 C   0  0  0  0  0  0  0  0  0  0  0  0
   -6.4115   -1.1074   -1.0738 C   0  0  0  0  0  0  0  0  0  0  0  0
   -6.6208   -1.1183    0.3117 C   0  0  0  0  0  0  0  0  0  0  0  0
   -7.7273   -1.4817    0.8019 O   0  0  0  0  0  0  0  0  0  0  0  0
   -8.8527   -1.8526    1.2744 C   0  0  0  0  0  0  0  0  0  0  0  0
   -5.5240   -0.7016    1.0838 C   0  0  0  0  0  0  0  0  0  0  0  0
   -5.7158   -0.7075    2.4434 O   0  0  0  0  0  0  0  0  0  0  0  0
   -4.7417   -0.3259    3.3841 C   0  0  0  0  0  0  0  0  0  0  0  0
   -4.3505   -0.3183    0.4995 C   0  0  0  0  0  0  0  0  0  0  0  0
   -3.0990    1.4836   -2.0830 C   0  0  0  0  0  0  0  0  0  0  0  0
   -3.1299    2.5997   -1.0763 C   0  0  0  0  0  0  0  0  0  0  0  0
   -2.3638    1.8443   -3.3363 C   0  0  0  0  0  0  0  0  0  0  0  0
    5.7940    0.2287    0.2424 C   0  0  0  0  0  0  0  0  0  0  0  0
    7.0545    0.1662    0.7606 C   0  0  0  0  0  0  0  0  0  0  0  0
    8.0736    1.0428    0.3914 O   0  0  0  0  0  0  0  0  0  0  0  0
    7.7594    2.0276   -0.5734 C   0  0  0  0  0  0  0  0  0  0  0  0
    0.6906    0.0000    0.0000 Cl  0  0  0  0  0  0  0  0  0  0  0  0
    8.2596   -2.0133    3.9992 H   0  0  0  0  0  0  0  0  0  0  0  0
    9.0966   -2.8425    2.6617 H   0  0  0  0  0  0  0  0  0  0  0  0
   10.0082   -1.5969    3.5942 H   0  0  0  0  0  0  0  0  0  0  0  0
    6.5250   -2.4787    2.8036 H   0  0  0  0  0  0  0  0  0  0  0  0
    4.2870   -2.2869    1.8164 H   0  0  0  0  0  0  0  0  0  0  0  0
    2.9729   -1.4806   -0.2885 H   0  0  0  0  0  0  0  0  0  0  0  0
    3.5841    0.1023   -1.0187 H   0  0  0  0  0  0  0  0  0  0  0  0
    3.0489    1.3278    0.9683 H   0  0  0  0  0  0  0  0  0  0  0  0
    2.4445   -0.1778    1.7912 H   0  0  0  0  0  0  0  0  0  0  0  0
    1.0432    2.0559    1.6836 H   0  0  0  0  0  0  0  0  0  0  0  0
   -0.1310    0.7737    1.9024 H   0  0  0  0  0  0  0  0  0  0  0  0
   -0.2998    2.0582    0.5578 H   0  0  0  0  0  0  0  0  0  0  0  0
    1.6730   -0.0023   -1.7032 H   0  0  0  0  0  0  0  0  0  0  0  0
    0.8991   -1.1903   -0.6693 H   0  0  0  0  0  0  0  0  0  0  0  0
   -0.4967   -0.4223   -2.4630 H   0  0  0  0  0  0  0  0  0  0  0  0
   -0.5342    1.2477   -1.8539 H   0  0  0  0  0  0  0  0  0  0  0  0
   -1.6495   -1.2810   -0.6295 H   0  0  0  0  0  0  0  0  0  0  0  0
   -1.7226    0.2093    0.2849 H   0  0  0  0  0  0  0  0  0  0  0  0
   -5.0899   -0.7196   -2.7036 H   0  0  0  0  0  0  0  0  0  0  0  0
   -7.2511   -1.4290   -1.7120 H   0  0  0  0  0  0  0  0  0  0  0  0
   -9.3792   -1.0227    1.8463 H   0  0  0  0  0  0  0  0  0  0  0  0
   -8.7487   -2.6486    2.1017 H   0  0  0  0  0  0  0  0  0  0  0  0
   -9.5969   -2.2718    0.5250 H   0  0  0  0  0  0  0  0  0  0  0  0
   -4.9825   -0.9166    4.3184 H   0  0  0  0  0  0  0  0  0  0  0  0
   -4.8376    0.7418    3.6779 H   0  0  0  0  0  0  0  0  0  0  0  0
   -3.7331   -0.6193    3.0678 H   0  0  0  0  0  0  0  0  0  0  0  0
   -3.5017    0.0078    1.1286 H   0  0  0  0  0  0  0  0  0  0  0  0
   -4.2085    1.4656   -2.4397 H   0  0  0  0  0  0  0  0  0  0  0  0
   -3.6963    3.4542   -1.4975 H   0  0  0  0  0  0  0  0  0  0  0  0
   -2.1321    2.9706   -0.7826 H   0  0  0  0  0  0  0  0  0  0  0  0
   -3.6455    2.3042   -0.1407 H   0  0  0  0  0  0  0  0  0  0  0  0
   -1.6978    2.7514   -3.2219 H   0  0  0  0  0  0  0  0  0  0  0  0
   -3.0626    2.1994   -4.1662 H   0  0  0  0  0  0  0  0  0  0  0  0
   -1.8327    0.9951   -3.8223 H   0  0  0  0  0  0  0  0  0  0  0  0
    5.5661    0.9911   -0.4925 H   0  0  0  0  0  0  0  0  0  0  0  0
    6.8527    2.5673   -0.2508 H   0  0  0  0  0  0  0  0  0  0  0  0
    7.5013    1.5387   -1.5577 H   0  0  0  0  0  0  0  0  0  0  0  0
    8.5969    2.7433   -0.7174 H   0  0  0  0  0  0  0  0  0  0  0  0
   -0.6906    0.0000    0.0000 H   0  0  0  0  0  0  0  0  0  0  0  0
  1  2  1  0
  2  3  1  0
  3  4  2  0
  4  5  1  0
  5  6  2  0
  6  7  1  0
  7  8  1  0
  8  9  1  0
  9 10  1  0
  9 11  1  0
 11 12  1  0
 12 13  1  0
 13 14  1  0
 14 15  1  0
 15 16  3  0
 14 17  1  0
 17 18  2  0
 18 19  1  0
 19 20  2  0
 20 21  1  0
 21 22  1  0
 20 23  1  0
 23 24  1  0
 24 25  1  0
 23 26  2  0
 14 27  1  0
 27 28  1  0
 27 29  1  0
  6 30  1  0
 30 31  2  0
 31 32  1  0
 32 33  1  0
 31  3  1  0
 26 17  1  0
  1 35  1  0
  1 36  1  0
  1 37  1  0
  4 38  1  0
  5 39  1  0
  7 40  1  0
  7 41  1  0
  8 42  1  0
  8 43  1  0
 10 44  1  0
 10 45  1  0
 10 46  1  0
 11 47  1  0
 11 48  1  0
 12 49  1  0
 12 50  1  0
 13 51  1  0
 13 52  1  0
 18 53  1  0
 19 54  1  0
 22 55  1  0
 22 56  1  0
 22 57  1  0
 25 58  1  0
 25 59  1  0
 25 60  1  0
 26 61  1  0
 27 62  1  0
 28 63  1  0
 28 64  1  0
 28 65  1  0
 29 66  1  0
 29 67  1  0
 29 68  1  0
 30 69  1  0
 33 70  1  0
 33 71  1  0
 33 72  1  0
 34 73  1  0
M  END
$$$$
