
     RDKit          3D

 40 42  0  0  0  0  0  0  0  0999 V2000
   -0.6582    1.2251    1.6381 O   0  0  0  0  0  0  0  0  0  0  0  0
   -0.4195    1.0300    0.4511 C   0  0  0  0  0  0  0  0  0  0  0  0
   -1.4226    0.9309   -0.4944 N   0  0  0  0  0  0  0  0  0  0  0  0
   -2.8207    1.0076   -0.1107 C   0  0  0  0  0  0  0  0  0  0  0  0
   -3.3523   -0.3164    0.4720 C   0  0  0  0  0  0  0  0  0  0  0  0
   -4.7620   -0.1320    1.0547 C   0  0  0  0  0  0  0  0  0  0  0  0
   -5.8193   -0.0209   -0.0373 C   0  0  0  0  0  0  0  0  0  0  0  0
   -5.7682   -1.1496   -0.9073 O   0  0  0  0  0  0  0  0  0  0  0  0
   -4.5136   -1.2782   -1.5709 C   0  0  0  0  0  0  0  0  0  0  0  0
   -3.3809   -1.4506   -0.5652 C   0  0  0  0  0  0  0  0  0  0  0  0
    0.9153    0.8554   -0.0571 C   0  0  0  0  0  0  0  0  0  0  0  0
    2.0671    0.5145    0.6254 C   0  0  0  0  0  0  0  0  0  0  0  0
    3.1138    0.4783   -0.3364 C   0  0  0  0  0  0  0  0  0  0  0  0
    4.5312    0.1501   -0.1326 C   0  0  0  0  0  0  0  0  0  0  0  0
    5.0382   -0.1320    1.1451 C   0  0  0  0  0  0  0  0  0  0  0  0
    6.3899   -0.4444    1.3259 C   0  0  0  0  0  0  0  0  0  0  0  0
    7.2527   -0.4787    0.2331 C   0  0  0  0  0  0  0  0  0  0  0  0
    6.7668   -0.2004   -1.0415 C   0  0  0  0  0  0  0  0  0  0  0  0
    5.4164    0.1117   -1.2220 C   0  0  0  0  0  0  0  0  0  0  0  0
    2.6285    0.7997   -1.5484 N   0  0  0  0  0  0  0  0  0  0  0  0
    1.3317    1.0579   -1.3394 N   0  0  0  0  0  0  0  0  0  0  0  0
   -1.2112    0.5125   -1.3878 H   0  0  0  0  0  0  0  0  0  0  0  0
   -3.3751    1.3130   -1.0030 H   0  0  0  0  0  0  0  0  0  0  0  0
   -2.9248    1.8090    0.6303 H   0  0  0  0  0  0  0  0  0  0  0  0
   -2.6861   -0.6219    1.2891 H   0  0  0  0  0  0  0  0  0  0  0  0
   -4.8031    0.7417    1.7145 H   0  0  0  0  0  0  0  0  0  0  0  0
   -4.9916   -1.0115    1.6703 H   0  0  0  0  0  0  0  0  0  0  0  0
   -5.7052    0.8977   -0.6233 H   0  0  0  0  0  0  0  0  0  0  0  0
   -6.8159    0.0035    0.4153 H   0  0  0  0  0  0  0  0  0  0  0  0
   -4.5699   -2.1608   -2.2163 H   0  0  0  0  0  0  0  0  0  0  0  0
   -4.3536   -0.4112   -2.2211 H   0  0  0  0  0  0  0  0  0  0  0  0
   -2.4219   -1.5430   -1.0855 H   0  0  0  0  0  0  0  0  0  0  0  0
   -3.5420   -2.3935   -0.0261 H   0  0  0  0  0  0  0  0  0  0  0  0
    2.1247    0.3084    1.6853 H   0  0  0  0  0  0  0  0  0  0  0  0
    4.3961   -0.1118    2.0210 H   0  0  0  0  0  0  0  0  0  0  0  0
    6.7675   -0.6596    2.3223 H   0  0  0  0  0  0  0  0  0  0  0  0
    8.3027   -0.7209    0.3747 H   0  0  0  0  0  0  0  0  0  0  0  0
    7.4352   -0.2245   -1.8981 H   0  0  0  0  0  0  0  0  0  0  0  0
    5.0563    0.3268   -2.2264 H   0  0  0  0  0  0  0  0  0  0  0  0
    0.7839    1.3881   -2.1255 H   0  0  0  0  0  0  0  0  0  0  0  0
  1  2  2  0
  2  3  1  0
  3  4  1  0
  4  5  1  0
  5  6  1  0
  6  7  1  0
  7  8  1  0
  8  9  1  0
  9 10  1  0
  2 11  1  0
 11 12  2  0
 12 13  1  0
 13 14  1  0
 14 15  2  0
 15 16  1  0
 16 17  2  0
 17 18  1  0
 18 19  2  0
 13 20  2  0
 20 21  1  0
 10  5  1  0
 21 11  1  0
 19 14  1  0
  3 22  1  0
  4 23  1  0
  4 24  1  0
  5 25  1  0
  6 26  1  0
  6 27  1  0
  7 28  1  0
  7 29  1  0
  9 30  1  0
  9 31  1  0
 10 32  1  0
 10 33  1  0
 12 34  1  0
 15 35  1  0
 16 36  1  0
 17 37  1  0
 18 38  1  0
 19 39  1  0
 21 40  1  0
M  END
$$$$
