
     RDKit          3D

 35 37  0  0  0  0  0  0  0  0999 V2000
    4.7673    1.3992    1.0463 C   0  0  0  0  0  0  0  0  0  0  0  0
    4.8445    0.0495    0.6014 O   0  0  0  0  0  0  0  0  0  0  0  0
    3.6761   -0.5174    0.1591 C   0  0  0  0  0  0  0  0  0  0  0  0
    2.4120    0.0759    0.1785 C   0  0  0  0  0  0  0  0  0  0  0  0
    1.2875   -0.6129   -0.3150 C   0  0  0  0  0  0  0  0  0  0  0  0
   -0.0641   -0.0109   -0.2854 C   0  0  0  0  0  0  0  0  0  0  0  0
   -1.0333   -0.8827    0.1979 O   0  0  0  0  0  0  0  0  0  0  0  0
   -2.3340   -0.4547    0.2728 C   0  0  0  0  0  0  0  0  0  0  0  0
   -3.2716   -1.3571    0.7736 C   0  0  0  0  0  0  0  0  0  0  0  0
   -4.6073   -0.9759    0.8701 C   0  0  0  0  0  0  0  0  0  0  0  0
   -5.4909   -1.8886    1.3650 O   0  0  0  0  0  0  0  0  0  0  0  0
   -5.0231    0.2927    0.4744 C   0  0  0  0  0  0  0  0  0  0  0  0
   -4.0820    1.1898   -0.0252 C   0  0  0  0  0  0  0  0  0  0  0  0
   -4.5444    2.4223   -0.3998 O   0  0  0  0  0  0  0  0  0  0  0  0
   -2.7378    0.8161   -0.1257 C   0  0  0  0  0  0  0  0  0  0  0  0
   -1.7207    1.7310   -0.6459 C   0  0  0  0  0  0  0  0  0  0  0  0
   -2.0000    2.8670   -1.0231 O   0  0  0  0  0  0  0  0  0  0  0  0
   -0.3244    1.2410   -0.7060 C   0  0  0  0  0  0  0  0  0  0  0  0
    0.6258    2.1089   -1.2121 O   0  0  0  0  0  0  0  0  0  0  0  0
    1.4528   -1.9180   -0.8096 C   0  0  0  0  0  0  0  0  0  0  0  0
    2.7111   -2.5195   -0.8271 C   0  0  0  0  0  0  0  0  0  0  0  0
    3.8049   -1.8155   -0.3450 C   0  0  0  0  0  0  0  0  0  0  0  0
    5.0295   -2.4256   -0.3726 O   0  0  0  0  0  0  0  0  0  0  0  0
    4.4183    2.0608    0.2465 H   0  0  0  0  0  0  0  0  0  0  0  0
    4.1353    1.4841    1.9364 H   0  0  0  0  0  0  0  0  0  0  0  0
    5.7769    1.7169    1.3241 H   0  0  0  0  0  0  0  0  0  0  0  0
    2.2744    1.0759    0.5766 H   0  0  0  0  0  0  0  0  0  0  0  0
   -2.9666   -2.3516    1.0880 H   0  0  0  0  0  0  0  0  0  0  0  0
   -6.3795   -1.4939    1.3769 H   0  0  0  0  0  0  0  0  0  0  0  0
   -6.0625    0.5974    0.5463 H   0  0  0  0  0  0  0  0  0  0  0  0
   -3.7868    2.9513   -0.7356 H   0  0  0  0  0  0  0  0  0  0  0  0
    0.1297    2.9147   -1.4690 H   0  0  0  0  0  0  0  0  0  0  0  0
    0.6002   -2.4765   -1.1903 H   0  0  0  0  0  0  0  0  0  0  0  0
    2.8372   -3.5266   -1.2124 H   0  0  0  0  0  0  0  0  0  0  0  0
    5.6454   -1.7676    0.0046 H   0  0  0  0  0  0  0  0  0  0  0  0
  1  2  1  0
  2  3  1  0
  3  4  2  0
  4  5  1  0
  5  6  1  0
  6  7  1  0
  7  8  1  0
  8  9  2  0
  9 10  1  0
 10 11  1  0
 10 12  2  0
 12 13  1  0
 13 14  1  0
 13 15  2  0
 15 16  1  0
 16 17  2  0
 16 18  1  0
 18 19  1  0
  5 20  2  0
 20 21  1  0
 21 22  2  0
 22 23  1  0
 22  3  1  0
 18  6  2  0
 15  8  1  0
  1 24  1  0
  1 25  1  0
  1 26  1  0
  4 27  1  0
  9 28  1  0
 11 29  1  0
 12 30  1  0
 14 31  1  0
 19 32  1  0
 20 33  1  0
 21 34  1  0
 23 35  1  0
M  END
$$$$
