
     RDKit          3D

 30 31  0  0  0  0  0  0  0  0999 V2000
   -3.9088    0.7231    1.3617 C   0  0  0  0  0  0  0  0  0  0  0  0
   -3.3301    0.0284    0.1263 C   0  0  0  0  0  0  0  0  0  0  0  0
   -3.5976   -1.4666    0.1150 C   0  0  0  0  0  0  0  0  0  0  0  0
   -3.7437   -2.1573   -0.8824 O   0  0  0  0  0  0  0  0  0  0  0  0
   -3.6168   -2.0416    1.3340 O   0  0  0  0  0  0  0  0  0  0  0  0
   -1.8544    0.3339   -0.0697 C   0  0  0  0  0  0  0  0  0  0  0  0
   -0.9029   -0.0016    0.9075 C   0  0  0  0  0  0  0  0  0  0  0  0
    0.4515    0.2816    0.7124 C   0  0  0  0  0  0  0  0  0  0  0  0
    0.8724    0.8890   -0.4748 C   0  0  0  0  0  0  0  0  0  0  0  0
    2.3002    1.2280   -0.7070 C   0  0  0  0  0  0  0  0  0  0  0  0
    2.5347    2.3784   -1.0799 O   0  0  0  0  0  0  0  0  0  0  0  0
    3.3554    0.2467   -0.4892 C   0  0  0  0  0  0  0  0  0  0  0  0
    4.6994    0.5217   -0.3048 C   0  0  0  0  0  0  0  0  0  0  0  0
    5.4874   -0.6547   -0.1499 C   0  0  0  0  0  0  0  0  0  0  0  0
    4.7255   -1.7965   -0.2450 C   0  0  0  0  0  0  0  0  0  0  0  0
    3.0777   -1.4442   -0.5291 S   0  0  0  0  0  0  0  0  0  0  0  0
   -0.0676    1.2456   -1.4466 C   0  0  0  0  0  0  0  0  0  0  0  0
   -1.4207    0.9612   -1.2482 C   0  0  0  0  0  0  0  0  0  0  0  0
   -3.7853    1.8095    1.2905 H   0  0  0  0  0  0  0  0  0  0  0  0
   -4.9793    0.5094    1.4575 H   0  0  0  0  0  0  0  0  0  0  0  0
   -3.4272    0.3960    2.2896 H   0  0  0  0  0  0  0  0  0  0  0  0
   -3.8940    0.4258   -0.7294 H   0  0  0  0  0  0  0  0  0  0  0  0
   -3.7584   -2.9923    1.1392 H   0  0  0  0  0  0  0  0  0  0  0  0
   -1.2091   -0.4857    1.8336 H   0  0  0  0  0  0  0  0  0  0  0  0
    1.1635    0.0336    1.4957 H   0  0  0  0  0  0  0  0  0  0  0  0
    5.0932    1.5321   -0.2809 H   0  0  0  0  0  0  0  0  0  0  0  0
    6.5583   -0.6615    0.0132 H   0  0  0  0  0  0  0  0  0  0  0  0
    5.0586   -2.8230   -0.1737 H   0  0  0  0  0  0  0  0  0  0  0  0
    0.2514    1.7442   -2.3597 H   0  0  0  0  0  0  0  0  0  0  0  0
   -2.1335    1.2370   -2.0234 H   0  0  0  0  0  0  0  0  0  0  0  0
  1  2  1  0
  2  3  1  0
  3  4  2  0
  3  5  1  0
  2  6  1  0
  6  7  2  0
  7  8  1  0
  8  9  2  0
  9 10  1  0
 10 11  2  0
 10 12  1  0
 12 13  2  0
 13 14  1  0
 14 15  2  0
 15 16  1  0
  9 17  1  0
 17 18  2  0
 18  6  1  0
 16 12  1  0
  1 19  1  0
  1 20  1  0
  1 21  1  0
  2 22  1  0
  5 23  1  0
  7 24  1  0
  8 25  1  0
 13 26  1  0
 14 27  1  0
 15 28  1  0
 17 29  1  0
 18 30  1  0
M  END
$$$$
