
     RDKit          3D

 58 62  0  0  0  0  0  0  0  0999 V2000
   -1.3320    0.1321   -2.2435 C   0  0  0  0  0  0  0  0  0  0  0  0
   -1.6040   -1.1196   -1.4218 C   0  0  0  0  0  0  0  0  0  0  0  0
   -2.6299   -0.8980   -0.4071 N   0  0  0  0  0  0  0  0  0  0  0  0
   -3.9580   -1.1418   -0.7289 C   0  0  0  0  0  0  0  0  0  0  0  0
   -4.3225   -1.5649   -1.8255 O   0  0  0  0  0  0  0  0  0  0  0  0
   -4.9821   -0.8808    0.3383 C   0  0  0  0  0  0  0  0  0  0  0  0
   -6.4097   -1.1189    0.0629 C   0  0  0  0  0  0  0  0  0  0  0  0
   -6.9527   -2.3788    0.3617 C   0  0  0  0  0  0  0  0  0  0  0  0
   -8.3010   -2.6448    0.1113 C   0  0  0  0  0  0  0  0  0  0  0  0
   -9.1125   -1.6543   -0.4380 C   0  0  0  0  0  0  0  0  0  0  0  0
  -10.7733   -1.9852   -0.7412 Cl  0  0  0  0  0  0  0  0  0  0  0  0
   -8.5919   -0.3986   -0.7405 C   0  0  0  0  0  0  0  0  0  0  0  0
   -7.2433   -0.1315   -0.4912 C   0  0  0  0  0  0  0  0  0  0  0  0
   -6.6513    1.4494   -0.8708 Cl  0  0  0  0  0  0  0  0  0  0  0  0
   -4.6135   -0.4122    1.5404 C   0  0  0  0  0  0  0  0  0  0  0  0
   -3.2105   -0.1415    1.8039 C   0  0  0  0  0  0  0  0  0  0  0  0
   -2.7531    0.3629    2.9983 C   0  0  0  0  0  0  0  0  0  0  0  0
   -1.4567    0.6260    3.2500 N   0  0  0  0  0  0  0  0  0  0  0  0
   -0.5766    0.3821    2.2666 C   0  0  0  0  0  0  0  0  0  0  0  0
    0.7454    0.6796    2.5823 N   0  0  0  0  0  0  0  0  0  0  0  0
    1.9455    0.6633    1.8667 C   0  0  0  0  0  0  0  0  0  0  0  0
    2.0540    0.2949    0.5261 C   0  0  0  0  0  0  0  0  0  0  0  0
    3.2933    0.2841   -0.1398 C   0  0  0  0  0  0  0  0  0  0  0  0
    4.4835    0.6496    0.5029 C   0  0  0  0  0  0  0  0  0  0  0  0
    5.7325    0.6397   -0.1427 N   0  0  0  0  0  0  0  0  0  0  0  0
    6.4701    1.9242   -0.0756 C   0  0  0  0  0  0  0  0  0  0  0  0
    7.9280    1.7495   -0.5628 C   0  0  0  0  0  0  0  0  0  0  0  0
    8.0396    1.1401   -1.9046 N   0  0  0  0  0  0  0  0  0  0  0  0
    7.3301   -0.1553   -1.8787 C   0  0  0  0  0  0  0  0  0  0  0  0
    5.8496   -0.0367   -1.4497 C   0  0  0  0  0  0  0  0  0  0  0  0
    4.3583    0.9947    1.8620 C   0  0  0  0  0  0  0  0  0  0  0  0
    5.4466    1.2997    2.5889 F   0  0  0  0  0  0  0  0  0  0  0  0
    3.1282    1.0044    2.5277 C   0  0  0  0  0  0  0  0  0  0  0  0
   -0.9317   -0.1129    1.0740 N   0  0  0  0  0  0  0  0  0  0  0  0
   -2.2370   -0.3706    0.8516 C   0  0  0  0  0  0  0  0  0  0  0  0
   -2.2411    0.4762   -2.7475 H   0  0  0  0  0  0  0  0  0  0  0  0
   -0.9696    0.9512   -1.6142 H   0  0  0  0  0  0  0  0  0  0  0  0
   -0.5742   -0.0723   -3.0062 H   0  0  0  0  0  0  0  0  0  0  0  0
   -0.6836   -1.4886   -0.9556 H   0  0  0  0  0  0  0  0  0  0  0  0
   -1.9369   -1.9163   -2.0977 H   0  0  0  0  0  0  0  0  0  0  0  0
   -6.3264   -3.1656    0.7783 H   0  0  0  0  0  0  0  0  0  0  0  0
   -8.7085   -3.6267    0.3399 H   0  0  0  0  0  0  0  0  0  0  0  0
   -9.2315    0.3675   -1.1703 H   0  0  0  0  0  0  0  0  0  0  0  0
   -5.3378   -0.2074    2.3226 H   0  0  0  0  0  0  0  0  0  0  0  0
   -3.4276    0.5834    3.8210 H   0  0  0  0  0  0  0  0  0  0  0  0
    0.7797    1.0413    3.5251 H   0  0  0  0  0  0  0  0  0  0  0  0
    1.1765    0.0090   -0.0448 H   0  0  0  0  0  0  0  0  0  0  0  0
    3.2854   -0.0054   -1.1862 H   0  0  0  0  0  0  0  0  0  0  0  0
    5.9620    2.6654   -0.7066 H   0  0  0  0  0  0  0  0  0  0  0  0
    6.5116    2.3314    0.9386 H   0  0  0  0  0  0  0  0  0  0  0  0
    8.4182    2.7292   -0.5848 H   0  0  0  0  0  0  0  0  0  0  0  0
    8.4856    1.1351    0.1553 H   0  0  0  0  0  0  0  0  0  0  0  0
    7.5617    1.7500   -2.5677 H   0  0  0  0  0  0  0  0  0  0  0  0
    7.3794   -0.5994   -2.8791 H   0  0  0  0  0  0  0  0  0  0  0  0
    7.8587   -0.8400   -1.2036 H   0  0  0  0  0  0  0  0  0  0  0  0
    5.4331   -1.0498   -1.3938 H   0  0  0  0  0  0  0  0  0  0  0  0
    5.3006    0.5250   -2.2166 H   0  0  0  0  0  0  0  0  0  0  0  0
    3.1234    1.2765    3.5788 H   0  0  0  0  0  0  0  0  0  0  0  0
  1  2  1  0
  2  3  1  0
  3  4  1  0
  4  5  2  0
  4  6  1  0
  6  7  1  0
  7  8  2  0
  8  9  1  0
  9 10  2  0
 10 11  1  0
 10 12  1  0
 12 13  2  0
 13 14  1  0
  6 15  2  0
 15 16  1  0
 16 17  2  0
 17 18  1  0
 18 19  2  0
 19 20  1  0
 20 21  1  0
 21 22  2  0
 22 23  1  0
 23 24  2  0
 24 25  1  0
 25 26  1  0
 26 27  1  0
 27 28  1  0
 28 29  1  0
 29 30  1  0
 24 31  1  0
 31 32  1  0
 31 33  2  0
 19 34  1  0
 34 35  2  0
 35  3  1  0
 13  7  1  0
 35 16  1  0
 33 21  1  0
 30 25  1  0
  1 36  1  0
  1 37  1  0
  1 38  1  0
  2 39  1  0
  2 40  1  0
  8 41  1  0
  9 42  1  0
 12 43  1  0
 15 44  1  0
 17 45  1  0
 20 46  1  0
 22 47  1  0
 23 48  1  0
 26 49  1  0
 26 50  1  0
 27 51  1  0
 27 52  1  0
 28 53  1  0
 29 54  1  0
 29 55  1  0
 30 56  1  0
 30 57  1  0
 33 58  1  0
M  END
$$$$
