
     RDKit          3D

 56 59  0  0  0  0  0  0  0  0999 V2000
   -4.9357    2.9313    0.7925 C   0  0  0  0  0  0  0  0  0  0  0  0
   -5.8984    2.1596   -0.0968 C   0  0  0  0  0  0  0  0  0  0  0  0
   -5.2086    1.4412   -1.2622 C   0  0  0  0  0  0  0  0  0  0  0  0
   -4.3081    0.3695   -0.8469 N   0  0  0  0  0  0  0  0  0  0  0  0
   -2.9405    0.6477   -0.7819 C   0  0  0  0  0  0  0  0  0  0  0  0
   -2.4615    1.7479   -1.0528 O   0  0  0  0  0  0  0  0  0  0  0  0
   -1.9960   -0.5225   -0.3498 C   0  0  0  0  0  0  0  0  0  0  0  0
   -0.6079   -0.3443   -0.2785 N   0  0  0  0  0  0  0  0  0  0  0  0
    0.0396    0.9735   -0.3360 C   0  0  0  0  0  0  0  0  0  0  0  0
    1.4936    0.9430    0.1685 C   0  0  0  0  0  0  0  0  0  0  0  0
    2.3080   -0.0718   -0.5050 N   0  0  0  0  0  0  0  0  0  0  0  0
    3.6553    0.0510   -0.8230 C   0  0  0  0  0  0  0  0  0  0  0  0
    4.2417   -0.8233   -1.4618 O   0  0  0  0  0  0  0  0  0  0  0  0
    4.3770    1.3176   -0.3300 C   0  0  0  0  0  0  0  0  0  0  0  0
    5.7752    1.3750   -0.5604 O   0  0  0  0  0  0  0  0  0  0  0  0
    6.6035    0.6790    0.2743 C   0  0  0  0  0  0  0  0  0  0  0  0
    6.2130   -0.1873    1.2970 C   0  0  0  0  0  0  0  0  0  0  0  0
    7.1791   -0.8353    2.0722 C   0  0  0  0  0  0  0  0  0  0  0  0
    8.5327   -0.6199    1.8245 C   0  0  0  0  0  0  0  0  0  0  0  0
    9.7154   -1.4270    2.7788 Cl  0  0  0  0  0  0  0  0  0  0  0  0
    8.9318    0.2387    0.8057 C   0  0  0  0  0  0  0  0  0  0  0  0
    7.9659    0.8852    0.0333 C   0  0  0  0  0  0  0  0  0  0  0  0
    1.6037   -1.2853   -0.9267 C   0  0  0  0  0  0  0  0  0  0  0  0
    0.2825   -1.5119   -0.1781 C   0  0  0  0  0  0  0  0  0  0  0  0
   -2.4955   -1.6951   -0.0616 N   0  0  0  0  0  0  0  0  0  0  0  0
   -3.8737   -1.9105   -0.1288 C   0  0  0  0  0  0  0  0  0  0  0  0
   -4.3277   -3.1903    0.2110 C   0  0  0  0  0  0  0  0  0  0  0  0
   -5.6827   -3.5056    0.1672 C   0  0  0  0  0  0  0  0  0  0  0  0
   -6.5991   -2.5360   -0.2190 C   0  0  0  0  0  0  0  0  0  0  0  0
   -6.1591   -1.2544   -0.5565 C   0  0  0  0  0  0  0  0  0  0  0  0
   -4.7943   -0.9244   -0.5145 C   0  0  0  0  0  0  0  0  0  0  0  0
   -4.3450    3.6438    0.2112 H   0  0  0  0  0  0  0  0  0  0  0  0
   -4.2511    2.2592    1.3169 H   0  0  0  0  0  0  0  0  0  0  0  0
   -5.4945    3.4941    1.5463 H   0  0  0  0  0  0  0  0  0  0  0  0
   -6.6273    2.8650   -0.5135 H   0  0  0  0  0  0  0  0  0  0  0  0
   -6.4613    1.4503    0.5218 H   0  0  0  0  0  0  0  0  0  0  0  0
   -5.9545    1.0349   -1.9564 H   0  0  0  0  0  0  0  0  0  0  0  0
   -4.6507    2.1813   -1.8489 H   0  0  0  0  0  0  0  0  0  0  0  0
   -0.5017    1.6917    0.2907 H   0  0  0  0  0  0  0  0  0  0  0  0
    0.0349    1.3264   -1.3755 H   0  0  0  0  0  0  0  0  0  0  0  0
    1.5114    0.6966    1.2374 H   0  0  0  0  0  0  0  0  0  0  0  0
    1.9360    1.9369    0.0532 H   0  0  0  0  0  0  0  0  0  0  0  0
    3.9514    2.1529   -0.9014 H   0  0  0  0  0  0  0  0  0  0  0  0
    4.1532    1.5057    0.7276 H   0  0  0  0  0  0  0  0  0  0  0  0
    5.1709   -0.3981    1.5097 H   0  0  0  0  0  0  0  0  0  0  0  0
    6.8681   -1.5153    2.8597 H   0  0  0  0  0  0  0  0  0  0  0  0
    9.9847    0.4064    0.6030 H   0  0  0  0  0  0  0  0  0  0  0  0
    8.2771    1.5511   -0.7680 H   0  0  0  0  0  0  0  0  0  0  0  0
    1.4116   -1.1833   -2.0011 H   0  0  0  0  0  0  0  0  0  0  0  0
    2.2600   -2.1527   -0.7917 H   0  0  0  0  0  0  0  0  0  0  0  0
   -0.1871   -2.4053   -0.5958 H   0  0  0  0  0  0  0  0  0  0  0  0
    0.4833   -1.7094    0.8783 H   0  0  0  0  0  0  0  0  0  0  0  0
   -3.6064   -3.9456    0.5158 H   0  0  0  0  0  0  0  0  0  0  0  0
   -6.0178   -4.5023    0.4317 H   0  0  0  0  0  0  0  0  0  0  0  0
   -7.6592   -2.7739   -0.2578 H   0  0  0  0  0  0  0  0  0  0  0  0
   -6.9153   -0.5336   -0.8475 H   0  0  0  0  0  0  0  0  0  0  0  0
  1  2  1  0
  2  3  1  0
  3  4  1  0
  4  5  1  0
  5  6  2  0
  5  7  1  0
  7  8  1  0
  8  9  1  0
  9 10  1  0
 10 11  1  0
 11 12  1  0
 12 13  2  0
 12 14  1  0
 14 15  1  0
 15 16  1  0
 16 17  2  0
 17 18  1  0
 18 19  2  0
 19 20  1  0
 19 21  1  0
 21 22  2  0
 11 23  1  0
 23 24  1  0
  7 25  2  0
 25 26  1  0
 26 27  2  0
 27 28  1  0
 28 29  2  0
 29 30  1  0
 30 31  2  0
 31  4  1  0
 24  8  1  0
 31 26  1  0
 22 16  1  0
  1 32  1  0
  1 33  1  0
  1 34  1  0
  2 35  1  0
  2 36  1  0
  3 37  1  0
  3 38  1  0
  9 39  1  0
  9 40  1  0
 10 41  1  0
 10 42  1  0
 14 43  1  0
 14 44  1  0
 17 45  1  0
 18 46  1  0
 21 47  1  0
 22 48  1  0
 23 49  1  0
 23 50  1  0
 24 51  1  0
 24 52  1  0
 27 53  1  0
 28 54  1  0
 29 55  1  0
 30 56  1  0
M  END
$$$$
