
     RDKit          3D

 44 45  0  0  0  0  0  0  0  0999 V2000
   -2.2149    3.7446    1.0710 C   0  0  0  0  0  0  0  0  0  0  0  0
   -2.7535    2.9212   -0.0909 C   0  0  0  0  0  0  0  0  0  0  0  0
   -2.6327    1.4866    0.1489 N   0  0  0  0  0  0  0  0  0  0  0  0
   -1.5781    0.8251   -0.6280 C   0  0  1  0  0  0  0  0  0  0  0  0
   -0.1253    1.2613   -0.2042 C   0  0  0  0  0  0  0  0  0  0  0  0
    0.9306    0.4461   -0.8834 N   0  0  0  0  0  0  0  0  0  0  0  0
    2.2384    1.1172   -1.0852 C   0  0  0  0  0  0  0  0  0  0  0  0
    3.0089    1.3656    0.2135 C   0  0  0  0  0  0  0  0  0  0  0  0
    4.2049    0.4303    0.3667 C   0  0  0  0  0  0  0  0  0  0  0  0
    5.1485    0.7265   -0.6636 O   0  0  0  0  0  0  0  0  0  0  0  0
    6.2646   -0.1541   -0.6161 C   0  0  0  0  0  0  0  0  0  0  0  0
    0.9594   -1.1893   -0.4056 S   0  0  0  0  0  6  0  0  0  0  0  0
    1.3567   -1.2483    0.9835 O   0  0  0  0  0  0  0  0  0  0  0  0
    1.5894   -1.9701   -1.4424 O   0  0  0  0  0  0  0  0  0  0  0  0
   -0.7649   -1.5762   -0.4096 C   0  0  0  0  0  0  0  0  0  0  0  0
   -1.2531   -3.1902   -0.2725 S   0  0  0  0  0  0  0  0  0  0  0  0
   -2.9070   -2.7480   -0.3517 C   0  0  0  0  0  0  0  0  0  0  0  0
   -4.0767   -4.0743   -0.2715 S   0  0  0  0  0  6  0  0  0  0  0  0
   -3.6995   -5.0454    1.0462 N   0  0  0  0  0  0  0  0  0  0  0  0
   -5.3488   -3.4632    0.0359 O   0  0  0  0  0  0  0  0  0  0  0  0
   -3.8659   -4.8816   -1.4491 O   0  0  0  0  0  0  0  0  0  0  0  0
   -3.0626   -1.3779   -0.4739 C   0  0  0  0  0  0  0  0  0  0  0  0
   -1.8117   -0.6757   -0.4880 C   0  0  0  0  0  0  0  0  0  0  0  0
   -2.3587    4.8116    0.8722 H   0  0  0  0  0  0  0  0  0  0  0  0
   -1.1461    3.5740    1.2295 H   0  0  0  0  0  0  0  0  0  0  0  0
   -2.7405    3.5050    2.0017 H   0  0  0  0  0  0  0  0  0  0  0  0
   -3.8192    3.1503   -0.2032 H   0  0  0  0  0  0  0  0  0  0  0  0
   -2.2729    3.2282   -1.0270 H   0  0  0  0  0  0  0  0  0  0  0  0
   -2.5308    1.2833    1.1425 H   0  0  0  0  0  0  0  0  0  0  0  0
   -1.7087    1.0504   -1.6958 H   0  0  0  0  0  0  0  0  0  0  0  0
    0.0172    2.3154   -0.4683 H   0  0  0  0  0  0  0  0  0  0  0  0
   -0.0023    1.1811    0.8833 H   0  0  0  0  0  0  0  0  0  0  0  0
    2.8222    0.5433   -1.8137 H   0  0  0  0  0  0  0  0  0  0  0  0
    2.0378    2.0812   -1.5703 H   0  0  0  0  0  0  0  0  0  0  0  0
    3.3901    2.3944    0.1843 H   0  0  0  0  0  0  0  0  0  0  0  0
    2.3649    1.2881    1.0948 H   0  0  0  0  0  0  0  0  0  0  0  0
    4.6772    0.5988    1.3412 H   0  0  0  0  0  0  0  0  0  0  0  0
    3.8978   -0.6181    0.2997 H   0  0  0  0  0  0  0  0  0  0  0  0
    6.9567    0.1248   -1.4151 H   0  0  0  0  0  0  0  0  0  0  0  0
    6.7828   -0.0641    0.3435 H   0  0  0  0  0  0  0  0  0  0  0  0
    5.9434   -1.1877   -0.7768 H   0  0  0  0  0  0  0  0  0  0  0  0
   -4.5264   -5.1413    1.6372 H   0  0  0  0  0  0  0  0  0  0  0  0
   -3.3553   -5.9459    0.7088 H   0  0  0  0  0  0  0  0  0  0  0  0
   -4.0360   -0.9030   -0.5435 H   0  0  0  0  0  0  0  0  0  0  0  0
  1  2  1  0
  2  3  1  0
  3  4  1  0
  4  5  1  0
  5  6  1  0
  6  7  1  0
  7  8  1  0
  8  9  1  0
  9 10  1  0
 10 11  1  0
  6 12  1  0
 12 13  2  0
 12 14  2  0
 12 15  1  0
 15 16  1  0
 16 17  1  0
 17 18  1  0
 18 19  1  0
 18 20  2  0
 18 21  2  0
 17 22  2  0
 22 23  1  0
 23  4  1  0
 23 15  2  0
  1 24  1  0
  1 25  1  0
  1 26  1  0
  2 27  1  0
  2 28  1  0
  3 29  1  0
  4 30  1  6
  5 31  1  0
  5 32  1  0
  7 33  1  0
  7 34  1  0
  8 35  1  0
  8 36  1  0
  9 37  1  0
  9 38  1  0
 11 39  1  0
 11 40  1  0
 11 41  1  0
 19 42  1  0
 19 43  1  0
 22 44  1  0
M  END
$$$$
