
     RDKit          3D

  6  5  0  0  0  0  0  0  0  0999 V2000
    1.6464    0.1645   -1.3850 Cl  0  0  0  0  0  0  0  0  0  0  0  0
    0.5284   -0.4126   -0.2200 C   0  0  0  0  0  0  0  0  0  0  0  0
   -0.5087    0.2687    0.2737 C   0  0  0  0  0  0  0  0  0  0  0  0
   -0.8964    1.8830   -0.1976 Cl  0  0  0  0  0  0  0  0  0  0  0  0
   -1.5361   -0.4785    1.4490 Cl  0  0  0  0  0  0  0  0  0  0  0  0
    0.7664   -1.4252    0.0799 H   0  0  0  0  0  0  0  0  0  0  0  0
  1  2  1  0
  2  3  2  3
  3  4  1  0
  3  5  1  0
  2  6  1  0
M  END
$$$$
