
     RDKit          3D

 61 61  0  0  0  0  0  0  0  0999 V2000
   -0.1806   -1.9457    2.9701 C   0  0  0  0  0  0  0  0  0  0  0  0
   -0.2505   -0.4939    2.4808 C   0  0  0  0  0  0  0  0  0  0  0  0
   -0.0963    0.4749    3.6547 C   0  0  0  0  0  0  0  0  0  0  0  0
    0.8065   -0.2058    1.4227 C   0  0  0  0  0  0  0  0  0  0  0  0
    2.0468   -0.6806    1.6915 N   0  0  0  0  0  0  0  0  0  0  0  0
    2.9986   -0.4593    0.7821 C   0  0  0  0  0  0  0  0  0  0  0  0
    4.3072   -0.9197    1.0756 N   0  0  0  0  0  0  0  0  0  0  0  0
    4.5394   -1.2804    2.4892 C   0  0  0  0  0  0  0  0  0  0  0  0
    4.8580   -2.0704   -0.0304 S   0  0  0  0  0  6  0  0  0  0  0  0
    5.2912   -1.0998   -1.4628 C   0  0  0  0  0  0  0  0  0  0  0  0
    3.7876   -2.9811   -0.3816 O   0  0  0  0  0  0  0  0  0  0  0  0
    6.1117   -2.5983    0.4810 O   0  0  0  0  0  0  0  0  0  0  0  0
    2.8514    0.2251   -0.3502 N   0  0  0  0  0  0  0  0  0  0  0  0
    1.6148    0.7262   -0.5945 C   0  0  0  0  0  0  0  0  0  0  0  0
    1.5448    1.4999   -1.8503 C   0  0  0  0  0  0  0  0  0  0  0  0
    1.8856    0.8950   -3.0769 C   0  0  0  0  0  0  0  0  0  0  0  0
    1.8390    1.6157   -4.2721 C   0  0  0  0  0  0  0  0  0  0  0  0
    1.4560    2.9508   -4.2506 C   0  0  0  0  0  0  0  0  0  0  0  0
    1.4182    3.6444   -5.3957 F   0  0  0  0  0  0  0  0  0  0  0  0
    1.1174    3.5774   -3.0582 C   0  0  0  0  0  0  0  0  0  0  0  0
    1.1648    2.8555   -1.8623 C   0  0  0  0  0  0  0  0  0  0  0  0
    0.5309    0.5338    0.2701 C   0  0  0  0  0  0  0  0  0  0  0  0
   -0.8089    1.0762    0.0175 C   0  0  0  0  0  0  0  0  0  0  0  0
   -1.6022    0.6511   -0.9800 C   0  0  0  0  0  0  0  0  0  0  0  0
   -3.0075    1.1364   -1.2400 C   0  0  0  0  0  0  0  0  0  0  0  0
   -3.3133    2.2351   -0.3841 O   0  0  0  0  0  0  0  0  0  0  0  0
   -4.0605    0.0192   -1.1162 C   0  0  0  0  0  0  0  0  0  0  0  0
   -4.1336   -0.6133    0.2846 C   0  0  0  0  0  0  0  0  0  0  0  0
   -4.4524    0.3986    1.2517 O   0  0  0  0  0  0  0  0  0  0  0  0
   -5.1041   -1.7874    0.3675 C   0  0  0  0  0  0  0  0  0  0  0  0
   -6.5379   -1.3649    0.0696 C   0  0  0  0  0  0  0  0  0  0  0  0
   -6.8907   -0.2870    0.6357 O   0  0  0  0  0  0  0  0  0  0  0  0
   -7.1806   -2.1301   -0.6981 O   0  0  0  0  0  1  0  0  0  0  0  0
    0.0000    0.0000    0.0000 Ca  0  0  0  0  0 15  0  0  0  0  0  0
   -0.9863   -2.1496    3.6844 H   0  0  0  0  0  0  0  0  0  0  0  0
    0.7705   -2.1640    3.4709 H   0  0  0  0  0  0  0  0  0  0  0  0
   -0.2874   -2.6450    2.1329 H   0  0  0  0  0  0  0  0  0  0  0  0
   -1.2536   -0.3636    2.0600 H   0  0  0  0  0  0  0  0  0  0  0  0
    0.8831    0.3734    4.1375 H   0  0  0  0  0  0  0  0  0  0  0  0
   -0.8659    0.2906    4.4111 H   0  0  0  0  0  0  0  0  0  0  0  0
   -0.1958    1.5145    3.3221 H   0  0  0  0  0  0  0  0  0  0  0  0
    4.0229   -2.2081    2.7584 H   0  0  0  0  0  0  0  0  0  0  0  0
    4.2012   -0.4780    3.1554 H   0  0  0  0  0  0  0  0  0  0  0  0
    5.6111   -1.3971    2.6799 H   0  0  0  0  0  0  0  0  0  0  0  0
    4.3949   -0.8146   -2.0103 H   0  0  0  0  0  0  0  0  0  0  0  0
    5.9125   -1.7258   -2.1075 H   0  0  0  0  0  0  0  0  0  0  0  0
    5.8654   -0.2275   -1.1452 H   0  0  0  0  0  0  0  0  0  0  0  0
    2.1832   -0.1521   -3.1000 H   0  0  0  0  0  0  0  0  0  0  0  0
    2.0976    1.1437   -5.2149 H   0  0  0  0  0  0  0  0  0  0  0  0
    0.8170    4.6202   -3.0632 H   0  0  0  0  0  0  0  0  0  0  0  0
    0.8974    3.3585   -0.9343 H   0  0  0  0  0  0  0  0  0  0  0  0
   -1.1627    1.8241    0.7243 H   0  0  0  0  0  0  0  0  0  0  0  0
   -1.2477   -0.1155   -1.6664 H   0  0  0  0  0  0  0  0  0  0  0  0
   -3.0371    1.5248   -2.2650 H   0  0  0  0  0  0  0  0  0  0  0  0
   -3.7940    1.8444    0.3823 H   0  0  0  0  0  0  0  0  0  0  0  0
   -3.8580   -0.7591   -1.8635 H   0  0  0  0  0  0  0  0  0  0  0  0
   -5.0331    0.4665   -1.3559 H   0  0  0  0  0  0  0  0  0  0  0  0
   -3.1444   -0.9967    0.5581 H   0  0  0  0  0  0  0  0  0  0  0  0
   -5.4492    0.4246    1.2527 H   0  0  0  0  0  0  0  0  0  0  0  0
   -5.0988   -2.2070    1.3816 H   0  0  0  0  0  0  0  0  0  0  0  0
   -4.7937   -2.5790   -0.3256 H   0  0  0  0  0  0  0  0  0  0  0  0
  1  2  1  0
  2  3  1  0
  2  4  1  0
  4  5  2  0
  5  6  1  0
  6  7  1  0
  7  8  1  0
  7  9  1  0
  9 10  1  0
  9 11  2  0
  9 12  2  0
  6 13  2  0
 13 14  1  0
 14 15  1  0
 15 16  2  0
 16 17  1  0
 17 18  2  0
 18 19  1  0
 18 20  1  0
 20 21  2  0
 14 22  2  0
 22 23  1  0
 23 24  2  0
 24 25  1  0
 25 26  1  0
 25 27  1  0
 27 28  1  0
 28 29  1  0
 28 30  1  0
 30 31  1  0
 31 32  2  0
 31 33  1  0
 22  4  1  0
 21 15  1  0
  1 35  1  0
  1 36  1  0
  1 37  1  0
  2 38  1  0
  3 39  1  0
  3 40  1  0
  3 41  1  0
  8 42  1  0
  8 43  1  0
  8 44  1  0
 10 45  1  0
 10 46  1  0
 10 47  1  0
 16 48  1  0
 17 49  1  0
 20 50  1  0
 21 51  1  0
 23 52  1  0
 24 53  1  0
 25 54  1  0
 26 55  1  0
 27 56  1  0
 27 57  1  0
 28 58  1  0
 29 59  1  0
 30 60  1  0
 30 61  1  0
M  CHG  2  33  -1  34   2
M  END
$$$$
