
     RDKit          3D

 72 76  0  0  0  0  0  0  0  0999 V2000
    7.9518    1.1503    0.0673 C   0  0  0  0  0  0  0  0  0  0  0  0
    7.5497    0.7879   -1.2554 O   0  0  0  0  0  0  0  0  0  0  0  0
    6.2208    0.4496   -1.2676 C   0  0  0  0  0  0  0  0  0  0  0  0
    5.8188   -0.8567   -0.9509 C   0  0  0  0  0  0  0  0  0  0  0  0
    6.8043   -1.9409   -0.6174 C   0  0  0  0  0  0  0  0  0  0  0  0
    4.4460   -1.1558   -0.9153 C   0  0  0  0  0  0  0  0  0  0  0  0
    3.4905   -0.1949   -1.2541 C   0  0  0  0  0  0  0  0  0  0  0  0
    2.0971   -0.4108   -1.1982 N   0  0  0  0  0  0  0  0  0  0  0  0
    1.4323   -1.5506   -0.7725 C   0  0  0  0  0  0  0  0  0  0  0  0
    1.9656   -2.6314   -0.5402 O   0  0  0  0  0  0  0  0  0  0  0  0
   -0.0304   -1.3675   -0.6140 C   0  0  0  0  0  0  0  0  0  0  0  0
   -0.8701   -2.3614   -0.9472 N   0  0  0  0  0  0  0  0  0  0  0  0
   -2.0921   -1.9740   -0.5237 N   0  0  0  0  0  0  0  0  0  0  0  0
   -3.2008   -2.9143   -0.6958 C   0  0  0  0  0  0  0  0  0  0  0  0
   -3.1537   -4.0879    0.2637 C   0  0  0  0  0  0  0  0  0  0  0  0
   -2.0991   -5.0184    0.2219 C   0  0  0  0  0  0  0  0  0  0  0  0
   -2.0615   -6.0958    1.1096 C   0  0  0  0  0  0  0  0  0  0  0  0
   -3.0842   -6.2577    2.0330 C   0  0  0  0  0  0  0  0  0  0  0  0
   -3.0484   -7.2930    2.8835 F   0  0  0  0  0  0  0  0  0  0  0  0
   -4.1457   -5.3627    2.0861 C   0  0  0  0  0  0  0  0  0  0  0  0
   -4.1817   -4.2816    1.2014 C   0  0  0  0  0  0  0  0  0  0  0  0
   -2.0979   -0.6657   -0.1130 C   0  0  0  0  0  0  0  0  0  0  0  0
   -0.7726   -0.2518   -0.1219 C   0  0  0  0  0  0  0  0  0  0  0  0
   -0.3221    1.0839    0.3615 C   0  0  0  0  0  0  0  0  0  0  0  0
   -1.4574    2.0162    0.3874 N   0  0  0  0  0  0  0  0  0  0  0  0
   -1.1079    3.3669    0.5027 C   0  0  0  0  0  0  0  0  0  0  0  0
    0.0663    3.7125    0.6368 O   0  0  0  0  0  0  0  0  0  0  0  0
   -2.1565    4.3636    0.4404 C   0  0  0  0  0  0  0  0  0  0  0  0
   -3.3342    4.4236   -0.2909 C   0  0  0  0  0  0  0  0  0  0  0  0
   -3.9785    5.6489    0.0141 C   0  0  0  0  0  0  0  0  0  0  0  0
   -3.1718    6.3252    0.8983 C   0  0  0  0  0  0  0  0  0  0  0  0
   -2.0533    5.5643    1.1129 N   0  0  0  0  0  0  0  0  0  0  0  0
   -2.7014    1.4856    0.9866 C   0  0  0  0  0  0  0  0  0  0  0  0
   -3.2661    0.2283    0.2545 C   0  0  1  0  0  0  0  0  0  0  0  0
   -3.9798    0.6480   -1.0411 C   0  0  0  0  0  0  0  0  0  0  0  0
   -4.2049   -0.4257    1.2771 C   0  0  0  0  0  0  0  0  0  0  0  0
   -5.4776    0.0620    1.3747 N   0  0  0  0  0  0  0  0  0  0  0  0
   -3.8550   -1.2930    2.0756 O   0  0  0  0  0  0  0  0  0  0  0  0
    3.9209    1.0781   -1.6520 C   0  0  0  0  0  0  0  0  0  0  0  0
    5.2847    1.4107   -1.6720 C   0  0  0  0  0  0  0  0  0  0  0  0
    5.7178    2.7884   -2.0878 C   0  0  0  0  0  0  0  0  0  0  0  0
    8.9859    1.5019    0.0180 H   0  0  0  0  0  0  0  0  0  0  0  0
    7.3377    1.9644    0.4686 H   0  0  0  0  0  0  0  0  0  0  0  0
    7.9251    0.2887    0.7425 H   0  0  0  0  0  0  0  0  0  0  0  0
    7.7628   -1.7735   -1.1212 H   0  0  0  0  0  0  0  0  0  0  0  0
    6.9692   -1.9911    0.4648 H   0  0  0  0  0  0  0  0  0  0  0  0
    6.4362   -2.9124   -0.9648 H   0  0  0  0  0  0  0  0  0  0  0  0
    4.1532   -2.1638   -0.6301 H   0  0  0  0  0  0  0  0  0  0  0  0
    1.5193    0.3472   -1.5348 H   0  0  0  0  0  0  0  0  0  0  0  0
   -3.1575   -3.2809   -1.7297 H   0  0  0  0  0  0  0  0  0  0  0  0
   -4.1391   -2.3624   -0.5964 H   0  0  0  0  0  0  0  0  0  0  0  0
   -1.2855   -4.9014   -0.4931 H   0  0  0  0  0  0  0  0  0  0  0  0
   -1.2368   -6.8008    1.0850 H   0  0  0  0  0  0  0  0  0  0  0  0
   -4.9337   -5.5047    2.8176 H   0  0  0  0  0  0  0  0  0  0  0  0
   -5.0109   -3.5802    1.2681 H   0  0  0  0  0  0  0  0  0  0  0  0
    0.0840    1.0085    1.3770 H   0  0  0  0  0  0  0  0  0  0  0  0
    0.4455    1.5041   -0.2907 H   0  0  0  0  0  0  0  0  0  0  0  0
   -3.6889    3.6673   -0.9812 H   0  0  0  0  0  0  0  0  0  0  0  0
   -4.9251    6.0028   -0.3776 H   0  0  0  0  0  0  0  0  0  0  0  0
   -3.2813    7.2952    1.3703 H   0  0  0  0  0  0  0  0  0  0  0  0
   -1.2713    5.8177    1.7058 H   0  0  0  0  0  0  0  0  0  0  0  0
   -3.4738    2.2530    1.0650 H   0  0  0  0  0  0  0  0  0  0  0  0
   -2.4417    1.2440    2.0270 H   0  0  0  0  0  0  0  0  0  0  0  0
   -4.4282   -0.2116   -1.5567 H   0  0  0  0  0  0  0  0  0  0  0  0
   -4.7832    1.3699   -0.8528 H   0  0  0  0  0  0  0  0  0  0  0  0
   -3.2809    1.1216   -1.7469 H   0  0  0  0  0  0  0  0  0  0  0  0
   -6.0371   -0.3157    2.1320 H   0  0  0  0  0  0  0  0  0  0  0  0
   -5.7772    0.9481    0.9881 H   0  0  0  0  0  0  0  0  0  0  0  0
    3.1927    1.8333   -1.9361 H   0  0  0  0  0  0  0  0  0  0  0  0
    6.5105    2.7272   -2.8410 H   0  0  0  0  0  0  0  0  0  0  0  0
    4.8883    3.3518   -2.5295 H   0  0  0  0  0  0  0  0  0  0  0  0
    6.0802    3.3494   -1.2204 H   0  0  0  0  0  0  0  0  0  0  0  0
  1  2  1  0
  2  3  1  0
  3  4  2  0
  4  5  1  0
  4  6  1  0
  6  7  2  0
  7  8  1  0
  8  9  1  0
  9 10  2  0
  9 11  1  0
 11 12  2  0
 12 13  1  0
 13 14  1  0
 14 15  1  0
 15 16  2  0
 16 17  1  0
 17 18  2  0
 18 19  1  0
 18 20  1  0
 20 21  2  0
 13 22  1  0
 22 23  2  0
 23 24  1  0
 24 25  1  0
 25 26  1  0
 26 27  2  0
 26 28  1  0
 28 29  2  0
 29 30  1  0
 30 31  2  0
 31 32  1  0
 25 33  1  0
 33 34  1  0
 34 35  1  6
 34 36  1  0
 36 37  1  0
 36 38  2  0
  7 39  1  0
 39 40  2  0
 40 41  1  0
 40  3  1  0
 23 11  1  0
 32 28  1  0
 21 15  1  0
 34 22  1  0
  1 42  1  0
  1 43  1  0
  1 44  1  0
  5 45  1  0
  5 46  1  0
  5 47  1  0
  6 48  1  0
  8 49  1  0
 14 50  1  0
 14 51  1  0
 16 52  1  0
 17 53  1  0
 20 54  1  0
 21 55  1  0
 24 56  1  0
 24 57  1  0
 29 58  1  0
 30 59  1  0
 31 60  1  0
 32 61  1  0
 33 62  1  0
 33 63  1  0
 35 64  1  0
 35 65  1  0
 35 66  1  0
 37 67  1  0
 37 68  1  0
 39 69  1  0
 41 70  1  0
 41 71  1  0
 41 72  1  0
M  END
$$$$
