
     RDKit          3D

 58 58  0  0  0  0  0  0  0  0999 V2000
   -8.0011   -2.2123   -0.4675 C   0  0  0  0  0  0  0  0  0  0  0  0
   -7.4845   -0.8331   -0.7934 C   0  0  0  0  0  0  0  0  0  0  0  0
   -6.0868   -0.8505   -0.6396 O   0  0  0  0  0  0  0  0  0  0  0  0
   -5.3115    0.2982   -0.8741 C   0  0  0  0  0  0  0  0  0  0  0  0
   -5.9178    1.4580   -1.2586 C   0  0  0  0  0  0  0  0  0  0  0  0
   -5.1796    2.5856   -1.4910 C   0  0  0  0  0  0  0  0  0  0  0  0
   -3.8171    2.4857   -1.3191 C   0  0  0  0  0  0  0  0  0  0  0  0
   -3.1917    1.3065   -0.9281 C   0  0  0  0  0  0  0  0  0  0  0  0
   -3.9214    0.1703   -0.6908 C   0  0  0  0  0  0  0  0  0  0  0  0
   -3.4459   -1.0479   -0.2985 O   0  0  0  0  0  0  0  0  0  0  0  0
   -2.0963   -1.2961   -0.0123 C   0  0  0  0  0  0  0  0  0  0  0  0
   -1.6931   -0.5374    1.2084 C   0  0  0  0  0  0  0  0  0  0  0  0
   -0.3769   -0.7017    1.5968 N   0  0  0  0  0  0  0  0  0  0  0  0
    0.7344   -0.1927    0.9059 C   0  0  2  0  0  0  0  0  0  0  0  0
    1.0271   -0.6907   -0.4607 C   0  0  0  0  0  0  0  0  0  0  0  0
    1.9299   -0.3256    1.8475 C   0  0  0  0  0  0  0  0  0  0  0  0
    3.1934    0.1573    1.2922 C   0  0  0  0  0  0  0  0  0  0  0  0
    3.5832    1.4761    1.3920 C   0  0  0  0  0  0  0  0  0  0  0  0
    4.8012    1.8623    0.8597 C   0  0  0  0  0  0  0  0  0  0  0  0
    5.6598    0.9825    0.2240 C   0  0  0  0  0  0  0  0  0  0  0  0
    6.8830    1.3741   -0.3093 O   0  0  0  0  0  0  0  0  0  0  0  0
    7.2277    2.7516   -0.1729 C   0  0  0  0  0  0  0  0  0  0  0  0
    5.2563   -0.3369    0.1309 C   0  0  0  0  0  0  0  0  0  0  0  0
    6.3432   -1.4425   -0.6794 S   0  0  0  0  0  6  0  0  0  0  0  0
    5.7385   -3.0518   -0.7290 N   0  0  0  0  0  0  0  0  0  0  0  0
    6.6668   -0.9637   -2.0682 O   0  0  0  0  0  0  0  0  0  0  0  0
    7.6381   -1.4623    0.0826 O   0  0  0  0  0  0  0  0  0  0  0  0
    4.0460   -0.7282    0.6582 C   0  0  0  0  0  0  0  0  0  0  0  0
    0.6838    0.0000    0.0000 Cl  0  0  0  0  0  0  0  0  0  0  0  0
   -7.4169   -2.9939   -1.0296 H   0  0  0  0  0  0  0  0  0  0  0  0
   -9.0390   -2.2913   -0.8689 H   0  0  0  0  0  0  0  0  0  0  0  0
   -7.9479   -2.3607    0.6134 H   0  0  0  0  0  0  0  0  0  0  0  0
   -7.7815   -0.6164   -1.8531 H   0  0  0  0  0  0  0  0  0  0  0  0
   -7.9165   -0.1258   -0.0858 H   0  0  0  0  0  0  0  0  0  0  0  0
   -6.9819    1.4961   -1.3821 H   0  0  0  0  0  0  0  0  0  0  0  0
   -5.6429    3.5335   -1.8006 H   0  0  0  0  0  0  0  0  0  0  0  0
   -3.2348    3.3978   -1.5076 H   0  0  0  0  0  0  0  0  0  0  0  0
   -2.1193    1.3186   -0.8527 H   0  0  0  0  0  0  0  0  0  0  0  0
   -1.9936   -2.3957    0.1673 H   0  0  0  0  0  0  0  0  0  0  0  0
   -1.4595   -1.1126   -0.9095 H   0  0  0  0  0  0  0  0  0  0  0  0
   -2.3418   -1.0078    2.0593 H   0  0  0  0  0  0  0  0  0  0  0  0
   -1.9820    0.5509    1.2013 H   0  0  0  0  0  0  0  0  0  0  0  0
   -0.1483   -1.3956    2.3119 H   0  0  0  0  0  0  0  0  0  0  0  0
    0.5623    0.9425    0.8313 H   0  0  0  0  0  0  0  0  0  0  0  0
    2.1237   -0.5331   -0.7371 H   0  0  0  0  0  0  0  0  0  0  0  0
    0.5199   -0.0082   -1.2021 H   0  0  0  0  0  0  0  0  0  0  0  0
    0.7507   -1.7396   -0.6601 H   0  0  0  0  0  0  0  0  0  0  0  0
    2.0223   -1.4035    2.1644 H   0  0  0  0  0  0  0  0  0  0  0  0
    1.7435    0.2320    2.7892 H   0  0  0  0  0  0  0  0  0  0  0  0
    2.9689    2.2263    1.8743 H   0  0  0  0  0  0  0  0  0  0  0  0
    5.1192    2.9085    0.9345 H   0  0  0  0  0  0  0  0  0  0  0  0
    8.2378    2.9685   -0.5648 H   0  0  0  0  0  0  0  0  0  0  0  0
    6.4414    3.3542   -0.6454 H   0  0  0  0  0  0  0  0  0  0  0  0
    7.1831    3.0070    0.9247 H   0  0  0  0  0  0  0  0  0  0  0  0
    5.0845   -3.2258    0.0393 H   0  0  0  0  0  0  0  0  0  0  0  0
    5.2686   -3.1903   -1.6386 H   0  0  0  0  0  0  0  0  0  0  0  0
    3.7750   -1.7703    0.5605 H   0  0  0  0  0  0  0  0  0  0  0  0
   -0.6838    0.0000    0.0000 H   0  0  0  0  0  0  0  0  0  0  0  0
  1  2  1  0
  2  3  1  0
  3  4  1  0
  4  5  2  0
  5  6  1  0
  6  7  2  0
  7  8  1  0
  8  9  2  0
  9 10  1  0
 10 11  1  0
 11 12  1  0
 12 13  1  0
 13 14  1  0
 14 15  1  0
 14 16  1  0
 16 17  1  0
 17 18  2  0
 18 19  1  0
 19 20  2  0
 20 21  1  0
 21 22  1  0
 20 23  1  0
 23 24  1  0
 24 25  1  0
 24 26  2  0
 24 27  2  0
 23 28  2  0
  9  4  1  0
 28 17  1  0
  1 30  1  0
  1 31  1  0
  1 32  1  0
  2 33  1  0
  2 34  1  0
  5 35  1  0
  6 36  1  0
  7 37  1  0
  8 38  1  0
 11 39  1  0
 11 40  1  0
 12 41  1  0
 12 42  1  0
 13 43  1  0
 14 44  1  6
 15 45  1  0
 15 46  1  0
 15 47  1  0
 16 48  1  0
 16 49  1  0
 18 50  1  0
 19 51  1  0
 22 52  1  0
 22 53  1  0
 22 54  1  0
 25 55  1  0
 25 56  1  0
 28 57  1  0
 29 58  1  0
M  END
$$$$
