
     RDKit          3D

 63 62  0  0  0  0  0  0  0  0999 V2000
   -4.4434   -3.3811    0.7262 C   0  0  0  0  0  0  0  0  0  0  0  0
   -4.1617   -1.8908    0.8927 C   0  0  0  0  0  0  0  0  0  0  0  0
   -4.1610   -1.0296   -0.3940 C   0  0  2  0  0  0  0  0  0  0  0  0
   -5.3383   -1.3789   -1.3133 C   0  0  0  0  0  0  0  0  0  0  0  0
   -2.8348   -0.9977   -1.1978 C   0  0  2  0  0  0  0  0  0  0  0  0
   -2.2877   -2.3305   -1.5158 N   0  0  0  0  0  0  0  0  0  0  0  0
   -1.7344   -0.1763   -0.4737 C   0  0  0  0  0  0  0  0  0  0  0  0
   -1.2403   -0.5295    0.5965 O   0  0  0  0  0  0  0  0  0  0  0  0
   -1.2824    0.9437   -1.1957 N   0  0  0  0  0  0  0  0  0  0  0  0
   -2.2328    2.0376   -1.2712 C   0  0  0  0  0  0  0  0  0  0  0  0
   -1.8694    2.9348   -0.0817 C   0  0  0  0  0  0  0  0  0  0  0  0
   -0.4539    2.5084    0.3423 C   0  0  0  0  0  0  0  0  0  0  0  0
   -0.0216    1.5463   -0.7590 C   0  0  1  0  0  0  0  0  0  0  0  0
    1.1428    0.5607   -0.5030 C   0  0  0  0  0  0  0  0  0  0  0  0
    1.2574   -0.4972   -1.1230 O   0  0  0  0  0  0  0  0  0  0  0  0
    2.1193    1.0144    0.3647 N   0  0  0  0  0  0  0  0  0  0  0  0
    3.1713    0.0999    0.8305 C   0  0  2  0  0  0  0  0  0  0  0  0
    2.6833   -0.4162    2.1873 C   0  0  0  0  0  0  0  0  0  0  0  0
    2.1073    0.2498    3.0364 O   0  0  0  0  0  0  0  0  0  0  0  0
    2.9725   -1.7127    2.4097 O   0  0  0  0  0  0  0  0  0  0  0  0
    4.5216    0.8370    0.9740 C   0  0  1  0  0  0  0  0  0  0  0  0
    5.6264   -0.1063    1.4664 C   0  0  0  0  0  0  0  0  0  0  0  0
    4.9609    1.5533   -0.3249 C   0  0  0  0  0  0  0  0  0  0  0  0
    5.1427    0.6477   -1.5375 C   0  0  0  0  0  0  0  0  0  0  0  0
    0.9977    1.0674   -0.9969 O   0  0  0  0  0  0  0  0  0  0  0  0
    0.5430    0.2423   -0.2139 C   0  0  0  0  0  0  0  0  0  0  0  0
    1.4092   -0.5544    0.4653 O   0  0  0  0  0  0  0  0  0  0  0  0
   -0.9344   -0.0459    0.0738 C   0  0  0  0  0  0  0  0  0  0  0  0
   -1.7509    0.9875   -0.2758 F   0  0  0  0  0  0  0  0  0  0  0  0
   -1.3852   -1.1372   -0.6078 F   0  0  0  0  0  0  0  0  0  0  0  0
   -1.1763   -0.2921    1.3929 F   0  0  0  0  0  0  0  0  0  0  0  0
   -5.4454   -3.5592    0.3223 H   0  0  0  0  0  0  0  0  0  0  0  0
   -3.7172   -3.8755    0.0771 H   0  0  0  0  0  0  0  0  0  0  0  0
   -4.3972   -3.8731    1.7033 H   0  0  0  0  0  0  0  0  0  0  0  0
   -3.2195   -1.7665    1.4378 H   0  0  0  0  0  0  0  0  0  0  0  0
   -4.9405   -1.4904    1.5579 H   0  0  0  0  0  0  0  0  0  0  0  0
   -4.3356   -0.0003   -0.0487 H   0  0  0  0  0  0  0  0  0  0  0  0
   -6.2812   -1.3756   -0.7564 H   0  0  0  0  0  0  0  0  0  0  0  0
   -5.2157   -2.3619   -1.7799 H   0  0  0  0  0  0  0  0  0  0  0  0
   -5.4304   -0.6404   -2.1173 H   0  0  0  0  0  0  0  0  0  0  0  0
   -3.0302   -0.5103   -2.1611 H   0  0  0  0  0  0  0  0  0  0  0  0
   -1.9401   -2.7312   -0.6398 H   0  0  0  0  0  0  0  0  0  0  0  0
   -1.4364   -2.1951   -2.0670 H   0  0  0  0  0  0  0  0  0  0  0  0
   -2.0619    2.5668   -2.2157 H   0  0  0  0  0  0  0  0  0  0  0  0
   -3.2746    1.7106   -1.2331 H   0  0  0  0  0  0  0  0  0  0  0  0
   -1.9150    3.9927   -0.3592 H   0  0  0  0  0  0  0  0  0  0  0  0
   -2.5677    2.7790    0.7483 H   0  0  0  0  0  0  0  0  0  0  0  0
   -0.4868    2.0151    1.3215 H   0  0  0  0  0  0  0  0  0  0  0  0
    0.2201    3.3679    0.4279 H   0  0  0  0  0  0  0  0  0  0  0  0
    0.3261    2.1490   -1.6130 H   0  0  0  0  0  0  0  0  0  0  0  0
    1.8328    1.7030    1.0512 H   0  0  0  0  0  0  0  0  0  0  0  0
    3.2548   -0.7504    0.1450 H   0  0  0  0  0  0  0  0  0  0  0  0
    2.5499   -1.9131    3.2713 H   0  0  0  0  0  0  0  0  0  0  0  0
    4.4090    1.6205    1.7372 H   0  0  0  0  0  0  0  0  0  0  0  0
    5.4370   -0.4261    2.4967 H   0  0  0  0  0  0  0  0  0  0  0  0
    5.6988   -1.0045    0.8438 H   0  0  0  0  0  0  0  0  0  0  0  0
    6.6012    0.3951    1.4594 H   0  0  0  0  0  0  0  0  0  0  0  0
    5.9077    2.0770   -0.1389 H   0  0  0  0  0  0  0  0  0  0  0  0
    4.2329    2.3339   -0.5775 H   0  0  0  0  0  0  0  0  0  0  0  0
    5.9036   -0.1173   -1.3583 H   0  0  0  0  0  0  0  0  0  0  0  0
    4.2094    0.1512   -1.8141 H   0  0  0  0  0  0  0  0  0  0  0  0
    5.4683    1.2420   -2.3989 H   0  0  0  0  0  0  0  0  0  0  0  0
    2.2968   -0.2677    0.1623 H   0  0  0  0  0  0  0  0  0  0  0  0
  1  2  1  0
  2  3  1  0
  3  4  1  0
  3  5  1  0
  5  6  1  0
  5  7  1  0
  7  8  2  0
  7  9  1  0
  9 10  1  0
 10 11  1  0
 11 12  1  0
 12 13  1  0
 13 14  1  0
 14 15  2  0
 14 16  1  0
 16 17  1  0
 17 18  1  0
 18 19  2  0
 18 20  1  0
 17 21  1  0
 21 22  1  0
 21 23  1  0
 23 24  1  0
 25 26  2  0
 26 27  1  0
 26 28  1  0
 28 29  1  0
 28 30  1  0
 28 31  1  0
 13  9  1  0
  1 32  1  0
  1 33  1  0
  1 34  1  0
  2 35  1  0
  2 36  1  0
  3 37  1  1
  4 38  1  0
  4 39  1  0
  4 40  1  0
  5 41  1  6
  6 42  1  0
  6 43  1  0
 10 44  1  0
 10 45  1  0
 11 46  1  0
 11 47  1  0
 12 48  1  0
 12 49  1  0
 13 50  1  6
 16 51  1  0
 17 52  1  6
 20 53  1  0
 21 54  1  1
 22 55  1  0
 22 56  1  0
 22 57  1  0
 23 58  1  0
 23 59  1  0
 24 60  1  0
 24 61  1  0
 24 62  1  0
 27 63  1  0
M  END
$$$$
