
     RDKit          3D

 67 69  0  0  0  0  0  0  0  0999 V2000
    1.3176    1.5623   -0.2659 O   0  0  0  0  0  0  0  0  0  0  0  0
    1.1275    0.5317   -0.8887 C   0  0  0  0  0  0  0  0  0  0  0  0
    1.3805    0.4776   -2.2204 O   0  0  0  0  0  0  0  0  0  0  0  0
    0.6556   -0.8208   -0.3501 C   0  0  2  0  0  0  0  0  0  0  0  0
    0.0827   -1.6251   -1.3929 O   0  0  0  0  0  0  0  0  0  0  0  0
   -0.3486   -0.6801    0.7963 C   0  0  1  0  0  0  0  0  0  0  0  0
    0.3562   -0.5507    2.0401 O   0  0  0  0  0  0  0  0  0  0  0  0
   -1.3195    0.4842    0.5880 C   0  0  0  0  0  0  0  0  0  0  0  0
   -1.7673    0.9103   -0.4622 O   0  0  0  0  0  0  0  0  0  0  0  0
   -1.7095    1.0259    1.7692 O   0  0  0  0  0  0  0  0  0  0  0  0
    3.9082   -2.6111   -0.4632 O   0  0  0  0  0  0  0  0  0  0  0  0
    4.1000   -1.4086   -0.6437 C   0  0  0  0  0  0  0  0  0  0  0  0
    5.4016   -0.8278   -0.1876 C   0  0  0  0  0  0  0  0  0  0  0  0
    6.1488   -1.5468    0.7604 C   0  0  0  0  0  0  0  0  0  0  0  0
    7.3695   -1.0518    1.2231 C   0  0  0  0  0  0  0  0  0  0  0  0
    7.8446    0.1580    0.7343 C   0  0  0  0  0  0  0  0  0  0  0  0
    9.0150    0.6357    1.1762 F   0  0  0  0  0  0  0  0  0  0  0  0
    7.1238    0.8795   -0.2110 C   0  0  0  0  0  0  0  0  0  0  0  0
    5.9008    0.3872   -0.6770 C   0  0  0  0  0  0  0  0  0  0  0  0
    3.0601   -0.5061   -1.3195 C   0  0  0  0  0  0  0  0  0  0  0  0
    2.5783    0.5907   -0.3571 C   0  0  0  0  0  0  0  0  0  0  0  0
    1.0674    0.8138   -0.4230 C   0  0  0  0  0  0  0  0  0  0  0  0
    0.3377   -0.4081   -0.0804 N   0  0  0  0  0  0  0  0  0  0  0  0
   -1.1222   -0.2729   -0.2443 C   0  0  0  0  0  0  0  0  0  0  0  0
   -1.7773    0.8050    0.6449 C   0  0  0  0  0  0  0  0  0  0  0  0
   -3.2305    0.8244    0.4844 N   0  0  0  0  0  0  0  0  0  0  0  0
   -3.7492    1.5416   -0.5816 C   0  0  0  0  0  0  0  0  0  0  0  0
   -3.0644    2.1697   -1.3880 O   0  0  0  0  0  0  0  0  0  0  0  0
   -5.1064    1.5267   -0.7318 N   0  0  0  0  0  0  0  0  0  0  0  0
   -5.9712    0.8212    0.0994 C   0  0  0  0  0  0  0  0  0  0  0  0
   -7.3476    0.8696   -0.1226 C   0  0  0  0  0  0  0  0  0  0  0  0
   -8.2069    0.1512    0.7122 C   0  0  0  0  0  0  0  0  0  0  0  0
   -7.6919   -0.6120    1.7621 C   0  0  0  0  0  0  0  0  0  0  0  0
   -6.3143   -0.6595    1.9803 C   0  0  0  0  0  0  0  0  0  0  0  0
   -5.4561    0.0619    1.1437 C   0  0  0  0  0  0  0  0  0  0  0  0
   -3.9938    0.0305    1.3387 C   0  0  0  0  0  0  0  0  0  0  0  0
   -3.5238   -0.6863    2.2188 O   0  0  0  0  0  0  0  0  0  0  0  0
    0.8423   -1.6116   -0.7656 C   0  0  0  0  0  0  0  0  0  0  0  0
    1.8788   -1.3295   -1.8553 C   0  0  0  0  0  0  0  0  0  0  0  0
    1.6385    1.3976   -2.4449 H   0  0  0  0  0  0  0  0  0  0  0  0
    1.5531   -1.3485   -0.0055 H   0  0  0  0  0  0  0  0  0  0  0  0
    0.5785   -1.3919   -2.2037 H   0  0  0  0  0  0  0  0  0  0  0  0
   -0.9612   -1.5858    0.8760 H   0  0  0  0  0  0  0  0  0  0  0  0
   -0.2847   -0.1508    2.6632 H   0  0  0  0  0  0  0  0  0  0  0  0
   -2.2993    1.7641    1.5016 H   0  0  0  0  0  0  0  0  0  0  0  0
    5.7783   -2.4961    1.1452 H   0  0  0  0  0  0  0  0  0  0  0  0
    7.9481   -1.6032    1.9580 H   0  0  0  0  0  0  0  0  0  0  0  0
    7.5210    1.8196   -0.5820 H   0  0  0  0  0  0  0  0  0  0  0  0
    5.3681    0.9648   -1.4261 H   0  0  0  0  0  0  0  0  0  0  0  0
    3.5434   -0.0574   -2.1966 H   0  0  0  0  0  0  0  0  0  0  0  0
    2.8569    0.3550    0.6793 H   0  0  0  0  0  0  0  0  0  0  0  0
    3.0829    1.5342   -0.5995 H   0  0  0  0  0  0  0  0  0  0  0  0
    0.8232    1.6088    0.2902 H   0  0  0  0  0  0  0  0  0  0  0  0
    0.7893    1.1778   -1.4208 H   0  0  0  0  0  0  0  0  0  0  0  0
   -1.3638   -0.0816   -1.2984 H   0  0  0  0  0  0  0  0  0  0  0  0
   -1.5938   -1.2308    0.0133 H   0  0  0  0  0  0  0  0  0  0  0  0
   -1.3938    1.7992    0.3897 H   0  0  0  0  0  0  0  0  0  0  0  0
   -1.5268    0.6209    1.6967 H   0  0  0  0  0  0  0  0  0  0  0  0
   -5.4634    2.0659   -1.5103 H   0  0  0  0  0  0  0  0  0  0  0  0
   -7.7639    1.4579   -0.9355 H   0  0  0  0  0  0  0  0  0  0  0  0
   -9.2812    0.1848    0.5442 H   0  0  0  0  0  0  0  0  0  0  0  0
   -8.3634   -1.1717    2.4093 H   0  0  0  0  0  0  0  0  0  0  0  0
   -5.9137   -1.2560    2.7977 H   0  0  0  0  0  0  0  0  0  0  0  0
    0.0287   -2.1966   -1.2139 H   0  0  0  0  0  0  0  0  0  0  0  0
    1.2856   -2.2608   -0.0010 H   0  0  0  0  0  0  0  0  0  0  0  0
    2.2215   -2.2747   -2.2938 H   0  0  0  0  0  0  0  0  0  0  0  0
    1.3953   -0.7771   -2.6726 H   0  0  0  0  0  0  0  0  0  0  0  0
  1  2  2  0
  2  3  1  0
  2  4  1  0
  4  5  1  0
  4  6  1  0
  6  7  1  0
  6  8  1  0
  8  9  2  0
  8 10  1  0
 11 12  2  0
 12 13  1  0
 13 14  2  0
 14 15  1  0
 15 16  2  0
 16 17  1  0
 16 18  1  0
 18 19  2  0
 12 20  1  0
 20 21  1  0
 21 22  1  0
 22 23  1  0
 23 24  1  0
 24 25  1  0
 25 26  1  0
 26 27  1  0
 27 28  2  0
 27 29  1  0
 29 30  1  0
 30 31  2  0
 31 32  1  0
 32 33  2  0
 33 34  1  0
 34 35  2  0
 35 36  1  0
 36 37  2  0
 23 38  1  0
 38 39  1  0
 19 13  1  0
 39 20  1  0
 36 26  1  0
 35 30  1  0
  3 40  1  0
  4 41  1  1
  5 42  1  0
  6 43  1  1
  7 44  1  0
 10 45  1  0
 14 46  1  0
 15 47  1  0
 18 48  1  0
 19 49  1  0
 20 50  1  0
 21 51  1  0
 21 52  1  0
 22 53  1  0
 22 54  1  0
 24 55  1  0
 24 56  1  0
 25 57  1  0
 25 58  1  0
 29 59  1  0
 31 60  1  0
 32 61  1  0
 33 62  1  0
 34 63  1  0
 38 64  1  0
 38 65  1  0
 39 66  1  0
 39 67  1  0
M  END
$$$$
