
     RDKit          3D

 32 35  0  0  0  0  0  0  0  0999 V2000
    1.7356    3.2094   -0.1134 N   0  0  0  0  0  0  0  0  0  0  0  0
    1.3338    1.8599    0.0506 C   0  0  0  0  0  0  0  0  0  0  0  0
   -0.0407    1.6108   -0.0302 C   0  0  0  0  0  0  0  0  0  0  0  0
   -0.6022    0.3200    0.0133 C   0  0  0  0  0  0  0  0  0  0  0  0
   -2.0324    0.0984   -0.0242 C   0  0  0  0  0  0  0  0  0  0  0  0
   -3.0100    1.1266   -0.1095 C   0  0  0  0  0  0  0  0  0  0  0  0
   -4.3833    0.8609   -0.1421 C   0  0  0  0  0  0  0  0  0  0  0  0
   -4.8343   -0.4476   -0.0897 C   0  0  0  0  0  0  0  0  0  0  0  0
   -3.9107   -1.4843   -0.0043 C   0  0  0  0  0  0  0  0  0  0  0  0
   -2.5290   -1.2246    0.0288 C   0  0  0  0  0  0  0  0  0  0  0  0
   -1.6381   -2.2878    0.1167 C   0  0  0  0  0  0  0  0  0  0  0  0
   -0.2621   -2.0641    0.1487 C   0  0  0  0  0  0  0  0  0  0  0  0
    0.3045   -0.7715    0.0956 C   0  0  0  0  0  0  0  0  0  0  0  0
    1.7338   -0.5442    0.1092 C   0  0  0  0  0  0  0  0  0  0  0  0
    2.6924   -1.5942    0.1509 C   0  0  0  0  0  0  0  0  0  0  0  0
    4.0706   -1.3680    0.1373 C   0  0  0  0  0  0  0  0  0  0  0  0
    4.5487   -0.0740    0.0781 C   0  0  0  0  0  0  0  0  0  0  0  0
    3.6453    0.9850    0.0418 C   0  0  0  0  0  0  0  0  0  0  0  0
    2.2418    0.7823    0.0659 C   0  0  0  0  0  0  0  0  0  0  0  0
    1.7936    3.4325   -1.1056 H   0  0  0  0  0  0  0  0  0  0  0  0
    2.6263    3.4054    0.3309 H   0  0  0  0  0  0  0  0  0  0  0  0
   -0.6794    2.4869   -0.1032 H   0  0  0  0  0  0  0  0  0  0  0  0
   -2.7181    2.1720   -0.1514 H   0  0  0  0  0  0  0  0  0  0  0  0
   -5.0927    1.6816   -0.2073 H   0  0  0  0  0  0  0  0  0  0  0  0
   -5.8987   -0.6631   -0.1139 H   0  0  0  0  0  0  0  0  0  0  0  0
   -4.2800   -2.5071    0.0374 H   0  0  0  0  0  0  0  0  0  0  0  0
   -1.9997   -3.3130    0.1610 H   0  0  0  0  0  0  0  0  0  0  0  0
    0.3617   -2.9502    0.2178 H   0  0  0  0  0  0  0  0  0  0  0  0
    2.3816   -2.6341    0.1885 H   0  0  0  0  0  0  0  0  0  0  0  0
    4.7603   -2.2071    0.1682 H   0  0  0  0  0  0  0  0  0  0  0  0
    5.6180    0.1170    0.0614 H   0  0  0  0  0  0  0  0  0  0  0  0
    4.0635    1.9861   -0.0072 H   0  0  0  0  0  0  0  0  0  0  0  0
  1  2  1  0
  2  3  2  0
  3  4  1  0
  4  5  2  0
  5  6  1  0
  6  7  2  0
  7  8  1  0
  8  9  2  0
  9 10  1  0
 10 11  2  0
 11 12  1  0
 12 13  2  0
 13 14  1  0
 14 15  2  0
 15 16  1  0
 16 17  2  0
 17 18  1  0
 18 19  2  0
 19  2  1  0
 13  4  1  0
 19 14  1  0
 10  5  1  0
  1 20  1  0
  1 21  1  0
  3 22  1  0
  6 23  1  0
  7 24  1  0
  8 25  1  0
  9 26  1  0
 11 27  1  0
 12 28  1  0
 15 29  1  0
 16 30  1  0
 17 31  1  0
 18 32  1  0
M  END
$$$$
