
     RDKit          3D

 44 47  0  0  0  0  0  0  0  0999 V2000
   -1.0484    2.7028   -0.4950 O   0  0  0  0  0  0  0  0  0  0  0  0
   -0.8062    1.5228   -0.2330 C   0  0  0  0  0  0  0  0  0  0  0  0
   -1.9073    0.5598   -0.1636 C   0  0  0  0  0  0  0  0  0  0  0  0
   -3.2523    0.8762   -0.2050 C   0  0  0  0  0  0  0  0  0  0  0  0
   -3.9137   -0.3238   -0.1395 N   0  0  0  0  0  0  0  0  0  0  0  0
   -5.3110   -0.5739   -0.1432 C   0  0  0  0  0  0  0  0  0  0  0  0
   -5.7768   -1.8984   -0.0668 C   0  0  0  0  0  0  0  0  0  0  0  0
   -7.1488   -2.1608   -0.0690 C   0  0  0  0  0  0  0  0  0  0  0  0
   -8.0493   -1.1061   -0.1472 C   0  0  0  0  0  0  0  0  0  0  0  0
   -9.3642   -1.3589   -0.1490 F   0  0  0  0  0  0  0  0  0  0  0  0
   -7.6050    0.2089   -0.2236 C   0  0  0  0  0  0  0  0  0  0  0  0
   -6.2336    0.4814   -0.2221 C   0  0  0  0  0  0  0  0  0  0  0  0
   -3.0079   -1.3288   -0.0624 N   0  0  0  0  0  0  0  0  0  0  0  0
   -1.7921   -0.8028   -0.0915 N   0  0  0  0  0  0  0  0  0  0  0  0
    0.5025    1.0952   -0.0090 N   0  0  0  0  0  0  0  0  0  0  0  0
    1.5979    2.0410   -0.2281 C   0  0  0  0  0  0  0  0  0  0  0  0
    2.8769    1.3604   -0.7479 C   0  0  0  0  0  0  0  0  0  0  0  0
    3.3106    0.2567    0.1276 N   0  0  0  0  0  0  0  0  0  0  0  0
    4.6546   -0.0803    0.2135 C   0  0  0  0  0  0  0  0  0  0  0  0
    5.2027   -0.6931    1.3524 C   0  0  0  0  0  0  0  0  0  0  0  0
    6.5590   -1.0355    1.4326 C   0  0  0  0  0  0  0  0  0  0  0  0
    7.4084   -0.7768    0.3644 C   0  0  0  0  0  0  0  0  0  0  0  0
    6.8985   -0.1784   -0.7804 C   0  0  0  0  0  0  0  0  0  0  0  0
    5.5416    0.1615   -0.8499 C   0  0  0  0  0  0  0  0  0  0  0  0
    2.3196   -0.2828    1.0699 C   0  0  0  0  0  0  0  0  0  0  0  0
    0.8921   -0.2304    0.4885 C   0  0  0  0  0  0  0  0  0  0  0  0
   -3.7471    1.8316   -0.2784 H   0  0  0  0  0  0  0  0  0  0  0  0
   -5.0867   -2.7387   -0.0056 H   0  0  0  0  0  0  0  0  0  0  0  0
   -7.5179   -3.1801   -0.0106 H   0  0  0  0  0  0  0  0  0  0  0  0
   -8.3305    1.0147   -0.2844 H   0  0  0  0  0  0  0  0  0  0  0  0
   -5.9234    1.5205   -0.2837 H   0  0  0  0  0  0  0  0  0  0  0  0
    1.7952    2.5246    0.7366 H   0  0  0  0  0  0  0  0  0  0  0  0
    1.2933    2.8238   -0.9310 H   0  0  0  0  0  0  0  0  0  0  0  0
    2.6931    0.9596   -1.7521 H   0  0  0  0  0  0  0  0  0  0  0  0
    3.6519    2.1328   -0.8231 H   0  0  0  0  0  0  0  0  0  0  0  0
    4.5862   -0.9005    2.2219 H   0  0  0  0  0  0  0  0  0  0  0  0
    6.9455   -1.5022    2.3346 H   0  0  0  0  0  0  0  0  0  0  0  0
    8.4598   -1.0428    0.4226 H   0  0  0  0  0  0  0  0  0  0  0  0
    7.5494    0.0210   -1.6273 H   0  0  0  0  0  0  0  0  0  0  0  0
    5.1828    0.6021   -1.7761 H   0  0  0  0  0  0  0  0  0  0  0  0
    2.5350   -1.3306    1.3111 H   0  0  0  0  0  0  0  0  0  0  0  0
    2.3574    0.2971    2.0005 H   0  0  0  0  0  0  0  0  0  0  0  0
    0.8178   -0.9221   -0.3588 H   0  0  0  0  0  0  0  0  0  0  0  0
    0.1902   -0.5466    1.2662 H   0  0  0  0  0  0  0  0  0  0  0  0
  1  2  2  0
  2  3  1  0
  3  4  2  0
  4  5  1  0
  5  6  1  0
  6  7  2  0
  7  8  1  0
  8  9  2  0
  9 10  1  0
  9 11  1  0
 11 12  2  0
  5 13  1  0
 13 14  2  0
  2 15  1  0
 15 16  1  0
 16 17  1  0
 17 18  1  0
 18 19  1  0
 19 20  2  0
 20 21  1  0
 21 22  2  0
 22 23  1  0
 23 24  2  0
 18 25  1  0
 25 26  1  0
 14  3  1  0
 26 15  1  0
 12  6  1  0
 24 19  1  0
  4 27  1  0
  7 28  1  0
  8 29  1  0
 11 30  1  0
 12 31  1  0
 16 32  1  0
 16 33  1  0
 17 34  1  0
 17 35  1  0
 20 36  1  0
 21 37  1  0
 22 38  1  0
 23 39  1  0
 24 40  1  0
 25 41  1  0
 25 42  1  0
 26 43  1  0
 26 44  1  0
M  END
$$$$
