
     RDKit          3D

 65 67  0  0  0  0  0  0  0  0999 V2000
    0.8543   -3.3732   -0.2678 C   0  0  0  0  0  0  0  0  0  0  0  0
    2.2285   -3.2470   -0.6212 O   0  0  0  0  0  0  0  0  0  0  0  0
    2.6715   -1.9977   -0.9683 C   0  0  0  0  0  0  0  0  0  0  0  0
    1.8277   -0.9614   -1.3647 C   0  0  0  0  0  0  0  0  0  0  0  0
    2.3654    0.2929   -1.6542 C   0  0  0  0  0  0  0  0  0  0  0  0
    1.4700    1.3970   -2.0414 C   0  0  0  0  0  0  0  0  0  0  0  0
    1.3774    1.6429   -3.2415 O   0  0  0  0  0  0  0  0  0  0  0  0
    0.7961    2.0952   -1.0386 N   0  0  0  0  0  0  0  0  0  0  0  0
    0.9442    1.8303    0.4009 C   0  0  0  0  0  0  0  0  0  0  0  0
   -0.0989    0.8556    0.9493 C   0  0  0  0  0  0  0  0  0  0  0  0
    0.2521    0.3845    2.3644 C   0  0  0  0  0  0  0  0  0  0  0  0
   -0.6331   -0.7363    2.8632 C   0  0  0  0  0  0  0  0  0  0  0  0
   -2.0279   -0.6911    2.7252 C   0  0  0  0  0  0  0  0  0  0  0  0
   -2.8252   -1.7351    3.1998 C   0  0  0  0  0  0  0  0  0  0  0  0
   -2.2410   -2.8302    3.8309 C   0  0  0  0  0  0  0  0  0  0  0  0
   -0.8585   -2.8797    3.9929 C   0  0  0  0  0  0  0  0  0  0  0  0
   -0.0597   -1.8369    3.5169 C   0  0  0  0  0  0  0  0  0  0  0  0
   -0.1510    3.1359   -1.4500 C   0  0  0  0  0  0  0  0  0  0  0  0
   -1.5917    2.6847   -1.3898 C   0  0  0  0  0  0  0  0  0  0  0  0
   -2.0410    1.6248   -2.1890 C   0  0  0  0  0  0  0  0  0  0  0  0
   -3.3624    1.1795   -2.1059 C   0  0  0  0  0  0  0  0  0  0  0  0
   -4.2650    1.7935   -1.2296 C   0  0  0  0  0  0  0  0  0  0  0  0
   -5.6833    1.2915   -1.1189 C   0  0  0  0  0  0  0  0  0  0  0  0
   -5.9005    0.3206    0.0163 C   0  0  0  0  0  0  0  0  0  0  0  0
   -5.2167    0.1516    1.0121 O   0  0  0  0  0  0  0  0  0  0  0  0
   -7.0451   -0.3838   -0.1388 O   0  0  0  0  0  0  0  0  0  0  0  0
   -3.8244    2.8658   -0.4436 C   0  0  0  0  0  0  0  0  0  0  0  0
   -2.5027    3.3119   -0.5275 C   0  0  0  0  0  0  0  0  0  0  0  0
    3.7417    0.5202   -1.6199 C   0  0  0  0  0  0  0  0  0  0  0  0
    4.5974   -0.5208   -1.2613 C   0  0  0  0  0  0  0  0  0  0  0  0
    5.9610   -0.4005   -1.1738 O   0  0  0  0  0  0  0  0  0  0  0  0
    6.5518    0.7569   -1.7510 C   0  0  0  0  0  0  0  0  0  0  0  0
    4.0672   -1.7906   -0.9372 C   0  0  0  0  0  0  0  0  0  0  0  0
    5.0020   -2.9009   -0.5193 C   0  0  0  0  0  0  0  0  0  0  0  0
    0.5502   -2.6129    0.4587 H   0  0  0  0  0  0  0  0  0  0  0  0
    0.7214   -4.3520    0.2051 H   0  0  0  0  0  0  0  0  0  0  0  0
    0.2187   -3.3424   -1.1596 H   0  0  0  0  0  0  0  0  0  0  0  0
    0.7582   -1.1040   -1.4683 H   0  0  0  0  0  0  0  0  0  0  0  0
    1.9501    1.4422    0.5869 H   0  0  0  0  0  0  0  0  0  0  0  0
    0.8846    2.7868    0.9343 H   0  0  0  0  0  0  0  0  0  0  0  0
   -0.2037   -0.0092    0.2876 H   0  0  0  0  0  0  0  0  0  0  0  0
   -1.0761    1.3451    0.9644 H   0  0  0  0  0  0  0  0  0  0  0  0
    0.1857    1.2237    3.0680 H   0  0  0  0  0  0  0  0  0  0  0  0
    1.2955    0.0436    2.3730 H   0  0  0  0  0  0  0  0  0  0  0  0
   -2.5194    0.1513    2.2423 H   0  0  0  0  0  0  0  0  0  0  0  0
   -3.9034   -1.6845    3.0729 H   0  0  0  0  0  0  0  0  0  0  0  0
   -2.8650   -3.6404    4.2010 H   0  0  0  0  0  0  0  0  0  0  0  0
   -0.4008   -3.7305    4.4919 H   0  0  0  0  0  0  0  0  0  0  0  0
    1.0183   -1.8951    3.6571 H   0  0  0  0  0  0  0  0  0  0  0  0
    0.0131    4.0089   -0.8065 H   0  0  0  0  0  0  0  0  0  0  0  0
    0.0617    3.4696   -2.4730 H   0  0  0  0  0  0  0  0  0  0  0  0
   -1.3535    1.1315   -2.8753 H   0  0  0  0  0  0  0  0  0  0  0  0
   -3.6747    0.3428   -2.7284 H   0  0  0  0  0  0  0  0  0  0  0  0
   -6.3659    2.1375   -0.9817 H   0  0  0  0  0  0  0  0  0  0  0  0
   -5.9630    0.7979   -2.0578 H   0  0  0  0  0  0  0  0  0  0  0  0
   -7.0774   -0.9568    0.6566 H   0  0  0  0  0  0  0  0  0  0  0  0
   -4.5066    3.3560    0.2493 H   0  0  0  0  0  0  0  0  0  0  0  0
   -2.1858    4.1423    0.1007 H   0  0  0  0  0  0  0  0  0  0  0  0
    4.1069    1.5100   -1.8764 H   0  0  0  0  0  0  0  0  0  0  0  0
    7.6382    0.6175   -1.7451 H   0  0  0  0  0  0  0  0  0  0  0  0
    6.2417    0.8877   -2.7934 H   0  0  0  0  0  0  0  0  0  0  0  0
    6.3257    1.6483   -1.1563 H   0  0  0  0  0  0  0  0  0  0  0  0
    5.8883   -2.9249   -1.1635 H   0  0  0  0  0  0  0  0  0  0  0  0
    5.3160   -2.7504    0.5189 H   0  0  0  0  0  0  0  0  0  0  0  0
    4.5406   -3.8898   -0.6018 H   0  0  0  0  0  0  0  0  0  0  0  0
  1  2  1  0
  2  3  1  0
  3  4  2  0
  4  5  1  0
  5  6  1  0
  6  7  2  0
  6  8  1  0
  8  9  1  0
  9 10  1  0
 10 11  1  0
 11 12  1  0
 12 13  2  0
 13 14  1  0
 14 15  2  0
 15 16  1  0
 16 17  2  0
  8 18  1  0
 18 19  1  0
 19 20  2  0
 20 21  1  0
 21 22  2  0
 22 23  1  0
 23 24  1  0
 24 25  2  0
 24 26  1  0
 22 27  1  0
 27 28  2  0
  5 29  2  0
 29 30  1  0
 30 31  1  0
 31 32  1  0
 30 33  2  0
 33 34  1  0
 33  3  1  0
 17 12  1  0
 28 19  1  0
  1 35  1  0
  1 36  1  0
  1 37  1  0
  4 38  1  0
  9 39  1  0
  9 40  1  0
 10 41  1  0
 10 42  1  0
 11 43  1  0
 11 44  1  0
 13 45  1  0
 14 46  1  0
 15 47  1  0
 16 48  1  0
 17 49  1  0
 18 50  1  0
 18 51  1  0
 20 52  1  0
 21 53  1  0
 23 54  1  0
 23 55  1  0
 26 56  1  0
 27 57  1  0
 28 58  1  0
 29 59  1  0
 32 60  1  0
 32 61  1  0
 32 62  1  0
 34 63  1  0
 34 64  1  0
 34 65  1  0
M  END
$$$$
