
     RDKit          3D

 35 37  0  0  0  0  0  0  0  0999 V2000
    6.3423    0.4759   -0.2351 C   0  0  0  0  0  0  0  0  0  0  0  0
    5.3484   -0.0313   -1.1162 O   0  0  0  0  0  0  0  0  0  0  0  0
    4.0524    0.0223   -0.6834 C   0  0  0  0  0  0  0  0  0  0  0  0
    3.1129   -0.4696   -1.5908 C   0  0  0  0  0  0  0  0  0  0  0  0
    1.7515   -0.4756   -1.2771 C   0  0  0  0  0  0  0  0  0  0  0  0
    1.3031    0.0174   -0.0442 C   0  0  0  0  0  0  0  0  0  0  0  0
   -0.1674   -0.0056    0.3298 C   0  0  2  0  0  0  0  0  0  0  0  0
   -0.5662   -1.3839    0.8393 C   0  0  0  0  0  0  0  0  0  0  0  0
   -2.0207   -1.3411    1.2075 C   0  0  0  0  0  0  0  0  0  0  0  0
   -2.5085   -2.0349    2.0969 O   0  0  0  0  0  0  0  0  0  0  0  0
   -2.8875   -0.4623    0.4017 C   0  0  0  0  0  0  0  0  0  0  0  0
   -4.2751   -0.4350    0.5822 C   0  0  0  0  0  0  0  0  0  0  0  0
   -4.9182   -1.1808    1.5331 O   0  0  0  0  0  0  0  0  0  0  0  0
   -5.0735    0.3681   -0.2287 C   0  0  0  0  0  0  0  0  0  0  0  0
   -4.4743    1.1343   -1.2249 C   0  0  0  0  0  0  0  0  0  0  0  0
   -5.2158    1.9282   -2.0492 O   0  0  0  0  0  0  0  0  0  0  0  0
   -3.0947    1.1169   -1.4132 C   0  0  0  0  0  0  0  0  0  0  0  0
   -2.2967    0.3284   -0.5860 C   0  0  0  0  0  0  0  0  0  0  0  0
   -0.9472    0.3619   -0.8205 O   0  0  0  0  0  0  0  0  0  0  0  0
    2.2529    0.5050    0.8658 C   0  0  0  0  0  0  0  0  0  0  0  0
    3.6167    0.5095    0.5480 C   0  0  0  0  0  0  0  0  0  0  0  0
    6.1860    1.5409   -0.0340 H   0  0  0  0  0  0  0  0  0  0  0  0
    7.3129    0.3696   -0.7292 H   0  0  0  0  0  0  0  0  0  0  0  0
    6.3772   -0.1017    0.6946 H   0  0  0  0  0  0  0  0  0  0  0  0
    3.4441   -0.8512   -2.5538 H   0  0  0  0  0  0  0  0  0  0  0  0
    1.0444   -0.8642   -2.0074 H   0  0  0  0  0  0  0  0  0  0  0  0
   -0.3408    0.7599    1.1006 H   0  0  0  0  0  0  0  0  0  0  0  0
    0.0177   -1.6531    1.7264 H   0  0  0  0  0  0  0  0  0  0  0  0
   -0.4364   -2.1615    0.0776 H   0  0  0  0  0  0  0  0  0  0  0  0
   -4.2431   -1.7102    2.0163 H   0  0  0  0  0  0  0  0  0  0  0  0
   -6.1480    0.3760   -0.0755 H   0  0  0  0  0  0  0  0  0  0  0  0
   -6.1546    1.8366   -1.8135 H   0  0  0  0  0  0  0  0  0  0  0  0
   -2.6452    1.7233   -2.1949 H   0  0  0  0  0  0  0  0  0  0  0  0
    1.9412    0.8886    1.8354 H   0  0  0  0  0  0  0  0  0  0  0  0
    4.3103    0.8995    1.2854 H   0  0  0  0  0  0  0  0  0  0  0  0
  1  2  1  0
  2  3  1  0
  3  4  2  0
  4  5  1  0
  5  6  2  0
  6  7  1  0
  7  8  1  0
  8  9  1  0
  9 10  2  0
  9 11  1  0
 11 12  2  0
 12 13  1  0
 12 14  1  0
 14 15  2  0
 15 16  1  0
 15 17  1  0
 17 18  2  0
 18 19  1  0
  6 20  1  0
 20 21  2  0
 21  3  1  0
 19  7  1  0
 18 11  1  0
  1 22  1  0
  1 23  1  0
  1 24  1  0
  4 25  1  0
  5 26  1  0
  7 27  1  1
  8 28  1  0
  8 29  1  0
 13 30  1  0
 14 31  1  0
 16 32  1  0
 17 33  1  0
 20 34  1  0
 21 35  1  0
M  END
$$$$
