
     RDKit          3D

 59 62  0  0  0  0  0  0  0  0999 V2000
   -5.0445   -1.6739    2.0780 C   0  0  0  0  0  0  0  0  0  0  0  0
   -4.7221   -0.2176    1.8133 C   0  0  0  0  0  0  0  0  0  0  0  0
   -4.5092    0.1500    0.0745 S   0  0  0  0  0  6  0  0  0  0  0  0
   -5.7356   -0.2240   -0.5949 O   0  0  0  0  0  0  0  0  0  0  0  0
   -3.9898    1.4959   -0.0414 O   0  0  0  0  0  0  0  0  0  0  0  0
   -3.3027   -0.9251   -0.3914 N   0  0  0  0  0  0  0  0  0  0  0  0
   -3.6923   -2.0793   -1.2463 C   0  0  0  0  0  0  0  0  0  0  0  0
   -3.8560   -1.6689   -2.7116 C   0  0  0  0  0  0  0  0  0  0  0  0
   -2.6415   -1.1684   -3.2755 O   0  0  0  0  0  0  0  0  0  0  0  0
   -2.3270    0.1569   -2.8409 C   0  0  0  0  0  0  0  0  0  0  0  0
   -1.3569    0.1299   -1.6601 C   0  0  1  0  0  0  0  0  0  0  0  0
   -0.8548    1.5368   -1.3248 C   0  0  0  0  0  0  0  0  0  0  0  0
    0.2148    1.4906   -0.3238 N   0  0  0  0  0  0  0  0  0  0  0  0
    1.3457    2.2854   -0.5178 C   0  0  0  0  0  0  0  0  0  0  0  0
    1.4814    3.0311   -1.4843 O   0  0  0  0  0  0  0  0  0  0  0  0
    2.4595    2.2243    0.5146 C   0  0  0  0  0  0  0  0  0  0  0  0
    3.3862    1.0053    0.4459 C   0  0  0  0  0  0  0  0  0  0  0  0
    3.5001    0.0810    1.4982 C   0  0  0  0  0  0  0  0  0  0  0  0
    4.3412   -1.0341    1.4113 C   0  0  0  0  0  0  0  0  0  0  0  0
    5.0956   -1.2482    0.2623 C   0  0  0  0  0  0  0  0  0  0  0  0
    5.9238   -2.3193    0.0691 O   0  0  0  0  0  0  0  0  0  0  0  0
    6.6595   -2.7115    1.2233 C   0  0  0  0  0  0  0  0  0  0  0  0
    4.9849   -0.3624   -0.8034 C   0  0  0  0  0  0  0  0  0  0  0  0
    4.1494    0.7535   -0.7073 C   0  0  0  0  0  0  0  0  0  0  0  0
    2.2480    2.9645    1.8339 C   0  0  0  0  0  0  0  0  0  0  0  0
    3.1668    3.5541    0.8185 C   0  0  0  0  0  0  0  0  0  0  0  0
    0.0720    0.5303    0.7656 C   0  0  0  0  0  0  0  0  0  0  0  0
   -1.3612    0.0325    0.9116 C   0  0  0  0  0  0  0  0  0  0  0  0
   -1.8447   -0.6117   -0.3959 C   0  0  1  0  0  0  0  0  0  0  0  0
   -5.9117   -2.0019    1.4968 H   0  0  0  0  0  0  0  0  0  0  0  0
   -4.2008   -2.3232    1.8207 H   0  0  0  0  0  0  0  0  0  0  0  0
   -5.2697   -1.8222    3.1380 H   0  0  0  0  0  0  0  0  0  0  0  0
   -3.8208    0.0895    2.3500 H   0  0  0  0  0  0  0  0  0  0  0  0
   -5.5488    0.4161    2.1542 H   0  0  0  0  0  0  0  0  0  0  0  0
   -4.6223   -2.5265   -0.8729 H   0  0  0  0  0  0  0  0  0  0  0  0
   -2.9269   -2.8625   -1.1609 H   0  0  0  0  0  0  0  0  0  0  0  0
   -4.1266   -2.5584   -3.2905 H   0  0  0  0  0  0  0  0  0  0  0  0
   -4.6618   -0.9414   -2.8580 H   0  0  0  0  0  0  0  0  0  0  0  0
   -3.2290    0.7437   -2.6339 H   0  0  0  0  0  0  0  0  0  0  0  0
   -1.8356    0.6426   -3.6912 H   0  0  0  0  0  0  0  0  0  0  0  0
   -0.4774   -0.4362   -2.0088 H   0  0  0  0  0  0  0  0  0  0  0  0
   -0.5011    2.0354   -2.2324 H   0  0  0  0  0  0  0  0  0  0  0  0
   -1.6531    2.1622   -0.9148 H   0  0  0  0  0  0  0  0  0  0  0  0
    2.9211    0.2259    2.4062 H   0  0  0  0  0  0  0  0  0  0  0  0
    4.3662   -1.7315    2.2408 H   0  0  0  0  0  0  0  0  0  0  0  0
    7.1442   -1.8482    1.6997 H   0  0  0  0  0  0  0  0  0  0  0  0
    6.0242   -3.2485    1.9393 H   0  0  0  0  0  0  0  0  0  0  0  0
    7.4442   -3.3988    0.8918 H   0  0  0  0  0  0  0  0  0  0  0  0
    5.5502   -0.5363   -1.7152 H   0  0  0  0  0  0  0  0  0  0  0  0
    4.0899    1.4413   -1.5516 H   0  0  0  0  0  0  0  0  0  0  0  0
    2.6947    2.5809    2.7423 H   0  0  0  0  0  0  0  0  0  0  0  0
    1.2964    3.4612    1.9960 H   0  0  0  0  0  0  0  0  0  0  0  0
    2.8394    4.4422    0.2876 H   0  0  0  0  0  0  0  0  0  0  0  0
    4.2323    3.5405    1.0216 H   0  0  0  0  0  0  0  0  0  0  0  0
    0.7369   -0.3122    0.5497 H   0  0  0  0  0  0  0  0  0  0  0  0
    0.3988    0.9884    1.7024 H   0  0  0  0  0  0  0  0  0  0  0  0
   -1.9818    0.8831    1.2036 H   0  0  0  0  0  0  0  0  0  0  0  0
   -1.4251   -0.6942    1.7302 H   0  0  0  0  0  0  0  0  0  0  0  0
   -1.3367   -1.5890   -0.4130 H   0  0  0  0  0  0  0  0  0  0  0  0
  1  2  1  0
  2  3  1  0
  3  4  2  0
  3  5  2  0
  3  6  1  0
  6  7  1  0
  7  8  1  0
  8  9  1  0
  9 10  1  0
 10 11  1  0
 11 12  1  0
 12 13  1  0
 13 14  1  0
 14 15  2  0
 14 16  1  0
 16 17  1  0
 17 18  2  0
 18 19  1  0
 19 20  2  0
 20 21  1  0
 21 22  1  0
 20 23  1  0
 23 24  2  0
 16 25  1  0
 25 26  1  0
 13 27  1  0
 27 28  1  0
 28 29  1  0
 29  6  1  0
 29 11  1  0
 26 16  1  0
 24 17  1  0
  1 30  1  0
  1 31  1  0
  1 32  1  0
  2 33  1  0
  2 34  1  0
  7 35  1  0
  7 36  1  0
  8 37  1  0
  8 38  1  0
 10 39  1  0
 10 40  1  0
 11 41  1  6
 12 42  1  0
 12 43  1  0
 18 44  1  0
 19 45  1  0
 22 46  1  0
 22 47  1  0
 22 48  1  0
 23 49  1  0
 24 50  1  0
 25 51  1  0
 25 52  1  0
 26 53  1  0
 26 54  1  0
 27 55  1  0
 27 56  1  0
 28 57  1  0
 28 58  1  0
 29 59  1  6
M  END
$$$$
