
     RDKit          3D

 55 59  0  0  0  0  0  0  0  0999 V2000
   -8.5543    2.7351   -0.6873 C   0  0  0  0  0  0  0  0  0  0  0  0
   -8.6720    1.3162   -0.6419 O   0  0  0  0  0  0  0  0  0  0  0  0
   -7.5320    0.6983   -0.1710 C   0  0  0  0  0  0  0  0  0  0  0  0
   -7.5421   -0.6797   -0.1186 C   0  0  0  0  0  0  0  0  0  0  0  0
   -6.4075   -1.3309    0.3541 C   0  0  0  0  0  0  0  0  0  0  0  0
   -5.3092   -0.5748    0.7488 C   0  0  0  0  0  0  0  0  0  0  0  0
   -4.0293   -1.1969    1.2784 C   0  0  1  0  0  0  0  0  0  0  0  0
   -4.2305   -2.4498    1.9384 O   0  0  0  0  0  0  0  0  0  0  0  0
   -2.9180   -1.3073    0.2469 C   0  0  0  0  0  0  0  0  0  0  0  0
   -1.8929   -0.3313    0.2800 C   0  0  0  0  0  0  0  0  0  0  0  0
   -0.8150   -0.3364   -0.6254 C   0  0  0  0  0  0  0  0  0  0  0  0
    0.2232    0.7037   -0.5573 C   0  0  0  0  0  0  0  0  0  0  0  0
   -0.2687    1.9546   -0.7093 N   0  0  0  0  0  0  0  0  0  0  0  0
    0.6229    2.9470   -0.6743 C   0  0  0  0  0  0  0  0  0  0  0  0
    1.9404    2.8159   -0.4860 N   0  0  0  0  0  0  0  0  0  0  0  0
    2.4115    1.5746   -0.3120 C   0  0  0  0  0  0  0  0  0  0  0  0
    3.7789    1.4075   -0.0965 C   0  0  0  0  0  0  0  0  0  0  0  0
    4.3946    0.1608    0.1105 C   0  0  0  0  0  0  0  0  0  0  0  0
    5.7556    0.0381    0.3236 N   0  0  0  0  0  0  0  0  0  0  0  0
    6.6009    1.1876    0.6880 C   0  0  0  0  0  0  0  0  0  0  0  0
    7.8773    0.6985    1.3936 C   0  0  0  0  0  0  0  0  0  0  0  0
    8.6806   -0.1897    0.6039 O   0  0  0  0  0  0  0  0  0  0  0  0
    7.9229   -0.9330   -0.3602 C   0  0  0  0  0  0  0  0  0  0  0  0
    6.4742   -1.2228    0.0688 C   0  0  0  0  0  0  0  0  0  0  0  0
    3.5486   -0.9515    0.1031 C   0  0  0  0  0  0  0  0  0  0  0  0
    2.1732   -0.8230   -0.1099 C   0  0  0  0  0  0  0  0  0  0  0  0
    1.5890    0.4447   -0.3316 C   0  0  0  0  0  0  0  0  0  0  0  0
   -0.7995   -1.3348   -1.6008 C   0  0  0  0  0  0  0  0  0  0  0  0
    0.1899   -1.3815   -2.5058 F   0  0  0  0  0  0  0  0  0  0  0  0
   -1.7958   -2.3028   -1.6686 C   0  0  0  0  0  0  0  0  0  0  0  0
   -2.8507   -2.2924   -0.7517 C   0  0  0  0  0  0  0  0  0  0  0  0
   -4.0346   -3.5355   -0.9363 Cl  0  0  0  0  0  0  0  0  0  0  0  0
   -5.3458    0.7786    0.6876 N   0  0  0  0  0  0  0  0  0  0  0  0
   -6.4648    1.4202    0.2260 N   0  0  0  0  0  0  0  0  0  0  0  0
   -7.7510    3.0452   -1.3648 H   0  0  0  0  0  0  0  0  0  0  0  0
   -8.4076    3.1528    0.3148 H   0  0  0  0  0  0  0  0  0  0  0  0
   -9.4941    3.1349   -1.0803 H   0  0  0  0  0  0  0  0  0  0  0  0
   -8.4136   -1.2374   -0.4414 H   0  0  0  0  0  0  0  0  0  0  0  0
   -6.3913   -2.4149    0.4054 H   0  0  0  0  0  0  0  0  0  0  0  0
   -3.6789   -0.5339    2.0811 H   0  0  0  0  0  0  0  0  0  0  0  0
   -4.9636   -2.3221    2.5641 H   0  0  0  0  0  0  0  0  0  0  0  0
   -1.9342    0.4654    1.0256 H   0  0  0  0  0  0  0  0  0  0  0  0
    0.2440    3.9541   -0.8099 H   0  0  0  0  0  0  0  0  0  0  0  0
    4.3819    2.3121   -0.1136 H   0  0  0  0  0  0  0  0  0  0  0  0
    6.8654    1.7405   -0.2210 H   0  0  0  0  0  0  0  0  0  0  0  0
    6.0751    1.8618    1.3736 H   0  0  0  0  0  0  0  0  0  0  0  0
    8.5053    1.5517    1.6691 H   0  0  0  0  0  0  0  0  0  0  0  0
    7.6185    0.1716    2.3198 H   0  0  0  0  0  0  0  0  0  0  0  0
    8.4552   -1.8719   -0.5427 H   0  0  0  0  0  0  0  0  0  0  0  0
    7.9337   -0.3653   -1.2984 H   0  0  0  0  0  0  0  0  0  0  0  0
    6.4696   -1.8218    0.9867 H   0  0  0  0  0  0  0  0  0  0  0  0
    5.9985   -1.8003   -0.7319 H   0  0  0  0  0  0  0  0  0  0  0  0
    3.9399   -1.9483    0.2886 H   0  0  0  0  0  0  0  0  0  0  0  0
    1.5657   -1.7241   -0.0940 H   0  0  0  0  0  0  0  0  0  0  0  0
   -1.7395   -3.0579   -2.4474 H   0  0  0  0  0  0  0  0  0  0  0  0
  1  2  1  0
  2  3  1  0
  3  4  2  0
  4  5  1  0
  5  6  2  0
  6  7  1  0
  7  8  1  0
  7  9  1  0
  9 10  2  0
 10 11  1  0
 11 12  1  0
 12 13  2  0
 13 14  1  0
 14 15  2  0
 15 16  1  0
 16 17  2  0
 17 18  1  0
 18 19  1  0
 19 20  1  0
 20 21  1  0
 21 22  1  0
 22 23  1  0
 23 24  1  0
 18 25  2  0
 25 26  1  0
 26 27  2  0
 11 28  2  0
 28 29  1  0
 28 30  1  0
 30 31  2  0
 31 32  1  0
  6 33  1  0
 33 34  2  0
 34  3  1  0
 31  9  1  0
 27 12  1  0
 27 16  1  0
 24 19  1  0
  1 35  1  0
  1 36  1  0
  1 37  1  0
  4 38  1  0
  5 39  1  0
  7 40  1  1
  8 41  1  0
 10 42  1  0
 14 43  1  0
 17 44  1  0
 20 45  1  0
 20 46  1  0
 21 47  1  0
 21 48  1  0
 23 49  1  0
 23 50  1  0
 24 51  1  0
 24 52  1  0
 25 53  1  0
 26 54  1  0
 30 55  1  0
M  END
$$$$
