
     RDKit          3D

 46 49  0  0  0  0  0  0  0  0999 V2000
    6.5880   -0.8333    1.7764 C   0  0  0  0  0  0  0  0  0  0  0  0
    6.8936   -1.1766    0.3699 C   0  0  0  0  0  0  0  0  0  0  0  0
    8.1697   -1.5649    0.0222 N   0  0  0  0  0  0  0  0  0  0  0  0
    8.0744   -1.8445   -1.2561 C   0  0  0  0  0  0  0  0  0  0  0  0
    6.8407   -1.6644   -1.7920 O   0  0  0  0  0  0  0  0  0  0  0  0
    6.0704   -1.2140   -0.7449 C   0  0  0  0  0  0  0  0  0  0  0  0
    4.6803   -0.9158   -1.0019 C   0  0  0  0  0  0  0  0  0  0  0  0
    4.0609   -1.3460   -1.9714 O   0  0  0  0  0  0  0  0  0  0  0  0
    4.0728   -0.0651   -0.0894 N   0  0  0  0  0  0  0  0  0  0  0  0
    2.7264    0.4427   -0.3370 C   0  0  1  0  0  0  0  0  0  0  0  0
    1.6246   -0.6784   -0.3965 C   0  0  0  0  0  0  0  0  0  0  0  0
    0.4602   -0.0018    0.2025 C   0  0  0  0  0  0  0  0  0  0  0  0
   -0.8896   -0.0990    0.3858 C   0  0  0  0  0  0  0  0  0  0  0  0
   -1.2352    1.0768    1.1502 C   0  0  0  0  0  0  0  0  0  0  0  0
   -2.5738    1.4862    1.6234 C   0  0  0  0  0  0  0  0  0  0  0  0
   -2.7592    2.2787    2.5445 O   0  0  0  0  0  0  0  0  0  0  0  0
   -3.6240    0.9243    0.9224 N   0  0  0  0  0  0  0  0  0  0  0  0
   -4.9789    1.3438    1.1816 C   0  0  0  0  0  0  0  0  0  0  0  0
   -5.9333    0.6291    0.2626 C   0  0  0  0  0  0  0  0  0  0  0  0
   -6.3746   -0.6666    0.5659 C   0  0  0  0  0  0  0  0  0  0  0  0
   -7.2226   -1.3485   -0.3091 C   0  0  0  0  0  0  0  0  0  0  0  0
   -7.6371   -0.7429   -1.4945 C   0  0  0  0  0  0  0  0  0  0  0  0
   -7.1996    0.5434   -1.8094 C   0  0  0  0  0  0  0  0  0  0  0  0
   -6.3465    1.2246   -0.9386 C   0  0  0  0  0  0  0  0  0  0  0  0
   -0.1311    1.8228    1.4072 N   0  0  0  0  0  0  0  0  0  0  0  0
    0.8346    1.1385    0.8166 N   0  0  0  0  0  0  0  0  0  0  0  0
    2.2480    1.4395    0.7494 C   0  0  0  0  0  0  0  0  0  0  0  0
    6.4747    0.2495    1.8925 H   0  0  0  0  0  0  0  0  0  0  0  0
    5.6667   -1.3241    2.1063 H   0  0  0  0  0  0  0  0  0  0  0  0
    7.3952   -1.1605    2.4401 H   0  0  0  0  0  0  0  0  0  0  0  0
    8.8491   -2.1933   -1.9253 H   0  0  0  0  0  0  0  0  0  0  0  0
    4.6921    0.5010    0.4747 H   0  0  0  0  0  0  0  0  0  0  0  0
    2.7467    0.9603   -1.3064 H   0  0  0  0  0  0  0  0  0  0  0  0
    1.9121   -1.5514    0.2015 H   0  0  0  0  0  0  0  0  0  0  0  0
    1.4356   -0.9953   -1.4272 H   0  0  0  0  0  0  0  0  0  0  0  0
   -1.5443   -0.8912    0.0503 H   0  0  0  0  0  0  0  0  0  0  0  0
   -3.4321    0.4642    0.0433 H   0  0  0  0  0  0  0  0  0  0  0  0
   -5.0450    2.4296    1.0484 H   0  0  0  0  0  0  0  0  0  0  0  0
   -5.2210    1.1353    2.2317 H   0  0  0  0  0  0  0  0  0  0  0  0
   -6.0577   -1.1528    1.4876 H   0  0  0  0  0  0  0  0  0  0  0  0
   -7.5545   -2.3543   -0.0666 H   0  0  0  0  0  0  0  0  0  0  0  0
   -8.2977   -1.2741   -2.1748 H   0  0  0  0  0  0  0  0  0  0  0  0
   -7.5201    1.0143   -2.7357 H   0  0  0  0  0  0  0  0  0  0  0  0
   -6.0057    2.2245   -1.2025 H   0  0  0  0  0  0  0  0  0  0  0  0
    2.6809    1.2470    1.7352 H   0  0  0  0  0  0  0  0  0  0  0  0
    2.3857    2.4825    0.4522 H   0  0  0  0  0  0  0  0  0  0  0  0
  1  2  1  0
  2  3  1  0
  3  4  2  0
  4  5  1  0
  5  6  1  0
  6  7  1  0
  7  8  2  0
  7  9  1  0
  9 10  1  0
 10 11  1  0
 11 12  1  0
 12 13  2  0
 13 14  1  0
 14 15  1  0
 15 16  2  0
 15 17  1  0
 17 18  1  0
 18 19  1  0
 19 20  2  0
 20 21  1  0
 21 22  2  0
 22 23  1  0
 23 24  2  0
 14 25  2  0
 25 26  1  0
 26 27  1  0
  6  2  2  0
 27 10  1  0
 26 12  1  0
 24 19  1  0
  1 28  1  0
  1 29  1  0
  1 30  1  0
  4 31  1  0
  9 32  1  0
 10 33  1  6
 11 34  1  0
 11 35  1  0
 13 36  1  0
 17 37  1  0
 18 38  1  0
 18 39  1  0
 20 40  1  0
 21 41  1  0
 22 42  1  0
 23 43  1  0
 24 44  1  0
 27 45  1  0
 27 46  1  0
M  END
$$$$
