
     RDKit          3D

 40 42  0  0  0  0  0  0  0  0999 V2000
    5.9094   -0.8988   -0.4297 C   0  0  0  0  0  0  0  0  0  0  0  0
    4.4525   -1.3143   -0.5271 C   0  0  0  0  0  0  0  0  0  0  0  0
    3.6224   -0.7869    0.6274 C   0  0  0  0  0  0  0  0  0  0  0  0
    4.0784   -0.1125    1.5429 O   0  0  0  0  0  0  0  0  0  0  0  0
    2.2910   -1.1414    0.5297 N   0  0  0  0  0  0  0  0  0  0  0  0
    1.3579   -0.8417    1.5974 C   0  0  0  0  0  0  0  0  0  0  0  0
   -0.0766   -0.7184    1.0869 C   0  0  0  0  0  0  0  0  0  0  0  0
   -0.2818    0.4249    0.0867 C   0  0  2  0  0  0  0  0  0  0  0  0
    0.1585    1.8002    0.6387 C   0  0  0  0  0  0  0  0  0  0  0  0
   -0.6266    2.8554   -0.1460 C   0  0  0  0  0  0  0  0  0  0  0  0
   -1.8943    2.1113   -0.4332 C   0  0  0  0  0  0  0  0  0  0  0  0
   -3.1042    2.6631   -0.8544 C   0  0  0  0  0  0  0  0  0  0  0  0
   -4.1700    1.8090   -1.1363 C   0  0  0  0  0  0  0  0  0  0  0  0
   -3.9785    0.4439   -0.9843 C   0  0  0  0  0  0  0  0  0  0  0  0
   -2.7717   -0.1101   -0.5667 C   0  0  0  0  0  0  0  0  0  0  0  0
   -1.7109    0.7232   -0.2880 C   0  0  0  0  0  0  0  0  0  0  0  0
   -2.8885   -1.5830   -0.6019 C   0  0  0  0  0  0  0  0  0  0  0  0
   -4.4061   -1.7147   -0.7363 C   0  0  0  0  0  0  0  0  0  0  0  0
   -4.9467   -0.4869   -1.2692 O   0  0  0  0  0  0  0  0  0  0  0  0
    6.3648   -1.2748    0.4925 H   0  0  0  0  0  0  0  0  0  0  0  0
    6.0081    0.1917   -0.4317 H   0  0  0  0  0  0  0  0  0  0  0  0
    6.4765   -1.2953   -1.2775 H   0  0  0  0  0  0  0  0  0  0  0  0
    4.0259   -0.9366   -1.4630 H   0  0  0  0  0  0  0  0  0  0  0  0
    4.3844   -2.4079   -0.5329 H   0  0  0  0  0  0  0  0  0  0  0  0
    2.0532   -1.8868   -0.1125 H   0  0  0  0  0  0  0  0  0  0  0  0
    1.4221   -1.6699    2.3122 H   0  0  0  0  0  0  0  0  0  0  0  0
    1.6699    0.0640    2.1274 H   0  0  0  0  0  0  0  0  0  0  0  0
   -0.7455   -0.5878    1.9470 H   0  0  0  0  0  0  0  0  0  0  0  0
   -0.3558   -1.6665    0.6135 H   0  0  0  0  0  0  0  0  0  0  0  0
    0.2686    0.2144   -0.8398 H   0  0  0  0  0  0  0  0  0  0  0  0
   -0.1022    1.8807    1.7037 H   0  0  0  0  0  0  0  0  0  0  0  0
    1.2390    1.9573    0.5555 H   0  0  0  0  0  0  0  0  0  0  0  0
   -0.7947    3.7554    0.4519 H   0  0  0  0  0  0  0  0  0  0  0  0
   -0.1208    3.1136   -1.0820 H   0  0  0  0  0  0  0  0  0  0  0  0
   -3.2146    3.7365   -0.9739 H   0  0  0  0  0  0  0  0  0  0  0  0
   -5.1240    2.1970   -1.4756 H   0  0  0  0  0  0  0  0  0  0  0  0
   -2.3769   -1.9855   -1.4819 H   0  0  0  0  0  0  0  0  0  0  0  0
   -2.5376   -2.0859    0.3013 H   0  0  0  0  0  0  0  0  0  0  0  0
   -4.8742   -1.8891    0.2411 H   0  0  0  0  0  0  0  0  0  0  0  0
   -4.6804   -2.5470   -1.3928 H   0  0  0  0  0  0  0  0  0  0  0  0
  1  2  1  0
  2  3  1  0
  3  4  2  0
  3  5  1  0
  5  6  1  0
  6  7  1  0
  7  8  1  0
  8  9  1  0
  9 10  1  0
 10 11  1  0
 11 12  2  0
 12 13  1  0
 13 14  2  0
 14 15  1  0
 15 16  2  0
 15 17  1  0
 17 18  1  0
 18 19  1  0
 16  8  1  0
 16 11  1  0
 19 14  1  0
  1 20  1  0
  1 21  1  0
  1 22  1  0
  2 23  1  0
  2 24  1  0
  5 25  1  0
  6 26  1  0
  6 27  1  0
  7 28  1  0
  7 29  1  0
  8 30  1  6
  9 31  1  0
  9 32  1  0
 10 33  1  0
 10 34  1  0
 12 35  1  0
 13 36  1  0
 17 37  1  0
 17 38  1  0
 18 39  1  0
 18 40  1  0
M  END
$$$$
