
     RDKit          3D

 30 31  0  0  0  0  0  0  0  0999 V2000
    0.9982    2.5972    0.7601 O   0  0  0  0  0  0  0  0  0  0  0  0
    0.0961    2.1623    0.0442 C   0  0  0  0  0  0  0  0  0  0  0  0
   -0.9767    2.9703   -0.3045 N   0  0  0  0  0  0  0  0  0  0  0  0
   -0.9904    4.2311    0.3466 O   0  0  0  0  0  0  0  0  0  0  0  0
    0.0212    0.7466   -0.5553 C   0  0  0  0  0  0  0  0  0  0  0  0
   -1.1647   -0.0526   -0.0153 C   0  0  0  0  0  0  0  0  0  0  0  0
   -1.5044   -0.0412    1.3477 C   0  0  0  0  0  0  0  0  0  0  0  0
   -2.5940   -0.7785    1.8146 C   0  0  0  0  0  0  0  0  0  0  0  0
   -3.3517   -1.5427    0.9304 C   0  0  0  0  0  0  0  0  0  0  0  0
   -3.0181   -1.5765   -0.4214 C   0  0  0  0  0  0  0  0  0  0  0  0
   -1.9297   -0.8400   -0.8919 C   0  0  0  0  0  0  0  0  0  0  0  0
    1.3265   -0.0412   -0.4929 C   0  0  0  0  0  0  0  0  0  0  0  0
    1.9896   -0.2859    0.7201 C   0  0  0  0  0  0  0  0  0  0  0  0
    3.1706   -1.0307    0.7522 C   0  0  0  0  0  0  0  0  0  0  0  0
    3.7034   -1.5479   -0.4256 C   0  0  0  0  0  0  0  0  0  0  0  0
    3.0561   -1.3215   -1.6373 C   0  0  0  0  0  0  0  0  0  0  0  0
    1.8756   -0.5761   -1.6717 C   0  0  0  0  0  0  0  0  0  0  0  0
   -1.8909    2.5550   -0.4654 H   0  0  0  0  0  0  0  0  0  0  0  0
   -0.1425    4.2211    0.8449 H   0  0  0  0  0  0  0  0  0  0  0  0
   -0.1819    0.9373   -1.6213 H   0  0  0  0  0  0  0  0  0  0  0  0
   -0.9229    0.5368    2.0640 H   0  0  0  0  0  0  0  0  0  0  0  0
   -2.8474   -0.7619    2.8718 H   0  0  0  0  0  0  0  0  0  0  0  0
   -4.1964   -2.1203    1.2971 H   0  0  0  0  0  0  0  0  0  0  0  0
   -3.6016   -2.1838   -1.1088 H   0  0  0  0  0  0  0  0  0  0  0  0
   -1.6790   -0.8929   -1.9496 H   0  0  0  0  0  0  0  0  0  0  0  0
    1.5994    0.1112    1.6546 H   0  0  0  0  0  0  0  0  0  0  0  0
    3.6750   -1.2038    1.6993 H   0  0  0  0  0  0  0  0  0  0  0  0
    4.6229   -2.1263   -0.3984 H   0  0  0  0  0  0  0  0  0  0  0  0
    3.4702   -1.7263   -2.5570 H   0  0  0  0  0  0  0  0  0  0  0  0
    1.3877   -0.4189   -2.6311 H   0  0  0  0  0  0  0  0  0  0  0  0
  1  2  2  0
  2  3  1  0
  3  4  1  0
  2  5  1  0
  5  6  1  0
  6  7  2  0
  7  8  1  0
  8  9  2  0
  9 10  1  0
 10 11  2  0
  5 12  1  0
 12 13  2  0
 13 14  1  0
 14 15  2  0
 15 16  1  0
 16 17  2  0
 11  6  1  0
 17 12  1  0
  3 18  1  0
  4 19  1  0
  5 20  1  0
  7 21  1  0
  8 22  1  0
  9 23  1  0
 10 24  1  0
 11 25  1  0
 13 26  1  0
 14 27  1  0
 15 28  1  0
 16 29  1  0
 17 30  1  0
M  END
$$$$
