
     RDKit          3D

 43 43  0  0  0  0  0  0  0  0999 V2000
    7.2207   -0.3550    1.1793 C   0  0  0  0  0  0  0  0  0  0  0  0
    5.9220    0.2969    1.6279 C   0  0  0  0  0  0  0  0  0  0  0  0
    5.0551    0.7936    0.4693 C   0  0  0  0  0  0  0  0  0  0  0  0
    4.5431   -0.3341   -0.4287 C   0  0  0  0  0  0  0  0  0  0  0  0
    3.6331    0.1966   -1.4385 N   0  0  0  0  0  0  0  0  0  0  0  0
    2.2515    0.2056   -1.2515 C   0  0  0  0  0  0  0  0  0  0  0  0
    1.4318    0.4547   -2.3622 C   0  0  0  0  0  0  0  0  0  0  0  0
    0.0401    0.5425   -2.2412 C   0  0  0  0  0  0  0  0  0  0  0  0
   -0.5667    0.4086   -0.9900 C   0  0  0  0  0  0  0  0  0  0  0  0
   -2.0489    0.5094   -0.9092 C   0  0  0  0  0  0  0  0  0  0  0  0
   -2.7664    0.6950   -1.8792 O   0  0  0  0  0  0  0  0  0  0  0  0
   -2.4695    0.3609    0.3719 O   0  0  0  0  0  0  0  0  0  0  0  0
   -3.8939    0.4415    0.5685 C   0  0  0  0  0  0  0  0  0  0  0  0
   -4.5479   -0.9269    0.3085 C   0  0  0  0  0  0  0  0  0  0  0  0
   -6.0038   -1.0347    0.4953 N   0  0  0  0  0  0  0  0  0  0  0  0
   -6.7450   -0.2279   -0.4714 C   0  0  0  0  0  0  0  0  0  0  0  0
   -6.4243   -0.7373    1.8607 C   0  0  0  0  0  0  0  0  0  0  0  0
    0.2383    0.1985    0.1333 C   0  0  0  0  0  0  0  0  0  0  0  0
    1.6315    0.1124   -0.0007 C   0  0  0  0  0  0  0  0  0  0  0  0
    7.0350   -1.2838    0.6319 H   0  0  0  0  0  0  0  0  0  0  0  0
    7.7966    0.3178    0.5362 H   0  0  0  0  0  0  0  0  0  0  0  0
    7.8371   -0.6017    2.0498 H   0  0  0  0  0  0  0  0  0  0  0  0
    5.3524   -0.4099    2.2425 H   0  0  0  0  0  0  0  0  0  0  0  0
    6.1650    1.1512    2.2709 H   0  0  0  0  0  0  0  0  0  0  0  0
    4.2096    1.3506    0.8902 H   0  0  0  0  0  0  0  0  0  0  0  0
    5.6220    1.5142   -0.1338 H   0  0  0  0  0  0  0  0  0  0  0  0
    5.3925   -0.7838   -0.9559 H   0  0  0  0  0  0  0  0  0  0  0  0
    4.0837   -1.1422    0.1522 H   0  0  0  0  0  0  0  0  0  0  0  0
    3.8941   -0.0675   -2.3855 H   0  0  0  0  0  0  0  0  0  0  0  0
    1.8756    0.5868   -3.3465 H   0  0  0  0  0  0  0  0  0  0  0  0
   -0.5620    0.7248   -3.1292 H   0  0  0  0  0  0  0  0  0  0  0  0
   -4.3210    1.2331   -0.0574 H   0  0  0  0  0  0  0  0  0  0  0  0
   -4.0401    0.7427    1.6107 H   0  0  0  0  0  0  0  0  0  0  0  0
   -4.0569   -1.6695    0.9522 H   0  0  0  0  0  0  0  0  0  0  0  0
   -4.2989   -1.2603   -0.7073 H   0  0  0  0  0  0  0  0  0  0  0  0
   -6.6022    0.8474   -0.3202 H   0  0  0  0  0  0  0  0  0  0  0  0
   -6.4459   -0.4770   -1.4956 H   0  0  0  0  0  0  0  0  0  0  0  0
   -7.8178   -0.4395   -0.3993 H   0  0  0  0  0  0  0  0  0  0  0  0
   -7.4862   -0.9742    1.9911 H   0  0  0  0  0  0  0  0  0  0  0  0
   -5.8755   -1.3565    2.5789 H   0  0  0  0  0  0  0  0  0  0  0  0
   -6.2787    0.3150    2.1272 H   0  0  0  0  0  0  0  0  0  0  0  0
   -0.1966    0.1085    1.1254 H   0  0  0  0  0  0  0  0  0  0  0  0
    2.2172   -0.0266    0.9030 H   0  0  0  0  0  0  0  0  0  0  0  0
  1  2  1  0
  2  3  1  0
  3  4  1  0
  4  5  1  0
  5  6  1  0
  6  7  2  0
  7  8  1  0
  8  9  2  0
  9 10  1  0
 10 11  2  0
 10 12  1  0
 12 13  1  0
 13 14  1  0
 14 15  1  0
 15 16  1  0
 15 17  1  0
  9 18  1  0
 18 19  2  0
 19  6  1  0
  1 20  1  0
  1 21  1  0
  1 22  1  0
  2 23  1  0
  2 24  1  0
  3 25  1  0
  3 26  1  0
  4 27  1  0
  4 28  1  0
  5 29  1  0
  7 30  1  0
  8 31  1  0
 13 32  1  0
 13 33  1  0
 14 34  1  0
 14 35  1  0
 16 36  1  0
 16 37  1  0
 16 38  1  0
 17 39  1  0
 17 40  1  0
 17 41  1  0
 18 42  1  0
 19 43  1  0
M  END
$$$$
