
     RDKit          3D

 50 52  0  0  0  0  0  0  0  0999 V2000
   -0.9365    3.3952   -3.5364 C   0  0  0  0  0  0  0  0  0  0  0  0
   -1.6241    2.1830   -3.2677 O   0  0  0  0  0  0  0  0  0  0  0  0
   -1.4266    1.7398   -1.9285 C   0  0  0  0  0  0  0  0  0  0  0  0
   -2.2284    0.4664   -1.5974 C   0  0  0  0  0  0  0  0  0  0  0  0
   -3.1547    0.1138   -2.3348 O   0  0  0  0  0  0  0  0  0  0  0  0
   -1.9375   -0.2445   -0.4157 N   0  0  0  0  0  0  0  0  0  0  0  0
   -2.8713   -1.3541   -0.0841 C   0  0  0  0  0  0  0  0  0  0  0  0
   -3.2969   -1.3716    1.3968 C   0  0  0  0  0  0  0  0  0  0  0  0
   -3.4984   -2.7940    1.9042 C   0  0  0  0  0  0  0  0  0  0  0  0
   -4.1497   -3.5756    0.9125 O   0  0  0  0  0  0  0  0  0  0  0  0
   -3.3471   -3.8164   -0.2445 C   0  0  0  0  0  0  0  0  0  0  0  0
   -2.3328   -2.7136   -0.5361 C   0  0  0  0  0  0  0  0  0  0  0  0
   -0.6430   -0.2260    0.2944 C   0  0  0  0  0  0  0  0  0  0  0  0
   -0.2702    1.0752    1.0111 C   0  0  0  0  0  0  0  0  0  0  0  0
    1.2239    0.9083    1.2594 C   0  0  0  0  0  0  0  0  0  0  0  0
    1.6985    0.0941    0.1484 N   0  0  0  0  0  0  0  0  0  0  0  0
    2.9840    0.0061   -0.3503 C   0  0  0  0  0  0  0  0  0  0  0  0
    3.2578   -0.5825   -1.3919 O   0  0  0  0  0  0  0  0  0  0  0  0
    4.0784    0.6704    0.3856 C   0  0  0  0  0  0  0  0  0  0  0  0
    4.3364    0.3649    1.7199 C   0  0  0  0  0  0  0  0  0  0  0  0
    5.3897    1.0178    2.3313 C   0  0  0  0  0  0  0  0  0  0  0  0
    6.1755    1.9211    1.7057 N   0  0  0  0  0  0  0  0  0  0  0  0
    5.9189    2.1668    0.4016 C   0  0  0  0  0  0  0  0  0  0  0  0
    4.8920    1.5680   -0.3015 C   0  0  0  0  0  0  0  0  0  0  0  0
    0.6029   -0.5846   -0.5296 C   0  0  0  0  0  0  0  0  0  0  0  0
   -1.3001    4.1953   -2.8845 H   0  0  0  0  0  0  0  0  0  0  0  0
    0.1416    3.2624   -3.4035 H   0  0  0  0  0  0  0  0  0  0  0  0
   -1.1277    3.6776   -4.5751 H   0  0  0  0  0  0  0  0  0  0  0  0
   -1.7814    2.5219   -1.2480 H   0  0  0  0  0  0  0  0  0  0  0  0
   -0.3596    1.5798   -1.7872 H   0  0  0  0  0  0  0  0  0  0  0  0
   -3.8024   -1.1932   -0.6432 H   0  0  0  0  0  0  0  0  0  0  0  0
   -2.6052   -0.8441    2.0605 H   0  0  0  0  0  0  0  0  0  0  0  0
   -4.2466   -0.8256    1.4751 H   0  0  0  0  0  0  0  0  0  0  0  0
   -4.1262   -2.7839    2.8010 H   0  0  0  0  0  0  0  0  0  0  0  0
   -2.5462   -3.2633    2.1790 H   0  0  0  0  0  0  0  0  0  0  0  0
   -4.0355   -3.9238   -1.0896 H   0  0  0  0  0  0  0  0  0  0  0  0
   -2.8367   -4.7779   -0.1220 H   0  0  0  0  0  0  0  0  0  0  0  0
   -2.0742   -2.7119   -1.6013 H   0  0  0  0  0  0  0  0  0  0  0  0
   -1.4032   -2.9423   -0.0004 H   0  0  0  0  0  0  0  0  0  0  0  0
   -0.6956   -0.9861    1.0854 H   0  0  0  0  0  0  0  0  0  0  0  0
   -0.8298    1.2140    1.9416 H   0  0  0  0  0  0  0  0  0  0  0  0
   -0.4368    1.9649    0.4037 H   0  0  0  0  0  0  0  0  0  0  0  0
    1.3995    0.3492    2.1845 H   0  0  0  0  0  0  0  0  0  0  0  0
    1.7487    1.8663    1.3087 H   0  0  0  0  0  0  0  0  0  0  0  0
    3.7538   -0.3709    2.2604 H   0  0  0  0  0  0  0  0  0  0  0  0
    5.6455    0.8243    3.3694 H   0  0  0  0  0  0  0  0  0  0  0  0
    6.5866    2.8783   -0.0763 H   0  0  0  0  0  0  0  0  0  0  0  0
    4.7312    1.7867   -1.3514 H   0  0  0  0  0  0  0  0  0  0  0  0
    0.7910   -1.6641   -0.5294 H   0  0  0  0  0  0  0  0  0  0  0  0
    0.5686   -0.2618   -1.5727 H   0  0  0  0  0  0  0  0  0  0  0  0
  1  2  1  0
  2  3  1  0
  3  4  1  0
  4  5  2  0
  4  6  1  0
  6  7  1  0
  7  8  1  0
  8  9  1  0
  9 10  1  0
 10 11  1  0
 11 12  1  0
  6 13  1  0
 13 14  1  0
 14 15  1  0
 15 16  1  0
 16 17  1  0
 17 18  2  0
 17 19  1  0
 19 20  2  0
 20 21  1  0
 21 22  2  0
 22 23  1  0
 23 24  2  0
 16 25  1  0
 12  7  1  0
 25 13  1  0
 24 19  1  0
  1 26  1  0
  1 27  1  0
  1 28  1  0
  3 29  1  0
  3 30  1  0
  7 31  1  0
  8 32  1  0
  8 33  1  0
  9 34  1  0
  9 35  1  0
 11 36  1  0
 11 37  1  0
 12 38  1  0
 12 39  1  0
 13 40  1  0
 14 41  1  0
 14 42  1  0
 15 43  1  0
 15 44  1  0
 20 45  1  0
 21 46  1  0
 23 47  1  0
 24 48  1  0
 25 49  1  0
 25 50  1  0
M  END
$$$$
