
     RDKit          3D

 51 54  0  0  0  0  0  0  0  0999 V2000
    1.0370   -1.9894    1.6904 O   0  0  0  0  0  0  0  0  0  0  0  0
    0.6121   -0.8596    1.9191 C   0  0  0  0  0  0  0  0  0  0  0  0
    1.5740    0.2254    2.2479 C   0  0  0  0  0  0  0  0  0  0  0  0
    1.2739    1.1027    3.3065 C   0  0  0  0  0  0  0  0  0  0  0  0
    2.1604    2.1230    3.6381 C   0  0  0  0  0  0  0  0  0  0  0  0
    3.3435    2.2503    2.9233 C   0  0  0  0  0  0  0  0  0  0  0  0
    4.1992    3.2281    3.2524 F   0  0  0  0  0  0  0  0  0  0  0  0
    3.6549    1.3729    1.8846 C   0  0  0  0  0  0  0  0  0  0  0  0
    4.8420    1.5209    1.2760 F   0  0  0  0  0  0  0  0  0  0  0  0
    2.7859    0.3317    1.5210 C   0  0  0  0  0  0  0  0  0  0  0  0
    3.0377   -0.5517    0.4475 N   0  0  0  0  0  0  0  0  0  0  0  0
    3.7762   -0.4503   -0.7446 C   0  0  0  0  0  0  0  0  0  0  0  0
    4.1279    0.7671   -1.3346 C   0  0  0  0  0  0  0  0  0  0  0  0
    4.8842    0.8051   -2.5136 C   0  0  0  0  0  0  0  0  0  0  0  0
    5.2981   -0.3822   -3.1165 C   0  0  0  0  0  0  0  0  0  0  0  0
    6.4184   -0.3201   -4.8642 I   0  0  0  0  0  0  0  0  0  0  0  0
    4.9600   -1.6071   -2.5534 C   0  0  0  0  0  0  0  0  0  0  0  0
    4.2081   -1.6269   -1.3813 C   0  0  0  0  0  0  0  0  0  0  0  0
    3.8850   -2.8170   -0.8496 F   0  0  0  0  0  0  0  0  0  0  0  0
   -0.7302   -0.5364    1.8834 N   0  0  0  0  0  0  0  0  0  0  0  0
   -1.3225    0.7054    1.3655 C   0  0  0  0  0  0  0  0  0  0  0  0
   -2.6368   -0.1108    1.1836 C   0  0  0  0  0  0  0  0  0  0  0  0
   -3.5552    0.0047    2.3162 O   0  0  0  0  0  0  0  0  0  0  0  0
   -3.4282    0.1741   -0.1174 C   0  0  0  0  0  0  0  0  0  0  0  0
   -4.5239   -0.8889   -0.3193 C   0  0  0  0  0  0  0  0  0  0  0  0
   -5.3505   -0.6030   -1.5717 C   0  0  0  0  0  0  0  0  0  0  0  0
   -4.4508   -0.4021   -2.7864 C   0  0  0  0  0  0  0  0  0  0  0  0
   -3.3552    0.6219   -2.4994 C   0  0  0  0  0  0  0  0  0  0  0  0
   -2.5677    0.2473   -1.3192 N   0  0  0  0  0  0  0  0  0  0  0  0
   -1.7376   -1.3776    1.2212 C   0  0  0  0  0  0  0  0  0  0  0  0
    0.3585    0.9843    3.8819 H   0  0  0  0  0  0  0  0  0  0  0  0
    1.9459    2.8095    4.4516 H   0  0  0  0  0  0  0  0  0  0  0  0
    2.6351   -1.4863    0.5938 H   0  0  0  0  0  0  0  0  0  0  0  0
    3.8053    1.7082   -0.8989 H   0  0  0  0  0  0  0  0  0  0  0  0
    5.1390    1.7705   -2.9447 H   0  0  0  0  0  0  0  0  0  0  0  0
    5.2656   -2.5481   -2.9983 H   0  0  0  0  0  0  0  0  0  0  0  0
   -0.8224    1.0723    0.4647 H   0  0  0  0  0  0  0  0  0  0  0  0
   -1.3843    1.5049    2.1083 H   0  0  0  0  0  0  0  0  0  0  0  0
   -3.0140   -0.2305    3.0915 H   0  0  0  0  0  0  0  0  0  0  0  0
   -3.9066    1.1555    0.0086 H   0  0  0  0  0  0  0  0  0  0  0  0
   -5.1935   -0.9218    0.5480 H   0  0  0  0  0  0  0  0  0  0  0  0
   -4.0730   -1.8864   -0.4014 H   0  0  0  0  0  0  0  0  0  0  0  0
   -5.9513    0.3007   -1.4109 H   0  0  0  0  0  0  0  0  0  0  0  0
   -6.0508   -1.4253   -1.7550 H   0  0  0  0  0  0  0  0  0  0  0  0
   -5.0513   -0.0741   -3.6422 H   0  0  0  0  0  0  0  0  0  0  0  0
   -3.9949   -1.3609   -3.0643 H   0  0  0  0  0  0  0  0  0  0  0  0
   -2.6843    0.6881   -3.3629 H   0  0  0  0  0  0  0  0  0  0  0  0
   -3.7873    1.6203   -2.3609 H   0  0  0  0  0  0  0  0  0  0  0  0
   -2.1565   -0.6697   -1.5013 H   0  0  0  0  0  0  0  0  0  0  0  0
   -1.3997   -1.7800    0.2621 H   0  0  0  0  0  0  0  0  0  0  0  0
   -2.0994   -2.1889    1.8589 H   0  0  0  0  0  0  0  0  0  0  0  0
  1  2  2  0
  2  3  1  0
  3  4  2  0
  4  5  1  0
  5  6  2  0
  6  7  1  0
  6  8  1  0
  8  9  1  0
  8 10  2  0
 10 11  1  0
 11 12  1  0
 12 13  2  0
 13 14  1  0
 14 15  2  0
 15 16  1  0
 15 17  1  0
 17 18  2  0
 18 19  1  0
  2 20  1  0
 20 21  1  0
 21 22  1  0
 22 23  1  0
 22 24  1  0
 24 25  1  0
 25 26  1  0
 26 27  1  0
 27 28  1  0
 28 29  1  0
 22 30  1  0
 10  3  1  0
 18 12  1  0
 30 20  1  0
 29 24  1  0
  4 31  1  0
  5 32  1  0
 11 33  1  0
 13 34  1  0
 14 35  1  0
 17 36  1  0
 21 37  1  0
 21 38  1  0
 23 39  1  0
 24 40  1  0
 25 41  1  0
 25 42  1  0
 26 43  1  0
 26 44  1  0
 27 45  1  0
 27 46  1  0
 28 47  1  0
 28 48  1  0
 29 49  1  0
 30 50  1  0
 30 51  1  0
M  END
$$$$
