
     RDKit          3D

 37 39  0  0  0  0  0  0  0  0999 V2000
    4.4968    3.1027    0.6816 N   0  0  0  0  0  0  0  0  0  0  0  0
    4.0372    1.7941    0.7699 C   0  0  0  0  0  0  0  0  0  0  0  0
    4.8669    0.8581    1.2844 N   0  0  0  0  0  0  0  0  0  0  0  0
    4.4200   -0.4143    1.3722 C   0  0  0  0  0  0  0  0  0  0  0  0
    3.2270   -0.9121    0.9895 N   0  0  0  0  0  0  0  0  0  0  0  0
    2.4472    0.0546    0.4802 C   0  0  0  0  0  0  0  0  0  0  0  0
    2.7641    1.3944    0.3302 C   0  0  0  0  0  0  0  0  0  0  0  0
    1.7229    2.0810   -0.2599 N   0  0  0  0  0  0  0  0  0  0  0  0
    0.7909    1.1708   -0.4588 C   0  0  0  0  0  0  0  0  0  0  0  0
    1.1713   -0.0627   -0.0011 N   0  0  0  0  0  0  0  0  0  0  0  0
    0.3974   -1.2875   -0.0085 C   0  0  2  0  0  0  0  0  0  0  0  0
   -0.5906   -1.2303   -1.0697 O   0  0  0  0  0  0  0  0  0  0  0  0
   -1.8807   -1.6208   -0.5343 C   0  0  2  0  0  0  0  0  0  0  0  0
   -2.7671   -0.3849   -0.3529 C   0  0  0  0  0  0  0  0  0  0  0  0
   -3.0920    0.1429   -1.6312 O   0  0  0  0  0  0  0  0  0  0  0  0
   -3.7490    1.6010   -1.6587 P   0  0  0  0  0  5  0  0  0  0  0  0
   -5.0057    1.7788   -0.8842 O   0  0  0  0  0  0  0  0  0  0  0  0
   -3.8854    1.9078   -3.2164 O   0  0  0  0  0  0  0  0  0  0  0  0
   -2.5574    2.5700   -1.2331 O   0  0  0  0  0  0  0  0  0  0  0  0
   -1.5727   -2.3186    0.7839 C   0  0  1  0  0  0  0  0  0  0  0  0
   -1.1695   -3.6863    0.5769 O   0  0  0  0  0  0  0  0  0  0  0  0
   -0.3671   -1.5441    1.2944 C   0  0  1  0  0  0  0  0  0  0  0  0
    0.3515   -2.3027    2.2603 O   0  0  0  0  0  0  0  0  0  0  0  0
    5.5069    3.1487    0.6786 H   0  0  0  0  0  0  0  0  0  0  0  0
    3.9959    3.6546   -0.0060 H   0  0  0  0  0  0  0  0  0  0  0  0
    5.1147   -1.1283    1.8057 H   0  0  0  0  0  0  0  0  0  0  0  0
   -0.1674    1.3533   -0.9295 H   0  0  0  0  0  0  0  0  0  0  0  0
    1.0847   -2.1081   -0.2469 H   0  0  0  0  0  0  0  0  0  0  0  0
   -2.3328   -2.2991   -1.2663 H   0  0  0  0  0  0  0  0  0  0  0  0
   -2.2534    0.3853    0.2306 H   0  0  0  0  0  0  0  0  0  0  0  0
   -3.6992   -0.6537    0.1545 H   0  0  0  0  0  0  0  0  0  0  0  0
   -4.6521    1.4500   -3.6050 H   0  0  0  0  0  0  0  0  0  0  0  0
   -2.8335    3.5041   -1.2495 H   0  0  0  0  0  0  0  0  0  0  0  0
   -2.4057   -2.3342    1.4918 H   0  0  0  0  0  0  0  0  0  0  0  0
   -0.9487   -3.8157   -0.3652 H   0  0  0  0  0  0  0  0  0  0  0  0
   -0.6805   -0.6031    1.7609 H   0  0  0  0  0  0  0  0  0  0  0  0
    0.2149   -3.2456    2.0315 H   0  0  0  0  0  0  0  0  0  0  0  0
  1  2  1  0
  2  3  2  0
  3  4  1  0
  4  5  2  0
  5  6  1  0
  6  7  2  0
  7  8  1  0
  8  9  2  0
  9 10  1  0
 10 11  1  0
 11 12  1  0
 12 13  1  0
 13 14  1  0
 14 15  1  0
 15 16  1  0
 16 17  2  0
 16 18  1  0
 16 19  1  0
 13 20  1  0
 20 21  1  0
 20 22  1  0
 22 23  1  0
  7  2  1  0
 22 11  1  0
 10  6  1  0
  1 24  1  0
  1 25  1  0
  4 26  1  0
  9 27  1  0
 11 28  1  6
 13 29  1  6
 14 30  1  0
 14 31  1  0
 18 32  1  0
 19 33  1  0
 20 34  1  1
 21 35  1  0
 22 36  1  1
 23 37  1  0
M  END
$$$$
