
     RDKit          3D

 59 61  0  0  0  0  0  0  0  0999 V2000
   -6.8459   -4.0973    1.8723 C   0  0  0  0  0  0  0  0  0  0  0  0
   -7.3601   -2.8689    1.1326 C   0  0  0  0  0  0  0  0  0  0  0  0
   -6.7009   -1.5694    1.6172 C   0  0  0  0  0  0  0  0  0  0  0  0
   -7.3632   -0.3582    0.9592 C   0  0  0  0  0  0  0  0  0  0  0  0
   -5.2725   -1.5751    1.3266 N   0  0  0  0  0  0  0  0  0  0  0  0
   -4.3821   -0.8049    2.0521 C   0  0  0  0  0  0  0  0  0  0  0  0
   -4.7043   -0.1428    3.0350 O   0  0  0  0  0  0  0  0  0  0  0  0
   -2.9611   -0.8376    1.5233 C   0  0  0  0  0  0  0  0  0  0  0  0
   -2.7733    0.4609    0.2656 S   0  0  0  0  0  0  0  0  0  0  0  0
   -1.1173    0.2341   -0.1817 C   0  0  0  0  0  0  0  0  0  0  0  0
   -0.4317   -0.8358    0.1584 N   0  0  0  0  0  0  0  0  0  0  0  0
    0.8179   -0.7290   -0.3791 N   0  0  0  0  0  0  0  0  0  0  0  0
    0.8763    0.4049   -1.0399 C   0  0  0  0  0  0  0  0  0  0  0  0
    1.9640    0.8908   -1.7429 N   0  0  0  0  0  0  0  0  0  0  0  0
    3.2177    0.1378   -1.8193 C   0  0  0  0  0  0  0  0  0  0  0  0
    4.1535    0.4808   -0.6665 C   0  0  0  0  0  0  0  0  0  0  0  0
    5.4355   -0.3155   -0.7516 C   0  0  0  0  0  0  0  0  0  0  0  0
    5.6626   -1.1445   -1.6250 O   0  0  0  0  0  0  0  0  0  0  0  0
    6.3249   -0.0072    0.2589 N   0  0  0  0  0  0  0  0  0  0  0  0
    7.5759   -0.7340    0.4245 C   0  0  0  0  0  0  0  0  0  0  0  0
    8.5944    0.1378    1.1516 C   0  0  0  0  0  0  0  0  0  0  0  0
    7.3422   -2.0401    1.1803 C   0  0  0  0  0  0  0  0  0  0  0  0
    1.8847    2.1492   -2.3260 C   0  0  0  0  0  0  0  0  0  0  0  0
    2.8313    2.6819   -2.9007 O   0  0  0  0  0  0  0  0  0  0  0  0
    0.5888    2.8815   -2.2329 C   0  0  0  0  0  0  0  0  0  0  0  0
    0.4892    4.1355   -2.8549 C   0  0  0  0  0  0  0  0  0  0  0  0
   -0.6974    4.8601   -2.7870 C   0  0  0  0  0  0  0  0  0  0  0  0
   -1.7855    4.3360   -2.0963 C   0  0  0  0  0  0  0  0  0  0  0  0
   -1.6973    3.0864   -1.4721 C   0  0  0  0  0  0  0  0  0  0  0  0
   -0.5110    2.3488   -1.5389 C   0  0  0  0  0  0  0  0  0  0  0  0
   -0.3275    1.0824   -0.9378 N   0  0  0  0  0  0  0  0  0  0  0  0
   -7.3741   -4.9923    1.5279 H   0  0  0  0  0  0  0  0  0  0  0  0
   -7.0087   -4.0018    2.9506 H   0  0  0  0  0  0  0  0  0  0  0  0
   -5.7767   -4.2516    1.6971 H   0  0  0  0  0  0  0  0  0  0  0  0
   -8.4451   -2.8062    1.2801 H   0  0  0  0  0  0  0  0  0  0  0  0
   -7.1889   -3.0037    0.0574 H   0  0  0  0  0  0  0  0  0  0  0  0
   -6.8299   -1.4825    2.7032 H   0  0  0  0  0  0  0  0  0  0  0  0
   -8.4347   -0.3289    1.1829 H   0  0  0  0  0  0  0  0  0  0  0  0
   -6.9196    0.5769    1.3180 H   0  0  0  0  0  0  0  0  0  0  0  0
   -7.2409   -0.3836   -0.1295 H   0  0  0  0  0  0  0  0  0  0  0  0
   -4.9807   -1.8916    0.4097 H   0  0  0  0  0  0  0  0  0  0  0  0
   -2.7521   -1.8240    1.0959 H   0  0  0  0  0  0  0  0  0  0  0  0
   -2.2734   -0.6706    2.3587 H   0  0  0  0  0  0  0  0  0  0  0  0
    3.7060    0.3634   -2.7757 H   0  0  0  0  0  0  0  0  0  0  0  0
    2.9877   -0.9348   -1.8349 H   0  0  0  0  0  0  0  0  0  0  0  0
    3.6704    0.2607    0.2926 H   0  0  0  0  0  0  0  0  0  0  0  0
    4.4013    1.5486   -0.6820 H   0  0  0  0  0  0  0  0  0  0  0  0
    5.9879    0.5423    1.0393 H   0  0  0  0  0  0  0  0  0  0  0  0
    7.9660   -0.9731   -0.5721 H   0  0  0  0  0  0  0  0  0  0  0  0
    8.7712    1.0678    0.6002 H   0  0  0  0  0  0  0  0  0  0  0  0
    9.5524   -0.3823    1.2550 H   0  0  0  0  0  0  0  0  0  0  0  0
    8.2432    0.4105    2.1532 H   0  0  0  0  0  0  0  0  0  0  0  0
    8.2782   -2.5963    1.2972 H   0  0  0  0  0  0  0  0  0  0  0  0
    6.9290   -1.8518    2.1777 H   0  0  0  0  0  0  0  0  0  0  0  0
    6.6330   -2.6822    0.6469 H   0  0  0  0  0  0  0  0  0  0  0  0
    1.3382    4.5527   -3.3948 H   0  0  0  0  0  0  0  0  0  0  0  0
   -0.7714    5.8318   -3.2698 H   0  0  0  0  0  0  0  0  0  0  0  0
   -2.7126    4.9039   -2.0397 H   0  0  0  0  0  0  0  0  0  0  0  0
   -2.5837    2.7501   -0.9506 H   0  0  0  0  0  0  0  0  0  0  0  0
  1  2  1  0
  2  3  1  0
  3  4  1  0
  3  5  1  0
  5  6  1  0
  6  7  2  0
  6  8  1  0
  8  9  1  0
  9 10  1  0
 10 11  2  0
 11 12  1  0
 12 13  2  0
 13 14  1  0
 14 15  1  0
 15 16  1  0
 16 17  1  0
 17 18  2  0
 17 19  1  0
 19 20  1  0
 20 21  1  0
 20 22  1  0
 14 23  1  0
 23 24  2  0
 23 25  1  0
 25 26  2  0
 26 27  1  0
 27 28  2  0
 28 29  1  0
 29 30  2  0
 30 31  1  0
 31 10  1  0
 31 13  1  0
 30 25  1  0
  1 32  1  0
  1 33  1  0
  1 34  1  0
  2 35  1  0
  2 36  1  0
  3 37  1  0
  4 38  1  0
  4 39  1  0
  4 40  1  0
  5 41  1  0
  8 42  1  0
  8 43  1  0
 15 44  1  0
 15 45  1  0
 16 46  1  0
 16 47  1  0
 19 48  1  0
 20 49  1  0
 21 50  1  0
 21 51  1  0
 21 52  1  0
 22 53  1  0
 22 54  1  0
 22 55  1  0
 26 56  1  0
 27 57  1  0
 28 58  1  0
 29 59  1  0
M  END
$$$$
