
     RDKit          3D

 50 51  0  0  0  0  0  0  0  0999 V2000
   -1.2984    1.7594   -1.4207 C   0  0  0  0  0  0  0  0  0  0  0  0
   -1.9210    0.4070   -1.4159 C   0  0  1  0  0  0  0  0  0  0  0  0
   -1.0988   -0.6551   -0.8123 N   0  0  0  0  0  0  0  0  0  0  0  0
    0.3353   -0.4436   -1.0910 C   0  0  0  0  0  0  0  0  0  0  0  0
    0.8587    0.1302    0.2669 C   0  0  0  0  0  0  0  0  0  0  0  0
    2.1311    0.7284    0.1458 C   0  0  0  0  0  0  0  0  0  0  0  0
    3.4340    0.1074   -0.0601 C   0  0  0  0  0  0  0  0  0  0  0  0
    3.8866   -0.4847   -1.2045 C   0  0  0  0  0  0  0  0  0  0  0  0
    5.2021   -0.8288   -1.4132 C   0  0  0  0  0  0  0  0  0  0  0  0
    6.1603   -0.5772   -0.4297 C   0  0  0  0  0  0  0  0  0  0  0  0
    5.7450    0.0041    0.7271 C   0  0  0  0  0  0  0  0  0  0  0  0
    6.7875    0.4015    1.7397 C   0  0  0  0  0  0  0  0  0  0  0  0
    7.6965   -0.5795    1.8986 F   0  0  0  0  0  0  0  0  0  0  0  0
    6.1085    0.7445    2.9020 F   0  0  0  0  0  0  0  0  0  0  0  0
    7.3458    1.6021    1.2869 F   0  0  0  0  0  0  0  0  0  0  0  0
    4.4329    0.3439    0.9343 C   0  0  0  0  0  0  0  0  0  0  0  0
   -2.9518    0.5620   -0.2698 C   0  0  0  0  0  0  0  0  0  0  0  0
   -2.8247    1.5846    0.6059 C   0  0  0  0  0  0  0  0  0  0  0  0
   -3.6217    1.6825    1.7652 C   0  0  0  0  0  0  0  0  0  0  0  0
   -4.5565    0.6789    1.9720 C   0  0  0  0  0  0  0  0  0  0  0  0
   -4.6771   -0.3418    1.0795 C   0  0  0  0  0  0  0  0  0  0  0  0
   -5.6306   -1.3341    1.3046 C   0  0  0  0  0  0  0  0  0  0  0  0
   -5.7637   -2.3770    0.3743 C   0  0  0  0  0  0  0  0  0  0  0  0
   -4.9910   -2.4537   -0.7503 C   0  0  0  0  0  0  0  0  0  0  0  0
   -4.0576   -1.4679   -0.9513 C   0  0  0  0  0  0  0  0  0  0  0  0
   -3.8716   -0.4162   -0.0711 C   0  0  0  0  0  0  0  0  0  0  0  0
    0.6928    0.0000    0.0000 Cl  0  0  0  0  0  0  0  0  0  0  0  0
   -0.8583    1.9424   -2.4786 H   0  0  0  0  0  0  0  0  0  0  0  0
   -0.5645    2.0252   -0.6943 H   0  0  0  0  0  0  0  0  0  0  0  0
   -2.1169    2.5428   -1.4259 H   0  0  0  0  0  0  0  0  0  0  0  0
   -2.3647    0.1812   -2.3532 H   0  0  0  0  0  0  0  0  0  0  0  0
   -1.3567   -1.5372   -1.3721 H   0  0  0  0  0  0  0  0  0  0  0  0
    0.5288    0.2508   -1.8947 H   0  0  0  0  0  0  0  0  0  0  0  0
    0.7949   -1.3997   -1.2416 H   0  0  0  0  0  0  0  0  0  0  0  0
    0.9409   -0.8653    0.9249 H   0  0  0  0  0  0  0  0  0  0  0  0
    0.0810    0.6401    0.8475 H   0  0  0  0  0  0  0  0  0  0  0  0
    2.0384    1.5844   -0.6781 H   0  0  0  0  0  0  0  0  0  0  0  0
    2.2086    1.4723    1.0533 H   0  0  0  0  0  0  0  0  0  0  0  0
    3.1557   -0.7190   -1.9890 H   0  0  0  0  0  0  0  0  0  0  0  0
    5.5503   -1.2846   -2.3381 H   0  0  0  0  0  0  0  0  0  0  0  0
    7.1971   -0.8277   -0.5906 H   0  0  0  0  0  0  0  0  0  0  0  0
    4.1057    0.7636    1.8451 H   0  0  0  0  0  0  0  0  0  0  0  0
   -2.1038    2.4102    0.5153 H   0  0  0  0  0  0  0  0  0  0  0  0
   -3.5128    2.4912    2.4604 H   0  0  0  0  0  0  0  0  0  0  0  0
   -5.1966    0.7058    2.8545 H   0  0  0  0  0  0  0  0  0  0  0  0
   -6.2321   -1.2396    2.1723 H   0  0  0  0  0  0  0  0  0  0  0  0
   -6.5276   -3.1109    0.5678 H   0  0  0  0  0  0  0  0  0  0  0  0
   -5.1364   -3.2980   -1.4428 H   0  0  0  0  0  0  0  0  0  0  0  0
   -3.4910   -1.5052   -1.8556 H   0  0  0  0  0  0  0  0  0  0  0  0
   -0.6928    0.0000    0.0000 H   0  0  0  0  0  0  0  0  0  0  0  0
  1  2  1  0
  2  3  1  0
  3  4  1  0
  4  5  1  0
  5  6  1  0
  6  7  1  0
  7  8  2  0
  8  9  1  0
  9 10  2  0
 10 11  1  0
 11 12  1  0
 12 13  1  0
 12 14  1  0
 12 15  1  0
 11 16  2  0
  2 17  1  0
 17 18  2  0
 18 19  1  0
 19 20  2  0
 20 21  1  0
 21 22  2  0
 22 23  1  0
 23 24  2  0
 24 25  1  0
 25 26  2  0
 16  7  1  0
 26 17  1  0
 26 21  1  0
  1 28  1  0
  1 29  1  0
  1 30  1  0
  2 31  1  6
  3 32  1  0
  4 33  1  0
  4 34  1  0
  5 35  1  0
  5 36  1  0
  6 37  1  0
  6 38  1  0
  8 39  1  0
  9 40  1  0
 10 41  1  0
 16 42  1  0
 18 43  1  0
 19 44  1  0
 20 45  1  0
 22 46  1  0
 23 47  1  0
 24 48  1  0
 25 49  1  0
 27 50  1  0
M  END
$$$$
