
     RDKit          3D

 76 78  0  0  0  0  0  0  0  0999 V2000
   -3.6902    1.8699   -3.6928 C   0  0  0  0  0  0  0  0  0  0  0  0
   -4.4697    2.5523   -2.5794 C   0  0  0  0  0  0  0  0  0  0  0  0
   -5.1556    1.5793   -1.6202 C   0  0  0  0  0  0  0  0  0  0  0  0
   -4.2574    0.6167   -0.8209 C   0  0  0  0  0  0  0  0  0  0  0  0
   -3.3995    1.1835    0.3610 C   0  0  2  0  0  0  0  0  0  0  0  0
   -4.2761    2.0677    1.3111 C   0  0  0  0  0  0  0  0  0  0  0  0
   -5.4811    1.3713    1.9427 C   0  0  0  0  0  0  0  0  0  0  0  0
   -2.2527    2.0519   -0.1733 C   0  0  0  0  0  0  0  0  0  0  0  0
   -0.7869    2.0584    0.8281 S   0  0  0  0  0  6  0  0  0  0  0  0
    0.0204    3.1696    0.3555 O   0  0  0  0  0  0  0  0  0  0  0  0
   -1.1076    1.9351    2.2374 O   0  0  0  0  0  0  0  0  0  0  0  0
    0.0318    0.5525    0.3474 C   0  0  0  0  0  0  0  0  0  0  0  0
    1.3883    0.6664   -0.0109 C   0  0  0  0  0  0  0  0  0  0  0  0
    2.1273   -0.4377   -0.4679 C   0  0  0  0  0  0  0  0  0  0  0  0
    3.5837   -0.2967   -0.8804 C   0  0  0  0  0  0  0  0  0  0  0  0
    4.2680    0.8003   -0.1842 N   0  0  0  0  0  0  0  0  0  0  0  0
    5.6679    1.0527   -0.5943 C   0  0  0  0  0  0  0  0  0  0  0  0
    5.7598    1.3988   -2.0889 C   0  0  0  0  0  0  0  0  0  0  0  0
    7.0722    2.0451   -2.4270 C   0  0  0  0  0  0  0  0  0  0  0  0
    8.0471    1.4807   -2.8957 O   0  0  0  0  0  0  0  0  0  0  0  0
    7.1060    3.3580   -2.1404 O   0  0  0  0  0  0  0  0  0  0  0  0
    6.6350   -0.0806   -0.2102 C   0  0  0  0  0  0  0  0  0  0  0  0
    6.8565   -0.1258    1.2735 C   0  0  0  0  0  0  0  0  0  0  0  0
    7.6562    0.5474    1.9024 O   0  0  0  0  0  0  0  0  0  0  0  0
    6.0349   -0.9872    1.9028 O   0  0  0  0  0  0  0  0  0  0  0  0
    1.4664   -1.6647   -0.6122 C   0  0  0  0  0  0  0  0  0  0  0  0
    2.2116   -2.6991   -1.1159 O   0  0  0  0  0  0  0  0  0  0  0  0
    1.6917   -4.0140   -0.9549 C   0  0  0  0  0  0  0  0  0  0  0  0
    0.1108   -1.7650   -0.2715 C   0  0  0  0  0  0  0  0  0  0  0  0
   -0.6394   -0.6749    0.2466 C   0  0  0  0  0  0  0  0  0  0  0  0
   -2.0910   -0.9894    0.6320 C   0  0  1  0  0  0  0  0  0  0  0  0
   -2.1734   -2.1608    1.6257 C   0  0  0  0  0  0  0  0  0  0  0  0
   -3.0561   -3.2273    1.3832 C   0  0  0  0  0  0  0  0  0  0  0  0
   -3.1436   -4.2965    2.2775 C   0  0  0  0  0  0  0  0  0  0  0  0
   -2.3590   -4.3092    3.4287 C   0  0  0  0  0  0  0  0  0  0  0  0
   -1.4944   -3.2495    3.6950 C   0  0  0  0  0  0  0  0  0  0  0  0
   -1.4062   -2.1777    2.8048 C   0  0  0  0  0  0  0  0  0  0  0  0
   -2.9205    0.0684    1.1868 N   0  0  0  0  0  0  0  0  0  0  0  0
   -3.3057    2.6191   -4.3928 H   0  0  0  0  0  0  0  0  0  0  0  0
   -4.3290    1.1799   -4.2535 H   0  0  0  0  0  0  0  0  0  0  0  0
   -2.8350    1.3094   -3.3077 H   0  0  0  0  0  0  0  0  0  0  0  0
   -3.8205    3.2441   -2.0386 H   0  0  0  0  0  0  0  0  0  0  0  0
   -5.2471    3.1727   -3.0435 H   0  0  0  0  0  0  0  0  0  0  0  0
   -5.8424    0.9611   -2.2149 H   0  0  0  0  0  0  0  0  0  0  0  0
   -5.8002    2.1497   -0.9432 H   0  0  0  0  0  0  0  0  0  0  0  0
   -4.9257   -0.1567   -0.4152 H   0  0  0  0  0  0  0  0  0  0  0  0
   -3.6107    0.0849   -1.5290 H   0  0  0  0  0  0  0  0  0  0  0  0
   -4.6345    2.9544    0.7734 H   0  0  0  0  0  0  0  0  0  0  0  0
   -3.6577    2.4608    2.1285 H   0  0  0  0  0  0  0  0  0  0  0  0
   -6.1947    1.0269    1.1893 H   0  0  0  0  0  0  0  0  0  0  0  0
   -6.0095    2.0708    2.5994 H   0  0  0  0  0  0  0  0  0  0  0  0
   -5.1802    0.5133    2.5518 H   0  0  0  0  0  0  0  0  0  0  0  0
   -1.9243    1.7384   -1.1699 H   0  0  0  0  0  0  0  0  0  0  0  0
   -2.5545    3.1025   -0.2490 H   0  0  0  0  0  0  0  0  0  0  0  0
    1.8828    1.6361    0.0599 H   0  0  0  0  0  0  0  0  0  0  0  0
    3.5880   -0.1363   -1.9634 H   0  0  0  0  0  0  0  0  0  0  0  0
    4.1082   -1.2319   -0.6630 H   0  0  0  0  0  0  0  0  0  0  0  0
    4.2356    0.5997    0.8181 H   0  0  0  0  0  0  0  0  0  0  0  0
    5.9723    1.9474   -0.0337 H   0  0  0  0  0  0  0  0  0  0  0  0
    5.6537    0.5070   -2.7193 H   0  0  0  0  0  0  0  0  0  0  0  0
    4.9624    2.0909   -2.3869 H   0  0  0  0  0  0  0  0  0  0  0  0
    8.0065    3.6471   -2.3985 H   0  0  0  0  0  0  0  0  0  0  0  0
    6.3058   -1.0612   -0.5698 H   0  0  0  0  0  0  0  0  0  0  0  0
    7.6248    0.0718   -0.6563 H   0  0  0  0  0  0  0  0  0  0  0  0
    6.2763   -0.8972    2.8505 H   0  0  0  0  0  0  0  0  0  0  0  0
    0.8360   -4.1771   -1.6174 H   0  0  0  0  0  0  0  0  0  0  0  0
    2.4758   -4.7205   -1.2439 H   0  0  0  0  0  0  0  0  0  0  0  0
    1.4296   -4.2171    0.0890 H   0  0  0  0  0  0  0  0  0  0  0  0
   -0.4016   -2.7171   -0.3962 H   0  0  0  0  0  0  0  0  0  0  0  0
   -2.5572   -1.3444   -0.2954 H   0  0  0  0  0  0  0  0  0  0  0  0
   -3.6886   -3.2274    0.4985 H   0  0  0  0  0  0  0  0  0  0  0  0
   -3.8304   -5.1158    2.0795 H   0  0  0  0  0  0  0  0  0  0  0  0
   -2.4287   -5.1409    4.1252 H   0  0  0  0  0  0  0  0  0  0  0  0
   -0.8921   -3.2534    4.5994 H   0  0  0  0  0  0  0  0  0  0  0  0
   -0.7333   -1.3546    3.0370 H   0  0  0  0  0  0  0  0  0  0  0  0
   -2.5294    0.3937    2.0788 H   0  0  0  0  0  0  0  0  0  0  0  0
  1  2  1  0
  2  3  1  0
  3  4  1  0
  5  4  1  6
  5  6  1  0
  6  7  1  0
  5  8  1  0
  8  9  1  0
  9 10  2  0
  9 11  2  0
  9 12  1  0
 12 13  2  0
 13 14  1  0
 14 15  1  0
 15 16  1  0
 16 17  1  0
 17 18  1  0
 18 19  1  0
 19 20  2  0
 19 21  1  0
 17 22  1  0
 22 23  1  0
 23 24  2  0
 23 25  1  0
 14 26  2  0
 26 27  1  0
 27 28  1  0
 26 29  1  0
 29 30  2  0
 30 31  1  0
 31 32  1  0
 32 33  2  0
 33 34  1  0
 34 35  2  0
 35 36  1  0
 36 37  2  0
 31 38  1  0
 38  5  1  0
 30 12  1  0
 37 32  1  0
  1 39  1  0
  1 40  1  0
  1 41  1  0
  2 42  1  0
  2 43  1  0
  3 44  1  0
  3 45  1  0
  4 46  1  0
  4 47  1  0
  6 48  1  0
  6 49  1  0
  7 50  1  0
  7 51  1  0
  7 52  1  0
  8 53  1  0
  8 54  1  0
 13 55  1  0
 15 56  1  0
 15 57  1  0
 16 58  1  0
 17 59  1  0
 18 60  1  0
 18 61  1  0
 21 62  1  0
 22 63  1  0
 22 64  1  0
 25 65  1  0
 28 66  1  0
 28 67  1  0
 28 68  1  0
 29 69  1  0
 31 70  1  6
 33 71  1  0
 34 72  1  0
 35 73  1  0
 36 74  1  0
 37 75  1  0
 38 76  1  0
M  END
$$$$
