
     RDKit          3D

 45 48  0  0  0  0  0  0  0  0999 V2000
    3.1241    1.7170   -1.0950 O   0  0  0  0  0  0  0  0  0  0  0  0
    2.9129    0.7287   -0.3980 C   0  0  0  0  0  0  0  0  0  0  0  0
    3.8557   -0.2296   -0.1156 N   0  0  0  0  0  0  0  0  0  0  0  0
    5.2256   -0.2185   -0.4709 C   0  0  0  0  0  0  0  0  0  0  0  0
    5.8906    0.8676   -1.0254 C   0  0  0  0  0  0  0  0  0  0  0  0
    7.2115    0.8690   -1.3477 N   0  0  0  0  0  0  0  0  0  0  0  0
    7.9086   -0.2601   -1.1123 C   0  0  0  0  0  0  0  0  0  0  0  0
    7.3523   -1.3967   -0.5617 C   0  0  0  0  0  0  0  0  0  0  0  0
    5.9985   -1.3645   -0.2388 C   0  0  0  0  0  0  0  0  0  0  0  0
    5.2949   -2.7852    0.4611 Cl  0  0  0  0  0  0  0  0  0  0  0  0
    1.6687    0.4932    0.1717 N   0  0  0  0  0  0  0  0  0  0  0  0
    0.5759    1.4134   -0.1375 C   0  0  0  0  0  0  0  0  0  0  0  0
   -0.8110    0.7382   -0.0882 C   0  0  0  0  0  0  0  0  0  0  0  0
   -1.0589   -0.1568    1.0648 N   0  0  0  0  0  0  0  0  0  0  0  0
   -2.3051    0.1564    1.7745 C   0  0  0  0  0  0  0  0  0  0  0  0
   -3.5456   -0.1157    0.9456 C   0  0  0  0  0  0  0  0  0  0  0  0
   -3.7584   -1.3960    0.3791 C   0  0  0  0  0  0  0  0  0  0  0  0
   -4.9018   -1.6732   -0.3761 C   0  0  0  0  0  0  0  0  0  0  0  0
   -5.8164   -0.6578   -0.5446 C   0  0  0  0  0  0  0  0  0  0  0  0
   -5.6239    0.5891    0.0061 C   0  0  0  0  0  0  0  0  0  0  0  0
   -4.5059    0.8913    0.7556 C   0  0  0  0  0  0  0  0  0  0  0  0
   -6.6418    1.4458   -0.2754 O   0  0  0  0  0  0  0  0  0  0  0  0
   -7.4789    0.5860   -1.0611 C   0  0  0  0  0  0  0  0  0  0  0  0
   -7.6535    1.1523   -2.2808 F   0  0  0  0  0  0  0  0  0  0  0  0
   -8.6961    0.5117   -0.4677 F   0  0  0  0  0  0  0  0  0  0  0  0
   -6.9791   -0.7454   -1.2437 O   0  0  0  0  0  0  0  0  0  0  0  0
    0.0849   -0.2056    1.9856 C   0  0  0  0  0  0  0  0  0  0  0  0
    1.4039   -0.4761    1.2393 C   0  0  0  0  0  0  0  0  0  0  0  0
    3.5159   -1.1118    0.2389 H   0  0  0  0  0  0  0  0  0  0  0  0
    5.3959    1.8106   -1.2346 H   0  0  0  0  0  0  0  0  0  0  0  0
    8.9594   -0.2222   -1.3859 H   0  0  0  0  0  0  0  0  0  0  0  0
    7.9585   -2.2783   -0.3899 H   0  0  0  0  0  0  0  0  0  0  0  0
    0.6239    2.2243    0.6000 H   0  0  0  0  0  0  0  0  0  0  0  0
    0.7245    1.8638   -1.1252 H   0  0  0  0  0  0  0  0  0  0  0  0
   -0.9199    0.1213   -0.9890 H   0  0  0  0  0  0  0  0  0  0  0  0
   -1.5651    1.5311   -0.1651 H   0  0  0  0  0  0  0  0  0  0  0  0
   -2.2944    1.1974    2.1236 H   0  0  0  0  0  0  0  0  0  0  0  0
   -2.3929   -0.4697    2.6726 H   0  0  0  0  0  0  0  0  0  0  0  0
   -3.0142   -2.1778    0.5256 H   0  0  0  0  0  0  0  0  0  0  0  0
   -5.0601   -2.6525   -0.8140 H   0  0  0  0  0  0  0  0  0  0  0  0
   -4.3816    1.8827    1.1788 H   0  0  0  0  0  0  0  0  0  0  0  0
   -0.0646   -1.0060    2.7198 H   0  0  0  0  0  0  0  0  0  0  0  0
    0.1694    0.7371    2.5425 H   0  0  0  0  0  0  0  0  0  0  0  0
    1.3765   -1.4696    0.7758 H   0  0  0  0  0  0  0  0  0  0  0  0
    2.2367   -0.4588    1.9513 H   0  0  0  0  0  0  0  0  0  0  0  0
  1  2  2  0
  2  3  1  0
  3  4  1  0
  4  5  2  0
  5  6  1  0
  6  7  2  0
  7  8  1  0
  8  9  2  0
  9 10  1  0
  2 11  1  0
 11 12  1  0
 12 13  1  0
 13 14  1  0
 14 15  1  0
 15 16  1  0
 16 17  2  0
 17 18  1  0
 18 19  2  0
 19 20  1  0
 20 21  2  0
 20 22  1  0
 22 23  1  0
 23 24  1  0
 23 25  1  0
 23 26  1  0
 14 27  1  0
 27 28  1  0
  9  4  1  0
 28 11  1  0
 21 16  1  0
 26 19  1  0
  3 29  1  0
  5 30  1  0
  7 31  1  0
  8 32  1  0
 12 33  1  0
 12 34  1  0
 13 35  1  0
 13 36  1  0
 15 37  1  0
 15 38  1  0
 17 39  1  0
 18 40  1  0
 21 41  1  0
 27 42  1  0
 27 43  1  0
 28 44  1  0
 28 45  1  0
M  END
$$$$
