
     RDKit          3D

 59 63  0  0  0  0  0  0  0  0999 V2000
   -1.1082   -0.2780   -3.6118 C   0  0  0  0  0  0  0  0  0  0  0  0
   -0.7094    0.4350   -2.4056 N   0  0  0  0  0  0  0  0  0  0  0  0
   -0.5524    1.8703   -2.6520 C   0  0  0  0  0  0  0  0  0  0  0  0
    0.1814    2.5600   -1.4842 C   0  0  2  0  0  0  0  0  0  0  0  0
    1.7015    2.3262   -1.5350 C   0  0  0  0  0  0  0  0  0  0  0  0
    2.0591    0.9308   -1.4601 N   0  0  0  0  0  0  0  0  0  0  0  0
    3.3426    0.4988   -1.3521 C   0  0  0  0  0  0  0  0  0  0  0  0
    4.3162    1.2201   -1.1989 O   0  0  0  0  0  0  0  0  0  0  0  0
    3.3616   -0.8495   -1.4666 O   0  0  0  0  0  0  0  0  0  0  0  0
    4.6505   -1.4631   -1.3506 C   0  0  0  0  0  0  0  0  0  0  0  0
    4.8695   -1.9571    0.0574 C   0  0  0  0  0  0  0  0  0  0  0  0
    5.9555   -1.4946    0.8130 C   0  0  0  0  0  0  0  0  0  0  0  0
    6.1653   -1.9641    2.1105 C   0  0  0  0  0  0  0  0  0  0  0  0
    5.2891   -2.8954    2.6662 C   0  0  0  0  0  0  0  0  0  0  0  0
    4.2008   -3.3557    1.9270 C   0  0  0  0  0  0  0  0  0  0  0  0
    3.9927   -2.8915    0.6279 C   0  0  0  0  0  0  0  0  0  0  0  0
   -0.4027    2.1745   -0.1084 C   0  0  0  0  0  0  0  0  0  0  0  0
   -1.7238    1.4108   -0.2477 C   0  0  2  0  0  0  0  0  0  0  0  0
   -2.3707    1.0173    1.0682 C   0  0  0  0  0  0  0  0  0  0  0  0
   -2.2721    1.6889    2.2925 C   0  0  0  0  0  0  0  0  0  0  0  0
   -2.9826    1.2425    3.4168 C   0  0  0  0  0  0  0  0  0  0  0  0
   -3.8318    0.1247    3.3638 C   0  0  0  0  0  0  0  0  0  0  0  0
   -3.9429   -0.5269    2.1322 C   0  0  0  0  0  0  0  0  0  0  0  0
   -3.2327   -0.0864    1.0304 C   0  0  0  0  0  0  0  0  0  0  0  0
   -3.5189   -0.9178   -0.0730 C   0  0  0  0  0  0  0  0  0  0  0  0
   -4.4210   -1.8616    0.3609 C   0  0  0  0  0  0  0  0  0  0  0  0
   -4.6710   -1.6144    1.6962 N   0  0  0  0  0  0  0  0  0  0  0  0
   -5.5690   -2.3888    2.5231 C   0  0  0  0  0  0  0  0  0  0  0  0
   -2.8538   -0.6620   -1.3865 C   0  0  0  0  0  0  0  0  0  0  0  0
   -1.5036    0.1327   -1.1792 C   0  0  1  0  0  0  0  0  0  0  0  0
   -1.0877   -1.3607   -3.4517 H   0  0  0  0  0  0  0  0  0  0  0  0
   -0.3966   -0.0851   -4.4235 H   0  0  0  0  0  0  0  0  0  0  0  0
   -2.1031    0.0179   -3.9613 H   0  0  0  0  0  0  0  0  0  0  0  0
   -1.5307    2.3401   -2.8191 H   0  0  0  0  0  0  0  0  0  0  0  0
    0.0258    2.0393   -3.5699 H   0  0  0  0  0  0  0  0  0  0  0  0
    0.0288    3.6403   -1.6131 H   0  0  0  0  0  0  0  0  0  0  0  0
    2.1145    2.7199   -2.4716 H   0  0  0  0  0  0  0  0  0  0  0  0
    2.2008    2.8571   -0.7156 H   0  0  0  0  0  0  0  0  0  0  0  0
    1.3675    0.2334   -1.7254 H   0  0  0  0  0  0  0  0  0  0  0  0
    4.6658   -2.3218   -2.0299 H   0  0  0  0  0  0  0  0  0  0  0  0
    5.4586   -0.7990   -1.6833 H   0  0  0  0  0  0  0  0  0  0  0  0
    6.6406   -0.7588    0.3967 H   0  0  0  0  0  0  0  0  0  0  0  0
    7.0113   -1.5990    2.6878 H   0  0  0  0  0  0  0  0  0  0  0  0
    5.4504   -3.2568    3.6778 H   0  0  0  0  0  0  0  0  0  0  0  0
    3.5109   -4.0719    2.3662 H   0  0  0  0  0  0  0  0  0  0  0  0
    3.1356   -3.2524    0.0625 H   0  0  0  0  0  0  0  0  0  0  0  0
   -0.5514    3.0957    0.4663 H   0  0  0  0  0  0  0  0  0  0  0  0
    0.3069    1.5735    0.4719 H   0  0  0  0  0  0  0  0  0  0  0  0
   -2.4503    2.0736   -0.7406 H   0  0  0  0  0  0  0  0  0  0  0  0
   -1.6480    2.5721    2.3901 H   0  0  0  0  0  0  0  0  0  0  0  0
   -2.8805    1.7828    4.3555 H   0  0  0  0  0  0  0  0  0  0  0  0
   -4.3789   -0.2037    4.2400 H   0  0  0  0  0  0  0  0  0  0  0  0
   -4.8997   -2.6813   -0.1575 H   0  0  0  0  0  0  0  0  0  0  0  0
   -6.3435   -1.7237    2.9084 H   0  0  0  0  0  0  0  0  0  0  0  0
   -6.0260   -3.1807    1.9261 H   0  0  0  0  0  0  0  0  0  0  0  0
   -4.9933   -2.8267    3.3427 H   0  0  0  0  0  0  0  0  0  0  0  0
   -2.6608   -1.6235   -1.8743 H   0  0  0  0  0  0  0  0  0  0  0  0
   -3.5324   -0.0813   -2.0213 H   0  0  0  0  0  0  0  0  0  0  0  0
   -0.8532   -0.5488   -0.6082 H   0  0  0  0  0  0  0  0  0  0  0  0
  1  2  1  0
  2  3  1  0
  3  4  1  0
  4  5  1  0
  5  6  1  0
  6  7  1  0
  7  8  2  0
  7  9  1  0
  9 10  1  0
 10 11  1  0
 11 12  2  0
 12 13  1  0
 13 14  2  0
 14 15  1  0
 15 16  2  0
  4 17  1  0
 17 18  1  0
 18 19  1  0
 19 20  2  0
 20 21  1  0
 21 22  2  0
 22 23  1  0
 23 24  2  0
 24 25  1  0
 25 26  2  0
 26 27  1  0
 27 28  1  0
 25 29  1  0
 29 30  1  0
 30  2  1  0
 16 11  1  0
 30 18  1  0
 24 19  1  0
 27 23  1  0
  1 31  1  0
  1 32  1  0
  1 33  1  0
  3 34  1  0
  3 35  1  0
  4 36  1  6
  5 37  1  0
  5 38  1  0
  6 39  1  0
 10 40  1  0
 10 41  1  0
 12 42  1  0
 13 43  1  0
 14 44  1  0
 15 45  1  0
 16 46  1  0
 17 47  1  0
 17 48  1  0
 18 49  1  6
 20 50  1  0
 21 51  1  0
 22 52  1  0
 26 53  1  0
 28 54  1  0
 28 55  1  0
 28 56  1  0
 29 57  1  0
 29 58  1  0
 30 59  1  1
M  END
$$$$
