
     RDKit          3D

 51 54  0  0  0  0  0  0  0  0999 V2000
    5.0521   -2.7712    1.1392 C   0  0  0  0  0  0  0  0  0  0  0  0
    4.8154   -1.7325    0.2006 O   0  0  0  0  0  0  0  0  0  0  0  0
    3.5426   -1.2254    0.1184 C   0  0  0  0  0  0  0  0  0  0  0  0
    2.4468   -1.7198    0.8275 C   0  0  0  0  0  0  0  0  0  0  0  0
    1.1762   -1.1395    0.6743 C   0  0  0  0  0  0  0  0  0  0  0  0
    0.9838   -0.0164   -0.1536 C   0  0  0  0  0  0  0  0  0  0  0  0
    2.0887    0.4328   -0.8976 C   0  0  0  0  0  0  0  0  0  0  0  0
    3.3594   -0.1463   -0.7630 C   0  0  0  0  0  0  0  0  0  0  0  0
    4.4749    0.2658   -1.4520 O   0  0  0  0  0  0  0  0  0  0  0  0
    4.3558    1.4284   -2.2599 C   0  0  0  0  0  0  0  0  0  0  0  0
   -0.3695    0.6029   -0.2274 C   0  0  0  0  0  0  0  0  0  0  0  0
   -0.6090    1.9624   -0.5405 C   0  0  0  0  0  0  0  0  0  0  0  0
    0.4479    2.8221   -0.7619 O   0  0  0  0  0  0  0  0  0  0  0  0
    0.7848    3.4988    0.4508 C   0  0  0  0  0  0  0  0  0  0  0  0
   -1.9129    2.4854   -0.6557 C   0  0  0  0  0  0  0  0  0  0  0  0
   -2.0084    3.8075   -1.0111 O   0  0  0  0  0  0  0  0  0  0  0  0
   -3.3055    4.3228   -1.2763 C   0  0  0  0  0  0  0  0  0  0  0  0
   -2.9999    1.6585   -0.3855 C   0  0  0  0  0  0  0  0  0  0  0  0
   -2.8018    0.3224   -0.0130 C   0  0  0  0  0  0  0  0  0  0  0  0
   -1.4979   -0.2022    0.0861 C   0  0  0  0  0  0  0  0  0  0  0  0
   -1.2747   -1.6663    0.4954 C   0  0  0  0  0  0  0  0  0  0  0  0
   -0.0173   -1.7229    1.3994 C   0  0  0  0  0  0  0  0  0  0  0  0
   -2.4596   -2.2816    1.1585 N   0  0  0  0  0  0  0  0  0  0  0  0
   -2.3022   -3.7305    1.3199 C   0  0  0  0  0  0  0  0  0  0  0  0
   -3.6654   -2.0173    0.3551 C   0  0  0  0  0  0  0  0  0  0  0  0
   -3.9923   -0.5250    0.3497 C   0  0  0  0  0  0  0  0  0  0  0  0
    6.1177   -3.0176    1.1039 H   0  0  0  0  0  0  0  0  0  0  0  0
    4.4939   -3.6753    0.8748 H   0  0  0  0  0  0  0  0  0  0  0  0
    4.8203   -2.4458    2.1587 H   0  0  0  0  0  0  0  0  0  0  0  0
    2.5485   -2.5681    1.4961 H   0  0  0  0  0  0  0  0  0  0  0  0
    1.9408    1.2400   -1.6061 H   0  0  0  0  0  0  0  0  0  0  0  0
    4.0430    2.2949   -1.6677 H   0  0  0  0  0  0  0  0  0  0  0  0
    3.6766    1.2548   -3.1008 H   0  0  0  0  0  0  0  0  0  0  0  0
    5.3444    1.6498   -2.6737 H   0  0  0  0  0  0  0  0  0  0  0  0
    1.6722    4.1082    0.2557 H   0  0  0  0  0  0  0  0  0  0  0  0
    1.0309    2.7917    1.2509 H   0  0  0  0  0  0  0  0  0  0  0  0
   -0.0200    4.1682    0.7720 H   0  0  0  0  0  0  0  0  0  0  0  0
   -3.8025    3.7600   -2.0735 H   0  0  0  0  0  0  0  0  0  0  0  0
   -3.9134    4.3423   -0.3660 H   0  0  0  0  0  0  0  0  0  0  0  0
   -3.1909    5.3553   -1.6204 H   0  0  0  0  0  0  0  0  0  0  0  0
   -4.0175    2.0321   -0.4347 H   0  0  0  0  0  0  0  0  0  0  0  0
   -1.0722   -2.2124   -0.4392 H   0  0  0  0  0  0  0  0  0  0  0  0
   -0.1727   -1.1634    2.3311 H   0  0  0  0  0  0  0  0  0  0  0  0
    0.2132   -2.7588    1.6688 H   0  0  0  0  0  0  0  0  0  0  0  0
   -1.4988   -3.9714    2.0217 H   0  0  0  0  0  0  0  0  0  0  0  0
   -2.1007   -4.2347    0.3679 H   0  0  0  0  0  0  0  0  0  0  0  0
   -3.2092   -4.1696    1.7520 H   0  0  0  0  0  0  0  0  0  0  0  0
   -4.5302   -2.5444    0.7774 H   0  0  0  0  0  0  0  0  0  0  0  0
   -3.5366   -2.3829   -0.6731 H   0  0  0  0  0  0  0  0  0  0  0  0
   -4.3408   -0.2200    1.3446 H   0  0  0  0  0  0  0  0  0  0  0  0
   -4.8082   -0.3457   -0.3607 H   0  0  0  0  0  0  0  0  0  0  0  0
  1  2  1  0
  2  3  1  0
  3  4  2  0
  4  5  1  0
  5  6  2  0
  6  7  1  0
  7  8  2  0
  8  9  1  0
  9 10  1  0
  6 11  1  0
 11 12  2  0
 12 13  1  0
 13 14  1  0
 12 15  1  0
 15 16  1  0
 16 17  1  0
 15 18  2  0
 18 19  1  0
 19 20  2  0
 20 21  1  0
 21 22  1  0
 21 23  1  0
 23 24  1  0
 23 25  1  0
 25 26  1  0
  8  3  1  0
 20 11  1  0
 22  5  1  0
 26 19  1  0
  1 27  1  0
  1 28  1  0
  1 29  1  0
  4 30  1  0
  7 31  1  0
 10 32  1  0
 10 33  1  0
 10 34  1  0
 14 35  1  0
 14 36  1  0
 14 37  1  0
 17 38  1  0
 17 39  1  0
 17 40  1  0
 18 41  1  0
 21 42  1  0
 22 43  1  0
 22 44  1  0
 24 45  1  0
 24 46  1  0
 24 47  1  0
 25 48  1  0
 25 49  1  0
 26 50  1  0
 26 51  1  0
M  END
$$$$
