
     RDKit          3D

152159  0  0  0  0  0  0  0  0999 V2000
   14.5629   -2.0392   -3.8237 C   0  0  0  0  0  0  0  0  0  0  0  0
   14.5029   -0.7867   -3.0826 N   0  0  0  0  0  0  0  0  0  0  0  0
   13.1352   -0.2499   -2.8825 C   0  0  1  0  0  0  0  0  0  0  0  0
   12.2997   -0.2021   -4.1631 C   0  0  0  0  0  0  0  0  0  0  0  0
   12.3940   -0.9938   -1.7396 C   0  0  0  0  0  0  0  0  0  0  0  0
   12.8516   -1.9847   -1.1729 O   0  0  0  0  0  0  0  0  0  0  0  0
   11.1940   -0.4212   -1.3731 N   0  0  0  0  0  0  0  0  0  0  0  0
   10.3428   -0.9732   -0.3210 C   0  0  2  0  0  0  0  0  0  0  0  0
    8.8841   -0.9503   -0.8409 C   0  0  0  0  0  0  0  0  0  0  0  0
    8.3981    0.0699   -1.3360 O   0  0  0  0  0  0  0  0  0  0  0  0
    8.1319   -2.0968   -0.7225 N   0  0  0  0  0  0  0  0  0  0  0  0
    8.6128   -3.4081   -0.3067 C   0  0  0  0  0  0  0  0  0  0  0  0
    7.4046   -4.3274   -0.4241 C   0  0  0  0  0  0  0  0  0  0  0  0
    6.5777   -3.6769   -1.5270 C   0  0  0  0  0  0  0  0  0  0  0  0
    6.7698   -2.1836   -1.2634 C   0  0  1  0  0  0  0  0  0  0  0  0
    5.7489   -1.6336   -0.2441 C   0  0  0  0  0  0  0  0  0  0  0  0
    4.9159   -2.3409    0.3204 O   0  0  0  0  0  0  0  0  0  0  0  0
    5.8188   -0.2731   -0.0400 N   0  0  0  0  0  0  0  0  0  0  0  0
    5.0643    0.3692    1.0193 C   0  0  1  0  0  0  0  0  0  0  0  0
    5.9951    0.7701    2.1359 C   0  0  0  0  0  0  0  0  0  0  0  0
    6.5791   -0.0470    3.0932 C   0  0  0  0  0  0  0  0  0  0  0  0
    7.4423    0.5371    4.0226 C   0  0  0  0  0  0  0  0  0  0  0  0
    7.7178    1.9114    3.9766 C   0  0  0  0  0  0  0  0  0  0  0  0
    7.1357    2.7257    3.0037 C   0  0  0  0  0  0  0  0  0  0  0  0
    6.2667    2.1415    2.0945 C   0  0  0  0  0  0  0  0  0  0  0  0
    5.5314    2.7982    0.9700 C   0  0  0  0  0  0  0  0  0  0  0  0
    4.4441    1.7500    0.6400 C   0  0  1  0  0  0  0  0  0  0  0  0
    4.0201    1.9198   -0.7111 O   0  0  0  0  0  0  0  0  0  0  0  0
    3.0766    0.9627   -1.1952 C   0  0  0  0  0  0  0  0  0  0  0  0
    1.7979    0.9729   -0.4795 C   0  0  0  0  0  0  0  0  0  0  0  0
    0.7197    0.8912    0.0449 C   0  0  0  0  0  0  0  0  0  0  0  0
   -0.6948    0.6884    0.6237 C   0  0  0  0  0  0  0  0  0  0  0  0
   -1.8211    0.4703    0.9796 C   0  0  0  0  0  0  0  0  0  0  0  0
   -3.2073    0.1649    1.3441 C   0  0  0  0  0  0  0  0  0  0  0  0
   -4.1747    0.9861    0.6725 O   0  0  0  0  0  0  0  0  0  0  0  0
   -4.0763    0.9799   -0.7678 C   0  0  2  0  0  0  0  0  0  0  0  0
   -3.3487    2.2589   -1.2342 C   0  0  0  0  0  0  0  0  0  0  0  0
   -4.4784    3.1638   -1.6186 C   0  0  0  0  0  0  0  0  0  0  0  0
   -4.3891    4.5154   -1.9239 C   0  0  0  0  0  0  0  0  0  0  0  0
   -5.5358    5.1680   -2.3731 C   0  0  0  0  0  0  0  0  0  0  0  0
   -6.7354    4.4643   -2.5393 C   0  0  0  0  0  0  0  0  0  0  0  0
   -6.8117    3.1032   -2.2329 C   0  0  0  0  0  0  0  0  0  0  0  0
   -5.6822    2.4665   -1.7433 C   0  0  0  0  0  0  0  0  0  0  0  0
   -5.4977    1.0120   -1.4158 C   0  0  2  0  0  0  0  0  0  0  0  0
   -6.4898    0.4402   -0.5243 N   0  0  0  0  0  0  0  0  0  0  0  0
   -7.5920   -0.2487   -0.9641 C   0  0  0  0  0  0  0  0  0  0  0  0
   -8.0302   -0.1198   -2.1062 O   0  0  0  0  0  0  0  0  0  0  0  0
   -8.1885   -1.2575    0.0650 C   0  0  2  0  0  0  0  0  0  0  0  0
   -7.1191   -2.2677    0.4871 C   0  0  0  0  0  0  0  0  0  0  0  0
   -7.0646   -3.2297   -0.7017 C   0  0  0  0  0  0  0  0  0  0  0  0
   -8.4815   -3.2234   -1.2677 C   0  0  0  0  0  0  0  0  0  0  0  0
   -9.1604   -2.1349   -0.5872 N   0  0  0  0  0  0  0  0  0  0  0  0
  -10.5170   -1.9743   -0.7287 C   0  0  0  0  0  0  0  0  0  0  0  0
  -11.1200   -2.5305   -1.6519 O   0  0  0  0  0  0  0  0  0  0  0  0
  -11.2800   -1.1217    0.3172 C   0  0  1  0  0  0  0  0  0  0  0  0
  -11.4060    0.2475   -0.1853 N   0  0  0  0  0  0  0  0  0  0  0  0
  -10.6817    1.2902    0.3456 C   0  0  0  0  0  0  0  0  0  0  0  0
   -9.9684    1.1465    1.3349 O   0  0  0  0  0  0  0  0  0  0  0  0
  -10.8043    2.6336   -0.4099 C   0  0  2  0  0  0  0  0  0  0  0  0
   -9.6290    3.5338   -0.0142 C   0  0  0  0  0  0  0  0  0  0  0  0
  -12.0439    3.3691   -0.0756 N   0  0  0  0  0  0  0  0  0  0  0  0
  -13.2610    2.7509   -0.5813 C   0  0  0  0  0  0  0  0  0  0  0  0
  -12.6754   -1.7670    0.5795 C   0  0  0  0  0  0  0  0  0  0  0  0
  -13.5658   -0.8797    1.4739 C   0  0  0  0  0  0  0  0  0  0  0  0
  -14.6470   -1.6929    2.1824 C   0  0  0  0  0  0  0  0  0  0  0  0
  -14.0405   -2.7226    3.1333 C   0  0  0  0  0  0  0  0  0  0  0  0
  -12.6711   -3.2302    2.6778 C   0  0  0  0  0  0  0  0  0  0  0  0
  -12.5385   -3.1981    1.1599 C   0  0  0  0  0  0  0  0  0  0  0  0
   10.4375   -0.1885    1.0131 C   0  0  0  0  0  0  0  0  0  0  0  0
   11.6782   -0.6200    1.8170 C   0  0  0  0  0  0  0  0  0  0  0  0
   11.9478    0.3271    2.9822 C   0  0  0  0  0  0  0  0  0  0  0  0
   12.2092    1.7568    2.5164 C   0  0  0  0  0  0  0  0  0  0  0  0
   11.6940    2.0409    1.1053 C   0  0  0  0  0  0  0  0  0  0  0  0
   10.3594    1.3500    0.8525 C   0  0  0  0  0  0  0  0  0  0  0  0
   14.2144   -1.9215   -4.8524 H   0  0  0  0  0  0  0  0  0  0  0  0
   15.6047   -2.3716   -3.8833 H   0  0  0  0  0  0  0  0  0  0  0  0
   13.9941   -2.8377   -3.3432 H   0  0  0  0  0  0  0  0  0  0  0  0
   14.9003   -0.9585   -2.1557 H   0  0  0  0  0  0  0  0  0  0  0  0
   13.2715    0.7808   -2.5323 H   0  0  0  0  0  0  0  0  0  0  0  0
   12.8621    0.2543   -4.9860 H   0  0  0  0  0  0  0  0  0  0  0  0
   11.3936    0.3965   -4.0204 H   0  0  0  0  0  0  0  0  0  0  0  0
   11.9757   -1.2038   -4.4713 H   0  0  0  0  0  0  0  0  0  0  0  0
   10.8439    0.3939   -1.8630 H   0  0  0  0  0  0  0  0  0  0  0  0
   10.6520   -2.0038   -0.1417 H   0  0  0  0  0  0  0  0  0  0  0  0
    9.0075   -3.3683    0.7112 H   0  0  0  0  0  0  0  0  0  0  0  0
    9.4077   -3.7221   -0.9963 H   0  0  0  0  0  0  0  0  0  0  0  0
    7.6861   -5.3608   -0.6597 H   0  0  0  0  0  0  0  0  0  0  0  0
    6.8384   -4.3335    0.5157 H   0  0  0  0  0  0  0  0  0  0  0  0
    5.5329   -4.0019   -1.5217 H   0  0  0  0  0  0  0  0  0  0  0  0
    7.0063   -3.9352   -2.5053 H   0  0  0  0  0  0  0  0  0  0  0  0
    6.6769   -1.6021   -2.1882 H   0  0  0  0  0  0  0  0  0  0  0  0
    6.6192    0.2278   -0.4295 H   0  0  0  0  0  0  0  0  0  0  0  0
    4.2756   -0.2949    1.3958 H   0  0  0  0  0  0  0  0  0  0  0  0
    6.3682   -1.1109    3.1202 H   0  0  0  0  0  0  0  0  0  0  0  0
    7.9066   -0.0819    4.7878 H   0  0  0  0  0  0  0  0  0  0  0  0
    8.3966    2.3455    4.7070 H   0  0  0  0  0  0  0  0  0  0  0  0
    7.3566    3.7857    2.9649 H   0  0  0  0  0  0  0  0  0  0  0  0
    6.1955    2.9843    0.1162 H   0  0  0  0  0  0  0  0  0  0  0  0
    5.0694    3.7440    1.2757 H   0  0  0  0  0  0  0  0  0  0  0  0
    3.5953    1.9489    1.3097 H   0  0  0  0  0  0  0  0  0  0  0  0
    3.5134   -0.0381   -1.1994 H   0  0  0  0  0  0  0  0  0  0  0  0
    2.8964    1.2206   -2.2439 H   0  0  0  0  0  0  0  0  0  0  0  0
   -3.3541    0.3300    2.4198 H   0  0  0  0  0  0  0  0  0  0  0  0
   -3.4451   -0.8871    1.1479 H   0  0  0  0  0  0  0  0  0  0  0  0
   -3.5539    0.0702   -1.0886 H   0  0  0  0  0  0  0  0  0  0  0  0
   -2.7365    2.0548   -2.1171 H   0  0  0  0  0  0  0  0  0  0  0  0
   -2.7416    2.7190   -0.4506 H   0  0  0  0  0  0  0  0  0  0  0  0
   -3.4504    5.0479   -1.8157 H   0  0  0  0  0  0  0  0  0  0  0  0
   -5.4903    6.2263   -2.6178 H   0  0  0  0  0  0  0  0  0  0  0  0
   -7.6112    4.9810   -2.9198 H   0  0  0  0  0  0  0  0  0  0  0  0
   -7.7303    2.5526   -2.3957 H   0  0  0  0  0  0  0  0  0  0  0  0
   -5.4815    0.4512   -2.3612 H   0  0  0  0  0  0  0  0  0  0  0  0
   -6.3226    0.5676    0.4704 H   0  0  0  0  0  0  0  0  0  0  0  0
   -8.6034   -0.7236    0.9140 H   0  0  0  0  0  0  0  0  0  0  0  0
   -6.1407   -1.8333    0.7069 H   0  0  0  0  0  0  0  0  0  0  0  0
   -7.4532   -2.8107    1.3795 H   0  0  0  0  0  0  0  0  0  0  0  0
   -6.7373   -4.2308   -0.4068 H   0  0  0  0  0  0  0  0  0  0  0  0
   -6.3557   -2.8630   -1.4525 H   0  0  0  0  0  0  0  0  0  0  0  0
   -9.0144   -4.1602   -1.0690 H   0  0  0  0  0  0  0  0  0  0  0  0
   -8.4832   -3.0410   -2.3486 H   0  0  0  0  0  0  0  0  0  0  0  0
  -10.7242   -1.1262    1.2559 H   0  0  0  0  0  0  0  0  0  0  0  0
  -11.7878    0.3536   -1.1177 H   0  0  0  0  0  0  0  0  0  0  0  0
  -10.7470    2.4418   -1.4906 H   0  0  0  0  0  0  0  0  0  0  0  0
   -9.6842    3.8349    1.0433 H   0  0  0  0  0  0  0  0  0  0  0  0
   -8.6771    3.0084   -0.1428 H   0  0  0  0  0  0  0  0  0  0  0  0
   -9.6039    4.4489   -0.6195 H   0  0  0  0  0  0  0  0  0  0  0  0
  -11.9726    4.3138   -0.4523 H   0  0  0  0  0  0  0  0  0  0  0  0
  -13.1744    2.4522   -1.6345 H   0  0  0  0  0  0  0  0  0  0  0  0
  -14.0849    3.4692   -0.5096 H   0  0  0  0  0  0  0  0  0  0  0  0
  -13.5423    1.8874    0.0273 H   0  0  0  0  0  0  0  0  0  0  0  0
  -13.1901   -1.8648   -0.3865 H   0  0  0  0  0  0  0  0  0  0  0  0
  -14.0492   -0.1139    0.8589 H   0  0  0  0  0  0  0  0  0  0  0  0
  -12.9619   -0.3548    2.2248 H   0  0  0  0  0  0  0  0  0  0  0  0
  -15.3209   -1.0281    2.7366 H   0  0  0  0  0  0  0  0  0  0  0  0
  -15.2632   -2.2052    1.4317 H   0  0  0  0  0  0  0  0  0  0  0  0
  -14.7373   -3.5616    3.2353 H   0  0  0  0  0  0  0  0  0  0  0  0
  -13.9418   -2.2895    4.1375 H   0  0  0  0  0  0  0  0  0  0  0  0
  -12.5180   -4.2477    3.0547 H   0  0  0  0  0  0  0  0  0  0  0  0
  -11.8841   -2.6094    3.1248 H   0  0  0  0  0  0  0  0  0  0  0  0
  -11.5905   -3.6655    0.8758 H   0  0  0  0  0  0  0  0  0  0  0  0
  -13.3245   -3.8320    0.7255 H   0  0  0  0  0  0  0  0  0  0  0  0
    9.5605   -0.4778    1.6133 H   0  0  0  0  0  0  0  0  0  0  0  0
   11.5291   -1.6360    2.2019 H   0  0  0  0  0  0  0  0  0  0  0  0
   12.5701   -0.6530    1.1785 H   0  0  0  0  0  0  0  0  0  0  0  0
   11.0863    0.3165    3.6638 H   0  0  0  0  0  0  0  0  0  0  0  0
   12.8056   -0.0279    3.5666 H   0  0  0  0  0  0  0  0  0  0  0  0
   11.7324    2.4512    3.2264 H   0  0  0  0  0  0  0  0  0  0  0  0
   13.2850    1.9750    2.5515 H   0  0  0  0  0  0  0  0  0  0  0  0
   12.4281    1.6973    0.3690 H   0  0  0  0  0  0  0  0  0  0  0  0
   11.5902    3.1223    0.9622 H   0  0  0  0  0  0  0  0  0  0  0  0
    9.9788    1.6423   -0.1332 H   0  0  0  0  0  0  0  0  0  0  0  0
    9.6244    1.7393    1.5728 H   0  0  0  0  0  0  0  0  0  0  0  0
  1  2  1  0
  2  3  1  0
  3  4  1  0
  3  5  1  0
  5  6  2  0
  5  7  1  0
  7  8  1  0
  8  9  1  0
  9 10  2  0
  9 11  1  0
 11 12  1  0
 12 13  1  0
 13 14  1  0
 14 15  1  0
 15 16  1  0
 16 17  2  0
 16 18  1  0
 18 19  1  0
 19 20  1  0
 20 21  2  0
 21 22  1  0
 22 23  2  0
 23 24  1  0
 24 25  2  0
 25 26  1  0
 26 27  1  0
 27 28  1  0
 28 29  1  0
 29 30  1  0
 30 31  3  0
 31 32  1  0
 32 33  3  0
 33 34  1  0
 34 35  1  0
 35 36  1  0
 36 37  1  0
 37 38  1  0
 38 39  2  0
 39 40  1  0
 40 41  2  0
 41 42  1  0
 42 43  2  0
 43 44  1  0
 44 45  1  0
 45 46  1  0
 46 47  2  0
 46 48  1  0
 48 49  1  0
 49 50  1  0
 50 51  1  0
 51 52  1  0
 52 53  1  0
 53 54  2  0
 53 55  1  0
 55 56  1  0
 56 57  1  0
 57 58  2  0
 57 59  1  0
 59 60  1  0
 59 61  1  0
 61 62  1  0
 55 63  1  0
 63 64  1  0
 64 65  1  0
 65 66  1  0
 66 67  1  0
 67 68  1  0
  8 69  1  0
 69 70  1  0
 70 71  1  0
 71 72  1  0
 72 73  1  0
 73 74  1  0
 15 11  1  0
 27 19  1  0
 44 36  1  0
 52 48  1  0
 68 63  1  0
 74 69  1  0
 25 20  1  0
 43 38  1  0
  1 75  1  0
  1 76  1  0
  1 77  1  0
  2 78  1  0
  3 79  1  1
  4 80  1  0
  4 81  1  0
  4 82  1  0
  7 83  1  0
  8 84  1  1
 12 85  1  0
 12 86  1  0
 13 87  1  0
 13 88  1  0
 14 89  1  0
 14 90  1  0
 15 91  1  6
 18 92  1  0
 19 93  1  1
 21 94  1  0
 22 95  1  0
 23 96  1  0
 24 97  1  0
 26 98  1  0
 26 99  1  0
 27100  1  1
 29101  1  0
 29102  1  0
 34103  1  0
 34104  1  0
 36105  1  1
 37106  1  0
 37107  1  0
 39108  1  0
 40109  1  0
 41110  1  0
 42111  1  0
 44112  1  6
 45113  1  0
 48114  1  1
 49115  1  0
 49116  1  0
 50117  1  0
 50118  1  0
 51119  1  0
 51120  1  0
 55121  1  1
 56122  1  0
 59123  1  6
 60124  1  0
 60125  1  0
 60126  1  0
 61127  1  0
 62128  1  0
 62129  1  0
 62130  1  0
 63131  1  0
 64132  1  0
 64133  1  0
 65134  1  0
 65135  1  0
 66136  1  0
 66137  1  0
 67138  1  0
 67139  1  0
 68140  1  0
 68141  1  0
 69142  1  0
 70143  1  0
 70144  1  0
 71145  1  0
 71146  1  0
 72147  1  0
 72148  1  0
 73149  1  0
 73150  1  0
 74151  1  0
 74152  1  0
M  END
$$$$
