
     RDKit          3D

 77 80  0  0  0  0  0  0  0  0999 V2000
   -1.5090   -3.5584   -1.3664 C   0  0  0  0  0  0  0  0  0  0  0  0
   -2.7517   -3.7791   -0.4940 C   0  0  0  0  0  0  0  0  0  0  0  0
   -3.2962   -5.1960   -0.7732 C   0  0  0  0  0  0  0  0  0  0  0  0
   -2.3582   -3.8091    0.8823 O   0  0  0  0  0  0  0  0  0  0  0  0
   -3.7723   -2.6452   -0.7162 C   0  0  0  0  0  0  0  0  0  0  0  0
   -4.8367   -2.8537   -1.6274 C   0  0  0  0  0  0  0  0  0  0  0  0
   -5.8296   -1.8960   -1.8452 C   0  0  0  0  0  0  0  0  0  0  0  0
   -5.7884   -0.6967   -1.1585 C   0  0  0  0  0  0  0  0  0  0  0  0
   -4.7400   -0.4451   -0.2757 C   0  0  0  0  0  0  0  0  0  0  0  0
   -3.7024   -1.3785   -0.0631 C   0  0  0  0  0  0  0  0  0  0  0  0
   -2.5925   -1.0297    0.9148 C   0  0  0  0  0  0  0  0  0  0  0  0
   -2.2289    0.4519    1.1365 C   0  0  0  0  0  0  0  0  0  0  0  0
   -1.7878    1.2260   -0.1259 C   0  0  1  0  0  0  0  0  0  0  0  0
   -1.3221    2.9439    0.3606 S   0  0  0  0  0  0  0  0  0  0  0  0
   -2.9838    3.7022    0.4165 C   0  0  0  0  0  0  0  0  0  0  0  0
   -2.9242    4.9855    1.2235 C   0  0  0  0  0  0  0  0  0  0  0  0
   -2.4427    6.2124    0.4545 C   0  0  0  0  0  0  0  0  0  0  0  0
   -3.5246    6.8812   -0.4100 C   0  0  0  0  0  0  0  0  0  0  0  0
   -3.7520    8.0954   -0.1399 O   0  0  0  0  0  0  0  0  0  0  0  0
   -4.0503    6.1544   -1.3022 O   0  0  0  0  0  1  0  0  0  0  0  0
   -2.6060    4.8813    2.7099 C   0  0  0  0  0  0  0  0  0  0  0  0
   -3.9957    5.2255    2.2781 C   0  0  0  0  0  0  0  0  0  0  0  0
   -0.6278    0.5803   -0.8708 C   0  0  0  0  0  0  0  0  0  0  0  0
   -0.7678    0.2676   -2.2306 C   0  0  0  0  0  0  0  0  0  0  0  0
    0.2778   -0.3319   -2.9330 C   0  0  0  0  0  0  0  0  0  0  0  0
    1.4833   -0.6165   -2.2895 C   0  0  0  0  0  0  0  0  0  0  0  0
    1.6631   -0.2916   -0.9402 C   0  0  0  0  0  0  0  0  0  0  0  0
    2.9116   -0.5727   -0.2131 C   0  0  0  0  0  0  0  0  0  0  0  0
    4.1350   -0.5366   -0.7659 C   0  0  0  0  0  0  0  0  0  0  0  0
    5.3894   -0.7891   -0.0503 C   0  0  0  0  0  0  0  0  0  0  0  0
    5.5801   -0.4396    1.2803 C   0  0  0  0  0  0  0  0  0  0  0  0
    6.8214   -0.6770    1.8614 C   0  0  0  0  0  0  0  0  0  0  0  0
    7.8464   -1.2458    1.0998 C   0  0  0  0  0  0  0  0  0  0  0  0
    9.1178   -1.4985    1.6435 C   0  0  0  0  0  0  0  0  0  0  0  0
   10.1182   -2.0560    0.8506 C   0  0  0  0  0  0  0  0  0  0  0  0
    9.8450   -2.3573   -0.4791 C   0  0  0  0  0  0  0  0  0  0  0  0
   11.0799   -3.0398   -1.4679 Cl  0  0  0  0  0  0  0  0  0  0  0  0
    8.5835   -2.1076   -1.0188 C   0  0  0  0  0  0  0  0  0  0  0  0
    7.5717   -1.5546   -0.2497 C   0  0  0  0  0  0  0  0  0  0  0  0
    6.3721   -1.3281   -0.8106 N   0  0  0  0  0  0  0  0  0  0  0  0
    0.5968    0.2927   -0.2401 C   0  0  0  0  0  0  0  0  0  0  0  0
    0.0000    0.0000    0.0000 Na  0  0  0  0  0 15  0  0  0  0  0  0
   -0.7702   -4.3530   -1.2070 H   0  0  0  0  0  0  0  0  0  0  0  0
   -0.9999   -2.6241   -1.1210 H   0  0  0  0  0  0  0  0  0  0  0  0
   -1.7629   -3.5348   -2.4315 H   0  0  0  0  0  0  0  0  0  0  0  0
   -3.5179   -5.3631   -1.8324 H   0  0  0  0  0  0  0  0  0  0  0  0
   -2.5659   -5.9590   -0.4735 H   0  0  0  0  0  0  0  0  0  0  0  0
   -4.2041   -5.3921   -0.1877 H   0  0  0  0  0  0  0  0  0  0  0  0
   -1.6707   -4.4835    0.9881 H   0  0  0  0  0  0  0  0  0  0  0  0
   -4.9273   -3.7806   -2.1855 H   0  0  0  0  0  0  0  0  0  0  0  0
   -6.6443   -2.0969   -2.5381 H   0  0  0  0  0  0  0  0  0  0  0  0
   -6.5671    0.0490   -1.3036 H   0  0  0  0  0  0  0  0  0  0  0  0
   -4.7563    0.5059    0.2498 H   0  0  0  0  0  0  0  0  0  0  0  0
   -2.8875   -1.4445    1.8869 H   0  0  0  0  0  0  0  0  0  0  0  0
   -1.6669   -1.5308    0.6264 H   0  0  0  0  0  0  0  0  0  0  0  0
   -1.4262    0.4751    1.8870 H   0  0  0  0  0  0  0  0  0  0  0  0
   -3.0800    0.9533    1.6126 H   0  0  0  0  0  0  0  0  0  0  0  0
   -2.6338    1.3172   -0.8163 H   0  0  0  0  0  0  0  0  0  0  0  0
   -3.3304    3.8711   -0.6059 H   0  0  0  0  0  0  0  0  0  0  0  0
   -3.6832    3.0027    0.8874 H   0  0  0  0  0  0  0  0  0  0  0  0
   -1.6143    5.9373   -0.2096 H   0  0  0  0  0  0  0  0  0  0  0  0
   -2.0285    6.9535    1.1512 H   0  0  0  0  0  0  0  0  0  0  0  0
   -2.4392    3.9001    3.1378 H   0  0  0  0  0  0  0  0  0  0  0  0
   -2.0042    5.6578    3.1628 H   0  0  0  0  0  0  0  0  0  0  0  0
   -4.7792    4.4854    2.3966 H   0  0  0  0  0  0  0  0  0  0  0  0
   -4.3389    6.2445    2.4276 H   0  0  0  0  0  0  0  0  0  0  0  0
   -1.6976    0.4891   -2.7518 H   0  0  0  0  0  0  0  0  0  0  0  0
    0.1520   -0.5723   -3.9861 H   0  0  0  0  0  0  0  0  0  0  0  0
    2.2785   -1.0923   -2.8568 H   0  0  0  0  0  0  0  0  0  0  0  0
    2.7832   -0.7981    0.8430 H   0  0  0  0  0  0  0  0  0  0  0  0
    4.2695   -0.3154   -1.8213 H   0  0  0  0  0  0  0  0  0  0  0  0
    4.7915    0.0271    1.8611 H   0  0  0  0  0  0  0  0  0  0  0  0
    6.9794   -0.4059    2.9021 H   0  0  0  0  0  0  0  0  0  0  0  0
    9.3341   -1.2573    2.6829 H   0  0  0  0  0  0  0  0  0  0  0  0
   11.1006   -2.2487    1.2731 H   0  0  0  0  0  0  0  0  0  0  0  0
    8.3800   -2.3427   -2.0604 H   0  0  0  0  0  0  0  0  0  0  0  0
    0.7251    0.5564    0.8085 H   0  0  0  0  0  0  0  0  0  0  0  0
  1  2  1  0
  2  3  1  0
  2  4  1  0
  2  5  1  0
  5  6  2  0
  6  7  1  0
  7  8  2  0
  8  9  1  0
  9 10  2  0
 10 11  1  0
 11 12  1  0
 12 13  1  0
 13 14  1  0
 14 15  1  0
 15 16  1  0
 16 17  1  0
 17 18  1  0
 18 19  2  0
 18 20  1  0
 16 21  1  0
 21 22  1  0
 13 23  1  0
 23 24  2  0
 24 25  1  0
 25 26  2  0
 26 27  1  0
 27 28  1  0
 28 29  2  0
 29 30  1  0
 30 31  2  0
 31 32  1  0
 32 33  2  0
 33 34  1  0
 34 35  2  0
 35 36  1  0
 36 37  1  0
 36 38  2  0
 38 39  1  0
 39 40  2  0
 27 41  2  0
 10  5  1  0
 22 16  1  0
 41 23  1  0
 40 30  1  0
 39 33  1  0
  1 43  1  0
  1 44  1  0
  1 45  1  0
  3 46  1  0
  3 47  1  0
  3 48  1  0
  4 49  1  0
  6 50  1  0
  7 51  1  0
  8 52  1  0
  9 53  1  0
 11 54  1  0
 11 55  1  0
 12 56  1  0
 12 57  1  0
 13 58  1  6
 15 59  1  0
 15 60  1  0
 17 61  1  0
 17 62  1  0
 21 63  1  0
 21 64  1  0
 22 65  1  0
 22 66  1  0
 24 67  1  0
 25 68  1  0
 26 69  1  0
 28 70  1  0
 29 71  1  0
 31 72  1  0
 32 73  1  0
 34 74  1  0
 35 75  1  0
 38 76  1  0
 41 77  1  0
M  CHG  2  20  -1  42   1
M  END
$$$$
