
     RDKit          3D

 55 57  0  0  0  0  0  0  0  0999 V2000
   11.5938    0.1863   -0.1520 C   0  0  0  0  0  0  0  0  0  0  0  0
   10.5687    1.0038   -0.7078 O   0  0  0  0  0  0  0  0  0  0  0  0
    9.2874    0.7354   -0.3103 C   0  0  0  0  0  0  0  0  0  0  0  0
    8.3091    1.5023   -0.9414 C   0  0  0  0  0  0  0  0  0  0  0  0
    6.9560    1.3241   -0.6347 C   0  0  0  0  0  0  0  0  0  0  0  0
    6.5593    0.3751    0.3142 C   0  0  0  0  0  0  0  0  0  0  0  0
    5.1778    0.2490    0.5512 N   0  0  0  0  0  0  0  0  0  0  0  0
    4.5217   -0.6123    1.4247 C   0  0  0  0  0  0  0  0  0  0  0  0
    5.0796   -1.4071    2.1794 O   0  0  0  0  0  0  0  0  0  0  0  0
    3.0725   -0.4731    1.3407 C   0  0  0  0  0  0  0  0  0  0  0  0
    2.4837    0.3918    0.5355 N   0  0  0  0  0  0  0  0  0  0  0  0
    1.1089    0.3164    0.6201 N   0  0  0  0  0  0  0  0  0  0  0  0
    0.7071   -0.6082    1.4722 C   0  0  0  0  0  0  0  0  0  0  0  0
   -0.7214   -0.9477    1.7514 C   0  0  0  0  0  0  0  0  0  0  0  0
   -1.3268   -2.3011    0.6798 S   0  0  0  0  0  0  0  0  0  0  0  0
   -1.4050   -1.4245   -0.9138 C   0  0  0  0  0  0  0  0  0  0  0  0
   -2.6429   -0.5429   -0.9813 C   0  0  0  0  0  0  0  0  0  0  0  0
   -2.7780    0.4661   -0.2938 O   0  0  0  0  0  0  0  0  0  0  0  0
   -3.6065   -0.9744   -1.8735 N   0  0  0  0  0  0  0  0  0  0  0  0
   -4.8784   -0.2844   -2.0049 C   0  0  0  0  0  0  0  0  0  0  0  0
   -5.8575   -0.6434   -0.8711 C   0  0  0  0  0  0  0  0  0  0  0  0
   -7.2076   -0.0876   -1.0675 N   0  0  0  0  0  0  0  0  0  0  0  0
   -7.1973    1.3935   -1.0229 C   0  0  0  0  0  0  0  0  0  0  0  0
   -8.5729    1.9655   -0.6392 C   0  0  0  0  0  0  0  0  0  0  0  0
   -8.9798    1.5927    0.6899 O   0  0  0  0  0  0  0  0  0  0  0  0
   -8.4567    0.3232    1.0968 C   0  0  0  0  0  0  0  0  0  0  0  0
   -8.1739   -0.6264   -0.0817 C   0  0  0  0  0  0  0  0  0  0  0  0
    1.9968   -1.4317    2.2669 S   0  0  0  0  0  0  0  0  0  0  0  0
    7.5405   -0.3854    0.9520 C   0  0  0  0  0  0  0  0  0  0  0  0
    8.8982   -0.2065    0.6419 C   0  0  0  0  0  0  0  0  0  0  0  0
   11.6815    0.3464    0.9284 H   0  0  0  0  0  0  0  0  0  0  0  0
   12.5432    0.4824   -0.6103 H   0  0  0  0  0  0  0  0  0  0  0  0
   11.4284   -0.8727   -0.3836 H   0  0  0  0  0  0  0  0  0  0  0  0
    8.6017    2.2420   -1.6821 H   0  0  0  0  0  0  0  0  0  0  0  0
    6.2232    1.9367   -1.1531 H   0  0  0  0  0  0  0  0  0  0  0  0
    4.5636    0.8543    0.0092 H   0  0  0  0  0  0  0  0  0  0  0  0
   -1.3537   -0.0637    1.6384 H   0  0  0  0  0  0  0  0  0  0  0  0
   -0.8354   -1.2755    2.7909 H   0  0  0  0  0  0  0  0  0  0  0  0
   -1.4387   -2.1816   -1.7022 H   0  0  0  0  0  0  0  0  0  0  0  0
   -0.5182   -0.8175   -1.0991 H   0  0  0  0  0  0  0  0  0  0  0  0
   -3.5251   -1.8959   -2.2834 H   0  0  0  0  0  0  0  0  0  0  0  0
   -4.6847    0.7916   -2.0261 H   0  0  0  0  0  0  0  0  0  0  0  0
   -5.2962   -0.5747   -2.9732 H   0  0  0  0  0  0  0  0  0  0  0  0
   -5.4472   -0.3378    0.0994 H   0  0  0  0  0  0  0  0  0  0  0  0
   -5.9253   -1.7389   -0.8441 H   0  0  0  0  0  0  0  0  0  0  0  0
   -6.4652    1.7507   -0.2854 H   0  0  0  0  0  0  0  0  0  0  0  0
   -6.9051    1.7804   -2.0070 H   0  0  0  0  0  0  0  0  0  0  0  0
   -9.3479    1.6301   -1.3441 H   0  0  0  0  0  0  0  0  0  0  0  0
   -8.5473    3.0600   -0.6797 H   0  0  0  0  0  0  0  0  0  0  0  0
   -7.5467    0.4985    1.6795 H   0  0  0  0  0  0  0  0  0  0  0  0
   -9.1928   -0.1261    1.7699 H   0  0  0  0  0  0  0  0  0  0  0  0
   -9.1170   -0.7924   -0.6201 H   0  0  0  0  0  0  0  0  0  0  0  0
   -7.8635   -1.6082    0.2949 H   0  0  0  0  0  0  0  0  0  0  0  0
    7.2899   -1.1339    1.6986 H   0  0  0  0  0  0  0  0  0  0  0  0
    9.6219   -0.8226    1.1673 H   0  0  0  0  0  0  0  0  0  0  0  0
  1  2  1  0
  2  3  1  0
  3  4  2  0
  4  5  1  0
  5  6  2  0
  6  7  1  0
  7  8  1  0
  8  9  2  0
  8 10  1  0
 10 11  2  0
 11 12  1  0
 12 13  2  0
 13 14  1  0
 14 15  1  0
 15 16  1  0
 16 17  1  0
 17 18  2  0
 17 19  1  0
 19 20  1  0
 20 21  1  0
 21 22  1  0
 22 23  1  0
 23 24  1  0
 24 25  1  0
 25 26  1  0
 26 27  1  0
 13 28  1  0
  6 29  1  0
 29 30  2  0
 30  3  1  0
 28 10  1  0
 27 22  1  0
  1 31  1  0
  1 32  1  0
  1 33  1  0
  4 34  1  0
  5 35  1  0
  7 36  1  0
 14 37  1  0
 14 38  1  0
 16 39  1  0
 16 40  1  0
 19 41  1  0
 20 42  1  0
 20 43  1  0
 21 44  1  0
 21 45  1  0
 23 46  1  0
 23 47  1  0
 24 48  1  0
 24 49  1  0
 26 50  1  0
 26 51  1  0
 27 52  1  0
 27 53  1  0
 29 54  1  0
 30 55  1  0
M  END
$$$$
