
     RDKit          3D

 52 55  0  0  0  0  0  0  0  0999 V2000
   -4.1578   -3.4037   -0.6325 C   0  0  0  0  0  0  0  0  0  0  0  0
   -3.6542   -2.4135   -1.5297 O   0  0  0  0  0  0  0  0  0  0  0  0
   -3.9236   -1.1599   -1.0250 C   0  0  0  0  0  0  0  0  0  0  0  0
   -5.1146   -0.5338   -1.3873 C   0  0  0  0  0  0  0  0  0  0  0  0
   -5.4054    0.7444   -0.9134 C   0  0  0  0  0  0  0  0  0  0  0  0
   -4.5141    1.4433   -0.0815 C   0  0  0  0  0  0  0  0  0  0  0  0
   -4.7404    2.6954    0.4240 O   0  0  0  0  0  0  0  0  0  0  0  0
   -5.9260    3.3627    0.0104 C   0  0  0  0  0  0  0  0  0  0  0  0
   -3.2974    0.8011    0.2479 C   0  0  0  0  0  0  0  0  0  0  0  0
   -2.9895   -0.4812   -0.2168 C   0  0  0  0  0  0  0  0  0  0  0  0
   -1.7100   -0.8200    0.2921 C   0  0  0  0  0  0  0  0  0  0  0  0
   -1.2361    0.2350    1.0527 C   0  0  0  0  0  0  0  0  0  0  0  0
    0.0007    0.3133    1.8100 C   0  0  0  0  0  0  0  0  0  0  0  0
    0.0154    0.7123    2.9739 O   0  0  0  0  0  0  0  0  0  0  0  0
    1.1738   -0.0854    1.1741 N   0  0  0  0  0  0  0  0  0  0  0  0
    1.3281   -0.1700   -0.2874 C   0  0  0  0  0  0  0  0  0  0  0  0
    2.7643    0.1298   -0.7540 C   0  0  0  0  0  0  0  0  0  0  0  0
    3.7157   -0.7741   -0.0890 N   0  0  0  0  0  0  0  0  0  0  0  0
    5.0342   -0.6891   -0.5354 C   0  0  0  0  0  0  0  0  0  0  0  0
    5.9889   -1.6192   -0.1159 C   0  0  0  0  0  0  0  0  0  0  0  0
    7.3003   -1.5393   -0.5844 C   0  0  0  0  0  0  0  0  0  0  0  0
    7.6401   -0.5317   -1.4721 C   0  0  0  0  0  0  0  0  0  0  0  0
    6.6449    0.3457   -1.8566 C   0  0  0  0  0  0  0  0  0  0  0  0
    5.3680    0.2808   -1.4161 N   0  0  0  0  0  0  0  0  0  0  0  0
    3.4948   -1.0240    1.3477 C   0  0  0  0  0  0  0  0  0  0  0  0
    2.4137   -0.1073    1.9502 C   0  0  0  0  0  0  0  0  0  0  0  0
   -2.2164    1.2111    1.0193 N   0  0  0  0  0  0  0  0  0  0  0  0
   -2.1247    2.5038    1.6685 C   0  0  0  0  0  0  0  0  0  0  0  0
   -5.2531   -3.3780   -0.5985 H   0  0  0  0  0  0  0  0  0  0  0  0
   -3.8542   -4.3848   -1.0101 H   0  0  0  0  0  0  0  0  0  0  0  0
   -3.7430   -3.2864    0.3752 H   0  0  0  0  0  0  0  0  0  0  0  0
   -5.8155   -1.0447   -2.0410 H   0  0  0  0  0  0  0  0  0  0  0  0
   -6.3513    1.1814   -1.2168 H   0  0  0  0  0  0  0  0  0  0  0  0
   -5.9196    4.3619    0.4579 H   0  0  0  0  0  0  0  0  0  0  0  0
   -6.8184    2.8399    0.3727 H   0  0  0  0  0  0  0  0  0  0  0  0
   -5.9521    3.4880   -1.0770 H   0  0  0  0  0  0  0  0  0  0  0  0
   -1.1981   -1.7604    0.1341 H   0  0  0  0  0  0  0  0  0  0  0  0
    1.0607   -1.1935   -0.5745 H   0  0  0  0  0  0  0  0  0  0  0  0
    0.6363    0.5208   -0.7789 H   0  0  0  0  0  0  0  0  0  0  0  0
    2.8041   -0.0030   -1.8426 H   0  0  0  0  0  0  0  0  0  0  0  0
    3.0101    1.1757   -0.5250 H   0  0  0  0  0  0  0  0  0  0  0  0
    5.7148   -2.4259    0.5557 H   0  0  0  0  0  0  0  0  0  0  0  0
    8.0412   -2.2654   -0.2628 H   0  0  0  0  0  0  0  0  0  0  0  0
    8.6468   -0.4372   -1.8609 H   0  0  0  0  0  0  0  0  0  0  0  0
    6.8490    1.1510   -2.5560 H   0  0  0  0  0  0  0  0  0  0  0  0
    3.1812   -2.0688    1.4600 H   0  0  0  0  0  0  0  0  0  0  0  0
    4.4095   -0.8890    1.9380 H   0  0  0  0  0  0  0  0  0  0  0  0
    2.1997   -0.4181    2.9792 H   0  0  0  0  0  0  0  0  0  0  0  0
    2.7818    0.9263    1.9929 H   0  0  0  0  0  0  0  0  0  0  0  0
   -1.1096    2.6898    2.0192 H   0  0  0  0  0  0  0  0  0  0  0  0
   -2.8202    2.5124    2.5110 H   0  0  0  0  0  0  0  0  0  0  0  0
   -2.3725    3.2815    0.9423 H   0  0  0  0  0  0  0  0  0  0  0  0
  1  2  1  0
  2  3  1  0
  3  4  2  0
  4  5  1  0
  5  6  2  0
  6  7  1  0
  7  8  1  0
  6  9  1  0
  9 10  2  0
 10 11  1  0
 11 12  2  0
 12 13  1  0
 13 14  2  0
 13 15  1  0
 15 16  1  0
 16 17  1  0
 17 18  1  0
 18 19  1  0
 19 20  2  0
 20 21  1  0
 21 22  2  0
 22 23  1  0
 23 24  2  0
 18 25  1  0
 25 26  1  0
 12 27  1  0
 27 28  1  0
 10  3  1  0
 26 15  1  0
 27  9  1  0
 24 19  1  0
  1 29  1  0
  1 30  1  0
  1 31  1  0
  4 32  1  0
  5 33  1  0
  8 34  1  0
  8 35  1  0
  8 36  1  0
 11 37  1  0
 16 38  1  0
 16 39  1  0
 17 40  1  0
 17 41  1  0
 20 42  1  0
 21 43  1  0
 22 44  1  0
 23 45  1  0
 25 46  1  0
 25 47  1  0
 26 48  1  0
 26 49  1  0
 28 50  1  0
 28 51  1  0
 28 52  1  0
M  END
$$$$
