
     RDKit          3D

 49 51  0  0  0  0  0  0  0  0999 V2000
    6.7117    1.0230   -1.8929 C   0  0  0  0  0  0  0  0  0  0  0  0
    5.4812    0.8061   -1.0637 C   0  0  0  0  0  0  0  0  0  0  0  0
    5.5670    0.1917    0.1884 C   0  0  0  0  0  0  0  0  0  0  0  0
    4.4258    0.0153    0.9819 C   0  0  0  0  0  0  0  0  0  0  0  0
    3.1748    0.4614    0.5476 C   0  0  0  0  0  0  0  0  0  0  0  0
    1.9893    0.3009    1.3071 N   0  0  0  0  0  0  0  0  0  0  0  0
    1.8617   -0.2115    2.5882 C   0  0  0  0  0  0  0  0  0  0  0  0
    2.7925   -0.5204    3.3302 O   0  0  0  0  0  0  0  0  0  0  0  0
    0.4180   -0.2693    3.0930 C   0  0  0  0  0  0  0  0  0  0  0  0
   -0.4339   -1.1199    2.2578 N   0  0  0  0  0  0  0  0  0  0  0  0
   -0.5309   -2.4264    2.6480 N   0  0  0  0  0  0  0  0  0  0  0  0
   -1.2862   -3.1882    1.9334 C   0  0  0  0  0  0  0  0  0  0  0  0
   -2.0674   -2.7621    0.7617 C   0  0  0  0  0  0  0  0  0  0  0  0
   -1.9938   -1.4871    0.3436 C   0  0  0  0  0  0  0  0  0  0  0  0
   -1.0588   -0.5849    1.1368 C   0  0  0  0  0  0  0  0  0  0  0  0
   -0.8352    0.5825    0.8160 O   0  0  0  0  0  0  0  0  0  0  0  0
   -2.7050   -1.0227   -0.7916 N   0  0  0  0  0  0  0  0  0  0  0  0
   -2.3824    0.2672   -1.4264 C   0  0  0  0  0  0  0  0  0  0  0  0
   -3.1543    1.4655   -0.8290 C   0  0  0  0  0  0  0  0  0  0  0  0
   -4.6437    1.4384   -1.1786 C   0  0  0  0  0  0  0  0  0  0  0  0
   -2.5362    2.7752   -1.3242 C   0  0  0  0  0  0  0  0  0  0  0  0
   -3.7195   -1.7678   -1.4217 C   0  0  0  0  0  0  0  0  0  0  0  0
   -4.2361   -1.4319   -2.4909 O   0  0  0  0  0  0  0  0  0  0  0  0
   -4.2799   -2.9606   -0.6794 C   0  0  0  0  0  0  0  0  0  0  0  0
   -2.9809   -4.0009   -0.0088 S   0  0  0  0  0  0  0  0  0  0  0  0
    3.0969    1.0881   -0.7099 C   0  0  0  0  0  0  0  0  0  0  0  0
    1.5912    1.6740   -1.3304 Cl  0  0  0  0  0  0  0  0  0  0  0  0
    4.2364    1.2649   -1.5034 C   0  0  0  0  0  0  0  0  0  0  0  0
    6.4701    1.0104   -2.9609 H   0  0  0  0  0  0  0  0  0  0  0  0
    7.1655    1.9872   -1.6439 H   0  0  0  0  0  0  0  0  0  0  0  0
    7.4462    0.2300   -1.7171 H   0  0  0  0  0  0  0  0  0  0  0  0
    6.5263   -0.1609    0.5636 H   0  0  0  0  0  0  0  0  0  0  0  0
    4.5556   -0.4814    1.9384 H   0  0  0  0  0  0  0  0  0  0  0  0
    1.1393    0.6590    0.8665 H   0  0  0  0  0  0  0  0  0  0  0  0
    0.4126   -0.6631    4.1159 H   0  0  0  0  0  0  0  0  0  0  0  0
    0.0175    0.7501    3.1246 H   0  0  0  0  0  0  0  0  0  0  0  0
   -1.3684   -4.2497    2.2236 H   0  0  0  0  0  0  0  0  0  0  0  0
   -2.6056    0.2093   -2.4998 H   0  0  0  0  0  0  0  0  0  0  0  0
   -1.2985    0.4139   -1.3996 H   0  0  0  0  0  0  0  0  0  0  0  0
   -3.0803    1.4500    0.2642 H   0  0  0  0  0  0  0  0  0  0  0  0
   -5.1487    2.3304   -0.7918 H   0  0  0  0  0  0  0  0  0  0  0  0
   -4.7993    1.4085   -2.2622 H   0  0  0  0  0  0  0  0  0  0  0  0
   -5.1388    0.5700   -0.7339 H   0  0  0  0  0  0  0  0  0  0  0  0
   -2.5890    2.8518   -2.4156 H   0  0  0  0  0  0  0  0  0  0  0  0
   -3.0580    3.6386   -0.8979 H   0  0  0  0  0  0  0  0  0  0  0  0
   -1.4845    2.8457   -1.0289 H   0  0  0  0  0  0  0  0  0  0  0  0
   -4.8789   -3.5607   -1.3714 H   0  0  0  0  0  0  0  0  0  0  0  0
   -4.9371   -2.6013    0.1193 H   0  0  0  0  0  0  0  0  0  0  0  0
    4.1514    1.7616   -2.4673 H   0  0  0  0  0  0  0  0  0  0  0  0
  1  2  1  0
  2  3  2  0
  3  4  1  0
  4  5  2  0
  5  6  1  0
  6  7  1  0
  7  8  2  0
  7  9  1  0
  9 10  1  0
 10 11  1  0
 11 12  2  0
 12 13  1  0
 13 14  2  0
 14 15  1  0
 15 16  2  0
 14 17  1  0
 17 18  1  0
 18 19  1  0
 19 20  1  0
 19 21  1  0
 17 22  1  0
 22 23  2  0
 22 24  1  0
 24 25  1  0
  5 26  1  0
 26 27  1  0
 26 28  2  0
 28  2  1  0
 15 10  1  0
 25 13  1  0
  1 29  1  0
  1 30  1  0
  1 31  1  0
  3 32  1  0
  4 33  1  0
  6 34  1  0
  9 35  1  0
  9 36  1  0
 12 37  1  0
 18 38  1  0
 18 39  1  0
 19 40  1  0
 20 41  1  0
 20 42  1  0
 20 43  1  0
 21 44  1  0
 21 45  1  0
 21 46  1  0
 24 47  1  0
 24 48  1  0
 28 49  1  0
M  END
$$$$
