
     RDKit          3D

 72 74  0  0  0  0  0  0  0  0999 V2000
    6.9423   -3.2605    1.6404 C   0  0  0  0  0  0  0  0  0  0  0  0
    5.5688   -2.9317    1.6579 O   0  0  0  0  0  0  0  0  0  0  0  0
    5.1169   -1.8399    0.9389 C   0  0  0  0  0  0  0  0  0  0  0  0
    5.9278   -1.0176    0.1813 C   0  0  0  0  0  0  0  0  0  0  0  0
    5.4337    0.0622   -0.5215 C   0  0  0  0  0  0  0  0  0  0  0  0
    4.0958    0.3384   -0.4749 C   0  0  0  0  0  0  0  0  0  0  0  0
    3.2294   -0.4662    0.2796 C   0  0  0  0  0  0  0  0  0  0  0  0
    3.7515   -1.5144    0.9543 C   0  0  0  0  0  0  0  0  0  0  0  0
    1.8306   -0.0072    0.2016 C   0  0  0  0  0  0  0  0  0  0  0  0
    0.8306   -0.6825    0.9827 C   0  0  0  0  0  0  0  0  0  0  0  0
    0.9827   -1.7944    1.5182 O   0  0  0  0  0  0  0  0  0  0  0  0
   -0.4529   -0.0642    1.1904 N   0  0  0  0  0  0  0  0  0  0  0  0
   -1.4901   -0.7183    1.9513 C   0  0  0  0  0  0  0  0  0  0  0  0
   -2.3921   -1.5894    1.1794 C   0  0  0  0  0  0  0  0  0  0  0  0
   -3.5424   -1.1178    0.6125 C   0  0  0  0  0  0  0  0  0  0  0  0
   -4.3976   -1.9470   -0.1041 C   0  0  0  0  0  0  0  0  0  0  0  0
   -4.0691   -3.2788   -0.2421 C   0  0  0  0  0  0  0  0  0  0  0  0
   -4.8879   -4.1796   -0.9482 N   0  0  0  0  0  0  0  0  0  0  0  0
   -4.7749   -4.3111   -2.3753 C   0  0  0  0  0  0  0  0  0  0  0  0
   -5.8413   -4.9862   -0.2342 C   0  0  0  0  0  0  0  0  0  0  0  0
   -2.9143   -3.7585    0.3248 C   0  0  0  0  0  0  0  0  0  0  0  0
   -2.0806   -2.9180    1.0319 C   0  0  0  0  0  0  0  0  0  0  0  0
   -0.7241    1.2274    0.6813 C   0  0  0  0  0  0  0  0  0  0  0  0
   -1.5407    1.5158   -0.3779 C   0  0  0  0  0  0  0  0  0  0  0  0
   -1.7507    2.8336   -0.7934 C   0  0  0  0  0  0  0  0  0  0  0  0
   -1.1190    3.8539   -0.1176 C   0  0  0  0  0  0  0  0  0  0  0  0
   -1.3152    5.2871   -0.5151 C   0  0  0  0  0  0  0  0  0  0  0  0
   -1.8973    6.0207    0.6952 C   0  0  0  0  0  0  0  0  0  0  0  0
    0.0253    5.9361   -0.7983 C   0  0  0  0  0  0  0  0  0  0  0  0
   -0.3033    3.5567    0.9407 C   0  0  0  0  0  0  0  0  0  0  0  0
   -0.0983    2.2791    1.3453 C   0  0  0  0  0  0  0  0  0  0  0  0
    1.5285   -0.0540   -1.3060 C   0  0  0  0  0  0  0  0  0  0  0  0
    2.2072    1.1277   -1.9211 C   0  0  0  0  0  0  0  0  0  0  0  0
    3.4914    1.5012   -1.2161 C   0  0  0  0  0  0  0  0  0  0  0  0
    0.6838    0.0000    0.0000 Cl  0  0  0  0  0  0  0  0  0  0  0  0
    7.3334   -3.3609    0.5891 H   0  0  0  0  0  0  0  0  0  0  0  0
    7.5278   -2.5422    2.2349 H   0  0  0  0  0  0  0  0  0  0  0  0
    7.0153   -4.2888    2.0949 H   0  0  0  0  0  0  0  0  0  0  0  0
    7.0053   -1.2302    0.1382 H   0  0  0  0  0  0  0  0  0  0  0  0
    6.1051    0.7041   -1.1177 H   0  0  0  0  0  0  0  0  0  0  0  0
    3.1270   -2.1637    1.5508 H   0  0  0  0  0  0  0  0  0  0  0  0
    1.8597    1.1009    0.4422 H   0  0  0  0  0  0  0  0  0  0  0  0
   -2.1477    0.0206    2.4765 H   0  0  0  0  0  0  0  0  0  0  0  0
   -1.0256   -1.3047    2.7921 H   0  0  0  0  0  0  0  0  0  0  0  0
   -3.8146   -0.0696    0.7114 H   0  0  0  0  0  0  0  0  0  0  0  0
   -5.3112   -1.5535   -0.5502 H   0  0  0  0  0  0  0  0  0  0  0  0
   -4.1451   -5.1961   -2.5840 H   0  0  0  0  0  0  0  0  0  0  0  0
   -5.7793   -4.4778   -2.8564 H   0  0  0  0  0  0  0  0  0  0  0  0
   -4.2926   -3.4412   -2.8723 H   0  0  0  0  0  0  0  0  0  0  0  0
   -6.2020   -5.8321   -0.8557 H   0  0  0  0  0  0  0  0  0  0  0  0
   -6.6618   -4.3622    0.1140 H   0  0  0  0  0  0  0  0  0  0  0  0
   -5.2766   -5.4286    0.6366 H   0  0  0  0  0  0  0  0  0  0  0  0
   -2.6535   -4.8210    0.2134 H   0  0  0  0  0  0  0  0  0  0  0  0
   -1.1890   -3.3868    1.4530 H   0  0  0  0  0  0  0  0  0  0  0  0
   -2.0383    0.7388   -0.9280 H   0  0  0  0  0  0  0  0  0  0  0  0
   -2.3978    3.0603   -1.6334 H   0  0  0  0  0  0  0  0  0  0  0  0
   -2.0043    5.3084   -1.3569 H   0  0  0  0  0  0  0  0  0  0  0  0
   -2.4558    5.2947    1.3444 H   0  0  0  0  0  0  0  0  0  0  0  0
   -1.1441    6.5865    1.2468 H   0  0  0  0  0  0  0  0  0  0  0  0
   -2.6446    6.7318    0.2940 H   0  0  0  0  0  0  0  0  0  0  0  0
   -0.1524    6.7508   -1.5383 H   0  0  0  0  0  0  0  0  0  0  0  0
    0.5018    6.3432    0.1109 H   0  0  0  0  0  0  0  0  0  0  0  0
    0.7025    5.1638   -1.2250 H   0  0  0  0  0  0  0  0  0  0  0  0
    0.1839    4.3748    1.4556 H   0  0  0  0  0  0  0  0  0  0  0  0
    0.5647    2.0675    2.2041 H   0  0  0  0  0  0  0  0  0  0  0  0
    0.4668   -0.0705   -1.5108 H   0  0  0  0  0  0  0  0  0  0  0  0
    2.0546   -0.9623   -1.7348 H   0  0  0  0  0  0  0  0  0  0  0  0
    2.4161    0.9623   -3.0167 H   0  0  0  0  0  0  0  0  0  0  0  0
    1.5056    1.9867   -1.9035 H   0  0  0  0  0  0  0  0  0  0  0  0
    4.2434    1.8207   -1.9643 H   0  0  0  0  0  0  0  0  0  0  0  0
    3.3526    2.3738   -0.5223 H   0  0  0  0  0  0  0  0  0  0  0  0
   -0.6838    0.0000    0.0000 H   0  0  0  0  0  0  0  0  0  0  0  0
  1  2  1  0
  2  3  1  0
  3  4  2  0
  4  5  1  0
  5  6  2  0
  6  7  1  0
  7  8  2  0
  7  9  1  0
  9 10  1  0
 10 11  2  0
 10 12  1  0
 12 13  1  0
 13 14  1  0
 14 15  2  0
 15 16  1  0
 16 17  2  0
 17 18  1  0
 18 19  1  0
 18 20  1  0
 17 21  1  0
 21 22  2  0
 12 23  1  0
 23 24  2  0
 24 25  1  0
 25 26  2  0
 26 27  1  0
 27 28  1  0
 27 29  1  0
 26 30  1  0
 30 31  2  0
  9 32  1  0
 32 33  1  0
 33 34  1  0
  8  3  1  0
 22 14  1  0
 31 23  1  0
 34  6  1  0
  1 36  1  0
  1 37  1  0
  1 38  1  0
  4 39  1  0
  5 40  1  0
  8 41  1  0
  9 42  1  0
 13 43  1  0
 13 44  1  0
 15 45  1  0
 16 46  1  0
 19 47  1  0
 19 48  1  0
 19 49  1  0
 20 50  1  0
 20 51  1  0
 20 52  1  0
 21 53  1  0
 22 54  1  0
 24 55  1  0
 25 56  1  0
 27 57  1  0
 28 58  1  0
 28 59  1  0
 28 60  1  0
 29 61  1  0
 29 62  1  0
 29 63  1  0
 30 64  1  0
 31 65  1  0
 32 66  1  0
 32 67  1  0
 33 68  1  0
 33 69  1  0
 34 70  1  0
 34 71  1  0
 35 72  1  0
M  END
$$$$
