
     RDKit          3D

 28 29  0  0  0  0  0  0  0  0999 V2000
    4.4714   -1.2113    1.1107 C   0  0  0  0  0  0  0  0  0  0  0  0
    4.0691    0.0138    0.3898 C   0  0  0  0  0  0  0  0  0  0  0  0
    5.0744    0.8629    0.0468 O   0  0  0  0  0  0  0  0  0  0  0  0
    4.5481    1.9547   -0.6176 N   0  0  0  0  0  0  0  0  0  0  0  0
    3.2327    1.7371   -0.6607 C   0  0  0  0  0  0  0  0  0  0  0  0
    2.8572    0.5247   -0.0375 C   0  0  0  0  0  0  0  0  0  0  0  0
    1.5605   -0.1100    0.1520 C   0  0  0  0  0  0  0  0  0  0  0  0
    1.4798   -1.2046    0.6972 O   0  0  0  0  0  0  0  0  0  0  0  0
    0.4872    0.6251   -0.3242 N   0  0  0  0  0  0  0  0  0  0  0  0
   -0.8802    0.2726   -0.2914 C   0  0  0  0  0  0  0  0  0  0  0  0
   -1.3729   -0.9231    0.2326 C   0  0  0  0  0  0  0  0  0  0  0  0
   -2.7476   -1.1924    0.2242 C   0  0  0  0  0  0  0  0  0  0  0  0
   -3.6578   -0.2674   -0.3034 C   0  0  0  0  0  0  0  0  0  0  0  0
   -5.1362   -0.5694   -0.3322 C   0  0  0  0  0  0  0  0  0  0  0  0
   -5.5372   -1.3897    0.6784 F   0  0  0  0  0  0  0  0  0  0  0  0
   -5.5161   -1.1823   -1.4868 F   0  0  0  0  0  0  0  0  0  0  0  0
   -5.9088    0.5486   -0.2311 F   0  0  0  0  0  0  0  0  0  0  0  0
   -3.1614    0.9282   -0.8380 C   0  0  0  0  0  0  0  0  0  0  0  0
   -1.7879    1.1950   -0.8284 C   0  0  0  0  0  0  0  0  0  0  0  0
    4.1953   -2.1016    0.5375 H   0  0  0  0  0  0  0  0  0  0  0  0
    5.5532   -1.2393    1.2756 H   0  0  0  0  0  0  0  0  0  0  0  0
    3.9811   -1.2602    2.0877 H   0  0  0  0  0  0  0  0  0  0  0  0
    2.6207    2.4807   -1.1493 H   0  0  0  0  0  0  0  0  0  0  0  0
    0.6847    1.5239   -0.7371 H   0  0  0  0  0  0  0  0  0  0  0  0
   -0.7184   -1.6780    0.6576 H   0  0  0  0  0  0  0  0  0  0  0  0
   -3.1021   -2.1364    0.6376 H   0  0  0  0  0  0  0  0  0  0  0  0
   -3.8446    1.6617   -1.2646 H   0  0  0  0  0  0  0  0  0  0  0  0
   -1.4441    2.1367   -1.2498 H   0  0  0  0  0  0  0  0  0  0  0  0
  1  2  1  0
  2  3  1  0
  3  4  1  0
  4  5  2  0
  5  6  1  0
  6  7  1  0
  7  8  2  0
  7  9  1  0
  9 10  1  0
 10 11  2  0
 11 12  1  0
 12 13  2  0
 13 14  1  0
 14 15  1  0
 14 16  1  0
 14 17  1  0
 13 18  1  0
 18 19  2  0
  6  2  2  0
 19 10  1  0
  1 20  1  0
  1 21  1  0
  1 22  1  0
  5 23  1  0
  9 24  1  0
 11 25  1  0
 12 26  1  0
 18 27  1  0
 19 28  1  0
M  END
$$$$
