
     RDKit          3D

 50 56  0  0  0  0  0  0  0  0999 V2000
    4.8672    0.8100    1.9507 C   0  0  0  0  0  0  0  0  0  0  0  0
    4.4080    0.5804    0.5080 C   0  0  0  0  0  0  0  0  0  0  0  0
    5.2214   -0.5544   -0.1215 C   0  0  0  0  0  0  0  0  0  0  0  0
    2.9079    0.3322    0.3711 C   0  0  2  0  0  0  0  0  0  0  0  0
    2.1777    0.3827    1.6109 O   0  0  0  0  0  0  0  0  0  0  0  0
    2.2772   -0.9067    0.9805 C   0  0  1  0  0  0  0  0  0  0  0  0
    0.9516   -1.4532    0.5080 C   0  0  2  0  0  0  0  0  0  0  0  0
    0.8326   -1.7681   -0.8831 O   0  0  0  0  0  0  0  0  0  0  0  0
    0.1074   -0.6032   -0.4514 C   0  0  1  0  0  0  0  0  0  0  0  0
   -1.4343   -0.7487   -0.4958 C   0  0  1  0  0  0  0  0  0  0  0  0
   -1.8729   -1.0733   -1.9495 C   0  0  0  0  0  0  0  0  0  0  0  0
   -1.9706   -1.8946    0.4267 C   0  0  0  0  0  0  0  0  0  0  0  0
   -3.5063   -2.0104    0.4500 C   0  0  0  0  0  0  0  0  0  0  0  0
   -4.1260   -0.6683    0.5080 C   0  0  0  0  0  0  0  0  0  0  0  0
   -3.5082    0.4983    0.3341 C   0  0  0  0  0  0  0  0  0  0  0  0
   -4.4488    1.6154    0.5424 C   0  0  0  0  0  0  0  0  0  0  0  0
   -5.6900    0.9728    0.8477 O   0  0  0  0  0  0  0  0  0  0  0  0
   -5.5213   -0.3798    0.8296 C   0  0  0  0  0  0  0  0  0  0  0  0
   -6.3828   -1.2094    1.0514 O   0  0  0  0  0  0  0  0  0  0  0  0
   -2.0397    0.6171    0.0356 C   0  0  2  0  0  0  0  0  0  0  0  0
   -1.7029    1.8123   -0.8762 C   0  0  0  0  0  0  0  0  0  0  0  0
   -0.2269    1.9527   -1.0976 C   0  0  2  0  0  0  0  0  0  0  0  0
    0.2432    1.2123   -2.2227 O   0  0  0  0  0  0  0  0  0  0  0  0
    0.7063    0.7550   -0.9299 C   0  0  2  0  0  0  0  0  0  0  0  0
    2.2111    1.0093   -0.7909 C   0  0  2  0  0  0  0  0  0  0  0  0
    2.8604    0.6091   -2.0038 O   0  0  0  0  0  0  0  0  0  0  0  0
    4.3387    1.6584    2.3987 H   0  0  0  0  0  0  0  0  0  0  0  0
    5.9393    1.0317    1.9857 H   0  0  0  0  0  0  0  0  0  0  0  0
    4.6861   -0.0698    2.5775 H   0  0  0  0  0  0  0  0  0  0  0  0
    4.6480    1.4993   -0.0429 H   0  0  0  0  0  0  0  0  0  0  0  0
    5.0846   -1.4965    0.4195 H   0  0  0  0  0  0  0  0  0  0  0  0
    6.2904   -0.3156   -0.1102 H   0  0  0  0  0  0  0  0  0  0  0  0
    4.9299   -0.7266   -1.1619 H   0  0  0  0  0  0  0  0  0  0  0  0
    2.9394   -1.6297    1.4449 H   0  0  0  0  0  0  0  0  0  0  0  0
    0.4756   -2.1379    1.1967 H   0  0  0  0  0  0  0  0  0  0  0  0
   -1.5342   -2.0757   -2.2372 H   0  0  0  0  0  0  0  0  0  0  0  0
   -2.9593   -1.0450   -2.0758 H   0  0  0  0  0  0  0  0  0  0  0  0
   -1.4558   -0.3856   -2.6873 H   0  0  0  0  0  0  0  0  0  0  0  0
   -1.6395   -1.7106    1.4580 H   0  0  0  0  0  0  0  0  0  0  0  0
   -1.5484   -2.8630    0.1305 H   0  0  0  0  0  0  0  0  0  0  0  0
   -3.8579   -2.5391   -0.4430 H   0  0  0  0  0  0  0  0  0  0  0  0
   -3.8060   -2.6098    1.3171 H   0  0  0  0  0  0  0  0  0  0  0  0
   -4.5808    2.2246   -0.3562 H   0  0  0  0  0  0  0  0  0  0  0  0
   -4.1588    2.2499    1.3848 H   0  0  0  0  0  0  0  0  0  0  0  0
   -1.5579    0.8256    1.0045 H   0  0  0  0  0  0  0  0  0  0  0  0
   -2.2260    1.7371   -1.8373 H   0  0  0  0  0  0  0  0  0  0  0  0
   -2.0595    2.7384   -0.4081 H   0  0  0  0  0  0  0  0  0  0  0  0
    0.1439    2.9595   -0.9646 H   0  0  0  0  0  0  0  0  0  0  0  0
    2.3747    2.0894   -0.6950 H   0  0  0  0  0  0  0  0  0  0  0  0
    2.1919    0.7016   -2.7085 H   0  0  0  0  0  0  0  0  0  0  0  0
  1  2  1  0
  2  3  1  0
  4  2  1  1
  4  5  1  0
  5  6  1  0
  6  7  1  0
  7  8  1  0
  9  8  1  6
  9 10  1  0
 10 11  1  6
 10 12  1  0
 12 13  1  0
 13 14  1  0
 14 15  2  0
 15 16  1  0
 16 17  1  0
 17 18  1  0
 18 19  2  0
 15 20  1  0
 20 21  1  0
 21 22  1  0
 22 23  1  0
 24 23  1  6
 24 25  1  0
 25 26  1  0
  6  4  1  0
  9  7  1  0
 20 10  1  0
 24 22  1  0
 25  4  1  0
 24  9  1  0
 18 14  1  0
  1 27  1  0
  1 28  1  0
  1 29  1  0
  2 30  1  0
  3 31  1  0
  3 32  1  0
  3 33  1  0
  6 34  1  1
  7 35  1  1
 11 36  1  0
 11 37  1  0
 11 38  1  0
 12 39  1  0
 12 40  1  0
 13 41  1  0
 13 42  1  0
 16 43  1  0
 16 44  1  0
 20 45  1  1
 21 46  1  0
 21 47  1  0
 22 48  1  6
 25 49  1  1
 26 50  1  0
M  END
$$$$
