
     RDKit          3D

 47 49  0  0  0  0  0  0  0  0999 V2000
   -1.6543   -1.3028    3.5959 C   0  0  0  0  0  0  0  0  0  0  0  0
   -2.4676   -0.7392    2.4577 C   0  0  0  0  0  0  0  0  0  0  0  0
   -3.6857   -0.6160    2.5945 O   0  0  0  0  0  0  0  0  0  0  0  0
   -1.7968   -0.3815    1.2850 N   0  0  0  0  0  0  0  0  0  0  0  0
   -2.5838    0.1981    0.1680 C   0  0  0  0  0  0  0  0  0  0  0  0
   -3.6046   -0.7894   -0.4254 C   0  0  0  0  0  0  0  0  0  0  0  0
   -4.7967   -0.0581   -1.0289 C   0  0  0  0  0  0  0  0  0  0  0  0
   -4.3526    1.1451   -1.6488 O   0  0  0  0  0  0  0  0  0  0  0  0
   -3.9415    2.1300   -0.6977 C   0  0  0  0  0  0  0  0  0  0  0  0
   -3.2383    1.5381    0.5228 C   0  0  0  0  0  0  0  0  0  0  0  0
   -0.3431   -0.5480    1.1028 C   0  0  0  0  0  0  0  0  0  0  0  0
    0.0528   -1.4732   -0.0545 C   0  0  0  0  0  0  0  0  0  0  0  0
    1.5175   -1.1205   -0.2791 C   0  0  0  0  0  0  0  0  0  0  0  0
    1.6154    0.2932    0.0636 N   0  0  0  0  0  0  0  0  0  0  0  0
    2.7329    1.1013   -0.0127 C   0  0  0  0  0  0  0  0  0  0  0  0
    2.8012    2.2131    0.5018 O   0  0  0  0  0  0  0  0  0  0  0  0
    3.9208    0.5949   -0.7285 C   0  0  0  0  0  0  0  0  0  0  0  0
    5.1275    0.4756   -0.0281 C   0  0  0  0  0  0  0  0  0  0  0  0
    6.2693    0.0261   -0.6920 C   0  0  0  0  0  0  0  0  0  0  0  0
    6.1990   -0.2849   -2.0484 C   0  0  0  0  0  0  0  0  0  0  0  0
    7.3072   -0.7196   -2.6658 F   0  0  0  0  0  0  0  0  0  0  0  0
    5.0019   -0.1420   -2.7514 C   0  0  0  0  0  0  0  0  0  0  0  0
    4.9196   -0.5173   -4.4293 Cl  0  0  0  0  0  0  0  0  0  0  0  0
    3.8565    0.3079   -2.0960 C   0  0  0  0  0  0  0  0  0  0  0  0
    0.4430    0.7390    0.8057 C   0  0  0  0  0  0  0  0  0  0  0  0
   -1.1815   -2.2417    3.2964 H   0  0  0  0  0  0  0  0  0  0  0  0
   -2.3166   -1.5148    4.4414 H   0  0  0  0  0  0  0  0  0  0  0  0
   -0.9101   -0.5748    3.9289 H   0  0  0  0  0  0  0  0  0  0  0  0
   -1.8776    0.4239   -0.6405 H   0  0  0  0  0  0  0  0  0  0  0  0
   -3.0973   -1.3642   -1.2112 H   0  0  0  0  0  0  0  0  0  0  0  0
   -3.9631   -1.5328    0.2934 H   0  0  0  0  0  0  0  0  0  0  0  0
   -5.2728   -0.6835   -1.7909 H   0  0  0  0  0  0  0  0  0  0  0  0
   -5.5567    0.1718   -0.2724 H   0  0  0  0  0  0  0  0  0  0  0  0
   -4.8157    2.7150   -0.3914 H   0  0  0  0  0  0  0  0  0  0  0  0
   -3.2651    2.8127   -1.2229 H   0  0  0  0  0  0  0  0  0  0  0  0
   -3.9834    1.4074    1.3153 H   0  0  0  0  0  0  0  0  0  0  0  0
   -2.5060    2.2516    0.9183 H   0  0  0  0  0  0  0  0  0  0  0  0
    0.0994   -0.9810    2.0046 H   0  0  0  0  0  0  0  0  0  0  0  0
   -0.5169   -1.2587   -0.9646 H   0  0  0  0  0  0  0  0  0  0  0  0
   -0.0911   -2.5315    0.1835 H   0  0  0  0  0  0  0  0  0  0  0  0
    1.8281   -1.3089   -1.3087 H   0  0  0  0  0  0  0  0  0  0  0  0
    2.1724   -1.6783    0.3994 H   0  0  0  0  0  0  0  0  0  0  0  0
    5.1762    0.7397    1.0265 H   0  0  0  0  0  0  0  0  0  0  0  0
    7.2137   -0.0761   -0.1657 H   0  0  0  0  0  0  0  0  0  0  0  0
    2.9276    0.4477   -2.6424 H   0  0  0  0  0  0  0  0  0  0  0  0
   -0.0957    1.4483    0.1704 H   0  0  0  0  0  0  0  0  0  0  0  0
    0.7324    1.2581    1.7257 H   0  0  0  0  0  0  0  0  0  0  0  0
  1  2  1  0
  2  3  2  0
  2  4  1  0
  4  5  1  0
  5  6  1  0
  6  7  1  0
  7  8  1  0
  8  9  1  0
  9 10  1  0
  4 11  1  0
 11 12  1  0
 12 13  1  0
 13 14  1  0
 14 15  1  0
 15 16  2  0
 15 17  1  0
 17 18  2  0
 18 19  1  0
 19 20  2  0
 20 21  1  0
 20 22  1  0
 22 23  1  0
 22 24  2  0
 14 25  1  0
 10  5  1  0
 25 11  1  0
 24 17  1  0
  1 26  1  0
  1 27  1  0
  1 28  1  0
  5 29  1  0
  6 30  1  0
  6 31  1  0
  7 32  1  0
  7 33  1  0
  9 34  1  0
  9 35  1  0
 10 36  1  0
 10 37  1  0
 11 38  1  0
 12 39  1  0
 12 40  1  0
 13 41  1  0
 13 42  1  0
 18 43  1  0
 19 44  1  0
 24 45  1  0
 25 46  1  0
 25 47  1  0
M  END
$$$$
