
     RDKit          3D

 52 55  0  0  0  0  0  0  0  0999 V2000
    5.4939    2.7796    2.5729 C   0  0  0  0  0  0  0  0  0  0  0  0
    4.9475    2.8356    1.1704 C   0  0  0  0  0  0  0  0  0  0  0  0
    5.2212    3.7648    0.4138 O   0  0  0  0  0  0  0  0  0  0  0  0
    4.0569    1.7347    0.7013 C   0  0  0  0  0  0  0  0  0  0  0  0
    3.9358    0.5273    1.3921 C   0  0  0  0  0  0  0  0  0  0  0  0
    3.0868   -0.4808    0.9130 C   0  0  0  0  0  0  0  0  0  0  0  0
    2.3518   -0.2908   -0.2583 C   0  0  0  0  0  0  0  0  0  0  0  0
    1.4631   -1.2377   -0.7954 N   0  0  0  0  0  0  0  0  0  0  0  0
    1.1367   -2.4855   -0.2884 C   0  0  0  0  0  0  0  0  0  0  0  0
    1.6224   -3.0303    0.7003 O   0  0  0  0  0  0  0  0  0  0  0  0
    0.0321   -3.1762   -1.0935 C   0  0  0  0  0  0  0  0  0  0  0  0
   -1.2564   -2.5250   -0.8463 N   0  0  0  0  0  0  0  0  0  0  0  0
   -1.5785   -1.4375   -1.6510 C   0  0  0  0  0  0  0  0  0  0  0  0
   -0.7879   -1.0504   -2.5188 O   0  0  0  0  0  0  0  0  0  0  0  0
   -2.7890   -0.8084   -1.4130 N   0  0  0  0  0  0  0  0  0  0  0  0
   -3.1131    0.3663   -2.2165 C   0  0  0  0  0  0  0  0  0  0  0  0
   -2.5039    1.6261   -1.6388 C   0  0  0  0  0  0  0  0  0  0  0  0
   -1.2942    2.1289   -2.1402 C   0  0  0  0  0  0  0  0  0  0  0  0
   -0.7157    3.2702   -1.5847 C   0  0  0  0  0  0  0  0  0  0  0  0
   -1.3389    3.9212   -0.5222 C   0  0  0  0  0  0  0  0  0  0  0  0
   -2.5405    3.4326   -0.0153 C   0  0  0  0  0  0  0  0  0  0  0  0
   -3.1208    2.2910   -0.5694 C   0  0  0  0  0  0  0  0  0  0  0  0
   -3.7047   -1.1839   -0.4300 C   0  0  0  0  0  0  0  0  0  0  0  0
   -4.8001   -0.6422   -0.2929 O   0  0  0  0  0  0  0  0  0  0  0  0
   -3.2928   -2.2846    0.4742 C   0  0  0  0  0  0  0  0  0  0  0  0
   -4.1493   -2.5927    1.4868 N   0  0  0  0  0  0  0  0  0  0  0  0
   -3.7673   -3.5663    2.3326 C   0  0  0  0  0  0  0  0  0  0  0  0
   -2.5701   -4.2470    2.2135 C   0  0  0  0  0  0  0  0  0  0  0  0
   -1.7147   -3.9148    1.1616 C   0  0  0  0  0  0  0  0  0  0  0  0
   -2.0720   -2.9125    0.2516 C   0  0  0  0  0  0  0  0  0  0  0  0
    2.4805    0.9180   -0.9506 C   0  0  0  0  0  0  0  0  0  0  0  0
    3.3274    1.9239   -0.4774 C   0  0  0  0  0  0  0  0  0  0  0  0
    5.9740    3.7347    2.8083 H   0  0  0  0  0  0  0  0  0  0  0  0
    6.2397    1.9853    2.6568 H   0  0  0  0  0  0  0  0  0  0  0  0
    4.6826    2.6329    3.2906 H   0  0  0  0  0  0  0  0  0  0  0  0
    4.4938    0.3349    2.3015 H   0  0  0  0  0  0  0  0  0  0  0  0
    3.0208   -1.4033    1.4838 H   0  0  0  0  0  0  0  0  0  0  0  0
    0.9508   -0.9465   -1.6310 H   0  0  0  0  0  0  0  0  0  0  0  0
   -0.0016   -4.2441   -0.8640 H   0  0  0  0  0  0  0  0  0  0  0  0
    0.2890   -3.1172   -2.1585 H   0  0  0  0  0  0  0  0  0  0  0  0
   -2.7549    0.2209   -3.2434 H   0  0  0  0  0  0  0  0  0  0  0  0
   -4.1989    0.4954   -2.2956 H   0  0  0  0  0  0  0  0  0  0  0  0
   -0.7926    1.6315   -2.9666 H   0  0  0  0  0  0  0  0  0  0  0  0
    0.2224    3.6523   -1.9797 H   0  0  0  0  0  0  0  0  0  0  0  0
   -0.8876    4.8099   -0.0893 H   0  0  0  0  0  0  0  0  0  0  0  0
   -3.0276    3.9384    0.8138 H   0  0  0  0  0  0  0  0  0  0  0  0
   -4.0603    1.9215   -0.1580 H   0  0  0  0  0  0  0  0  0  0  0  0
   -4.4647   -3.7861    3.1353 H   0  0  0  0  0  0  0  0  0  0  0  0
   -2.2992   -5.0175    2.9288 H   0  0  0  0  0  0  0  0  0  0  0  0
   -0.7709   -4.4473    1.1026 H   0  0  0  0  0  0  0  0  0  0  0  0
    1.9252    1.0961   -1.8708 H   0  0  0  0  0  0  0  0  0  0  0  0
    3.4138    2.8546   -1.0336 H   0  0  0  0  0  0  0  0  0  0  0  0
  1  2  1  0
  2  3  2  0
  2  4  1  0
  4  5  2  0
  5  6  1  0
  6  7  2  0
  7  8  1  0
  8  9  1  0
  9 10  2  0
  9 11  1  0
 11 12  1  0
 12 13  1  0
 13 14  2  0
 13 15  1  0
 15 16  1  0
 16 17  1  0
 17 18  2  0
 18 19  1  0
 19 20  2  0
 20 21  1  0
 21 22  2  0
 15 23  1  0
 23 24  2  0
 23 25  1  0
 25 26  2  0
 26 27  1  0
 27 28  2  0
 28 29  1  0
 29 30  2  0
  7 31  1  0
 31 32  2  0
 32  4  1  0
 30 12  1  0
 22 17  1  0
 30 25  1  0
  1 33  1  0
  1 34  1  0
  1 35  1  0
  5 36  1  0
  6 37  1  0
  8 38  1  0
 11 39  1  0
 11 40  1  0
 16 41  1  0
 16 42  1  0
 18 43  1  0
 19 44  1  0
 20 45  1  0
 21 46  1  0
 22 47  1  0
 27 48  1  0
 28 49  1  0
 29 50  1  0
 31 51  1  0
 32 52  1  0
M  END
$$$$
