
     RDKit          3D

 55 57  0  0  0  0  0  0  0  0999 V2000
    6.9872   -0.6782   -1.6099 C   0  0  0  0  0  0  0  0  0  0  0  0
    7.2131    0.0945   -0.3167 C   0  0  0  0  0  0  0  0  0  0  0  0
    6.2144   -0.2929    0.7838 C   0  0  0  0  0  0  0  0  0  0  0  0
    6.5850    0.3864    2.1023 C   0  0  0  0  0  0  0  0  0  0  0  0
    4.8543    0.0724    0.4061 N   0  0  0  0  0  0  0  0  0  0  0  0
    3.7583   -0.6001    0.9041 C   0  0  0  0  0  0  0  0  0  0  0  0
    3.8307   -1.5858    1.6268 O   0  0  0  0  0  0  0  0  0  0  0  0
    2.4266   -0.0793    0.4962 C   0  0  0  0  0  0  0  0  0  0  0  0
    2.1980    1.2916    0.3292 C   0  0  0  0  0  0  0  0  0  0  0  0
    0.9299    1.7425   -0.0385 C   0  0  0  0  0  0  0  0  0  0  0  0
   -0.1099    0.8236   -0.2348 C   0  0  0  0  0  0  0  0  0  0  0  0
   -1.4595    1.3102   -0.6194 C   0  0  0  0  0  0  0  0  0  0  0  0
   -1.6470    2.5187   -0.7358 O   0  0  0  0  0  0  0  0  0  0  0  0
   -2.4456    0.3469   -0.8218 N   0  0  0  0  0  0  0  0  0  0  0  0
   -3.7884    0.7992   -1.1828 C   0  0  0  0  0  0  0  0  0  0  0  0
   -4.6312    1.0919    0.0641 C   0  0  0  0  0  0  0  0  0  0  0  0
   -6.0963    1.4391   -0.2546 C   0  0  0  0  0  0  0  0  0  0  0  0
   -6.2264    2.7228   -1.0753 C   0  0  0  0  0  0  0  0  0  0  0  0
   -6.8920    1.5747    1.0459 C   0  0  0  0  0  0  0  0  0  0  0  0
   -2.2081   -0.9851   -0.6291 C   0  0  0  0  0  0  0  0  0  0  0  0
   -3.0916   -1.9293   -0.7720 N   0  0  0  0  0  0  0  0  0  0  0  0
   -2.3945   -3.0753   -0.4783 N   0  0  0  0  0  0  0  0  0  0  0  0
   -2.9856   -4.3824   -0.5628 C   0  0  0  0  0  0  0  0  0  0  0  0
   -1.0590   -2.7774   -0.1754 C   0  0  0  0  0  0  0  0  0  0  0  0
   -0.1843   -3.5856    0.0922 O   0  0  0  0  0  0  0  0  0  0  0  0
   -0.9783   -1.4041   -0.2666 N   0  0  0  0  0  0  0  0  0  0  0  0
    0.1063   -0.5481   -0.0600 C   0  0  0  0  0  0  0  0  0  0  0  0
    1.3782   -0.9956    0.3145 C   0  0  0  0  0  0  0  0  0  0  0  0
    7.0549   -1.7572   -1.4381 H   0  0  0  0  0  0  0  0  0  0  0  0
    7.7469   -0.4045   -2.3491 H   0  0  0  0  0  0  0  0  0  0  0  0
    6.0059   -0.4586   -2.0416 H   0  0  0  0  0  0  0  0  0  0  0  0
    8.2347   -0.1038    0.0298 H   0  0  0  0  0  0  0  0  0  0  0  0
    7.1480    1.1691   -0.5279 H   0  0  0  0  0  0  0  0  0  0  0  0
    6.2503   -1.3786    0.9366 H   0  0  0  0  0  0  0  0  0  0  0  0
    5.8932    0.0979    2.9011 H   0  0  0  0  0  0  0  0  0  0  0  0
    6.5444    1.4775    2.0103 H   0  0  0  0  0  0  0  0  0  0  0  0
    7.5960    0.1064    2.4162 H   0  0  0  0  0  0  0  0  0  0  0  0
    4.7272    0.8672   -0.2045 H   0  0  0  0  0  0  0  0  0  0  0  0
    2.9833    2.0200    0.5133 H   0  0  0  0  0  0  0  0  0  0  0  0
    0.7507    2.8097   -0.1604 H   0  0  0  0  0  0  0  0  0  0  0  0
   -3.7001    1.6976   -1.8028 H   0  0  0  0  0  0  0  0  0  0  0  0
   -4.2783    0.0319   -1.7932 H   0  0  0  0  0  0  0  0  0  0  0  0
   -4.1697    1.9080    0.6353 H   0  0  0  0  0  0  0  0  0  0  0  0
   -4.6103    0.2123    0.7209 H   0  0  0  0  0  0  0  0  0  0  0  0
   -6.5353    0.6159   -0.8324 H   0  0  0  0  0  0  0  0  0  0  0  0
   -7.2800    2.9807   -1.2279 H   0  0  0  0  0  0  0  0  0  0  0  0
   -5.7753    2.6101   -2.0656 H   0  0  0  0  0  0  0  0  0  0  0  0
   -5.7417    3.5664   -0.5728 H   0  0  0  0  0  0  0  0  0  0  0  0
   -6.5009    2.3867    1.6684 H   0  0  0  0  0  0  0  0  0  0  0  0
   -6.8468    0.6483    1.6284 H   0  0  0  0  0  0  0  0  0  0  0  0
   -7.9464    1.7849    0.8374 H   0  0  0  0  0  0  0  0  0  0  0  0
   -3.2519   -4.5802   -1.6046 H   0  0  0  0  0  0  0  0  0  0  0  0
   -2.2802   -5.1427   -0.2181 H   0  0  0  0  0  0  0  0  0  0  0  0
   -3.8852   -4.4067    0.0582 H   0  0  0  0  0  0  0  0  0  0  0  0
    1.5825   -2.0534    0.4716 H   0  0  0  0  0  0  0  0  0  0  0  0
  1  2  1  0
  2  3  1  0
  3  4  1  0
  3  5  1  0
  5  6  1  0
  6  7  2  0
  6  8  1  0
  8  9  2  0
  9 10  1  0
 10 11  2  0
 11 12  1  0
 12 13  2  0
 12 14  1  0
 14 15  1  0
 15 16  1  0
 16 17  1  0
 17 18  1  0
 17 19  1  0
 14 20  1  0
 20 21  2  0
 21 22  1  0
 22 23  1  0
 22 24  1  0
 24 25  2  0
 24 26  1  0
 26 27  1  0
 27 28  2  0
 28  8  1  0
 27 11  1  0
 26 20  1  0
  1 29  1  0
  1 30  1  0
  1 31  1  0
  2 32  1  0
  2 33  1  0
  3 34  1  0
  4 35  1  0
  4 36  1  0
  4 37  1  0
  5 38  1  0
  9 39  1  0
 10 40  1  0
 15 41  1  0
 15 42  1  0
 16 43  1  0
 16 44  1  0
 17 45  1  0
 18 46  1  0
 18 47  1  0
 18 48  1  0
 19 49  1  0
 19 50  1  0
 19 51  1  0
 23 52  1  0
 23 53  1  0
 23 54  1  0
 28 55  1  0
M  END
$$$$
