
     RDKit          3D

 60 63  0  0  0  0  0  0  0  0999 V2000
   -2.9008    2.4255   -3.0614 C   0  0  0  0  0  0  0  0  0  0  0  0
   -2.3362    1.7893   -1.8441 C   0  0  0  0  0  0  0  0  0  0  0  0
   -1.2931    2.3629   -1.2286 N   0  0  0  0  0  0  0  0  0  0  0  0
   -0.9913    1.5239   -0.2148 N   0  0  0  0  0  0  0  0  0  0  0  0
    0.1261    1.8590    0.6643 C   0  0  0  0  0  0  0  0  0  0  0  0
    1.3974    1.1409    0.2783 C   0  0  0  0  0  0  0  0  0  0  0  0
    2.0180    1.4051   -0.9521 C   0  0  0  0  0  0  0  0  0  0  0  0
    3.2036    0.7562   -1.3046 C   0  0  0  0  0  0  0  0  0  0  0  0
    3.7963   -0.1595   -0.4278 C   0  0  0  0  0  0  0  0  0  0  0  0
    5.0649   -0.8196   -0.8489 C   0  0  0  0  0  0  0  0  0  0  0  0
    5.3423   -0.9127   -2.0394 O   0  0  0  0  0  0  0  0  0  0  0  0
    5.8898   -1.2664    0.1624 N   0  0  0  0  0  0  0  0  0  0  0  0
    7.2032   -1.7990   -0.1176 C   0  0  0  0  0  0  0  0  0  0  0  0
    8.2135   -0.7073    0.0314 C   0  0  0  0  0  0  0  0  0  0  0  0
    9.6288   -1.0263    0.4407 C   0  0  0  0  0  0  0  0  0  0  0  0
    8.7173   -0.3024    1.3942 C   0  0  0  0  0  0  0  0  0  0  0  0
    3.1750   -0.4406    0.7950 C   0  0  0  0  0  0  0  0  0  0  0  0
    1.9877    0.2109    1.1469 C   0  0  0  0  0  0  0  0  0  0  0  0
   -1.8561    0.4610   -0.1147 C   0  0  0  0  0  0  0  0  0  0  0  0
   -1.7455   -0.5908    0.9262 C   0  0  0  0  0  0  0  0  0  0  0  0
   -2.7443    0.6180   -1.1685 C   0  0  0  0  0  0  0  0  0  0  0  0
   -4.0694   -0.4041   -1.5714 S   0  0  0  0  0  6  0  0  0  0  0  0
   -4.8736    0.3298   -2.5248 O   0  0  0  0  0  0  0  0  0  0  0  0
   -3.4491   -1.6670   -1.9065 O   0  0  0  0  0  0  0  0  0  0  0  0
   -5.0193   -0.6280   -0.1619 N   0  0  0  0  0  0  0  0  0  0  0  0
   -5.6427    0.6210    0.3544 C   0  0  0  0  0  0  0  0  0  0  0  0
   -6.2402    0.3517    1.7326 C   0  0  0  0  0  0  0  0  0  0  0  0
   -7.2580   -0.7838    1.6787 C   0  0  0  0  0  0  0  0  0  0  0  0
   -6.6446   -2.0296    1.0448 C   0  0  0  0  0  0  0  0  0  0  0  0
   -6.0252   -1.7159   -0.3143 C   0  0  0  0  0  0  0  0  0  0  0  0
   -3.8738    2.8756   -2.8404 H   0  0  0  0  0  0  0  0  0  0  0  0
   -3.0207    1.6921   -3.8647 H   0  0  0  0  0  0  0  0  0  0  0  0
   -2.2440    3.2181   -3.4375 H   0  0  0  0  0  0  0  0  0  0  0  0
    0.2798    2.9439    0.6211 H   0  0  0  0  0  0  0  0  0  0  0  0
   -0.1788    1.6201    1.6888 H   0  0  0  0  0  0  0  0  0  0  0  0
    1.5752    2.1148   -1.6520 H   0  0  0  0  0  0  0  0  0  0  0  0
    3.6646    0.9688   -2.2683 H   0  0  0  0  0  0  0  0  0  0  0  0
    5.7172   -0.9612    1.1093 H   0  0  0  0  0  0  0  0  0  0  0  0
    7.2433   -2.2160   -1.1291 H   0  0  0  0  0  0  0  0  0  0  0  0
    7.3797   -2.6104    0.5964 H   0  0  0  0  0  0  0  0  0  0  0  0
    8.0759    0.0712   -0.7126 H   0  0  0  0  0  0  0  0  0  0  0  0
    9.8886   -2.0541    0.6652 H   0  0  0  0  0  0  0  0  0  0  0  0
   10.4276   -0.4615   -0.0252 H   0  0  0  0  0  0  0  0  0  0  0  0
    8.3668   -0.8433    2.2643 H   0  0  0  0  0  0  0  0  0  0  0  0
    8.9018    0.7508    1.5708 H   0  0  0  0  0  0  0  0  0  0  0  0
    3.5846   -1.1824    1.4745 H   0  0  0  0  0  0  0  0  0  0  0  0
    1.5229   -0.0245    2.1018 H   0  0  0  0  0  0  0  0  0  0  0  0
   -2.5347   -1.3436    0.8344 H   0  0  0  0  0  0  0  0  0  0  0  0
   -1.8231   -0.1528    1.9275 H   0  0  0  0  0  0  0  0  0  0  0  0
   -0.7866   -1.1141    0.8453 H   0  0  0  0  0  0  0  0  0  0  0  0
   -6.4202    0.9705   -0.3341 H   0  0  0  0  0  0  0  0  0  0  0  0
   -4.8893    1.4084    0.4527 H   0  0  0  0  0  0  0  0  0  0  0  0
   -6.7174    1.2595    2.1157 H   0  0  0  0  0  0  0  0  0  0  0  0
   -5.4392    0.0863    2.4337 H   0  0  0  0  0  0  0  0  0  0  0  0
   -8.1310   -0.4669    1.0950 H   0  0  0  0  0  0  0  0  0  0  0  0
   -7.6132   -1.0156    2.6893 H   0  0  0  0  0  0  0  0  0  0  0  0
   -7.4112   -2.8046    0.9331 H   0  0  0  0  0  0  0  0  0  0  0  0
   -5.8740   -2.4314    1.7139 H   0  0  0  0  0  0  0  0  0  0  0  0
   -5.5449   -2.6244   -0.6907 H   0  0  0  0  0  0  0  0  0  0  0  0
   -6.8004   -1.4144   -1.0268 H   0  0  0  0  0  0  0  0  0  0  0  0
  1  2  1  0
  2  3  2  0
  3  4  1  0
  4  5  1  0
  5  6  1  0
  6  7  2  0
  7  8  1  0
  8  9  2  0
  9 10  1  0
 10 11  2  0
 10 12  1  0
 12 13  1  0
 13 14  1  0
 14 15  1  0
 15 16  1  0
  9 17  1  0
 17 18  2  0
  4 19  1  0
 19 20  1  0
 19 21  2  0
 21 22  1  0
 22 23  2  0
 22 24  2  0
 22 25  1  0
 25 26  1  0
 26 27  1  0
 27 28  1  0
 28 29  1  0
 29 30  1  0
 21  2  1  0
 30 25  1  0
 18  6  1  0
 16 14  1  0
  1 31  1  0
  1 32  1  0
  1 33  1  0
  5 34  1  0
  5 35  1  0
  7 36  1  0
  8 37  1  0
 12 38  1  0
 13 39  1  0
 13 40  1  0
 14 41  1  0
 15 42  1  0
 15 43  1  0
 16 44  1  0
 16 45  1  0
 17 46  1  0
 18 47  1  0
 20 48  1  0
 20 49  1  0
 20 50  1  0
 26 51  1  0
 26 52  1  0
 27 53  1  0
 27 54  1  0
 28 55  1  0
 28 56  1  0
 29 57  1  0
 29 58  1  0
 30 59  1  0
 30 60  1  0
M  END
$$$$
