
     RDKit          3D

 15 15  0  0  0  0  0  0  0  0999 V2000
    2.2174   -0.2061   -0.8119 C   0  0  0  0  0  0  0  0  0  0  0  0
    0.8488    0.0530   -0.2729 C   0  0  0  0  0  0  0  0  0  0  0  0
   -0.1265   -0.8634   -0.2054 C   0  0  0  0  0  0  0  0  0  0  0  0
   -1.3995   -0.4829    0.3362 C   0  0  0  0  0  0  0  0  0  0  0  0
   -2.3844   -1.4398    0.3953 O   0  0  0  0  0  0  0  0  0  0  0  0
   -1.6222    0.7588    0.7689 C   0  0  0  0  0  0  0  0  0  0  0  0
   -0.5597    1.7733    0.6999 C   0  0  0  0  0  0  0  0  0  0  0  0
   -0.7628    2.9153    1.0973 O   0  0  0  0  0  0  0  0  0  0  0  0
    0.6439    1.3812    0.1786 O   0  0  0  0  0  0  0  0  0  0  0  0
    2.4191    0.4520   -1.6630 H   0  0  0  0  0  0  0  0  0  0  0  0
    2.9699   -0.0146   -0.0404 H   0  0  0  0  0  0  0  0  0  0  0  0
    2.3354   -1.2408   -1.1496 H   0  0  0  0  0  0  0  0  0  0  0  0
    0.0385   -1.8768   -0.5528 H   0  0  0  0  0  0  0  0  0  0  0  0
   -2.0453   -2.2779    0.0392 H   0  0  0  0  0  0  0  0  0  0  0  0
   -2.5727    1.0686    1.1806 H   0  0  0  0  0  0  0  0  0  0  0  0
  1  2  1  0
  2  3  2  0
  3  4  1  0
  4  5  1  0
  4  6  2  0
  6  7  1  0
  7  8  2  0
  7  9  1  0
  9  2  1  0
  1 10  1  0
  1 11  1  0
  1 12  1  0
  3 13  1  0
  5 14  1  0
  6 15  1  0
M  END
$$$$
