
     RDKit          3D

 89 89  0  0  0  0  0  0  0  0999 V2000
   -5.0919   -1.9190   -1.9164 C   0  0  0  0  0  0  0  0  0  0  0  0
   -5.3778   -0.7222   -1.5151 C   0  0  0  0  0  0  0  0  0  0  0  0
   -5.2898   -0.0698   -0.2270 C   0  0  0  0  0  0  0  0  0  0  0  0
   -4.7755   -0.8202    0.8716 N   0  0  0  0  0  0  0  0  0  0  0  0
   -3.6262   -0.2838    1.6400 C   0  0  0  0  0  0  0  0  0  0  0  0
   -3.9235    0.7547    2.4545 C   0  0  0  0  0  0  0  0  0  0  0  0
   -5.2134    1.2594    2.6010 O   0  0  0  0  0  0  0  0  0  0  0  0
   -2.8570    1.2745    3.1256 C   0  0  0  0  0  0  0  0  0  0  0  0
   -1.5210    0.7956    3.0068 C   0  0  0  0  0  0  0  0  0  0  0  0
   -1.2614   -0.2555    2.1802 C   0  0  0  0  0  0  0  0  0  0  0  0
    0.0386   -0.8652    1.9628 O   0  0  0  0  0  0  0  0  0  0  0  0
   -2.3359   -0.8345    1.4586 C   0  0  0  0  0  0  0  0  0  0  0  0
   -2.4698   -1.9396    0.5095 C   0  0  0  0  0  0  0  0  0  0  0  0
   -1.6359   -3.0358    0.1233 C   0  0  1  0  0  0  0  0  0  0  0  0
   -2.2559   -4.3987    0.5112 C   0  0  0  0  0  0  0  0  0  0  0  0
   -1.1797   -3.0990   -1.3374 C   0  0  0  0  0  0  0  0  0  0  0  0
   -0.5021   -1.8209   -1.7595 C   0  0  2  0  0  0  0  0  0  0  0  0
   -1.1463   -1.4587   -2.9586 O   0  0  0  0  0  0  0  0  0  0  0  0
   -1.6679   -0.2036   -2.9961 C   0  0  0  0  0  0  0  0  0  0  0  0
    0.9381   -2.0029   -2.1682 C   0  0  2  0  0  0  0  0  0  0  0  0
    0.9864   -3.0011   -3.1959 O   0  0  0  0  0  0  0  0  0  0  0  0
    1.9097   -2.4454   -1.1590 C   0  0  1  0  0  0  0  0  0  0  0  0
    3.0708   -3.1203   -1.8715 C   0  0  0  0  0  0  0  0  0  0  0  0
    2.3694   -1.5129   -0.0831 C   0  0  0  0  0  0  0  0  0  0  0  0
    2.9006   -0.3669    0.1517 C   0  0  0  0  0  0  0  0  0  0  0  0
    3.2516    0.2979    1.5101 C   0  0  0  0  0  0  0  0  0  0  0  0
    3.4128    0.7427   -0.7816 C   0  0  2  0  0  0  0  0  0  0  0  0
    4.7481    1.0599   -0.3767 O   0  0  0  0  0  0  0  0  0  0  0  0
    5.8572    1.2107   -1.1100 C   0  0  0  0  0  0  0  0  0  0  0  0
    7.1431    1.5275   -0.5322 N   0  0  0  0  0  0  0  0  0  0  0  0
    5.8200    1.0796   -2.3546 O   0  0  0  0  0  0  0  0  0  0  0  0
    2.5678    2.0297   -0.6886 C   0  0  1  0  0  0  0  0  0  0  0  0
    2.6844    2.5717   -2.0110 O   0  0  0  0  0  0  0  0  0  0  0  0
    3.2153    3.8244   -1.9513 C   0  0  0  0  0  0  0  0  0  0  0  0
    1.1322    1.5916   -0.7193 C   0  0  0  0  0  0  0  0  0  0  0  0
    0.2283    2.1867    0.0508 C   0  0  0  0  0  0  0  0  0  0  0  0
    0.3823    3.2699    1.0144 C   0  0  0  0  0  0  0  0  0  0  0  0
    0.5115    3.4928    2.3111 C   0  0  0  0  0  0  0  0  0  0  0  0
    0.6952    4.8980    2.9453 C   0  0  0  0  0  0  0  0  0  0  0  0
    0.3835    2.5557    3.5007 C   0  0  0  0  0  0  0  0  0  0  0  0
    1.3374    2.5166    4.3545 O   0  0  0  0  0  0  0  0  0  0  0  0
   -0.6968    1.6571    3.8467 N   0  0  0  0  0  0  0  0  0  0  0  0
    0.6871    0.0000    0.0000 Cl  0  0  0  0  0  0  0  0  0  0  0  0
   -5.2286   -2.2439   -2.9605 H   0  0  0  0  0  0  0  0  0  0  0  0
   -4.6983   -2.6709   -1.2336 H   0  0  0  0  0  0  0  0  0  0  0  0
   -5.7748   -0.0499   -2.3397 H   0  0  0  0  0  0  0  0  0  0  0  0
   -6.3362    0.3115    0.0376 H   0  0  0  0  0  0  0  0  0  0  0  0
   -4.6308    0.8518   -0.3393 H   0  0  0  0  0  0  0  0  0  0  0  0
   -5.1685   -1.7107    1.1811 H   0  0  0  0  0  0  0  0  0  0  0  0
   -5.4877    2.0252    3.1728 H   0  0  0  0  0  0  0  0  0  0  0  0
   -3.1045    2.1131    3.8199 H   0  0  0  0  0  0  0  0  0  0  0  0
    0.8807   -0.7960    2.3073 H   0  0  0  0  0  0  0  0  0  0  0  0
   -2.7685   -1.3988   -0.4706 H   0  0  0  0  0  0  0  0  0  0  0  0
   -3.4943   -2.4849    0.7169 H   0  0  0  0  0  0  0  0  0  0  0  0
   -0.6704   -3.0497    0.6871 H   0  0  0  0  0  0  0  0  0  0  0  0
   -1.5388   -4.9983    1.0797 H   0  0  0  0  0  0  0  0  0  0  0  0
   -2.6056   -4.8630   -0.4097 H   0  0  0  0  0  0  0  0  0  0  0  0
   -3.1542   -4.1410    1.1377 H   0  0  0  0  0  0  0  0  0  0  0  0
   -0.5263   -3.9909   -1.4267 H   0  0  0  0  0  0  0  0  0  0  0  0
   -2.0979   -3.3329   -1.9136 H   0  0  0  0  0  0  0  0  0  0  0  0
   -0.5826   -1.0019   -1.0744 H   0  0  0  0  0  0  0  0  0  0  0  0
   -2.4231    0.0713   -2.2693 H   0  0  0  0  0  0  0  0  0  0  0  0
   -0.8369    0.5511   -3.0729 H   0  0  0  0  0  0  0  0  0  0  0  0
   -2.1724   -0.1101   -4.0097 H   0  0  0  0  0  0  0  0  0  0  0  0
    1.2785   -1.0957   -2.6733 H   0  0  0  0  0  0  0  0  0  0  0  0
    1.0221   -3.8802   -2.7338 H   0  0  0  0  0  0  0  0  0  0  0  0
    1.3854   -3.3654   -0.6801 H   0  0  0  0  0  0  0  0  0  0  0  0
    2.8870   -3.1136   -2.9491 H   0  0  0  0  0  0  0  0  0  0  0  0
    3.3203   -4.0927   -1.4541 H   0  0  0  0  0  0  0  0  0  0  0  0
    3.9446   -2.4448   -1.6947 H   0  0  0  0  0  0  0  0  0  0  0  0
    2.0741   -2.2558    0.7982 H   0  0  0  0  0  0  0  0  0  0  0  0
    2.7203    1.3072    1.5553 H   0  0  0  0  0  0  0  0  0  0  0  0
    3.1237   -0.1202    2.4501 H   0  0  0  0  0  0  0  0  0  0  0  0
    4.3894    0.4784    1.4513 H   0  0  0  0  0  0  0  0  0  0  0  0
    3.5331    0.5622   -1.8226 H   0  0  0  0  0  0  0  0  0  0  0  0
    7.8683    1.9035   -1.1600 H   0  0  0  0  0  0  0  0  0  0  0  0
    7.3205    1.3760    0.4864 H   0  0  0  0  0  0  0  0  0  0  0  0
    2.8681    2.5674    0.1053 H   0  0  0  0  0  0  0  0  0  0  0  0
    3.2981    4.2314   -3.0126 H   0  0  0  0  0  0  0  0  0  0  0  0
    2.6135    4.5993   -1.4269 H   0  0  0  0  0  0  0  0  0  0  0  0
    4.2876    3.8339   -1.5935 H   0  0  0  0  0  0  0  0  0  0  0  0
    0.8405    0.7642   -1.3945 H   0  0  0  0  0  0  0  0  0  0  0  0
   -0.7909    1.7474   -0.2344 H   0  0  0  0  0  0  0  0  0  0  0  0
    0.1294    4.1854    0.2861 H   0  0  0  0  0  0  0  0  0  0  0  0
    1.1925    4.7420    3.9857 H   0  0  0  0  0  0  0  0  0  0  0  0
    1.5174    5.5052    2.5299 H   0  0  0  0  0  0  0  0  0  0  0  0
   -0.2218    5.4018    3.2250 H   0  0  0  0  0  0  0  0  0  0  0  0
   -0.9383    1.6610    4.9191 H   0  0  0  0  0  0  0  0  0  0  0  0
   -0.6871    0.0000    0.0000 H   0  0  0  0  0  0  0  0  0  0  0  0
  1  2  2  3
  2  3  1  0
  3  4  1  0
  4  5  1  0
  5  6  2  0
  6  7  1  0
  6  8  1  0
  8  9  2  0
  9 10  1  0
 10 11  1  0
 10 12  2  0
 12 13  1  0
 13 14  1  0
 14 15  1  0
 14 16  1  0
 16 17  1  0
 17 18  1  0
 18 19  1  0
 17 20  1  0
 20 21  1  0
 20 22  1  0
 22 23  1  0
 22 24  1  0
 24 25  2  0
 25 26  1  0
 25 27  1  0
 27 28  1  0
 28 29  1  0
 29 30  1  0
 29 31  2  0
 27 32  1  0
 32 33  1  0
 33 34  1  0
 32 35  1  0
 35 36  2  0
 36 37  1  0
 37 38  2  0
 38 39  1  0
 38 40  1  0
 40 41  2  0
 40 42  1  0
 12  5  1  0
 42  9  1  0
  1 44  1  0
  1 45  1  0
  2 46  1  0
  3 47  1  0
  3 48  1  0
  4 49  1  0
  7 50  1  0
  8 51  1  0
 11 52  1  0
 13 53  1  0
 13 54  1  0
 14 55  1  1
 15 56  1  0
 15 57  1  0
 15 58  1  0
 16 59  1  0
 16 60  1  0
 17 61  1  1
 19 62  1  0
 19 63  1  0
 19 64  1  0
 20 65  1  6
 21 66  1  0
 22 67  1  1
 23 68  1  0
 23 69  1  0
 23 70  1  0
 24 71  1  0
 26 72  1  0
 26 73  1  0
 26 74  1  0
 27 75  1  6
 30 76  1  0
 30 77  1  0
 32 78  1  1
 34 79  1  0
 34 80  1  0
 34 81  1  0
 35 82  1  0
 36 83  1  0
 37 84  1  0
 39 85  1  0
 39 86  1  0
 39 87  1  0
 42 88  1  0
 43 89  1  0
M  END
$$$$
