
     RDKit          3D

 79 83  0  0  0  0  0  0  0  0999 V2000
    5.2992    1.6244    2.1843 C   0  0  0  0  0  0  0  0  0  0  0  0
    5.1097    1.3819    0.6744 C   0  0  0  0  0  0  0  0  0  0  0  0
    5.7605    2.5583   -0.0792 C   0  0  0  0  0  0  0  0  0  0  0  0
    5.8108    0.0558    0.2893 C   0  0  0  0  0  0  0  0  0  0  0  0
    5.1448   -0.6295   -0.9050 C   0  0  0  0  0  0  0  0  0  0  0  0
    3.6600   -1.0169   -0.6292 C   0  0  2  0  0  0  0  0  0  0  0  0
    3.6695   -2.4729   -0.1417 C   0  0  0  0  0  0  0  0  0  0  0  0
    3.3965   -3.4654   -0.7993 O   0  0  0  0  0  0  0  0  0  0  0  0
    4.0999   -2.6309    1.1248 O   0  0  0  0  0  0  0  0  0  0  0  0
    2.8957   -0.9420   -1.9730 C   0  0  0  0  0  0  0  0  0  0  0  0
    1.3940   -1.1933   -1.8182 C   0  0  0  0  0  0  0  0  0  0  0  0
    0.6704   -0.2174   -0.8465 C   0  0  2  0  0  0  0  0  0  0  0  0
    0.6548    1.1833   -1.5274 C   0  0  0  0  0  0  0  0  0  0  0  0
    1.4770   -0.0817    0.4589 C   0  0  0  0  0  0  0  0  0  0  0  0
    0.8673    0.0156    1.6585 C   0  0  0  0  0  0  0  0  0  0  0  0
   -0.6116    0.0105    1.9011 C   0  0  0  0  0  0  0  0  0  0  0  0
   -1.4586    0.1408    0.6191 C   0  0  2  0  0  0  0  0  0  0  0  0
   -3.0315    0.0765    0.8692 C   0  0  1  0  0  0  0  0  0  0  0  0
   -3.4771   -1.1705    1.6725 C   0  0  0  0  0  0  0  0  0  0  0  0
   -3.4314    1.3227    1.7354 C   0  0  0  0  0  0  0  0  0  0  0  0
   -4.8064    1.9171    1.4458 C   0  0  0  0  0  0  0  0  0  0  0  0
   -5.7663    0.9051    0.8743 C   0  0  0  0  0  0  0  0  0  0  0  0
   -6.8662    0.7204    1.3961 O   0  0  0  0  0  0  0  0  0  0  0  0
   -5.3405    0.2047   -0.4220 C   0  0  0  0  0  0  0  0  0  0  0  0
   -5.9077    1.0510   -1.5826 C   0  0  0  0  0  0  0  0  0  0  0  0
   -6.0085   -1.1820   -0.4951 C   0  0  0  0  0  0  0  0  0  0  0  0
   -3.7723    0.1746   -0.5102 C   0  0  2  0  0  0  0  0  0  0  0  0
   -3.2379   -0.8626   -1.5143 C   0  0  0  0  0  0  0  0  0  0  0  0
   -1.7528   -0.6396   -1.7913 C   0  0  0  0  0  0  0  0  0  0  0  0
   -0.8497   -0.7444   -0.5334 C   0  0  1  0  0  0  0  0  0  0  0  0
   -0.8030   -2.2442   -0.1123 C   0  0  0  0  0  0  0  0  0  0  0  0
    3.0109   -0.0799    0.4307 C   0  0  2  0  0  0  0  0  0  0  0  0
    3.5965    1.3451    0.3281 C   0  0  0  0  0  0  0  0  0  0  0  0
    4.8260    0.8359    2.7794 H   0  0  0  0  0  0  0  0  0  0  0  0
    4.8591    2.5799    2.4912 H   0  0  0  0  0  0  0  0  0  0  0  0
    6.3624    1.6481    2.4489 H   0  0  0  0  0  0  0  0  0  0  0  0
    6.8215    2.6560    0.1770 H   0  0  0  0  0  0  0  0  0  0  0  0
    5.6930    2.4234   -1.1643 H   0  0  0  0  0  0  0  0  0  0  0  0
    5.2697    3.5060    0.1703 H   0  0  0  0  0  0  0  0  0  0  0  0
    6.8687    0.2364    0.0607 H   0  0  0  0  0  0  0  0  0  0  0  0
    5.8084   -0.6380    1.1388 H   0  0  0  0  0  0  0  0  0  0  0  0
    5.7297   -1.5177   -1.1773 H   0  0  0  0  0  0  0  0  0  0  0  0
    5.2127    0.0479   -1.7660 H   0  0  0  0  0  0  0  0  0  0  0  0
    4.0668   -3.6011    1.2612 H   0  0  0  0  0  0  0  0  0  0  0  0
    3.3000   -1.6804   -2.6784 H   0  0  0  0  0  0  0  0  0  0  0  0
    3.0529    0.0328   -2.4491 H   0  0  0  0  0  0  0  0  0  0  0  0
    0.9320   -1.1393   -2.8119 H   0  0  0  0  0  0  0  0  0  0  0  0
    1.2776   -2.2295   -1.4943 H   0  0  0  0  0  0  0  0  0  0  0  0
    1.6576    1.5760   -1.7021 H   0  0  0  0  0  0  0  0  0  0  0  0
    0.1907    1.1511   -2.5177 H   0  0  0  0  0  0  0  0  0  0  0  0
    0.1371    1.9405   -0.9329 H   0  0  0  0  0  0  0  0  0  0  0  0
    1.4709    0.0942    2.5621 H   0  0  0  0  0  0  0  0  0  0  0  0
   -0.8357   -0.9170    2.4356 H   0  0  0  0  0  0  0  0  0  0  0  0
   -0.8469    0.8355    2.5831 H   0  0  0  0  0  0  0  0  0  0  0  0
   -1.3100    1.1744    0.2806 H   0  0  0  0  0  0  0  0  0  0  0  0
   -4.4865   -1.0494    2.0797 H   0  0  0  0  0  0  0  0  0  0  0  0
   -2.8442   -1.3563    2.5431 H   0  0  0  0  0  0  0  0  0  0  0  0
   -3.5001   -2.0803    1.0734 H   0  0  0  0  0  0  0  0  0  0  0  0
   -2.7075    2.1372    1.6038 H   0  0  0  0  0  0  0  0  0  0  0  0
   -3.3717    1.0647    2.8015 H   0  0  0  0  0  0  0  0  0  0  0  0
   -5.2291    2.3424    2.3628 H   0  0  0  0  0  0  0  0  0  0  0  0
   -4.7232    2.7391    0.7255 H   0  0  0  0  0  0  0  0  0  0  0  0
   -5.6716    0.6094   -2.5563 H   0  0  0  0  0  0  0  0  0  0  0  0
   -5.5073    2.0711   -1.5700 H   0  0  0  0  0  0  0  0  0  0  0  0
   -6.9985    1.1387   -1.5121 H   0  0  0  0  0  0  0  0  0  0  0  0
   -5.7982   -1.6868   -1.4436 H   0  0  0  0  0  0  0  0  0  0  0  0
   -7.0998   -1.0989   -0.4212 H   0  0  0  0  0  0  0  0  0  0  0  0
   -5.6944   -1.8416    0.3164 H   0  0  0  0  0  0  0  0  0  0  0  0
   -3.4778    1.1555   -0.9186 H   0  0  0  0  0  0  0  0  0  0  0  0
   -3.7713   -0.7656   -2.4673 H   0  0  0  0  0  0  0  0  0  0  0  0
   -3.4082   -1.8864   -1.1681 H   0  0  0  0  0  0  0  0  0  0  0  0
   -1.4246   -1.3517   -2.5579 H   0  0  0  0  0  0  0  0  0  0  0  0
   -1.6738    0.3529   -2.2440 H   0  0  0  0  0  0  0  0  0  0  0  0
   -1.7357   -2.5949    0.3201 H   0  0  0  0  0  0  0  0  0  0  0  0
   -0.0183   -2.4516    0.6213 H   0  0  0  0  0  0  0  0  0  0  0  0
   -0.6257   -2.8970   -0.9740 H   0  0  0  0  0  0  0  0  0  0  0  0
    3.3195   -0.4394    1.4222 H   0  0  0  0  0  0  0  0  0  0  0  0
    3.0474    2.0387    0.9780 H   0  0  0  0  0  0  0  0  0  0  0  0
    3.4602    1.7206   -0.6914 H   0  0  0  0  0  0  0  0  0  0  0  0
  1  2  1  0
  2  3  1  0
  2  4  1  0
  4  5  1  0
  5  6  1  0
  6  7  1  1
  7  8  2  0
  7  9  1  0
  6 10  1  0
 10 11  1  0
 11 12  1  0
 12 13  1  6
 12 14  1  0
 14 15  2  0
 15 16  1  0
 16 17  1  0
 17 18  1  0
 18 19  1  1
 18 20  1  0
 20 21  1  0
 21 22  1  0
 22 23  2  0
 22 24  1  0
 24 25  1  0
 24 26  1  0
 24 27  1  0
 27 28  1  0
 28 29  1  0
 29 30  1  0
 30 31  1  1
 14 32  1  0
 32 33  1  0
 33  2  1  0
 32  6  1  0
 30 12  1  0
 30 17  1  0
 27 18  1  0
  1 34  1  0
  1 35  1  0
  1 36  1  0
  3 37  1  0
  3 38  1  0
  3 39  1  0
  4 40  1  0
  4 41  1  0
  5 42  1  0
  5 43  1  0
  9 44  1  0
 10 45  1  0
 10 46  1  0
 11 47  1  0
 11 48  1  0
 13 49  1  0
 13 50  1  0
 13 51  1  0
 15 52  1  0
 16 53  1  0
 16 54  1  0
 17 55  1  6
 19 56  1  0
 19 57  1  0
 19 58  1  0
 20 59  1  0
 20 60  1  0
 21 61  1  0
 21 62  1  0
 25 63  1  0
 25 64  1  0
 25 65  1  0
 26 66  1  0
 26 67  1  0
 26 68  1  0
 27 69  1  6
 28 70  1  0
 28 71  1  0
 29 72  1  0
 29 73  1  0
 31 74  1  0
 31 75  1  0
 31 76  1  0
 32 77  1  1
 33 78  1  0
 33 79  1  0
M  END
$$$$
