
     RDKit          3D

 38 40  0  0  0  0  0  0  0  0999 V2000
    7.0134    1.5421   -1.2527 C   0  0  0  0  0  0  0  0  0  0  0  0
    6.1137    0.5792   -1.7876 O   0  0  0  0  0  0  0  0  0  0  0  0
    4.9778    0.3313   -1.0690 C   0  0  0  0  0  0  0  0  0  0  0  0
    4.6243    0.9231    0.1418 C   0  0  0  0  0  0  0  0  0  0  0  0
    3.4229    0.5767    0.7782 C   0  0  0  0  0  0  0  0  0  0  0  0
    2.5620   -0.3635    0.2120 C   0  0  0  0  0  0  0  0  0  0  0  0
    1.3392   -0.7698    0.7858 N   0  0  0  0  0  0  0  0  0  0  0  0
    0.7456   -0.2947    1.9462 C   0  0  0  0  0  0  0  0  0  0  0  0
    1.2212    0.5594    2.6927 O   0  0  0  0  0  0  0  0  0  0  0  0
   -0.5443   -0.9870    2.3268 C   0  0  0  0  0  0  0  0  0  0  0  0
   -1.4872   -1.0206    1.2368 N   0  0  0  0  0  0  0  0  0  0  0  0
   -1.3145   -1.8476    0.1901 N   0  0  0  0  0  0  0  0  0  0  0  0
   -2.3687   -1.6302   -0.5811 N   0  0  0  0  0  0  0  0  0  0  0  0
   -3.1538   -0.6886    0.0562 C   0  0  0  0  0  0  0  0  0  0  0  0
   -4.4067   -0.2100   -0.5092 C   0  0  0  0  0  0  0  0  0  0  0  0
   -4.8041   -0.6368   -1.7890 C   0  0  0  0  0  0  0  0  0  0  0  0
   -6.0028   -0.1901   -2.3557 C   0  0  0  0  0  0  0  0  0  0  0  0
   -6.8228    0.6888   -1.6522 C   0  0  0  0  0  0  0  0  0  0  0  0
   -6.4437    1.1191   -0.3829 C   0  0  0  0  0  0  0  0  0  0  0  0
   -5.2470    0.6715    0.1798 C   0  0  0  0  0  0  0  0  0  0  0  0
   -4.9404    1.1156    1.4078 F   0  0  0  0  0  0  0  0  0  0  0  0
   -2.6139   -0.2934    1.2219 N   0  0  0  0  0  0  0  0  0  0  0  0
    2.9216   -0.9557   -1.0035 C   0  0  0  0  0  0  0  0  0  0  0  0
    4.1194   -0.6098   -1.6366 C   0  0  0  0  0  0  0  0  0  0  0  0
    7.8592    1.6279   -1.9417 H   0  0  0  0  0  0  0  0  0  0  0  0
    6.5410    2.5274   -1.1813 H   0  0  0  0  0  0  0  0  0  0  0  0
    7.4058    1.2195   -0.2826 H   0  0  0  0  0  0  0  0  0  0  0  0
    5.2565    1.6603    0.6256 H   0  0  0  0  0  0  0  0  0  0  0  0
    3.1958    1.0663    1.7198 H   0  0  0  0  0  0  0  0  0  0  0  0
    0.8150   -1.4535    0.2420 H   0  0  0  0  0  0  0  0  0  0  0  0
   -0.3348   -2.0167    2.6333 H   0  0  0  0  0  0  0  0  0  0  0  0
   -1.0113   -0.4582    3.1642 H   0  0  0  0  0  0  0  0  0  0  0  0
   -4.1813   -1.3227   -2.3614 H   0  0  0  0  0  0  0  0  0  0  0  0
   -6.2935   -0.5299   -3.3474 H   0  0  0  0  0  0  0  0  0  0  0  0
   -7.7545    1.0374   -2.0908 H   0  0  0  0  0  0  0  0  0  0  0  0
   -7.0721    1.8031    0.1798 H   0  0  0  0  0  0  0  0  0  0  0  0
    2.2790   -1.6916   -1.4803 H   0  0  0  0  0  0  0  0  0  0  0  0
    4.3840   -1.0780   -2.5816 H   0  0  0  0  0  0  0  0  0  0  0  0
  1  2  1  0
  2  3  1  0
  3  4  2  0
  4  5  1  0
  5  6  2  0
  6  7  1  0
  7  8  1  0
  8  9  2  0
  8 10  1  0
 10 11  1  0
 11 12  1  0
 12 13  2  0
 13 14  1  0
 14 15  1  0
 15 16  2  0
 16 17  1  0
 17 18  2  0
 18 19  1  0
 19 20  2  0
 20 21  1  0
 14 22  2  0
  6 23  1  0
 23 24  2  0
 24  3  1  0
 22 11  1  0
 20 15  1  0
  1 25  1  0
  1 26  1  0
  1 27  1  0
  4 28  1  0
  5 29  1  0
  7 30  1  0
 10 31  1  0
 10 32  1  0
 16 33  1  0
 17 34  1  0
 18 35  1  0
 19 36  1  0
 23 37  1  0
 24 38  1  0
M  END
$$$$
