
     RDKit          3D

 44 44  0  0  0  0  0  0  0  0999 V2000
    1.0537    1.2377   -1.7850 C   0  0  0  0  0  0  0  0  0  0  0  0
    0.1928    0.3736   -0.9549 C   0  0  0  0  0  0  0  0  0  0  0  0
   -1.1179    0.7564   -0.6687 C   0  0  0  0  0  0  0  0  0  0  0  0
   -1.9210   -0.0612    0.1263 C   0  0  0  0  0  0  0  0  0  0  0  0
   -3.2973    0.4008    0.3899 C   0  0  0  0  0  0  0  0  0  0  0  0
   -3.2682    1.8712    0.7794 C   0  0  0  0  0  0  0  0  0  0  0  0
   -4.1980    0.2495   -0.8285 C   0  0  0  0  0  0  0  0  0  0  0  0
   -3.8994   -0.3477    1.5504 C   0  0  0  0  0  0  0  0  0  0  0  0
   -1.3993   -1.2355    0.6136 C   0  0  0  0  0  0  0  0  0  0  0  0
   -0.0958   -1.5906    0.3148 C   0  0  0  0  0  0  0  0  0  0  0  0
    0.4829   -2.8601    0.8316 C   0  0  0  0  0  0  0  0  0  0  0  0
    0.7372   -0.7941   -0.4789 C   0  0  0  0  0  0  0  0  0  0  0  0
    2.1133   -1.1997   -0.7773 C   0  0  0  0  0  0  0  0  0  0  0  0
    3.1560   -0.4578   -0.0465 C   0  0  0  0  0  0  0  0  0  0  0  0
    3.4349   -0.5826    1.2049 N   0  0  0  0  0  0  0  0  0  0  0  0
    4.5123    0.3034    1.5834 C   0  0  0  0  0  0  0  0  0  0  0  0
    4.6076    1.2609    0.4243 C   0  0  0  0  0  0  0  0  0  0  0  0
    3.9997    0.5111   -0.6531 N   0  0  0  0  0  0  0  0  0  0  0  0
    0.6855    0.0000    0.0000 Cl  0  0  0  0  0  0  0  0  0  0  0  0
    1.6318    0.7109   -2.5329 H   0  0  0  0  0  0  0  0  0  0  0  0
    0.3672    1.9440   -2.3444 H   0  0  0  0  0  0  0  0  0  0  0  0
    1.6682    1.9483   -1.1545 H   0  0  0  0  0  0  0  0  0  0  0  0
   -1.5078    1.6928   -1.0598 H   0  0  0  0  0  0  0  0  0  0  0  0
   -2.3923    2.0874    1.4061 H   0  0  0  0  0  0  0  0  0  0  0  0
   -4.1589    2.1475    1.3613 H   0  0  0  0  0  0  0  0  0  0  0  0
   -3.2157    2.5055   -0.1508 H   0  0  0  0  0  0  0  0  0  0  0  0
   -4.9455    1.0909   -0.7846 H   0  0  0  0  0  0  0  0  0  0  0  0
   -4.7068   -0.7441   -0.7739 H   0  0  0  0  0  0  0  0  0  0  0  0
   -3.6340    0.3531   -1.7759 H   0  0  0  0  0  0  0  0  0  0  0  0
   -3.2125   -0.1967    2.4091 H   0  0  0  0  0  0  0  0  0  0  0  0
   -4.9316    0.0297    1.7449 H   0  0  0  0  0  0  0  0  0  0  0  0
   -4.0188   -1.3971    1.2670 H   0  0  0  0  0  0  0  0  0  0  0  0
   -2.0256   -1.8632    1.2246 H   0  0  0  0  0  0  0  0  0  0  0  0
    0.7699   -3.5681    0.0221 H   0  0  0  0  0  0  0  0  0  0  0  0
   -0.3006   -3.3836    1.4203 H   0  0  0  0  0  0  0  0  0  0  0  0
    1.3353   -2.7132    1.4987 H   0  0  0  0  0  0  0  0  0  0  0  0
    2.3051   -1.1992   -1.8900 H   0  0  0  0  0  0  0  0  0  0  0  0
    2.2358   -2.2730   -0.5040 H   0  0  0  0  0  0  0  0  0  0  0  0
    4.3051    0.8439    2.5491 H   0  0  0  0  0  0  0  0  0  0  0  0
    5.5042   -0.2177    1.6641 H   0  0  0  0  0  0  0  0  0  0  0  0
    5.6648    1.5215    0.1881 H   0  0  0  0  0  0  0  0  0  0  0  0
    3.9904    2.1627    0.5964 H   0  0  0  0  0  0  0  0  0  0  0  0
    4.1787    0.6825   -1.6565 H   0  0  0  0  0  0  0  0  0  0  0  0
   -0.6855    0.0000    0.0000 H   0  0  0  0  0  0  0  0  0  0  0  0
  1  2  1  0
  2  3  2  0
  3  4  1  0
  4  5  1  0
  5  6  1  0
  5  7  1  0
  5  8  1  0
  4  9  2  0
  9 10  1  0
 10 11  1  0
 10 12  2  0
 12 13  1  0
 13 14  1  0
 14 15  2  0
 15 16  1  0
 16 17  1  0
 17 18  1  0
 12  2  1  0
 18 14  1  0
  1 20  1  0
  1 21  1  0
  1 22  1  0
  3 23  1  0
  6 24  1  0
  6 25  1  0
  6 26  1  0
  7 27  1  0
  7 28  1  0
  7 29  1  0
  8 30  1  0
  8 31  1  0
  8 32  1  0
  9 33  1  0
 11 34  1  0
 11 35  1  0
 11 36  1  0
 13 37  1  0
 13 38  1  0
 16 39  1  0
 16 40  1  0
 17 41  1  0
 17 42  1  0
 18 43  1  0
 19 44  1  0
M  END
$$$$
