
     RDKit          3D

 39 41  0  0  0  0  0  0  0  0999 V2000
    5.8387    0.6637   -1.6377 C   0  0  0  0  0  0  0  0  0  0  0  0
    4.9572    0.1971   -0.5400 C   0  0  0  0  0  0  0  0  0  0  0  0
    5.2612   -0.7150    0.4864 C   0  0  0  0  0  0  0  0  0  0  0  0
    4.1144   -0.8097    1.2445 C   0  0  0  0  0  0  0  0  0  0  0  0
    3.8421   -1.6216    2.4578 C   0  0  0  0  0  0  0  0  0  0  0  0
    3.1820    0.0359    0.6561 N   0  0  0  0  0  0  0  0  0  0  0  0
    1.8525    0.2983    1.0426 C   0  0  0  0  0  0  0  0  0  0  0  0
    1.3773   -0.2588    2.0263 O   0  0  0  0  0  0  0  0  0  0  0  0
    1.1457    1.2966    0.1389 C   0  0  0  0  0  0  0  0  0  0  0  0
   -0.2082    1.5448    0.5096 O   0  0  0  0  0  0  0  0  0  0  0  0
   -1.1666    0.6457    0.1295 C   0  0  0  0  0  0  0  0  0  0  0  0
   -0.9558   -0.5355   -0.5820 C   0  0  0  0  0  0  0  0  0  0  0  0
   -2.0377   -1.3571   -0.8997 C   0  0  0  0  0  0  0  0  0  0  0  0
   -3.3219   -0.9898   -0.5004 C   0  0  0  0  0  0  0  0  0  0  0  0
   -4.3623   -1.8675   -0.8576 O   0  0  0  0  0  0  0  0  0  0  0  0
   -5.6733   -1.5964   -0.5081 C   0  0  0  0  0  0  0  0  0  0  0  0
   -6.6003   -2.3404   -0.8076 O   0  0  0  0  0  0  0  0  0  0  0  0
   -5.9186   -0.3590    0.2488 C   0  0  0  0  0  0  0  0  0  0  0  0
   -4.9485    0.4967    0.6027 C   0  0  0  0  0  0  0  0  0  0  0  0
   -5.2493    1.7462    1.3763 C   0  0  0  0  0  0  0  0  0  0  0  0
   -3.5669    0.1817    0.2145 C   0  0  0  0  0  0  0  0  0  0  0  0
   -2.4681    0.9941    0.5231 C   0  0  0  0  0  0  0  0  0  0  0  0
    3.7045    0.6510   -0.4444 N   0  0  0  0  0  0  0  0  0  0  0  0
    5.4075    0.4083   -2.6110 H   0  0  0  0  0  0  0  0  0  0  0  0
    6.8284    0.2003   -1.5735 H   0  0  0  0  0  0  0  0  0  0  0  0
    5.9693    1.7496   -1.5898 H   0  0  0  0  0  0  0  0  0  0  0  0
    6.1934   -1.2373    0.6553 H   0  0  0  0  0  0  0  0  0  0  0  0
    3.5883   -0.9809    3.3080 H   0  0  0  0  0  0  0  0  0  0  0  0
    3.0230   -2.3256    2.2812 H   0  0  0  0  0  0  0  0  0  0  0  0
    4.7250   -2.2063    2.7376 H   0  0  0  0  0  0  0  0  0  0  0  0
    1.6612    2.2583    0.2486 H   0  0  0  0  0  0  0  0  0  0  0  0
    1.2090    1.0122   -0.9173 H   0  0  0  0  0  0  0  0  0  0  0  0
    0.0295   -0.8548   -0.9019 H   0  0  0  0  0  0  0  0  0  0  0  0
   -1.8813   -2.2796   -1.4522 H   0  0  0  0  0  0  0  0  0  0  0  0
   -6.9580   -0.1864    0.5043 H   0  0  0  0  0  0  0  0  0  0  0  0
   -4.7242    1.7448    2.3374 H   0  0  0  0  0  0  0  0  0  0  0  0
   -6.3192    1.8433    1.5925 H   0  0  0  0  0  0  0  0  0  0  0  0
   -4.9518    2.6354    0.8103 H   0  0  0  0  0  0  0  0  0  0  0  0
   -2.5983    1.9179    1.0815 H   0  0  0  0  0  0  0  0  0  0  0  0
  1  2  1  0
  2  3  1  0
  3  4  2  0
  4  5  1  0
  4  6  1  0
  6  7  1  0
  7  8  2  0
  7  9  1  0
  9 10  1  0
 10 11  1  0
 11 12  2  0
 12 13  1  0
 13 14  2  0
 14 15  1  0
 15 16  1  0
 16 17  2  0
 16 18  1  0
 18 19  2  0
 19 20  1  0
 19 21  1  0
 21 22  2  0
  6 23  1  0
 23  2  2  0
 22 11  1  0
 21 14  1  0
  1 24  1  0
  1 25  1  0
  1 26  1  0
  3 27  1  0
  5 28  1  0
  5 29  1  0
  5 30  1  0
  9 31  1  0
  9 32  1  0
 12 33  1  0
 13 34  1  0
 18 35  1  0
 20 36  1  0
 20 37  1  0
 20 38  1  0
 22 39  1  0
M  END
$$$$
