
     RDKit          3D

 55 57  0  0  0  0  0  0  0  0999 V2000
   11.6153    0.5376   -0.5205 C   0  0  0  0  0  0  0  0  0  0  0  0
   10.1341    0.3167   -0.4463 C   0  0  0  0  0  0  0  0  0  0  0  0
    9.4963   -0.5363   -1.3509 C   0  0  0  0  0  0  0  0  0  0  0  0
    8.1195   -0.7648   -1.2581 C   0  0  0  0  0  0  0  0  0  0  0  0
    7.3576   -0.1534   -0.2551 C   0  0  0  0  0  0  0  0  0  0  0  0
    5.9801   -0.4407   -0.2331 N   0  0  0  0  0  0  0  0  0  0  0  0
    5.0096    0.0332    0.6403 C   0  0  0  0  0  0  0  0  0  0  0  0
    5.2189    0.8191    1.5609 O   0  0  0  0  0  0  0  0  0  0  0  0
    3.6923   -0.5145    0.3426 C   0  0  0  0  0  0  0  0  0  0  0  0
    3.4749   -1.3715   -0.6378 N   0  0  0  0  0  0  0  0  0  0  0  0
    2.1483   -1.7451   -0.7077 N   0  0  0  0  0  0  0  0  0  0  0  0
    1.4156   -1.1558    0.2157 C   0  0  0  0  0  0  0  0  0  0  0  0
   -0.0528   -1.3646    0.3966 C   0  0  0  0  0  0  0  0  0  0  0  0
   -0.8697   -0.3522   -0.4052 C   0  0  0  0  0  0  0  0  0  0  0  0
   -2.3684   -0.5951   -0.2364 C   0  0  0  0  0  0  0  0  0  0  0  0
   -3.2030    0.4193   -0.9945 C   0  0  0  0  0  0  0  0  0  0  0  0
   -2.7276    1.3279   -1.6664 O   0  0  0  0  0  0  0  0  0  0  0  0
   -4.5544    0.2076   -0.8535 N   0  0  0  0  0  0  0  0  0  0  0  0
   -5.5250    1.1473   -1.3822 C   0  0  0  0  0  0  0  0  0  0  0  0
   -6.9569    0.6076   -1.2288 C   0  0  0  0  0  0  0  0  0  0  0  0
   -7.2414    0.1389    0.1408 N   0  0  0  0  0  0  0  0  0  0  0  0
   -8.5512   -0.5149    0.2275 C   0  0  0  0  0  0  0  0  0  0  0  0
   -8.7821   -0.5939    1.7266 C   0  0  0  0  0  0  0  0  0  0  0  0
   -8.0430    0.6100    2.3003 C   0  0  0  0  0  0  0  0  0  0  0  0
   -7.3065    1.2307    1.1194 C   0  0  0  0  0  0  0  0  0  0  0  0
    2.3004   -0.1026    1.2488 S   0  0  0  0  0  0  0  0  0  0  0  0
    7.9975    0.6866    0.6558 C   0  0  0  0  0  0  0  0  0  0  0  0
    9.3760    0.9152    0.5642 C   0  0  0  0  0  0  0  0  0  0  0  0
   11.8847    1.5221   -0.1216 H   0  0  0  0  0  0  0  0  0  0  0  0
   11.9631    0.5009   -1.5590 H   0  0  0  0  0  0  0  0  0  0  0  0
   12.1377   -0.2326    0.0564 H   0  0  0  0  0  0  0  0  0  0  0  0
   10.0657   -1.0299   -2.1354 H   0  0  0  0  0  0  0  0  0  0  0  0
    7.6553   -1.4295   -1.9829 H   0  0  0  0  0  0  0  0  0  0  0  0
    5.6338   -1.0784   -0.9454 H   0  0  0  0  0  0  0  0  0  0  0  0
   -0.3043   -2.3812    0.0693 H   0  0  0  0  0  0  0  0  0  0  0  0
   -0.3178   -1.3059    1.4597 H   0  0  0  0  0  0  0  0  0  0  0  0
   -0.6028   -0.4127   -1.4686 H   0  0  0  0  0  0  0  0  0  0  0  0
   -0.6227    0.6680   -0.0840 H   0  0  0  0  0  0  0  0  0  0  0  0
   -2.6287   -1.5958   -0.6024 H   0  0  0  0  0  0  0  0  0  0  0  0
   -2.6383   -0.5352    0.8251 H   0  0  0  0  0  0  0  0  0  0  0  0
   -4.8914   -0.3748   -0.0934 H   0  0  0  0  0  0  0  0  0  0  0  0
   -5.2967    1.3317   -2.4381 H   0  0  0  0  0  0  0  0  0  0  0  0
   -5.4006    2.0946   -0.8450 H   0  0  0  0  0  0  0  0  0  0  0  0
   -7.6763    1.3698   -1.5535 H   0  0  0  0  0  0  0  0  0  0  0  0
   -7.0618   -0.2470   -1.9109 H   0  0  0  0  0  0  0  0  0  0  0  0
   -8.5486   -1.5073   -0.2342 H   0  0  0  0  0  0  0  0  0  0  0  0
   -9.3387    0.0891   -0.2410 H   0  0  0  0  0  0  0  0  0  0  0  0
   -9.8475   -0.5771    1.9768 H   0  0  0  0  0  0  0  0  0  0  0  0
   -8.3561   -1.5181    2.1343 H   0  0  0  0  0  0  0  0  0  0  0  0
   -8.7367    1.3257    2.7531 H   0  0  0  0  0  0  0  0  0  0  0  0
   -7.3422    0.2842    3.0769 H   0  0  0  0  0  0  0  0  0  0  0  0
   -6.3126    1.5834    1.4141 H   0  0  0  0  0  0  0  0  0  0  0  0
   -7.8797    2.0848    0.7363 H   0  0  0  0  0  0  0  0  0  0  0  0
    7.4586    1.1816    1.4568 H   0  0  0  0  0  0  0  0  0  0  0  0
    9.8502    1.5687    1.2936 H   0  0  0  0  0  0  0  0  0  0  0  0
  1  2  1  0
  2  3  2  0
  3  4  1  0
  4  5  2  0
  5  6  1  0
  6  7  1  0
  7  8  2  0
  7  9  1  0
  9 10  2  0
 10 11  1  0
 11 12  2  0
 12 13  1  0
 13 14  1  0
 14 15  1  0
 15 16  1  0
 16 17  2  0
 16 18  1  0
 18 19  1  0
 19 20  1  0
 20 21  1  0
 21 22  1  0
 22 23  1  0
 23 24  1  0
 24 25  1  0
 12 26  1  0
  5 27  1  0
 27 28  2  0
 28  2  1  0
 26  9  1  0
 25 21  1  0
  1 29  1  0
  1 30  1  0
  1 31  1  0
  3 32  1  0
  4 33  1  0
  6 34  1  0
 13 35  1  0
 13 36  1  0
 14 37  1  0
 14 38  1  0
 15 39  1  0
 15 40  1  0
 18 41  1  0
 19 42  1  0
 19 43  1  0
 20 44  1  0
 20 45  1  0
 22 46  1  0
 22 47  1  0
 23 48  1  0
 23 49  1  0
 24 50  1  0
 24 51  1  0
 25 52  1  0
 25 53  1  0
 27 54  1  0
 28 55  1  0
M  END
$$$$
