
     RDKit          3D

 53 55  0  0  0  0  0  0  0  0999 V2000
   -7.6042    0.3851    0.7066 C   0  0  0  0  0  0  0  0  0  0  0  0
   -6.5618    0.4751   -0.4079 C   0  0  0  0  0  0  0  0  0  0  0  0
   -5.3647    1.3474    0.0031 C   0  0  0  0  0  0  0  0  0  0  0  0
   -4.2180    0.5178    0.5678 C   0  0  0  0  0  0  0  0  0  0  0  0
   -3.7170   -0.4866   -0.4187 N   0  0  0  0  0  0  0  0  0  0  0  0
   -2.1572   -0.1352   -1.1036 S   0  0  0  0  0  6  0  0  0  0  0  0
   -2.2740    1.2394   -1.5518 O   0  0  0  0  0  0  0  0  0  0  0  0
   -1.9144   -1.1979   -2.0618 O   0  0  0  0  0  0  0  0  0  0  0  0
   -1.0141   -0.2855    0.1796 C   0  0  0  0  0  0  0  0  0  0  0  0
   -1.2556   -1.1178    1.2076 C   0  0  0  0  0  0  0  0  0  0  0  0
   -0.3047   -1.2582    2.2807 C   0  0  0  0  0  0  0  0  0  0  0  0
    0.8329   -0.5557    2.2578 C   0  0  0  0  0  0  0  0  0  0  0  0
    1.1197    0.3045    1.2120 N   0  0  0  0  0  0  0  0  0  0  0  0
    2.4172    0.9854    1.1717 C   0  0  0  0  0  0  0  0  0  0  0  0
    3.5340    0.1107    0.5605 C   0  0  0  0  0  0  0  0  0  0  0  0
    3.3535   -1.1040    0.4388 O   0  0  0  0  0  0  0  0  0  0  0  0
    4.7283    0.7797    0.2064 N   0  0  0  0  0  0  0  0  0  0  0  0
    4.8370    2.2371    0.3009 C   0  0  0  0  0  0  0  0  0  0  0  0
    5.8379    0.0787   -0.3989 C   0  0  0  0  0  0  0  0  0  0  0  0
    6.0853   -1.2790   -0.1502 C   0  0  0  0  0  0  0  0  0  0  0  0
    7.1746   -1.9423   -0.7292 C   0  0  0  0  0  0  0  0  0  0  0  0
    8.0447   -1.2591   -1.5703 C   0  0  0  0  0  0  0  0  0  0  0  0
    7.8252    0.0878   -1.8315 C   0  0  0  0  0  0  0  0  0  0  0  0
    6.7359    0.7483   -1.2503 C   0  0  0  0  0  0  0  0  0  0  0  0
    0.2706    0.4527    0.1048 C   0  0  0  0  0  0  0  0  0  0  0  0
    0.5650    1.1556   -0.8576 O   0  0  0  0  0  0  0  0  0  0  0  0
   -4.7176   -0.8989   -1.4465 C   0  0  0  0  0  0  0  0  0  0  0  0
   -6.1137   -0.9304   -0.8365 C   0  0  0  0  0  0  0  0  0  0  0  0
   -7.9849    1.3795    0.9630 H   0  0  0  0  0  0  0  0  0  0  0  0
   -7.1818   -0.0590    1.6142 H   0  0  0  0  0  0  0  0  0  0  0  0
   -8.4557   -0.2277    0.3924 H   0  0  0  0  0  0  0  0  0  0  0  0
   -7.0445    0.9631   -1.2650 H   0  0  0  0  0  0  0  0  0  0  0  0
   -5.0059    1.8914   -0.8804 H   0  0  0  0  0  0  0  0  0  0  0  0
   -5.6695    2.1104    0.7287 H   0  0  0  0  0  0  0  0  0  0  0  0
   -3.4129    1.1843    0.8948 H   0  0  0  0  0  0  0  0  0  0  0  0
   -4.5436   -0.0269    1.4621 H   0  0  0  0  0  0  0  0  0  0  0  0
   -2.1609   -1.7152    1.2641 H   0  0  0  0  0  0  0  0  0  0  0  0
   -0.5231   -1.9497    3.0882 H   0  0  0  0  0  0  0  0  0  0  0  0
    1.5771   -0.6574    3.0426 H   0  0  0  0  0  0  0  0  0  0  0  0
    2.3010    1.9004    0.5834 H   0  0  0  0  0  0  0  0  0  0  0  0
    2.7042    1.2593    2.1935 H   0  0  0  0  0  0  0  0  0  0  0  0
    4.4439    2.6832   -0.6176 H   0  0  0  0  0  0  0  0  0  0  0  0
    4.2730    2.6215    1.1539 H   0  0  0  0  0  0  0  0  0  0  0  0
    5.8742    2.5447    0.4671 H   0  0  0  0  0  0  0  0  0  0  0  0
    5.4584   -1.8565    0.5227 H   0  0  0  0  0  0  0  0  0  0  0  0
    7.3370   -2.9957   -0.5158 H   0  0  0  0  0  0  0  0  0  0  0  0
    8.8864   -1.7759   -2.0229 H   0  0  0  0  0  0  0  0  0  0  0  0
    8.4941    0.6277   -2.4969 H   0  0  0  0  0  0  0  0  0  0  0  0
    6.5926    1.7910   -1.5178 H   0  0  0  0  0  0  0  0  0  0  0  0
   -4.4637   -1.9053   -1.7967 H   0  0  0  0  0  0  0  0  0  0  0  0
   -4.6956   -0.2166   -2.3042 H   0  0  0  0  0  0  0  0  0  0  0  0
   -6.8301   -1.3367   -1.5603 H   0  0  0  0  0  0  0  0  0  0  0  0
   -6.1146   -1.6133    0.0233 H   0  0  0  0  0  0  0  0  0  0  0  0
  1  2  1  0
  2  3  1  0
  3  4  1  0
  4  5  1  0
  5  6  1  0
  6  7  2  0
  6  8  2  0
  6  9  1  0
  9 10  2  0
 10 11  1  0
 11 12  2  0
 12 13  1  0
 13 14  1  0
 14 15  1  0
 15 16  2  0
 15 17  1  0
 17 18  1  0
 17 19  1  0
 19 20  2  0
 20 21  1  0
 21 22  2  0
 22 23  1  0
 23 24  2  0
 13 25  1  0
 25 26  2  0
  5 27  1  0
 27 28  1  0
 28  2  1  0
 25  9  1  0
 24 19  1  0
  1 29  1  0
  1 30  1  0
  1 31  1  0
  2 32  1  0
  3 33  1  0
  3 34  1  0
  4 35  1  0
  4 36  1  0
 10 37  1  0
 11 38  1  0
 12 39  1  0
 14 40  1  0
 14 41  1  0
 18 42  1  0
 18 43  1  0
 18 44  1  0
 20 45  1  0
 21 46  1  0
 22 47  1  0
 23 48  1  0
 24 49  1  0
 27 50  1  0
 27 51  1  0
 28 52  1  0
 28 53  1  0
M  END
$$$$
