
     RDKit          3D

 21 22  0  0  0  0  0  0  0  0999 V2000
    1.8390    0.4444   -4.1331 N   0  0  0  0  0  0  0  0  0  0  0  0
    1.4224    0.4208   -3.0518 C   0  0  0  0  0  0  0  0  0  0  0  0
    0.8693    0.3551   -1.7304 C   0  0  0  0  0  0  0  0  0  0  0  0
    0.3330   -0.8628   -1.2846 C   0  0  0  0  0  0  0  0  0  0  0  0
   -0.2507   -0.9480   -0.0176 C   0  0  0  0  0  0  0  0  0  0  0  0
   -0.7822   -2.1636    0.4175 N   0  0  0  0  0  0  0  0  0  0  0  0
   -1.3783   -2.3340    1.6495 C   0  0  0  0  0  0  0  0  0  0  0  0
   -1.8321   -3.4151    1.9969 O   0  0  0  0  0  0  0  0  0  0  0  0
   -1.4450   -1.0906    2.5701 C   0  0  0  0  0  0  0  0  0  0  0  0
   -1.9547   -1.1404    3.6805 O   0  0  0  0  0  0  0  0  0  0  0  0
   -0.9010    0.0770    2.0769 N   0  0  0  0  0  0  0  0  0  0  0  0
   -0.3106    0.1763    0.8159 C   0  0  0  0  0  0  0  0  0  0  0  0
    0.2167    1.3930    0.3932 C   0  0  0  0  0  0  0  0  0  0  0  0
    0.8073    1.4646   -0.8778 C   0  0  0  0  0  0  0  0  0  0  0  0
    1.3666    2.7392   -1.2870 N   0  0  0  0  0  4  0  0  0  0  0  0
    0.6076    3.7147   -1.2575 O   0  0  0  0  0  0  0  0  0  0  0  0
    2.5623    2.7535   -1.5965 O   0  0  0  0  0  1  0  0  0  0  0  0
    0.3671   -1.7391   -1.9313 H   0  0  0  0  0  0  0  0  0  0  0  0
   -0.7527   -2.9917   -0.1641 H   0  0  0  0  0  0  0  0  0  0  0  0
   -0.9598    0.8748    2.6977 H   0  0  0  0  0  0  0  0  0  0  0  0
    0.1760    2.2721    1.0333 H   0  0  0  0  0  0  0  0  0  0  0  0
  1  2  3  0
  2  3  1  0
  3  4  2  0
  4  5  1  0
  5  6  1  0
  6  7  1  0
  7  8  2  0
  7  9  1  0
  9 10  2  0
  9 11  1  0
 11 12  1  0
 12 13  1  0
 13 14  2  0
 14 15  1  0
 15 16  2  0
 15 17  1  0
 14  3  1  0
 12  5  2  0
  4 18  1  0
  6 19  1  0
 11 20  1  0
 13 21  1  0
M  CHG  2  15   1  17  -1
M  END
$$$$
