
     RDKit          3D

 40 42  0  0  0  0  0  0  0  0999 V2000
   -1.8513   -0.9759   -1.7380 C   0  0  0  0  0  0  0  0  0  0  0  0
   -1.4745    0.3619   -1.1235 C   0  0  0  0  0  0  0  0  0  0  0  0
   -1.9362    0.4907    0.2445 N   0  0  0  0  0  0  0  0  0  0  0  0
   -1.2030    0.2771    1.3952 C   0  0  0  0  0  0  0  0  0  0  0  0
    0.2264   -0.1479    1.4632 C   0  0  0  0  0  0  0  0  0  0  0  0
    0.4111   -1.2313    0.5482 O   0  0  0  0  0  0  0  0  0  0  0  0
    1.7415   -1.5563    0.3948 C   0  0  0  0  0  0  0  0  0  0  0  0
    2.1009   -2.8356    0.8298 C   0  0  0  0  0  0  0  0  0  0  0  0
    3.4074   -3.2807    0.6644 C   0  0  0  0  0  0  0  0  0  0  0  0
    4.3432   -2.4492    0.0567 C   0  0  0  0  0  0  0  0  0  0  0  0
    3.9760   -1.1716   -0.4011 C   0  0  0  0  0  0  0  0  0  0  0  0
    4.9116   -0.3372   -1.0284 C   0  0  0  0  0  0  0  0  0  0  0  0
    4.5294    0.9150   -1.4867 C   0  0  0  0  0  0  0  0  0  0  0  0
    3.2146    1.2906   -1.3098 C   0  0  0  0  0  0  0  0  0  0  0  0
    2.2843    0.5157   -0.7109 N   0  0  0  0  0  0  0  0  0  0  0  0
    2.6522   -0.7031   -0.2478 C   0  0  0  0  0  0  0  0  0  0  0  0
   -1.9528    0.5844    2.4365 N   0  0  0  0  0  0  0  0  0  0  0  0
   -3.1766    1.0048    1.9795 N   0  0  0  0  0  0  0  0  0  0  0  0
   -3.1566    0.9364    0.6704 C   0  0  0  0  0  0  0  0  0  0  0  0
   -4.4563    1.3721   -0.3829 S   0  0  0  0  0  0  0  0  0  0  0  0
   -5.2513    2.6708    0.6062 C   0  0  0  0  0  0  0  0  0  0  0  0
   -4.3874    3.8858    0.8438 C   0  0  0  0  0  0  0  0  0  0  0  0
   -4.5915    4.7287    1.7053 O   0  0  0  0  0  0  0  0  0  0  0  0
   -3.3659    4.0762   -0.0199 O   0  0  0  0  0  0  0  0  0  0  0  0
   -1.3663   -1.1037   -2.7111 H   0  0  0  0  0  0  0  0  0  0  0  0
   -1.5583   -1.8132   -1.0976 H   0  0  0  0  0  0  0  0  0  0  0  0
   -2.9347   -1.0540   -1.8962 H   0  0  0  0  0  0  0  0  0  0  0  0
   -1.8890    1.1905   -1.7110 H   0  0  0  0  0  0  0  0  0  0  0  0
   -0.3901    0.4985   -1.1393 H   0  0  0  0  0  0  0  0  0  0  0  0
    0.8615    0.7213    1.2594 H   0  0  0  0  0  0  0  0  0  0  0  0
    0.4471   -0.5095    2.4758 H   0  0  0  0  0  0  0  0  0  0  0  0
    1.3577   -3.4819    1.2924 H   0  0  0  0  0  0  0  0  0  0  0  0
    3.6966   -4.2762    0.9974 H   0  0  0  0  0  0  0  0  0  0  0  0
    5.3624   -2.8105   -0.0744 H   0  0  0  0  0  0  0  0  0  0  0  0
    5.9407   -0.6592   -1.1618 H   0  0  0  0  0  0  0  0  0  0  0  0
    5.2388    1.5754   -1.9726 H   0  0  0  0  0  0  0  0  0  0  0  0
    2.8597    2.2564   -1.6497 H   0  0  0  0  0  0  0  0  0  0  0  0
   -5.5532    2.2649    1.5756 H   0  0  0  0  0  0  0  0  0  0  0  0
   -6.1483    2.9992    0.0722 H   0  0  0  0  0  0  0  0  0  0  0  0
   -2.9199    4.8671    0.3512 H   0  0  0  0  0  0  0  0  0  0  0  0
  1  2  1  0
  2  3  1  0
  3  4  1  0
  4  5  1  0
  5  6  1  0
  6  7  1  0
  7  8  2  0
  8  9  1  0
  9 10  2  0
 10 11  1  0
 11 12  2  0
 12 13  1  0
 13 14  2  0
 14 15  1  0
 15 16  2  0
  4 17  2  0
 17 18  1  0
 18 19  2  0
 19 20  1  0
 20 21  1  0
 21 22  1  0
 22 23  2  0
 22 24  1  0
 19  3  1  0
 16  7  1  0
 16 11  1  0
  1 25  1  0
  1 26  1  0
  1 27  1  0
  2 28  1  0
  2 29  1  0
  5 30  1  0
  5 31  1  0
  8 32  1  0
  9 33  1  0
 10 34  1  0
 12 35  1  0
 13 36  1  0
 14 37  1  0
 21 38  1  0
 21 39  1  0
 24 40  1  0
M  END
$$$$
