
     RDKit          3D

 27 28  0  0  0  0  0  0  0  0999 V2000
   -3.9938   -1.5900   -0.1450 O   0  0  0  0  0  0  0  0  0  0  0  0
   -2.9250   -1.1219    0.2066 C   0  0  0  0  0  0  0  0  0  0  0  0
   -2.2091   -1.7274    1.1755 O   0  0  0  0  0  0  0  0  0  0  0  0
   -2.3115    0.1271   -0.3224 C   0  0  0  0  0  0  0  0  0  0  0  0
   -3.1367    0.9066   -1.1554 C   0  0  0  0  0  0  0  0  0  0  0  0
   -2.6721    2.0999   -1.7053 C   0  0  0  0  0  0  0  0  0  0  0  0
   -1.3803    2.5278   -1.4257 C   0  0  0  0  0  0  0  0  0  0  0  0
   -0.5516    1.7573   -0.6061 C   0  0  0  0  0  0  0  0  0  0  0  0
   -0.9891    0.5428   -0.0475 C   0  0  0  0  0  0  0  0  0  0  0  0
   -0.1149   -0.2227    0.7556 N   0  0  0  0  0  0  0  0  0  0  0  0
    1.2626   -0.4937    0.6398 C   0  0  0  0  0  0  0  0  0  0  0  0
    1.9334   -1.0181    1.7548 C   0  0  0  0  0  0  0  0  0  0  0  0
    3.3064   -1.2760    1.7177 C   0  0  0  0  0  0  0  0  0  0  0  0
    4.0326   -1.0069    0.5614 C   0  0  0  0  0  0  0  0  0  0  0  0
    3.3851   -0.4801   -0.5529 C   0  0  0  0  0  0  0  0  0  0  0  0
    2.0112   -0.2216   -0.5103 C   0  0  0  0  0  0  0  0  0  0  0  0
   -2.7656   -2.5044    1.4031 H   0  0  0  0  0  0  0  0  0  0  0  0
   -4.1529    0.5837   -1.3768 H   0  0  0  0  0  0  0  0  0  0  0  0
   -3.3199    2.6952   -2.3439 H   0  0  0  0  0  0  0  0  0  0  0  0
   -1.0132    3.4640   -1.8389 H   0  0  0  0  0  0  0  0  0  0  0  0
    0.4458    2.1292   -0.3805 H   0  0  0  0  0  0  0  0  0  0  0  0
   -0.6108   -0.9582    1.2667 H   0  0  0  0  0  0  0  0  0  0  0  0
    1.3853   -1.2191    2.6721 H   0  0  0  0  0  0  0  0  0  0  0  0
    3.8061   -1.6812    2.5934 H   0  0  0  0  0  0  0  0  0  0  0  0
    5.1003   -1.2062    0.5284 H   0  0  0  0  0  0  0  0  0  0  0  0
    3.9461   -0.2719   -1.4602 H   0  0  0  0  0  0  0  0  0  0  0  0
    1.5318    0.1659   -1.4043 H   0  0  0  0  0  0  0  0  0  0  0  0
  1  2  2  0
  2  3  1  0
  2  4  1  0
  4  5  2  0
  5  6  1  0
  6  7  2  0
  7  8  1  0
  8  9  2  0
  9 10  1  0
 10 11  1  0
 11 12  2  0
 12 13  1  0
 13 14  2  0
 14 15  1  0
 15 16  2  0
  9  4  1  0
 16 11  1  0
  3 17  1  0
  5 18  1  0
  6 19  1  0
  7 20  1  0
  8 21  1  0
 10 22  1  0
 12 23  1  0
 13 24  1  0
 14 25  1  0
 15 26  1  0
 16 27  1  0
M  END
$$$$
