
     RDKit          3D

 29 30  0  0  0  0  0  0  0  0999 V2000
   -5.0510    0.4924    1.4070 N   0  0  0  0  0  0  0  0  0  0  0  0
   -3.7118    0.7537    1.3083 C   0  0  0  0  0  0  0  0  0  0  0  0
   -3.2359    1.6673    1.9652 O   0  0  0  0  0  0  0  0  0  0  0  0
   -3.0991   -0.0971    0.4288 N   0  0  0  0  0  0  0  0  0  0  0  0
   -1.7523   -0.1655    0.1097 C   0  0  0  0  0  0  0  0  0  0  0  0
   -0.5997    0.7576    0.9420 S   0  0  0  0  0  0  0  0  0  0  0  0
    0.6996    0.1176    0.0357 C   0  0  0  0  0  0  0  0  0  0  0  0
    2.0777    0.5604    0.2847 C   0  0  0  0  0  0  0  0  0  0  0  0
    2.9163    0.8823   -0.7960 C   0  0  0  0  0  0  0  0  0  0  0  0
    4.2345    1.2919   -0.5782 C   0  0  0  0  0  0  0  0  0  0  0  0
    4.7196    1.3776    0.7204 C   0  0  0  0  0  0  0  0  0  0  0  0
    5.9836    1.7683    0.9281 F   0  0  0  0  0  0  0  0  0  0  0  0
    3.9125    1.0623    1.8055 C   0  0  0  0  0  0  0  0  0  0  0  0
    2.5939    0.6533    1.5884 C   0  0  0  0  0  0  0  0  0  0  0  0
    0.2400   -0.7908   -0.9000 C   0  0  0  0  0  0  0  0  0  0  0  0
   -1.1887   -0.9727   -0.8692 C   0  0  0  0  0  0  0  0  0  0  0  0
   -1.9946   -1.8618   -1.7050 C   0  0  0  0  0  0  0  0  0  0  0  0
   -1.3429   -2.5283   -2.7016 N   0  0  0  0  0  0  0  0  0  0  0  0
   -3.2043   -2.0145   -1.5509 O   0  0  0  0  0  0  0  0  0  0  0  0
   -5.3259   -0.4792    1.3959 H   0  0  0  0  0  0  0  0  0  0  0  0
   -5.4935    1.0409    2.1346 H   0  0  0  0  0  0  0  0  0  0  0  0
   -3.7098   -0.6776   -0.1396 H   0  0  0  0  0  0  0  0  0  0  0  0
    2.5446    0.8331   -1.8169 H   0  0  0  0  0  0  0  0  0  0  0  0
    4.8814    1.5482   -1.4109 H   0  0  0  0  0  0  0  0  0  0  0  0
    4.3104    1.1358    2.8125 H   0  0  0  0  0  0  0  0  0  0  0  0
    1.9761    0.4023    2.4484 H   0  0  0  0  0  0  0  0  0  0  0  0
    0.9137   -1.3160   -1.5646 H   0  0  0  0  0  0  0  0  0  0  0  0
   -0.3852   -2.3514   -2.9594 H   0  0  0  0  0  0  0  0  0  0  0  0
   -1.9094   -3.0902   -3.3226 H   0  0  0  0  0  0  0  0  0  0  0  0
  1  2  1  0
  2  3  2  0
  2  4  1  0
  4  5  1  0
  5  6  1  0
  6  7  1  0
  7  8  1  0
  8  9  2  0
  9 10  1  0
 10 11  2  0
 11 12  1  0
 11 13  1  0
 13 14  2  0
  7 15  2  0
 15 16  1  0
 16 17  1  0
 17 18  1  0
 17 19  2  0
 16  5  2  0
 14  8  1  0
  1 20  1  0
  1 21  1  0
  4 22  1  0
  9 23  1  0
 10 24  1  0
 13 25  1  0
 14 26  1  0
 15 27  1  0
 18 28  1  0
 18 29  1  0
M  END
$$$$
