
     RDKit          3D

 46 48  0  0  0  0  0  0  0  0999 V2000
   -3.9175   -2.4061   -1.1140 C   0  0  0  0  0  0  0  0  0  0  0  0
   -2.4562   -2.0749   -1.2877 C   0  0  0  0  0  0  0  0  0  0  0  0
   -1.7282   -2.8615   -1.8968 O   0  0  0  0  0  0  0  0  0  0  0  0
   -1.9746   -0.8696   -0.7542 N   0  0  0  0  0  0  0  0  0  0  0  0
   -2.8039    0.0099    0.1093 C   0  0  0  0  0  0  0  0  0  0  0  0
   -2.2471    0.2607    1.5194 C   0  0  0  0  0  0  0  0  0  0  0  0
   -2.7838    1.5651    2.0988 C   0  0  0  0  0  0  0  0  0  0  0  0
   -4.1253    1.7697    1.6706 O   0  0  0  0  0  0  0  0  0  0  0  0
   -4.2248    2.0782    0.2794 C   0  0  0  0  0  0  0  0  0  0  0  0
   -3.2314    1.3038   -0.5871 C   0  0  0  0  0  0  0  0  0  0  0  0
   -0.5474   -0.6022   -1.0325 C   0  0  0  0  0  0  0  0  0  0  0  0
   -0.0133    0.8301   -0.9584 C   0  0  0  0  0  0  0  0  0  0  0  0
    1.4967    0.6270   -0.8946 C   0  0  0  0  0  0  0  0  0  0  0  0
    1.6677   -0.6185   -0.1644 N   0  0  0  0  0  0  0  0  0  0  0  0
    2.8187   -1.1295    0.4181 C   0  0  0  0  0  0  0  0  0  0  0  0
    2.7827   -2.1666    1.0853 O   0  0  0  0  0  0  0  0  0  0  0  0
    4.1444   -0.4330    0.2613 C   0  0  0  0  0  0  0  0  0  0  0  0
    5.2100   -0.8451    1.0657 C   0  0  0  0  0  0  0  0  0  0  0  0
    6.4514   -0.2283    0.9137 C   0  0  0  0  0  0  0  0  0  0  0  0
    6.5886    0.7700   -0.0364 C   0  0  0  0  0  0  0  0  0  0  0  0
    7.7655    1.3824   -0.2101 F   0  0  0  0  0  0  0  0  0  0  0  0
    5.4905    1.1208   -0.8015 C   0  0  0  0  0  0  0  0  0  0  0  0
    4.2699    0.5446   -0.6773 N   0  0  0  0  0  0  0  0  0  0  0  0
    0.4285   -1.3841   -0.1345 C   0  0  0  0  0  0  0  0  0  0  0  0
   -4.1607   -3.2837   -1.7217 H   0  0  0  0  0  0  0  0  0  0  0  0
   -4.5444   -1.5812   -1.4624 H   0  0  0  0  0  0  0  0  0  0  0  0
   -4.1278   -2.6481   -0.0692 H   0  0  0  0  0  0  0  0  0  0  0  0
   -3.7438   -0.5188    0.2940 H   0  0  0  0  0  0  0  0  0  0  0  0
   -1.1577    0.2735    1.5762 H   0  0  0  0  0  0  0  0  0  0  0  0
   -2.5597   -0.5766    2.1575 H   0  0  0  0  0  0  0  0  0  0  0  0
   -2.1669    2.4208    1.7987 H   0  0  0  0  0  0  0  0  0  0  0  0
   -2.7721    1.5217    3.1925 H   0  0  0  0  0  0  0  0  0  0  0  0
   -5.2493    1.8392   -0.0248 H   0  0  0  0  0  0  0  0  0  0  0  0
   -4.0928    3.1575    0.1439 H   0  0  0  0  0  0  0  0  0  0  0  0
   -3.6703    1.1044   -1.5718 H   0  0  0  0  0  0  0  0  0  0  0  0
   -2.3692    1.9500   -0.7730 H   0  0  0  0  0  0  0  0  0  0  0  0
   -0.3622   -0.9313   -2.0663 H   0  0  0  0  0  0  0  0  0  0  0  0
   -0.3304    1.3553   -0.0552 H   0  0  0  0  0  0  0  0  0  0  0  0
   -0.3076    1.4360   -1.8207 H   0  0  0  0  0  0  0  0  0  0  0  0
    1.9171    0.4978   -1.8976 H   0  0  0  0  0  0  0  0  0  0  0  0
    1.9887    1.4593   -0.3846 H   0  0  0  0  0  0  0  0  0  0  0  0
    5.0775   -1.6376    1.7970 H   0  0  0  0  0  0  0  0  0  0  0  0
    7.2999   -0.5238    1.5218 H   0  0  0  0  0  0  0  0  0  0  0  0
    5.5714    1.8968   -1.5559 H   0  0  0  0  0  0  0  0  0  0  0  0
    0.6077   -2.4004   -0.5015 H   0  0  0  0  0  0  0  0  0  0  0  0
    0.0915   -1.4535    0.9044 H   0  0  0  0  0  0  0  0  0  0  0  0
  1  2  1  0
  2  3  2  0
  2  4  1  0
  4  5  1  0
  5  6  1  0
  6  7  1  0
  7  8  1  0
  8  9  1  0
  9 10  1  0
  4 11  1  0
 11 12  1  0
 12 13  1  0
 13 14  1  0
 14 15  1  0
 15 16  2  0
 15 17  1  0
 17 18  2  0
 18 19  1  0
 19 20  2  0
 20 21  1  0
 20 22  1  0
 22 23  2  0
 14 24  1  0
 10  5  1  0
 24 11  1  0
 23 17  1  0
  1 25  1  0
  1 26  1  0
  1 27  1  0
  5 28  1  0
  6 29  1  0
  6 30  1  0
  7 31  1  0
  7 32  1  0
  9 33  1  0
  9 34  1  0
 10 35  1  0
 10 36  1  0
 11 37  1  0
 12 38  1  0
 12 39  1  0
 13 40  1  0
 13 41  1  0
 18 42  1  0
 19 43  1  0
 22 44  1  0
 24 45  1  0
 24 46  1  0
M  END
$$$$
