
     RDKit          3D

 53 56  0  0  0  0  0  0  0  0999 V2000
   -4.6107    0.3274    0.7336 C   0  0  0  0  0  0  0  0  0  0  0  0
   -3.5668    1.2677    0.1015 C   0  0  0  0  0  0  0  0  0  0  0  0
   -4.2088    2.6599   -0.0526 C   0  0  0  0  0  0  0  0  0  0  0  0
   -2.3283    1.3941    0.9929 C   0  0  0  0  0  0  0  0  0  0  0  0
   -1.5393    0.1098    1.1086 C   0  0  0  0  0  0  0  0  0  0  0  0
   -0.9310   -0.1296    2.1559 O   0  0  0  0  0  0  0  0  0  0  0  0
   -1.4603   -0.8390   -0.0709 C   0  0  0  0  0  0  0  0  0  0  0  0
   -0.0192   -1.1027   -0.6094 C   0  0  0  0  0  0  0  0  0  0  0  0
    1.0428   -0.1233   -0.1622 C   0  0  0  0  0  0  0  0  0  0  0  0
    2.0613   -0.4729    0.6423 C   0  0  0  0  0  0  0  0  0  0  0  0
    3.1366    0.4750    1.0953 C   0  0  0  0  0  0  0  0  0  0  0  0
    3.3420    1.6645    0.1357 C   0  0  0  0  0  0  0  0  0  0  0  0
    4.0458    1.2068   -1.1593 C   0  0  0  0  0  0  0  0  0  0  0  0
    4.2352    2.7158    0.8181 C   0  0  0  0  0  0  0  0  0  0  0  0
    1.9785    2.2928   -0.1913 C   0  0  0  0  0  0  0  0  0  0  0  0
    0.9493    1.2782   -0.6445 C   0  0  0  0  0  0  0  0  0  0  0  0
   -0.0085    1.6103   -1.3424 O   0  0  0  0  0  0  0  0  0  0  0  0
    2.2280   -1.7606    1.1279 O   0  0  0  0  0  0  0  0  0  0  0  0
    1.4810   -2.7707    0.5723 C   0  0  0  0  0  0  0  0  0  0  0  0
    1.8575   -4.0743    0.8995 C   0  0  0  0  0  0  0  0  0  0  0  0
    1.1801   -5.1567    0.3407 C   0  0  0  0  0  0  0  0  0  0  0  0
    0.1304   -4.9343   -0.5482 C   0  0  0  0  0  0  0  0  0  0  0  0
   -0.2518   -3.6301   -0.8678 C   0  0  0  0  0  0  0  0  0  0  0  0
    0.4106   -2.5315   -0.2953 C   0  0  0  0  0  0  0  0  0  0  0  0
   -2.3960   -0.5438   -1.2266 C   0  0  0  0  0  0  0  0  0  0  0  0
   -2.5355   -1.3613   -2.1423 O   0  0  0  0  0  0  0  0  0  0  0  0
   -3.1394    0.7688   -1.2816 C   0  0  0  0  0  0  0  0  0  0  0  0
   -5.5025    0.2504    0.1013 H   0  0  0  0  0  0  0  0  0  0  0  0
   -4.2249   -0.6864    0.8799 H   0  0  0  0  0  0  0  0  0  0  0  0
   -4.9310    0.6997    1.7134 H   0  0  0  0  0  0  0  0  0  0  0  0
   -5.0958    2.6178   -0.6947 H   0  0  0  0  0  0  0  0  0  0  0  0
   -4.5180    3.0629    0.9185 H   0  0  0  0  0  0  0  0  0  0  0  0
   -3.5083    3.3739   -0.5005 H   0  0  0  0  0  0  0  0  0  0  0  0
   -1.6496    2.1652    0.6123 H   0  0  0  0  0  0  0  0  0  0  0  0
   -2.6259    1.6987    2.0042 H   0  0  0  0  0  0  0  0  0  0  0  0
   -1.8844   -1.7665    0.3456 H   0  0  0  0  0  0  0  0  0  0  0  0
   -0.0190   -1.0527   -1.7089 H   0  0  0  0  0  0  0  0  0  0  0  0
    2.8666    0.8335    2.0974 H   0  0  0  0  0  0  0  0  0  0  0  0
    4.0837   -0.0697    1.2042 H   0  0  0  0  0  0  0  0  0  0  0  0
    5.0242    0.7651   -0.9381 H   0  0  0  0  0  0  0  0  0  0  0  0
    4.2113    2.0534   -1.8355 H   0  0  0  0  0  0  0  0  0  0  0  0
    3.4652    0.4589   -1.7085 H   0  0  0  0  0  0  0  0  0  0  0  0
    5.2158    2.2972    1.0711 H   0  0  0  0  0  0  0  0  0  0  0  0
    3.7809    3.0820    1.7457 H   0  0  0  0  0  0  0  0  0  0  0  0
    4.3980    3.5805    0.1649 H   0  0  0  0  0  0  0  0  0  0  0  0
    1.5612    2.7958    0.6901 H   0  0  0  0  0  0  0  0  0  0  0  0
    2.0896    3.0434   -0.9831 H   0  0  0  0  0  0  0  0  0  0  0  0
    2.6855   -4.2450    1.5819 H   0  0  0  0  0  0  0  0  0  0  0  0
    1.4759   -6.1718    0.5917 H   0  0  0  0  0  0  0  0  0  0  0  0
   -0.3933   -5.7766   -0.9935 H   0  0  0  0  0  0  0  0  0  0  0  0
   -1.0727   -3.4781   -1.5670 H   0  0  0  0  0  0  0  0  0  0  0  0
   -2.4937    1.4975   -1.7826 H   0  0  0  0  0  0  0  0  0  0  0  0
   -4.0223    0.6305   -1.9184 H   0  0  0  0  0  0  0  0  0  0  0  0
  1  2  1  0
  2  3  1  0
  2  4  1  0
  4  5  1  0
  5  6  2  0
  5  7  1  0
  7  8  1  0
  8  9  1  0
  9 10  2  0
 10 11  1  0
 11 12  1  0
 12 13  1  0
 12 14  1  0
 12 15  1  0
 15 16  1  0
 16 17  2  0
 10 18  1  0
 18 19  1  0
 19 20  2  0
 20 21  1  0
 21 22  2  0
 22 23  1  0
 23 24  2  0
  7 25  1  0
 25 26  2  0
 25 27  1  0
 27  2  1  0
 24  8  1  0
 16  9  1  0
 24 19  1  0
  1 28  1  0
  1 29  1  0
  1 30  1  0
  3 31  1  0
  3 32  1  0
  3 33  1  0
  4 34  1  0
  4 35  1  0
  7 36  1  0
  8 37  1  0
 11 38  1  0
 11 39  1  0
 13 40  1  0
 13 41  1  0
 13 42  1  0
 14 43  1  0
 14 44  1  0
 14 45  1  0
 15 46  1  0
 15 47  1  0
 20 48  1  0
 21 49  1  0
 22 50  1  0
 23 51  1  0
 27 52  1  0
 27 53  1  0
M  END
$$$$
