
     RDKit          3D

 26 26  0  0  0  0  0  0  0  0999 V2000
    0.6909    0.0000    0.0000 Cl  0  0  0  0  0  0  0  0  0  0  0  0
    2.6971    0.1154   -1.3116 N   0  0  0  0  0  0  0  0  0  0  0  0
    2.3382   -0.9663   -0.4135 C   0  0  0  0  0  0  0  0  0  0  0  0
    1.8607   -0.3410    0.8864 C   0  0  0  0  0  0  0  0  0  0  0  0
    0.6818    0.4939    0.5577 C   0  0  0  0  0  0  0  0  0  0  0  0
    0.5441    1.8496    0.4112 C   0  0  0  0  0  0  0  0  0  0  0  0
   -0.7315    2.1257    0.0975 N   0  0  0  0  0  0  0  0  0  0  0  0
   -1.4674    0.9890    0.0278 C   0  0  0  0  0  0  0  0  0  0  0  0
   -2.8010    0.7229   -0.2492 C   0  0  0  0  0  0  0  0  0  0  0  0
   -3.2961   -0.5648   -0.2483 C   0  0  0  0  0  0  0  0  0  0  0  0
   -2.4140   -1.5886    0.0401 C   0  0  0  0  0  0  0  0  0  0  0  0
   -2.8651   -2.8778    0.0520 F   0  0  0  0  0  0  0  0  0  0  0  0
   -1.0805   -1.3263    0.3174 C   0  0  0  0  0  0  0  0  0  0  0  0
   -0.5928   -0.0334    0.3135 C   0  0  0  0  0  0  0  0  0  0  0  0
   -0.6909    0.0000    0.0000 H   0  0  0  0  0  0  0  0  0  0  0  0
    3.7309    0.0939   -1.5441 H   0  0  0  0  0  0  0  0  0  0  0  0
    2.4515    1.0578   -0.9466 H   0  0  0  0  0  0  0  0  0  0  0  0
    1.5232   -1.6088   -0.8404 H   0  0  0  0  0  0  0  0  0  0  0  0
    3.2543   -1.5446   -0.1723 H   0  0  0  0  0  0  0  0  0  0  0  0
    1.5634   -1.1143    1.6236 H   0  0  0  0  0  0  0  0  0  0  0  0
    2.6375    0.2796    1.3414 H   0  0  0  0  0  0  0  0  0  0  0  0
    1.3288    2.5652    0.5296 H   0  0  0  0  0  0  0  0  0  0  0  0
   -1.1734    3.0534   -0.0833 H   0  0  0  0  0  0  0  0  0  0  0  0
   -3.4856    1.5291   -0.4739 H   0  0  0  0  0  0  0  0  0  0  0  0
   -4.3307   -0.7967   -0.4611 H   0  0  0  0  0  0  0  0  0  0  0  0
   -0.3734   -2.1130    0.5462 H   0  0  0  0  0  0  0  0  0  0  0  0
  2  3  1  0
  3  4  1  0
  4  5  1  0
  5  6  2  0
  6  7  1  0
  7  8  1  0
  8  9  2  0
  9 10  1  0
 10 11  2  0
 11 12  1  0
 11 13  1  0
 13 14  2  0
 14  5  1  0
 14  8  1  0
  1 15  1  0
  2 16  1  0
  2 17  1  0
  3 18  1  0
  3 19  1  0
  4 20  1  0
  4 21  1  0
  6 22  1  0
  7 23  1  0
  9 24  1  0
 10 25  1  0
 13 26  1  0
M  END
$$$$
