
     RDKit          3D

 34 36  0  0  0  0  0  0  0  0999 V2000
    5.6783    0.7539    0.3669 C   0  0  0  0  0  0  0  0  0  0  0  0
    5.0254   -0.5130    0.4100 O   0  0  0  0  0  0  0  0  0  0  0  0
    3.6842   -0.3583    0.1640 C   0  0  0  0  0  0  0  0  0  0  0  0
    3.1966   -0.5378   -1.1365 C   0  0  0  0  0  0  0  0  0  0  0  0
    4.0766   -0.7941   -2.1513 O   0  0  0  0  0  0  0  0  0  0  0  0
    1.8312   -0.4456   -1.3993 C   0  0  0  0  0  0  0  0  0  0  0  0
    0.9484   -0.1832   -0.3497 C   0  0  0  0  0  0  0  0  0  0  0  0
   -0.3846   -0.1057   -0.6713 O   0  0  0  0  0  0  0  0  0  0  0  0
   -1.2954    0.1597    0.3391 C   0  0  0  0  0  0  0  0  0  0  0  0
   -2.6987    0.2163   -0.1130 C   0  0  0  0  0  0  0  0  0  0  0  0
   -3.1803   -0.7381   -1.0222 C   0  0  0  0  0  0  0  0  0  0  0  0
   -4.5033   -0.6937   -1.4685 C   0  0  0  0  0  0  0  0  0  0  0  0
   -5.3501    0.3085   -1.0140 C   0  0  0  0  0  0  0  0  0  0  0  0
   -6.6321    0.3142   -1.4759 O   0  0  0  0  0  0  0  0  0  0  0  0
   -4.8961    1.2717   -0.1206 C   0  0  0  0  0  0  0  0  0  0  0  0
   -3.5714    1.2258    0.3262 C   0  0  0  0  0  0  0  0  0  0  0  0
   -0.9643    0.3298    1.6269 C   0  0  0  0  0  0  0  0  0  0  0  0
    0.4508    0.2534    2.0149 C   0  0  0  0  0  0  0  0  0  0  0  0
    0.8040    0.4097    3.1785 O   0  0  0  0  0  0  0  0  0  0  0  0
    1.4261   -0.0149    0.9505 C   0  0  0  0  0  0  0  0  0  0  0  0
    2.7974   -0.1050    1.2162 C   0  0  0  0  0  0  0  0  0  0  0  0
    3.3069    0.0520    2.4808 O   0  0  0  0  0  0  0  0  0  0  0  0
    6.7462    0.5861    0.5359 H   0  0  0  0  0  0  0  0  0  0  0  0
    5.5624    1.2288   -0.6137 H   0  0  0  0  0  0  0  0  0  0  0  0
    5.3128    1.4200    1.1559 H   0  0  0  0  0  0  0  0  0  0  0  0
    3.5865   -0.9999   -2.9631 H   0  0  0  0  0  0  0  0  0  0  0  0
    1.4426   -0.5735   -2.4048 H   0  0  0  0  0  0  0  0  0  0  0  0
   -2.5311   -1.5314   -1.3867 H   0  0  0  0  0  0  0  0  0  0  0  0
   -4.8700   -1.4393   -2.1685 H   0  0  0  0  0  0  0  0  0  0  0  0
   -7.1056    1.0621   -1.0763 H   0  0  0  0  0  0  0  0  0  0  0  0
   -5.5491    2.0630    0.2341 H   0  0  0  0  0  0  0  0  0  0  0  0
   -3.2269    1.9969    1.0119 H   0  0  0  0  0  0  0  0  0  0  0  0
   -1.6790    0.5129    2.4188 H   0  0  0  0  0  0  0  0  0  0  0  0
    2.5618    0.1962    3.1050 H   0  0  0  0  0  0  0  0  0  0  0  0
  1  2  1  0
  2  3  1  0
  3  4  2  0
  4  5  1  0
  4  6  1  0
  6  7  2  0
  7  8  1  0
  8  9  1  0
  9 10  1  0
 10 11  2  0
 11 12  1  0
 12 13  2  0
 13 14  1  0
 13 15  1  0
 15 16  2  0
  9 17  2  0
 17 18  1  0
 18 19  2  0
 18 20  1  0
 20 21  2  0
 21 22  1  0
 21  3  1  0
 20  7  1  0
 16 10  1  0
  1 23  1  0
  1 24  1  0
  1 25  1  0
  5 26  1  0
  6 27  1  0
 11 28  1  0
 12 29  1  0
 14 30  1  0
 15 31  1  0
 16 32  1  0
 17 33  1  0
 22 34  1  0
M  END
$$$$
