
     RDKit          3D

 46 47  0  0  0  0  0  0  0  0999 V2000
   -6.9965   -0.2027   -0.1196 C   0  0  0  0  0  0  0  0  0  0  0  0
   -5.6149    0.0179   -0.7556 C   0  0  0  0  0  0  0  0  0  0  0  0
   -5.1845   -1.2782   -1.4541 C   0  0  0  0  0  0  0  0  0  0  0  0
   -5.7089    1.1935   -1.7360 C   0  0  0  0  0  0  0  0  0  0  0  0
   -4.7418    0.3310    0.3609 O   0  0  0  0  0  0  0  0  0  0  0  0
   -3.4300    0.5828    0.1592 C   0  0  0  0  0  0  0  0  0  0  0  0
   -2.8432    0.5768   -0.9104 O   0  0  0  0  0  0  0  0  0  0  0  0
   -2.8452    0.8429    1.3612 N   0  0  0  0  0  0  0  0  0  0  0  0
   -1.4482    1.2011    1.4911 C   0  0  0  0  0  0  0  0  0  0  0  0
   -0.5164    0.0061    1.2945 C   0  0  0  0  0  0  0  0  0  0  0  0
    0.8986    0.3726    1.5298 C   0  0  0  0  0  0  0  0  0  0  0  0
    1.4930    1.5448    1.4715 N   0  0  0  0  0  0  0  0  0  0  0  0
    2.8159    1.3259    1.7843 N   0  0  0  0  0  0  0  0  0  0  0  0
    2.9549    0.0257    1.9955 C   0  0  0  0  0  0  0  0  0  0  0  0
    4.4908   -0.7574    2.3987 S   0  0  0  0  0  6  0  0  0  0  0  0
    4.7050   -0.4652    3.8052 O   0  0  0  0  0  0  0  0  0  0  0  0
    4.3723   -2.1249    1.9286 O   0  0  0  0  0  0  0  0  0  0  0  0
    5.6947    0.1531    1.4388 C   0  0  0  0  0  0  0  0  0  0  0  0
    5.5750   -0.1663   -0.0318 C   0  0  0  0  0  0  0  0  0  0  0  0
    4.7823    0.6576   -0.8522 C   0  0  0  0  0  0  0  0  0  0  0  0
    4.6285    0.3775   -2.2120 C   0  0  0  0  0  0  0  0  0  0  0  0
    5.2711   -0.7229   -2.7701 C   0  0  0  0  0  0  0  0  0  0  0  0
    5.0821   -1.0630   -4.4457 Cl  0  0  0  0  0  0  0  0  0  0  0  0
    6.0729   -1.5432   -1.9836 C   0  0  0  0  0  0  0  0  0  0  0  0
    6.2274   -1.2645   -0.6229 C   0  0  0  0  0  0  0  0  0  0  0  0
    7.2716   -2.3008    0.2840 Cl  0  0  0  0  0  0  0  0  0  0  0  0
    1.7562   -0.6421    1.8520 O   0  0  0  0  0  0  0  0  0  0  0  0
   -7.3223    0.6912    0.4259 H   0  0  0  0  0  0  0  0  0  0  0  0
   -7.7558   -0.4457   -0.8705 H   0  0  0  0  0  0  0  0  0  0  0  0
   -6.9617   -1.0169    0.6141 H   0  0  0  0  0  0  0  0  0  0  0  0
   -5.0308   -2.0816   -0.7236 H   0  0  0  0  0  0  0  0  0  0  0  0
   -5.9351   -1.6067   -2.1815 H   0  0  0  0  0  0  0  0  0  0  0  0
   -4.2389   -1.1583   -1.9928 H   0  0  0  0  0  0  0  0  0  0  0  0
   -5.9332    2.1261   -1.2046 H   0  0  0  0  0  0  0  0  0  0  0  0
   -4.7680    1.3558   -2.2714 H   0  0  0  0  0  0  0  0  0  0  0  0
   -6.4878    1.0248   -2.4877 H   0  0  0  0  0  0  0  0  0  0  0  0
   -3.4601    0.8438    2.1643 H   0  0  0  0  0  0  0  0  0  0  0  0
   -1.3222    1.6323    2.4905 H   0  0  0  0  0  0  0  0  0  0  0  0
   -1.2267    1.9857    0.7572 H   0  0  0  0  0  0  0  0  0  0  0  0
   -0.6157   -0.3942    0.2793 H   0  0  0  0  0  0  0  0  0  0  0  0
   -0.8056   -0.7988    1.9811 H   0  0  0  0  0  0  0  0  0  0  0  0
    5.5533    1.2213    1.6345 H   0  0  0  0  0  0  0  0  0  0  0  0
    6.6854   -0.0991    1.8289 H   0  0  0  0  0  0  0  0  0  0  0  0
    4.2751    1.5333   -0.4469 H   0  0  0  0  0  0  0  0  0  0  0  0
    4.0073    1.0234   -2.8287 H   0  0  0  0  0  0  0  0  0  0  0  0
    6.5797   -2.3958   -2.4287 H   0  0  0  0  0  0  0  0  0  0  0  0
  1  2  1  0
  2  3  1  0
  2  4  1  0
  2  5  1  0
  5  6  1  0
  6  7  2  0
  6  8  1  0
  8  9  1  0
  9 10  1  0
 10 11  1  0
 11 12  2  0
 12 13  1  0
 13 14  2  0
 14 15  1  0
 15 16  2  0
 15 17  2  0
 15 18  1  0
 18 19  1  0
 19 20  2  0
 20 21  1  0
 21 22  2  0
 22 23  1  0
 22 24  1  0
 24 25  2  0
 25 26  1  0
 14 27  1  0
 27 11  1  0
 25 19  1  0
  1 28  1  0
  1 29  1  0
  1 30  1  0
  3 31  1  0
  3 32  1  0
  3 33  1  0
  4 34  1  0
  4 35  1  0
  4 36  1  0
  8 37  1  0
  9 38  1  0
  9 39  1  0
 10 40  1  0
 10 41  1  0
 18 42  1  0
 18 43  1  0
 20 44  1  0
 21 45  1  0
 24 46  1  0
M  END
$$$$
