
     RDKit          3D

 19 20  0  0  0  0  0  0  0  0999 V2000
    3.5787   -1.5079    0.4312 O   0  0  0  0  0  0  0  0  0  0  0  0
    3.0532   -0.4180    0.2670 C   0  0  0  0  0  0  0  0  0  0  0  0
    3.7793    0.7167    0.2791 O   0  0  0  0  0  0  0  0  0  0  0  0
    1.6615   -0.1598    0.0459 C   0  0  0  0  0  0  0  0  0  0  0  0
    0.9756    1.0264   -0.1491 C   0  0  0  0  0  0  0  0  0  0  0  0
   -0.4028    0.7249   -0.3228 C   0  0  0  0  0  0  0  0  0  0  0  0
   -1.5549    1.5010   -0.5515 C   0  0  0  0  0  0  0  0  0  0  0  0
   -2.7949    0.8640   -0.6780 C   0  0  0  0  0  0  0  0  0  0  0  0
   -2.8952   -0.5224   -0.5797 C   0  0  0  0  0  0  0  0  0  0  0  0
   -1.7644   -1.3131   -0.3528 C   0  0  0  0  0  0  0  0  0  0  0  0
   -0.5332   -0.6593   -0.2290 C   0  0  0  0  0  0  0  0  0  0  0  0
    0.7248   -1.1675   -0.0068 N   0  0  0  0  0  0  0  0  0  0  0  0
    4.6919    0.4019    0.4359 H   0  0  0  0  0  0  0  0  0  0  0  0
    1.4244    2.0116   -0.1647 H   0  0  0  0  0  0  0  0  0  0  0  0
   -1.4849    2.5818   -0.6293 H   0  0  0  0  0  0  0  0  0  0  0  0
   -3.6875    1.4590   -0.8547 H   0  0  0  0  0  0  0  0  0  0  0  0
   -3.8681   -0.9982   -0.6808 H   0  0  0  0  0  0  0  0  0  0  0  0
   -1.8463   -2.3924   -0.2768 H   0  0  0  0  0  0  0  0  0  0  0  0
    0.9425   -2.1490    0.1043 H   0  0  0  0  0  0  0  0  0  0  0  0
  1  2  2  0
  2  3  1  0
  2  4  1  0
  4  5  2  0
  5  6  1  0
  6  7  2  0
  7  8  1  0
  8  9  2  0
  9 10  1  0
 10 11  2  0
 11 12  1  0
 12  4  1  0
 11  6  1  0
  3 13  1  0
  5 14  1  0
  7 15  1  0
  8 16  1  0
  9 17  1  0
 10 18  1  0
 12 19  1  0
M  END
$$$$
