
     RDKit          3D

 51 53  0  0  0  0  0  0  0  0999 V2000
   -0.8245    4.4939   -1.2108 C   0  0  0  0  0  0  0  0  0  0  0  0
   -1.0241    3.1001   -1.7843 C   0  0  0  0  0  0  0  0  0  0  0  0
   -0.6007    2.0199   -0.7896 C   0  0  0  0  0  0  0  0  0  0  0  0
   -0.8059    0.6190   -1.3758 C   0  0  0  0  0  0  0  0  0  0  0  0
   -0.4345   -0.4407   -0.4520 N   0  0  0  0  0  0  0  0  0  0  0  0
   -1.2686   -1.2224    0.3265 C   0  0  0  0  0  0  0  0  0  0  0  0
   -2.6260   -1.4785    0.0901 N   0  0  0  0  0  0  0  0  0  0  0  0
   -3.4220   -1.6298    1.1775 N   0  0  0  0  0  0  0  0  0  0  0  0
   -4.6622   -1.7240    0.6949 C   0  0  0  0  0  0  0  0  0  0  0  0
   -5.8142   -1.8494    1.6190 C   0  0  0  0  0  0  0  0  0  0  0  0
   -4.6704   -1.7340   -0.7123 C   0  0  0  0  0  0  0  0  0  0  0  0
   -3.3441   -1.6489   -1.0862 C   0  0  0  0  0  0  0  0  0  0  0  0
   -2.7520   -1.8212   -2.4372 C   0  0  0  0  0  0  0  0  0  0  0  0
   -0.6096   -1.7111    1.3698 N   0  0  0  0  0  0  0  0  0  0  0  0
    0.6883   -1.3849    1.1489 C   0  0  0  0  0  0  0  0  0  0  0  0
    0.8420   -0.6538    0.0118 C   0  0  0  0  0  0  0  0  0  0  0  0
    2.1099   -0.2020   -0.4486 C   0  0  0  0  0  0  0  0  0  0  0  0
    2.2622    0.4169   -1.4983 O   0  0  0  0  0  0  0  0  0  0  0  0
    3.1583   -0.5661    0.3994 N   0  0  0  0  0  0  0  0  0  0  0  0
    4.4823   -0.0695    0.0657 C   0  0  0  0  0  0  0  0  0  0  0  0
    4.7088    1.2705    0.7582 C   0  0  0  0  0  0  0  0  0  0  0  0
    6.1427    1.7108    0.8929 C   0  0  0  0  0  0  0  0  0  0  0  0
    3.7861    1.9874    1.1494 O   0  0  0  0  0  0  0  0  0  0  0  0
    3.0295   -1.2796    1.6050 C   0  0  0  0  0  0  0  0  0  0  0  0
    4.0165   -1.5023    2.3130 O   0  0  0  0  0  0  0  0  0  0  0  0
    1.7535   -1.7215    1.9492 N   0  0  0  0  0  0  0  0  0  0  0  0
    1.5327   -2.4607    3.1789 C   0  0  0  0  0  0  0  0  0  0  0  0
    0.2274    4.6695   -0.9638 H   0  0  0  0  0  0  0  0  0  0  0  0
   -1.1337    5.2510   -1.9382 H   0  0  0  0  0  0  0  0  0  0  0  0
   -1.4190    4.6329   -0.3020 H   0  0  0  0  0  0  0  0  0  0  0  0
   -0.4412    3.0041   -2.7077 H   0  0  0  0  0  0  0  0  0  0  0  0
   -2.0793    2.9690   -2.0507 H   0  0  0  0  0  0  0  0  0  0  0  0
    0.4480    2.1739   -0.5118 H   0  0  0  0  0  0  0  0  0  0  0  0
   -1.1850    2.1188    0.1342 H   0  0  0  0  0  0  0  0  0  0  0  0
   -0.2289    0.4716   -2.2948 H   0  0  0  0  0  0  0  0  0  0  0  0
   -1.8610    0.5141   -1.6261 H   0  0  0  0  0  0  0  0  0  0  0  0
   -5.8595   -2.8606    2.0361 H   0  0  0  0  0  0  0  0  0  0  0  0
   -6.7572   -1.6519    1.0992 H   0  0  0  0  0  0  0  0  0  0  0  0
   -5.7306   -1.1363    2.4458 H   0  0  0  0  0  0  0  0  0  0  0  0
   -5.5224   -1.8615   -1.3662 H   0  0  0  0  0  0  0  0  0  0  0  0
   -2.8781   -0.9144   -3.0357 H   0  0  0  0  0  0  0  0  0  0  0  0
   -3.2589   -2.6362   -2.9658 H   0  0  0  0  0  0  0  0  0  0  0  0
   -1.6900   -2.0783   -2.3996 H   0  0  0  0  0  0  0  0  0  0  0  0
    5.2453   -0.7796    0.4006 H   0  0  0  0  0  0  0  0  0  0  0  0
    4.5927    0.0771   -1.0133 H   0  0  0  0  0  0  0  0  0  0  0  0
    6.5856    1.8196   -0.1001 H   0  0  0  0  0  0  0  0  0  0  0  0
    6.1860    2.6740    1.4090 H   0  0  0  0  0  0  0  0  0  0  0  0
    6.6996    0.9739    1.4767 H   0  0  0  0  0  0  0  0  0  0  0  0
    0.9579   -1.8357    3.8698 H   0  0  0  0  0  0  0  0  0  0  0  0
    2.4752   -2.7382    3.6587 H   0  0  0  0  0  0  0  0  0  0  0  0
    0.9729   -3.3749    2.9567 H   0  0  0  0  0  0  0  0  0  0  0  0
  1  2  1  0
  2  3  1  0
  3  4  1  0
  4  5  1  0
  5  6  1  0
  6  7  1  0
  7  8  1  0
  8  9  2  0
  9 10  1  0
  9 11  1  0
 11 12  2  0
 12 13  1  0
  6 14  2  0
 14 15  1  0
 15 16  2  0
 16 17  1  0
 17 18  2  0
 17 19  1  0
 19 20  1  0
 20 21  1  0
 21 22  1  0
 21 23  2  0
 19 24  1  0
 24 25  2  0
 24 26  1  0
 26 27  1  0
 16  5  1  0
 12  7  1  0
 26 15  1  0
  1 28  1  0
  1 29  1  0
  1 30  1  0
  2 31  1  0
  2 32  1  0
  3 33  1  0
  3 34  1  0
  4 35  1  0
  4 36  1  0
 10 37  1  0
 10 38  1  0
 10 39  1  0
 11 40  1  0
 13 41  1  0
 13 42  1  0
 13 43  1  0
 20 44  1  0
 20 45  1  0
 22 46  1  0
 22 47  1  0
 22 48  1  0
 27 49  1  0
 27 50  1  0
 27 51  1  0
M  END
$$$$
