
     RDKit          3D

 21 20  0  0  0  0  0  0  0  0999 V2000
   -0.7092   -1.1926    1.1996 C   0  0  0  0  0  0  0  0  0  0  0  0
   -0.0117   -0.4918    0.0241 C   0  0  0  0  0  0  0  0  0  0  0  0
   -0.0217   -1.4247   -1.0609 O   0  0  0  0  0  0  0  0  0  0  0  0
    1.4519   -0.2220    0.4354 C   0  0  0  0  0  0  0  0  0  0  0  0
    2.2727    0.3952   -0.6629 C   0  0  0  0  0  0  0  0  0  0  0  0
    2.0364    0.3571   -1.8592 O   0  0  0  0  0  0  0  0  0  0  0  0
    3.3775    1.0060   -0.1960 O   0  0  0  0  0  0  0  0  0  0  0  0
   -0.7306    0.8089   -0.3722 C   0  0  0  0  0  0  0  0  0  0  0  0
   -2.1982    0.6304   -0.6458 C   0  0  0  0  0  0  0  0  0  0  0  0
   -2.7102    0.3459   -1.7149 O   0  0  0  0  0  0  0  0  0  0  0  0
   -2.9614    0.8423    0.4442 O   0  0  0  0  0  0  0  0  0  0  0  0
   -1.7067   -1.5491    0.9204 H   0  0  0  0  0  0  0  0  0  0  0  0
   -0.1520   -2.0863    1.5050 H   0  0  0  0  0  0  0  0  0  0  0  0
   -0.7994   -0.5315    2.0677 H   0  0  0  0  0  0  0  0  0  0  0  0
    0.3959   -0.9988   -1.8379 H   0  0  0  0  0  0  0  0  0  0  0  0
    1.4728    0.4469    1.3041 H   0  0  0  0  0  0  0  0  0  0  0  0
    1.9512   -1.1616    0.7016 H   0  0  0  0  0  0  0  0  0  0  0  0
    3.8409    1.3294   -0.9975 H   0  0  0  0  0  0  0  0  0  0  0  0
   -0.6161    1.5729    0.4069 H   0  0  0  0  0  0  0  0  0  0  0  0
   -0.3077    1.2390   -1.2875 H   0  0  0  0  0  0  0  0  0  0  0  0
   -3.8742    0.6844    0.1212 H   0  0  0  0  0  0  0  0  0  0  0  0
  1  2  1  0
  2  3  1  0
  2  4  1  0
  4  5  1  0
  5  6  2  0
  5  7  1  0
  2  8  1  0
  8  9  1  0
  9 10  2  0
  9 11  1  0
  1 12  1  0
  1 13  1  0
  1 14  1  0
  3 15  1  0
  4 16  1  0
  4 17  1  0
  7 18  1  0
  8 19  1  0
  8 20  1  0
 11 21  1  0
M  END
$$$$
