
     RDKit          3D

 36 37  0  0  0  0  0  0  0  0999 V2000
   -3.0311   -0.7907   -1.4599 C   0  0  0  0  0  0  0  0  0  0  0  0
   -1.8568   -0.6281   -0.4756 C   0  0  0  0  0  0  0  0  0  0  0  0
   -2.3606    0.1792    0.7261 C   0  0  0  0  0  0  0  0  0  0  0  0
   -1.4168   -2.0186    0.0110 C   0  0  0  0  0  0  0  0  0  0  0  0
   -0.6687   -0.0110   -1.2532 C   0  0  0  0  0  0  0  0  0  0  0  0
   -0.4027   -0.4219   -2.3941 O   0  0  0  0  0  0  0  0  0  0  0  0
    0.2704    1.0058   -0.5968 C   0  0  2  0  0  0  0  0  0  0  0  0
    0.8033    0.5532    0.6461 O   0  0  0  0  0  0  0  0  0  0  0  0
    1.8713   -0.2988    0.6303 C   0  0  0  0  0  0  0  0  0  0  0  0
    2.4381   -0.9017   -0.4939 C   0  0  0  0  0  0  0  0  0  0  0  0
    3.5287   -1.7680   -0.3501 C   0  0  0  0  0  0  0  0  0  0  0  0
    4.0504   -2.0329    0.9139 C   0  0  0  0  0  0  0  0  0  0  0  0
    5.3891   -3.0983    1.0830 Cl  0  0  0  0  0  0  0  0  0  0  0  0
    3.4891   -1.4401    2.0402 C   0  0  0  0  0  0  0  0  0  0  0  0
    2.4006   -0.5768    1.8954 C   0  0  0  0  0  0  0  0  0  0  0  0
   -0.3891    2.2975   -0.3860 N   0  0  0  0  0  0  0  0  0  0  0  0
   -0.2003    3.1736    0.6416 C   0  0  0  0  0  0  0  0  0  0  0  0
   -0.9270    4.2491    0.4454 N   0  0  0  0  0  0  0  0  0  0  0  0
   -1.5357    3.9973   -0.7489 C   0  0  0  0  0  0  0  0  0  0  0  0
   -1.2341    2.8201   -1.3024 N   0  0  0  0  0  0  0  0  0  0  0  0
   -3.9069   -1.2288   -0.9679 H   0  0  0  0  0  0  0  0  0  0  0  0
   -3.3277    0.1782   -1.8781 H   0  0  0  0  0  0  0  0  0  0  0  0
   -2.7681   -1.4424   -2.3010 H   0  0  0  0  0  0  0  0  0  0  0  0
   -3.1841   -0.3426    1.2287 H   0  0  0  0  0  0  0  0  0  0  0  0
   -1.5815    0.3352    1.4777 H   0  0  0  0  0  0  0  0  0  0  0  0
   -2.7449    1.1577    0.4235 H   0  0  0  0  0  0  0  0  0  0  0  0
   -0.6201   -1.9454    0.7583 H   0  0  0  0  0  0  0  0  0  0  0  0
   -2.2511   -2.5624    0.4683 H   0  0  0  0  0  0  0  0  0  0  0  0
   -1.0333   -2.6295   -0.8143 H   0  0  0  0  0  0  0  0  0  0  0  0
    1.0786    1.2546   -1.2979 H   0  0  0  0  0  0  0  0  0  0  0  0
    2.0647   -0.7406   -1.5011 H   0  0  0  0  0  0  0  0  0  0  0  0
    3.9626   -2.2354   -1.2311 H   0  0  0  0  0  0  0  0  0  0  0  0
    3.8894   -1.6446    3.0296 H   0  0  0  0  0  0  0  0  0  0  0  0
    1.9640   -0.1192    2.7808 H   0  0  0  0  0  0  0  0  0  0  0  0
    0.4555    2.9857    1.4811 H   0  0  0  0  0  0  0  0  0  0  0  0
   -2.2154    4.6905   -1.2286 H   0  0  0  0  0  0  0  0  0  0  0  0
  1  2  1  0
  2  3  1  0
  2  4  1  0
  2  5  1  0
  5  6  2  0
  5  7  1  0
  7  8  1  0
  8  9  1  0
  9 10  2  0
 10 11  1  0
 11 12  2  0
 12 13  1  0
 12 14  1  0
 14 15  2  0
  7 16  1  0
 16 17  1  0
 17 18  2  0
 18 19  1  0
 19 20  2  0
 15  9  1  0
 20 16  1  0
  1 21  1  0
  1 22  1  0
  1 23  1  0
  3 24  1  0
  3 25  1  0
  3 26  1  0
  4 27  1  0
  4 28  1  0
  4 29  1  0
  7 30  1  6
 10 31  1  0
 11 32  1  0
 14 33  1  0
 15 34  1  0
 17 35  1  0
 19 36  1  0
M  END
$$$$
