
     RDKit          3D

 55 57  0  0  0  0  0  0  0  0999 V2000
   -3.0643   -1.2907    2.5248 C   0  0  0  0  0  0  0  0  0  0  0  0
   -1.7563   -0.5420    2.3182 C   0  0  0  0  0  0  0  0  0  0  0  0
   -1.9624    0.8661    1.9407 N   0  0  0  0  0  0  0  0  0  0  0  0
   -2.2157    1.7613    2.9793 C   0  0  0  0  0  0  0  0  0  0  0  0
   -2.3878    1.3980    4.1459 O   0  0  0  0  0  0  0  0  0  0  0  0
   -2.2878    3.2583    2.6535 C   0  0  0  0  0  0  0  0  0  0  0  0
   -2.5438    4.0454    3.8073 O   0  0  0  0  0  0  0  0  0  0  0  0
   -1.6245    1.2966    0.5662 C   0  0  1  0  0  0  0  0  0  0  0  0
   -0.1175    1.2694    0.2783 C   0  0  0  0  0  0  0  0  0  0  0  0
    0.0398    0.1506   -0.6405 N   0  0  0  0  0  0  0  0  0  0  0  0
    1.2860   -0.2901   -1.0425 C   0  0  0  0  0  0  0  0  0  0  0  0
    2.3877    0.2343   -0.5975 N   0  0  0  0  0  0  0  0  0  0  0  0
    3.6425   -0.1342   -1.0983 C   0  0  0  0  0  0  0  0  0  0  0  0
    4.0253    0.1748   -2.4059 C   0  0  0  0  0  0  0  0  0  0  0  0
    5.2932   -0.1749   -2.8711 C   0  0  0  0  0  0  0  0  0  0  0  0
    6.2005   -0.8137   -2.0225 C   0  0  0  0  0  0  0  0  0  0  0  0
    5.8450   -1.0911   -0.7015 C   0  0  0  0  0  0  0  0  0  0  0  0
    6.6397   -1.7000    0.2299 O   0  0  0  0  0  0  0  0  0  0  0  0
    8.0312   -1.7016   -0.0376 C   0  0  0  0  0  0  0  0  0  0  0  0
    8.6613   -2.1155    1.0914 F   0  0  0  0  0  0  0  0  0  0  0  0
    8.3040   -2.6237   -0.9934 F   0  0  0  0  0  0  0  0  0  0  0  0
    4.5644   -0.7544   -0.2511 C   0  0  0  0  0  0  0  0  0  0  0  0
    1.1666   -1.3233   -2.0048 N   0  0  0  0  0  0  0  0  0  0  0  0
    1.7918   -2.4416   -1.6257 C   0  0  0  0  0  0  0  0  0  0  0  0
    2.2767   -3.4442   -1.3095 N   0  0  0  0  0  0  0  0  0  0  0  0
   -1.1631   -0.2744   -1.1646 N   0  0  0  0  0  0  0  0  0  0  0  0
   -2.1064    0.3629   -0.5344 C   0  0  0  0  0  0  0  0  0  0  0  0
   -3.5440    0.1992   -0.8733 C   0  0  0  0  0  0  0  0  0  0  0  0
   -4.5457    0.9260   -0.2220 C   0  0  0  0  0  0  0  0  0  0  0  0
   -5.8877    0.7416   -0.5725 C   0  0  0  0  0  0  0  0  0  0  0  0
   -6.2395   -0.1654   -1.5760 C   0  0  0  0  0  0  0  0  0  0  0  0
   -7.9151   -0.3367   -1.9539 Cl  0  0  0  0  0  0  0  0  0  0  0  0
   -5.2416   -0.8927   -2.2312 C   0  0  0  0  0  0  0  0  0  0  0  0
   -5.5958   -2.0303   -3.4819 Cl  0  0  0  0  0  0  0  0  0  0  0  0
   -3.8993   -0.7098   -1.8800 C   0  0  0  0  0  0  0  0  0  0  0  0
   -3.6904   -0.8073    3.2811 H   0  0  0  0  0  0  0  0  0  0  0  0
   -3.6428   -1.3446    1.5993 H   0  0  0  0  0  0  0  0  0  0  0  0
   -2.8635   -2.3149    2.8544 H   0  0  0  0  0  0  0  0  0  0  0  0
   -1.1782   -0.5692    3.2498 H   0  0  0  0  0  0  0  0  0  0  0  0
   -1.1506   -1.0531    1.5649 H   0  0  0  0  0  0  0  0  0  0  0  0
   -1.3348    3.5851    2.2289 H   0  0  0  0  0  0  0  0  0  0  0  0
   -3.1001    3.4383    1.9449 H   0  0  0  0  0  0  0  0  0  0  0  0
   -2.5843    3.4188    4.5606 H   0  0  0  0  0  0  0  0  0  0  0  0
   -2.0108    2.3002    0.3726 H   0  0  0  0  0  0  0  0  0  0  0  0
    0.1917    2.1979   -0.2159 H   0  0  0  0  0  0  0  0  0  0  0  0
    0.4792    1.1416    1.1883 H   0  0  0  0  0  0  0  0  0  0  0  0
    3.3281    0.6783   -3.0698 H   0  0  0  0  0  0  0  0  0  0  0  0
    5.5714    0.0440   -3.8990 H   0  0  0  0  0  0  0  0  0  0  0  0
    7.1654   -1.0975   -2.4323 H   0  0  0  0  0  0  0  0  0  0  0  0
    8.4245   -0.7183   -0.3192 H   0  0  0  0  0  0  0  0  0  0  0  0
    4.2780   -0.9799    0.7730 H   0  0  0  0  0  0  0  0  0  0  0  0
    0.1723   -1.4129   -2.2430 H   0  0  0  0  0  0  0  0  0  0  0  0
   -4.3210    1.6347    0.5691 H   0  0  0  0  0  0  0  0  0  0  0  0
   -6.6592    1.3088   -0.0544 H   0  0  0  0  0  0  0  0  0  0  0  0
   -3.1326   -1.2840   -2.3971 H   0  0  0  0  0  0  0  0  0  0  0  0
  1  2  1  0
  2  3  1  0
  3  4  1  0
  4  5  2  0
  4  6  1  0
  6  7  1  0
  3  8  1  0
  8  9  1  0
  9 10  1  0
 10 11  1  0
 11 12  2  0
 12 13  1  0
 13 14  2  0
 14 15  1  0
 15 16  2  0
 16 17  1  0
 17 18  1  0
 18 19  1  0
 19 20  1  0
 19 21  1  0
 17 22  2  0
 11 23  1  0
 23 24  1  0
 24 25  3  0
 10 26  1  0
 26 27  2  0
 27 28  1  0
 28 29  2  0
 29 30  1  0
 30 31  2  0
 31 32  1  0
 31 33  1  0
 33 34  1  0
 33 35  2  0
 27  8  1  0
 35 28  1  0
 22 13  1  0
  1 36  1  0
  1 37  1  0
  1 38  1  0
  2 39  1  0
  2 40  1  0
  6 41  1  0
  6 42  1  0
  7 43  1  0
  8 44  1  6
  9 45  1  0
  9 46  1  0
 14 47  1  0
 15 48  1  0
 16 49  1  0
 19 50  1  0
 22 51  1  0
 23 52  1  0
 29 53  1  0
 30 54  1  0
 35 55  1  0
M  END
$$$$
