
     RDKit          3D

 81 85  0  0  0  0  0  0  0  0999 V2000
    4.5544   -0.2769    2.1276 C   0  0  0  0  0  0  0  0  0  0  0  0
    4.1767    0.8465    1.1533 C   0  0  0  0  0  0  0  0  0  0  0  0
    3.2297    0.4286   -0.0172 C   0  0  0  0  0  0  0  0  0  0  0  0
    1.7324    0.1780    0.2445 C   0  0  0  0  0  0  0  0  0  0  0  0
    1.1875    0.2432    1.4744 C   0  0  0  0  0  0  0  0  0  0  0  0
   -0.2665    0.0872    1.8077 C   0  0  0  0  0  0  0  0  0  0  0  0
   -1.2078    0.1078    0.5850 C   0  0  2  0  0  0  0  0  0  0  0  0
   -2.7473   -0.1396    0.9293 C   0  0  1  0  0  0  0  0  0  0  0  0
   -2.9884   -1.4842    1.6604 C   0  0  0  0  0  0  0  0  0  0  0  0
   -3.2287    0.9985    1.8814 C   0  0  0  0  0  0  0  0  0  0  0  0
   -4.7445    1.0777    2.0524 C   0  0  0  0  0  0  0  0  0  0  0  0
   -5.4761    1.1853    0.7181 C   0  0  0  0  0  0  0  0  0  0  0  0
   -6.8814    1.2061    0.9673 O   0  0  0  0  0  0  0  0  0  0  0  0
   -5.1168    0.0548   -0.2901 C   0  0  0  0  0  0  0  0  0  0  0  0
   -5.7368    0.4531   -1.6594 C   0  0  0  0  0  0  0  0  0  0  0  0
   -5.7771   -1.2833    0.0980 C   0  0  0  0  0  0  0  0  0  0  0  0
   -3.5510   -0.0168   -0.4177 C   0  0  2  0  0  0  0  0  0  0  0  0
   -3.0260   -1.0249   -1.4596 C   0  0  0  0  0  0  0  0  0  0  0  0
   -1.5685   -0.7197   -1.8119 C   0  0  0  0  0  0  0  0  0  0  0  0
   -0.5895   -0.7214   -0.6050 C   0  0  2  0  0  0  0  0  0  0  0  0
   -0.3817   -2.2074   -0.1860 C   0  0  0  0  0  0  0  0  0  0  0  0
    0.8488   -0.0540   -1.0114 C   0  0  1  0  0  0  0  0  0  0  0  0
    0.6611    1.3458   -1.6804 C   0  0  0  0  0  0  0  0  0  0  0  0
    1.5935   -0.9483   -2.0563 C   0  0  0  0  0  0  0  0  0  0  0  0
    3.0668   -0.5905   -2.2993 C   0  0  0  0  0  0  0  0  0  0  0  0
    3.8877   -0.6014   -0.9863 C   0  0  2  0  0  0  0  0  0  0  0  0
    3.9332   -2.0639   -0.5247 C   0  0  0  0  0  0  0  0  0  0  0  0
    4.5840   -2.9511   -1.0610 O   0  0  0  0  0  0  0  0  0  0  0  0
    3.1525   -2.3781    0.5173 O   0  0  0  0  0  0  0  0  0  0  0  0
    5.3676   -0.2046   -1.2782 C   0  0  0  0  0  0  0  0  0  0  0  0
    5.7043    1.2347   -0.9043 C   0  0  0  0  0  0  0  0  0  0  0  0
    5.4819    1.5008    0.5951 C   0  0  1  0  0  0  0  0  0  0  0  0
    5.4884    3.0117    0.8504 C   0  0  0  0  0  0  0  0  0  0  0  0
    5.0885    0.1410    2.9889 H   0  0  0  0  0  0  0  0  0  0  0  0
    5.2195   -1.0138    1.6680 H   0  0  0  0  0  0  0  0  0  0  0  0
    3.6792   -0.7993    2.5198 H   0  0  0  0  0  0  0  0  0  0  0  0
    3.6527    1.6031    1.7529 H   0  0  0  0  0  0  0  0  0  0  0  0
    3.1740    1.3689   -0.5866 H   0  0  0  0  0  0  0  0  0  0  0  0
    1.8096    0.4312    2.3440 H   0  0  0  0  0  0  0  0  0  0  0  0
   -0.5366    0.9048    2.4860 H   0  0  0  0  0  0  0  0  0  0  0  0
   -0.3603   -0.8395    2.3798 H   0  0  0  0  0  0  0  0  0  0  0  0
   -1.1983    1.1518    0.2446 H   0  0  0  0  0  0  0  0  0  0  0  0
   -3.8519   -1.4502    2.3286 H   0  0  0  0  0  0  0  0  0  0  0  0
   -2.1567   -1.7696    2.3067 H   0  0  0  0  0  0  0  0  0  0  0  0
   -3.1722   -2.3164    0.9792 H   0  0  0  0  0  0  0  0  0  0  0  0
   -2.7767    0.8812    2.8739 H   0  0  0  0  0  0  0  0  0  0  0  0
   -2.8837    1.9683    1.4985 H   0  0  0  0  0  0  0  0  0  0  0  0
   -5.1280    0.2293    2.6292 H   0  0  0  0  0  0  0  0  0  0  0  0
   -4.9873    1.9557    2.6657 H   0  0  0  0  0  0  0  0  0  0  0  0
   -5.2212    2.1540    0.2672 H   0  0  0  0  0  0  0  0  0  0  0  0
   -7.0661    1.9632    1.5490 H   0  0  0  0  0  0  0  0  0  0  0  0
   -5.6480   -0.3492   -2.3985 H   0  0  0  0  0  0  0  0  0  0  0  0
   -5.2529    1.3464   -2.0698 H   0  0  0  0  0  0  0  0  0  0  0  0
   -6.8065    0.6737   -1.5663 H   0  0  0  0  0  0  0  0  0  0  0  0
   -5.6004   -1.5600    1.1374 H   0  0  0  0  0  0  0  0  0  0  0  0
   -6.8666   -1.2344   -0.0213 H   0  0  0  0  0  0  0  0  0  0  0  0
   -5.4280   -2.1041   -0.5369 H   0  0  0  0  0  0  0  0  0  0  0  0
   -3.2796    0.9741   -0.8202 H   0  0  0  0  0  0  0  0  0  0  0  0
   -3.1312   -2.0595   -1.1239 H   0  0  0  0  0  0  0  0  0  0  0  0
   -3.5974   -0.9532   -2.3899 H   0  0  0  0  0  0  0  0  0  0  0  0
   -1.2336   -1.4309   -2.5768 H   0  0  0  0  0  0  0  0  0  0  0  0
   -1.5788    0.2600   -2.2975 H   0  0  0  0  0  0  0  0  0  0  0  0
    0.4096   -2.3278    0.5582 H   0  0  0  0  0  0  0  0  0  0  0  0
   -0.1281   -2.8392   -1.0436 H   0  0  0  0  0  0  0  0  0  0  0  0
   -1.2781   -2.6612    0.2287 H   0  0  0  0  0  0  0  0  0  0  0  0
    0.1012    2.0439   -1.0530 H   0  0  0  0  0  0  0  0  0  0  0  0
    0.1532    1.2733   -2.6466 H   0  0  0  0  0  0  0  0  0  0  0  0
    1.6131    1.8390   -1.8991 H   0  0  0  0  0  0  0  0  0  0  0  0
    1.5790   -1.9984   -1.7567 H   0  0  0  0  0  0  0  0  0  0  0  0
    1.0680   -0.9101   -3.0188 H   0  0  0  0  0  0  0  0  0  0  0  0
    3.4807   -1.3140   -3.0144 H   0  0  0  0  0  0  0  0  0  0  0  0
    3.1400    0.3893   -2.7864 H   0  0  0  0  0  0  0  0  0  0  0  0
    3.2849   -3.3409    0.6369 H   0  0  0  0  0  0  0  0  0  0  0  0
    5.6023   -0.3614   -2.3388 H   0  0  0  0  0  0  0  0  0  0  0  0
    6.0595   -0.8548   -0.7256 H   0  0  0  0  0  0  0  0  0  0  0  0
    5.1102    1.9221   -1.5196 H   0  0  0  0  0  0  0  0  0  0  0  0
    6.7531    1.4385   -1.1538 H   0  0  0  0  0  0  0  0  0  0  0  0
    6.3472    1.0905    1.1332 H   0  0  0  0  0  0  0  0  0  0  0  0
    6.4090    3.4664    0.4695 H   0  0  0  0  0  0  0  0  0  0  0  0
    5.4317    3.2232    1.9235 H   0  0  0  0  0  0  0  0  0  0  0  0
    4.6394    3.5013    0.3613 H   0  0  0  0  0  0  0  0  0  0  0  0
  1  2  1  0
  2  3  1  0
  3  4  1  0
  4  5  2  0
  5  6  1  0
  6  7  1  0
  7  8  1  0
  8  9  1  1
  8 10  1  0
 10 11  1  0
 11 12  1  0
 12 13  1  0
 12 14  1  0
 14 15  1  0
 14 16  1  0
 14 17  1  0
 17 18  1  0
 18 19  1  0
 19 20  1  0
 20 21  1  1
 20 22  1  0
 22 23  1  6
 22 24  1  0
 24 25  1  0
 25 26  1  0
 26 27  1  1
 27 28  2  0
 27 29  1  0
 26 30  1  0
 30 31  1  0
 31 32  1  0
 32 33  1  0
 32  2  1  0
 26  3  1  0
 22  4  1  0
 20  7  1  0
 17  8  1  0
  1 34  1  0
  1 35  1  0
  1 36  1  0
  2 37  1  0
  3 38  1  0
  5 39  1  0
  6 40  1  0
  6 41  1  0
  7 42  1  6
  9 43  1  0
  9 44  1  0
  9 45  1  0
 10 46  1  0
 10 47  1  0
 11 48  1  0
 11 49  1  0
 12 50  1  0
 13 51  1  0
 15 52  1  0
 15 53  1  0
 15 54  1  0
 16 55  1  0
 16 56  1  0
 16 57  1  0
 17 58  1  6
 18 59  1  0
 18 60  1  0
 19 61  1  0
 19 62  1  0
 21 63  1  0
 21 64  1  0
 21 65  1  0
 23 66  1  0
 23 67  1  0
 23 68  1  0
 24 69  1  0
 24 70  1  0
 25 71  1  0
 25 72  1  0
 29 73  1  0
 30 74  1  0
 30 75  1  0
 31 76  1  0
 31 77  1  0
 32 78  1  1
 33 79  1  0
 33 80  1  0
 33 81  1  0
M  END
$$$$
