
     RDKit          3D

 69 72  0  0  0  0  0  0  0  0999 V2000
   -8.4187    1.0152   -3.2093 C   0  0  0  0  0  0  0  0  0  0  0  0
   -7.1800    0.8854   -2.7173 C   0  0  0  0  0  0  0  0  0  0  0  0
   -6.8904   -0.1048   -1.6385 C   0  0  0  0  0  0  0  0  0  0  0  0
   -7.7726   -0.8237   -1.1890 O   0  0  0  0  0  0  0  0  0  0  0  0
   -5.5620   -0.0794   -1.2625 N   0  0  0  0  0  0  0  0  0  0  0  0
   -4.9437   -0.8650   -0.2668 C   0  0  0  0  0  0  0  0  0  0  0  0
   -5.6085   -1.7988    0.5183 C   0  0  0  0  0  0  0  0  0  0  0  0
   -4.9142   -2.5192    1.4993 C   0  0  0  0  0  0  0  0  0  0  0  0
   -3.5568   -2.3426    1.7235 C   0  0  0  0  0  0  0  0  0  0  0  0
   -2.9670   -3.0564    2.6858 N   0  0  0  0  0  0  0  0  0  0  0  0
   -1.6609   -2.8461    2.8748 C   0  0  0  0  0  0  0  0  0  0  0  0
   -0.8904   -2.0040    2.1817 N   0  0  0  0  0  0  0  0  0  0  0  0
   -1.4876   -1.2998    1.2041 C   0  0  0  0  0  0  0  0  0  0  0  0
   -0.7024   -0.4263    0.3998 N   0  0  0  0  0  0  0  0  0  0  0  0
    0.5995    0.0578    0.6611 C   0  0  0  0  0  0  0  0  0  0  0  0
    1.4061    0.4591   -0.4126 C   0  0  0  0  0  0  0  0  0  0  0  0
    2.6785    1.0090   -0.2053 C   0  0  0  0  0  0  0  0  0  0  0  0
    3.1631    1.2007    1.0889 C   0  0  0  0  0  0  0  0  0  0  0  0
    4.3974    1.7111    1.3912 O   0  0  0  0  0  0  0  0  0  0  0  0
    5.1169    2.4267    0.3855 C   0  0  0  0  0  0  0  0  0  0  0  0
    5.9889    1.5334   -0.4678 C   0  0  0  0  0  0  0  0  0  0  0  0
    6.5784    0.3710    0.0554 C   0  0  0  0  0  0  0  0  0  0  0  0
    7.4016   -0.4328   -0.7383 C   0  0  0  0  0  0  0  0  0  0  0  0
    7.6545   -0.0770   -2.0611 C   0  0  0  0  0  0  0  0  0  0  0  0
    7.0871    1.0816   -2.5762 C   0  0  0  0  0  0  0  0  0  0  0  0
    7.3338    1.4289   -3.8462 F   0  0  0  0  0  0  0  0  0  0  0  0
    6.2658    1.8894   -1.7953 C   0  0  0  0  0  0  0  0  0  0  0  0
    2.3501    0.8242    2.1678 C   0  0  0  0  0  0  0  0  0  0  0  0
    2.8744    1.0412    3.8034 Cl  0  0  0  0  0  0  0  0  0  0  0  0
    1.0788    0.2781    1.9553 C   0  0  0  0  0  0  0  0  0  0  0  0
   -2.8652   -1.4205    0.9295 C   0  0  0  0  0  0  0  0  0  0  0  0
   -3.5731   -0.6802   -0.0572 C   0  0  0  0  0  0  0  0  0  0  0  0
   -3.1501    0.1684   -0.4249 C   0  0  0  0  0  0  0  0  0  0  0  0
   -1.6792    0.0479   -0.1508 C   0  0  0  0  0  0  0  0  0  0  0  0
   -1.0851    0.8042    0.8696 C   0  0  0  0  0  0  0  0  0  0  0  0
    0.2873    0.7163    1.1085 C   0  0  0  0  0  0  0  0  0  0  0  0
    1.0673   -0.1286    0.3168 C   0  0  0  0  0  0  0  0  0  0  0  0
    2.8128   -0.2249    0.5890 S   0  0  0  0  0  6  0  0  0  0  0  0
    3.0932   -1.4969    1.2140 O   0  0  0  0  0  0  0  0  0  0  0  0
    3.2543    1.0286    1.1627 O   0  0  0  0  0  0  0  0  0  0  0  0
    3.4551   -0.2446   -0.8918 O   0  0  0  0  0  0  0  0  0  0  0  0
    0.4950   -0.8734   -0.7168 C   0  0  0  0  0  0  0  0  0  0  0  0
   -0.8779   -0.7806   -0.9492 C   0  0  0  0  0  0  0  0  0  0  0  0
   -9.2425    0.4083   -2.8415 H   0  0  0  0  0  0  0  0  0  0  0  0
   -8.6374    1.7331   -3.9922 H   0  0  0  0  0  0  0  0  0  0  0  0
   -6.3758    1.5014   -3.0979 H   0  0  0  0  0  0  0  0  0  0  0  0
   -4.9608    0.5769   -1.7414 H   0  0  0  0  0  0  0  0  0  0  0  0
   -6.6714   -1.9923    0.4093 H   0  0  0  0  0  0  0  0  0  0  0  0
   -5.4598   -3.2373    2.1086 H   0  0  0  0  0  0  0  0  0  0  0  0
   -1.1804   -3.4158    3.6628 H   0  0  0  0  0  0  0  0  0  0  0  0
   -0.8048   -0.7121   -0.5690 H   0  0  0  0  0  0  0  0  0  0  0  0
    1.0591    0.3359   -1.4361 H   0  0  0  0  0  0  0  0  0  0  0  0
    3.2659    1.2611   -1.0816 H   0  0  0  0  0  0  0  0  0  0  0  0
    4.4406    3.0440   -0.2192 H   0  0  0  0  0  0  0  0  0  0  0  0
    5.7789    3.1251    0.9114 H   0  0  0  0  0  0  0  0  0  0  0  0
    6.3943    0.0820    1.0896 H   0  0  0  0  0  0  0  0  0  0  0  0
    7.8449   -1.3335   -0.3212 H   0  0  0  0  0  0  0  0  0  0  0  0
    8.2917   -0.6906   -2.6894 H   0  0  0  0  0  0  0  0  0  0  0  0
    5.8495    2.7908   -2.2352 H   0  0  0  0  0  0  0  0  0  0  0  0
    0.4634    0.0278    2.8152 H   0  0  0  0  0  0  0  0  0  0  0  0
   -3.0371    0.0593   -0.6468 H   0  0  0  0  0  0  0  0  0  0  0  0
   -3.3287    0.9522   -1.1673 H   0  0  0  0  0  0  0  0  0  0  0  0
   -3.5547   -0.7769   -0.8018 H   0  0  0  0  0  0  0  0  0  0  0  0
   -3.6999    0.4151    0.4894 H   0  0  0  0  0  0  0  0  0  0  0  0
   -1.6907    1.4662    1.4854 H   0  0  0  0  0  0  0  0  0  0  0  0
    0.7353    1.3056    1.9054 H   0  0  0  0  0  0  0  0  0  0  0  0
    4.0813    0.5079   -0.9462 H   0  0  0  0  0  0  0  0  0  0  0  0
    1.1066   -1.5257   -1.3362 H   0  0  0  0  0  0  0  0  0  0  0  0
   -1.3220   -1.3607   -1.7558 H   0  0  0  0  0  0  0  0  0  0  0  0
  1  2  2  3
  2  3  1  0
  3  4  2  0
  3  5  1  0
  5  6  1  0
  6  7  2  0
  7  8  1  0
  8  9  2  0
  9 10  1  0
 10 11  2  0
 11 12  1  0
 12 13  2  0
 13 14  1  0
 14 15  1  0
 15 16  2  0
 16 17  1  0
 17 18  2  0
 18 19  1  0
 19 20  1  0
 20 21  1  0
 21 22  2  0
 22 23  1  0
 23 24  2  0
 24 25  1  0
 25 26  1  0
 25 27  2  0
 18 28  1  0
 28 29  1  0
 28 30  2  0
 13 31  1  0
 31 32  2  0
 33 34  1  0
 34 35  2  0
 35 36  1  0
 36 37  2  0
 37 38  1  0
 38 39  2  0
 38 40  2  0
 38 41  1  0
 37 42  1  0
 42 43  2  0
 32  6  1  0
 43 34  1  0
 31  9  1  0
 30 15  1  0
 27 21  1  0
  1 44  1  0
  1 45  1  0
  2 46  1  0
  5 47  1  0
  7 48  1  0
  8 49  1  0
 11 50  1  0
 14 51  1  0
 16 52  1  0
 17 53  1  0
 20 54  1  0
 20 55  1  0
 22 56  1  0
 23 57  1  0
 24 58  1  0
 27 59  1  0
 30 60  1  0
 32 61  1  0
 33 62  1  0
 33 63  1  0
 33 64  1  0
 35 65  1  0
 36 66  1  0
 41 67  1  0
 42 68  1  0
 43 69  1  0
M  END
$$$$
