
     RDKit          3D

 42 43  0  0  0  0  0  0  0  0999 V2000
   -4.4020   -3.2940    0.4334 C   0  0  0  0  0  0  0  0  0  0  0  0
   -5.0033   -2.0082    0.3553 O   0  0  0  0  0  0  0  0  0  0  0  0
   -4.1654   -0.9407    0.1793 C   0  0  0  0  0  0  0  0  0  0  0  0
   -2.7770   -0.9991    0.0543 C   0  0  0  0  0  0  0  0  0  0  0  0
   -2.0303    0.1760   -0.1192 C   0  0  0  0  0  0  0  0  0  0  0  0
   -0.5705    0.1486   -0.2835 C   0  0  0  0  0  0  0  0  0  0  0  0
    0.2487   -0.6022    0.4694 C   0  0  0  0  0  0  0  0  0  0  0  0
    1.7096   -0.6082    0.2875 C   0  0  0  0  0  0  0  0  0  0  0  0
    2.3161   -1.8462    0.0289 C   0  0  0  0  0  0  0  0  0  0  0  0
    3.6988   -1.9449   -0.1480 C   0  0  0  0  0  0  0  0  0  0  0  0
    4.4928   -0.8047   -0.0619 C   0  0  0  0  0  0  0  0  0  0  0  0
    5.8520   -0.7592   -0.2155 O   0  0  0  0  0  0  0  0  0  0  0  0
    6.5099   -1.9880   -0.4983 C   0  0  0  0  0  0  0  0  0  0  0  0
    3.8960    0.4326    0.2077 C   0  0  0  0  0  0  0  0  0  0  0  0
    2.5117    0.5455    0.3903 C   0  0  0  0  0  0  0  0  0  0  0  0
    1.8646    1.7221    0.6757 O   0  0  0  0  0  0  0  0  0  0  0  0
    2.6619    2.8830    0.8652 C   0  0  0  0  0  0  0  0  0  0  0  0
   -2.6914    1.4111   -0.1901 C   0  0  0  0  0  0  0  0  0  0  0  0
   -4.0790    1.4782   -0.0647 C   0  0  0  0  0  0  0  0  0  0  0  0
   -4.8370    2.6166   -0.1070 O   0  0  0  0  0  0  0  0  0  0  0  0
   -4.1426    3.8469   -0.2675 C   0  0  0  0  0  0  0  0  0  0  0  0
   -4.8048    0.2995    0.1203 C   0  0  0  0  0  0  0  0  0  0  0  0
   -3.7226   -3.3614    1.2896 H   0  0  0  0  0  0  0  0  0  0  0  0
   -3.8890   -3.5470   -0.5003 H   0  0  0  0  0  0  0  0  0  0  0  0
   -5.1999   -4.0277    0.5837 H   0  0  0  0  0  0  0  0  0  0  0  0
   -2.2549   -1.9493    0.0771 H   0  0  0  0  0  0  0  0  0  0  0  0
   -0.1650    0.8086   -1.0475 H   0  0  0  0  0  0  0  0  0  0  0  0
   -0.1305   -1.2535    1.2515 H   0  0  0  0  0  0  0  0  0  0  0  0
    1.7100   -2.7466   -0.0464 H   0  0  0  0  0  0  0  0  0  0  0  0
    4.1184   -2.9241   -0.3520 H   0  0  0  0  0  0  0  0  0  0  0  0
    7.5797   -1.7796   -0.5954 H   0  0  0  0  0  0  0  0  0  0  0  0
    6.1656   -2.4109   -1.4479 H   0  0  0  0  0  0  0  0  0  0  0  0
    6.3828   -2.7016    0.3225 H   0  0  0  0  0  0  0  0  0  0  0  0
    4.5485    1.2973    0.2708 H   0  0  0  0  0  0  0  0  0  0  0  0
    3.1887    3.1535   -0.0557 H   0  0  0  0  0  0  0  0  0  0  0  0
    3.3594    2.7535    1.6994 H   0  0  0  0  0  0  0  0  0  0  0  0
    1.9918    3.7101    1.1186 H   0  0  0  0  0  0  0  0  0  0  0  0
   -2.0974    2.3081   -0.3337 H   0  0  0  0  0  0  0  0  0  0  0  0
   -3.6144    3.8796   -1.2260 H   0  0  0  0  0  0  0  0  0  0  0  0
   -3.4586    4.0268    0.5685 H   0  0  0  0  0  0  0  0  0  0  0  0
   -4.8843    4.6515   -0.2691 H   0  0  0  0  0  0  0  0  0  0  0  0
   -5.8870    0.3481    0.2171 H   0  0  0  0  0  0  0  0  0  0  0  0
  1  2  1  0
  2  3  1  0
  3  4  2  0
  4  5  1  0
  5  6  1  0
  6  7  2  0
  7  8  1  0
  8  9  2  0
  9 10  1  0
 10 11  2  0
 11 12  1  0
 12 13  1  0
 11 14  1  0
 14 15  2  0
 15 16  1  0
 16 17  1  0
  5 18  2  0
 18 19  1  0
 19 20  1  0
 20 21  1  0
 19 22  2  0
 22  3  1  0
 15  8  1  0
  1 23  1  0
  1 24  1  0
  1 25  1  0
  4 26  1  0
  6 27  1  0
  7 28  1  0
  9 29  1  0
 10 30  1  0
 13 31  1  0
 13 32  1  0
 13 33  1  0
 14 34  1  0
 17 35  1  0
 17 36  1  0
 17 37  1  0
 18 38  1  0
 21 39  1  0
 21 40  1  0
 21 41  1  0
 22 42  1  0
M  END
$$$$
