
     RDKit          3D

 55 55  0  0  0  0  0  0  0  0999 V2000
    9.1504   -0.3497   -0.6896 C   0  0  0  0  0  0  0  0  0  0  0  0
    7.7523   -0.8502   -0.7204 C   0  0  0  0  0  0  0  0  0  0  0  0
    7.2399   -1.1656   -1.8169 O   0  0  0  0  0  0  0  0  0  0  0  0
    7.0642   -0.9503    0.4675 O   0  0  0  0  0  0  0  0  0  0  0  0
    5.7323   -1.4211    0.4861 C   0  0  0  0  0  0  0  0  0  0  0  0
    4.8646   -0.5195   -0.3506 C   0  0  0  0  0  0  0  0  0  0  0  0
    5.3656    0.4735   -0.9328 O   0  0  0  0  0  0  0  0  0  0  0  0
    3.4800   -0.7596   -0.5042 N   0  0  0  0  0  0  0  0  0  0  0  0
    2.5655    0.0402   -1.2746 C   0  0  0  0  0  0  0  0  0  0  0  0
    2.5343    1.4580   -0.6968 C   0  0  0  0  0  0  0  0  0  0  0  0
    2.0954    1.4639    0.7249 C   0  0  0  0  0  0  0  0  0  0  0  0
    0.8667    0.9729    1.0419 O   0  0  0  0  0  0  0  0  0  0  0  0
   -0.4127    1.3603    0.6981 C   0  0  0  0  0  0  0  0  0  0  0  0
   -0.6985    2.4462   -0.1026 C   0  0  0  0  0  0  0  0  0  0  0  0
   -2.0170    2.7339   -0.3798 C   0  0  0  0  0  0  0  0  0  0  0  0
   -3.0284    1.9552    0.1314 C   0  0  0  0  0  0  0  0  0  0  0  0
   -2.7837    0.8616    0.9363 C   0  0  0  0  0  0  0  0  0  0  0  0
   -3.9135    0.0449    1.4680 C   0  0  0  0  0  0  0  0  0  0  0  0
   -4.0871   -1.0772    0.6091 N   0  0  0  0  0  0  0  0  0  0  0  0
   -5.1271   -1.9880    0.9508 C   0  0  0  0  0  0  0  0  0  0  0  0
   -6.4070   -1.7727    0.2000 C   0  0  0  0  0  0  0  0  0  0  0  0
   -6.3916   -0.5107   -0.6187 C   0  0  0  0  0  0  0  0  0  0  0  0
   -5.1749   -0.3566   -1.4699 C   0  0  0  0  0  0  0  0  0  0  0  0
   -3.9386   -0.8401   -0.7887 C   0  0  0  0  0  0  0  0  0  0  0  0
   -1.4743    0.5824    1.2065 C   0  0  0  0  0  0  0  0  0  0  0  0
    0.6892    0.0000    0.0000 Cl  0  0  0  0  0  0  0  0  0  0  0  0
    9.5899   -0.6336    0.2849 H   0  0  0  0  0  0  0  0  0  0  0  0
    9.6858   -0.8283   -1.5399 H   0  0  0  0  0  0  0  0  0  0  0  0
    9.0863    0.7558   -0.8270 H   0  0  0  0  0  0  0  0  0  0  0  0
    5.6558   -2.4304    0.0693 H   0  0  0  0  0  0  0  0  0  0  0  0
    5.3224   -1.3850    1.5174 H   0  0  0  0  0  0  0  0  0  0  0  0
    3.0993   -1.5987   -0.0066 H   0  0  0  0  0  0  0  0  0  0  0  0
    1.5505   -0.3702   -1.2370 H   0  0  0  0  0  0  0  0  0  0  0  0
    2.8866    0.0779   -2.3437 H   0  0  0  0  0  0  0  0  0  0  0  0
    3.5858    1.8777   -0.6988 H   0  0  0  0  0  0  0  0  0  0  0  0
    1.9916    2.1182   -1.3886 H   0  0  0  0  0  0  0  0  0  0  0  0
    2.2096    2.5200    1.0880 H   0  0  0  0  0  0  0  0  0  0  0  0
    2.8571    0.8602    1.3010 H   0  0  0  0  0  0  0  0  0  0  0  0
    0.1080    3.0581   -0.4876 H   0  0  0  0  0  0  0  0  0  0  0  0
   -2.2558    3.5833   -1.0077 H   0  0  0  0  0  0  0  0  0  0  0  0
   -4.0838    2.1693   -0.0774 H   0  0  0  0  0  0  0  0  0  0  0  0
   -4.8191    0.6618    1.5858 H   0  0  0  0  0  0  0  0  0  0  0  0
   -3.6191   -0.2969    2.4855 H   0  0  0  0  0  0  0  0  0  0  0  0
   -4.7632   -3.0213    0.6737 H   0  0  0  0  0  0  0  0  0  0  0  0
   -5.2650   -2.0209    2.0463 H   0  0  0  0  0  0  0  0  0  0  0  0
   -7.2219   -1.6726    0.9586 H   0  0  0  0  0  0  0  0  0  0  0  0
   -6.6446   -2.6070   -0.4965 H   0  0  0  0  0  0  0  0  0  0  0  0
   -6.6105    0.3820    0.0171 H   0  0  0  0  0  0  0  0  0  0  0  0
   -7.2699   -0.5841   -1.3179 H   0  0  0  0  0  0  0  0  0  0  0  0
   -5.2898   -0.8485   -2.4749 H   0  0  0  0  0  0  0  0  0  0  0  0
   -5.0530    0.7309   -1.7277 H   0  0  0  0  0  0  0  0  0  0  0  0
   -3.6937   -1.8451   -1.2465 H   0  0  0  0  0  0  0  0  0  0  0  0
   -3.0561   -0.2193   -1.0121 H   0  0  0  0  0  0  0  0  0  0  0  0
   -1.2401   -0.2649    1.8326 H   0  0  0  0  0  0  0  0  0  0  0  0
   -0.6892    0.0000    0.0000 H   0  0  0  0  0  0  0  0  0  0  0  0
  1  2  1  0
  2  3  2  0
  2  4  1  0
  4  5  1  0
  5  6  1  0
  6  7  2  0
  6  8  1  0
  8  9  1  0
  9 10  1  0
 10 11  1  0
 11 12  1  0
 12 13  1  0
 13 14  2  0
 14 15  1  0
 15 16  2  0
 16 17  1  0
 17 18  1  0
 18 19  1  0
 19 20  1  0
 20 21  1  0
 21 22  1  0
 22 23  1  0
 23 24  1  0
 17 25  2  0
 25 13  1  0
 24 19  1  0
  1 27  1  0
  1 28  1  0
  1 29  1  0
  5 30  1  0
  5 31  1  0
  8 32  1  0
  9 33  1  0
  9 34  1  0
 10 35  1  0
 10 36  1  0
 11 37  1  0
 11 38  1  0
 14 39  1  0
 15 40  1  0
 16 41  1  0
 18 42  1  0
 18 43  1  0
 20 44  1  0
 20 45  1  0
 21 46  1  0
 21 47  1  0
 22 48  1  0
 22 49  1  0
 23 50  1  0
 23 51  1  0
 24 52  1  0
 24 53  1  0
 25 54  1  0
 26 55  1  0
M  END
$$$$
