
     RDKit          3D

 72 78  0  0  0  0  0  0  0  0999 V2000
   -3.8928   -2.7093    3.2648 N   0  0  0  0  0  0  0  0  0  0  0  0
   -2.8706   -2.1192    2.5963 C   0  0  0  0  0  0  0  0  0  0  0  0
   -1.6049   -2.3815    2.8046 N   0  0  0  0  0  0  0  0  0  0  0  0
   -0.9463   -1.4584    2.0419 C   0  0  0  0  0  0  0  0  0  0  0  0
    0.3973   -1.5104    2.0772 N   0  0  0  0  0  0  0  0  0  0  0  0
    1.3890   -0.7852    1.3899 C   0  0  0  0  0  0  0  0  0  0  0  0
    1.1146    0.2440    0.4933 C   0  0  0  0  0  0  0  0  0  0  0  0
    2.1478    0.9200   -0.1627 C   0  0  0  0  0  0  0  0  0  0  0  0
    3.4984    0.5925    0.0508 C   0  0  0  0  0  0  0  0  0  0  0  0
    3.8033   -0.4121    0.9848 C   0  0  0  0  0  0  0  0  0  0  0  0
    2.7398   -1.0945    1.6212 C   0  0  0  0  0  0  0  0  0  0  0  0
    5.2100   -0.8532    1.3358 C   0  0  0  0  0  0  0  0  0  0  0  0
    6.2585    0.2591    1.3268 C   0  0  0  0  0  0  0  0  0  0  0  0
    6.8685    0.5371   -0.0684 C   0  0  1  0  0  0  0  0  0  0  0  0
    7.9280   -0.4687   -0.3683 N   0  0  0  0  0  0  0  0  0  0  0  0
    9.1794   -0.1754    0.3665 C   0  0  0  0  0  0  0  0  0  0  0  0
    9.9973    0.7539   -0.5268 C   0  0  0  0  0  0  0  0  0  0  0  0
    9.3617    0.6441   -1.9038 C   0  0  0  0  0  0  0  0  0  0  0  0
    8.3863   -0.5096   -1.7682 C   0  0  0  0  0  0  0  0  0  0  0  0
    5.7665    0.6010   -1.1512 C   0  0  0  0  0  0  0  0  0  0  0  0
    4.5270    1.3861   -0.7236 C   0  0  0  0  0  0  0  0  0  0  0  0
   -1.7436   -0.6247    1.3785 N   0  0  0  0  0  0  0  0  0  0  0  0
   -2.9822   -1.1079    1.6413 N   0  0  0  0  0  0  0  0  0  0  0  0
   -4.1232   -0.5959    0.9681 C   0  0  0  0  0  0  0  0  0  0  0  0
   -5.3334   -1.2697    0.9469 C   0  0  0  0  0  0  0  0  0  0  0  0
   -6.4526   -0.7476    0.2446 C   0  0  0  0  0  0  0  0  0  0  0  0
   -6.3031    0.4758   -0.4112 C   0  0  0  0  0  0  0  0  0  0  0  0
   -5.0924    1.0928   -0.3580 N   0  0  0  0  0  0  0  0  0  0  0  0
   -4.0022    0.5620    0.3051 N   0  0  0  0  0  0  0  0  0  0  0  0
   -7.3048    1.2492   -1.2025 C   0  0  0  0  0  0  0  0  0  0  0  0
   -6.8319    2.1844   -2.1627 C   0  0  0  0  0  0  0  0  0  0  0  0
   -7.6820    2.9937   -2.9210 C   0  0  0  0  0  0  0  0  0  0  0  0
   -9.0520    2.8995   -2.7466 C   0  0  0  0  0  0  0  0  0  0  0  0
   -9.5597    1.9906   -1.8245 C   0  0  0  0  0  0  0  0  0  0  0  0
   -8.7071    1.1612   -1.0583 C   0  0  0  0  0  0  0  0  0  0  0  0
   -9.3683    0.1865   -0.1200 C   0  0  0  0  0  0  0  0  0  0  0  0
   -8.9288   -1.2274   -0.4563 C   0  0  0  0  0  0  0  0  0  0  0  0
   -7.6808   -1.6196    0.3121 C   0  0  0  0  0  0  0  0  0  0  0  0
   -3.5617   -3.3207    4.0117 H   0  0  0  0  0  0  0  0  0  0  0  0
   -4.6131   -2.0926    3.6341 H   0  0  0  0  0  0  0  0  0  0  0  0
    0.7674   -2.2512    2.6575 H   0  0  0  0  0  0  0  0  0  0  0  0
    0.0935    0.5439    0.2751 H   0  0  0  0  0  0  0  0  0  0  0  0
    1.8787    1.7123   -0.8597 H   0  0  0  0  0  0  0  0  0  0  0  0
    2.9822   -1.8908    2.3233 H   0  0  0  0  0  0  0  0  0  0  0  0
    5.5004   -1.6835    0.6817 H   0  0  0  0  0  0  0  0  0  0  0  0
    5.1929   -1.2567    2.3575 H   0  0  0  0  0  0  0  0  0  0  0  0
    5.8346    1.1855    1.7353 H   0  0  0  0  0  0  0  0  0  0  0  0
    7.0465   -0.0184    2.0357 H   0  0  0  0  0  0  0  0  0  0  0  0
    7.3268    1.5353   -0.0268 H   0  0  0  0  0  0  0  0  0  0  0  0
    9.7242   -1.1183    0.5071 H   0  0  0  0  0  0  0  0  0  0  0  0
    9.0403    0.2518    1.3649 H   0  0  0  0  0  0  0  0  0  0  0  0
   11.0488    0.4487   -0.5466 H   0  0  0  0  0  0  0  0  0  0  0  0
    9.9519    1.7904   -0.1732 H   0  0  0  0  0  0  0  0  0  0  0  0
   10.1052    0.4671   -2.6856 H   0  0  0  0  0  0  0  0  0  0  0  0
    8.8313    1.5721   -2.1441 H   0  0  0  0  0  0  0  0  0  0  0  0
    8.9208   -1.4565   -1.9255 H   0  0  0  0  0  0  0  0  0  0  0  0
    7.5965   -0.4928   -2.5234 H   0  0  0  0  0  0  0  0  0  0  0  0
    5.4750   -0.4047   -1.4820 H   0  0  0  0  0  0  0  0  0  0  0  0
    6.1831    1.1122   -2.0289 H   0  0  0  0  0  0  0  0  0  0  0  0
    4.0528    1.7462   -1.6463 H   0  0  0  0  0  0  0  0  0  0  0  0
    4.8035    2.2801   -0.1519 H   0  0  0  0  0  0  0  0  0  0  0  0
   -5.4373   -2.2401    1.4232 H   0  0  0  0  0  0  0  0  0  0  0  0
   -5.7590    2.2982   -2.3299 H   0  0  0  0  0  0  0  0  0  0  0  0
   -7.2653    3.6962   -3.6380 H   0  0  0  0  0  0  0  0  0  0  0  0
   -9.7232    3.5260   -3.3268 H   0  0  0  0  0  0  0  0  0  0  0  0
  -10.6406    1.9219   -1.7085 H   0  0  0  0  0  0  0  0  0  0  0  0
  -10.4582    0.2391   -0.2354 H   0  0  0  0  0  0  0  0  0  0  0  0
   -9.1551    0.4605    0.9208 H   0  0  0  0  0  0  0  0  0  0  0  0
   -9.7273   -1.9266   -0.1738 H   0  0  0  0  0  0  0  0  0  0  0  0
   -8.7717   -1.3581   -1.5358 H   0  0  0  0  0  0  0  0  0  0  0  0
   -7.9552   -1.7141    1.3719 H   0  0  0  0  0  0  0  0  0  0  0  0
   -7.3995   -2.6256   -0.0264 H   0  0  0  0  0  0  0  0  0  0  0  0
  1  2  1  0
  2  3  2  0
  3  4  1  0
  4  5  1  0
  5  6  1  0
  6  7  2  0
  7  8  1  0
  8  9  2  0
  9 10  1  0
 10 11  2  0
 10 12  1  0
 12 13  1  0
 13 14  1  0
 14 15  1  0
 15 16  1  0
 16 17  1  0
 17 18  1  0
 18 19  1  0
 14 20  1  0
 20 21  1  0
  4 22  2  0
 22 23  1  0
 23 24  1  0
 24 25  2  0
 25 26  1  0
 26 27  2  0
 27 28  1  0
 28 29  2  0
 27 30  1  0
 30 31  2  0
 31 32  1  0
 32 33  2  0
 33 34  1  0
 34 35  2  0
 35 36  1  0
 36 37  1  0
 37 38  1  0
 23  2  1  0
 29 24  1  0
 35 30  1  0
 11  6  1  0
 19 15  1  0
 38 26  1  0
 21  9  1  0
  1 39  1  0
  1 40  1  0
  5 41  1  0
  7 42  1  0
  8 43  1  0
 11 44  1  0
 12 45  1  0
 12 46  1  0
 13 47  1  0
 13 48  1  0
 14 49  1  1
 16 50  1  0
 16 51  1  0
 17 52  1  0
 17 53  1  0
 18 54  1  0
 18 55  1  0
 19 56  1  0
 19 57  1  0
 20 58  1  0
 20 59  1  0
 21 60  1  0
 21 61  1  0
 25 62  1  0
 31 63  1  0
 32 64  1  0
 33 65  1  0
 34 66  1  0
 36 67  1  0
 36 68  1  0
 37 69  1  0
 37 70  1  0
 38 71  1  0
 38 72  1  0
M  END
$$$$
