
     RDKit          3D

 44 47  0  0  0  0  0  0  0  0999 V2000
    2.8749   -1.8280    3.9420 N   0  0  0  0  0  0  0  0  0  0  0  0
    3.3159   -1.4838    2.6453 N   0  0  0  0  0  0  0  0  0  0  0  0
    4.0776   -0.3364    2.4609 C   0  0  0  0  0  0  0  0  0  0  0  0
    4.3976    0.3948    3.3950 O   0  0  0  0  0  0  0  0  0  0  0  0
    4.4767   -0.0719    1.0231 C   0  0  0  0  0  0  0  0  0  0  0  0
    3.3898    1.1687    0.2782 S   0  0  0  0  0  0  0  0  0  0  0  0
    1.8871    0.2670    0.0488 C   0  0  0  0  0  0  0  0  0  0  0  0
    1.9815   -1.0239    0.1401 N   0  0  0  0  0  0  0  0  0  0  0  0
    0.8597   -1.7108   -0.1587 C   0  0  0  0  0  0  0  0  0  0  0  0
    0.8393   -3.4140   -0.0715 S   0  0  0  0  0  0  0  0  0  0  0  0
   -0.7833   -3.4731   -0.6028 C   0  0  0  0  0  0  0  0  0  0  0  0
   -1.3076   -2.2151   -0.8528 C   0  0  0  0  0  0  0  0  0  0  0  0
   -2.6834   -2.0838   -1.3173 C   0  0  0  0  0  0  0  0  0  0  0  0
   -3.0730   -2.6499   -2.5412 C   0  0  0  0  0  0  0  0  0  0  0  0
   -4.4012   -2.5572   -2.9712 C   0  0  0  0  0  0  0  0  0  0  0  0
   -5.3428   -1.8933   -2.1873 C   0  0  0  0  0  0  0  0  0  0  0  0
   -4.9560   -1.3172   -0.9771 C   0  0  0  0  0  0  0  0  0  0  0  0
   -3.6321   -1.4152   -0.5386 C   0  0  0  0  0  0  0  0  0  0  0  0
   -0.3398   -1.1884   -0.5757 C   0  0  0  0  0  0  0  0  0  0  0  0
   -0.4491    0.2584   -0.6737 C   0  0  0  0  0  0  0  0  0  0  0  0
   -1.5025    0.7839   -1.0180 O   0  0  0  0  0  0  0  0  0  0  0  0
    0.7159    0.9667   -0.3013 N   0  0  0  0  0  0  0  0  0  0  0  0
    0.6080    2.4051   -0.2527 C   0  0  0  0  0  0  0  0  0  0  0  0
    0.9715    3.1214    0.9005 C   0  0  0  0  0  0  0  0  0  0  0  0
    0.8274    4.5098    0.9579 C   0  0  0  0  0  0  0  0  0  0  0  0
    0.3032    5.2009   -0.1300 C   0  0  0  0  0  0  0  0  0  0  0  0
   -0.0751    4.5055   -1.2724 C   0  0  0  0  0  0  0  0  0  0  0  0
    0.0758    3.1166   -1.3303 C   0  0  0  0  0  0  0  0  0  0  0  0
    3.6844   -1.7246    4.5585 H   0  0  0  0  0  0  0  0  0  0  0  0
    2.2419   -1.0968    4.2658 H   0  0  0  0  0  0  0  0  0  0  0  0
    2.8763   -1.9336    1.8414 H   0  0  0  0  0  0  0  0  0  0  0  0
    5.5018    0.3105    1.0304 H   0  0  0  0  0  0  0  0  0  0  0  0
    4.4912   -0.9958    0.4316 H   0  0  0  0  0  0  0  0  0  0  0  0
   -1.2748   -4.4350   -0.7073 H   0  0  0  0  0  0  0  0  0  0  0  0
   -2.3500   -3.1634   -3.1683 H   0  0  0  0  0  0  0  0  0  0  0  0
   -4.7016   -3.0059   -3.9163 H   0  0  0  0  0  0  0  0  0  0  0  0
   -6.3769   -1.8179   -2.5232 H   0  0  0  0  0  0  0  0  0  0  0  0
   -5.6875   -0.7917   -0.3699 H   0  0  0  0  0  0  0  0  0  0  0  0
   -3.3520   -0.9647    0.4162 H   0  0  0  0  0  0  0  0  0  0  0  0
    1.3455    2.6116    1.7818 H   0  0  0  0  0  0  0  0  0  0  0  0
    1.1162    5.0519    1.8565 H   0  0  0  0  0  0  0  0  0  0  0  0
    0.1665    6.2759   -0.0669 H   0  0  0  0  0  0  0  0  0  0  0  0
   -0.5054    5.0376   -2.1108 H   0  0  0  0  0  0  0  0  0  0  0  0
   -0.2318    2.6053   -2.2395 H   0  0  0  0  0  0  0  0  0  0  0  0
  1  2  1  0
  2  3  1  0
  3  4  2  0
  3  5  1  0
  5  6  1  0
  6  7  1  0
  7  8  2  0
  8  9  1  0
  9 10  1  0
 10 11  1  0
 11 12  2  0
 12 13  1  0
 13 14  2  0
 14 15  1  0
 15 16  2  0
 16 17  1  0
 17 18  2  0
 12 19  1  0
 19 20  1  0
 20 21  2  0
 20 22  1  0
 22 23  1  0
 23 24  2  0
 24 25  1  0
 25 26  2  0
 26 27  1  0
 27 28  2  0
 22  7  1  0
 28 23  1  0
 19  9  2  0
 18 13  1  0
  1 29  1  0
  1 30  1  0
  2 31  1  0
  5 32  1  0
  5 33  1  0
 11 34  1  0
 14 35  1  0
 15 36  1  0
 16 37  1  0
 17 38  1  0
 18 39  1  0
 24 40  1  0
 25 41  1  0
 26 42  1  0
 27 43  1  0
 28 44  1  0
M  END
$$$$
