
     RDKit          3D

 88 90  0  0  0  0  0  0  0  0999 V2000
    6.0033    0.0167   -3.1687 C   0  0  0  0  0  0  0  0  0  0  0  0
    4.7450   -0.0232   -2.4691 N   0  0  0  0  0  0  0  0  0  0  0  0
    3.9630    1.1065   -2.3775 N   0  0  0  0  0  0  0  0  0  0  0  0
    2.8856    0.7366   -1.7569 C   0  0  0  0  0  0  0  0  0  0  0  0
    1.6762    1.5952   -1.5771 C   0  0  0  0  0  0  0  0  0  0  0  0
    0.5431    0.8739   -2.3032 C   0  0  0  0  0  0  0  0  0  0  0  0
    0.4406   -0.5146   -1.8346 N   0  0  0  0  0  0  0  0  0  0  0  0
   -0.5881   -1.0482   -1.0602 C   0  0  0  0  0  0  0  0  0  0  0  0
   -0.5704   -2.2417   -0.7409 O   0  0  0  0  0  0  0  0  0  0  0  0
   -1.8209   -0.1728   -0.7150 C   0  0  1  0  0  0  0  0  0  0  0  0
   -2.8241   -0.9577    0.1478 C   0  0  0  0  0  0  0  0  0  0  0  0
   -3.9951   -0.1394    0.3419 O   0  0  0  0  0  0  0  0  0  0  0  0
   -4.9583   -0.7747    1.1871 C   0  0  0  0  0  0  0  0  0  0  0  0
   -5.7440   -1.8313    0.4521 C   0  0  0  0  0  0  0  0  0  0  0  0
   -6.3544   -1.5433   -0.7772 C   0  0  0  0  0  0  0  0  0  0  0  0
   -7.0844   -2.5232   -1.4531 C   0  0  0  0  0  0  0  0  0  0  0  0
   -7.2159   -3.7964   -0.9062 C   0  0  0  0  0  0  0  0  0  0  0  0
   -6.6198   -4.0925    0.3185 C   0  0  0  0  0  0  0  0  0  0  0  0
   -5.8915   -3.1141    0.9977 C   0  0  0  0  0  0  0  0  0  0  0  0
   -1.5482    1.1494   -0.1265 N   0  0  0  0  0  0  0  0  0  0  0  0
   -0.8838    1.2541    1.0767 C   0  0  0  0  0  0  0  0  0  0  0  0
   -0.2837    0.3037    1.5799 O   0  0  0  0  0  0  0  0  0  0  0  0
   -0.9618    2.6371    1.7932 C   0  0  0  0  0  0  0  0  0  0  0  0
   -2.3039    2.7277    2.5228 C   0  0  0  0  0  0  0  0  0  0  0  0
   -0.7917    3.8078    0.8216 C   0  0  0  0  0  0  0  0  0  0  0  0
    0.1604    2.7117    2.7570 N   0  0  0  0  0  0  0  0  0  0  0  0
    1.6535   -1.3279   -2.0647 C   0  0  0  0  0  0  0  0  0  0  0  0
    2.8594   -0.7159   -1.3485 C   0  0  2  0  0  0  0  0  0  0  0  0
    2.8202   -0.9530    0.1654 C   0  0  0  0  0  0  0  0  0  0  0  0
    3.9624   -0.3615    0.9627 C   0  0  0  0  0  0  0  0  0  0  0  0
    5.1595   -1.0769    1.1187 C   0  0  0  0  0  0  0  0  0  0  0  0
    6.2199   -0.5375    1.8473 C   0  0  0  0  0  0  0  0  0  0  0  0
    6.0934    0.7204    2.4318 C   0  0  0  0  0  0  0  0  0  0  0  0
    4.9052    1.4375    2.2926 C   0  0  0  0  0  0  0  0  0  0  0  0
    3.8427    0.8993    1.5631 C   0  0  0  0  0  0  0  0  0  0  0  0
    4.1502   -1.1848   -1.9689 C   0  0  0  0  0  0  0  0  0  0  0  0
    4.5621   -2.3317   -2.0197 O   0  0  0  0  0  0  0  0  0  0  0  0
    2.3937   -0.2799    1.5640 O   0  0  0  0  0  0  0  0  0  0  0  0
    1.6736    0.3113    0.7709 C   0  0  0  0  0  0  0  0  0  0  0  0
    2.1809    1.2242   -0.0755 O   0  0  0  0  0  0  0  0  0  0  0  0
    0.1646    0.1442    0.6804 C   0  0  2  0  0  0  0  0  0  0  0  0
   -0.3141   -0.7783    1.6751 O   0  0  0  0  0  0  0  0  0  0  0  0
   -0.2288   -0.3520   -0.7117 C   0  0  1  0  0  0  0  0  0  0  0  0
   -0.0789   -1.7737   -0.7894 O   0  0  0  0  0  0  0  0  0  0  0  0
   -1.6617    0.0768   -1.0026 C   0  0  0  0  0  0  0  0  0  0  0  0
   -2.6327   -0.6540   -1.1120 O   0  0  0  0  0  0  0  0  0  0  0  0
   -1.7954    1.4083   -1.1651 O   0  0  0  0  0  0  0  0  0  0  0  0
    6.5322   -0.9335   -3.0609 H   0  0  0  0  0  0  0  0  0  0  0  0
    5.8081    0.2044   -4.2281 H   0  0  0  0  0  0  0  0  0  0  0  0
    6.6122    0.8258   -2.7572 H   0  0  0  0  0  0  0  0  0  0  0  0
    1.8437    2.5908   -1.9965 H   0  0  0  0  0  0  0  0  0  0  0  0
    1.4680    1.6939   -0.5094 H   0  0  0  0  0  0  0  0  0  0  0  0
    0.7584    0.8272   -3.3783 H   0  0  0  0  0  0  0  0  0  0  0  0
   -0.3966    1.4147   -2.2067 H   0  0  0  0  0  0  0  0  0  0  0  0
   -2.3130    0.0484   -1.6711 H   0  0  0  0  0  0  0  0  0  0  0  0
   -3.1074   -1.8892   -0.3550 H   0  0  0  0  0  0  0  0  0  0  0  0
   -2.3914   -1.2066    1.1232 H   0  0  0  0  0  0  0  0  0  0  0  0
   -4.4667   -1.1722    2.0827 H   0  0  0  0  0  0  0  0  0  0  0  0
   -5.6573   -0.0011    1.5263 H   0  0  0  0  0  0  0  0  0  0  0  0
   -6.2491   -0.5540   -1.2178 H   0  0  0  0  0  0  0  0  0  0  0  0
   -7.5471   -2.2952   -2.4101 H   0  0  0  0  0  0  0  0  0  0  0  0
   -7.7805   -4.5603   -1.4336 H   0  0  0  0  0  0  0  0  0  0  0  0
   -6.7190   -5.0885    0.7434 H   0  0  0  0  0  0  0  0  0  0  0  0
   -5.4292   -3.3651    1.9504 H   0  0  0  0  0  0  0  0  0  0  0  0
   -2.3044    1.8096   -0.2641 H   0  0  0  0  0  0  0  0  0  0  0  0
   -3.1417    2.7047    1.8160 H   0  0  0  0  0  0  0  0  0  0  0  0
   -2.3835    3.6539    3.1022 H   0  0  0  0  0  0  0  0  0  0  0  0
   -2.4388    1.8855    3.2142 H   0  0  0  0  0  0  0  0  0  0  0  0
   -1.6388    3.8868    0.1322 H   0  0  0  0  0  0  0  0  0  0  0  0
    0.1130    3.6947    0.2138 H   0  0  0  0  0  0  0  0  0  0  0  0
   -0.7230    4.7635    1.3539 H   0  0  0  0  0  0  0  0  0  0  0  0
    0.4611    1.7466    2.9464 H   0  0  0  0  0  0  0  0  0  0  0  0
   -0.1703    3.0590    3.6552 H   0  0  0  0  0  0  0  0  0  0  0  0
    1.5057   -2.3663   -1.7500 H   0  0  0  0  0  0  0  0  0  0  0  0
    1.8102   -1.3557   -3.1517 H   0  0  0  0  0  0  0  0  0  0  0  0
    1.8852   -0.5653    0.5836 H   0  0  0  0  0  0  0  0  0  0  0  0
    2.7933   -2.0336    0.3664 H   0  0  0  0  0  0  0  0  0  0  0  0
    5.2736   -2.0639    0.6734 H   0  0  0  0  0  0  0  0  0  0  0  0
    7.1421   -1.1027    1.9601 H   0  0  0  0  0  0  0  0  0  0  0  0
    6.9197    1.1405    3.0014 H   0  0  0  0  0  0  0  0  0  0  0  0
    4.8046    2.4158    2.7556 H   0  0  0  0  0  0  0  0  0  0  0  0
    2.9208    1.4721    1.4799 H   0  0  0  0  0  0  0  0  0  0  0  0
    3.1437    1.2294    0.1140 H   0  0  0  0  0  0  0  0  0  0  0  0
   -0.2705    1.1199    0.9201 H   0  0  0  0  0  0  0  0  0  0  0  0
    0.4797   -1.1408    2.1219 H   0  0  0  0  0  0  0  0  0  0  0  0
    0.3961    0.0735   -1.5045 H   0  0  0  0  0  0  0  0  0  0  0  0
   -0.6990   -2.1349   -0.1243 H   0  0  0  0  0  0  0  0  0  0  0  0
   -2.7510    1.5258   -1.3613 H   0  0  0  0  0  0  0  0  0  0  0  0
  1  2  1  0
  2  3  1  0
  3  4  2  0
  4  5  1  0
  5  6  1  0
  6  7  1  0
  7  8  1  0
  8  9  2  0
  8 10  1  0
 10 11  1  0
 11 12  1  0
 12 13  1  0
 13 14  1  0
 14 15  2  0
 15 16  1  0
 16 17  2  0
 17 18  1  0
 18 19  2  0
 10 20  1  0
 20 21  1  0
 21 22  2  0
 21 23  1  0
 23 24  1  0
 23 25  1  0
 23 26  1  0
  7 27  1  0
 27 28  1  0
 28 29  1  1
 29 30  1  0
 30 31  2  0
 31 32  1  0
 32 33  2  0
 33 34  1  0
 34 35  2  0
 28 36  1  0
 36 37  2  0
 38 39  2  0
 39 40  1  0
 39 41  1  0
 41 42  1  0
 41 43  1  0
 43 44  1  0
 43 45  1  0
 45 46  2  0
 45 47  1  0
 36  2  1  0
 28  4  1  0
 35 30  1  0
 19 14  1  0
  1 48  1  0
  1 49  1  0
  1 50  1  0
  5 51  1  0
  5 52  1  0
  6 53  1  0
  6 54  1  0
 10 55  1  6
 11 56  1  0
 11 57  1  0
 13 58  1  0
 13 59  1  0
 15 60  1  0
 16 61  1  0
 17 62  1  0
 18 63  1  0
 19 64  1  0
 20 65  1  0
 24 66  1  0
 24 67  1  0
 24 68  1  0
 25 69  1  0
 25 70  1  0
 25 71  1  0
 26 72  1  0
 26 73  1  0
 27 74  1  0
 27 75  1  0
 29 76  1  0
 29 77  1  0
 31 78  1  0
 32 79  1  0
 33 80  1  0
 34 81  1  0
 35 82  1  0
 40 83  1  0
 41 84  1  1
 42 85  1  0
 43 86  1  6
 44 87  1  0
 47 88  1  0
M  END
$$$$
