
     RDKit          3D

 42 43  0  0  0  0  0  0  0  0999 V2000
    5.6763    2.3052    0.2827 C   0  0  0  0  0  0  0  0  0  0  0  0
    4.4176    1.6940    0.0318 O   0  0  0  0  0  0  0  0  0  0  0  0
    4.4970    0.6258   -0.9222 C   0  0  0  0  0  0  0  0  0  0  0  0
    4.7759   -0.7038   -0.2170 C   0  0  0  0  0  0  0  0  0  0  0  0
    3.6658   -1.1087    0.6303 N   0  0  0  0  0  0  0  0  0  0  0  0
    2.6158   -1.8435    0.1143 C   0  0  0  0  0  0  0  0  0  0  0  0
    2.6090   -2.3069   -1.0246 O   0  0  0  0  0  0  0  0  0  0  0  0
    1.4906   -2.1060    1.0986 C   0  0  0  0  0  0  0  0  0  0  0  0
    0.6288   -0.5763    1.5631 S   0  0  0  0  0  0  0  0  0  0  0  0
   -0.0685   -0.1801   -0.0305 C   0  0  0  0  0  0  0  0  0  0  0  0
    0.7043    0.6573   -0.7703 N   0  0  0  0  0  0  0  0  0  0  0  0
    0.2353    0.9743   -1.9957 C   0  0  0  0  0  0  0  0  0  0  0  0
   -0.9632    0.4882   -2.4768 C   0  0  0  0  0  0  0  0  0  0  0  0
   -1.7518   -0.3344   -1.7527 N   0  0  0  0  0  0  0  0  0  0  0  0
   -1.2998   -0.6624   -0.5105 C   0  0  0  0  0  0  0  0  0  0  0  0
   -2.3485   -1.7614    0.4328 S   0  0  0  0  0  0  0  0  0  0  0  0
   -3.9119   -0.8920    0.3512 C   0  0  0  0  0  0  0  0  0  0  0  0
   -4.8607   -1.3577   -0.5723 C   0  0  0  0  0  0  0  0  0  0  0  0
   -6.1089   -0.7456   -0.6853 C   0  0  0  0  0  0  0  0  0  0  0  0
   -6.4229    0.3387    0.1267 C   0  0  0  0  0  0  0  0  0  0  0  0
   -5.4911    0.8087    1.0527 C   0  0  0  0  0  0  0  0  0  0  0  0
   -4.2318    0.1966    1.1868 C   0  0  0  0  0  0  0  0  0  0  0  0
   -3.2642    0.7547    2.1952 C   0  0  0  0  0  0  0  0  0  0  0  0
    6.0469    2.7940   -0.6232 H   0  0  0  0  0  0  0  0  0  0  0  0
    6.4054    1.5724    0.6383 H   0  0  0  0  0  0  0  0  0  0  0  0
    5.5410    3.0661    1.0581 H   0  0  0  0  0  0  0  0  0  0  0  0
    5.2684    0.8376   -1.6709 H   0  0  0  0  0  0  0  0  0  0  0  0
    3.5334    0.5832   -1.4413 H   0  0  0  0  0  0  0  0  0  0  0  0
    5.6471   -0.6202    0.4397 H   0  0  0  0  0  0  0  0  0  0  0  0
    4.9703   -1.4871   -0.9558 H   0  0  0  0  0  0  0  0  0  0  0  0
    3.4226   -0.4557    1.3690 H   0  0  0  0  0  0  0  0  0  0  0  0
    1.9144   -2.5631    1.9989 H   0  0  0  0  0  0  0  0  0  0  0  0
    0.7895   -2.8261    0.6646 H   0  0  0  0  0  0  0  0  0  0  0  0
    0.8595    1.6361   -2.5851 H   0  0  0  0  0  0  0  0  0  0  0  0
   -1.3262    0.7489   -3.4634 H   0  0  0  0  0  0  0  0  0  0  0  0
   -4.6273   -2.1993   -1.2219 H   0  0  0  0  0  0  0  0  0  0  0  0
   -6.8304   -1.1145   -1.4090 H   0  0  0  0  0  0  0  0  0  0  0  0
   -7.3929    0.8208    0.0392 H   0  0  0  0  0  0  0  0  0  0  0  0
   -5.7561    1.6609    1.6759 H   0  0  0  0  0  0  0  0  0  0  0  0
   -3.7562    1.4664    2.8669 H   0  0  0  0  0  0  0  0  0  0  0  0
   -2.4544    1.2860    1.6858 H   0  0  0  0  0  0  0  0  0  0  0  0
   -2.8479   -0.0380    2.8258 H   0  0  0  0  0  0  0  0  0  0  0  0
  1  2  1  0
  2  3  1  0
  3  4  1  0
  4  5  1  0
  5  6  1  0
  6  7  2  0
  6  8  1  0
  8  9  1  0
  9 10  1  0
 10 11  2  0
 11 12  1  0
 12 13  2  0
 13 14  1  0
 14 15  2  0
 15 16  1  0
 16 17  1  0
 17 18  2  0
 18 19  1  0
 19 20  2  0
 20 21  1  0
 21 22  2  0
 22 23  1  0
 15 10  1  0
 22 17  1  0
  1 24  1  0
  1 25  1  0
  1 26  1  0
  3 27  1  0
  3 28  1  0
  4 29  1  0
  4 30  1  0
  5 31  1  0
  8 32  1  0
  8 33  1  0
 12 34  1  0
 13 35  1  0
 18 36  1  0
 19 37  1  0
 20 38  1  0
 21 39  1  0
 23 40  1  0
 23 41  1  0
 23 42  1  0
M  END
$$$$
