
     RDKit          3D

 48 51  0  0  0  0  0  0  0  0999 V2000
   -4.9112   -0.2853    3.3031 C   0  0  0  0  0  0  0  0  0  0  0  0
   -4.9377    0.2005    1.8881 C   0  0  0  0  0  0  0  0  0  0  0  0
   -5.8861    0.9655    1.4376 N   0  0  0  0  0  0  0  0  0  0  0  0
   -5.8408    1.3678    0.1047 N   0  0  0  0  0  0  0  0  0  0  0  0
   -6.9140    2.2479   -0.3194 C   0  0  0  0  0  0  0  0  0  0  0  0
   -4.8115    1.0373   -0.7932 C   0  0  0  0  0  0  0  0  0  0  0  0
   -4.7625    1.4422   -1.9513 O   0  0  0  0  0  0  0  0  0  0  0  0
   -3.7998    0.1798   -0.2310 C   0  0  0  0  0  0  0  0  0  0  0  0
   -2.6680   -0.3769   -0.7939 C   0  0  0  0  0  0  0  0  0  0  0  0
   -2.0292   -1.1252    0.2232 C   0  0  0  0  0  0  0  0  0  0  0  0
   -0.5629   -2.0200    0.0372 S   0  0  0  0  0  6  0  0  0  0  0  0
   -0.9502   -3.1505   -0.7758 O   0  0  0  0  0  0  0  0  0  0  0  0
   -0.0591   -2.1873    1.3830 O   0  0  0  0  0  0  0  0  0  0  0  0
    0.5418   -1.0714   -0.8380 N   0  0  0  0  0  0  0  0  0  0  0  0
    0.8716    0.2540   -0.2100 C   0  0  0  0  0  0  0  0  0  0  0  0
    2.2726    0.7681   -0.5930 C   0  0  0  0  0  0  0  0  0  0  0  0
    3.3066   -0.1984   -0.1905 N   0  0  0  0  0  0  0  0  0  0  0  0
    4.6411    0.1814   -0.0719 C   0  0  0  0  0  0  0  0  0  0  0  0
    5.5585   -0.6428    0.6072 C   0  0  0  0  0  0  0  0  0  0  0  0
    6.9068   -0.2916    0.7601 C   0  0  0  0  0  0  0  0  0  0  0  0
    7.3814    0.9061    0.2386 C   0  0  0  0  0  0  0  0  0  0  0  0
    6.5041    1.7508   -0.4302 C   0  0  0  0  0  0  0  0  0  0  0  0
    5.1614    1.3917   -0.5759 C   0  0  0  0  0  0  0  0  0  0  0  0
    4.3771    2.2466   -1.2535 F   0  0  0  0  0  0  0  0  0  0  0  0
    2.9545   -1.6258   -0.3207 C   0  0  0  0  0  0  0  0  0  0  0  0
    1.7620   -1.8266   -1.2740 C   0  0  0  0  0  0  0  0  0  0  0  0
   -2.7926   -1.0112    1.3701 C   0  0  0  0  0  0  0  0  0  0  0  0
   -3.8784   -0.2158    1.0816 N   0  0  0  0  0  0  0  0  0  0  0  0
   -4.0079    0.0689    3.8081 H   0  0  0  0  0  0  0  0  0  0  0  0
   -5.7814    0.0975    3.8448 H   0  0  0  0  0  0  0  0  0  0  0  0
   -4.9428   -1.3783    3.3286 H   0  0  0  0  0  0  0  0  0  0  0  0
   -6.9703    2.3141   -1.4090 H   0  0  0  0  0  0  0  0  0  0  0  0
   -7.8649    1.8666    0.0641 H   0  0  0  0  0  0  0  0  0  0  0  0
   -6.7259    3.2440    0.0910 H   0  0  0  0  0  0  0  0  0  0  0  0
   -2.3453   -0.2552   -1.8217 H   0  0  0  0  0  0  0  0  0  0  0  0
    0.1221    0.9826   -0.5374 H   0  0  0  0  0  0  0  0  0  0  0  0
    0.8176    0.1803    0.8823 H   0  0  0  0  0  0  0  0  0  0  0  0
    2.3233    0.9405   -1.6750 H   0  0  0  0  0  0  0  0  0  0  0  0
    2.4189    1.7257   -0.0794 H   0  0  0  0  0  0  0  0  0  0  0  0
    5.2266   -1.5739    1.0605 H   0  0  0  0  0  0  0  0  0  0  0  0
    7.5798   -0.9566    1.2963 H   0  0  0  0  0  0  0  0  0  0  0  0
    8.4259    1.1811    0.3561 H   0  0  0  0  0  0  0  0  0  0  0  0
    6.8504    2.6911   -0.8471 H   0  0  0  0  0  0  0  0  0  0  0  0
    2.7144   -2.0225    0.6725 H   0  0  0  0  0  0  0  0  0  0  0  0
    3.7937   -2.2056   -0.7238 H   0  0  0  0  0  0  0  0  0  0  0  0
    1.5478   -2.8959   -1.3747 H   0  0  0  0  0  0  0  0  0  0  0  0
    2.0210   -1.4752   -2.2809 H   0  0  0  0  0  0  0  0  0  0  0  0
   -2.6381   -1.4401    2.3520 H   0  0  0  0  0  0  0  0  0  0  0  0
  1  2  1  0
  2  3  2  0
  3  4  1  0
  4  5  1  0
  4  6  1  0
  6  7  2  0
  6  8  1  0
  8  9  2  0
  9 10  1  0
 10 11  1  0
 11 12  2  0
 11 13  2  0
 11 14  1  0
 14 15  1  0
 15 16  1  0
 16 17  1  0
 17 18  1  0
 18 19  2  0
 19 20  1  0
 20 21  2  0
 21 22  1  0
 22 23  2  0
 23 24  1  0
 17 25  1  0
 25 26  1  0
 10 27  2  0
 27 28  1  0
 28  2  1  0
 28  8  1  0
 26 14  1  0
 23 18  1  0
  1 29  1  0
  1 30  1  0
  1 31  1  0
  5 32  1  0
  5 33  1  0
  5 34  1  0
  9 35  1  0
 15 36  1  0
 15 37  1  0
 16 38  1  0
 16 39  1  0
 19 40  1  0
 20 41  1  0
 21 42  1  0
 22 43  1  0
 25 44  1  0
 25 45  1  0
 26 46  1  0
 26 47  1  0
 27 48  1  0
M  END
$$$$
