
     RDKit          3D

 59 62  0  0  0  0  0  0  0  0999 V2000
    7.9997    0.8114    1.5681 C   0  0  0  0  0  0  0  0  0  0  0  0
    7.1283   -0.2335    1.1630 O   0  0  0  0  0  0  0  0  0  0  0  0
    5.8071    0.0824    0.9575 C   0  0  0  0  0  0  0  0  0  0  0  0
    5.2658    1.3609    1.1264 C   0  0  0  0  0  0  0  0  0  0  0  0
    3.9042    1.5885    0.9045 C   0  0  0  0  0  0  0  0  0  0  0  0
    3.0636    0.5428    0.5123 C   0  0  0  0  0  0  0  0  0  0  0  0
    1.6453    0.7870    0.3036 C   0  0  0  0  0  0  0  0  0  0  0  0
    0.6966    1.4632    1.1151 C   0  0  0  0  0  0  0  0  0  0  0  0
    0.8991    2.0838    2.4481 C   0  0  0  0  0  0  0  0  0  0  0  0
   -0.5159    1.4984    0.5556 N   0  0  0  0  0  0  0  0  0  0  0  0
   -0.3726    0.8323   -0.6266 N   0  0  0  0  0  0  0  0  0  0  0  0
   -1.3844    0.5937   -1.5961 C   0  0  0  0  0  0  0  0  0  0  0  0
   -2.6564    1.1148   -1.3288 N   0  0  0  0  0  0  0  0  0  0  0  0
   -3.9242    0.4987   -1.7094 C   0  0  0  0  0  0  0  0  0  0  0  0
   -4.3850   -0.5257   -0.6480 C   0  0  0  0  0  0  0  0  0  0  0  0
   -4.3811   -0.0294    0.7463 N   0  0  0  0  0  0  0  0  0  0  0  0
   -5.3670    1.0388    0.9871 C   0  0  0  0  0  0  0  0  0  0  0  0
   -6.8137    0.5427    1.1709 C   0  0  0  0  0  0  0  0  0  0  0  0
   -6.9533   -0.6109    2.0126 O   0  0  0  0  0  0  0  0  0  0  0  0
   -5.7388   -0.9361    2.6948 C   0  0  0  0  0  0  0  0  0  0  0  0
   -4.5965   -1.1563    1.6909 C   0  0  0  0  0  0  0  0  0  0  0  0
   -1.0457   -0.0956   -2.7006 C   0  0  0  0  0  0  0  0  0  0  0  0
    0.3712   -0.5573   -2.8056 C   0  0  0  0  0  0  0  0  0  0  0  0
    0.7529   -1.3302   -4.0430 C   0  0  0  0  0  0  0  0  0  0  0  0
    1.2983   -0.3456   -1.9181 N   0  0  0  0  0  0  0  0  0  0  0  0
    0.9327    0.3653   -0.8052 C   0  0  0  0  0  0  0  0  0  0  0  0
    3.6073   -0.7359    0.3302 C   0  0  0  0  0  0  0  0  0  0  0  0
    4.9723   -0.9730    0.5403 C   0  0  0  0  0  0  0  0  0  0  0  0
    5.5827   -2.1919    0.3668 O   0  0  0  0  0  0  0  0  0  0  0  0
    4.8033   -3.2394   -0.1938 C   0  0  0  0  0  0  0  0  0  0  0  0
    8.0859    1.5707    0.7806 H   0  0  0  0  0  0  0  0  0  0  0  0
    8.9904    0.3753    1.7242 H   0  0  0  0  0  0  0  0  0  0  0  0
    7.6820    1.2584    2.5164 H   0  0  0  0  0  0  0  0  0  0  0  0
    5.8796    2.2086    1.4177 H   0  0  0  0  0  0  0  0  0  0  0  0
    3.5148    2.5968    1.0237 H   0  0  0  0  0  0  0  0  0  0  0  0
    1.3439    3.0770    2.3418 H   0  0  0  0  0  0  0  0  0  0  0  0
    1.5601    1.4699    3.0697 H   0  0  0  0  0  0  0  0  0  0  0  0
   -0.0491    2.1916    2.9834 H   0  0  0  0  0  0  0  0  0  0  0  0
   -2.6881    1.4204   -0.3432 H   0  0  0  0  0  0  0  0  0  0  0  0
   -3.8554    0.0108   -2.6870 H   0  0  0  0  0  0  0  0  0  0  0  0
   -4.6723    1.2912   -1.8184 H   0  0  0  0  0  0  0  0  0  0  0  0
   -3.6881   -1.3727   -0.7107 H   0  0  0  0  0  0  0  0  0  0  0  0
   -5.3756   -0.9069   -0.9250 H   0  0  0  0  0  0  0  0  0  0  0  0
   -5.0584    1.5588    1.9025 H   0  0  0  0  0  0  0  0  0  0  0  0
   -5.3373    1.8107    0.2124 H   0  0  0  0  0  0  0  0  0  0  0  0
   -7.2552    0.2908    0.1991 H   0  0  0  0  0  0  0  0  0  0  0  0
   -7.4245    1.3429    1.6044 H   0  0  0  0  0  0  0  0  0  0  0  0
   -5.5046   -0.1478    3.4210 H   0  0  0  0  0  0  0  0  0  0  0  0
   -5.9137   -1.8558    3.2620 H   0  0  0  0  0  0  0  0  0  0  0  0
   -3.6640   -1.3336    2.2457 H   0  0  0  0  0  0  0  0  0  0  0  0
   -4.8172   -2.0835    1.1402 H   0  0  0  0  0  0  0  0  0  0  0  0
   -1.7317   -0.3095   -3.5058 H   0  0  0  0  0  0  0  0  0  0  0  0
    1.1557   -2.3041   -3.7478 H   0  0  0  0  0  0  0  0  0  0  0  0
    1.5235   -0.7772   -4.5883 H   0  0  0  0  0  0  0  0  0  0  0  0
   -0.1050   -1.4853   -4.7041 H   0  0  0  0  0  0  0  0  0  0  0  0
    2.9442   -1.5357    0.0163 H   0  0  0  0  0  0  0  0  0  0  0  0
    4.3761   -2.9525   -1.1616 H   0  0  0  0  0  0  0  0  0  0  0  0
    5.4667   -4.0904   -0.3697 H   0  0  0  0  0  0  0  0  0  0  0  0
    4.0216   -3.5629    0.5022 H   0  0  0  0  0  0  0  0  0  0  0  0
  1  2  1  0
  2  3  1  0
  3  4  2  0
  4  5  1  0
  5  6  2  0
  6  7  1  0
  7  8  1  0
  8  9  1  0
  8 10  2  0
 10 11  1  0
 11 12  1  0
 12 13  1  0
 13 14  1  0
 14 15  1  0
 15 16  1  0
 16 17  1  0
 17 18  1  0
 18 19  1  0
 19 20  1  0
 20 21  1  0
 12 22  2  0
 22 23  1  0
 23 24  1  0
 23 25  2  0
 25 26  1  0
  6 27  1  0
 27 28  2  0
 28 29  1  0
 29 30  1  0
 28  3  1  0
 26  7  2  0
 26 11  1  0
 21 16  1  0
  1 31  1  0
  1 32  1  0
  1 33  1  0
  4 34  1  0
  5 35  1  0
  9 36  1  0
  9 37  1  0
  9 38  1  0
 13 39  1  0
 14 40  1  0
 14 41  1  0
 15 42  1  0
 15 43  1  0
 17 44  1  0
 17 45  1  0
 18 46  1  0
 18 47  1  0
 20 48  1  0
 20 49  1  0
 21 50  1  0
 21 51  1  0
 22 52  1  0
 24 53  1  0
 24 54  1  0
 24 55  1  0
 27 56  1  0
 30 57  1  0
 30 58  1  0
 30 59  1  0
M  END
$$$$
