
     RDKit          3D

 45 48  0  0  0  0  0  0  0  0999 V2000
   -4.9805    2.3031    0.0796 O   0  0  0  0  0  0  0  0  0  0  0  0
   -5.2997    1.1283    0.1793 C   0  0  0  0  0  0  0  0  0  0  0  0
   -6.6564    0.6895    0.6796 C   0  0  0  0  0  0  0  0  0  0  0  0
   -6.7328   -0.7604    0.2466 C   0  0  0  0  0  0  0  0  0  0  0  0
   -5.2885   -1.2122    0.2847 C   0  0  0  0  0  0  0  0  0  0  0  0
   -4.5358   -0.0269   -0.0556 N   0  0  0  0  0  0  0  0  0  0  0  0
   -3.1700   -0.0697   -0.4491 C   0  0  0  0  0  0  0  0  0  0  0  0
   -2.4551   -1.2809   -0.4208 C   0  0  0  0  0  0  0  0  0  0  0  0
   -1.1100   -1.3437   -0.8044 C   0  0  0  0  0  0  0  0  0  0  0  0
   -0.4625   -0.1848   -1.2258 C   0  0  0  0  0  0  0  0  0  0  0  0
    1.2456   -0.2355   -1.7128 S   0  0  0  0  0  6  0  0  0  0  0  0
    1.3173    0.3693   -3.0259 O   0  0  0  0  0  0  0  0  0  0  0  0
    1.7363   -1.5762   -1.4782 O   0  0  0  0  0  0  0  0  0  0  0  0
    1.9818    0.8083   -0.5981 N   0  0  0  0  0  0  0  0  0  0  0  0
    1.9104    0.4722    0.8450 C   0  0  0  0  0  0  0  0  0  0  0  0
    2.9361   -0.5832    1.2522 C   0  0  0  0  0  0  0  0  0  0  0  0
    4.3185   -0.2631    0.7473 C   0  0  0  0  0  0  0  0  0  0  0  0
    5.4333   -0.8833    1.3290 C   0  0  0  0  0  0  0  0  0  0  0  0
    6.7172   -0.6187    0.8543 C   0  0  0  0  0  0  0  0  0  0  0  0
    6.8979    0.2606   -0.2096 C   0  0  0  0  0  0  0  0  0  0  0  0
    5.7939    0.8726   -0.8031 C   0  0  0  0  0  0  0  0  0  0  0  0
    4.4949    0.6102   -0.3396 C   0  0  0  0  0  0  0  0  0  0  0  0
    3.3227    1.3065   -0.9928 C   0  0  0  0  0  0  0  0  0  0  0  0
   -1.1485    1.0269   -1.2758 C   0  0  0  0  0  0  0  0  0  0  0  0
   -2.4918    1.0784   -0.8852 C   0  0  0  0  0  0  0  0  0  0  0  0
   -7.4523    1.2879    0.2294 H   0  0  0  0  0  0  0  0  0  0  0  0
   -6.6795    0.7882    1.7693 H   0  0  0  0  0  0  0  0  0  0  0  0
   -7.1144   -0.8173   -0.7806 H   0  0  0  0  0  0  0  0  0  0  0  0
   -7.3855   -1.3648    0.8825 H   0  0  0  0  0  0  0  0  0  0  0  0
   -5.1233   -2.0200   -0.4347 H   0  0  0  0  0  0  0  0  0  0  0  0
   -4.9996   -1.5352    1.2912 H   0  0  0  0  0  0  0  0  0  0  0  0
   -2.9190   -2.2051   -0.0887 H   0  0  0  0  0  0  0  0  0  0  0  0
   -0.5845   -2.2957   -0.7716 H   0  0  0  0  0  0  0  0  0  0  0  0
    0.9033    0.1468    1.1227 H   0  0  0  0  0  0  0  0  0  0  0  0
    2.0865    1.3985    1.4084 H   0  0  0  0  0  0  0  0  0  0  0  0
    2.6466   -1.5694    0.8748 H   0  0  0  0  0  0  0  0  0  0  0  0
    2.9493   -0.6476    2.3471 H   0  0  0  0  0  0  0  0  0  0  0  0
    5.3053   -1.5805    2.1541 H   0  0  0  0  0  0  0  0  0  0  0  0
    7.5760   -1.1032    1.3112 H   0  0  0  0  0  0  0  0  0  0  0  0
    7.8984    0.4656   -0.5814 H   0  0  0  0  0  0  0  0  0  0  0  0
    5.9518    1.5536   -1.6370 H   0  0  0  0  0  0  0  0  0  0  0  0
    3.3619    2.3687   -0.7178 H   0  0  0  0  0  0  0  0  0  0  0  0
    3.4457    1.2690   -2.0808 H   0  0  0  0  0  0  0  0  0  0  0  0
   -0.6508    1.9316   -1.6186 H   0  0  0  0  0  0  0  0  0  0  0  0
   -2.9900    2.0414   -0.9528 H   0  0  0  0  0  0  0  0  0  0  0  0
  1  2  2  0
  2  3  1  0
  3  4  1  0
  4  5  1  0
  5  6  1  0
  6  7  1  0
  7  8  2  0
  8  9  1  0
  9 10  2  0
 10 11  1  0
 11 12  2  0
 11 13  2  0
 11 14  1  0
 14 15  1  0
 15 16  1  0
 16 17  1  0
 17 18  2  0
 18 19  1  0
 19 20  2  0
 20 21  1  0
 21 22  2  0
 22 23  1  0
 10 24  1  0
 24 25  2  0
  6  2  1  0
 25  7  1  0
 23 14  1  0
 22 17  1  0
  3 26  1  0
  3 27  1  0
  4 28  1  0
  4 29  1  0
  5 30  1  0
  5 31  1  0
  8 32  1  0
  9 33  1  0
 15 34  1  0
 15 35  1  0
 16 36  1  0
 16 37  1  0
 18 38  1  0
 19 39  1  0
 20 40  1  0
 21 41  1  0
 23 42  1  0
 23 43  1  0
 24 44  1  0
 25 45  1  0
M  END
$$$$
