
     RDKit          3D

 47 49  0  0  0  0  0  0  0  0999 V2000
   -0.3041    1.7125    2.5333 C   0  0  0  0  0  0  0  0  0  0  0  0
   -1.5916    1.4818    1.8473 C   0  0  0  0  0  0  0  0  0  0  0  0
   -2.6408    2.2001    2.3291 O   0  0  0  0  0  0  0  0  0  0  0  0
   -3.7678    1.9439    1.5793 N   0  0  0  0  0  0  0  0  0  0  0  0
   -3.3897    1.0703    0.6350 C   0  0  0  0  0  0  0  0  0  0  0  0
   -4.3458    0.5827   -0.3492 C   0  0  0  0  0  0  0  0  0  0  0  0
   -4.6399    1.3345   -1.4992 C   0  0  0  0  0  0  0  0  0  0  0  0
   -3.8982    2.8670   -1.8220 Cl  0  0  0  0  0  0  0  0  0  0  0  0
   -5.5523    0.8570   -2.4483 C   0  0  0  0  0  0  0  0  0  0  0  0
   -6.1786   -0.3738   -2.2643 C   0  0  0  0  0  0  0  0  0  0  0  0
   -5.8928   -1.1309   -1.1304 C   0  0  0  0  0  0  0  0  0  0  0  0
   -4.9818   -0.6586   -0.1778 C   0  0  0  0  0  0  0  0  0  0  0  0
   -4.6879   -1.6676    1.2001 Cl  0  0  0  0  0  0  0  0  0  0  0  0
   -2.0138    0.7148    0.7785 C   0  0  0  0  0  0  0  0  0  0  0  0
   -1.2619   -0.2035   -0.0522 C   0  0  0  0  0  0  0  0  0  0  0  0
   -1.6052   -0.4746   -1.1996 O   0  0  0  0  0  0  0  0  0  0  0  0
   -0.1678   -0.7896    0.5337 N   0  0  0  0  0  0  0  0  0  0  0  0
    0.7210   -1.7131   -0.2242 C   0  0  0  0  0  0  0  0  0  0  0  0
    1.9576   -2.2073    0.5519 C   0  0  0  0  0  0  0  0  0  0  0  0
    2.1228   -2.5929    1.6863 O   0  0  0  0  0  0  0  0  0  0  0  0
    2.7891   -1.8653   -0.4762 N   0  0  0  0  0  0  0  0  0  0  0  0
    1.7631   -1.0893   -1.1816 C   0  0  0  0  0  0  0  0  0  0  0  0
    2.2065    0.6796   -0.9134 S   0  0  0  0  0  0  0  0  0  0  0  0
    3.7615    0.2915    0.0634 C   0  0  0  0  0  0  0  0  0  0  0  0
    3.4407    0.6049    1.5317 C   0  0  0  0  0  0  0  0  0  0  0  0
    4.8605    1.2376   -0.4384 C   0  0  0  0  0  0  0  0  0  0  0  0
    4.0790   -1.1818   -0.2666 C   0  0  0  0  0  0  0  0  0  0  0  0
    5.1438   -1.9461    0.5660 C   0  0  0  0  0  0  0  0  0  0  0  0
    5.8202   -1.2486    1.3739 O   0  0  0  0  0  0  0  0  0  0  0  0
    5.2720   -3.1728    0.2791 O   0  0  0  0  0  1  0  0  0  0  0  0
    0.0000    0.0000    0.0000 Na  0  0  0  0  0 15  0  0  0  0  0  0
   -0.0690    0.8785    3.2009 H   0  0  0  0  0  0  0  0  0  0  0  0
   -0.3341    2.6268    3.1349 H   0  0  0  0  0  0  0  0  0  0  0  0
    0.5067    1.8221    1.8081 H   0  0  0  0  0  0  0  0  0  0  0  0
   -5.7716    1.4420   -3.3386 H   0  0  0  0  0  0  0  0  0  0  0  0
   -6.8820   -0.7446   -3.0057 H   0  0  0  0  0  0  0  0  0  0  0  0
   -6.3791   -2.0940   -0.9930 H   0  0  0  0  0  0  0  0  0  0  0  0
    0.0362   -0.6337    1.5125 H   0  0  0  0  0  0  0  0  0  0  0  0
    0.1519   -2.5467   -0.6550 H   0  0  0  0  0  0  0  0  0  0  0  0
    1.6586   -1.3757   -2.2322 H   0  0  0  0  0  0  0  0  0  0  0  0
    3.1251    1.6488    1.6537 H   0  0  0  0  0  0  0  0  0  0  0  0
    4.3151    0.4793    2.1763 H   0  0  0  0  0  0  0  0  0  0  0  0
    2.6440   -0.0225    1.9394 H   0  0  0  0  0  0  0  0  0  0  0  0
    5.0680    1.0939   -1.5051 H   0  0  0  0  0  0  0  0  0  0  0  0
    5.7996    1.0722    0.0999 H   0  0  0  0  0  0  0  0  0  0  0  0
    4.5875    2.2893   -0.2904 H   0  0  0  0  0  0  0  0  0  0  0  0
    4.5252   -1.1979   -1.2745 H   0  0  0  0  0  0  0  0  0  0  0  0
  1  2  1  0
  2  3  1  0
  3  4  1  0
  4  5  2  0
  5  6  1  0
  6  7  2  0
  7  8  1  0
  7  9  1  0
  9 10  2  0
 10 11  1  0
 11 12  2  0
 12 13  1  0
  5 14  1  0
 14 15  1  0
 15 16  2  0
 15 17  1  0
 17 18  1  0
 18 19  1  0
 19 20  2  0
 19 21  1  0
 21 22  1  0
 22 23  1  0
 23 24  1  0
 24 25  1  0
 24 26  1  0
 24 27  1  0
 27 28  1  0
 28 29  2  0
 28 30  1  0
 14  2  2  0
 22 18  1  0
 12  6  1  0
 27 21  1  0
  1 32  1  0
  1 33  1  0
  1 34  1  0
  9 35  1  0
 10 36  1  0
 11 37  1  0
 17 38  1  0
 18 39  1  0
 22 40  1  0
 25 41  1  0
 25 42  1  0
 25 43  1  0
 26 44  1  0
 26 45  1  0
 26 46  1  0
 27 47  1  0
M  CHG  2  30  -1  31   1
M  END
$$$$
