
     RDKit          3D

 51 54  0  0  0  0  0  0  0  0999 V2000
    4.4782    1.0567   -2.6845 O   0  0  0  0  0  0  0  0  0  0  0  0
    3.6990    0.2494   -2.1867 C   0  0  0  0  0  0  0  0  0  0  0  0
    4.1274   -0.9393   -1.6263 N   0  0  0  0  0  0  0  0  0  0  0  0
    5.5321   -1.2335   -1.4612 C   0  0  0  0  0  0  0  0  0  0  0  0
    5.9472   -1.0245   -0.0276 C   0  0  0  0  0  0  0  0  0  0  0  0
    6.0488   -2.1082    0.8569 C   0  0  0  0  0  0  0  0  0  0  0  0
    6.4131   -1.9021    2.1888 C   0  0  0  0  0  0  0  0  0  0  0  0
    6.6724   -0.6123    2.6503 C   0  0  0  0  0  0  0  0  0  0  0  0
    6.5654    0.4729    1.7827 C   0  0  0  0  0  0  0  0  0  0  0  0
    6.2030    0.2692    0.4507 C   0  0  0  0  0  0  0  0  0  0  0  0
    2.2562    0.4804   -2.1347 C   0  0  0  0  0  0  0  0  0  0  0  0
    1.2520   -0.3104   -1.6030 C   0  0  0  0  0  0  0  0  0  0  0  0
    0.1108    0.3996   -1.8328 N   0  0  0  0  0  0  0  0  0  0  0  0
   -1.2448    0.0533   -1.4623 C   0  0  0  0  0  0  0  0  0  0  0  0
   -1.9661    1.1516   -0.6616 C   0  0  2  0  0  0  0  0  0  0  0  0
   -1.1619    1.6030    0.5674 C   0  0  0  0  0  0  0  0  0  0  0  0
   -2.2144    2.2447    1.4451 C   0  0  0  0  0  0  0  0  0  0  0  0
   -1.8336    2.2594    2.7365 F   0  0  0  0  0  0  0  0  0  0  0  0
   -2.4308    3.5214    1.0585 F   0  0  0  0  0  0  0  0  0  0  0  0
   -3.4598    1.3972    1.2229 C   0  0  0  0  0  0  0  0  0  0  0  0
   -3.2596    0.7501   -0.0786 N   0  0  0  0  0  0  0  0  0  0  0  0
   -4.2526    0.1194   -0.8085 C   0  0  0  0  0  0  0  0  0  0  0  0
   -4.1110   -0.2982   -1.9508 O   0  0  0  0  0  0  0  0  0  0  0  0
   -5.5755   -0.1612   -0.1114 C   0  0  0  0  0  0  0  0  0  0  0  0
   -5.9115   -1.5905    0.0594 C   0  0  0  0  0  0  0  0  0  0  0  0
   -7.0646   -1.8678    0.6730 C   0  0  0  0  0  0  0  0  0  0  0  0
   -7.9376   -0.7743    1.1478 C   0  0  0  0  0  0  0  0  0  0  0  0
   -8.9907   -1.0197    1.7230 O   0  0  0  0  0  0  0  0  0  0  0  0
   -7.4886    0.5001    0.9045 N   0  0  0  0  0  0  0  0  0  0  0  0
   -6.3160    0.8316    0.2780 N   0  0  0  0  0  0  0  0  0  0  0  0
    0.3661    1.5485   -2.4706 N   0  0  0  0  0  0  0  0  0  0  0  0
    1.6770    1.6172   -2.6544 N   0  0  0  0  0  0  0  0  0  0  0  0
    3.4761   -1.5056   -1.1071 H   0  0  0  0  0  0  0  0  0  0  0  0
    5.6787   -2.2797   -1.7522 H   0  0  0  0  0  0  0  0  0  0  0  0
    6.1497   -0.6217   -2.1280 H   0  0  0  0  0  0  0  0  0  0  0  0
    5.8538   -3.1208    0.5125 H   0  0  0  0  0  0  0  0  0  0  0  0
    6.4991   -2.7475    2.8664 H   0  0  0  0  0  0  0  0  0  0  0  0
    6.9591   -0.4516    3.6864 H   0  0  0  0  0  0  0  0  0  0  0  0
    6.7667    1.4796    2.1406 H   0  0  0  0  0  0  0  0  0  0  0  0
    6.1200    1.1258   -0.2174 H   0  0  0  0  0  0  0  0  0  0  0  0
    1.2477   -1.2689   -1.1081 H   0  0  0  0  0  0  0  0  0  0  0  0
   -1.2064   -0.8786   -0.8855 H   0  0  0  0  0  0  0  0  0  0  0  0
   -1.7619   -0.1628   -2.4025 H   0  0  0  0  0  0  0  0  0  0  0  0
   -2.1699    2.0146   -1.3097 H   0  0  0  0  0  0  0  0  0  0  0  0
   -0.7149    0.7470    1.0877 H   0  0  0  0  0  0  0  0  0  0  0  0
   -0.3647    2.3049    0.3055 H   0  0  0  0  0  0  0  0  0  0  0  0
   -3.5703    0.6136    1.9789 H   0  0  0  0  0  0  0  0  0  0  0  0
   -4.3520    2.0264    1.2040 H   0  0  0  0  0  0  0  0  0  0  0  0
   -5.2448   -2.3492   -0.3275 H   0  0  0  0  0  0  0  0  0  0  0  0
   -7.4158   -2.8782    0.8382 H   0  0  0  0  0  0  0  0  0  0  0  0
   -8.0798    1.2692    1.2065 H   0  0  0  0  0  0  0  0  0  0  0  0
  1  2  2  0
  2  3  1  0
  3  4  1  0
  4  5  1  0
  5  6  2  0
  6  7  1  0
  7  8  2  0
  8  9  1  0
  9 10  2  0
  2 11  1  0
 11 12  2  0
 12 13  1  0
 13 14  1  0
 14 15  1  0
 15 16  1  0
 16 17  1  0
 17 18  1  0
 17 19  1  0
 17 20  1  0
 20 21  1  0
 21 22  1  0
 22 23  2  0
 22 24  1  0
 24 25  1  0
 25 26  2  0
 26 27  1  0
 27 28  2  0
 27 29  1  0
 29 30  1  0
 13 31  1  0
 31 32  2  0
 10  5  1  0
 32 11  1  0
 21 15  1  0
 30 24  2  0
  3 33  1  0
  4 34  1  0
  4 35  1  0
  6 36  1  0
  7 37  1  0
  8 38  1  0
  9 39  1  0
 10 40  1  0
 12 41  1  0
 14 42  1  0
 14 43  1  0
 15 44  1  6
 16 45  1  0
 16 46  1  0
 20 47  1  0
 20 48  1  0
 25 49  1  0
 26 50  1  0
 29 51  1  0
M  END
$$$$
