
     RDKit          3D

 71 74  0  0  0  0  0  0  0  0999 V2000
    2.4347    2.6035    2.9303 C   0  0  0  0  0  0  0  0  0  0  0  0
    2.3171    2.0120    1.6414 O   0  0  0  0  0  0  0  0  0  0  0  0
    3.4801    1.8225    0.9262 C   0  0  0  0  0  0  0  0  0  0  0  0
    4.7472    2.2532    1.3336 C   0  0  0  0  0  0  0  0  0  0  0  0
    5.8689    1.9865    0.5354 C   0  0  0  0  0  0  0  0  0  0  0  0
    7.2332    2.4093    0.9300 C   0  0  0  0  0  0  0  0  0  0  0  0
    8.2306    2.3264    0.2359 O   0  0  0  0  0  0  0  0  0  0  0  0
    7.2875    2.9003    2.1823 O   0  0  0  0  0  0  0  0  0  0  0  0
    5.7173    1.2937   -0.6698 C   0  0  0  0  0  0  0  0  0  0  0  0
    4.4554    0.8518   -1.0749 C   0  0  0  0  0  0  0  0  0  0  0  0
    3.3337    1.1123   -0.2862 C   0  0  0  0  0  0  0  0  0  0  0  0
    2.0344    0.6823   -0.6173 N   0  0  0  0  0  0  0  0  0  0  0  0
    1.6488   -0.2066   -1.6010 C   0  0  0  0  0  0  0  0  0  0  0  0
    2.3742   -0.6848   -2.4689 O   0  0  0  0  0  0  0  0  0  0  0  0
    0.1686   -0.6195   -1.5028 C   0  0  2  0  0  0  0  0  0  0  0  0
   -0.6957    0.5887   -1.4671 N   0  0  0  0  0  0  0  0  0  0  0  0
   -1.9587    0.2184   -0.7863 C   0  0  1  0  0  0  0  0  0  0  0  0
   -3.2010    0.3597   -1.7023 C   0  0  0  0  0  0  0  0  0  0  0  0
   -3.7559    1.7904   -1.9755 C   0  0  0  0  0  0  0  0  0  0  0  0
   -4.3111    2.4122   -0.6834 C   0  0  0  0  0  0  0  0  0  0  0  0
   -4.9209    1.6537   -2.9801 C   0  0  0  0  0  0  0  0  0  0  0  0
   -2.7172    2.7404   -2.5844 C   0  0  0  0  0  0  0  0  0  0  0  0
   -1.7349   -1.2094   -0.1352 C   0  0  2  0  0  0  0  0  0  0  0  0
   -2.3410   -2.2560   -1.0075 C   0  0  0  0  0  0  0  0  0  0  0  0
   -2.8549   -3.0656   -1.6628 N   0  0  0  0  0  0  0  0  0  0  0  0
   -2.2894   -1.2554    1.3084 C   0  0  0  0  0  0  0  0  0  0  0  0
   -3.2858   -2.1703    1.7076 C   0  0  0  0  0  0  0  0  0  0  0  0
   -3.7606   -2.1986    3.0257 C   0  0  0  0  0  0  0  0  0  0  0  0
   -3.2544   -1.3144    3.9704 C   0  0  0  0  0  0  0  0  0  0  0  0
   -3.8322   -1.3616    5.5876 Cl  0  0  0  0  0  0  0  0  0  0  0  0
   -2.2838   -0.3904    3.6075 C   0  0  0  0  0  0  0  0  0  0  0  0
   -1.8193   -0.3680    2.2952 C   0  0  0  0  0  0  0  0  0  0  0  0
   -0.8873    0.5452    1.9937 F   0  0  0  0  0  0  0  0  0  0  0  0
   -0.1766   -1.3432   -0.1893 C   0  0  1  0  0  0  0  0  0  0  0  0
    0.4222   -2.7209    0.0464 C   0  0  0  0  0  0  0  0  0  0  0  0
    0.7804   -3.0843    1.3593 C   0  0  0  0  0  0  0  0  0  0  0  0
    1.3762   -4.3185    1.6317 C   0  0  0  0  0  0  0  0  0  0  0  0
    1.6272   -5.2171    0.5946 C   0  0  0  0  0  0  0  0  0  0  0  0
    1.2583   -4.8877   -0.7075 C   0  0  0  0  0  0  0  0  0  0  0  0
    1.5662   -6.0155   -1.9754 Cl  0  0  0  0  0  0  0  0  0  0  0  0
    0.6661   -3.6500   -0.9766 C   0  0  0  0  0  0  0  0  0  0  0  0
    0.2976   -3.3627   -2.2307 F   0  0  0  0  0  0  0  0  0  0  0  0
    2.8051    3.6312    2.8614 H   0  0  0  0  0  0  0  0  0  0  0  0
    1.4343    2.6407    3.3713 H   0  0  0  0  0  0  0  0  0  0  0  0
    3.0630    1.9948    3.5868 H   0  0  0  0  0  0  0  0  0  0  0  0
    4.8866    2.7963    2.2625 H   0  0  0  0  0  0  0  0  0  0  0  0
    8.2385    3.0910    2.3147 H   0  0  0  0  0  0  0  0  0  0  0  0
    6.5791    1.0843   -1.2996 H   0  0  0  0  0  0  0  0  0  0  0  0
    4.3811    0.3177   -2.0168 H   0  0  0  0  0  0  0  0  0  0  0  0
    1.3022    1.0410   -0.0050 H   0  0  0  0  0  0  0  0  0  0  0  0
   -0.0885   -1.1953   -2.3984 H   0  0  0  0  0  0  0  0  0  0  0  0
   -0.8524    0.9076   -2.4252 H   0  0  0  0  0  0  0  0  0  0  0  0
   -2.0693    0.9564    0.0123 H   0  0  0  0  0  0  0  0  0  0  0  0
   -4.0243   -0.2181   -1.2608 H   0  0  0  0  0  0  0  0  0  0  0  0
   -2.9798   -0.1180   -2.6684 H   0  0  0  0  0  0  0  0  0  0  0  0
   -4.8190    3.3620   -0.8912 H   0  0  0  0  0  0  0  0  0  0  0  0
   -3.5244    2.6230    0.0449 H   0  0  0  0  0  0  0  0  0  0  0  0
   -5.0385    1.7507   -0.2027 H   0  0  0  0  0  0  0  0  0  0  0  0
   -4.5791    1.2157   -3.9239 H   0  0  0  0  0  0  0  0  0  0  0  0
   -5.3666    2.6288   -3.2088 H   0  0  0  0  0  0  0  0  0  0  0  0
   -5.7180    1.0154   -2.5787 H   0  0  0  0  0  0  0  0  0  0  0  0
   -3.1712    3.7034   -2.8503 H   0  0  0  0  0  0  0  0  0  0  0  0
   -1.9002    2.9565   -1.8879 H   0  0  0  0  0  0  0  0  0  0  0  0
   -2.2933    2.3180   -3.5044 H   0  0  0  0  0  0  0  0  0  0  0  0
   -3.7204   -2.8890    1.0148 H   0  0  0  0  0  0  0  0  0  0  0  0
   -4.5288   -2.9171    3.3033 H   0  0  0  0  0  0  0  0  0  0  0  0
   -1.8822    0.3151    4.3259 H   0  0  0  0  0  0  0  0  0  0  0  0
    0.2556   -0.7289    0.6102 H   0  0  0  0  0  0  0  0  0  0  0  0
    0.6137   -2.3981    2.1890 H   0  0  0  0  0  0  0  0  0  0  0  0
    1.6553   -4.5740    2.6530 H   0  0  0  0  0  0  0  0  0  0  0  0
    2.0963   -6.1736    0.8095 H   0  0  0  0  0  0  0  0  0  0  0  0
  1  2  1  0
  2  3  1  0
  3  4  2  0
  4  5  1  0
  5  6  1  0
  6  7  2  0
  6  8  1  0
  5  9  2  0
  9 10  1  0
 10 11  2  0
 11 12  1  0
 12 13  1  0
 13 14  2  0
 13 15  1  0
 15 16  1  0
 16 17  1  0
 17 18  1  0
 18 19  1  0
 19 20  1  0
 19 21  1  0
 19 22  1  0
 17 23  1  0
 23 24  1  6
 24 25  3  0
 23 26  1  0
 26 27  2  0
 27 28  1  0
 28 29  2  0
 29 30  1  0
 29 31  1  0
 31 32  2  0
 32 33  1  0
 23 34  1  0
 34 35  1  0
 35 36  2  0
 36 37  1  0
 37 38  2  0
 38 39  1  0
 39 40  1  0
 39 41  2  0
 41 42  1  0
 11  3  1  0
 34 15  1  0
 41 35  1  0
 32 26  1  0
  1 43  1  0
  1 44  1  0
  1 45  1  0
  4 46  1  0
  8 47  1  0
  9 48  1  0
 10 49  1  0
 12 50  1  0
 15 51  1  6
 16 52  1  0
 17 53  1  1
 18 54  1  0
 18 55  1  0
 20 56  1  0
 20 57  1  0
 20 58  1  0
 21 59  1  0
 21 60  1  0
 21 61  1  0
 22 62  1  0
 22 63  1  0
 22 64  1  0
 27 65  1  0
 28 66  1  0
 31 67  1  0
 34 68  1  1
 36 69  1  0
 37 70  1  0
 38 71  1  0
M  END
$$$$
