
     RDKit          3D

 54 56  0  0  0  0  0  0  0  0999 V2000
   -5.5539   -1.9771    0.9053 C   0  0  0  0  0  0  0  0  0  0  0  0
   -4.3908   -1.2779    0.4802 O   0  0  0  0  0  0  0  0  0  0  0  0
   -4.5588   -0.0127   -0.0139 C   0  0  0  0  0  0  0  0  0  0  0  0
   -5.7442    0.7239    0.0860 C   0  0  0  0  0  0  0  0  0  0  0  0
   -5.8271    2.0110   -0.4588 C   0  0  0  0  0  0  0  0  0  0  0  0
   -4.7289    2.5684   -1.1107 C   0  0  0  0  0  0  0  0  0  0  0  0
   -4.8458    4.1467   -1.7829 Cl  0  0  0  0  0  0  0  0  0  0  0  0
   -3.5405    1.8570   -1.2164 C   0  0  0  0  0  0  0  0  0  0  0  0
   -3.4526    0.5782   -0.6506 C   0  0  0  0  0  0  0  0  0  0  0  0
   -2.1713   -0.1398   -0.8181 C   0  0  0  0  0  0  0  0  0  0  0  0
   -1.7863   -0.3438   -1.9678 O   0  0  0  0  0  0  0  0  0  0  0  0
   -1.4392   -0.5069    0.3105 N   0  0  0  0  0  0  0  0  0  0  0  0
   -1.5950    0.1099    1.6279 C   0  0  0  0  0  0  0  0  0  0  0  0
   -0.5032    1.1614    1.8393 C   0  0  0  0  0  0  0  0  0  0  0  0
    0.9002    0.5799    1.6201 C   0  0  0  0  0  0  0  0  0  0  0  0
    0.9978   -0.1676    0.2742 C   0  0  0  0  0  0  0  0  0  0  0  0
    2.3695   -0.6715   -0.0010 N   0  0  0  0  0  0  0  0  0  0  0  0
    3.0059   -1.7349    0.6409 C   0  0  0  0  0  0  0  0  0  0  0  0
    2.2150   -2.6528    1.5331 C   0  0  0  0  0  0  0  0  0  0  0  0
    4.2050   -1.9803    0.4803 O   0  0  0  0  0  0  0  0  0  0  0  0
    3.1940    0.1740   -0.9050 C   0  0  0  0  0  0  0  0  0  0  0  0
    3.7333   -0.5893   -2.1207 C   0  0  0  0  0  0  0  0  0  0  0  0
    4.4884    0.3547   -3.0552 C   0  0  0  0  0  0  0  0  0  0  0  0
    5.0637    1.4820   -2.3903 O   0  0  0  0  0  0  0  0  0  0  0  0
    5.5093    1.1734   -1.0732 C   0  0  0  0  0  0  0  0  0  0  0  0
    4.3056    0.9432   -0.1695 C   0  0  0  0  0  0  0  0  0  0  0  0
   -0.1556   -1.1805    0.1104 C   0  0  0  0  0  0  0  0  0  0  0  0
   -6.3002   -2.0332    0.1058 H   0  0  0  0  0  0  0  0  0  0  0  0
   -5.9739   -1.5229    1.8084 H   0  0  0  0  0  0  0  0  0  0  0  0
   -5.2559   -2.9998    1.1554 H   0  0  0  0  0  0  0  0  0  0  0  0
   -6.6249    0.3274    0.5816 H   0  0  0  0  0  0  0  0  0  0  0  0
   -6.7564    2.5702   -0.3761 H   0  0  0  0  0  0  0  0  0  0  0  0
   -2.6855    2.2810   -1.7372 H   0  0  0  0  0  0  0  0  0  0  0  0
   -2.5728    0.5798    1.7468 H   0  0  0  0  0  0  0  0  0  0  0  0
   -1.5143   -0.6836    2.3798 H   0  0  0  0  0  0  0  0  0  0  0  0
   -0.5773    1.5779    2.8499 H   0  0  0  0  0  0  0  0  0  0  0  0
   -0.6571    1.9900    1.1365 H   0  0  0  0  0  0  0  0  0  0  0  0
    1.1423   -0.0809    2.4571 H   0  0  0  0  0  0  0  0  0  0  0  0
    1.6362    1.3924    1.6494 H   0  0  0  0  0  0  0  0  0  0  0  0
    0.7914    0.5898   -0.4944 H   0  0  0  0  0  0  0  0  0  0  0  0
    1.6075   -2.1121    2.2554 H   0  0  0  0  0  0  0  0  0  0  0  0
    1.6051   -3.3222    0.9221 H   0  0  0  0  0  0  0  0  0  0  0  0
    2.9117   -3.2714    2.1095 H   0  0  0  0  0  0  0  0  0  0  0  0
    2.5314    0.9396   -1.3300 H   0  0  0  0  0  0  0  0  0  0  0  0
    4.4225   -1.3822   -1.8111 H   0  0  0  0  0  0  0  0  0  0  0  0
    2.9261   -1.0928   -2.6656 H   0  0  0  0  0  0  0  0  0  0  0  0
    3.8065    0.7512   -3.8150 H   0  0  0  0  0  0  0  0  0  0  0  0
    5.2810   -0.1850   -3.5852 H   0  0  0  0  0  0  0  0  0  0  0  0
    6.0981    2.0187   -0.7026 H   0  0  0  0  0  0  0  0  0  0  0  0
    6.1716    0.2997   -1.0990 H   0  0  0  0  0  0  0  0  0  0  0  0
    3.8926    1.9133    0.1372 H   0  0  0  0  0  0  0  0  0  0  0  0
    4.6335    0.4602    0.7562 H   0  0  0  0  0  0  0  0  0  0  0  0
   -0.1083   -1.6532   -0.8766 H   0  0  0  0  0  0  0  0  0  0  0  0
   -0.1250   -1.9799    0.8519 H   0  0  0  0  0  0  0  0  0  0  0  0
  1  2  1  0
  2  3  1  0
  3  4  2  0
  4  5  1  0
  5  6  2  0
  6  7  1  0
  6  8  1  0
  8  9  2  0
  9 10  1  0
 10 11  2  0
 10 12  1  0
 12 13  1  0
 13 14  1  0
 14 15  1  0
 15 16  1  0
 16 17  1  0
 17 18  1  0
 18 19  1  0
 18 20  2  0
 17 21  1  0
 21 22  1  0
 22 23  1  0
 23 24  1  0
 24 25  1  0
 25 26  1  0
 16 27  1  0
  9  3  1  0
 27 12  1  0
 26 21  1  0
  1 28  1  0
  1 29  1  0
  1 30  1  0
  4 31  1  0
  5 32  1  0
  8 33  1  0
 13 34  1  0
 13 35  1  0
 14 36  1  0
 14 37  1  0
 15 38  1  0
 15 39  1  0
 16 40  1  0
 19 41  1  0
 19 42  1  0
 19 43  1  0
 21 44  1  0
 22 45  1  0
 22 46  1  0
 23 47  1  0
 23 48  1  0
 25 49  1  0
 25 50  1  0
 26 51  1  0
 26 52  1  0
 27 53  1  0
 27 54  1  0
M  END
$$$$
