
     RDKit          3D

 57 61  0  0  0  0  0  0  0  0999 V2000
   -7.5244   -0.9092    1.2357 C   0  0  0  0  0  0  0  0  0  0  0  0
   -7.2925   -1.7861    0.0862 N   0  0  0  0  0  0  0  0  0  0  0  0
   -5.9042   -2.3011    0.0889 C   0  0  0  0  0  0  0  0  0  0  0  0
   -4.8794   -1.5435   -0.8003 C   0  0  0  0  0  0  0  0  0  0  0  0
   -5.2001   -0.1148   -0.9346 N   0  0  0  0  0  0  0  0  0  0  0  0
   -4.1892    0.6293   -1.6960 C   0  0  0  0  0  0  0  0  0  0  0  0
   -2.8688    0.7627   -0.9671 C   0  0  0  0  0  0  0  0  0  0  0  0
   -1.6752    0.3415   -1.5658 C   0  0  0  0  0  0  0  0  0  0  0  0
   -0.4522    0.4767   -0.8973 C   0  0  0  0  0  0  0  0  0  0  0  0
   -0.4015    1.0383    0.3785 C   0  0  0  0  0  0  0  0  0  0  0  0
    0.7822    1.2074    1.1136 N   0  0  0  0  0  0  0  0  0  0  0  0
    2.0753    0.8750    0.7609 C   0  0  0  0  0  0  0  0  0  0  0  0
    2.4427    0.3547   -0.2893 O   0  0  0  0  0  0  0  0  0  0  0  0
    3.0380    1.2215    1.8233 C   0  0  0  0  0  0  0  0  0  0  0  0
    2.6439    1.7955    2.9835 N   0  0  0  0  0  0  0  0  0  0  0  0
    3.7946    1.9466    3.6673 N   0  0  0  0  0  0  0  0  0  0  0  0
    4.8955    1.4999    3.0033 C   0  0  0  0  0  0  0  0  0  0  0  0
    4.4484    1.0209    1.8003 C   0  0  0  0  0  0  0  0  0  0  0  0
    5.1529    0.4704    0.7857 N   0  0  0  0  0  0  0  0  0  0  0  0
    6.5284    0.2227    0.6421 C   0  0  0  0  0  0  0  0  0  0  0  0
    7.4203    0.5465    1.6169 N   0  0  0  0  0  0  0  0  0  0  0  0
    8.7275    0.2856    1.4240 C   0  0  0  0  0  0  0  0  0  0  0  0
    9.3134   -0.2771    0.3552 N   0  0  0  0  0  0  0  0  0  0  0  0
    8.4093   -0.5834   -0.5844 C   0  0  0  0  0  0  0  0  0  0  0  0
    8.7070   -1.1679   -1.7848 N   0  0  0  0  0  0  0  0  0  0  0  0
    7.5577   -1.3454   -2.5117 C   0  0  0  0  0  0  0  0  0  0  0  0
    6.5068   -0.8637   -1.7585 C   0  0  0  0  0  0  0  0  0  0  0  0
    7.0398   -0.3760   -0.5281 C   0  0  0  0  0  0  0  0  0  0  0  0
   -1.5915    1.4651    0.9777 C   0  0  0  0  0  0  0  0  0  0  0  0
   -2.8130    1.3314    0.3115 C   0  0  0  0  0  0  0  0  0  0  0  0
   -6.5388    0.0465   -1.5366 C   0  0  0  0  0  0  0  0  0  0  0  0
   -7.5519   -1.0736   -1.1764 C   0  0  0  0  0  0  0  0  0  0  0  0
   -8.5517   -0.5280    1.2245 H   0  0  0  0  0  0  0  0  0  0  0  0
   -6.8424   -0.0535    1.2766 H   0  0  0  0  0  0  0  0  0  0  0  0
   -7.4161   -1.4735    2.1689 H   0  0  0  0  0  0  0  0  0  0  0  0
   -5.9385   -3.3411   -0.2597 H   0  0  0  0  0  0  0  0  0  0  0  0
   -5.5209   -2.3524    1.1166 H   0  0  0  0  0  0  0  0  0  0  0  0
   -4.8529   -2.0130   -1.7932 H   0  0  0  0  0  0  0  0  0  0  0  0
   -3.8887   -1.6858   -0.3536 H   0  0  0  0  0  0  0  0  0  0  0  0
   -4.0370    0.1710   -2.6821 H   0  0  0  0  0  0  0  0  0  0  0  0
   -4.5440    1.6522   -1.8819 H   0  0  0  0  0  0  0  0  0  0  0  0
   -1.6830   -0.1001   -2.5598 H   0  0  0  0  0  0  0  0  0  0  0  0
    0.4432    0.1321   -1.4043 H   0  0  0  0  0  0  0  0  0  0  0  0
    0.7159    1.6289    2.0378 H   0  0  0  0  0  0  0  0  0  0  0  0
    3.7564    2.3658    4.5908 H   0  0  0  0  0  0  0  0  0  0  0  0
    5.8812    1.5625    3.4402 H   0  0  0  0  0  0  0  0  0  0  0  0
    4.6284    0.1705   -0.0364 H   0  0  0  0  0  0  0  0  0  0  0  0
    9.3901    0.5666    2.2369 H   0  0  0  0  0  0  0  0  0  0  0  0
    9.6424   -1.4211   -2.0685 H   0  0  0  0  0  0  0  0  0  0  0  0
    7.5868   -1.7959   -3.4950 H   0  0  0  0  0  0  0  0  0  0  0  0
    5.4673   -0.8634   -2.0615 H   0  0  0  0  0  0  0  0  0  0  0  0
   -1.5869    1.9056    1.9714 H   0  0  0  0  0  0  0  0  0  0  0  0
   -3.7287    1.6635    0.7967 H   0  0  0  0  0  0  0  0  0  0  0  0
   -6.4753    0.0921   -2.6319 H   0  0  0  0  0  0  0  0  0  0  0  0
   -6.9414    1.0078   -1.1954 H   0  0  0  0  0  0  0  0  0  0  0  0
   -8.5704   -0.6657   -1.1837 H   0  0  0  0  0  0  0  0  0  0  0  0
   -7.5350   -1.8215   -1.9810 H   0  0  0  0  0  0  0  0  0  0  0  0
  1  2  1  0
  2  3  1  0
  3  4  1  0
  4  5  1  0
  5  6  1  0
  6  7  1  0
  7  8  2  0
  8  9  1  0
  9 10  2  0
 10 11  1  0
 11 12  1  0
 12 13  2  0
 12 14  1  0
 14 15  2  0
 15 16  1  0
 16 17  1  0
 17 18  2  0
 18 19  1  0
 19 20  1  0
 20 21  2  0
 21 22  1  0
 22 23  2  0
 23 24  1  0
 24 25  1  0
 25 26  1  0
 26 27  2  0
 27 28  1  0
 10 29  1  0
 29 30  2  0
  5 31  1  0
 31 32  1  0
 32  2  1  0
 30  7  1  0
 18 14  1  0
 28 20  1  0
 28 24  2  0
  1 33  1  0
  1 34  1  0
  1 35  1  0
  3 36  1  0
  3 37  1  0
  4 38  1  0
  4 39  1  0
  6 40  1  0
  6 41  1  0
  8 42  1  0
  9 43  1  0
 11 44  1  0
 16 45  1  0
 17 46  1  0
 19 47  1  0
 22 48  1  0
 25 49  1  0
 26 50  1  0
 27 51  1  0
 29 52  1  0
 30 53  1  0
 31 54  1  0
 31 55  1  0
 32 56  1  0
 32 57  1  0
M  END
$$$$
