
     RDKit          3D

 63 65  0  0  0  0  0  0  0  0999 V2000
    3.3158    0.1265    2.7733 C   0  0  0  0  0  0  0  0  0  0  0  0
    4.0315   -0.1492    1.5668 O   0  0  0  0  0  0  0  0  0  0  0  0
    3.5142    0.4612    0.4739 C   0  0  0  0  0  0  0  0  0  0  0  0
    2.5305    1.1843    0.4652 O   0  0  0  0  0  0  0  0  0  0  0  0
    4.2798    0.1441   -0.6051 N   0  0  0  0  0  0  0  0  0  0  0  0
    4.0489    0.6825   -1.9422 C   0  0  1  0  0  0  0  0  0  0  0  0
    5.0714    1.7741   -2.2453 C   0  0  0  0  0  0  0  0  0  0  0  0
    4.1111   -0.4388   -3.0081 C   0  0  0  0  0  0  0  0  0  0  0  0
    3.2248   -1.5557   -2.6872 N   0  0  0  0  0  0  0  0  0  0  0  0
    1.8715   -1.2422   -2.7660 C   0  0  0  0  0  0  0  0  0  0  0  0
    1.4019   -0.5010   -3.7808 N   0  0  0  0  0  0  0  0  0  0  0  0
    0.0858   -0.2193   -3.7710 C   0  0  0  0  0  0  0  0  0  0  0  0
   -0.7671   -0.6240   -2.7760 C   0  0  0  0  0  0  0  0  0  0  0  0
   -0.1822   -1.3571   -1.7708 C   0  0  0  0  0  0  0  0  0  0  0  0
   -0.9513   -1.8306   -0.6432 C   0  0  0  0  0  0  0  0  0  0  0  0
   -1.2114   -3.1655   -0.4166 C   0  0  0  0  0  0  0  0  0  0  0  0
   -1.8628   -3.2253    0.7799 N   0  0  0  0  0  0  0  0  0  0  0  0
   -2.3224   -4.4354    1.4551 C   0  0  0  0  0  0  0  0  0  0  0  0
   -3.8350   -4.4127    1.6769 C   0  0  0  0  0  0  0  0  0  0  0  0
   -1.5675   -4.6632    2.7651 C   0  0  0  0  0  0  0  0  0  0  0  0
   -2.0368   -2.0209    1.3545 N   0  0  0  0  0  0  0  0  0  0  0  0
   -1.4816   -1.1532    0.4927 C   0  0  0  0  0  0  0  0  0  0  0  0
   -1.4249    0.2596    0.8302 C   0  0  0  0  0  0  0  0  0  0  0  0
   -0.7102    0.6665    1.9659 C   0  0  0  0  0  0  0  0  0  0  0  0
   -0.6592    2.0164    2.3136 C   0  0  0  0  0  0  0  0  0  0  0  0
    0.2268    2.5034    3.7068 Cl  0  0  0  0  0  0  0  0  0  0  0  0
   -1.3256    2.9746    1.5487 C   0  0  0  0  0  0  0  0  0  0  0  0
   -2.0502    2.5730    0.4260 C   0  0  0  0  0  0  0  0  0  0  0  0
   -2.7817    3.5306   -0.3615 N   0  0  0  0  0  0  0  0  0  0  0  0
   -4.1679    4.2012    0.3566 S   0  0  0  0  0  6  0  0  0  0  0  0
   -3.6955    5.9164    0.4101 C   0  0  0  0  0  0  0  0  0  0  0  0
   -4.3174    3.7214    1.7124 O   0  0  0  0  0  0  0  0  0  0  0  0
   -5.2215    4.0632   -0.6266 O   0  0  0  0  0  0  0  0  0  0  0  0
   -2.0996    1.2191    0.0728 C   0  0  0  0  0  0  0  0  0  0  0  0
   -2.8185    0.8644   -1.0067 F   0  0  0  0  0  0  0  0  0  0  0  0
    1.1229   -1.6953   -1.7579 N   0  0  0  0  0  0  0  0  0  0  0  0
    2.3078   -0.2953    2.7195 H   0  0  0  0  0  0  0  0  0  0  0  0
    3.8450   -0.3558    3.6008 H   0  0  0  0  0  0  0  0  0  0  0  0
    3.2780    1.2044    2.9670 H   0  0  0  0  0  0  0  0  0  0  0  0
    5.1038   -0.4084   -0.4097 H   0  0  0  0  0  0  0  0  0  0  0  0
    3.0531    1.1420   -1.9601 H   0  0  0  0  0  0  0  0  0  0  0  0
    4.9978    2.5879   -1.5148 H   0  0  0  0  0  0  0  0  0  0  0  0
    6.0942    1.3813   -2.2011 H   0  0  0  0  0  0  0  0  0  0  0  0
    4.9080    2.1966   -3.2427 H   0  0  0  0  0  0  0  0  0  0  0  0
    3.9099   -0.0408   -4.0114 H   0  0  0  0  0  0  0  0  0  0  0  0
    5.1301   -0.8435   -3.0405 H   0  0  0  0  0  0  0  0  0  0  0  0
    3.3412   -1.8938   -1.7340 H   0  0  0  0  0  0  0  0  0  0  0  0
   -0.2716    0.3621   -4.6171 H   0  0  0  0  0  0  0  0  0  0  0  0
   -1.8214   -0.3870   -2.7955 H   0  0  0  0  0  0  0  0  0  0  0  0
   -0.9649   -4.0519   -0.9855 H   0  0  0  0  0  0  0  0  0  0  0  0
   -2.0905   -5.2689    0.7787 H   0  0  0  0  0  0  0  0  0  0  0  0
   -4.1825   -5.3664    2.0908 H   0  0  0  0  0  0  0  0  0  0  0  0
   -4.3647   -4.2435    0.7313 H   0  0  0  0  0  0  0  0  0  0  0  0
   -4.1300   -3.6174    2.3717 H   0  0  0  0  0  0  0  0  0  0  0  0
   -1.7699   -3.8673    3.4910 H   0  0  0  0  0  0  0  0  0  0  0  0
   -0.4852   -4.6864    2.5916 H   0  0  0  0  0  0  0  0  0  0  0  0
   -1.8568   -5.6162    3.2200 H   0  0  0  0  0  0  0  0  0  0  0  0
   -0.1937   -0.0750    2.5739 H   0  0  0  0  0  0  0  0  0  0  0  0
   -1.2855    4.0208    1.8356 H   0  0  0  0  0  0  0  0  0  0  0  0
   -3.0639    3.1595   -1.2765 H   0  0  0  0  0  0  0  0  0  0  0  0
   -3.4672    6.2537   -0.6036 H   0  0  0  0  0  0  0  0  0  0  0  0
   -4.5388    6.4869    0.8094 H   0  0  0  0  0  0  0  0  0  0  0  0
   -2.8291    6.0290    1.0651 H   0  0  0  0  0  0  0  0  0  0  0  0
  1  2  1  0
  2  3  1  0
  3  4  2  0
  3  5  1  0
  5  6  1  0
  6  7  1  0
  6  8  1  0
  8  9  1  0
  9 10  1  0
 10 11  2  0
 11 12  1  0
 12 13  2  0
 13 14  1  0
 14 15  1  0
 15 16  2  0
 16 17  1  0
 17 18  1  0
 18 19  1  0
 18 20  1  0
 17 21  1  0
 21 22  2  0
 22 23  1  0
 23 24  2  0
 24 25  1  0
 25 26  1  0
 25 27  2  0
 27 28  1  0
 28 29  1  0
 29 30  1  0
 30 31  1  0
 30 32  2  0
 30 33  2  0
 28 34  2  0
 34 35  1  0
 14 36  2  0
 36 10  1  0
 22 15  1  0
 34 23  1  0
  1 37  1  0
  1 38  1  0
  1 39  1  0
  5 40  1  0
  6 41  1  1
  7 42  1  0
  7 43  1  0
  7 44  1  0
  8 45  1  0
  8 46  1  0
  9 47  1  0
 12 48  1  0
 13 49  1  0
 16 50  1  0
 18 51  1  0
 19 52  1  0
 19 53  1  0
 19 54  1  0
 20 55  1  0
 20 56  1  0
 20 57  1  0
 24 58  1  0
 27 59  1  0
 29 60  1  0
 31 61  1  0
 31 62  1  0
 31 63  1  0
M  END
$$$$
