
     RDKit          3D

 52 53  0  0  0  0  0  0  0  0999 V2000
   -4.5315    1.4353    1.0122 C   0  0  0  0  0  0  0  0  0  0  0  0
   -3.7786    2.1251   -0.1311 C   0  0  0  0  0  0  0  0  0  0  0  0
   -4.2136    3.3269   -0.5505 C   0  0  0  0  0  0  0  0  0  0  0  0
   -3.4820    3.9800   -1.4920 C   0  0  0  0  0  0  0  0  0  0  0  0
   -2.1355    2.8746   -1.8048 S   0  0  0  0  0  0  0  0  0  0  0  0
   -2.6602    1.5976   -0.6358 C   0  0  0  0  0  0  0  0  0  0  0  0
   -1.9903    0.3003   -0.5579 C   0  0  0  0  0  0  0  0  0  0  0  0
   -0.6897    0.2471   -0.6547 C   0  0  0  0  0  0  0  0  0  0  0  0
    0.2524    1.3858   -0.8298 C   0  0  0  0  0  0  0  0  0  0  0  0
    1.3591    1.2771    0.2301 C   0  0  0  0  0  0  0  0  0  0  0  0
    2.0917    0.0470    0.1012 N   0  0  0  0  0  0  0  0  0  0  0  0
    2.8801   -0.0145   -1.0910 C   0  0  0  0  0  0  0  0  0  0  0  0
    3.4187   -1.4015   -1.3104 C   0  0  0  0  0  0  0  0  0  0  0  0
    3.9327   -1.9742   -0.0156 C   0  0  0  0  0  0  0  0  0  0  0  0
    4.1932   -0.8971    1.0008 C   0  0  1  0  0  0  0  0  0  0  0  0
    5.4000   -0.0979    0.6711 C   0  0  0  0  0  0  0  0  0  0  0  0
    6.1181   -0.3202   -0.3487 O   0  0  0  0  0  0  0  0  0  0  0  0
    5.8018    0.9511    1.4851 O   0  0  0  0  0  0  0  0  0  0  0  0
    2.9687   -0.0814    1.2467 C   0  0  0  0  0  0  0  0  0  0  0  0
   -2.8228   -0.8987   -0.3761 C   0  0  0  0  0  0  0  0  0  0  0  0
   -4.5629   -0.9199   -0.8328 S   0  0  0  0  0  0  0  0  0  0  0  0
   -4.8829   -2.5600   -0.3195 C   0  0  0  0  0  0  0  0  0  0  0  0
   -3.6508   -3.0017    0.1721 C   0  0  0  0  0  0  0  0  0  0  0  0
   -2.6307   -2.1243    0.1252 C   0  0  0  0  0  0  0  0  0  0  0  0
   -1.2571   -2.5198    0.6977 C   0  0  0  0  0  0  0  0  0  0  0  0
    0.6887    0.0000    0.0000 Cl  0  0  0  0  0  0  0  0  0  0  0  0
   -4.6132    2.2200    1.8507 H   0  0  0  0  0  0  0  0  0  0  0  0
   -3.9378    0.6481    1.4735 H   0  0  0  0  0  0  0  0  0  0  0  0
   -5.5505    1.2060    0.7751 H   0  0  0  0  0  0  0  0  0  0  0  0
   -5.1486    3.8350   -0.1755 H   0  0  0  0  0  0  0  0  0  0  0  0
   -3.6527    4.9515   -1.9638 H   0  0  0  0  0  0  0  0  0  0  0  0
   -0.1668   -0.7215   -0.6439 H   0  0  0  0  0  0  0  0  0  0  0  0
    0.6194    1.3850   -1.8474 H   0  0  0  0  0  0  0  0  0  0  0  0
   -0.2782    2.3249   -0.5254 H   0  0  0  0  0  0  0  0  0  0  0  0
    2.0504    2.1265    0.1637 H   0  0  0  0  0  0  0  0  0  0  0  0
    0.8677    1.2989    1.2095 H   0  0  0  0  0  0  0  0  0  0  0  0
    3.6755    0.7569   -1.0023 H   0  0  0  0  0  0  0  0  0  0  0  0
    2.3080    0.2554   -2.0071 H   0  0  0  0  0  0  0  0  0  0  0  0
    2.5935   -2.0447   -1.6731 H   0  0  0  0  0  0  0  0  0  0  0  0
    4.1875   -1.4127   -2.1098 H   0  0  0  0  0  0  0  0  0  0  0  0
    3.1646   -2.6520    0.4182 H   0  0  0  0  0  0  0  0  0  0  0  0
    4.8322   -2.6136   -0.1718 H   0  0  0  0  0  0  0  0  0  0  0  0
    4.4195   -1.4373    1.9669 H   0  0  0  0  0  0  0  0  0  0  0  0
    6.2390    1.7961    1.1388 H   0  0  0  0  0  0  0  0  0  0  0  0
    3.2078    0.9526    1.5960 H   0  0  0  0  0  0  0  0  0  0  0  0
    2.3301   -0.5097    2.0738 H   0  0  0  0  0  0  0  0  0  0  0  0
   -5.8582   -3.1412   -0.3687 H   0  0  0  0  0  0  0  0  0  0  0  0
   -3.5697   -4.0403    0.5702 H   0  0  0  0  0  0  0  0  0  0  0  0
   -0.8379   -1.6965    1.2525 H   0  0  0  0  0  0  0  0  0  0  0  0
   -0.6099   -2.8788   -0.1044 H   0  0  0  0  0  0  0  0  0  0  0  0
   -1.3998   -3.3450    1.4572 H   0  0  0  0  0  0  0  0  0  0  0  0
   -0.6887    0.0000    0.0000 H   0  0  0  0  0  0  0  0  0  0  0  0
  1  2  1  0
  2  3  1  0
  3  4  2  0
  4  5  1  0
  5  6  1  0
  6  7  1  0
  7  8  2  3
  8  9  1  0
  9 10  1  0
 10 11  1  0
 11 12  1  0
 12 13  1  0
 13 14  1  0
 14 15  1  0
 15 16  1  0
 16 17  2  0
 16 18  1  0
 15 19  1  0
  7 20  1  0
 20 21  1  0
 21 22  1  0
 22 23  2  0
 23 24  1  0
 24 25  1  0
  6  2  2  0
 19 11  1  0
 24 20  2  0
  1 27  1  0
  1 28  1  0
  1 29  1  0
  3 30  1  0
  4 31  1  0
  8 32  1  0
  9 33  1  0
  9 34  1  0
 10 35  1  0
 10 36  1  0
 12 37  1  0
 12 38  1  0
 13 39  1  0
 13 40  1  0
 14 41  1  0
 14 42  1  0
 15 43  1  1
 18 44  1  0
 19 45  1  0
 19 46  1  0
 22 47  1  0
 23 48  1  0
 25 49  1  0
 25 50  1  0
 25 51  1  0
 26 52  1  0
M  END
$$$$
