
     RDKit          3D

 40 42  0  0  0  0  0  0  0  0999 V2000
   -0.7342   -2.4377   -2.3775 C   0  0  0  0  0  0  0  0  0  0  0  0
   -0.0701   -1.4696   -1.4626 C   0  0  0  0  0  0  0  0  0  0  0  0
    1.1937   -1.1129   -1.5858 N   0  0  0  0  0  0  0  0  0  0  0  0
    1.3861   -0.1316   -0.6675 C   0  0  0  0  0  0  0  0  0  0  0  0
    2.6656    0.4737   -0.5336 C   0  0  0  0  0  0  0  0  0  0  0  0
    3.7473    0.9838   -0.4228 C   0  0  0  0  0  0  0  0  0  0  0  0
    5.0353    1.5902   -0.2936 C   0  0  0  0  0  0  0  0  0  0  0  0
    5.4521    2.5462   -1.2165 C   0  0  0  0  0  0  0  0  0  0  0  0
    6.7061    3.1092   -1.0502 C   0  0  0  0  0  0  0  0  0  0  0  0
    7.5450    2.7844   -0.0449 N   0  0  0  0  0  0  0  0  0  0  0  0
    7.1061    1.8520    0.8257 C   0  0  0  0  0  0  0  0  0  0  0  0
    8.2102    1.4740    2.0830 Cl  0  0  0  0  0  0  0  0  0  0  0  0
    5.8756    1.2278    0.7533 C   0  0  0  0  0  0  0  0  0  0  0  0
    0.2465    0.1286    0.0604 C   0  0  0  0  0  0  0  0  0  0  0  0
    0.0568    1.0464    1.2136 C   0  0  0  0  0  0  0  0  0  0  0  0
   -0.7099   -0.7438   -0.4559 N   0  0  0  0  0  0  0  0  0  0  0  0
   -2.0681   -0.8657   -0.0455 C   0  0  0  0  0  0  0  0  0  0  0  0
   -2.8260    0.2758    0.2389 C   0  0  0  0  0  0  0  0  0  0  0  0
   -4.1639    0.1591    0.6389 C   0  0  0  0  0  0  0  0  0  0  0  0
   -4.7553   -1.0977    0.7629 C   0  0  0  0  0  0  0  0  0  0  0  0
   -6.0398   -1.3589    1.1432 O   0  0  0  0  0  0  0  0  0  0  0  0
   -6.8806   -0.2567    1.4374 C   0  0  0  0  0  0  0  0  0  0  0  0
   -7.0303    0.5425    0.3595 F   0  0  0  0  0  0  0  0  0  0  0  0
   -6.3940    0.4650    2.4696 F   0  0  0  0  0  0  0  0  0  0  0  0
   -8.0995   -0.7224    1.7880 F   0  0  0  0  0  0  0  0  0  0  0  0
   -3.9937   -2.2351    0.4807 C   0  0  0  0  0  0  0  0  0  0  0  0
   -2.6594   -2.1262    0.0771 C   0  0  0  0  0  0  0  0  0  0  0  0
   -0.1555   -2.5327   -3.3028 H   0  0  0  0  0  0  0  0  0  0  0  0
   -1.7393   -2.1105   -2.6583 H   0  0  0  0  0  0  0  0  0  0  0  0
   -0.7859   -3.4300   -1.9211 H   0  0  0  0  0  0  0  0  0  0  0  0
    4.8210    2.8467   -2.0466 H   0  0  0  0  0  0  0  0  0  0  0  0
    7.0799    3.8588   -1.7426 H   0  0  0  0  0  0  0  0  0  0  0  0
    5.5829    0.4845    1.4856 H   0  0  0  0  0  0  0  0  0  0  0  0
   -0.5959    0.6119    1.9766 H   0  0  0  0  0  0  0  0  0  0  0  0
    1.0128    1.2603    1.7039 H   0  0  0  0  0  0  0  0  0  0  0  0
   -0.3617    2.0015    0.8822 H   0  0  0  0  0  0  0  0  0  0  0  0
   -2.4149    1.2740    0.1125 H   0  0  0  0  0  0  0  0  0  0  0  0
   -4.7094    1.0780    0.8361 H   0  0  0  0  0  0  0  0  0  0  0  0
   -4.4393   -3.2228    0.5844 H   0  0  0  0  0  0  0  0  0  0  0  0
   -2.0964   -3.0410   -0.0858 H   0  0  0  0  0  0  0  0  0  0  0  0
  1  2  1  0
  2  3  2  0
  3  4  1  0
  4  5  1  0
  5  6  3  0
  6  7  1  0
  7  8  2  0
  8  9  1  0
  9 10  2  0
 10 11  1  0
 11 12  1  0
 11 13  2  0
  4 14  2  0
 14 15  1  0
 14 16  1  0
 16 17  1  0
 17 18  2  0
 18 19  1  0
 19 20  2  0
 20 21  1  0
 21 22  1  0
 22 23  1  0
 22 24  1  0
 22 25  1  0
 20 26  1  0
 26 27  2  0
 16  2  1  0
 27 17  1  0
 13  7  1  0
  1 28  1  0
  1 29  1  0
  1 30  1  0
  8 31  1  0
  9 32  1  0
 13 33  1  0
 15 34  1  0
 15 35  1  0
 15 36  1  0
 18 37  1  0
 19 38  1  0
 26 39  1  0
 27 40  1  0
M  END
$$$$
