
     RDKit          3D

 58 61  0  0  0  0  0  0  0  0999 V2000
    8.1380   -1.6536   -0.9186 C   0  0  0  0  0  0  0  0  0  0  0  0
    6.9594   -0.6836   -0.9057 C   0  0  0  0  0  0  0  0  0  0  0  0
    6.7971   -0.0127   -2.2648 C   0  0  0  0  0  0  0  0  0  0  0  0
    5.4566   -1.5639   -0.4162 S   0  0  0  0  0  6  0  0  0  0  0  0
    5.1310   -2.5248   -1.4486 O   0  0  0  0  0  0  0  0  0  0  0  0
    5.5713   -1.9705    0.9683 O   0  0  0  0  0  0  0  0  0  0  0  0
    4.2699   -0.3433   -0.4663 N   0  0  0  0  0  0  0  0  0  0  0  0
    2.8821   -0.8867   -0.6404 C   0  0  0  0  0  0  0  0  0  0  0  0
    1.8082    0.1759   -0.3743 C   0  0  0  0  0  0  0  0  0  0  0  0
    1.9205    0.7841    0.9579 N   0  0  0  0  0  0  0  0  0  0  0  0
    0.9329    1.5178    1.5878 C   0  0  0  0  0  0  0  0  0  0  0  0
    1.0916    2.0031    2.7095 O   0  0  0  0  0  0  0  0  0  0  0  0
   -0.4033    1.6835    0.8995 C   0  0  0  0  0  0  0  0  0  0  0  0
   -1.3419    0.5953    1.3914 C   0  0  0  0  0  0  0  0  0  0  0  0
   -2.3707    1.0829    2.2658 N   0  0  0  0  0  0  0  0  0  0  0  0
   -3.6228    0.6684    1.8569 C   0  0  0  0  0  0  0  0  0  0  0  0
   -4.5862    0.7344    2.6030 O   0  0  0  0  0  0  0  0  0  0  0  0
   -3.5192    0.1378    0.5925 N   0  0  0  0  0  0  0  0  0  0  0  0
   -4.6028   -0.4144   -0.1501 C   0  0  0  0  0  0  0  0  0  0  0  0
   -4.3995   -1.6474   -0.7992 C   0  0  0  0  0  0  0  0  0  0  0  0
   -5.4308   -2.2851   -1.4804 C   0  0  0  0  0  0  0  0  0  0  0  0
   -6.6870   -1.6965   -1.5373 C   0  0  0  0  0  0  0  0  0  0  0  0
   -6.9239   -0.4505   -0.9443 C   0  0  0  0  0  0  0  0  0  0  0  0
   -8.1989    0.1281   -1.0629 C   0  0  0  0  0  0  0  0  0  0  0  0
   -8.4702    1.3872   -0.5363 C   0  0  0  0  0  0  0  0  0  0  0  0
   -7.4623    2.0903    0.1031 C   0  0  0  0  0  0  0  0  0  0  0  0
   -6.1908    1.5234    0.2328 C   0  0  0  0  0  0  0  0  0  0  0  0
   -5.8818    0.2254   -0.2518 C   0  0  0  0  0  0  0  0  0  0  0  0
   -2.1868    0.0071    0.2644 C   0  0  0  0  0  0  0  0  0  0  0  0
   -1.6922   -0.4894   -0.7423 O   0  0  0  0  0  0  0  0  0  0  0  0
    3.2300    0.6519    1.6067 C   0  0  0  0  0  0  0  0  0  0  0  0
    4.3763    0.7164    0.5918 C   0  0  0  0  0  0  0  0  0  0  0  0
    9.0680   -1.1331   -1.1701 H   0  0  0  0  0  0  0  0  0  0  0  0
    7.9880   -2.4552   -1.6495 H   0  0  0  0  0  0  0  0  0  0  0  0
    8.2703   -2.1213    0.0627 H   0  0  0  0  0  0  0  0  0  0  0  0
    7.1447    0.0755   -0.1391 H   0  0  0  0  0  0  0  0  0  0  0  0
    6.5698   -0.7433   -3.0479 H   0  0  0  0  0  0  0  0  0  0  0  0
    5.9865    0.7224   -2.2528 H   0  0  0  0  0  0  0  0  0  0  0  0
    7.7151    0.5124   -2.5484 H   0  0  0  0  0  0  0  0  0  0  0  0
    2.7301   -1.7284    0.0465 H   0  0  0  0  0  0  0  0  0  0  0  0
    2.7723   -1.2507   -1.6675 H   0  0  0  0  0  0  0  0  0  0  0  0
    0.8212   -0.2771   -0.4812 H   0  0  0  0  0  0  0  0  0  0  0  0
    1.8918    0.9894   -1.1043 H   0  0  0  0  0  0  0  0  0  0  0  0
   -0.7775    2.6850    1.1468 H   0  0  0  0  0  0  0  0  0  0  0  0
   -0.2749    1.6788   -0.1867 H   0  0  0  0  0  0  0  0  0  0  0  0
   -0.8338   -0.2322    1.8997 H   0  0  0  0  0  0  0  0  0  0  0  0
   -2.2292    1.3168    3.2423 H   0  0  0  0  0  0  0  0  0  0  0  0
   -3.4414   -2.1598   -0.7492 H   0  0  0  0  0  0  0  0  0  0  0  0
   -5.2564   -3.2468   -1.9564 H   0  0  0  0  0  0  0  0  0  0  0  0
   -7.4823   -2.2160   -2.0691 H   0  0  0  0  0  0  0  0  0  0  0  0
   -8.9974   -0.4000   -1.5805 H   0  0  0  0  0  0  0  0  0  0  0  0
   -9.4617    1.8192   -0.6369 H   0  0  0  0  0  0  0  0  0  0  0  0
   -7.6569    3.0811    0.5057 H   0  0  0  0  0  0  0  0  0  0  0  0
   -5.4349    2.1309    0.7217 H   0  0  0  0  0  0  0  0  0  0  0  0
    3.3661    1.4346    2.3603 H   0  0  0  0  0  0  0  0  0  0  0  0
    3.2327   -0.3130    2.1279 H   0  0  0  0  0  0  0  0  0  0  0  0
    4.3659    1.6850    0.0766 H   0  0  0  0  0  0  0  0  0  0  0  0
    5.3305    0.6555    1.1232 H   0  0  0  0  0  0  0  0  0  0  0  0
  1  2  1  0
  2  3  1  0
  2  4  1  0
  4  5  2  0
  4  6  2  0
  4  7  1  0
  7  8  1  0
  8  9  1  0
  9 10  1  0
 10 11  1  0
 11 12  2  0
 11 13  1  0
 13 14  1  0
 14 15  1  0
 15 16  1  0
 16 17  2  0
 16 18  1  0
 18 19  1  0
 19 20  2  0
 20 21  1  0
 21 22  2  0
 22 23  1  0
 23 24  2  0
 24 25  1  0
 25 26  2  0
 26 27  1  0
 27 28  2  0
 18 29  1  0
 29 30  2  0
 10 31  1  0
 31 32  1  0
 32  7  1  0
 29 14  1  0
 28 19  1  0
 28 23  1  0
  1 33  1  0
  1 34  1  0
  1 35  1  0
  2 36  1  0
  3 37  1  0
  3 38  1  0
  3 39  1  0
  8 40  1  0
  8 41  1  0
  9 42  1  0
  9 43  1  0
 13 44  1  0
 13 45  1  0
 14 46  1  0
 15 47  1  0
 20 48  1  0
 21 49  1  0
 22 50  1  0
 24 51  1  0
 25 52  1  0
 26 53  1  0
 27 54  1  0
 31 55  1  0
 31 56  1  0
 32 57  1  0
 32 58  1  0
M  END
$$$$
