
     RDKit          3D

 68 71  0  0  0  0  0  0  0  0999 V2000
   -6.4161    1.2531   -2.6168 C   0  0  0  0  0  0  0  0  0  0  0  0
   -5.1662    1.4266   -1.7694 C   0  0  0  0  0  0  0  0  0  0  0  0
   -5.4007    1.2488   -0.2656 C   0  0  0  0  0  0  0  0  0  0  0  0
   -5.7685   -0.1172    0.1330 N   0  0  0  0  0  0  0  0  0  0  0  0
   -7.1957   -0.4329    0.2318 C   0  0  0  0  0  0  0  0  0  0  0  0
   -7.7376   -0.4113    1.6660 C   0  0  0  0  0  0  0  0  0  0  0  0
   -7.6974    0.9659    2.3092 C   0  0  0  0  0  0  0  0  0  0  0  0
   -4.8727   -1.0970    0.5404 C   0  0  0  0  0  0  0  0  0  0  0  0
   -5.2072   -2.2042    0.9588 O   0  0  0  0  0  0  0  0  0  0  0  0
   -3.4314   -0.7639    0.5326 C   0  0  0  0  0  0  0  0  0  0  0  0
   -2.7310   -0.8715   -0.6076 C   0  0  0  0  0  0  0  0  0  0  0  0
   -1.2793   -0.6308   -0.6332 C   0  0  0  0  0  0  0  0  0  0  0  0
   -0.7638    0.0879   -1.7199 C   0  0  0  0  0  0  0  0  0  0  0  0
    0.6029    0.3677   -1.8048 C   0  0  0  0  0  0  0  0  0  0  0  0
    1.4962   -0.0745   -0.8187 C   0  0  0  0  0  0  0  0  0  0  0  0
    2.9382    0.2232   -0.9062 C   0  0  0  0  0  0  0  0  0  0  0  0
    3.6396    0.7353    0.2011 C   0  0  0  0  0  0  0  0  0  0  0  0
    5.0044    1.0306    0.1217 C   0  0  0  0  0  0  0  0  0  0  0  0
    5.6910    0.8077   -1.0726 C   0  0  0  0  0  0  0  0  0  0  0  0
    7.1285    1.1342   -1.1941 C   0  0  0  0  0  0  0  0  0  0  0  0
    7.4777    1.9137   -2.0765 O   0  0  0  0  0  0  0  0  0  0  0  0
    8.0121    0.5350   -0.3166 N   0  0  0  0  0  0  0  0  0  0  0  0
    9.4338    0.8186   -0.3960 C   0  0  0  0  0  0  0  0  0  0  0  0
   10.0391    0.0332    0.7572 C   0  0  0  0  0  0  0  0  0  0  0  0
    9.1238   -1.1817    0.8508 C   0  0  0  0  0  0  0  0  0  0  0  0
    7.7468   -0.5942    0.5652 C   0  0  0  0  0  0  0  0  0  0  0  0
    5.0143    0.3214   -2.1914 C   0  0  0  0  0  0  0  0  0  0  0  0
    3.6509    0.0231   -2.1029 C   0  0  0  0  0  0  0  0  0  0  0  0
    0.9689   -0.8109    0.2563 C   0  0  0  0  0  0  0  0  0  0  0  0
   -0.4013   -1.0909    0.3741 C   0  0  0  0  0  0  0  0  0  0  0  0
   -0.7841   -1.8937    1.4714 N   0  0  0  0  0  0  0  0  0  0  0  0
   -1.8751   -1.6574    2.1422 C   0  0  0  0  0  0  0  0  0  0  0  0
   -2.2196   -2.5337    3.1402 N   0  0  0  0  0  0  0  0  0  0  0  0
   -2.8146   -0.4948    1.8652 C   0  0  0  0  0  0  0  0  0  0  0  0
   -6.7730    0.2191   -2.5914 H   0  0  0  0  0  0  0  0  0  0  0  0
   -7.2207    1.9115   -2.2747 H   0  0  0  0  0  0  0  0  0  0  0  0
   -6.1987    1.5007   -3.6610 H   0  0  0  0  0  0  0  0  0  0  0  0
   -4.4021    0.7353   -2.1315 H   0  0  0  0  0  0  0  0  0  0  0  0
   -4.7781    2.4390   -1.9371 H   0  0  0  0  0  0  0  0  0  0  0  0
   -4.4895    1.5406    0.2672 H   0  0  0  0  0  0  0  0  0  0  0  0
   -6.1829    1.9384    0.0727 H   0  0  0  0  0  0  0  0  0  0  0  0
   -7.7691    0.2575   -0.3944 H   0  0  0  0  0  0  0  0  0  0  0  0
   -7.3455   -1.4377   -0.1821 H   0  0  0  0  0  0  0  0  0  0  0  0
   -7.1862   -1.1145    2.2992 H   0  0  0  0  0  0  0  0  0  0  0  0
   -8.7789   -0.7548    1.6457 H   0  0  0  0  0  0  0  0  0  0  0  0
   -8.1774    0.9370    3.2930 H   0  0  0  0  0  0  0  0  0  0  0  0
   -6.6677    1.3078    2.4537 H   0  0  0  0  0  0  0  0  0  0  0  0
   -8.2261    1.7025    1.6967 H   0  0  0  0  0  0  0  0  0  0  0  0
   -3.2075   -1.1432   -1.5452 H   0  0  0  0  0  0  0  0  0  0  0  0
   -1.4233    0.4509   -2.5050 H   0  0  0  0  0  0  0  0  0  0  0  0
    0.9644    0.9501   -2.6503 H   0  0  0  0  0  0  0  0  0  0  0  0
    3.1170    0.9284    1.1366 H   0  0  0  0  0  0  0  0  0  0  0  0
    5.5173    1.4515    0.9821 H   0  0  0  0  0  0  0  0  0  0  0  0
    9.8013    0.4572   -1.3630 H   0  0  0  0  0  0  0  0  0  0  0  0
    9.6170    1.8948   -0.3248 H   0  0  0  0  0  0  0  0  0  0  0  0
   11.0862   -0.2306    0.5846 H   0  0  0  0  0  0  0  0  0  0  0  0
    9.9781    0.6152    1.6850 H   0  0  0  0  0  0  0  0  0  0  0  0
    9.3909   -1.9067    0.0721 H   0  0  0  0  0  0  0  0  0  0  0  0
    9.1748   -1.6845    1.8201 H   0  0  0  0  0  0  0  0  0  0  0  0
    7.0715   -1.3170    0.0988 H   0  0  0  0  0  0  0  0  0  0  0  0
    7.2933   -0.2075    1.4839 H   0  0  0  0  0  0  0  0  0  0  0  0
    5.5449    0.1763   -3.1298 H   0  0  0  0  0  0  0  0  0  0  0  0
    3.1478   -0.3760   -2.9816 H   0  0  0  0  0  0  0  0  0  0  0  0
    1.6340   -1.2020    1.0247 H   0  0  0  0  0  0  0  0  0  0  0  0
   -3.2153   -2.7355    3.1873 H   0  0  0  0  0  0  0  0  0  0  0  0
   -1.6737   -3.3876    3.0726 H   0  0  0  0  0  0  0  0  0  0  0  0
   -2.2590    0.4490    1.8709 H   0  0  0  0  0  0  0  0  0  0  0  0
   -3.5698   -0.4304    2.6561 H   0  0  0  0  0  0  0  0  0  0  0  0
  1  2  1  0
  2  3  1  0
  3  4  1  0
  4  5  1  0
  5  6  1  0
  6  7  1  0
  4  8  1  0
  8  9  2  0
  8 10  1  0
 10 11  2  0
 11 12  1  0
 12 13  2  0
 13 14  1  0
 14 15  2  0
 15 16  1  0
 16 17  2  0
 17 18  1  0
 18 19  2  0
 19 20  1  0
 20 21  2  0
 20 22  1  0
 22 23  1  0
 23 24  1  0
 24 25  1  0
 25 26  1  0
 19 27  1  0
 27 28  2  0
 15 29  1  0
 29 30  2  0
 30 31  1  0
 31 32  2  0
 32 33  1  0
 32 34  1  0
 34 10  1  0
 30 12  1  0
 28 16  1  0
 26 22  1  0
  1 35  1  0
  1 36  1  0
  1 37  1  0
  2 38  1  0
  2 39  1  0
  3 40  1  0
  3 41  1  0
  5 42  1  0
  5 43  1  0
  6 44  1  0
  6 45  1  0
  7 46  1  0
  7 47  1  0
  7 48  1  0
 11 49  1  0
 13 50  1  0
 14 51  1  0
 17 52  1  0
 18 53  1  0
 23 54  1  0
 23 55  1  0
 24 56  1  0
 24 57  1  0
 25 58  1  0
 25 59  1  0
 26 60  1  0
 26 61  1  0
 27 62  1  0
 28 63  1  0
 29 64  1  0
 33 65  1  0
 33 66  1  0
 34 67  1  0
 34 68  1  0
M  END
$$$$
