
     RDKit          3D

 49 53  0  0  0  0  0  0  0  0999 V2000
    4.0768    0.2401   -0.5844 C   0  0  0  0  0  0  0  0  0  0  0  0
    2.7707    0.2894    0.2136 C   0  0  2  0  0  0  0  0  0  0  0  0
    2.5334    1.7113    0.7564 C   0  0  0  0  0  0  0  0  0  0  0  0
    1.0556    1.9741    1.0979 C   0  0  0  0  0  0  0  0  0  0  0  0
    0.1896    2.2129   -0.1222 C   0  0  0  0  0  0  0  0  0  0  0  0
    0.7698    3.0099   -1.0683 N   0  0  0  0  0  0  0  0  0  0  0  0
    0.0767    3.2901   -2.1940 C   0  0  0  0  0  0  0  0  0  0  0  0
   -1.1947    2.8258   -2.4284 C   0  0  0  0  0  0  0  0  0  0  0  0
   -1.8409    3.1259   -3.5613 F   0  0  0  0  0  0  0  0  0  0  0  0
   -1.7995    2.0439   -1.4613 C   0  0  0  0  0  0  0  0  0  0  0  0
   -1.1222    1.7281   -0.2630 C   0  0  0  0  0  0  0  0  0  0  0  0
   -1.8275    0.8735    0.7715 C   0  0  1  0  0  0  0  0  0  0  0  0
   -3.0989    1.5370    1.3300 C   0  0  0  0  0  0  0  0  0  0  0  0
   -3.9539    0.3415    1.7108 C   0  0  0  0  0  0  0  0  0  0  0  0
   -3.6964   -0.6388    0.5721 C   0  0  0  0  0  0  0  0  0  0  0  0
   -2.3174   -0.3777    0.1641 N   0  0  0  0  0  0  0  0  0  0  0  0
   -1.4432   -1.3907   -0.1943 C   0  0  0  0  0  0  0  0  0  0  0  0
   -1.9315   -2.4810   -1.1138 C   0  0  0  0  0  0  0  0  0  0  0  0
   -1.0468   -3.4217   -1.4633 C   0  0  0  0  0  0  0  0  0  0  0  0
    0.2460   -3.3857   -0.9644 N   0  0  0  0  0  0  0  0  0  0  0  0
    1.2365   -4.2805   -1.1914 N   0  0  0  0  0  0  0  0  0  0  0  0
    2.2289   -3.8684   -0.4031 C   0  0  0  0  0  0  0  0  0  0  0  0
    1.9398   -2.6693    0.2807 C   0  0  0  0  0  0  0  0  0  0  0  0
    0.6453   -2.3637   -0.0999 C   0  0  0  0  0  0  0  0  0  0  0  0
   -0.2103   -1.3579    0.2588 N   0  0  0  0  0  0  0  0  0  0  0  0
    2.7880   -2.0232    1.2535 C   0  0  0  0  0  0  0  0  0  0  0  0
    3.4868   -2.6797    2.0253 O   0  0  0  0  0  0  0  0  0  0  0  0
    2.8531   -0.6530    1.3344 N   0  0  0  0  0  0  0  0  0  0  0  0
    4.2616   -0.7664   -0.9749 H   0  0  0  0  0  0  0  0  0  0  0  0
    4.9341    0.5144    0.0406 H   0  0  0  0  0  0  0  0  0  0  0  0
    4.0394    0.9274   -1.4360 H   0  0  0  0  0  0  0  0  0  0  0  0
    1.9649   -0.0040   -0.4624 H   0  0  0  0  0  0  0  0  0  0  0  0
    3.1279    1.8573    1.6684 H   0  0  0  0  0  0  0  0  0  0  0  0
    2.8964    2.4586    0.0409 H   0  0  0  0  0  0  0  0  0  0  0  0
    0.9903    2.8775    1.7168 H   0  0  0  0  0  0  0  0  0  0  0  0
    0.7002    1.1460    1.7123 H   0  0  0  0  0  0  0  0  0  0  0  0
    0.5855    3.9131   -2.9210 H   0  0  0  0  0  0  0  0  0  0  0  0
   -2.8016    1.6701   -1.6503 H   0  0  0  0  0  0  0  0  0  0  0  0
   -1.1958    0.6217    1.6263 H   0  0  0  0  0  0  0  0  0  0  0  0
   -3.6264    2.1396    0.5814 H   0  0  0  0  0  0  0  0  0  0  0  0
   -2.8819    2.1875    2.1832 H   0  0  0  0  0  0  0  0  0  0  0  0
   -3.6036   -0.0821    2.6599 H   0  0  0  0  0  0  0  0  0  0  0  0
   -5.0131    0.5913    1.8172 H   0  0  0  0  0  0  0  0  0  0  0  0
   -4.3670   -0.4404   -0.2711 H   0  0  0  0  0  0  0  0  0  0  0  0
   -3.8499   -1.6690    0.9106 H   0  0  0  0  0  0  0  0  0  0  0  0
   -2.9462   -2.4550   -1.4816 H   0  0  0  0  0  0  0  0  0  0  0  0
   -1.2779   -4.2442   -2.1257 H   0  0  0  0  0  0  0  0  0  0  0  0
    3.1372   -4.4567   -0.3506 H   0  0  0  0  0  0  0  0  0  0  0  0
    3.5117   -0.3991    2.0599 H   0  0  0  0  0  0  0  0  0  0  0  0
  1  2  1  0
  2  3  1  0
  3  4  1  0
  4  5  1  0
  5  6  2  0
  6  7  1  0
  7  8  2  0
  8  9  1  0
  8 10  1  0
 10 11  2  0
 11 12  1  0
 12 13  1  0
 13 14  1  0
 14 15  1  0
 15 16  1  0
 16 17  1  0
 17 18  1  0
 18 19  2  0
 19 20  1  0
 20 21  1  0
 21 22  2  0
 22 23  1  0
 23 24  2  0
 24 25  1  0
 23 26  1  0
 26 27  2  0
 26 28  1  0
 28  2  1  0
 11  5  1  0
 16 12  1  0
 25 17  2  0
 24 20  1  0
  1 29  1  0
  1 30  1  0
  1 31  1  0
  2 32  1  6
  3 33  1  0
  3 34  1  0
  4 35  1  0
  4 36  1  0
  7 37  1  0
 10 38  1  0
 12 39  1  1
 13 40  1  0
 13 41  1  0
 14 42  1  0
 14 43  1  0
 15 44  1  0
 15 45  1  0
 18 46  1  0
 19 47  1  0
 22 48  1  0
 28 49  1  0
M  END
$$$$
