
     RDKit          3D

 62 64  0  0  0  0  0  0  0  0999 V2000
    3.6181    1.0611    3.1935 C   0  0  0  0  0  0  0  0  0  0  0  0
    3.0458    1.1754    1.7894 C   0  0  0  0  0  0  0  0  0  0  0  0
    2.9878    2.6217    1.3140 C   0  0  0  0  0  0  0  0  0  0  0  0
    2.3760    2.7198    0.0036 N   0  0  0  0  0  0  0  0  0  0  0  0
    3.0879    2.4369   -1.1468 C   0  0  0  0  0  0  0  0  0  0  0  0
    4.2985    2.2294   -1.1430 O   0  0  0  0  0  0  0  0  0  0  0  0
    2.2328    2.4182   -2.4149 C   0  0  0  0  0  0  0  0  0  0  0  0
    3.0825    2.4375   -3.6957 C   0  0  0  0  0  0  0  0  0  0  0  0
    3.1529    1.0789   -4.3966 C   0  0  0  0  0  0  0  0  0  0  0  0
    3.1867   -0.0756   -3.4030 C   0  0  0  0  0  0  0  0  0  0  0  0
    2.0092   -0.0440   -2.5294 N   0  0  0  0  0  0  0  0  0  0  0  0
    1.2965   -1.2170   -2.3018 C   0  0  0  0  0  0  0  0  0  0  0  0
    1.9448   -2.4438   -2.1887 C   0  0  0  0  0  0  0  0  0  0  0  0
    1.2163   -3.6129   -1.9696 C   0  0  0  0  0  0  0  0  0  0  0  0
   -0.1566   -3.5370   -1.8687 C   0  0  0  0  0  0  0  0  0  0  0  0
   -1.0890   -5.0321   -1.6408 S   0  0  0  0  0  0  0  0  0  0  0  0
   -2.7652   -4.3828   -1.4168 C   0  0  0  0  0  0  0  0  0  0  0  0
   -2.9583   -3.8064   -0.0213 C   0  0  0  0  0  0  0  0  0  0  0  0
   -3.1072   -4.5429    0.9497 O   0  0  0  0  0  0  0  0  0  0  0  0
   -2.9911   -2.4228   -0.0108 N   0  0  0  0  0  0  0  0  0  0  0  0
   -3.4048   -1.5789    1.0373 C   0  0  0  0  0  0  0  0  0  0  0  0
   -3.8563   -2.0351    2.2784 C   0  0  0  0  0  0  0  0  0  0  0  0
   -4.3337   -1.1329    3.2384 C   0  0  0  0  0  0  0  0  0  0  0  0
   -4.3425    0.2320    2.9631 C   0  0  0  0  0  0  0  0  0  0  0  0
   -4.9934    1.3786    4.1523 S   0  0  0  0  0  6  0  0  0  0  0  0
   -3.5454    2.1868    4.7830 C   0  0  0  0  0  0  0  0  0  0  0  0
   -5.7776    2.3561    3.4198 O   0  0  0  0  0  0  0  0  0  0  0  0
   -5.5809    0.6109    5.2323 O   0  0  0  0  0  0  0  0  0  0  0  0
   -3.8965    0.7060    1.7283 C   0  0  0  0  0  0  0  0  0  0  0  0
   -3.4151   -0.2005    0.7763 C   0  0  0  0  0  0  0  0  0  0  0  0
   -0.7841   -2.3468   -1.9522 N   0  0  0  0  0  0  0  0  0  0  0  0
   -0.0504   -1.1892   -2.1600 N   0  0  0  0  0  0  0  0  0  0  0  0
    1.2780    1.2162   -2.3980 C   0  0  0  0  0  0  0  0  0  0  0  0
    4.5584    1.6093    3.2945 H   0  0  0  0  0  0  0  0  0  0  0  0
    3.8207    0.0051    3.4172 H   0  0  0  0  0  0  0  0  0  0  0  0
    2.9143    1.4374    3.9412 H   0  0  0  0  0  0  0  0  0  0  0  0
    2.0370    0.7391    1.7805 H   0  0  0  0  0  0  0  0  0  0  0  0
    3.6572    0.5739    1.1070 H   0  0  0  0  0  0  0  0  0  0  0  0
    2.3846    3.2314    1.9920 H   0  0  0  0  0  0  0  0  0  0  0  0
    3.9922    3.0528    1.2740 H   0  0  0  0  0  0  0  0  0  0  0  0
    1.3673    2.7828   -0.0364 H   0  0  0  0  0  0  0  0  0  0  0  0
    1.6389    3.3398   -2.3959 H   0  0  0  0  0  0  0  0  0  0  0  0
    4.0981    2.8008   -3.5040 H   0  0  0  0  0  0  0  0  0  0  0  0
    2.6464    3.1568   -4.4002 H   0  0  0  0  0  0  0  0  0  0  0  0
    4.0328    1.0438   -5.0468 H   0  0  0  0  0  0  0  0  0  0  0  0
    2.2741    0.9681   -5.0489 H   0  0  0  0  0  0  0  0  0  0  0  0
    4.0940   -0.0240   -2.7866 H   0  0  0  0  0  0  0  0  0  0  0  0
    3.2484   -1.0028   -3.9806 H   0  0  0  0  0  0  0  0  0  0  0  0
    3.0268   -2.5060   -2.2317 H   0  0  0  0  0  0  0  0  0  0  0  0
    1.7345   -4.5683   -1.9144 H   0  0  0  0  0  0  0  0  0  0  0  0
   -3.0275   -3.6588   -2.1931 H   0  0  0  0  0  0  0  0  0  0  0  0
   -3.4722   -5.2140   -1.5226 H   0  0  0  0  0  0  0  0  0  0  0  0
   -2.6714   -1.9627   -0.8615 H   0  0  0  0  0  0  0  0  0  0  0  0
   -3.8736   -3.0940    2.5252 H   0  0  0  0  0  0  0  0  0  0  0  0
   -4.6969   -1.5149    4.1904 H   0  0  0  0  0  0  0  0  0  0  0  0
   -2.8820    1.4352    5.2220 H   0  0  0  0  0  0  0  0  0  0  0  0
   -3.0493    2.7196    3.9706 H   0  0  0  0  0  0  0  0  0  0  0  0
   -3.8627    2.8972    5.5521 H   0  0  0  0  0  0  0  0  0  0  0  0
   -3.9384    1.7689    1.4906 H   0  0  0  0  0  0  0  0  0  0  0  0
   -3.0724    0.1809   -0.1818 H   0  0  0  0  0  0  0  0  0  0  0  0
    0.5486    1.3208   -3.2159 H   0  0  0  0  0  0  0  0  0  0  0  0
    0.7068    1.2169   -1.4604 H   0  0  0  0  0  0  0  0  0  0  0  0
  1  2  1  0
  2  3  1  0
  3  4  1  0
  4  5  1  0
  5  6  2  0
  5  7  1  0
  7  8  1  0
  8  9  1  0
  9 10  1  0
 10 11  1  0
 11 12  1  0
 12 13  2  0
 13 14  1  0
 14 15  2  0
 15 16  1  0
 16 17  1  0
 17 18  1  0
 18 19  2  0
 18 20  1  0
 20 21  1  0
 21 22  2  0
 22 23  1  0
 23 24  2  0
 24 25  1  0
 25 26  1  0
 25 27  2  0
 25 28  2  0
 24 29  1  0
 29 30  2  0
 15 31  1  0
 31 32  2  0
 11 33  1  0
 33  7  1  0
 32 12  1  0
 30 21  1  0
  1 34  1  0
  1 35  1  0
  1 36  1  0
  2 37  1  0
  2 38  1  0
  3 39  1  0
  3 40  1  0
  4 41  1  0
  7 42  1  0
  8 43  1  0
  8 44  1  0
  9 45  1  0
  9 46  1  0
 10 47  1  0
 10 48  1  0
 13 49  1  0
 14 50  1  0
 17 51  1  0
 17 52  1  0
 20 53  1  0
 22 54  1  0
 23 55  1  0
 26 56  1  0
 26 57  1  0
 26 58  1  0
 29 59  1  0
 30 60  1  0
 33 61  1  0
 33 62  1  0
M  END
$$$$
