
     RDKit          3D

 46 49  0  0  0  0  0  0  0  0999 V2000
   -5.4275   -2.3869   -0.5207 C   0  0  0  0  0  0  0  0  0  0  0  0
   -4.0247   -1.8716   -0.3491 C   0  0  0  0  0  0  0  0  0  0  0  0
   -2.9746   -2.7873   -0.3218 C   0  0  0  0  0  0  0  0  0  0  0  0
   -1.6635   -2.3521   -0.1601 C   0  0  0  0  0  0  0  0  0  0  0  0
   -0.7252   -3.3559   -0.1435 O   0  0  0  0  0  0  0  0  0  0  0  0
   -1.3296   -0.9844   -0.0210 C   0  0  0  0  0  0  0  0  0  0  0  0
    0.0879   -0.6376    0.1589 C   0  0  0  0  0  0  0  0  0  0  0  0
    0.6503   -0.5704    1.4420 C   0  0  0  0  0  0  0  0  0  0  0  0
    2.0089   -0.2887    1.6118 C   0  0  0  0  0  0  0  0  0  0  0  0
    2.8420   -0.0746    0.5035 C   0  0  0  0  0  0  0  0  0  0  0  0
    4.3182    0.2314    0.7150 C   0  0  1  0  0  0  0  0  0  0  0  0
    5.2091   -0.8822    0.1534 C   0  0  0  0  0  0  0  0  0  0  0  0
    4.7304    1.6426    0.2245 C   0  0  0  0  0  0  0  0  0  0  0  0
    4.8728    1.7928   -1.2251 N   0  0  0  0  0  0  0  0  0  0  0  0
    2.2812   -0.1570   -0.7782 C   0  0  0  0  0  0  0  0  0  0  0  0
    0.9230   -0.4385   -0.9499 C   0  0  0  0  0  0  0  0  0  0  0  0
   -2.3844   -0.0326   -0.0532 C   0  0  0  0  0  0  0  0  0  0  0  0
   -3.7277   -0.5010   -0.2124 C   0  0  0  0  0  0  0  0  0  0  0  0
   -4.8050    0.4108   -0.2316 N   0  0  0  0  0  0  0  0  0  0  0  0
   -4.6842    1.7728   -0.1050 C   0  0  0  0  0  0  0  0  0  0  0  0
   -5.6946    2.4734   -0.1264 O   0  0  0  0  0  0  0  0  0  0  0  0
   -3.3274    2.2370    0.0416 C   0  0  0  0  0  0  0  0  0  0  0  0
   -2.9929    3.8997    0.1951 S   0  0  0  0  0  0  0  0  0  0  0  0
   -1.3193    3.6035    0.2879 C   0  0  0  0  0  0  0  0  0  0  0  0
   -1.0307    2.2573    0.2062 C   0  0  0  0  0  0  0  0  0  0  0  0
   -2.1974    1.4345    0.0698 C   0  0  0  0  0  0  0  0  0  0  0  0
   -5.8781   -1.9690   -1.4267 H   0  0  0  0  0  0  0  0  0  0  0  0
   -6.0380   -2.1244    0.3492 H   0  0  0  0  0  0  0  0  0  0  0  0
   -5.4487   -3.4777   -0.6186 H   0  0  0  0  0  0  0  0  0  0  0  0
   -3.1640   -3.8540   -0.4234 H   0  0  0  0  0  0  0  0  0  0  0  0
    0.1610   -2.9691   -0.0350 H   0  0  0  0  0  0  0  0  0  0  0  0
    0.0282   -0.7349    2.3202 H   0  0  0  0  0  0  0  0  0  0  0  0
    2.4099   -0.2383    2.6221 H   0  0  0  0  0  0  0  0  0  0  0  0
    4.4952    0.2390    1.8002 H   0  0  0  0  0  0  0  0  0  0  0  0
    6.2644   -0.6716    0.3569 H   0  0  0  0  0  0  0  0  0  0  0  0
    5.0911   -1.0058   -0.9282 H   0  0  0  0  0  0  0  0  0  0  0  0
    4.9646   -1.8439    0.6189 H   0  0  0  0  0  0  0  0  0  0  0  0
    5.6933    1.9033    0.6805 H   0  0  0  0  0  0  0  0  0  0  0  0
    4.0022    2.3808    0.5812 H   0  0  0  0  0  0  0  0  0  0  0  0
    5.1177    2.7596   -1.4379 H   0  0  0  0  0  0  0  0  0  0  0  0
    5.6539    1.2269   -1.5541 H   0  0  0  0  0  0  0  0  0  0  0  0
    2.8978    0.0061   -1.6601 H   0  0  0  0  0  0  0  0  0  0  0  0
    0.5177   -0.4942   -1.9587 H   0  0  0  0  0  0  0  0  0  0  0  0
   -5.7559    0.0891   -0.3377 H   0  0  0  0  0  0  0  0  0  0  0  0
   -0.6216    4.4229    0.3946 H   0  0  0  0  0  0  0  0  0  0  0  0
   -0.0057    1.9200    0.2452 H   0  0  0  0  0  0  0  0  0  0  0  0
  1  2  1  0
  2  3  2  0
  3  4  1  0
  4  5  1  0
  4  6  2  0
  6  7  1  0
  7  8  2  0
  8  9  1  0
  9 10  2  0
 10 11  1  0
 11 12  1  0
 11 13  1  0
 13 14  1  0
 10 15  1  0
 15 16  2  0
  6 17  1  0
 17 18  2  0
 18 19  1  0
 19 20  1  0
 20 21  2  0
 20 22  1  0
 22 23  1  0
 23 24  1  0
 24 25  2  0
 25 26  1  0
 18  2  1  0
 26 22  2  0
 16  7  1  0
 26 17  1  0
  1 27  1  0
  1 28  1  0
  1 29  1  0
  3 30  1  0
  5 31  1  0
  8 32  1  0
  9 33  1  0
 11 34  1  1
 12 35  1  0
 12 36  1  0
 12 37  1  0
 13 38  1  0
 13 39  1  0
 14 40  1  0
 14 41  1  0
 15 42  1  0
 16 43  1  0
 19 44  1  0
 24 45  1  0
 25 46  1  0
M  END
$$$$
