
     RDKit          3D

 50 52  0  0  0  0  0  0  0  0999 V2000
   -2.1496    0.9106   -3.3921 O   0  0  0  0  0  0  0  0  0  0  0  0
   -1.7181    0.0447   -2.6360 C   0  0  0  0  0  0  0  0  0  0  0  0
   -0.3730   -0.6460   -2.8798 C   0  0  0  0  0  0  0  0  0  0  0  0
    0.3308   -0.9471   -1.6025 N   0  0  0  0  0  0  0  0  0  0  0  0
    1.4949   -1.8297   -1.8480 C   0  0  0  0  0  0  0  0  0  0  0  0
    2.8415   -1.0946   -2.0343 C   0  0  0  0  0  0  0  0  0  0  0  0
    3.2199   -0.2162   -0.9090 N   0  0  0  0  0  0  0  0  0  0  0  0
    4.2791   -0.8136   -0.0818 C   0  0  0  0  0  0  0  0  0  0  0  0
    4.8545    0.1368    0.9478 C   0  0  0  0  0  0  0  0  0  0  0  0
    4.9055   -0.2248    2.3020 C   0  0  0  0  0  0  0  0  0  0  0  0
    5.4494    0.6456    3.2479 C   0  0  0  0  0  0  0  0  0  0  0  0
    5.9535    1.8829    2.8507 C   0  0  0  0  0  0  0  0  0  0  0  0
    5.9165    2.2508    1.5076 C   0  0  0  0  0  0  0  0  0  0  0  0
    5.3735    1.3814    0.5603 C   0  0  0  0  0  0  0  0  0  0  0  0
    2.0425    0.1604   -0.0976 C   0  0  0  0  0  0  0  0  0  0  0  0
    0.7697    0.3221   -0.9572 C   0  0  0  0  0  0  0  0  0  0  0  0
   -2.3752   -0.4708   -1.5266 N   0  0  0  0  0  0  0  0  0  0  0  0
   -3.5701    0.0427   -1.1287 N   0  0  0  0  0  0  0  0  0  0  0  0
   -4.0426   -0.4398   -0.0243 C   0  0  0  0  0  0  0  0  0  0  0  0
   -5.3226    0.0319    0.5424 C   0  0  0  0  0  0  0  0  0  0  0  0
   -5.9184    1.1927    0.0341 C   0  0  0  0  0  0  0  0  0  0  0  0
   -7.0980    1.6802    0.6015 C   0  0  0  0  0  0  0  0  0  0  0  0
   -7.6782    1.0177    1.6840 C   0  0  0  0  0  0  0  0  0  0  0  0
   -7.0903   -0.1417    2.1900 C   0  0  0  0  0  0  0  0  0  0  0  0
   -5.9279   -0.6433    1.6069 C   0  0  0  0  0  0  0  0  0  0  0  0
   -5.4477   -1.8166    2.1185 O   0  0  0  0  0  0  0  0  0  0  0  0
    0.2405   -0.0234   -3.5421 H   0  0  0  0  0  0  0  0  0  0  0  0
   -0.6080   -1.5784   -3.4086 H   0  0  0  0  0  0  0  0  0  0  0  0
    1.5848   -2.4985   -0.9820 H   0  0  0  0  0  0  0  0  0  0  0  0
    1.3171   -2.4928   -2.7039 H   0  0  0  0  0  0  0  0  0  0  0  0
    2.7700   -0.4644   -2.9312 H   0  0  0  0  0  0  0  0  0  0  0  0
    3.6258   -1.8290   -2.2547 H   0  0  0  0  0  0  0  0  0  0  0  0
    3.9138   -1.7277    0.4039 H   0  0  0  0  0  0  0  0  0  0  0  0
    5.1207   -1.1168   -0.7193 H   0  0  0  0  0  0  0  0  0  0  0  0
    4.5175   -1.1860    2.6291 H   0  0  0  0  0  0  0  0  0  0  0  0
    5.4792    0.3580    4.2949 H   0  0  0  0  0  0  0  0  0  0  0  0
    6.3750    2.5600    3.5887 H   0  0  0  0  0  0  0  0  0  0  0  0
    6.3074    3.2153    1.1953 H   0  0  0  0  0  0  0  0  0  0  0  0
    5.3424    1.6778   -0.4867 H   0  0  0  0  0  0  0  0  0  0  0  0
    1.8413   -0.5866    0.6830 H   0  0  0  0  0  0  0  0  0  0  0  0
    2.2411    1.1121    0.4080 H   0  0  0  0  0  0  0  0  0  0  0  0
    0.9648    1.1033   -1.7056 H   0  0  0  0  0  0  0  0  0  0  0  0
   -0.0418    0.6877   -0.3174 H   0  0  0  0  0  0  0  0  0  0  0  0
   -1.8273   -1.0649   -0.9076 H   0  0  0  0  0  0  0  0  0  0  0  0
   -3.5019   -1.2209    0.5369 H   0  0  0  0  0  0  0  0  0  0  0  0
   -5.4636    1.7289   -0.7977 H   0  0  0  0  0  0  0  0  0  0  0  0
   -7.5553    2.5835    0.2046 H   0  0  0  0  0  0  0  0  0  0  0  0
   -8.5897    1.4047    2.1326 H   0  0  0  0  0  0  0  0  0  0  0  0
   -7.5483   -0.6621    3.0275 H   0  0  0  0  0  0  0  0  0  0  0  0
   -5.2255   -2.3960    1.3699 H   0  0  0  0  0  0  0  0  0  0  0  0
  1  2  2  0
  2  3  1  0
  3  4  1  0
  4  5  1  0
  5  6  1  0
  6  7  1  0
  7  8  1  0
  8  9  1  0
  9 10  2  0
 10 11  1  0
 11 12  2  0
 12 13  1  0
 13 14  2  0
  7 15  1  0
 15 16  1  0
  2 17  1  0
 17 18  1  0
 18 19  2  0
 19 20  1  0
 20 21  2  0
 21 22  1  0
 22 23  2  0
 23 24  1  0
 24 25  2  0
 25 26  1  0
 16  4  1  0
 25 20  1  0
 14  9  1  0
  3 27  1  0
  3 28  1  0
  5 29  1  0
  5 30  1  0
  6 31  1  0
  6 32  1  0
  8 33  1  0
  8 34  1  0
 10 35  1  0
 11 36  1  0
 12 37  1  0
 13 38  1  0
 14 39  1  0
 15 40  1  0
 15 41  1  0
 16 42  1  0
 16 43  1  0
 17 44  1  0
 19 45  1  0
 21 46  1  0
 22 47  1  0
 23 48  1  0
 24 49  1  0
 26 50  1  0
M  END
$$$$
