
     RDKit          3D

 20 22  0  0  0  0  0  0  0  0999 V2000
   -4.3723   -1.2837    0.2174 O   0  0  0  0  0  0  0  0  0  0  0  0
   -3.2747   -0.7389    0.2264 C   0  0  0  0  0  0  0  0  0  0  0  0
   -3.1638    0.7292    0.1826 C   0  0  0  0  0  0  0  0  0  0  0  0
   -1.9865    1.3614    0.1907 C   0  0  0  0  0  0  0  0  0  0  0  0
   -0.7541    0.5896    0.2446 C   0  0  0  0  0  0  0  0  0  0  0  0
    0.5001    1.2194    0.2547 C   0  0  0  0  0  0  0  0  0  0  0  0
    1.6587    0.4190    0.3078 C   0  0  0  0  0  0  0  0  0  0  0  0
    3.0578    0.6622    0.3336 C   0  0  0  0  0  0  0  0  0  0  0  0
    3.6665   -0.5708    0.3872 C   0  0  0  0  0  0  0  0  0  0  0  0
    2.7387   -1.5628    0.3964 O   0  0  0  0  0  0  0  0  0  0  0  0
    1.5163   -0.9648    0.3482 C   0  0  0  0  0  0  0  0  0  0  0  0
    0.2940   -1.6283    0.3400 C   0  0  0  0  0  0  0  0  0  0  0  0
   -0.8326   -0.8047    0.2869 C   0  0  0  0  0  0  0  0  0  0  0  0
   -2.0873   -1.4552    0.2775 O   0  0  0  0  0  0  0  0  0  0  0  0
   -4.1018    1.2695    0.1430 H   0  0  0  0  0  0  0  0  0  0  0  0
   -1.9329    2.4442    0.1577 H   0  0  0  0  0  0  0  0  0  0  0  0
    0.5879    2.3012    0.2226 H   0  0  0  0  0  0  0  0  0  0  0  0
    3.5610    1.6183    0.3153 H   0  0  0  0  0  0  0  0  0  0  0  0
    4.6968   -0.8969    0.4222 H   0  0  0  0  0  0  0  0  0  0  0  0
    0.2284   -2.7079    0.3726 H   0  0  0  0  0  0  0  0  0  0  0  0
  1  2  2  0
  2  3  1  0
  3  4  2  0
  4  5  1  0
  5  6  2  0
  6  7  1  0
  7  8  1  0
  8  9  2  0
  9 10  1  0
 10 11  1  0
 11 12  1  0
 12 13  2  0
 13 14  1  0
 14  2  1  0
 13  5  1  0
 11  7  2  0
  3 15  1  0
  4 16  1  0
  6 17  1  0
  8 18  1  0
  9 19  1  0
 12 20  1  0
M  END
$$$$
