
     RDKit          3D

 52 56  0  0  0  0  0  0  0  0999 V2000
   -3.8994    5.2313    1.9391 C   0  0  0  0  0  0  0  0  0  0  0  0
   -3.4457    3.8839    1.8914 O   0  0  0  0  0  0  0  0  0  0  0  0
   -3.5012    3.2540    0.6782 C   0  0  0  0  0  0  0  0  0  0  0  0
   -3.9978    3.7982   -0.5055 C   0  0  0  0  0  0  0  0  0  0  0  0
   -4.0149    3.0323   -1.6726 C   0  0  0  0  0  0  0  0  0  0  0  0
   -3.5269    1.7243   -1.6637 C   0  0  0  0  0  0  0  0  0  0  0  0
   -2.9979    1.1684   -0.4903 C   0  0  0  0  0  0  0  0  0  0  0  0
   -2.5025   -0.1800   -0.4777 N   0  0  0  0  0  0  0  0  0  0  0  0
   -1.2446   -0.5273    0.0230 C   0  0  0  0  0  0  0  0  0  0  0  0
   -0.0855    0.7470    0.4068 S   0  0  0  0  0  0  0  0  0  0  0  0
    1.4743   -0.1664    0.3185 C   0  0  0  0  0  0  0  0  0  0  0  0
    2.7377    0.6633    0.4593 C   0  0  0  0  0  0  0  0  0  0  0  0
    2.7823    1.9940    0.6493 C   0  0  0  0  0  0  0  0  0  0  0  0
    4.0202    2.7773    0.7811 C   0  0  0  0  0  0  0  0  0  0  0  0
    3.9785    3.9921    0.9416 O   0  0  0  0  0  0  0  0  0  0  0  0
    5.2098    2.0790    0.7141 O   0  0  0  0  0  0  0  0  0  0  0  0
    5.2233    0.6869    0.5117 C   0  0  0  0  0  0  0  0  0  0  0  0
    6.4872    0.0960    0.4486 C   0  0  0  0  0  0  0  0  0  0  0  0
    6.5672   -1.2691    0.2477 C   0  0  0  0  0  0  0  0  0  0  0  0
    7.7930   -1.8655    0.1812 O   0  0  0  0  0  0  0  0  0  0  0  0
    5.4116   -2.0326    0.1140 C   0  0  0  0  0  0  0  0  0  0  0  0
    5.5647   -3.3773   -0.0826 O   0  0  0  0  0  0  0  0  0  0  0  0
    4.1513   -1.4360    0.1792 C   0  0  0  0  0  0  0  0  0  0  0  0
    4.0367   -0.0487    0.3811 C   0  0  0  0  0  0  0  0  0  0  0  0
   -0.8272   -1.7453    0.1638 N   0  0  0  0  0  0  0  0  0  0  0  0
   -1.6667   -2.7919   -0.2170 C   0  0  0  0  0  0  0  0  0  0  0  0
   -1.2365   -4.1067   -0.0194 C   0  0  0  0  0  0  0  0  0  0  0  0
   -2.0332   -5.1842   -0.4153 C   0  0  0  0  0  0  0  0  0  0  0  0
   -3.2688   -4.9532   -1.0161 C   0  0  0  0  0  0  0  0  0  0  0  0
   -3.7072   -3.6452   -1.2158 C   0  0  0  0  0  0  0  0  0  0  0  0
   -2.9016   -2.5715   -0.8135 C   0  0  0  0  0  0  0  0  0  0  0  0
   -3.3484   -1.1770   -0.9836 C   0  0  0  0  0  0  0  0  0  0  0  0
   -4.4370   -0.9940   -1.5274 O   0  0  0  0  0  0  0  0  0  0  0  0
   -3.0102    1.9428    0.6802 C   0  0  0  0  0  0  0  0  0  0  0  0
   -3.7731    5.5915    2.9649 H   0  0  0  0  0  0  0  0  0  0  0  0
   -4.9639    5.2974    1.6920 H   0  0  0  0  0  0  0  0  0  0  0  0
   -3.3008    5.8730    1.2847 H   0  0  0  0  0  0  0  0  0  0  0  0
   -4.3892    4.8095   -0.5527 H   0  0  0  0  0  0  0  0  0  0  0  0
   -4.4132    3.4531   -2.5926 H   0  0  0  0  0  0  0  0  0  0  0  0
   -3.5534    1.1510   -2.5881 H   0  0  0  0  0  0  0  0  0  0  0  0
    1.4997   -0.6769   -0.6518 H   0  0  0  0  0  0  0  0  0  0  0  0
    1.4607   -0.9177    1.1165 H   0  0  0  0  0  0  0  0  0  0  0  0
    1.8922    2.6099    0.7207 H   0  0  0  0  0  0  0  0  0  0  0  0
    7.3879    0.6919    0.5527 H   0  0  0  0  0  0  0  0  0  0  0  0
    7.6041   -2.8147    0.0384 H   0  0  0  0  0  0  0  0  0  0  0  0
    4.6842   -3.7861   -0.1513 H   0  0  0  0  0  0  0  0  0  0  0  0
    3.2701   -2.0598    0.0709 H   0  0  0  0  0  0  0  0  0  0  0  0
   -0.2729   -4.2922    0.4474 H   0  0  0  0  0  0  0  0  0  0  0  0
   -1.6892   -6.2025   -0.2543 H   0  0  0  0  0  0  0  0  0  0  0  0
   -3.8919   -5.7896   -1.3244 H   0  0  0  0  0  0  0  0  0  0  0  0
   -4.6755   -3.4643   -1.6768 H   0  0  0  0  0  0  0  0  0  0  0  0
   -2.6604    1.5275    1.6237 H   0  0  0  0  0  0  0  0  0  0  0  0
  1  2  1  0
  2  3  1  0
  3  4  2  0
  4  5  1  0
  5  6  2  0
  6  7  1  0
  7  8  1  0
  8  9  1  0
  9 10  1  0
 10 11  1  0
 11 12  1  0
 12 13  2  0
 13 14  1  0
 14 15  2  0
 14 16  1  0
 16 17  1  0
 17 18  2  0
 18 19  1  0
 19 20  1  0
 19 21  2  0
 21 22  1  0
 21 23  1  0
 23 24  2  0
  9 25  2  0
 25 26  1  0
 26 27  2  0
 27 28  1  0
 28 29  2  0
 29 30  1  0
 30 31  2  0
 31 32  1  0
 32 33  2  0
  7 34  2  0
 34  3  1  0
 32  8  1  0
 24 12  1  0
 31 26  1  0
 24 17  1  0
  1 35  1  0
  1 36  1  0
  1 37  1  0
  4 38  1  0
  5 39  1  0
  6 40  1  0
 11 41  1  0
 11 42  1  0
 13 43  1  0
 18 44  1  0
 20 45  1  0
 22 46  1  0
 23 47  1  0
 27 48  1  0
 28 49  1  0
 29 50  1  0
 30 51  1  0
 34 52  1  0
M  END
$$$$
