
     RDKit          3D

 51 53  0  0  0  0  0  0  0  0999 V2000
   -2.7562    5.5309   -0.5933 C   0  0  0  0  0  0  0  0  0  0  0  0
   -2.8676    4.1774   -0.0163 C   0  0  0  0  0  0  0  0  0  0  0  0
   -4.0342    3.6490    0.3675 N   0  0  0  0  0  0  0  0  0  0  0  0
   -3.6513    2.4379    0.8028 N   0  0  0  0  0  0  0  0  0  0  0  0
   -2.2986    2.2659    0.6794 C   0  0  0  0  0  0  0  0  0  0  0  0
   -1.6144    1.0106    1.1098 C   0  0  2  0  0  0  0  0  0  0  0  0
   -0.0875    1.1484    1.0988 C   0  0  0  0  0  0  0  0  0  0  0  0
    0.3799   -0.2724    0.8007 C   0  0  2  0  0  0  0  0  0  0  0  0
    1.7443   -0.3216    0.3104 N   0  0  0  0  0  0  0  0  0  0  0  0
    2.8053   -0.3144    1.1969 C   0  0  0  0  0  0  0  0  0  0  0  0
    2.6613   -0.3843    2.4114 O   0  0  0  0  0  0  0  0  0  0  0  0
    4.1508   -0.1907    0.5015 C   0  0  0  0  0  0  0  0  0  0  0  0
    5.3495   -0.3917    1.4406 C   0  0  0  0  0  0  0  0  0  0  0  0
    5.5042   -1.8609    1.8410 C   0  0  0  0  0  0  0  0  0  0  0  0
    6.6329    0.0959    0.7653 C   0  0  0  0  0  0  0  0  0  0  0  0
   -0.6612   -0.7541   -0.2134 C   0  0  0  0  0  0  0  0  0  0  0  0
   -1.8969   -0.0881    0.1803 N   0  0  0  0  0  0  0  0  0  0  0  0
   -3.1561   -0.6735    0.1551 C   0  0  0  0  0  0  0  0  0  0  0  0
   -4.0447   -0.2860    0.9153 O   0  0  0  0  0  0  0  0  0  0  0  0
   -3.4143   -1.7364   -0.8003 C   0  0  0  0  0  0  0  0  0  0  0  0
   -4.3802   -2.7629   -0.6781 C   0  0  0  0  0  0  0  0  0  0  0  0
   -4.4040   -3.5829   -1.7319 N   0  0  0  0  0  0  0  0  0  0  0  0
   -3.4874   -3.0577   -2.5605 N   0  0  0  0  0  0  0  0  0  0  0  0
   -3.2656   -3.6647   -3.8501 C   0  0  0  0  0  0  0  0  0  0  0  0
   -2.8669   -1.9531   -2.0522 C   0  0  0  0  0  0  0  0  0  0  0  0
   -1.7810    3.3590    0.1530 N   0  0  0  0  0  0  0  0  0  0  0  0
   -2.9694    5.5037   -1.6660 H   0  0  0  0  0  0  0  0  0  0  0  0
   -3.4594    6.2214   -0.1172 H   0  0  0  0  0  0  0  0  0  0  0  0
   -1.7461    5.9287   -0.4542 H   0  0  0  0  0  0  0  0  0  0  0  0
   -4.3408    1.7623    1.1263 H   0  0  0  0  0  0  0  0  0  0  0  0
   -1.9547    0.7120    2.1097 H   0  0  0  0  0  0  0  0  0  0  0  0
    0.2999    1.5310    2.0489 H   0  0  0  0  0  0  0  0  0  0  0  0
    0.2622    1.8264    0.3089 H   0  0  0  0  0  0  0  0  0  0  0  0
    0.3029   -0.8756    1.7149 H   0  0  0  0  0  0  0  0  0  0  0  0
    1.9286    0.0072   -0.6299 H   0  0  0  0  0  0  0  0  0  0  0  0
    4.1908   -0.9098   -0.3259 H   0  0  0  0  0  0  0  0  0  0  0  0
    4.1868    0.8172    0.0691 H   0  0  0  0  0  0  0  0  0  0  0  0
    5.2035    0.2000    2.3530 H   0  0  0  0  0  0  0  0  0  0  0  0
    5.6581   -2.4978    0.9631 H   0  0  0  0  0  0  0  0  0  0  0  0
    6.3645   -1.9921    2.5064 H   0  0  0  0  0  0  0  0  0  0  0  0
    4.6192   -2.2257    2.3714 H   0  0  0  0  0  0  0  0  0  0  0  0
    6.8352   -0.4608   -0.1558 H   0  0  0  0  0  0  0  0  0  0  0  0
    6.5588    1.1584    0.5099 H   0  0  0  0  0  0  0  0  0  0  0  0
    7.4936   -0.0263    1.4313 H   0  0  0  0  0  0  0  0  0  0  0  0
   -0.4119   -0.4233   -1.2279 H   0  0  0  0  0  0  0  0  0  0  0  0
   -0.7540   -1.8440   -0.1986 H   0  0  0  0  0  0  0  0  0  0  0  0
   -5.0611   -2.9433    0.1446 H   0  0  0  0  0  0  0  0  0  0  0  0
   -2.5207   -3.0855   -4.4009 H   0  0  0  0  0  0  0  0  0  0  0  0
   -2.9046   -4.6841   -3.6937 H   0  0  0  0  0  0  0  0  0  0  0  0
   -4.2118   -3.6705   -4.3970 H   0  0  0  0  0  0  0  0  0  0  0  0
   -2.1294   -1.4092   -2.6240 H   0  0  0  0  0  0  0  0  0  0  0  0
  1  2  1  0
  2  3  2  0
  3  4  1  0
  4  5  1  0
  5  6  1  0
  6  7  1  0
  7  8  1  0
  8  9  1  0
  9 10  1  0
 10 11  2  0
 10 12  1  0
 12 13  1  0
 13 14  1  0
 13 15  1  0
  8 16  1  0
 16 17  1  0
 17 18  1  0
 18 19  2  0
 18 20  1  0
 20 21  1  0
 21 22  2  0
 22 23  1  0
 23 24  1  0
 23 25  1  0
  5 26  2  0
 26  2  1  0
 17  6  1  0
 25 20  2  0
  1 27  1  0
  1 28  1  0
  1 29  1  0
  4 30  1  0
  6 31  1  1
  7 32  1  0
  7 33  1  0
  8 34  1  1
  9 35  1  0
 12 36  1  0
 12 37  1  0
 13 38  1  0
 14 39  1  0
 14 40  1  0
 14 41  1  0
 15 42  1  0
 15 43  1  0
 15 44  1  0
 16 45  1  0
 16 46  1  0
 21 47  1  0
 24 48  1  0
 24 49  1  0
 24 50  1  0
 25 51  1  0
M  END
$$$$
