
     RDKit          3D

 53 56  0  0  0  0  0  0  0  0999 V2000
   -1.5378    4.7359    2.6160 C   0  0  0  0  0  0  0  0  0  0  0  0
   -0.1330    4.7869    2.4064 O   0  0  0  0  0  0  0  0  0  0  0  0
    0.4129    3.8133    1.6138 C   0  0  0  0  0  0  0  0  0  0  0  0
    1.7934    3.8934    1.4665 C   0  0  0  0  0  0  0  0  0  0  0  0
    2.4998    2.9654    0.6954 C   0  0  0  0  0  0  0  0  0  0  0  0
    1.7837    1.9430    0.0457 C   0  0  0  0  0  0  0  0  0  0  0  0
    0.3968    1.8446    0.1712 C   0  0  0  0  0  0  0  0  0  0  0  0
   -0.2909    2.7906    0.9711 C   0  0  0  0  0  0  0  0  0  0  0  0
   -0.0293    0.7301   -0.6111 C   0  0  0  0  0  0  0  0  0  0  0  0
   -1.4450    0.2547   -0.7775 C   0  0  0  0  0  0  0  0  0  0  0  0
   -1.7619   -0.9761    0.0745 C   0  0  0  0  0  0  0  0  0  0  0  0
   -0.8820   -1.7101    0.5293 O   0  0  0  0  0  0  0  0  0  0  0  0
   -3.1071   -1.2482    0.2947 N   0  0  0  0  0  0  0  0  0  0  0  0
   -4.2282   -0.5166   -0.3022 C   0  0  0  0  0  0  0  0  0  0  0  0
   -5.4968   -1.3751   -0.3360 C   0  0  0  0  0  0  0  0  0  0  0  0
   -5.9041   -1.8371    0.9572 O   0  0  0  0  0  0  0  0  0  0  0  0
   -4.8176   -2.0916    1.8603 C   0  0  0  0  0  0  0  0  0  0  0  0
   -3.4797   -2.3645    1.1668 C   0  0  0  0  0  0  0  0  0  0  0  0
    1.0997    0.2062   -1.2271 C   0  0  0  0  0  0  0  0  0  0  0  0
    1.1548   -0.8519   -2.2803 C   0  0  0  0  0  0  0  0  0  0  0  0
    2.2250    0.8517   -0.7096 N   0  0  0  0  0  0  0  0  0  0  0  0
    3.5834    0.4827   -0.8889 C   0  0  0  0  0  0  0  0  0  0  0  0
    4.4322    1.3733   -0.8800 O   0  0  0  0  0  0  0  0  0  0  0  0
    4.0641   -0.9120   -1.0501 C   0  0  0  0  0  0  0  0  0  0  0  0
    3.5029   -1.9550   -0.3019 C   0  0  0  0  0  0  0  0  0  0  0  0
    3.9911   -3.2562   -0.4486 C   0  0  0  0  0  0  0  0  0  0  0  0
    5.0466   -3.5078   -1.3253 C   0  0  0  0  0  0  0  0  0  0  0  0
    5.6439   -5.1110   -1.5041 Cl  0  0  0  0  0  0  0  0  0  0  0  0
    5.6257   -2.4685   -2.0531 C   0  0  0  0  0  0  0  0  0  0  0  0
    5.1399   -1.1666   -1.9102 C   0  0  0  0  0  0  0  0  0  0  0  0
   -1.8080    5.5665    3.2754 H   0  0  0  0  0  0  0  0  0  0  0  0
   -1.8298    3.8062    3.1155 H   0  0  0  0  0  0  0  0  0  0  0  0
   -2.0821    4.8677    1.6751 H   0  0  0  0  0  0  0  0  0  0  0  0
    2.3411    4.6881    1.9688 H   0  0  0  0  0  0  0  0  0  0  0  0
    3.5806    3.0440    0.6158 H   0  0  0  0  0  0  0  0  0  0  0  0
   -1.3658    2.7023    1.0653 H   0  0  0  0  0  0  0  0  0  0  0  0
   -2.1270    1.0679   -0.5086 H   0  0  0  0  0  0  0  0  0  0  0  0
   -1.6342   -0.0001   -1.8261 H   0  0  0  0  0  0  0  0  0  0  0  0
   -4.3900    0.3696    0.3220 H   0  0  0  0  0  0  0  0  0  0  0  0
   -3.9674   -0.1902   -1.3128 H   0  0  0  0  0  0  0  0  0  0  0  0
   -5.3458   -2.2548   -0.9727 H   0  0  0  0  0  0  0  0  0  0  0  0
   -6.3286   -0.8038   -0.7601 H   0  0  0  0  0  0  0  0  0  0  0  0
   -4.7293   -1.2169    2.5153 H   0  0  0  0  0  0  0  0  0  0  0  0
   -5.1016   -2.9427    2.4871 H   0  0  0  0  0  0  0  0  0  0  0  0
   -3.5574   -3.2509    0.5265 H   0  0  0  0  0  0  0  0  0  0  0  0
   -2.6972   -2.5472    1.9102 H   0  0  0  0  0  0  0  0  0  0  0  0
    1.1397   -1.8491   -1.8322 H   0  0  0  0  0  0  0  0  0  0  0  0
    0.2860   -0.7764   -2.9428 H   0  0  0  0  0  0  0  0  0  0  0  0
    2.0360   -0.7515   -2.9198 H   0  0  0  0  0  0  0  0  0  0  0  0
    2.6902   -1.7709    0.3993 H   0  0  0  0  0  0  0  0  0  0  0  0
    3.5479   -4.0652    0.1274 H   0  0  0  0  0  0  0  0  0  0  0  0
    6.4577   -2.6629   -2.7253 H   0  0  0  0  0  0  0  0  0  0  0  0
    5.6026   -0.3531   -2.4661 H   0  0  0  0  0  0  0  0  0  0  0  0
  1  2  1  0
  2  3  1  0
  3  4  2  0
  4  5  1  0
  5  6  2  0
  6  7  1  0
  7  8  2  0
  7  9  1  0
  9 10  1  0
 10 11  1  0
 11 12  2  0
 11 13  1  0
 13 14  1  0
 14 15  1  0
 15 16  1  0
 16 17  1  0
 17 18  1  0
  9 19  2  0
 19 20  1  0
 19 21  1  0
 21 22  1  0
 22 23  2  0
 22 24  1  0
 24 25  2  0
 25 26  1  0
 26 27  2  0
 27 28  1  0
 27 29  1  0
 29 30  2  0
  8  3  1  0
 18 13  1  0
 30 24  1  0
 21  6  1  0
  1 31  1  0
  1 32  1  0
  1 33  1  0
  4 34  1  0
  5 35  1  0
  8 36  1  0
 10 37  1  0
 10 38  1  0
 14 39  1  0
 14 40  1  0
 15 41  1  0
 15 42  1  0
 17 43  1  0
 17 44  1  0
 18 45  1  0
 18 46  1  0
 20 47  1  0
 20 48  1  0
 20 49  1  0
 25 50  1  0
 26 51  1  0
 29 52  1  0
 30 53  1  0
M  END
$$$$
