
     RDKit          3D

 41 42  0  0  0  0  0  0  0  0999 V2000
    5.9467    1.9676    1.4932 C   0  0  0  0  0  0  0  0  0  0  0  0
    5.6408    0.8585    0.5209 C   0  0  0  0  0  0  0  0  0  0  0  0
    6.5329    0.3286   -0.1382 O   0  0  0  0  0  0  0  0  0  0  0  0
    4.2264    0.4060    0.3619 C   0  0  0  0  0  0  0  0  0  0  0  0
    3.9561   -0.6550   -0.5097 C   0  0  0  0  0  0  0  0  0  0  0  0
    2.6459   -1.1159   -0.6919 C   0  0  0  0  0  0  0  0  0  0  0  0
    1.5862   -0.5213   -0.0079 C   0  0  0  0  0  0  0  0  0  0  0  0
    0.2398   -0.9197   -0.1304 N   0  0  0  0  0  0  0  0  0  0  0  0
   -0.2773   -1.9258   -0.9262 C   0  0  0  0  0  0  0  0  0  0  0  0
    0.3633   -2.6490   -1.6840 O   0  0  0  0  0  0  0  0  0  0  0  0
   -1.7863   -2.1208   -0.8026 C   0  0  0  0  0  0  0  0  0  0  0  0
   -2.2015   -2.5534    0.6005 C   0  0  0  0  0  0  0  0  0  0  0  0
   -2.6816   -1.2756    1.2440 C   0  0  0  0  0  0  0  0  0  0  0  0
   -2.9827   -1.1521    2.4189 O   0  0  0  0  0  0  0  0  0  0  0  0
   -2.7171   -0.2754    0.2718 N   0  0  0  0  0  0  0  0  0  0  0  0
   -3.3964    1.0010    0.5161 C   0  0  0  0  0  0  0  0  0  0  0  0
   -4.9067    0.8818    0.3097 C   0  0  0  0  0  0  0  0  0  0  0  0
   -2.8162    2.1330   -0.3288 C   0  0  0  0  0  0  0  0  0  0  0  0
   -2.5558   -0.8390   -1.0532 C   0  0  0  0  0  0  0  0  0  0  0  0
    1.8582    0.5410    0.8642 C   0  0  0  0  0  0  0  0  0  0  0  0
    3.1672    1.0039    1.0504 C   0  0  0  0  0  0  0  0  0  0  0  0
    5.6360    1.6847    2.5023 H   0  0  0  0  0  0  0  0  0  0  0  0
    7.0271    2.1426    1.5101 H   0  0  0  0  0  0  0  0  0  0  0  0
    5.4574    2.8927    1.1779 H   0  0  0  0  0  0  0  0  0  0  0  0
    4.7655   -1.1368   -1.0566 H   0  0  0  0  0  0  0  0  0  0  0  0
    2.4949   -1.9439   -1.3778 H   0  0  0  0  0  0  0  0  0  0  0  0
   -0.4243   -0.3816    0.4176 H   0  0  0  0  0  0  0  0  0  0  0  0
   -2.0632   -2.8827   -1.5416 H   0  0  0  0  0  0  0  0  0  0  0  0
   -1.3804   -2.9851    1.1792 H   0  0  0  0  0  0  0  0  0  0  0  0
   -3.0429   -3.2527    0.5633 H   0  0  0  0  0  0  0  0  0  0  0  0
   -3.2279    1.2517    1.5710 H   0  0  0  0  0  0  0  0  0  0  0  0
   -5.3277    0.0893    0.9375 H   0  0  0  0  0  0  0  0  0  0  0  0
   -5.1512    0.6446   -0.7312 H   0  0  0  0  0  0  0  0  0  0  0  0
   -5.4088    1.8198    0.5689 H   0  0  0  0  0  0  0  0  0  0  0  0
   -3.0124    1.9842   -1.3959 H   0  0  0  0  0  0  0  0  0  0  0  0
   -1.7313    2.2013   -0.1936 H   0  0  0  0  0  0  0  0  0  0  0  0
   -3.2548    3.0941   -0.0406 H   0  0  0  0  0  0  0  0  0  0  0  0
   -2.0305   -0.1397   -1.7094 H   0  0  0  0  0  0  0  0  0  0  0  0
   -3.5496   -1.0548   -1.4600 H   0  0  0  0  0  0  0  0  0  0  0  0
    1.0551    1.0243    1.4167 H   0  0  0  0  0  0  0  0  0  0  0  0
    3.3274    1.8296    1.7371 H   0  0  0  0  0  0  0  0  0  0  0  0
  1  2  1  0
  2  3  2  0
  2  4  1  0
  4  5  2  0
  5  6  1  0
  6  7  2  0
  7  8  1  0
  8  9  1  0
  9 10  2  0
  9 11  1  0
 11 12  1  0
 12 13  1  0
 13 14  2  0
 13 15  1  0
 15 16  1  0
 16 17  1  0
 16 18  1  0
 15 19  1  0
  7 20  1  0
 20 21  2  0
 21  4  1  0
 19 11  1  0
  1 22  1  0
  1 23  1  0
  1 24  1  0
  5 25  1  0
  6 26  1  0
  8 27  1  0
 11 28  1  0
 12 29  1  0
 12 30  1  0
 16 31  1  0
 17 32  1  0
 17 33  1  0
 17 34  1  0
 18 35  1  0
 18 36  1  0
 18 37  1  0
 19 38  1  0
 19 39  1  0
 20 40  1  0
 21 41  1  0
M  END
$$$$
