
     RDKit          3D

 60 63  0  0  0  0  0  0  0  0999 V2000
   -9.5727   -2.0010    1.8155 C   0  0  0  0  0  0  0  0  0  0  0  0
   -8.4439   -1.2050    1.2306 C   0  0  0  0  0  0  0  0  0  0  0  0
   -7.1248   -1.4549    1.6049 C   0  0  0  0  0  0  0  0  0  0  0  0
   -6.0739   -0.7266    1.0311 C   0  0  0  0  0  0  0  0  0  0  0  0
   -6.2967    0.2684    0.0558 C   0  0  0  0  0  0  0  0  0  0  0  0
   -5.1759    0.9863   -0.5141 N   0  0  0  0  0  0  0  0  0  0  0  0
   -3.9647    0.5875    0.0131 N   0  0  0  0  0  0  0  0  0  0  0  0
   -2.8532    1.0547   -0.4679 C   0  0  0  0  0  0  0  0  0  0  0  0
   -1.6061    0.6203    0.1574 C   0  0  0  0  0  0  0  0  0  0  0  0
   -1.5826   -0.1914    1.2345 N   0  0  0  0  0  0  0  0  0  0  0  0
   -0.2243   -0.3411    1.5178 O   0  0  0  0  0  0  0  0  0  0  0  0
    0.4465    0.3837    0.5827 C   0  0  0  0  0  0  0  0  0  0  0  0
    1.8960    0.4171    0.5903 C   0  0  0  0  0  0  0  0  0  0  0  0
    2.5913   -0.1310    1.4404 O   0  0  0  0  0  0  0  0  0  0  0  0
    2.4293    1.1303   -0.4687 N   0  0  0  0  0  0  0  0  0  0  0  0
    3.8513    1.3104   -0.6908 C   0  0  0  0  0  0  0  0  0  0  0  0
    4.4088    0.3165   -1.7121 C   0  0  0  0  0  0  0  0  0  0  0  0
    4.7933   -1.0379   -1.1000 C   0  0  0  0  0  0  0  0  0  0  0  0
    5.9099   -0.9373   -0.1513 N   0  0  0  0  0  0  0  0  0  0  0  0
    6.0091   -2.1167    0.7090 C   0  0  0  0  0  0  0  0  0  0  0  0
    6.9701   -1.8411    1.8712 C   0  0  0  0  0  0  0  0  0  0  0  0
    8.2179   -1.0581    1.4545 C   0  0  0  0  0  0  0  0  0  0  0  0
    8.4252   -1.1167   -0.0516 C   0  0  0  0  0  0  0  0  0  0  0  0
    7.1880   -0.6086   -0.8048 C   0  0  0  0  0  0  0  0  0  0  0  0
   -0.3493    1.0008   -0.2691 N   0  0  0  0  0  0  0  0  0  0  0  0
   -2.8594    2.0176   -1.6258 C   0  0  0  0  0  0  0  0  0  0  0  0
   -1.8322    2.2429   -2.2539 O   0  0  0  0  0  0  0  0  0  0  0  0
   -4.0897    2.5702   -1.9120 N   0  0  0  0  0  0  0  0  0  0  0  0
   -4.1566    3.5653   -2.9657 C   0  0  0  0  0  0  0  0  0  0  0  0
   -5.2924    2.0113   -1.4772 C   0  0  0  0  0  0  0  0  0  0  0  0
   -6.3496    2.4167   -1.9630 O   0  0  0  0  0  0  0  0  0  0  0  0
   -7.6296    0.4913   -0.3160 C   0  0  0  0  0  0  0  0  0  0  0  0
   -8.6861   -0.2348    0.2571 C   0  0  0  0  0  0  0  0  0  0  0  0
  -10.4735   -1.3864    1.9100 H   0  0  0  0  0  0  0  0  0  0  0  0
   -9.7943   -2.8629    1.1777 H   0  0  0  0  0  0  0  0  0  0  0  0
   -9.3211   -2.3627    2.8192 H   0  0  0  0  0  0  0  0  0  0  0  0
   -6.8959   -2.2182    2.3465 H   0  0  0  0  0  0  0  0  0  0  0  0
   -5.0664   -0.9625    1.3688 H   0  0  0  0  0  0  0  0  0  0  0  0
    1.7718    1.5505   -1.1207 H   0  0  0  0  0  0  0  0  0  0  0  0
    4.3863    1.2695    0.2631 H   0  0  0  0  0  0  0  0  0  0  0  0
    3.9612    2.3254   -1.0881 H   0  0  0  0  0  0  0  0  0  0  0  0
    3.6712    0.1490   -2.5070 H   0  0  0  0  0  0  0  0  0  0  0  0
    5.2857    0.7608   -2.1974 H   0  0  0  0  0  0  0  0  0  0  0  0
    5.0365   -1.7474   -1.9006 H   0  0  0  0  0  0  0  0  0  0  0  0
    3.9059   -1.4407   -0.5977 H   0  0  0  0  0  0  0  0  0  0  0  0
    6.3403   -2.9926    0.1357 H   0  0  0  0  0  0  0  0  0  0  0  0
    5.0322   -2.3722    1.1398 H   0  0  0  0  0  0  0  0  0  0  0  0
    7.2656   -2.7979    2.3214 H   0  0  0  0  0  0  0  0  0  0  0  0
    6.4503   -1.2781    2.6602 H   0  0  0  0  0  0  0  0  0  0  0  0
    9.0970   -1.4481    1.9806 H   0  0  0  0  0  0  0  0  0  0  0  0
    8.1074   -0.0095    1.7635 H   0  0  0  0  0  0  0  0  0  0  0  0
    9.3016   -0.5253   -0.3382 H   0  0  0  0  0  0  0  0  0  0  0  0
    8.6334   -2.1541   -0.3452 H   0  0  0  0  0  0  0  0  0  0  0  0
    7.2538    0.4838   -0.8864 H   0  0  0  0  0  0  0  0  0  0  0  0
    7.2361   -1.0127   -1.8256 H   0  0  0  0  0  0  0  0  0  0  0  0
   -4.9386    4.2979   -2.7431 H   0  0  0  0  0  0  0  0  0  0  0  0
   -4.4029    3.0580   -3.9044 H   0  0  0  0  0  0  0  0  0  0  0  0
   -3.2036    4.0896   -3.0819 H   0  0  0  0  0  0  0  0  0  0  0  0
   -7.9098    1.2264   -1.0624 H   0  0  0  0  0  0  0  0  0  0  0  0
   -9.7032   -0.0286   -0.0701 H   0  0  0  0  0  0  0  0  0  0  0  0
  1  2  1  0
  2  3  2  0
  3  4  1  0
  4  5  2  0
  5  6  1  0
  6  7  1  0
  7  8  2  0
  8  9  1  0
  9 10  2  0
 10 11  1  0
 11 12  1  0
 12 13  1  0
 13 14  2  0
 13 15  1  0
 15 16  1  0
 16 17  1  0
 17 18  1  0
 18 19  1  0
 19 20  1  0
 20 21  1  0
 21 22  1  0
 22 23  1  0
 23 24  1  0
 12 25  2  0
  8 26  1  0
 26 27  2  0
 26 28  1  0
 28 29  1  0
 28 30  1  0
 30 31  2  0
  5 32  1  0
 32 33  2  0
 33  2  1  0
 30  6  1  0
 25  9  1  0
 24 19  1  0
  1 34  1  0
  1 35  1  0
  1 36  1  0
  3 37  1  0
  4 38  1  0
 15 39  1  0
 16 40  1  0
 16 41  1  0
 17 42  1  0
 17 43  1  0
 18 44  1  0
 18 45  1  0
 20 46  1  0
 20 47  1  0
 21 48  1  0
 21 49  1  0
 22 50  1  0
 22 51  1  0
 23 52  1  0
 23 53  1  0
 24 54  1  0
 24 55  1  0
 29 56  1  0
 29 57  1  0
 29 58  1  0
 32 59  1  0
 33 60  1  0
M  END
$$$$
