
     RDKit          3D

 50 50  0  0  0  0  0  0  0  0999 V2000
    6.7944    1.6671   -0.4410 C   0  0  0  0  0  0  0  0  0  0  0  0
    7.0393    0.7609    0.7225 C   0  0  0  0  0  0  0  0  0  0  0  0
    5.7717   -0.0180    1.0123 C   0  0  0  0  0  0  0  0  0  0  0  0
    5.4214   -0.8261   -0.2113 C   0  0  0  0  0  0  0  0  0  0  0  0
    4.3129   -1.5852   -0.0208 O   0  0  0  0  0  0  0  0  0  0  0  0
    3.0153   -1.3510    0.2108 C   0  0  0  0  0  0  0  0  0  0  0  0
    2.1581   -2.4585    0.3875 C   0  0  0  0  0  0  0  0  0  0  0  0
    0.8224   -2.2699    0.6244 C   0  0  0  0  0  0  0  0  0  0  0  0
    0.2496   -1.0311    0.7028 C   0  0  0  0  0  0  0  0  0  0  0  0
   -1.1562   -0.8901    0.9491 C   0  0  0  0  0  0  0  0  0  0  0  0
   -1.8563   -1.9229    1.0985 O   0  0  0  0  0  0  0  0  0  0  0  0
   -1.7475    0.4759    1.0169 C   0  0  0  0  0  0  0  0  0  0  0  0
   -3.2435    0.4085    1.2392 C   0  0  0  0  0  0  0  0  0  0  0  0
   -3.9609   -0.2721    0.2110 N   0  0  0  0  0  0  0  0  0  0  0  0
   -3.9643    0.4919   -1.0093 C   0  0  0  0  0  0  0  0  0  0  0  0
   -5.0419    1.5698   -0.9682 C   0  0  0  0  0  0  0  0  0  0  0  0
   -6.4005    0.9333   -0.9170 C   0  0  0  0  0  0  0  0  0  0  0  0
   -6.2518   -0.5197   -0.5988 C   0  0  0  0  0  0  0  0  0  0  0  0
   -5.2612   -0.7474    0.5383 C   0  0  0  0  0  0  0  0  0  0  0  0
    1.0610    0.0606    0.5352 C   0  0  0  0  0  0  0  0  0  0  0  0
    2.4319   -0.1141    0.2909 C   0  0  0  0  0  0  0  0  0  0  0  0
    0.6900    0.0000    0.0000 Cl  0  0  0  0  0  0  0  0  0  0  0  0
    6.8835    1.0759   -1.3764 H   0  0  0  0  0  0  0  0  0  0  0  0
    7.5875    2.4569   -0.3918 H   0  0  0  0  0  0  0  0  0  0  0  0
    5.8332    2.1701   -0.3191 H   0  0  0  0  0  0  0  0  0  0  0  0
    7.8816    0.0896    0.4702 H   0  0  0  0  0  0  0  0  0  0  0  0
    7.2864    1.3192    1.6587 H   0  0  0  0  0  0  0  0  0  0  0  0
    4.9600    0.6149    1.3614 H   0  0  0  0  0  0  0  0  0  0  0  0
    6.0422   -0.7772    1.8072 H   0  0  0  0  0  0  0  0  0  0  0  0
    6.3105   -1.4469   -0.4946 H   0  0  0  0  0  0  0  0  0  0  0  0
    5.2764   -0.0592   -1.0326 H   0  0  0  0  0  0  0  0  0  0  0  0
    2.6128   -3.4461    0.3266 H   0  0  0  0  0  0  0  0  0  0  0  0
    0.2265   -3.1913    0.7520 H   0  0  0  0  0  0  0  0  0  0  0  0
   -1.3256    1.0152    1.8971 H   0  0  0  0  0  0  0  0  0  0  0  0
   -1.4509    1.0111    0.1064 H   0  0  0  0  0  0  0  0  0  0  0  0
   -3.4229   -0.0605    2.2453 H   0  0  0  0  0  0  0  0  0  0  0  0
   -3.5680    1.4780    1.3676 H   0  0  0  0  0  0  0  0  0  0  0  0
   -3.0110    1.0529   -1.1708 H   0  0  0  0  0  0  0  0  0  0  0  0
   -4.0905   -0.1549   -1.9085 H   0  0  0  0  0  0  0  0  0  0  0  0
   -4.9616    2.2038   -1.8820 H   0  0  0  0  0  0  0  0  0  0  0  0
   -4.9199    2.1492   -0.0388 H   0  0  0  0  0  0  0  0  0  0  0  0
   -7.0407    1.4044   -0.1250 H   0  0  0  0  0  0  0  0  0  0  0  0
   -6.9873    1.0437   -1.8667 H   0  0  0  0  0  0  0  0  0  0  0  0
   -5.9152   -1.1174   -1.4803 H   0  0  0  0  0  0  0  0  0  0  0  0
   -7.2152   -0.9418   -0.2723 H   0  0  0  0  0  0  0  0  0  0  0  0
   -5.2963   -1.8526    0.7377 H   0  0  0  0  0  0  0  0  0  0  0  0
   -5.6564   -0.2566    1.4361 H   0  0  0  0  0  0  0  0  0  0  0  0
    0.7157    1.0762    0.5806 H   0  0  0  0  0  0  0  0  0  0  0  0
    3.0511    0.7813    0.1432 H   0  0  0  0  0  0  0  0  0  0  0  0
   -0.6900    0.0000    0.0000 H   0  0  0  0  0  0  0  0  0  0  0  0
  1  2  1  0
  2  3  1  0
  3  4  1  0
  4  5  1  0
  5  6  1  0
  6  7  2  0
  7  8  1  0
  8  9  2  0
  9 10  1  0
 10 11  2  0
 10 12  1  0
 12 13  1  0
 13 14  1  0
 14 15  1  0
 15 16  1  0
 16 17  1  0
 17 18  1  0
 18 19  1  0
  9 20  1  0
 20 21  2  0
 21  6  1  0
 19 14  1  0
  1 23  1  0
  1 24  1  0
  1 25  1  0
  2 26  1  0
  2 27  1  0
  3 28  1  0
  3 29  1  0
  4 30  1  0
  4 31  1  0
  7 32  1  0
  8 33  1  0
 12 34  1  0
 12 35  1  0
 13 36  1  0
 13 37  1  0
 15 38  1  0
 15 39  1  0
 16 40  1  0
 16 41  1  0
 17 42  1  0
 17 43  1  0
 18 44  1  0
 18 45  1  0
 19 46  1  0
 19 47  1  0
 20 48  1  0
 21 49  1  0
 22 50  1  0
M  END
$$$$
