
     RDKit          3D

 44 46  0  0  0  0  0  0  0  0999 V2000
   -5.5377    1.9762   -0.0874 C   0  0  0  0  0  0  0  0  0  0  0  0
   -4.7069    1.6521    1.1387 C   0  0  0  0  0  0  0  0  0  0  0  0
   -3.6631    0.7365    0.8241 O   0  0  0  0  0  0  0  0  0  0  0  0
   -2.4633    1.1521    0.2720 C   0  0  0  0  0  0  0  0  0  0  0  0
   -2.1710    2.4473    0.0735 C   0  0  0  0  0  0  0  0  0  0  0  0
   -0.8329    2.7747   -0.4254 C   0  0  0  0  0  0  0  0  0  0  0  0
   -0.4711    3.9347   -0.5437 O   0  0  0  0  0  0  0  0  0  0  0  0
    0.0967    1.6315   -0.7117 C   0  0  0  0  0  0  0  0  0  0  0  0
    1.4942    1.8462   -1.2576 C   0  0  0  0  0  0  0  0  0  0  0  0
    1.6815    2.5954   -2.2022 O   0  0  0  0  0  0  0  0  0  0  0  0
    2.4660    1.1119   -0.6154 N   0  0  0  0  0  0  0  0  0  0  0  0
    3.8457    1.1816   -1.0220 C   0  0  0  0  0  0  0  0  0  0  0  0
    4.6640    0.1398   -0.3248 C   0  0  0  0  0  0  0  0  0  0  0  0
    5.2976    0.4005    0.8946 C   0  0  0  0  0  0  0  0  0  0  0  0
    6.0133   -0.6100    1.5291 C   0  0  0  0  0  0  0  0  0  0  0  0
    6.0636   -1.8555    0.9262 C   0  0  0  0  0  0  0  0  0  0  0  0
    5.4570   -2.1478   -0.2446 N   0  0  0  0  0  0  0  0  0  0  0  0
    4.7719   -1.1476   -0.8415 C   0  0  0  0  0  0  0  0  0  0  0  0
   -0.2470    0.3968   -0.4804 N   0  0  0  0  0  0  0  0  0  0  0  0
   -1.5257    0.1416   -0.0276 N   0  0  0  0  0  0  0  0  0  0  0  0
   -1.8265   -1.2641   -0.0046 C   0  0  0  0  0  0  0  0  0  0  0  0
   -0.8315   -2.1952    0.3615 C   0  0  0  0  0  0  0  0  0  0  0  0
   -1.0889   -3.5697    0.3730 C   0  0  0  0  0  0  0  0  0  0  0  0
   -2.3451   -4.0323    0.0094 C   0  0  0  0  0  0  0  0  0  0  0  0
   -2.5935   -5.3493    0.0152 F   0  0  0  0  0  0  0  0  0  0  0  0
   -3.3419   -3.1489   -0.3771 C   0  0  0  0  0  0  0  0  0  0  0  0
   -3.0820   -1.7735   -0.3835 C   0  0  0  0  0  0  0  0  0  0  0  0
   -6.3758    2.6251    0.1758 H   0  0  0  0  0  0  0  0  0  0  0  0
   -5.9374    1.0617   -0.5409 H   0  0  0  0  0  0  0  0  0  0  0  0
   -4.9409    2.4762   -0.8549 H   0  0  0  0  0  0  0  0  0  0  0  0
   -5.3496    1.1474    1.8687 H   0  0  0  0  0  0  0  0  0  0  0  0
   -4.3283    2.5504    1.6366 H   0  0  0  0  0  0  0  0  0  0  0  0
   -2.8174    3.2852    0.2823 H   0  0  0  0  0  0  0  0  0  0  0  0
    2.1851    0.4890    0.1362 H   0  0  0  0  0  0  0  0  0  0  0  0
    4.2169    2.1875   -0.7944 H   0  0  0  0  0  0  0  0  0  0  0  0
    3.9082    1.0642   -2.1099 H   0  0  0  0  0  0  0  0  0  0  0  0
    5.2365    1.3851    1.3512 H   0  0  0  0  0  0  0  0  0  0  0  0
    6.5173   -0.4358    2.4755 H   0  0  0  0  0  0  0  0  0  0  0  0
    6.6136   -2.6760    1.3772 H   0  0  0  0  0  0  0  0  0  0  0  0
    4.2915   -1.4228   -1.7777 H   0  0  0  0  0  0  0  0  0  0  0  0
    0.1563   -1.8478    0.6545 H   0  0  0  0  0  0  0  0  0  0  0  0
   -0.3193   -4.2787    0.6649 H   0  0  0  0  0  0  0  0  0  0  0  0
   -4.3120   -3.5276   -0.6843 H   0  0  0  0  0  0  0  0  0  0  0  0
   -3.8686   -1.1080   -0.7286 H   0  0  0  0  0  0  0  0  0  0  0  0
  1  2  1  0
  2  3  1  0
  3  4  1  0
  4  5  2  0
  5  6  1  0
  6  7  2  0
  6  8  1  0
  8  9  1  0
  9 10  2  0
  9 11  1  0
 11 12  1  0
 12 13  1  0
 13 14  2  0
 14 15  1  0
 15 16  2  0
 16 17  1  0
 17 18  2  0
  8 19  2  0
 19 20  1  0
 20 21  1  0
 21 22  2  0
 22 23  1  0
 23 24  2  0
 24 25  1  0
 24 26  1  0
 26 27  2  0
 20  4  1  0
 27 21  1  0
 18 13  1  0
  1 28  1  0
  1 29  1  0
  1 30  1  0
  2 31  1  0
  2 32  1  0
  5 33  1  0
 11 34  1  0
 12 35  1  0
 12 36  1  0
 14 37  1  0
 15 38  1  0
 16 39  1  0
 18 40  1  0
 22 41  1  0
 23 42  1  0
 26 43  1  0
 27 44  1  0
M  END
$$$$
