
     RDKit          3D

 49 50  0  0  0  0  0  0  0  0999 V2000
    0.6828    0.0000    0.0000 Cl  0  0  0  0  0  0  0  0  0  0  0  0
    0.6926    0.0000    0.0000 Cl  0  0  0  0  0  0  0  0  0  0  0  0
   -1.1810    4.5456   -0.7267 N   0  0  0  0  0  0  0  0  0  0  0  0
   -1.3030    3.3376   -0.0059 C   0  0  0  0  0  0  0  0  0  0  0  0
   -1.9802    3.3815    1.1786 N   0  0  0  0  0  0  0  0  0  0  0  0
   -2.1294    2.2624    1.9094 C   0  0  0  0  0  0  0  0  0  0  0  0
   -1.5880    1.0738    1.4429 C   0  0  0  0  0  0  0  0  0  0  0  0
   -0.9029    1.0152    0.2506 C   0  0  0  0  0  0  0  0  0  0  0  0
   -0.3304   -0.2256   -0.2502 C   0  0  0  0  0  0  0  0  0  0  0  0
   -1.0497   -1.3322   -0.5712 C   0  0  0  0  0  0  0  0  0  0  0  0
   -2.4908   -1.5598   -0.5023 C   0  0  0  0  0  0  0  0  0  0  0  0
   -2.9862   -2.5714    0.3080 C   0  0  0  0  0  0  0  0  0  0  0  0
   -4.3291   -2.8303    0.4128 C   0  0  0  0  0  0  0  0  0  0  0  0
   -5.2511   -2.0719   -0.3037 C   0  0  0  0  0  0  0  0  0  0  0  0
   -6.5906   -2.3349   -0.1950 F   0  0  0  0  0  0  0  0  0  0  0  0
   -4.7822   -1.0579   -1.1182 C   0  0  0  0  0  0  0  0  0  0  0  0
   -3.4149   -0.8128   -1.2093 C   0  0  0  0  0  0  0  0  0  0  0  0
   -0.1756   -2.2510   -0.9901 N   0  0  0  0  0  0  0  0  0  0  0  0
    1.0648   -1.6996   -0.9213 C   0  0  0  0  0  0  0  0  0  0  0  0
    1.0019   -0.4466   -0.4670 N   0  0  0  0  0  0  0  0  0  0  0  0
    2.0714    0.5063   -0.2369 C   0  0  0  0  0  0  0  0  0  0  0  0
    2.5769    0.4543    1.1927 C   0  0  0  0  0  0  0  0  0  0  0  0
    3.4621   -0.7473    1.4220 C   0  0  0  0  0  0  0  0  0  0  0  0
    4.5948   -0.7816    0.4591 C   0  0  0  0  0  0  0  0  0  0  0  0
    4.2787   -0.4922   -0.9583 C   0  0  0  0  0  0  0  0  0  0  0  0
    3.1641    0.4301   -1.2419 C   0  0  0  0  0  0  0  0  0  0  0  0
   -0.7868    2.1733   -0.4379 N   0  0  0  0  0  0  0  0  0  0  0  0
   -0.6828    0.0000    0.0000 H   0  0  0  0  0  0  0  0  0  0  0  0
   -0.6926    0.0000    0.0000 H   0  0  0  0  0  0  0  0  0  0  0  0
   -1.8674    4.7967   -1.4590 H   0  0  0  0  0  0  0  0  0  0  0  0
   -0.4019    5.1933   -0.5286 H   0  0  0  0  0  0  0  0  0  0  0  0
   -2.6696    2.3269    2.8407 H   0  0  0  0  0  0  0  0  0  0  0  0
   -1.7051    0.1711    2.0272 H   0  0  0  0  0  0  0  0  0  0  0  0
   -2.3039   -3.2045    0.8975 H   0  0  0  0  0  0  0  0  0  0  0  0
   -4.6826   -3.6349    1.0606 H   0  0  0  0  0  0  0  0  0  0  0  0
   -5.5055   -0.4764   -1.6690 H   0  0  0  0  0  0  0  0  0  0  0  0
   -3.0649   -0.0124   -1.8535 H   0  0  0  0  0  0  0  0  0  0  0  0
    1.9357   -2.2361   -1.2035 H   0  0  0  0  0  0  0  0  0  0  0  0
    1.5953    1.5223   -0.3378 H   0  0  0  0  0  0  0  0  0  0  0  0
    1.7313    0.4257    1.8778 H   0  0  0  0  0  0  0  0  0  0  0  0
    3.1465    1.3801    1.3665 H   0  0  0  0  0  0  0  0  0  0  0  0
    2.8553   -1.6693    1.3872 H   0  0  0  0  0  0  0  0  0  0  0  0
    3.8963   -0.6279    2.4475 H   0  0  0  0  0  0  0  0  0  0  0  0
    5.4478   -0.1354    0.8222 H   0  0  0  0  0  0  0  0  0  0  0  0
    5.0321   -1.8236    0.5102 H   0  0  0  0  0  0  0  0  0  0  0  0
    4.1776   -1.4606   -1.5350 H   0  0  0  0  0  0  0  0  0  0  0  0
    5.2140   -0.0450   -1.4159 H   0  0  0  0  0  0  0  0  0  0  0  0
    3.5402    1.4498   -1.4650 H   0  0  0  0  0  0  0  0  0  0  0  0
    2.6862    0.0952   -2.2103 H   0  0  0  0  0  0  0  0  0  0  0  0
  3  4  1  0
  4  5  2  0
  5  6  1  0
  6  7  2  0
  7  8  1  0
  8  9  1  0
  9 10  2  0
 10 11  1  0
 11 12  2  0
 12 13  1  0
 13 14  2  0
 14 15  1  0
 14 16  1  0
 16 17  2  0
 10 18  1  0
 18 19  2  0
 19 20  1  0
 20 21  1  0
 21 22  1  0
 22 23  1  0
 23 24  1  0
 24 25  1  0
 25 26  1  0
  8 27  2  0
 27  4  1  0
 20  9  1  0
 26 21  1  0
 17 11  1  0
  1 28  1  0
  2 29  1  0
  3 30  1  0
  3 31  1  0
  6 32  1  0
  7 33  1  0
 12 34  1  0
 13 35  1  0
 16 36  1  0
 17 37  1  0
 19 38  1  0
 21 39  1  0
 22 40  1  0
 22 41  1  0
 23 42  1  0
 23 43  1  0
 24 44  1  0
 24 45  1  0
 25 46  1  0
 25 47  1  0
 26 48  1  0
 26 49  1  0
M  END
$$$$
