
     RDKit          3D

 65 67  0  0  0  0  0  0  0  0999 V2000
    1.8157   -5.0838   -0.1109 C   0  0  0  0  0  0  0  0  0  0  0  0
    2.8173   -4.1135    0.4881 C   0  0  0  0  0  0  0  0  0  0  0  0
    2.7134   -2.8347   -0.1547 O   0  0  0  0  0  0  0  0  0  0  0  0
    1.7559   -1.9846    0.3308 C   0  0  0  0  0  0  0  0  0  0  0  0
    1.0136   -2.2562    1.2676 O   0  0  0  0  0  0  0  0  0  0  0  0
    1.7560   -0.6869   -0.5046 C   0  0  2  0  0  0  0  0  0  0  0  0
    3.0598    0.0937   -0.2894 C   0  0  0  0  0  0  0  0  0  0  0  0
    3.2431    1.2432   -1.2857 C   0  0  0  0  0  0  0  0  0  0  0  0
    4.5148    2.0097   -1.0091 C   0  0  0  0  0  0  0  0  0  0  0  0
    4.4806    3.1954   -0.2643 C   0  0  0  0  0  0  0  0  0  0  0  0
    5.6584    3.8937    0.0092 C   0  0  0  0  0  0  0  0  0  0  0  0
    6.8810    3.4112   -0.4544 C   0  0  0  0  0  0  0  0  0  0  0  0
    6.9266    2.2306   -1.1923 C   0  0  0  0  0  0  0  0  0  0  0  0
    5.7494    1.5326   -1.4702 C   0  0  0  0  0  0  0  0  0  0  0  0
    0.4867    0.0741   -0.4462 N   0  0  0  0  0  0  0  0  0  0  0  0
    0.0104    0.6852    0.8143 C   0  0  1  0  0  0  0  0  0  0  0  0
    0.8553    1.8438    1.3415 C   0  0  0  0  0  0  0  0  0  0  0  0
   -1.4211    1.2540    0.5064 C   0  0  0  0  0  0  0  0  0  0  0  0
   -1.5860    2.4219    0.1414 O   0  0  0  0  0  0  0  0  0  0  0  0
   -2.4866    0.3654    0.5553 N   0  0  0  0  0  0  0  0  0  0  0  0
   -2.5731   -0.7822    1.4751 C   0  0  2  0  0  0  0  0  0  0  0  0
   -1.8571   -2.0065    0.9195 C   0  0  0  0  0  0  0  0  0  0  0  0
   -1.5223   -2.1973   -0.2402 O   0  0  0  0  0  0  0  0  0  0  0  0
   -1.4952   -2.8530    1.9089 O   0  0  0  0  0  0  0  0  0  0  0  0
   -4.0754   -1.0384    1.6646 C   0  0  0  0  0  0  0  0  0  0  0  0
   -4.6546   -0.4937    0.3656 C   0  0  1  0  0  0  0  0  0  0  0  0
   -6.1412   -0.1725    0.3398 C   0  0  0  0  0  0  0  0  0  0  0  0
   -6.4627    0.9006   -0.7143 C   0  0  0  0  0  0  0  0  0  0  0  0
   -5.4147    0.9786   -1.8314 C   0  0  0  0  0  0  0  0  0  0  0  0
   -3.9911    1.2402   -1.3056 C   0  0  0  0  0  0  0  0  0  0  0  0
   -3.8206    0.7670    0.1388 C   0  0  2  0  0  0  0  0  0  0  0  0
    1.9438   -5.1496   -1.1966 H   0  0  0  0  0  0  0  0  0  0  0  0
    1.9351   -6.0824    0.3191 H   0  0  0  0  0  0  0  0  0  0  0  0
    0.7887   -4.7492    0.0671 H   0  0  0  0  0  0  0  0  0  0  0  0
    2.6905   -4.0228    1.5724 H   0  0  0  0  0  0  0  0  0  0  0  0
    3.8334   -4.4783    0.3104 H   0  0  0  0  0  0  0  0  0  0  0  0
    1.7824   -1.0433   -1.5453 H   0  0  0  0  0  0  0  0  0  0  0  0
    3.1426    0.4449    0.7427 H   0  0  0  0  0  0  0  0  0  0  0  0
    3.9089   -0.5945   -0.4063 H   0  0  0  0  0  0  0  0  0  0  0  0
    2.3926    1.9322   -1.2599 H   0  0  0  0  0  0  0  0  0  0  0  0
    3.2780    0.8511   -2.3108 H   0  0  0  0  0  0  0  0  0  0  0  0
    3.5337    3.5835    0.1055 H   0  0  0  0  0  0  0  0  0  0  0  0
    5.6213    4.8160    0.5826 H   0  0  0  0  0  0  0  0  0  0  0  0
    7.7966    3.9562   -0.2395 H   0  0  0  0  0  0  0  0  0  0  0  0
    7.8792    1.8531   -1.5545 H   0  0  0  0  0  0  0  0  0  0  0  0
    5.8005    0.6140   -2.0503 H   0  0  0  0  0  0  0  0  0  0  0  0
   -0.2591   -0.5527   -0.7766 H   0  0  0  0  0  0  0  0  0  0  0  0
   -0.0663   -0.0583    1.6086 H   0  0  0  0  0  0  0  0  0  0  0  0
    1.1146    2.5536    0.5501 H   0  0  0  0  0  0  0  0  0  0  0  0
    0.3053    2.4079    2.1038 H   0  0  0  0  0  0  0  0  0  0  0  0
    1.7704    1.4927    1.8212 H   0  0  0  0  0  0  0  0  0  0  0  0
   -2.1020   -0.5020    2.4244 H   0  0  0  0  0  0  0  0  0  0  0  0
   -0.6503   -3.2369    1.5769 H   0  0  0  0  0  0  0  0  0  0  0  0
   -4.4410   -0.4530    2.5196 H   0  0  0  0  0  0  0  0  0  0  0  0
   -4.3299   -2.0909    1.8351 H   0  0  0  0  0  0  0  0  0  0  0  0
   -4.4420   -1.2253   -0.4287 H   0  0  0  0  0  0  0  0  0  0  0  0
   -6.7004   -1.0890    0.1195 H   0  0  0  0  0  0  0  0  0  0  0  0
   -6.4924    0.1721    1.3187 H   0  0  0  0  0  0  0  0  0  0  0  0
   -7.4551    0.7107   -1.1400 H   0  0  0  0  0  0  0  0  0  0  0  0
   -6.5209    1.8784   -0.2195 H   0  0  0  0  0  0  0  0  0  0  0  0
   -5.6900    1.7591   -2.5504 H   0  0  0  0  0  0  0  0  0  0  0  0
   -5.4208    0.0321   -2.3874 H   0  0  0  0  0  0  0  0  0  0  0  0
   -3.2666    0.7528   -1.9687 H   0  0  0  0  0  0  0  0  0  0  0  0
   -3.7769    2.3142   -1.3594 H   0  0  0  0  0  0  0  0  0  0  0  0
   -4.1405    1.5659    0.8227 H   0  0  0  0  0  0  0  0  0  0  0  0
  1  2  1  0
  2  3  1  0
  3  4  1  0
  4  5  2  0
  4  6  1  0
  6  7  1  0
  7  8  1  0
  8  9  1  0
  9 10  2  0
 10 11  1  0
 11 12  2  0
 12 13  1  0
 13 14  2  0
  6 15  1  0
 15 16  1  0
 16 17  1  0
 16 18  1  0
 18 19  2  0
 18 20  1  0
 20 21  1  0
 21 22  1  0
 22 23  2  0
 22 24  1  0
 21 25  1  0
 25 26  1  0
 26 27  1  0
 27 28  1  0
 28 29  1  0
 29 30  1  0
 30 31  1  0
 14  9  1  0
 31 20  1  0
 31 26  1  0
  1 32  1  0
  1 33  1  0
  1 34  1  0
  2 35  1  0
  2 36  1  0
  6 37  1  6
  7 38  1  0
  7 39  1  0
  8 40  1  0
  8 41  1  0
 10 42  1  0
 11 43  1  0
 12 44  1  0
 13 45  1  0
 14 46  1  0
 15 47  1  0
 16 48  1  1
 17 49  1  0
 17 50  1  0
 17 51  1  0
 21 52  1  1
 24 53  1  0
 25 54  1  0
 25 55  1  0
 26 56  1  6
 27 57  1  0
 27 58  1  0
 28 59  1  0
 28 60  1  0
 29 61  1  0
 29 62  1  0
 30 63  1  0
 30 64  1  0
 31 65  1  1
M  END
$$$$
