
     RDKit          3D

 44 45  0  0  0  0  0  0  0  0999 V2000
    2.4151   -0.3519    1.9218 C   0  0  0  0  0  0  0  0  0  0  0  0
    1.7156    0.8652    1.3386 C   0  0  0  0  0  0  0  0  0  0  0  0
    2.2778    1.3001    0.0549 N   0  0  0  0  0  0  0  0  0  0  0  0
    3.4602    2.1666    0.1158 C   0  0  0  0  0  0  0  0  0  0  0  0
    4.7755    1.4111   -0.0139 C   0  0  0  0  0  0  0  0  0  0  0  0
    1.8942    0.8369   -1.2007 C   0  0  0  0  0  0  0  0  0  0  0  0
    2.5054    1.2004   -2.2166 O   0  0  0  0  0  0  0  0  0  0  0  0
    0.6444   -0.0618   -1.4055 C   0  0  0  0  0  0  0  0  0  0  0  0
   -0.5365    0.8245   -1.8499 C   0  0  0  0  0  0  0  0  0  0  0  0
   -1.4714    1.2153   -0.7157 C   0  0  0  0  0  0  0  0  0  0  0  0
   -2.3184    0.0982   -0.2045 N   0  0  0  0  0  0  0  0  0  0  0  0
   -2.8538    0.2680    1.4226 S   0  0  0  0  0  6  0  0  0  0  0  0
   -4.0345    1.5858    1.2337 C   0  0  0  0  0  0  0  0  0  0  0  0
   -1.7550    0.7599    2.2272 O   0  0  0  0  0  0  0  0  0  0  0  0
   -3.6030   -0.9064    1.8181 O   0  0  0  0  0  0  0  0  0  0  0  0
   -2.0238   -1.2623   -0.5943 C   0  0  0  0  0  0  0  0  0  0  0  0
   -3.0841   -2.1281   -0.8746 C   0  0  0  0  0  0  0  0  0  0  0  0
   -2.8293   -3.4682   -1.1665 C   0  0  0  0  0  0  0  0  0  0  0  0
   -4.1388   -4.5271   -1.5215 Cl  0  0  0  0  0  0  0  0  0  0  0  0
   -1.5247   -3.9619   -1.1672 C   0  0  0  0  0  0  0  0  0  0  0  0
   -0.4617   -3.1060   -0.8816 C   0  0  0  0  0  0  0  0  0  0  0  0
   -0.7138   -1.7606   -0.6151 C   0  0  0  0  0  0  0  0  0  0  0  0
    0.3581   -0.9589   -0.3398 O   0  0  0  0  0  0  0  0  0  0  0  0
    1.8626   -0.7226    2.7910 H   0  0  0  0  0  0  0  0  0  0  0  0
    2.4971   -1.1634    1.1928 H   0  0  0  0  0  0  0  0  0  0  0  0
    3.4246   -0.1012    2.2587 H   0  0  0  0  0  0  0  0  0  0  0  0
    0.6561    0.6547    1.2223 H   0  0  0  0  0  0  0  0  0  0  0  0
    1.7713    1.7017    2.0447 H   0  0  0  0  0  0  0  0  0  0  0  0
    3.3927    2.8994   -0.6974 H   0  0  0  0  0  0  0  0  0  0  0  0
    3.4429    2.7372    1.0508 H   0  0  0  0  0  0  0  0  0  0  0  0
    4.9192    0.7078    0.8098 H   0  0  0  0  0  0  0  0  0  0  0  0
    4.8239    0.8424   -0.9475 H   0  0  0  0  0  0  0  0  0  0  0  0
    5.6142    2.1145   -0.0030 H   0  0  0  0  0  0  0  0  0  0  0  0
    0.9312   -0.6859   -2.2670 H   0  0  0  0  0  0  0  0  0  0  0  0
   -0.1631    1.7358   -2.3340 H   0  0  0  0  0  0  0  0  0  0  0  0
   -1.1094    0.2991   -2.6260 H   0  0  0  0  0  0  0  0  0  0  0  0
   -0.9015    1.6939    0.0839 H   0  0  0  0  0  0  0  0  0  0  0  0
   -2.1634    1.9749   -1.1006 H   0  0  0  0  0  0  0  0  0  0  0  0
   -4.5009    1.7593    2.2062 H   0  0  0  0  0  0  0  0  0  0  0  0
   -3.5198    2.4912    0.9087 H   0  0  0  0  0  0  0  0  0  0  0  0
   -4.7930    1.2810    0.5103 H   0  0  0  0  0  0  0  0  0  0  0  0
   -4.1070   -1.7642   -0.8472 H   0  0  0  0  0  0  0  0  0  0  0  0
   -1.3320   -5.0100   -1.3815 H   0  0  0  0  0  0  0  0  0  0  0  0
    0.5568   -3.4845   -0.8697 H   0  0  0  0  0  0  0  0  0  0  0  0
  1  2  1  0
  2  3  1  0
  3  4  1  0
  4  5  1  0
  3  6  1  0
  6  7  2  0
  6  8  1  0
  8  9  1  0
  9 10  1  0
 10 11  1  0
 11 12  1  0
 12 13  1  0
 12 14  2  0
 12 15  2  0
 11 16  1  0
 16 17  2  0
 17 18  1  0
 18 19  1  0
 18 20  2  0
 20 21  1  0
 21 22  2  0
 22 23  1  0
 23  8  1  0
 22 16  1  0
  1 24  1  0
  1 25  1  0
  1 26  1  0
  2 27  1  0
  2 28  1  0
  4 29  1  0
  4 30  1  0
  5 31  1  0
  5 32  1  0
  5 33  1  0
  8 34  1  0
  9 35  1  0
  9 36  1  0
 10 37  1  0
 10 38  1  0
 13 39  1  0
 13 40  1  0
 13 41  1  0
 17 42  1  0
 20 43  1  0
 21 44  1  0
M  END
$$$$
