
     RDKit          3D

 54 56  0  0  0  0  0  0  0  0999 V2000
    0.7891   -1.9079    2.8126 C   0  0  0  0  0  0  0  0  0  0  0  0
    1.2215   -1.0412    1.8768 C   0  0  0  0  0  0  0  0  0  0  0  0
    2.4819   -0.2876    2.1011 C   0  0  0  0  0  0  0  0  0  0  0  0
    2.5489    1.0730    1.7665 C   0  0  0  0  0  0  0  0  0  0  0  0
    3.7317    1.7979    1.9463 C   0  0  0  0  0  0  0  0  0  0  0  0
    4.8716    1.1689    2.4570 C   0  0  0  0  0  0  0  0  0  0  0  0
    6.1035    1.9758    2.6298 C   0  0  0  0  0  0  0  0  0  0  0  0
    6.2251    3.1584    2.3691 O   0  0  0  0  0  0  0  0  0  0  0  0
    7.1310    1.2620    3.1236 O   0  0  0  0  0  0  0  0  0  0  0  0
    4.8210   -0.1905    2.7822 C   0  0  0  0  0  0  0  0  0  0  0  0
    3.6355   -0.9118    2.6011 C   0  0  0  0  0  0  0  0  0  0  0  0
    0.3622   -0.8808    0.6755 C   0  0  0  0  0  0  0  0  0  0  0  0
   -0.8705   -0.2201    0.8104 C   0  0  0  0  0  0  0  0  0  0  0  0
   -1.7377    0.0057   -0.2816 C   0  0  0  0  0  0  0  0  0  0  0  0
   -1.3622   -0.4915   -1.5488 C   0  0  0  0  0  0  0  0  0  0  0  0
   -0.1100   -1.1355   -1.6760 C   0  0  0  0  0  0  0  0  0  0  0  0
    0.7505   -1.3453   -0.5863 C   0  0  0  0  0  0  0  0  0  0  0  0
    2.0677   -2.0344   -0.8158 C   0  0  0  0  0  0  0  0  0  0  0  0
   -2.2440   -0.3193   -2.7937 C   0  0  0  0  0  0  0  0  0  0  0  0
   -1.6117    0.7572   -3.7035 C   0  0  0  0  0  0  0  0  0  0  0  0
   -2.3613   -1.6329   -3.6034 C   0  0  0  0  0  0  0  0  0  0  0  0
   -3.6854    0.0904   -2.4180 C   0  0  0  0  0  0  0  0  0  0  0  0
   -3.7091    1.1934   -1.3736 C   0  0  0  0  0  0  0  0  0  0  0  0
   -3.0611    0.7456   -0.0447 C   0  0  0  0  0  0  0  0  0  0  0  0
   -4.0221   -0.1923    0.7189 C   0  0  0  0  0  0  0  0  0  0  0  0
   -2.8619    2.0285    0.7975 C   0  0  0  0  0  0  0  0  0  0  0  0
    1.3241   -2.0745    3.7419 H   0  0  0  0  0  0  0  0  0  0  0  0
   -0.1290   -2.4747    2.6814 H   0  0  0  0  0  0  0  0  0  0  0  0
    1.6770    1.5852    1.3640 H   0  0  0  0  0  0  0  0  0  0  0  0
    3.7571    2.8536    1.6832 H   0  0  0  0  0  0  0  0  0  0  0  0
    7.8602    1.9142    3.1822 H   0  0  0  0  0  0  0  0  0  0  0  0
    5.6978   -0.7018    3.1720 H   0  0  0  0  0  0  0  0  0  0  0  0
    3.6276   -1.9727    2.8419 H   0  0  0  0  0  0  0  0  0  0  0  0
   -1.1527    0.1276    1.8026 H   0  0  0  0  0  0  0  0  0  0  0  0
    0.2152   -1.4831   -2.6550 H   0  0  0  0  0  0  0  0  0  0  0  0
    2.0965   -2.5228   -1.7959 H   0  0  0  0  0  0  0  0  0  0  0  0
    2.2352   -2.8170   -0.0688 H   0  0  0  0  0  0  0  0  0  0  0  0
    2.8862   -1.3091   -0.7782 H   0  0  0  0  0  0  0  0  0  0  0  0
   -0.6330    0.4399   -4.0827 H   0  0  0  0  0  0  0  0  0  0  0  0
   -2.2458    0.9614   -4.5738 H   0  0  0  0  0  0  0  0  0  0  0  0
   -1.4552    1.7026   -3.1728 H   0  0  0  0  0  0  0  0  0  0  0  0
   -3.0774   -1.5226   -4.4267 H   0  0  0  0  0  0  0  0  0  0  0  0
   -2.7049   -2.4591   -2.9699 H   0  0  0  0  0  0  0  0  0  0  0  0
   -1.4102   -1.9355   -4.0536 H   0  0  0  0  0  0  0  0  0  0  0  0
   -4.2278    0.4273   -3.3110 H   0  0  0  0  0  0  0  0  0  0  0  0
   -4.2422   -0.7767   -2.0409 H   0  0  0  0  0  0  0  0  0  0  0  0
   -3.1943    2.0777   -1.7698 H   0  0  0  0  0  0  0  0  0  0  0  0
   -4.7474    1.5056   -1.2017 H   0  0  0  0  0  0  0  0  0  0  0  0
   -3.6397   -0.4344    1.7176 H   0  0  0  0  0  0  0  0  0  0  0  0
   -5.0055    0.2729    0.8523 H   0  0  0  0  0  0  0  0  0  0  0  0
   -4.1689   -1.1435    0.1959 H   0  0  0  0  0  0  0  0  0  0  0  0
   -2.1016    2.6808    0.3517 H   0  0  0  0  0  0  0  0  0  0  0  0
   -2.5504    1.8127    1.8249 H   0  0  0  0  0  0  0  0  0  0  0  0
   -3.7950    2.6005    0.8660 H   0  0  0  0  0  0  0  0  0  0  0  0
  1  2  2  3
  2  3  1  0
  3  4  2  0
  4  5  1  0
  5  6  2  0
  6  7  1  0
  7  8  2  0
  7  9  1  0
  6 10  1  0
 10 11  2  0
  2 12  1  0
 12 13  2  0
 13 14  1  0
 14 15  2  0
 15 16  1  0
 16 17  2  0
 17 18  1  0
 15 19  1  0
 19 20  1  0
 19 21  1  0
 19 22  1  0
 22 23  1  0
 23 24  1  0
 24 25  1  0
 24 26  1  0
 11  3  1  0
 17 12  1  0
 24 14  1  0
  1 27  1  0
  1 28  1  0
  4 29  1  0
  5 30  1  0
  9 31  1  0
 10 32  1  0
 11 33  1  0
 13 34  1  0
 16 35  1  0
 18 36  1  0
 18 37  1  0
 18 38  1  0
 20 39  1  0
 20 40  1  0
 20 41  1  0
 21 42  1  0
 21 43  1  0
 21 44  1  0
 22 45  1  0
 22 46  1  0
 23 47  1  0
 23 48  1  0
 25 49  1  0
 25 50  1  0
 25 51  1  0
 26 52  1  0
 26 53  1  0
 26 54  1  0
M  END
$$$$
