
     RDKit          3D

 51 55  0  0  0  0  0  0  0  0999 V2000
   -4.2753   -3.5620    1.5712 C   0  0  0  0  0  0  0  0  0  0  0  0
   -4.6171   -2.1284    1.9298 C   0  0  2  0  0  0  0  0  0  0  0  0
   -6.1038   -1.8548    1.9517 C   0  0  0  0  0  0  0  0  0  0  0  0
   -6.2092   -0.5437    1.4145 O   0  0  0  0  0  0  0  0  0  0  0  0
   -5.0382   -0.3432    0.7483 C   0  0  0  0  0  0  0  0  0  0  0  0
   -5.0998    0.7759   -0.0183 N   0  0  0  0  0  0  0  0  0  0  0  0
   -4.1031    1.3777   -0.7961 C   0  0  0  0  0  0  0  0  0  0  0  0
   -4.4502    2.4310   -1.6452 C   0  0  0  0  0  0  0  0  0  0  0  0
   -3.4940    3.0405   -2.4670 C   0  0  0  0  0  0  0  0  0  0  0  0
   -2.1718    2.6241   -2.4866 C   0  0  0  0  0  0  0  0  0  0  0  0
   -1.3160    3.2538   -3.2950 N   0  0  0  0  0  0  0  0  0  0  0  0
   -0.0512    2.8220   -3.2774 C   0  0  0  0  0  0  0  0  0  0  0  0
    0.4313    1.8198   -2.5387 N   0  0  0  0  0  0  0  0  0  0  0  0
   -0.4394    1.1811   -1.7357 C   0  0  0  0  0  0  0  0  0  0  0  0
    0.0129    0.0943   -0.9388 N   0  0  0  0  0  0  0  0  0  0  0  0
    1.3328   -0.3238   -0.6669 C   0  0  0  0  0  0  0  0  0  0  0  0
    2.4240    0.5503   -0.6653 C   0  0  0  0  0  0  0  0  0  0  0  0
    3.7134    0.1137   -0.3290 C   0  0  0  0  0  0  0  0  0  0  0  0
    3.9387   -1.2148    0.0301 C   0  0  0  0  0  0  0  0  0  0  0  0
    5.1574   -1.7242    0.3906 O   0  0  0  0  0  0  0  0  0  0  0  0
    6.3358   -1.0678   -0.0881 C   0  0  0  0  0  0  0  0  0  0  0  0
    6.8433   -0.1236    0.9612 C   0  0  0  0  0  0  0  0  0  0  0  0
    6.9188    1.1856    0.8114 N   0  0  0  0  0  0  0  0  0  0  0  0
    7.4273    1.7585    1.9601 C   0  0  0  0  0  0  0  0  0  0  0  0
    7.7509    0.8806    2.9706 C   0  0  0  0  0  0  0  0  0  0  0  0
    7.4108   -0.7231    2.4747 S   0  0  0  0  0  0  0  0  0  0  0  0
    2.8415   -2.0849    0.0834 C   0  0  0  0  0  0  0  0  0  0  0  0
    3.0291   -3.7388    0.5593 Cl  0  0  0  0  0  0  0  0  0  0  0  0
    1.5562   -1.6434   -0.2535 C   0  0  0  0  0  0  0  0  0  0  0  0
   -1.7960    1.5612   -1.6583 C   0  0  0  0  0  0  0  0  0  0  0  0
   -2.7714    0.9561   -0.8171 C   0  0  0  0  0  0  0  0  0  0  0  0
   -4.0919   -1.2081    0.9114 N   0  0  0  0  0  0  0  0  0  0  0  0
   -4.6682   -3.8320    0.5847 H   0  0  0  0  0  0  0  0  0  0  0  0
   -4.6890   -4.2577    2.3080 H   0  0  0  0  0  0  0  0  0  0  0  0
   -3.1895   -3.7022    1.5389 H   0  0  0  0  0  0  0  0  0  0  0  0
   -4.1654   -1.8738    2.8964 H   0  0  0  0  0  0  0  0  0  0  0  0
   -6.6845   -2.5386    1.3231 H   0  0  0  0  0  0  0  0  0  0  0  0
   -6.5098   -1.8770    2.9675 H   0  0  0  0  0  0  0  0  0  0  0  0
   -5.9831    1.2634    0.0299 H   0  0  0  0  0  0  0  0  0  0  0  0
   -5.4738    2.7962   -1.6852 H   0  0  0  0  0  0  0  0  0  0  0  0
   -3.7954    3.8627   -3.1130 H   0  0  0  0  0  0  0  0  0  0  0  0
    0.6509    3.3336   -3.9268 H   0  0  0  0  0  0  0  0  0  0  0  0
   -0.6186   -0.6922   -1.0582 H   0  0  0  0  0  0  0  0  0  0  0  0
    2.2871    1.6007   -0.9115 H   0  0  0  0  0  0  0  0  0  0  0  0
    4.5087    0.8531   -0.3334 H   0  0  0  0  0  0  0  0  0  0  0  0
    7.0872   -1.8453   -0.2700 H   0  0  0  0  0  0  0  0  0  0  0  0
    6.1766   -0.5672   -1.0506 H   0  0  0  0  0  0  0  0  0  0  0  0
    7.5444    2.8343    2.0083 H   0  0  0  0  0  0  0  0  0  0  0  0
    8.1594    1.0977    3.9468 H   0  0  0  0  0  0  0  0  0  0  0  0
    0.7255   -2.3418   -0.1919 H   0  0  0  0  0  0  0  0  0  0  0  0
   -2.4584    0.1545   -0.1542 H   0  0  0  0  0  0  0  0  0  0  0  0
  1  2  1  0
  2  3  1  0
  3  4  1  0
  4  5  1  0
  5  6  1  0
  6  7  1  0
  7  8  2  0
  8  9  1  0
  9 10  2  0
 10 11  1  0
 11 12  2  0
 12 13  1  0
 13 14  2  0
 14 15  1  0
 15 16  1  0
 16 17  2  0
 17 18  1  0
 18 19  2  0
 19 20  1  0
 20 21  1  0
 21 22  1  0
 22 23  2  0
 23 24  1  0
 24 25  2  0
 25 26  1  0
 19 27  1  0
 27 28  1  0
 27 29  2  0
 14 30  1  0
 30 31  2  0
  5 32  2  0
 32  2  1  0
 31  7  1  0
 30 10  1  0
 29 16  1  0
 26 22  1  0
  1 33  1  0
  1 34  1  0
  1 35  1  0
  2 36  1  1
  3 37  1  0
  3 38  1  0
  6 39  1  0
  8 40  1  0
  9 41  1  0
 12 42  1  0
 15 43  1  0
 17 44  1  0
 18 45  1  0
 21 46  1  0
 21 47  1  0
 24 48  1  0
 25 49  1  0
 29 50  1  0
 31 51  1  0
M  END
$$$$
