
     RDKit          3D

 42 44  0  0  0  0  0  0  0  0999 V2000
    5.0357    2.2337    1.5181 C   0  0  0  0  0  0  0  0  0  0  0  0
    6.0013    1.2748    1.1050 O   0  0  0  0  0  0  0  0  0  0  0  0
    5.5383    0.0435    0.7309 C   0  0  0  0  0  0  0  0  0  0  0  0
    6.5382   -0.8989    0.4700 C   0  0  0  0  0  0  0  0  0  0  0  0
    6.2120   -2.2034    0.0968 C   0  0  0  0  0  0  0  0  0  0  0  0
    4.8752   -2.5712   -0.0332 C   0  0  0  0  0  0  0  0  0  0  0  0
    3.8680   -1.6277    0.1978 C   0  0  0  0  0  0  0  0  0  0  0  0
    2.4503   -2.0523    0.0343 C   0  0  0  0  0  0  0  0  0  0  0  0
    2.1421   -3.1817    0.3908 O   0  0  0  0  0  0  0  0  0  0  0  0
    1.6437   -1.1067   -0.5551 N   0  0  0  0  0  0  0  0  0  0  0  0
    0.3067   -1.3042   -0.7562 C   0  0  0  0  0  0  0  0  0  0  0  0
   -0.4555   -2.3026   -0.3982 N   0  0  0  0  0  0  0  0  0  0  0  0
   -1.7503   -2.0591   -0.8075 C   0  0  0  0  0  0  0  0  0  0  0  0
   -1.9541   -0.8673   -1.4763 C   0  0  0  0  0  0  0  0  0  0  0  0
   -3.2162   -0.3107   -2.0515 C   0  0  0  0  0  0  0  0  0  0  0  0
   -3.8977    0.6775   -1.1307 C   0  0  0  0  0  0  0  0  0  0  0  0
   -3.7202    2.0560   -1.3104 C   0  0  0  0  0  0  0  0  0  0  0  0
   -4.3378    2.9678   -0.4545 C   0  0  0  0  0  0  0  0  0  0  0  0
   -5.1349    2.5123    0.5950 C   0  0  0  0  0  0  0  0  0  0  0  0
   -5.3174    1.1377    0.8055 C   0  0  0  0  0  0  0  0  0  0  0  0
   -6.1954    0.6514    1.9325 C   0  0  0  0  0  0  0  0  0  0  0  0
   -7.5170    0.6789    1.6057 F   0  0  0  0  0  0  0  0  0  0  0  0
   -5.9307   -0.6310    2.3086 F   0  0  0  0  0  0  0  0  0  0  0  0
   -6.0743    1.4026    3.0626 F   0  0  0  0  0  0  0  0  0  0  0  0
   -4.6979    0.2283   -0.0679 C   0  0  0  0  0  0  0  0  0  0  0  0
   -0.4590   -0.0278   -1.5950 S   0  0  0  0  0  0  0  0  0  0  0  0
    4.1981   -0.3219    0.5950 C   0  0  0  0  0  0  0  0  0  0  0  0
    5.5719    3.1335    1.8347 H   0  0  0  0  0  0  0  0  0  0  0  0
    4.4578    1.8707    2.3746 H   0  0  0  0  0  0  0  0  0  0  0  0
    4.3791    2.5120    0.6873 H   0  0  0  0  0  0  0  0  0  0  0  0
    7.5837   -0.6162    0.5743 H   0  0  0  0  0  0  0  0  0  0  0  0
    6.9987   -2.9309   -0.0863 H   0  0  0  0  0  0  0  0  0  0  0  0
    4.6168   -3.5901   -0.3160 H   0  0  0  0  0  0  0  0  0  0  0  0
    2.0284   -0.2545   -0.9304 H   0  0  0  0  0  0  0  0  0  0  0  0
   -2.5145   -2.7954   -0.5880 H   0  0  0  0  0  0  0  0  0  0  0  0
   -3.9154   -1.1287   -2.2706 H   0  0  0  0  0  0  0  0  0  0  0  0
   -3.0161    0.1618   -3.0222 H   0  0  0  0  0  0  0  0  0  0  0  0
   -3.0975    2.4299   -2.1207 H   0  0  0  0  0  0  0  0  0  0  0  0
   -4.1968    4.0355   -0.6056 H   0  0  0  0  0  0  0  0  0  0  0  0
   -5.6129    3.2351    1.2550 H   0  0  0  0  0  0  0  0  0  0  0  0
   -4.8385   -0.8417    0.0867 H   0  0  0  0  0  0  0  0  0  0  0  0
    3.4043    0.3810    0.8195 H   0  0  0  0  0  0  0  0  0  0  0  0
  1  2  1  0
  2  3  1  0
  3  4  2  0
  4  5  1  0
  5  6  2  0
  6  7  1  0
  7  8  1  0
  8  9  2  0
  8 10  1  0
 10 11  1  0
 11 12  2  0
 12 13  1  0
 13 14  2  0
 14 15  1  0
 15 16  1  0
 16 17  2  0
 17 18  1  0
 18 19  2  0
 19 20  1  0
 20 21  1  0
 21 22  1  0
 21 23  1  0
 21 24  1  0
 20 25  2  0
 14 26  1  0
  7 27  2  0
 27  3  1  0
 26 11  1  0
 25 16  1  0
  1 28  1  0
  1 29  1  0
  1 30  1  0
  4 31  1  0
  5 32  1  0
  6 33  1  0
 10 34  1  0
 13 35  1  0
 15 36  1  0
 15 37  1  0
 17 38  1  0
 18 39  1  0
 19 40  1  0
 25 41  1  0
 27 42  1  0
M  END
$$$$
