
     RDKit          3D

 60 63  0  0  0  0  0  0  0  0999 V2000
   -5.5688   -4.3911   -0.3141 C   0  0  0  0  0  0  0  0  0  0  0  0
   -4.7217   -3.1300   -0.3036 C   0  0  0  0  0  0  0  0  0  0  0  0
   -4.2735   -2.7449    1.0969 C   0  0  0  0  0  0  0  0  0  0  0  0
   -4.5495   -3.4218    2.0876 O   0  0  0  0  0  0  0  0  0  0  0  0
   -3.5236   -1.5907    1.1952 N   0  0  0  0  0  0  0  0  0  0  0  0
   -3.1230   -1.0738    2.4899 C   0  0  0  0  0  0  0  0  0  0  0  0
   -2.4643    0.2869    2.2287 C   0  0  1  0  0  0  0  0  0  0  0  0
   -1.0966    0.4210    2.9111 C   0  0  0  0  0  0  0  0  0  0  0  0
   -0.1082    0.4706    1.8174 N   0  0  0  0  0  0  0  0  0  0  0  0
    1.1877   -0.0858    2.2221 C   0  0  0  0  0  0  0  0  0  0  0  0
    2.2702    0.1712    1.1985 C   0  0  0  0  0  0  0  0  0  0  0  0
    2.7047    1.4767    0.9343 C   0  0  0  0  0  0  0  0  0  0  0  0
    3.7087    1.7098   -0.0077 C   0  0  0  0  0  0  0  0  0  0  0  0
    4.3065    0.6482   -0.6908 C   0  0  0  0  0  0  0  0  0  0  0  0
    5.2755    1.0150   -1.5811 O   0  0  0  0  0  0  0  0  0  0  0  0
    6.2142    0.0263   -2.0191 C   0  0  0  0  0  0  0  0  0  0  0  0
    5.7746   -0.5327   -3.3683 C   0  0  0  0  0  0  0  0  0  0  0  0
    7.5628    0.7289   -2.1566 C   0  0  0  0  0  0  0  0  0  0  0  0
    3.8682   -0.6513   -0.4440 C   0  0  0  0  0  0  0  0  0  0  0  0
    2.8586   -0.8886    0.4968 C   0  0  0  0  0  0  0  0  0  0  0  0
   -0.7249   -0.2520    0.6870 C   0  0  0  0  0  0  0  0  0  0  0  0
   -2.1623    0.2892    0.7192 C   0  0  2  0  0  0  0  0  0  0  0  0
   -2.2694    1.6631    0.1208 C   0  0  0  0  0  0  0  0  0  0  0  0
   -3.2706    2.1815   -0.5629 N   0  0  0  0  0  0  0  0  0  0  0  0
   -2.8503    3.4606   -0.8258 C   0  0  0  0  0  0  0  0  0  0  0  0
   -3.6828    4.4203   -1.5784 C   0  0  0  0  0  0  0  0  0  0  0  0
   -1.6409    3.7638   -0.3423 N   0  0  0  0  0  0  0  0  0  0  0  0
   -1.2867    2.6100    0.2424 N   0  0  0  0  0  0  0  0  0  0  0  0
   -3.1822   -0.6761    0.1172 C   0  0  0  0  0  0  0  0  0  0  0  0
   -5.8654   -4.6430   -1.3372 H   0  0  0  0  0  0  0  0  0  0  0  0
   -6.4778   -4.2597    0.2808 H   0  0  0  0  0  0  0  0  0  0  0  0
   -5.0165   -5.2403    0.0988 H   0  0  0  0  0  0  0  0  0  0  0  0
   -3.8340   -3.2923   -0.9246 H   0  0  0  0  0  0  0  0  0  0  0  0
   -5.3044   -2.3047   -0.7273 H   0  0  0  0  0  0  0  0  0  0  0  0
   -2.4534   -1.8086    2.9533 H   0  0  0  0  0  0  0  0  0  0  0  0
   -4.0062   -0.9709    3.1323 H   0  0  0  0  0  0  0  0  0  0  0  0
   -3.1410    1.0989    2.5230 H   0  0  0  0  0  0  0  0  0  0  0  0
   -1.0438    1.3564    3.4805 H   0  0  0  0  0  0  0  0  0  0  0  0
   -0.9109   -0.4020    3.6125 H   0  0  0  0  0  0  0  0  0  0  0  0
    1.1063   -1.1609    2.4321 H   0  0  0  0  0  0  0  0  0  0  0  0
    1.5148    0.3851    3.1593 H   0  0  0  0  0  0  0  0  0  0  0  0
    2.2656    2.3197    1.4636 H   0  0  0  0  0  0  0  0  0  0  0  0
    4.0357    2.7280   -0.2045 H   0  0  0  0  0  0  0  0  0  0  0  0
    6.3392   -0.7774   -1.2837 H   0  0  0  0  0  0  0  0  0  0  0  0
    6.4968   -1.2632   -3.7467 H   0  0  0  0  0  0  0  0  0  0  0  0
    4.7972   -1.0195   -3.2937 H   0  0  0  0  0  0  0  0  0  0  0  0
    5.6673    0.2694   -4.1073 H   0  0  0  0  0  0  0  0  0  0  0  0
    8.3408    0.0360   -2.4920 H   0  0  0  0  0  0  0  0  0  0  0  0
    7.5043    1.5630   -2.8650 H   0  0  0  0  0  0  0  0  0  0  0  0
    7.8685    1.1557   -1.1944 H   0  0  0  0  0  0  0  0  0  0  0  0
    4.2819   -1.5031   -0.9730 H   0  0  0  0  0  0  0  0  0  0  0  0
    2.5352   -1.9117    0.6743 H   0  0  0  0  0  0  0  0  0  0  0  0
   -0.6986   -1.3374    0.8506 H   0  0  0  0  0  0  0  0  0  0  0  0
   -0.2223   -0.0336   -0.2624 H   0  0  0  0  0  0  0  0  0  0  0  0
   -4.6927    4.4557   -1.1576 H   0  0  0  0  0  0  0  0  0  0  0  0
   -3.7578    4.1160   -2.6277 H   0  0  0  0  0  0  0  0  0  0  0  0
   -3.2638    5.4314   -1.5423 H   0  0  0  0  0  0  0  0  0  0  0  0
   -0.3917    2.5209    0.7172 H   0  0  0  0  0  0  0  0  0  0  0  0
   -2.7895   -1.2244   -0.7454 H   0  0  0  0  0  0  0  0  0  0  0  0
   -4.1160   -0.1877   -0.1835 H   0  0  0  0  0  0  0  0  0  0  0  0
  1  2  1  0
  2  3  1  0
  3  4  2  0
  3  5  1  0
  5  6  1  0
  6  7  1  0
  7  8  1  0
  8  9  1  0
  9 10  1  0
 10 11  1  0
 11 12  2  0
 12 13  1  0
 13 14  2  0
 14 15  1  0
 15 16  1  0
 16 17  1  0
 16 18  1  0
 14 19  1  0
 19 20  2  0
  9 21  1  0
 21 22  1  0
 22 23  1  6
 23 24  2  0
 24 25  1  0
 25 26  1  0
 25 27  2  0
 27 28  1  0
 22 29  1  0
 29  5  1  0
 22  7  1  0
 28 23  1  0
 20 11  1  0
  1 30  1  0
  1 31  1  0
  1 32  1  0
  2 33  1  0
  2 34  1  0
  6 35  1  0
  6 36  1  0
  7 37  1  6
  8 38  1  0
  8 39  1  0
 10 40  1  0
 10 41  1  0
 12 42  1  0
 13 43  1  0
 16 44  1  0
 17 45  1  0
 17 46  1  0
 17 47  1  0
 18 48  1  0
 18 49  1  0
 18 50  1  0
 19 51  1  0
 20 52  1  0
 21 53  1  0
 21 54  1  0
 26 55  1  0
 26 56  1  0
 26 57  1  0
 28 58  1  0
 29 59  1  0
 29 60  1  0
M  END
$$$$
