
     RDKit          3D

 17 17  0  0  0  0  0  0  0  0999 V2000
    3.6976   -1.0088    1.8638 S   0  0  0  0  0  0  0  0  0  0  0  0
    3.0348   -0.1679    0.4188 C   0  0  0  0  0  0  0  0  0  0  0  0
    2.6099    0.3772   -0.5298 N   0  0  0  0  0  0  0  0  0  0  0  0
    1.4825   -0.3160   -1.1751 C   0  0  0  0  0  0  0  0  0  0  0  0
    0.1599   -0.0623   -0.4898 C   0  0  0  0  0  0  0  0  0  0  0  0
   -0.5391   -1.1076    0.1293 C   0  0  0  0  0  0  0  0  0  0  0  0
   -1.7558   -0.8621    0.7682 C   0  0  0  0  0  0  0  0  0  0  0  0
   -2.2832    0.4278    0.7959 C   0  0  0  0  0  0  0  0  0  0  0  0
   -1.5947    1.4748    0.1864 C   0  0  0  0  0  0  0  0  0  0  0  0
   -0.3783    1.2321   -0.4528 C   0  0  0  0  0  0  0  0  0  0  0  0
    1.4044    0.0480   -2.2077 H   0  0  0  0  0  0  0  0  0  0  0  0
    1.6758   -1.3951   -1.2622 H   0  0  0  0  0  0  0  0  0  0  0  0
   -0.1425   -2.1204    0.1216 H   0  0  0  0  0  0  0  0  0  0  0  0
   -2.2922   -1.6774    1.2468 H   0  0  0  0  0  0  0  0  0  0  0  0
   -3.2298    0.6176    1.2950 H   0  0  0  0  0  0  0  0  0  0  0  0
   -2.0035    2.4816    0.2111 H   0  0  0  0  0  0  0  0  0  0  0  0
    0.1542    2.0586   -0.9193 H   0  0  0  0  0  0  0  0  0  0  0  0
  1  2  2  0
  2  3  2  0
  3  4  1  0
  4  5  1  0
  5  6  2  0
  6  7  1  0
  7  8  2  0
  8  9  1  0
  9 10  2  0
 10  5  1  0
  4 11  1  0
  4 12  1  0
  6 13  1  0
  7 14  1  0
  8 15  1  0
  9 16  1  0
 10 17  1  0
M  END
$$$$
