
     RDKit          3D

 50 52  0  0  0  0  0  0  0  0999 V2000
   -6.8724    1.4083    1.6892 C   0  0  0  0  0  0  0  0  0  0  0  0
   -6.2041    1.2271    0.4494 O   0  0  0  0  0  0  0  0  0  0  0  0
   -5.0936    0.4251    0.4476 C   0  0  0  0  0  0  0  0  0  0  0  0
   -4.7199   -0.4229    1.4948 C   0  0  0  0  0  0  0  0  0  0  0  0
   -3.5593   -1.1980    1.3942 C   0  0  0  0  0  0  0  0  0  0  0  0
   -2.7643   -1.1201    0.2455 C   0  0  0  0  0  0  0  0  0  0  0  0
   -1.5506   -1.9538    0.1192 C   0  0  0  0  0  0  0  0  0  0  0  0
   -1.4477   -2.6797   -0.8646 O   0  0  0  0  0  0  0  0  0  0  0  0
   -0.5941   -1.8989    1.1327 N   0  0  0  0  0  0  0  0  0  0  0  0
   -0.2909   -0.6606    1.8370 C   0  0  0  0  0  0  0  0  0  0  0  0
    0.8689    0.0696    1.1546 C   0  0  0  0  0  0  0  0  0  0  0  0
    1.0965    1.2510    1.4207 O   0  0  0  0  0  0  0  0  0  0  0  0
    1.7086   -0.7006    0.3456 N   0  0  0  0  0  0  0  0  0  0  0  0
    2.8227   -0.0209   -0.3138 C   0  0  0  0  0  0  0  0  0  0  0  0
    4.0476    0.1100    0.5977 C   0  0  0  0  0  0  0  0  0  0  0  0
    5.2102    0.7476   -0.1180 C   0  0  0  0  0  0  0  0  0  0  0  0
    6.0870   -0.0366   -0.8793 C   0  0  0  0  0  0  0  0  0  0  0  0
    7.1503    0.5547   -1.5622 C   0  0  0  0  0  0  0  0  0  0  0  0
    7.3449    1.9320   -1.4925 C   0  0  0  0  0  0  0  0  0  0  0  0
    6.4754    2.7220   -0.7423 C   0  0  0  0  0  0  0  0  0  0  0  0
    5.4091    2.1334   -0.0607 C   0  0  0  0  0  0  0  0  0  0  0  0
    1.7178   -2.0997    0.3271 C   0  0  0  0  0  0  0  0  0  0  0  0
    2.6744   -2.7543   -0.0927 O   0  0  0  0  0  0  0  0  0  0  0  0
    0.5467   -2.7928    1.0185 C   0  0  0  0  0  0  0  0  0  0  0  0
   -3.1352   -0.2990   -0.8169 C   0  0  0  0  0  0  0  0  0  0  0  0
   -4.3011    0.4591   -0.7119 C   0  0  0  0  0  0  0  0  0  0  0  0
   -4.6107    1.3022   -1.7498 O   0  0  0  0  0  0  0  0  0  0  0  0
   -5.5036    0.6545   -2.6548 C   0  0  0  0  0  0  0  0  0  0  0  0
   -7.6510    2.1639    1.5421 H   0  0  0  0  0  0  0  0  0  0  0  0
   -6.1881    1.7773    2.4624 H   0  0  0  0  0  0  0  0  0  0  0  0
   -7.3638    0.4852    2.0094 H   0  0  0  0  0  0  0  0  0  0  0  0
   -5.3149   -0.5091    2.3981 H   0  0  0  0  0  0  0  0  0  0  0  0
   -3.2861   -1.8672    2.2060 H   0  0  0  0  0  0  0  0  0  0  0  0
    0.0046   -0.9067    2.8615 H   0  0  0  0  0  0  0  0  0  0  0  0
   -1.1469    0.0161    1.8612 H   0  0  0  0  0  0  0  0  0  0  0  0
    2.4894    0.9707   -0.6423 H   0  0  0  0  0  0  0  0  0  0  0  0
    3.0838   -0.5796   -1.2208 H   0  0  0  0  0  0  0  0  0  0  0  0
    4.3551   -0.8733    0.9757 H   0  0  0  0  0  0  0  0  0  0  0  0
    3.7983    0.6951    1.4915 H   0  0  0  0  0  0  0  0  0  0  0  0
    5.9434   -1.1142   -0.9471 H   0  0  0  0  0  0  0  0  0  0  0  0
    7.8252   -0.0609   -2.1507 H   0  0  0  0  0  0  0  0  0  0  0  0
    8.1731    2.3913   -2.0243 H   0  0  0  0  0  0  0  0  0  0  0  0
    6.6241    3.7984   -0.6948 H   0  0  0  0  0  0  0  0  0  0  0  0
    4.7348    2.7643    0.5152 H   0  0  0  0  0  0  0  0  0  0  0  0
    0.8594   -3.0849    2.0273 H   0  0  0  0  0  0  0  0  0  0  0  0
    0.2820   -3.6934    0.4562 H   0  0  0  0  0  0  0  0  0  0  0  0
   -2.5247   -0.2416   -1.7139 H   0  0  0  0  0  0  0  0  0  0  0  0
   -6.3819    0.2422   -2.1452 H   0  0  0  0  0  0  0  0  0  0  0  0
   -4.9809   -0.1347   -3.2074 H   0  0  0  0  0  0  0  0  0  0  0  0
   -5.8472    1.4022   -3.3785 H   0  0  0  0  0  0  0  0  0  0  0  0
  1  2  1  0
  2  3  1  0
  3  4  2  0
  4  5  1  0
  5  6  2  0
  6  7  1  0
  7  8  2  0
  7  9  1  0
  9 10  1  0
 10 11  1  0
 11 12  2  0
 11 13  1  0
 13 14  1  0
 14 15  1  0
 15 16  1  0
 16 17  2  0
 17 18  1  0
 18 19  2  0
 19 20  1  0
 20 21  2  0
 13 22  1  0
 22 23  2  0
 22 24  1  0
  6 25  1  0
 25 26  2  0
 26 27  1  0
 27 28  1  0
 26  3  1  0
 24  9  1  0
 21 16  1  0
  1 29  1  0
  1 30  1  0
  1 31  1  0
  4 32  1  0
  5 33  1  0
 10 34  1  0
 10 35  1  0
 14 36  1  0
 14 37  1  0
 15 38  1  0
 15 39  1  0
 17 40  1  0
 18 41  1  0
 19 42  1  0
 20 43  1  0
 21 44  1  0
 24 45  1  0
 24 46  1  0
 25 47  1  0
 28 48  1  0
 28 49  1  0
 28 50  1  0
M  END
$$$$
