
     RDKit          3D

 67 70  0  0  0  0  0  0  0  0999 V2000
   -4.3070   -6.2669   -0.1941 C   0  0  0  0  0  0  0  0  0  0  0  0
   -3.4677   -5.0748   -0.3014 N   0  0  0  0  0  0  0  0  0  0  0  0
   -3.4214   -4.5835   -1.6994 C   0  0  0  0  0  0  0  0  0  0  0  0
   -2.4044   -3.4307   -1.8843 C   0  0  0  0  0  0  0  0  0  0  0  0
   -2.5496   -2.4356   -0.7856 C   0  0  0  0  0  0  0  0  0  0  0  0
   -1.9847   -1.1770   -0.8399 N   0  0  0  0  0  0  0  0  0  0  0  0
   -2.2458   -0.5530    0.3007 C   0  0  0  0  0  0  0  0  0  0  0  0
   -1.7315    0.7817    0.5950 C   0  0  0  0  0  0  0  0  0  0  0  0
   -1.8872    1.3839    1.6550 O   0  0  0  0  0  0  0  0  0  0  0  0
   -1.0081    1.3170   -0.4609 N   0  0  0  0  0  0  0  0  0  0  0  0
   -0.1630    2.5059   -0.3338 C   0  0  2  0  0  0  0  0  0  0  0  0
   -0.4361    3.4238   -1.5388 C   0  0  0  0  0  0  0  0  0  0  0  0
    0.6265    4.5119   -1.7134 C   0  0  1  0  0  0  0  0  0  0  0  0
    0.5483    5.5075   -0.5469 C   0  0  0  0  0  0  0  0  0  0  0  0
    1.3802    5.4553    0.3617 O   0  0  0  0  0  0  0  0  0  0  0  0
   -0.5090    6.4092   -0.5120 N   0  0  0  0  0  0  0  0  0  0  0  0
   -1.4559    6.6635   -1.5900 C   0  0  0  0  0  0  0  0  0  0  0  0
   -0.5968    7.3297    0.6129 C   0  0  0  0  0  0  0  0  0  0  0  0
    2.0329    3.8951   -1.8704 C   0  0  0  0  0  0  0  0  0  0  0  0
    2.1318    2.4274   -1.4447 C   0  0  0  0  0  0  0  0  0  0  0  0
    1.3466    2.1422   -0.1617 C   0  0  2  0  0  0  0  0  0  0  0  0
    1.5336    0.7536    0.2414 N   0  0  0  0  0  0  0  0  0  0  0  0
    2.6496    0.2736    0.8815 C   0  0  0  0  0  0  0  0  0  0  0  0
    3.6071    0.9230    1.2698 O   0  0  0  0  0  0  0  0  0  0  0  0
    2.6137   -1.2573    1.0774 C   0  0  0  0  0  0  0  0  0  0  0  0
    1.7416   -1.8970    0.5016 O   0  0  0  0  0  0  0  0  0  0  0  0
    3.6086   -1.7087    1.9035 N   0  0  0  0  0  0  0  0  0  0  0  0
    3.8701   -3.0172    2.2972 C   0  0  0  0  0  0  0  0  0  0  0  0
    3.1178   -4.1133    1.8871 C   0  0  0  0  0  0  0  0  0  0  0  0
    3.4701   -5.3894    2.3353 C   0  0  0  0  0  0  0  0  0  0  0  0
    4.5596   -5.5333    3.1821 C   0  0  0  0  0  0  0  0  0  0  0  0
    5.0286   -7.0808    3.7582 Cl  0  0  0  0  0  0  0  0  0  0  0  0
    5.2544   -4.3918    3.5448 C   0  0  0  0  0  0  0  0  0  0  0  0
    4.9335   -3.1416    3.1215 N   0  0  0  0  0  0  0  0  0  0  0  0
   -3.1974   -1.4155    1.4431 S   0  0  0  0  0  0  0  0  0  0  0  0
   -3.2402   -2.7340    0.3707 C   0  0  0  0  0  0  0  0  0  0  0  0
   -3.9484   -4.0228    0.6290 C   0  0  0  0  0  0  0  0  0  0  0  0
   -4.3240   -6.6371    0.8380 H   0  0  0  0  0  0  0  0  0  0  0  0
   -3.9026   -7.0764   -0.8124 H   0  0  0  0  0  0  0  0  0  0  0  0
   -5.3399   -6.0760   -0.5094 H   0  0  0  0  0  0  0  0  0  0  0  0
   -3.1362   -5.3981   -2.3772 H   0  0  0  0  0  0  0  0  0  0  0  0
   -4.4196   -4.2443   -2.0119 H   0  0  0  0  0  0  0  0  0  0  0  0
   -2.5629   -2.9511   -2.8572 H   0  0  0  0  0  0  0  0  0  0  0  0
   -1.3831   -3.8316   -1.8654 H   0  0  0  0  0  0  0  0  0  0  0  0
   -0.9131    0.7136   -1.2733 H   0  0  0  0  0  0  0  0  0  0  0  0
   -0.4706    3.0322    0.5784 H   0  0  0  0  0  0  0  0  0  0  0  0
   -0.4796    2.8294   -2.4612 H   0  0  0  0  0  0  0  0  0  0  0  0
   -1.4369    3.8546   -1.4223 H   0  0  0  0  0  0  0  0  0  0  0  0
    0.4426    5.0744   -2.6354 H   0  0  0  0  0  0  0  0  0  0  0  0
   -2.4704    6.6467   -1.1770 H   0  0  0  0  0  0  0  0  0  0  0  0
   -1.2498    7.6564   -2.0027 H   0  0  0  0  0  0  0  0  0  0  0  0
   -1.4012    5.9366   -2.3998 H   0  0  0  0  0  0  0  0  0  0  0  0
    0.0890    7.0718    1.4250 H   0  0  0  0  0  0  0  0  0  0  0  0
   -1.6190    7.3139    1.0036 H   0  0  0  0  0  0  0  0  0  0  0  0
   -0.3604    8.3386    0.2582 H   0  0  0  0  0  0  0  0  0  0  0  0
    2.7865    4.4807   -1.3272 H   0  0  0  0  0  0  0  0  0  0  0  0
    2.3307    3.9564   -2.9275 H   0  0  0  0  0  0  0  0  0  0  0  0
    3.1888    2.1639   -1.3187 H   0  0  0  0  0  0  0  0  0  0  0  0
    1.7597    1.7855   -2.2536 H   0  0  0  0  0  0  0  0  0  0  0  0
    1.7691    2.7679    0.6336 H   0  0  0  0  0  0  0  0  0  0  0  0
    0.8779    0.0473   -0.0845 H   0  0  0  0  0  0  0  0  0  0  0  0
    4.2517   -1.0168    2.2786 H   0  0  0  0  0  0  0  0  0  0  0  0
    2.2635   -4.0128    1.2259 H   0  0  0  0  0  0  0  0  0  0  0  0
    2.8892   -6.2509    2.0192 H   0  0  0  0  0  0  0  0  0  0  0  0
    6.1155   -4.4429    4.2045 H   0  0  0  0  0  0  0  0  0  0  0  0
   -3.7669   -4.3490    1.6605 H   0  0  0  0  0  0  0  0  0  0  0  0
   -5.0280   -3.8627    0.5064 H   0  0  0  0  0  0  0  0  0  0  0  0
  1  2  1  0
  2  3  1  0
  3  4  1  0
  4  5  1  0
  5  6  1  0
  6  7  2  0
  7  8  1  0
  8  9  2  0
  8 10  1  0
 10 11  1  0
 11 12  1  0
 12 13  1  0
 13 14  1  0
 14 15  2  0
 14 16  1  0
 16 17  1  0
 16 18  1  0
 13 19  1  0
 19 20  1  0
 20 21  1  0
 21 22  1  0
 22 23  1  0
 23 24  2  0
 23 25  1  0
 25 26  2  0
 25 27  1  0
 27 28  1  0
 28 29  2  0
 29 30  1  0
 30 31  2  0
 31 32  1  0
 31 33  1  0
 33 34  2  0
  7 35  1  0
 35 36  1  0
 36 37  1  0
 37  2  1  0
 36  5  2  0
 21 11  1  0
 34 28  1  0
  1 38  1  0
  1 39  1  0
  1 40  1  0
  3 41  1  0
  3 42  1  0
  4 43  1  0
  4 44  1  0
 10 45  1  0
 11 46  1  1
 12 47  1  0
 12 48  1  0
 13 49  1  6
 17 50  1  0
 17 51  1  0
 17 52  1  0
 18 53  1  0
 18 54  1  0
 18 55  1  0
 19 56  1  0
 19 57  1  0
 20 58  1  0
 20 59  1  0
 21 60  1  1
 22 61  1  0
 27 62  1  0
 29 63  1  0
 30 64  1  0
 33 65  1  0
 37 66  1  0
 37 67  1  0
M  END
$$$$
