
     RDKit          3D

 48 51  0  0  0  0  0  0  0  0999 V2000
    8.4482    0.9656    1.5740 C   0  0  0  0  0  0  0  0  0  0  0  0
    7.1119    1.2943    1.9318 O   0  0  0  0  0  0  0  0  0  0  0  0
    6.1159    0.7094    1.2011 C   0  0  0  0  0  0  0  0  0  0  0  0
    6.2861   -0.1731    0.1372 C   0  0  0  0  0  0  0  0  0  0  0  0
    5.1711   -0.7035   -0.5304 C   0  0  0  0  0  0  0  0  0  0  0  0
    3.8676   -0.3630   -0.1488 C   0  0  0  0  0  0  0  0  0  0  0  0
    2.7313   -0.8889   -0.8122 N   0  0  0  0  0  0  0  0  0  0  0  0
    1.4530   -0.4918   -0.3659 N   0  0  0  0  0  0  0  0  0  0  0  0
    0.6031   -1.1145   -1.1351 C   0  0  0  0  0  0  0  0  0  0  0  0
   -0.8609   -1.0726   -1.1073 C   0  0  0  0  0  0  0  0  0  0  0  0
   -1.5427   -0.2956   -0.1721 C   0  0  0  0  0  0  0  0  0  0  0  0
   -2.9408   -0.2763   -0.1963 C   0  0  0  0  0  0  0  0  0  0  0  0
   -3.6496    0.5546    0.8131 C   0  0  0  0  0  0  0  0  0  0  0  0
   -3.1550    0.7195    1.9214 O   0  0  0  0  0  0  0  0  0  0  0  0
   -4.8416    1.1207    0.4116 N   0  0  0  0  0  0  0  0  0  0  0  0
   -5.6637    1.9020    1.3257 C   0  0  0  0  0  0  0  0  0  0  0  0
   -6.5336    0.9821    2.1792 C   0  0  0  0  0  0  0  0  0  0  0  0
   -6.5257    2.8895    0.5456 C   0  0  0  0  0  0  0  0  0  0  0  0
   -3.6381   -1.0514   -1.1374 C   0  0  0  0  0  0  0  0  0  0  0  0
   -2.9430   -1.8319   -2.0703 C   0  0  0  0  0  0  0  0  0  0  0  0
   -1.5478   -1.8578   -2.0624 C   0  0  0  0  0  0  0  0  0  0  0  0
   -0.8302   -2.6102   -3.0138 N   0  0  0  0  0  0  0  0  0  0  0  0
    0.5456   -2.6494   -2.9988 C   0  0  0  0  0  0  0  0  0  0  0  0
    1.2739   -1.9488   -2.1297 C   0  0  0  0  0  0  0  0  0  0  0  0
    2.7109   -1.7915   -1.8972 C   0  0  0  0  0  0  0  0  0  0  0  0
    3.5868   -2.3435   -2.5362 O   0  0  0  0  0  0  0  0  0  0  0  0
    3.7114    0.5263    0.9238 C   0  0  0  0  0  0  0  0  0  0  0  0
    4.8228    1.0553    1.5897 C   0  0  0  0  0  0  0  0  0  0  0  0
    8.6737    1.2870    0.5518 H   0  0  0  0  0  0  0  0  0  0  0  0
    8.6401   -0.1046    1.7042 H   0  0  0  0  0  0  0  0  0  0  0  0
    9.1179    1.5079    2.2485 H   0  0  0  0  0  0  0  0  0  0  0  0
    7.2703   -0.4748   -0.2051 H   0  0  0  0  0  0  0  0  0  0  0  0
    5.3586   -1.3871   -1.3534 H   0  0  0  0  0  0  0  0  0  0  0  0
   -0.9962    0.2911    0.5637 H   0  0  0  0  0  0  0  0  0  0  0  0
   -5.1770    0.9798   -0.5307 H   0  0  0  0  0  0  0  0  0  0  0  0
   -4.9964    2.4658    1.9886 H   0  0  0  0  0  0  0  0  0  0  0  0
   -7.1481    1.5613    2.8761 H   0  0  0  0  0  0  0  0  0  0  0  0
   -7.2010    0.3772    1.5552 H   0  0  0  0  0  0  0  0  0  0  0  0
   -5.9181    0.2921    2.7663 H   0  0  0  0  0  0  0  0  0  0  0  0
   -5.9001    3.5576   -0.0564 H   0  0  0  0  0  0  0  0  0  0  0  0
   -7.2066    2.3705   -0.1383 H   0  0  0  0  0  0  0  0  0  0  0  0
   -7.1258    3.5058    1.2230 H   0  0  0  0  0  0  0  0  0  0  0  0
   -4.7246   -1.0808   -1.1394 H   0  0  0  0  0  0  0  0  0  0  0  0
   -3.5019   -2.4217   -2.7923 H   0  0  0  0  0  0  0  0  0  0  0  0
   -1.3281   -3.2576   -3.6144 H   0  0  0  0  0  0  0  0  0  0  0  0
    1.0038   -3.2884   -3.7480 H   0  0  0  0  0  0  0  0  0  0  0  0
    2.7198    0.8209    1.2592 H   0  0  0  0  0  0  0  0  0  0  0  0
    4.6730    1.7425    2.4188 H   0  0  0  0  0  0  0  0  0  0  0  0
  1  2  1  0
  2  3  1  0
  3  4  2  0
  4  5  1  0
  5  6  2  0
  6  7  1  0
  7  8  1  0
  8  9  2  0
  9 10  1  0
 10 11  2  0
 11 12  1  0
 12 13  1  0
 13 14  2  0
 13 15  1  0
 15 16  1  0
 16 17  1  0
 16 18  1  0
 12 19  2  0
 19 20  1  0
 20 21  2  0
 21 22  1  0
 22 23  1  0
 23 24  2  0
 24 25  1  0
 25 26  2  0
  6 27  1  0
 27 28  2  0
 28  3  1  0
 25  7  1  0
 24  9  1  0
 21 10  1  0
  1 29  1  0
  1 30  1  0
  1 31  1  0
  4 32  1  0
  5 33  1  0
 11 34  1  0
 15 35  1  0
 16 36  1  0
 17 37  1  0
 17 38  1  0
 17 39  1  0
 18 40  1  0
 18 41  1  0
 18 42  1  0
 19 43  1  0
 20 44  1  0
 22 45  1  0
 23 46  1  0
 27 47  1  0
 28 48  1  0
M  END
$$$$
