
     RDKit          3D

 67 71  0  0  0  0  0  0  0  0999 V2000
   -3.9050    2.5806   -3.9661 C   0  0  0  0  0  0  0  0  0  0  0  0
   -4.4830    1.5401   -3.0250 C   0  0  0  0  0  0  0  0  0  0  0  0
   -3.9730    1.7988   -1.7126 O   0  0  0  0  0  0  0  0  0  0  0  0
   -4.5961    1.0882   -0.7486 C   0  0  0  0  0  0  0  0  0  0  0  0
   -5.9477    1.0367   -0.5253 C   0  0  0  0  0  0  0  0  0  0  0  0
   -6.1369    0.2638    0.6036 N   0  0  0  0  0  0  0  0  0  0  0  0
   -7.3889   -0.0719    1.2278 C   0  0  0  0  0  0  0  0  0  0  0  0
   -8.5866    0.2560    0.5550 C   0  0  0  0  0  0  0  0  0  0  0  0
   -9.8361   -0.0277    1.1157 C   0  0  0  0  0  0  0  0  0  0  0  0
   -9.9053   -0.6446    2.3510 C   0  0  0  0  0  0  0  0  0  0  0  0
  -11.1023   -0.9111    2.8936 F   0  0  0  0  0  0  0  0  0  0  0  0
   -8.7472   -0.9913    3.0325 C   0  0  0  0  0  0  0  0  0  0  0  0
   -7.4716   -0.7212    2.4872 C   0  0  0  0  0  0  0  0  0  0  0  0
   -6.2852   -1.1763    3.3013 C   0  0  0  0  0  0  0  0  0  0  0  0
   -4.9499   -0.1520    1.1025 N   0  0  0  0  0  0  0  0  0  0  0  0
   -3.9953    0.3634    0.3082 C   0  0  0  0  0  0  0  0  0  0  0  0
   -2.5546    0.1270    0.5757 C   0  0  0  0  0  0  0  0  0  0  0  0
   -2.1794   -0.6033    1.4889 O   0  0  0  0  0  0  0  0  0  0  0  0
   -1.7039    0.7879   -0.3040 N   0  0  0  0  0  0  0  0  0  0  0  0
   -0.2975    0.7151   -0.3751 C   0  0  0  0  0  0  0  0  0  0  0  0
    0.4956   -0.0518    0.4860 C   0  0  0  0  0  0  0  0  0  0  0  0
    1.8882   -0.1028    0.3265 C   0  0  0  0  0  0  0  0  0  0  0  0
    2.4916    0.5957   -0.7175 C   0  0  0  0  0  0  0  0  0  0  0  0
    3.8490    0.5758   -0.9358 O   0  0  0  0  0  0  0  0  0  0  0  0
    4.4757   -0.6555   -1.0255 C   0  0  0  0  0  0  0  0  0  0  0  0
    3.8725   -1.7430   -1.6555 C   0  0  0  0  0  0  0  0  0  0  0  0
    4.5826   -2.9219   -1.7147 C   0  0  0  0  0  0  0  0  0  0  0  0
    5.8262   -3.0744   -1.2147 N   0  0  0  0  0  0  0  0  0  0  0  0
    6.4221   -2.0131   -0.6449 C   0  0  0  0  0  0  0  0  0  0  0  0
    7.7149   -2.1655   -0.1677 C   0  0  0  0  0  0  0  0  0  0  0  0
    8.4200   -1.1039    0.4108 C   0  0  0  0  0  0  0  0  0  0  0  0
    9.7091   -1.1963    0.8828 O   0  0  0  0  0  0  0  0  0  0  0  0
   10.4239   -2.3965    0.6177 C   0  0  0  0  0  0  0  0  0  0  0  0
    7.8031    0.1512    0.5378 C   0  0  0  0  0  0  0  0  0  0  0  0
    8.5593    1.1379    1.1196 O   0  0  0  0  0  0  0  0  0  0  0  0
    7.9898    2.4357    1.2209 C   0  0  0  0  0  0  0  0  0  0  0  0
    6.4946    0.3155    0.0739 C   0  0  0  0  0  0  0  0  0  0  0  0
    5.7935   -0.7587   -0.5261 C   0  0  0  0  0  0  0  0  0  0  0  0
    1.7077    1.3905   -1.5492 C   0  0  0  0  0  0  0  0  0  0  0  0
    2.2758    2.0798   -2.5535 F   0  0  0  0  0  0  0  0  0  0  0  0
    0.3251    1.4512   -1.3899 C   0  0  0  0  0  0  0  0  0  0  0  0
   -2.8081    2.5878   -3.9260 H   0  0  0  0  0  0  0  0  0  0  0  0
   -4.2200    2.3898   -4.9949 H   0  0  0  0  0  0  0  0  0  0  0  0
   -4.2366    3.5826   -3.6781 H   0  0  0  0  0  0  0  0  0  0  0  0
   -4.1722    0.5360   -3.3370 H   0  0  0  0  0  0  0  0  0  0  0  0
   -5.5793    1.5984   -3.0673 H   0  0  0  0  0  0  0  0  0  0  0  0
   -6.7657    1.5151   -1.0384 H   0  0  0  0  0  0  0  0  0  0  0  0
   -8.5910    0.7085   -0.4288 H   0  0  0  0  0  0  0  0  0  0  0  0
  -10.7540    0.2289    0.5922 H   0  0  0  0  0  0  0  0  0  0  0  0
   -8.8479   -1.4774    3.9986 H   0  0  0  0  0  0  0  0  0  0  0  0
   -5.7455   -1.9775    2.7865 H   0  0  0  0  0  0  0  0  0  0  0  0
   -5.6166   -0.3390    3.5331 H   0  0  0  0  0  0  0  0  0  0  0  0
   -6.5971   -1.5824    4.2687 H   0  0  0  0  0  0  0  0  0  0  0  0
   -2.1585    1.3811   -0.9905 H   0  0  0  0  0  0  0  0  0  0  0  0
    0.0632   -0.6342    1.2938 H   0  0  0  0  0  0  0  0  0  0  0  0
    2.4849   -0.7001    1.0121 H   0  0  0  0  0  0  0  0  0  0  0  0
    2.8864   -1.6815   -2.0989 H   0  0  0  0  0  0  0  0  0  0  0  0
    4.1650   -3.8064   -2.1879 H   0  0  0  0  0  0  0  0  0  0  0  0
    8.1630   -3.1490   -0.2678 H   0  0  0  0  0  0  0  0  0  0  0  0
   11.4580   -2.2492    0.9484 H   0  0  0  0  0  0  0  0  0  0  0  0
   10.0050   -3.2344    1.1845 H   0  0  0  0  0  0  0  0  0  0  0  0
   10.4488   -2.6186   -0.4550 H   0  0  0  0  0  0  0  0  0  0  0  0
    7.7502    2.8438    0.2332 H   0  0  0  0  0  0  0  0  0  0  0  0
    8.7334    3.0954    1.6764 H   0  0  0  0  0  0  0  0  0  0  0  0
    7.1097    2.4304    1.8699 H   0  0  0  0  0  0  0  0  0  0  0  0
    5.9960    1.2762    0.1581 H   0  0  0  0  0  0  0  0  0  0  0  0
   -0.2459    2.0677   -2.0785 H   0  0  0  0  0  0  0  0  0  0  0  0
  1  2  1  0
  2  3  1  0
  3  4  1  0
  4  5  2  0
  5  6  1  0
  6  7  1  0
  7  8  2  0
  8  9  1  0
  9 10  2  0
 10 11  1  0
 10 12  1  0
 12 13  2  0
 13 14  1  0
  6 15  1  0
 15 16  2  0
 16 17  1  0
 17 18  2  0
 17 19  1  0
 19 20  1  0
 20 21  2  0
 21 22  1  0
 22 23  2  0
 23 24  1  0
 24 25  1  0
 25 26  2  0
 26 27  1  0
 27 28  2  0
 28 29  1  0
 29 30  2  0
 30 31  1  0
 31 32  1  0
 32 33  1  0
 31 34  2  0
 34 35  1  0
 35 36  1  0
 34 37  1  0
 37 38  2  0
 23 39  1  0
 39 40  1  0
 39 41  2  0
 16  4  1  0
 41 20  1  0
 13  7  1  0
 38 25  1  0
 38 29  1  0
  1 42  1  0
  1 43  1  0
  1 44  1  0
  2 45  1  0
  2 46  1  0
  5 47  1  0
  8 48  1  0
  9 49  1  0
 12 50  1  0
 14 51  1  0
 14 52  1  0
 14 53  1  0
 19 54  1  0
 21 55  1  0
 22 56  1  0
 26 57  1  0
 27 58  1  0
 30 59  1  0
 33 60  1  0
 33 61  1  0
 33 62  1  0
 36 63  1  0
 36 64  1  0
 36 65  1  0
 37 66  1  0
 41 67  1  0
M  END
$$$$
