
     RDKit          3D

 41 43  0  0  0  0  0  0  0  0999 V2000
    2.3212   -4.1628   -0.6660 N   0  0  0  0  0  0  0  0  0  0  0  0
    2.5113   -2.8113   -0.7639 C   0  0  0  0  0  0  0  0  0  0  0  0
    3.6299   -2.3186   -0.7530 O   0  0  0  0  0  0  0  0  0  0  0  0
    1.2931   -1.9841   -0.8899 C   0  0  0  0  0  0  0  0  0  0  0  0
    0.2930   -2.3728   -1.7840 C   0  0  0  0  0  0  0  0  0  0  0  0
   -0.8262   -1.5603   -1.9626 C   0  0  0  0  0  0  0  0  0  0  0  0
   -0.9271   -0.3639   -1.2565 C   0  0  0  0  0  0  0  0  0  0  0  0
   -2.0539    0.4967   -1.4190 N   0  0  0  0  0  0  0  0  0  0  0  0
   -2.8084    0.6074   -2.5771 C   0  0  0  0  0  0  0  0  0  0  0  0
   -2.1771    0.3049   -3.7493 N   0  0  0  0  0  0  0  0  0  0  0  0
   -3.9803    0.9746   -2.6334 O   0  0  0  0  0  0  0  0  0  0  0  0
   -2.4321    1.2693   -0.2709 C   0  0  0  0  0  0  0  0  0  0  0  0
   -2.7956    2.6167   -0.4055 C   0  0  0  0  0  0  0  0  0  0  0  0
   -2.7154    3.2284   -1.5981 F   0  0  0  0  0  0  0  0  0  0  0  0
   -3.1757    3.3870    0.6953 C   0  0  0  0  0  0  0  0  0  0  0  0
   -3.2050    2.8184    1.9666 C   0  0  0  0  0  0  0  0  0  0  0  0
   -2.8551    1.4796    2.1270 C   0  0  0  0  0  0  0  0  0  0  0  0
   -2.4767    0.7182    1.0191 C   0  0  0  0  0  0  0  0  0  0  0  0
   -2.2236   -0.5857    1.2190 F   0  0  0  0  0  0  0  0  0  0  0  0
    0.0475    0.0155   -0.3898 N   0  0  0  0  0  0  0  0  0  0  0  0
    1.1356   -0.7854   -0.1955 C   0  0  0  0  0  0  0  0  0  0  0  0
    2.0608   -0.2712    0.8242 C   0  0  0  0  0  0  0  0  0  0  0  0
    2.5920    1.0282    0.7207 C   0  0  0  0  0  0  0  0  0  0  0  0
    3.4611    1.5266    1.6950 C   0  0  0  0  0  0  0  0  0  0  0  0
    3.7979    0.7326    2.7849 C   0  0  0  0  0  0  0  0  0  0  0  0
    4.6276    1.2142    3.7195 F   0  0  0  0  0  0  0  0  0  0  0  0
    3.2796   -0.5457    2.9248 C   0  0  0  0  0  0  0  0  0  0  0  0
    2.4147   -1.0333    1.9494 C   0  0  0  0  0  0  0  0  0  0  0  0
    1.9002   -2.2625    2.1174 F   0  0  0  0  0  0  0  0  0  0  0  0
    3.1448   -4.7061   -0.4365 H   0  0  0  0  0  0  0  0  0  0  0  0
    1.4270   -4.5487   -0.3929 H   0  0  0  0  0  0  0  0  0  0  0  0
    0.3841   -3.2916   -2.3578 H   0  0  0  0  0  0  0  0  0  0  0  0
   -1.6135   -1.8909   -2.6332 H   0  0  0  0  0  0  0  0  0  0  0  0
   -1.2249    0.6401   -3.8224 H   0  0  0  0  0  0  0  0  0  0  0  0
   -2.7476    0.5500   -4.5508 H   0  0  0  0  0  0  0  0  0  0  0  0
   -3.4375    4.4308    0.5488 H   0  0  0  0  0  0  0  0  0  0  0  0
   -3.5013    3.4140    2.8263 H   0  0  0  0  0  0  0  0  0  0  0  0
   -2.8852    1.0130    3.1073 H   0  0  0  0  0  0  0  0  0  0  0  0
    2.3262    1.6564   -0.1279 H   0  0  0  0  0  0  0  0  0  0  0  0
    3.8739    2.5270    1.6091 H   0  0  0  0  0  0  0  0  0  0  0  0
    3.5406   -1.1545    3.7818 H   0  0  0  0  0  0  0  0  0  0  0  0
  1  2  1  0
  2  3  2  0
  2  4  1  0
  4  5  2  0
  5  6  1  0
  6  7  2  0
  7  8  1  0
  8  9  1  0
  9 10  1  0
  9 11  2  0
  8 12  1  0
 12 13  2  0
 13 14  1  0
 13 15  1  0
 15 16  2  0
 16 17  1  0
 17 18  2  0
 18 19  1  0
  7 20  1  0
 20 21  2  0
 21 22  1  0
 22 23  2  0
 23 24  1  0
 24 25  2  0
 25 26  1  0
 25 27  1  0
 27 28  2  0
 28 29  1  0
 21  4  1  0
 28 22  1  0
 18 12  1  0
  1 30  1  0
  1 31  1  0
  5 32  1  0
  6 33  1  0
 10 34  1  0
 10 35  1  0
 15 36  1  0
 16 37  1  0
 17 38  1  0
 23 39  1  0
 24 40  1  0
 27 41  1  0
M  END
$$$$
