
     RDKit          3D

 34 37  0  0  0  0  0  0  0  0999 V2000
    6.8950    0.0649   -0.0771 C   0  0  0  0  0  0  0  0  0  0  0  0
    5.9528   -0.2808   -1.0846 O   0  0  0  0  0  0  0  0  0  0  0  0
    4.6313   -0.2096   -0.7441 C   0  0  0  0  0  0  0  0  0  0  0  0
    3.7443   -0.5447   -1.7659 C   0  0  0  0  0  0  0  0  0  0  0  0
    2.3601   -0.5148   -1.5544 C   0  0  0  0  0  0  0  0  0  0  0  0
    1.8201   -0.1514   -0.3087 C   0  0  0  0  0  0  0  0  0  0  0  0
    0.3638   -0.1160   -0.0592 C   0  0  0  0  0  0  0  0  0  0  0  0
   -0.5494   -0.9125   -0.7416 C   0  0  0  0  0  0  0  0  0  0  0  0
   -1.8691   -0.7565   -0.3871 C   0  0  0  0  0  0  0  0  0  0  0  0
   -2.2615    0.1360    0.5931 C   0  0  0  0  0  0  0  0  0  0  0  0
   -1.3860    0.8940    1.2512 N   0  0  0  0  0  0  0  0  0  0  0  0
   -0.0552    0.7573    0.9122 N   0  0  0  0  0  0  0  0  0  0  0  0
   -3.6886    0.1011    0.7723 C   0  0  0  0  0  0  0  0  0  0  0  0
   -4.5276    0.8005    1.6200 C   0  0  0  0  0  0  0  0  0  0  0  0
   -5.9015    0.5340    1.5528 C   0  0  0  0  0  0  0  0  0  0  0  0
   -6.4171   -0.4180    0.6493 C   0  0  0  0  0  0  0  0  0  0  0  0
   -5.5702   -1.1243   -0.2065 C   0  0  0  0  0  0  0  0  0  0  0  0
   -4.2217   -0.8434   -0.1207 C   0  0  0  0  0  0  0  0  0  0  0  0
   -3.0882   -1.4175   -0.8836 C   0  0  0  0  0  0  0  0  0  0  0  0
   -3.1414   -2.2639   -1.7491 O   0  0  0  0  0  0  0  0  0  0  0  0
    2.7340    0.1895    0.7064 C   0  0  0  0  0  0  0  0  0  0  0  0
    4.1203    0.1602    0.4961 C   0  0  0  0  0  0  0  0  0  0  0  0
    6.7735    1.1071    0.2364 H   0  0  0  0  0  0  0  0  0  0  0  0
    6.8267   -0.6163    0.7776 H   0  0  0  0  0  0  0  0  0  0  0  0
    7.8963   -0.0389   -0.5061 H   0  0  0  0  0  0  0  0  0  0  0  0
    4.1325   -0.8278   -2.7418 H   0  0  0  0  0  0  0  0  0  0  0  0
    1.7157   -0.7663   -2.3937 H   0  0  0  0  0  0  0  0  0  0  0  0
   -0.2636   -1.6308   -1.4986 H   0  0  0  0  0  0  0  0  0  0  0  0
   -4.1367    1.5352    2.3181 H   0  0  0  0  0  0  0  0  0  0  0  0
   -6.5844    1.0710    2.2092 H   0  0  0  0  0  0  0  0  0  0  0  0
   -7.4894   -0.6029    0.6206 H   0  0  0  0  0  0  0  0  0  0  0  0
   -5.9490   -1.8601   -0.9077 H   0  0  0  0  0  0  0  0  0  0  0  0
    2.3692    0.4836    1.6906 H   0  0  0  0  0  0  0  0  0  0  0  0
    4.7651    0.4337    1.3245 H   0  0  0  0  0  0  0  0  0  0  0  0
  1  2  1  0
  2  3  1  0
  3  4  2  0
  4  5  1  0
  5  6  2  0
  6  7  1  0
  7  8  2  0
  8  9  1  0
  9 10  2  0
 10 11  1  0
 11 12  2  0
 10 13  1  0
 13 14  2  0
 14 15  1  0
 15 16  2  0
 16 17  1  0
 17 18  2  0
 18 19  1  0
 19 20  2  0
  6 21  1  0
 21 22  2  0
 22  3  1  0
 12  7  1  0
 18 13  1  0
 19  9  1  0
  1 23  1  0
  1 24  1  0
  1 25  1  0
  4 26  1  0
  5 27  1  0
  8 28  1  0
 14 29  1  0
 15 30  1  0
 16 31  1  0
 17 32  1  0
 21 33  1  0
 22 34  1  0
M  END
$$$$
