
     RDKit          3D

 57 60  0  0  0  0  0  0  0  0999 V2000
   -4.5868    4.5650   -0.9043 C   0  0  0  0  0  0  0  0  0  0  0  0
   -3.4077    3.9983   -0.2185 C   0  0  0  0  0  0  0  0  0  0  0  0
   -2.8967    4.5158    0.9022 N   0  0  0  0  0  0  0  0  0  0  0  0
   -1.8593    3.6987    1.1304 N   0  0  0  0  0  0  0  0  0  0  0  0
   -1.7883    2.7091    0.1904 C   0  0  0  0  0  0  0  0  0  0  0  0
   -0.7563    1.6447    0.2189 C   0  0  2  0  0  0  0  0  0  0  0  0
    0.5459    2.0617   -0.4564 C   0  0  0  0  0  0  0  0  0  0  0  0
    1.1838    0.8088   -0.8132 N   0  0  0  0  0  0  0  0  0  0  0  0
    2.5034    0.7631   -1.1957 C   0  0  0  0  0  0  0  0  0  0  0  0
    3.1840    1.7861   -1.2692 O   0  0  0  0  0  0  0  0  0  0  0  0
    3.0568   -0.6000   -1.5694 C   0  0  0  0  0  0  0  0  0  0  0  0
    4.5786   -0.6689   -1.4342 C   0  0  0  0  0  0  0  0  0  0  0  0
    5.0288   -0.7591   -0.0122 C   0  0  0  0  0  0  0  0  0  0  0  0
    5.0527   -1.9065    0.8313 C   0  0  0  0  0  0  0  0  0  0  0  0
    4.6562   -3.2972    0.5060 C   0  0  0  0  0  0  0  0  0  0  0  0
    5.4932   -1.6066    2.0572 N   0  0  0  0  0  0  0  0  0  0  0  0
    5.7887   -0.2579    2.0298 O   0  0  0  0  0  0  0  0  0  0  0  0
    5.5222    0.2435    0.7959 C   0  0  0  0  0  0  0  0  0  0  0  0
    5.7988    1.6819    0.6085 C   0  0  0  0  0  0  0  0  0  0  0  0
    0.2287   -0.2954   -0.7732 C   0  0  0  0  0  0  0  0  0  0  0  0
   -1.1435    0.3768   -0.5680 C   0  0  1  0  0  0  0  0  0  0  0  0
   -2.1413   -0.4219    0.1358 N   0  0  0  0  0  0  0  0  0  0  0  0
   -2.4503   -1.7020   -0.2828 C   0  0  0  0  0  0  0  0  0  0  0  0
   -1.7869   -2.3206   -1.1065 O   0  0  0  0  0  0  0  0  0  0  0  0
   -3.6718   -2.3101    0.3142 C   0  0  0  0  0  0  0  0  0  0  0  0
   -4.1324   -1.9405    1.5852 C   0  0  0  0  0  0  0  0  0  0  0  0
   -5.2832   -2.5311    2.1105 C   0  0  0  0  0  0  0  0  0  0  0  0
   -5.9702   -3.4971    1.3738 C   0  0  0  0  0  0  0  0  0  0  0  0
   -5.5014   -3.8859    0.1192 C   0  0  0  0  0  0  0  0  0  0  0  0
   -4.3523   -3.2964   -0.4090 C   0  0  0  0  0  0  0  0  0  0  0  0
   -2.7670    2.8741   -0.6712 N   0  0  0  0  0  0  0  0  0  0  0  0
   -5.4554    3.9144   -0.7650 H   0  0  0  0  0  0  0  0  0  0  0  0
   -4.8352    5.5577   -0.5177 H   0  0  0  0  0  0  0  0  0  0  0  0
   -4.3938    4.6578   -1.9777 H   0  0  0  0  0  0  0  0  0  0  0  0
   -1.2672    3.8648    1.9344 H   0  0  0  0  0  0  0  0  0  0  0  0
   -0.5522    1.3664    1.2624 H   0  0  0  0  0  0  0  0  0  0  0  0
    1.1916    2.6517    0.2032 H   0  0  0  0  0  0  0  0  0  0  0  0
    0.3799    2.6316   -1.3794 H   0  0  0  0  0  0  0  0  0  0  0  0
    2.7810   -0.7730   -2.6150 H   0  0  0  0  0  0  0  0  0  0  0  0
    2.5933   -1.3835   -0.9652 H   0  0  0  0  0  0  0  0  0  0  0  0
    5.0541    0.1871   -1.9282 H   0  0  0  0  0  0  0  0  0  0  0  0
    4.9362   -1.5594   -1.9668 H   0  0  0  0  0  0  0  0  0  0  0  0
    3.5819   -3.3516    0.3061 H   0  0  0  0  0  0  0  0  0  0  0  0
    4.8827   -3.9841    1.3280 H   0  0  0  0  0  0  0  0  0  0  0  0
    5.1911   -3.6482   -0.3812 H   0  0  0  0  0  0  0  0  0  0  0  0
    6.6079    2.0141    1.2676 H   0  0  0  0  0  0  0  0  0  0  0  0
    6.1013    1.8928   -0.4209 H   0  0  0  0  0  0  0  0  0  0  0  0
    4.9109    2.2761    0.8419 H   0  0  0  0  0  0  0  0  0  0  0  0
    0.2810   -0.8696   -1.7034 H   0  0  0  0  0  0  0  0  0  0  0  0
    0.4980   -0.9443    0.0678 H   0  0  0  0  0  0  0  0  0  0  0  0
   -1.5657    0.6326   -1.5492 H   0  0  0  0  0  0  0  0  0  0  0  0
   -2.9277    0.1096    0.4954 H   0  0  0  0  0  0  0  0  0  0  0  0
   -3.5947   -1.2140    2.1893 H   0  0  0  0  0  0  0  0  0  0  0  0
   -5.6387   -2.2488    3.0982 H   0  0  0  0  0  0  0  0  0  0  0  0
   -6.8644   -3.9588    1.7845 H   0  0  0  0  0  0  0  0  0  0  0  0
   -6.0336   -4.6447   -0.4485 H   0  0  0  0  0  0  0  0  0  0  0  0
   -3.9889   -3.6070   -1.3863 H   0  0  0  0  0  0  0  0  0  0  0  0
  1  2  1  0
  2  3  2  0
  3  4  1  0
  4  5  1  0
  5  6  1  0
  6  7  1  0
  7  8  1  0
  8  9  1  0
  9 10  2  0
  9 11  1  0
 11 12  1  0
 12 13  1  0
 13 14  1  0
 14 15  1  0
 14 16  2  0
 16 17  1  0
 17 18  1  0
 18 19  1  0
  8 20  1  0
 20 21  1  0
 21 22  1  0
 22 23  1  0
 23 24  2  0
 23 25  1  0
 25 26  2  0
 26 27  1  0
 27 28  2  0
 28 29  1  0
 29 30  2  0
  5 31  2  0
 31  2  1  0
 21  6  1  0
 30 25  1  0
 18 13  2  0
  1 32  1  0
  1 33  1  0
  1 34  1  0
  4 35  1  0
  6 36  1  1
  7 37  1  0
  7 38  1  0
 11 39  1  0
 11 40  1  0
 12 41  1  0
 12 42  1  0
 15 43  1  0
 15 44  1  0
 15 45  1  0
 19 46  1  0
 19 47  1  0
 19 48  1  0
 20 49  1  0
 20 50  1  0
 21 51  1  6
 22 52  1  0
 26 53  1  0
 27 54  1  0
 28 55  1  0
 29 56  1  0
 30 57  1  0
M  END
$$$$
