
     RDKit          3D

 13 13  0  0  0  0  0  0  0  0999 V2000
    1.4833    1.8001    0.6973 O   0  0  0  0  0  1  0  0  0  0  0  0
    0.6309    0.9108    0.3595 N   0  0  0  0  0  4  0  0  0  0  0  0
   -0.7224    1.1580    0.5427 C   0  0  0  0  0  0  0  0  0  0  0  0
   -1.6926    0.2222    0.1914 C   0  0  0  0  0  0  0  0  0  0  0  0
   -1.3004   -0.9925   -0.3573 C   0  0  0  0  0  0  0  0  0  0  0  0
    0.0523   -1.2643   -0.5512 C   0  0  0  0  0  0  0  0  0  0  0  0
    1.0209   -0.3150   -0.1939 C   0  0  0  0  0  0  0  0  0  0  0  0
    2.7518   -0.6659   -0.4432 S   0  0  0  0  0  0  0  0  0  0  0  0
   -0.9247    2.1267    0.9741 H   0  0  0  0  0  0  0  0  0  0  0  0
   -2.7451    0.4445    0.3468 H   0  0  0  0  0  0  0  0  0  0  0  0
   -2.0485   -1.7323   -0.6361 H   0  0  0  0  0  0  0  0  0  0  0  0
    0.3526   -2.2174   -0.9813 H   0  0  0  0  0  0  0  0  0  0  0  0
    3.1419    0.5251    0.0513 H   0  0  0  0  0  0  0  0  0  0  0  0
  1  2  1  0
  2  3  2  0
  3  4  1  0
  4  5  2  0
  5  6  1  0
  6  7  2  0
  7  8  1  0
  7  2  1  0
  3  9  1  0
  4 10  1  0
  5 11  1  0
  6 12  1  0
  8 13  1  0
M  CHG  2   1  -1   2   1
M  END
$$$$
