
     RDKit          3D

 41 42  0  0  0  0  0  0  0  0999 V2000
    5.8581   -3.2286   -0.7967 C   0  0  0  0  0  0  0  0  0  0  0  0
    5.8797   -1.8902   -1.2764 O   0  0  0  0  0  0  0  0  0  0  0  0
    4.7002   -1.1996   -1.2405 C   0  0  0  0  0  0  0  0  0  0  0  0
    4.7333    0.0465   -1.8647 C   0  0  0  0  0  0  0  0  0  0  0  0
    3.6022    0.8712   -1.8874 C   0  0  0  0  0  0  0  0  0  0  0  0
    2.4174    0.4536   -1.2899 C   0  0  0  0  0  0  0  0  0  0  0  0
    1.2256    1.2008   -1.2909 N   0  0  0  0  0  0  0  0  0  0  0  0
    1.0170    2.4643   -1.8141 C   0  0  0  0  0  0  0  0  0  0  0  0
    1.8712    3.2022   -2.2986 O   0  0  0  0  0  0  0  0  0  0  0  0
   -0.4458    2.8846   -1.8054 C   0  0  0  0  0  0  0  0  0  0  0  0
   -0.9708    3.4372   -0.1529 S   0  0  0  0  0  0  0  0  0  0  0  0
   -1.6159    1.9529    0.4608 C   0  0  0  0  0  0  0  0  0  0  0  0
   -1.1375    0.7500    0.2397 N   0  0  0  0  0  0  0  0  0  0  0  0
   -2.0069   -0.1499    0.8065 N   0  0  0  0  0  0  0  0  0  0  0  0
   -3.0062    0.5242    1.3573 C   0  0  0  0  0  0  0  0  0  0  0  0
   -4.2458   -0.0525    1.9760 C   0  0  0  0  0  0  0  0  0  0  0  0
   -3.9022   -1.1435    2.9900 C   0  0  0  0  0  0  0  0  0  0  0  0
   -5.1581   -0.6088    0.8751 C   0  0  0  0  0  0  0  0  0  0  0  0
   -2.7647    1.8715    1.2068 N   0  0  0  0  0  0  0  0  0  0  0  0
   -3.5699    2.9520    1.6874 N   0  0  0  0  0  0  0  0  0  0  0  0
    2.3867   -0.7944   -0.6515 C   0  0  0  0  0  0  0  0  0  0  0  0
    3.5218   -1.6157   -0.6192 C   0  0  0  0  0  0  0  0  0  0  0  0
    5.1671   -3.8442   -1.3811 H   0  0  0  0  0  0  0  0  0  0  0  0
    5.6140   -3.2715    0.2652 H   0  0  0  0  0  0  0  0  0  0  0  0
    6.8611   -3.6455   -0.9162 H   0  0  0  0  0  0  0  0  0  0  0  0
    5.6520    0.3864   -2.3371 H   0  0  0  0  0  0  0  0  0  0  0  0
    3.6992    1.8358   -2.3684 H   0  0  0  0  0  0  0  0  0  0  0  0
    0.4303    0.7621   -0.8263 H   0  0  0  0  0  0  0  0  0  0  0  0
   -0.5726    3.7135   -2.5063 H   0  0  0  0  0  0  0  0  0  0  0  0
   -1.0654    2.0564   -2.1765 H   0  0  0  0  0  0  0  0  0  0  0  0
   -4.7991    0.7285    2.5122 H   0  0  0  0  0  0  0  0  0  0  0  0
   -3.3326   -1.9598    2.5329 H   0  0  0  0  0  0  0  0  0  0  0  0
   -3.2987   -0.7352    3.8135 H   0  0  0  0  0  0  0  0  0  0  0  0
   -4.8130   -1.5743    3.4289 H   0  0  0  0  0  0  0  0  0  0  0  0
   -5.4012    0.1732    0.1407 H   0  0  0  0  0  0  0  0  0  0  0  0
   -6.1006   -0.9830    1.2882 H   0  0  0  0  0  0  0  0  0  0  0  0
   -4.6776   -1.4324    0.3329 H   0  0  0  0  0  0  0  0  0  0  0  0
   -3.3294    3.1669    2.6535 H   0  0  0  0  0  0  0  0  0  0  0  0
   -3.3650    3.8072    1.1701 H   0  0  0  0  0  0  0  0  0  0  0  0
    1.4836   -1.1392   -0.1488 H   0  0  0  0  0  0  0  0  0  0  0  0
    3.4585   -2.5620   -0.0886 H   0  0  0  0  0  0  0  0  0  0  0  0
  1  2  1  0
  2  3  1  0
  3  4  2  0
  4  5  1  0
  5  6  2  0
  6  7  1  0
  7  8  1  0
  8  9  2  0
  8 10  1  0
 10 11  1  0
 11 12  1  0
 12 13  2  0
 13 14  1  0
 14 15  2  0
 15 16  1  0
 16 17  1  0
 16 18  1  0
 15 19  1  0
 19 20  1  0
  6 21  1  0
 21 22  2  0
 22  3  1  0
 19 12  1  0
  1 23  1  0
  1 24  1  0
  1 25  1  0
  4 26  1  0
  5 27  1  0
  7 28  1  0
 10 29  1  0
 10 30  1  0
 16 31  1  0
 17 32  1  0
 17 33  1  0
 17 34  1  0
 18 35  1  0
 18 36  1  0
 18 37  1  0
 20 38  1  0
 20 39  1  0
 21 40  1  0
 22 41  1  0
M  END
$$$$
