
     RDKit          3D

 53 56  0  0  0  0  0  0  0  0999 V2000
    1.9149    0.0870   -2.9144 C   0  0  0  0  0  0  0  0  0  0  0  0
    2.8634   -0.1765   -1.7771 C   0  0  0  0  0  0  0  0  0  0  0  0
    3.7526   -1.2618   -1.8849 C   0  0  0  0  0  0  0  0  0  0  0  0
    4.6774   -1.5315   -0.8734 C   0  0  0  0  0  0  0  0  0  0  0  0
    4.7367   -0.7238    0.2605 C   0  0  0  0  0  0  0  0  0  0  0  0
    3.8660    0.3549    0.3878 C   0  0  0  0  0  0  0  0  0  0  0  0
    2.9315    0.6298   -0.6227 C   0  0  0  0  0  0  0  0  0  0  0  0
    1.8589    2.0391   -0.3938 S   0  0  0  0  0  6  0  0  0  0  0  0
    2.1652    2.6585    0.8790 O   0  0  0  0  0  0  0  0  0  0  0  0
    1.8741    2.8116   -1.6167 O   0  0  0  0  0  0  0  0  0  0  0  0
    0.3181    1.3256   -0.2279 N   0  0  0  0  0  0  0  0  0  0  0  0
    0.1306    0.4550    0.9822 C   0  0  0  0  0  0  0  0  0  0  0  0
   -0.8580    1.0502    1.9915 C   0  0  0  0  0  0  0  0  0  0  0  0
   -2.1690    1.3064    1.3860 N   0  0  0  0  0  0  0  0  0  0  0  0
   -3.3141    1.0398    2.1216 C   0  0  0  0  0  0  0  0  0  0  0  0
   -3.2584    0.6414    3.2880 O   0  0  0  0  0  0  0  0  0  0  0  0
   -4.6706    1.2469    1.4597 C   0  0  0  0  0  0  0  0  0  0  0  0
   -5.0379    0.1766    0.4572 C   0  0  0  0  0  0  0  0  0  0  0  0
   -4.9396   -1.1840    0.7919 C   0  0  0  0  0  0  0  0  0  0  0  0
   -5.2944   -2.1671   -0.1329 C   0  0  0  0  0  0  0  0  0  0  0  0
   -5.7596   -1.7926   -1.3868 C   0  0  0  0  0  0  0  0  0  0  0  0
   -6.1011   -2.7362   -2.2738 F   0  0  0  0  0  0  0  0  0  0  0  0
   -5.8824   -0.4524   -1.7324 C   0  0  0  0  0  0  0  0  0  0  0  0
   -5.5278    0.5332   -0.8098 C   0  0  0  0  0  0  0  0  0  0  0  0
   -2.1509    1.7217   -0.0207 C   0  0  0  0  0  0  0  0  0  0  0  0
   -0.7963    2.3029   -0.4456 C   0  0  0  0  0  0  0  0  0  0  0  0
    5.5855   -0.9415    1.3081 O   0  0  0  0  0  0  0  0  0  0  0  0
    6.6220   -1.8787    1.0588 C   0  0  0  0  0  0  0  0  0  0  0  0
    6.4874   -2.9036   -0.0665 C   0  0  0  0  0  0  0  0  0  0  0  0
    7.2152   -3.8880   -0.1706 O   0  0  0  0  0  0  0  0  0  0  0  0
    5.5277   -2.6280   -0.9987 N   0  0  0  0  0  0  0  0  0  0  0  0
    1.9043   -0.7490   -3.6226 H   0  0  0  0  0  0  0  0  0  0  0  0
    0.8880    0.2026   -2.5597 H   0  0  0  0  0  0  0  0  0  0  0  0
    2.2224    0.9791   -3.4675 H   0  0  0  0  0  0  0  0  0  0  0  0
    3.7226   -1.8957   -2.7690 H   0  0  0  0  0  0  0  0  0  0  0  0
    3.9247    0.9767    1.2791 H   0  0  0  0  0  0  0  0  0  0  0  0
   -0.2405   -0.5130    0.6231 H   0  0  0  0  0  0  0  0  0  0  0  0
    1.0812    0.2581    1.4862 H   0  0  0  0  0  0  0  0  0  0  0  0
   -0.4871    2.0114    2.3667 H   0  0  0  0  0  0  0  0  0  0  0  0
   -0.9529    0.3766    2.8492 H   0  0  0  0  0  0  0  0  0  0  0  0
   -5.4348    1.2524    2.2479 H   0  0  0  0  0  0  0  0  0  0  0  0
   -4.7033    2.2472    1.0152 H   0  0  0  0  0  0  0  0  0  0  0  0
   -4.5890   -1.4873    1.7779 H   0  0  0  0  0  0  0  0  0  0  0  0
   -5.2172   -3.2198    0.1202 H   0  0  0  0  0  0  0  0  0  0  0  0
   -6.2597   -0.1850   -2.7142 H   0  0  0  0  0  0  0  0  0  0  0  0
   -5.6402    1.5792   -1.0864 H   0  0  0  0  0  0  0  0  0  0  0  0
   -2.3756    0.8324   -0.6207 H   0  0  0  0  0  0  0  0  0  0  0  0
   -2.9364    2.4607   -0.1981 H   0  0  0  0  0  0  0  0  0  0  0  0
   -0.8385    2.5563   -1.5105 H   0  0  0  0  0  0  0  0  0  0  0  0
   -0.6010    3.2199    0.1237 H   0  0  0  0  0  0  0  0  0  0  0  0
    6.7656   -2.4428    1.9871 H   0  0  0  0  0  0  0  0  0  0  0  0
    7.5420   -1.3128    0.8709 H   0  0  0  0  0  0  0  0  0  0  0  0
    5.4585   -3.2623   -1.7832 H   0  0  0  0  0  0  0  0  0  0  0  0
  1  2  1  0
  2  3  2  0
  3  4  1  0
  4  5  2  0
  5  6  1  0
  6  7  2  0
  7  8  1  0
  8  9  2  0
  8 10  2  0
  8 11  1  0
 11 12  1  0
 12 13  1  0
 13 14  1  0
 14 15  1  0
 15 16  2  0
 15 17  1  0
 17 18  1  0
 18 19  2  0
 19 20  1  0
 20 21  2  0
 21 22  1  0
 21 23  1  0
 23 24  2  0
 14 25  1  0
 25 26  1  0
  5 27  1  0
 27 28  1  0
 28 29  1  0
 29 30  2  0
 29 31  1  0
  7  2  1  0
 26 11  1  0
 31  4  1  0
 24 18  1  0
  1 32  1  0
  1 33  1  0
  1 34  1  0
  3 35  1  0
  6 36  1  0
 12 37  1  0
 12 38  1  0
 13 39  1  0
 13 40  1  0
 17 41  1  0
 17 42  1  0
 19 43  1  0
 20 44  1  0
 23 45  1  0
 24 46  1  0
 25 47  1  0
 25 48  1  0
 26 49  1  0
 26 50  1  0
 28 51  1  0
 28 52  1  0
 31 53  1  0
M  END
$$$$
