
     RDKit          3D

 43 45  0  0  0  0  0  0  0  0999 V2000
   -2.8420   -0.8949    2.8341 O   0  0  0  0  0  0  0  0  0  0  0  0
   -3.3871   -1.0652    1.7621 C   0  0  0  0  0  0  0  0  0  0  0  0
   -4.2188   -2.1015    1.5398 O   0  0  0  0  0  0  0  0  0  0  0  0
   -3.3178   -0.2047    0.5681 C   0  0  0  0  0  0  0  0  0  0  0  0
   -4.5184    0.4974    0.3077 C   0  0  0  0  0  0  0  0  0  0  0  0
   -4.6253    1.3772   -0.7713 C   0  0  0  0  0  0  0  0  0  0  0  0
   -5.8990    2.1378   -1.0340 C   0  0  0  0  0  0  0  0  0  0  0  0
   -6.1179    2.3692   -2.3587 F   0  0  0  0  0  0  0  0  0  0  0  0
   -7.0110    1.4941   -0.5810 F   0  0  0  0  0  0  0  0  0  0  0  0
   -5.9043    3.3603   -0.4351 F   0  0  0  0  0  0  0  0  0  0  0  0
   -3.5030    1.5558   -1.5758 C   0  0  0  0  0  0  0  0  0  0  0  0
   -2.3151    0.8565   -1.3104 C   0  0  0  0  0  0  0  0  0  0  0  0
   -2.1639   -0.0481   -0.2332 C   0  0  0  0  0  0  0  0  0  0  0  0
   -0.9615   -0.7113   -0.0803 N   0  0  0  0  0  0  0  0  0  0  0  0
   -0.6482   -1.7238    0.9255 C   0  0  0  0  0  0  0  0  0  0  0  0
    0.6975   -2.2916    0.4779 C   0  0  0  0  0  0  0  0  0  0  0  0
    1.4170   -1.0685   -0.0695 C   0  0  2  0  0  0  0  0  0  0  0  0
    1.9589   -0.2794    0.9994 O   0  0  0  0  0  0  0  0  0  0  0  0
    3.2621   -0.7064    1.4085 C   0  0  0  0  0  0  0  0  0  0  0  0
    4.3361   -0.1530    0.4995 C   0  0  0  0  0  0  0  0  0  0  0  0
    4.5162    1.2248    0.3896 C   0  0  0  0  0  0  0  0  0  0  0  0
    5.5044    1.7083   -0.4624 C   0  0  0  0  0  0  0  0  0  0  0  0
    6.2830    0.8092   -1.1803 C   0  0  0  0  0  0  0  0  0  0  0  0
    6.0372   -0.5437   -1.0185 C   0  0  0  0  0  0  0  0  0  0  0  0
    5.0840   -1.0438   -0.2014 N   0  0  0  0  0  0  0  0  0  0  0  0
    0.2799   -0.2912   -0.7609 C   0  0  0  0  0  0  0  0  0  0  0  0
   -4.2139   -2.5963    2.3850 H   0  0  0  0  0  0  0  0  0  0  0  0
   -5.3764    0.3464    0.9637 H   0  0  0  0  0  0  0  0  0  0  0  0
   -3.5378    2.2359   -2.4263 H   0  0  0  0  0  0  0  0  0  0  0  0
   -1.4914    1.0327   -1.9988 H   0  0  0  0  0  0  0  0  0  0  0  0
   -1.3872   -2.5297    0.9581 H   0  0  0  0  0  0  0  0  0  0  0  0
   -0.5430   -1.2633    1.9135 H   0  0  0  0  0  0  0  0  0  0  0  0
    0.5424   -3.0240   -0.3234 H   0  0  0  0  0  0  0  0  0  0  0  0
    1.2134   -2.7813    1.3081 H   0  0  0  0  0  0  0  0  0  0  0  0
    2.1997   -1.3228   -0.7920 H   0  0  0  0  0  0  0  0  0  0  0  0
    3.3183   -1.7995    1.4646 H   0  0  0  0  0  0  0  0  0  0  0  0
    3.4321   -0.3232    2.4208 H   0  0  0  0  0  0  0  0  0  0  0  0
    3.8894    1.9090    0.9537 H   0  0  0  0  0  0  0  0  0  0  0  0
    5.6632    2.7780   -0.5651 H   0  0  0  0  0  0  0  0  0  0  0  0
    7.0614    1.1539   -1.8514 H   0  0  0  0  0  0  0  0  0  0  0  0
    6.6183   -1.2854   -1.5592 H   0  0  0  0  0  0  0  0  0  0  0  0
    0.4441    0.7888   -0.6741 H   0  0  0  0  0  0  0  0  0  0  0  0
    0.2240   -0.5808   -1.8165 H   0  0  0  0  0  0  0  0  0  0  0  0
  1  2  2  0
  2  3  1  0
  2  4  1  0
  4  5  2  0
  5  6  1  0
  6  7  1  0
  7  8  1  0
  7  9  1  0
  7 10  1  0
  6 11  2  0
 11 12  1  0
 12 13  2  0
 13 14  1  0
 14 15  1  0
 15 16  1  0
 16 17  1  0
 17 18  1  0
 18 19  1  0
 19 20  1  0
 20 21  2  0
 21 22  1  0
 22 23  2  0
 23 24  1  0
 24 25  2  0
 17 26  1  0
 13  4  1  0
 26 14  1  0
 25 20  1  0
  3 27  1  0
  5 28  1  0
 11 29  1  0
 12 30  1  0
 15 31  1  0
 15 32  1  0
 16 33  1  0
 16 34  1  0
 17 35  1  6
 19 36  1  0
 19 37  1  0
 21 38  1  0
 22 39  1  0
 23 40  1  0
 24 41  1  0
 26 42  1  0
 26 43  1  0
M  END
$$$$
