
     RDKit          3D

 75 76  0  0  0  0  0  0  0  0999 V2000
   -3.2596   -2.8827    1.1736 C   0  0  0  0  0  0  0  0  0  0  0  0
   -3.8686   -1.5061    0.9618 C   0  0  0  0  0  0  0  0  0  0  0  0
   -3.0981   -0.8441   -0.0554 O   0  0  0  0  0  0  0  0  0  0  0  0
   -3.7928    0.2286   -0.5565 C   0  0  0  0  0  0  0  0  0  0  0  0
   -4.6375   -0.0144   -1.6458 C   0  0  0  0  0  0  0  0  0  0  0  0
   -5.3515    1.0264   -2.2456 C   0  0  0  0  0  0  0  0  0  0  0  0
   -6.2877    0.7244   -3.2504 N   0  0  0  0  0  0  0  0  0  0  0  0
   -5.2553    2.3092   -1.6759 C   0  0  0  0  0  0  0  0  0  0  0  0
   -6.1722    3.6273   -2.3228 Cl  0  0  0  0  0  0  0  0  0  0  0  0
   -4.3899    2.5640   -0.6097 C   0  0  0  0  0  0  0  0  0  0  0  0
   -3.6264    1.5273   -0.0553 C   0  0  0  0  0  0  0  0  0  0  0  0
   -2.6714    1.8937    1.0329 C   0  0  0  0  0  0  0  0  0  0  0  0
   -2.8190    2.9415    1.6504 O   0  0  0  0  0  0  0  0  0  0  0  0
   -1.6446    1.0099    1.2711 N   0  0  0  0  0  0  0  0  0  0  0  0
   -0.5083    1.3301    2.1227 C   0  0  0  0  0  0  0  0  0  0  0  0
    0.8382    1.2674    1.3732 C   0  0  0  0  0  0  0  0  0  0  0  0
    1.1798   -0.1748    0.9311 C   0  0  0  0  0  0  0  0  0  0  0  0
    2.4541   -0.2976    0.1953 N   0  0  0  0  0  0  0  0  0  0  0  0
    3.5532   -0.7624    1.0524 C   0  0  0  0  0  0  0  0  0  0  0  0
    4.7673   -1.1995    0.2571 C   0  0  0  0  0  0  0  0  0  0  0  0
    6.0069   -0.5627    0.4265 C   0  0  0  0  0  0  0  0  0  0  0  0
    7.1191   -0.9788   -0.3083 C   0  0  0  0  0  0  0  0  0  0  0  0
    6.9925   -2.0299   -1.2103 C   0  0  0  0  0  0  0  0  0  0  0  0
    8.0601   -2.4315   -1.9131 F   0  0  0  0  0  0  0  0  0  0  0  0
    5.7748   -2.6727   -1.3933 C   0  0  0  0  0  0  0  0  0  0  0  0
    4.6633   -2.2586   -0.6604 C   0  0  0  0  0  0  0  0  0  0  0  0
    2.7937    0.9734   -0.4871 C   0  0  0  0  0  0  0  0  0  0  0  0
    1.5373    1.7656   -0.8720 C   0  0  0  0  0  0  0  0  0  0  0  0
    0.8038    2.2020    0.2766 O   0  0  0  0  0  0  0  0  0  0  0  0
   -1.7806    1.4666    0.7309 O   0  0  0  0  0  0  0  0  0  0  0  0
   -1.5893    1.1240   -0.4222 C   0  0  0  0  0  0  0  0  0  0  0  0
   -1.8827    1.9497   -1.4439 O   0  0  0  0  0  0  0  0  0  0  0  0
   -1.1045   -0.2179   -0.9021 C   0  0  0  0  0  0  0  0  0  0  0  0
   -0.0360   -0.9009   -0.0369 C   0  0  0  0  0  0  0  0  0  0  0  0
   -0.2448   -2.3343   -0.1916 O   0  0  0  0  0  0  0  0  0  0  0  0
    1.4047   -0.6601   -0.5034 C   0  0  0  0  0  0  0  0  0  0  0  0
    1.8474    0.7690   -0.3848 C   0  0  0  0  0  0  0  0  0  0  0  0
    1.2050    1.7525   -0.7109 O   0  0  0  0  0  0  0  0  0  0  0  0
    3.1028    0.8873    0.0865 O   0  0  0  0  0  0  0  0  0  0  0  0
   -0.1568   -0.6010    1.4647 C   0  0  0  0  0  0  0  0  0  0  0  0
    0.5546    0.1213    2.1399 O   0  0  0  0  0  0  0  0  0  0  0  0
   -1.1871   -1.2817    2.0266 O   0  0  0  0  0  0  0  0  0  0  0  0
   -2.1963   -2.7999    1.4283 H   0  0  0  0  0  0  0  0  0  0  0  0
   -3.7761   -3.4212    1.9735 H   0  0  0  0  0  0  0  0  0  0  0  0
   -3.3262   -3.4742    0.2545 H   0  0  0  0  0  0  0  0  0  0  0  0
   -4.9226   -1.6119    0.6734 H   0  0  0  0  0  0  0  0  0  0  0  0
   -3.8061   -0.9320    1.8950 H   0  0  0  0  0  0  0  0  0  0  0  0
   -4.7386   -1.0283   -2.0202 H   0  0  0  0  0  0  0  0  0  0  0  0
   -6.5737    1.5453   -3.7818 H   0  0  0  0  0  0  0  0  0  0  0  0
   -6.0363   -0.0591   -3.8443 H   0  0  0  0  0  0  0  0  0  0  0  0
   -4.2937    3.5780   -0.2217 H   0  0  0  0  0  0  0  0  0  0  0  0
   -1.6218    0.1604    0.7163 H   0  0  0  0  0  0  0  0  0  0  0  0
   -0.5162    0.6163    2.9531 H   0  0  0  0  0  0  0  0  0  0  0  0
   -0.6399    2.3359    2.5352 H   0  0  0  0  0  0  0  0  0  0  0  0
    1.6179    1.6158    2.0637 H   0  0  0  0  0  0  0  0  0  0  0  0
    1.1449   -0.8534    1.7918 H   0  0  0  0  0  0  0  0  0  0  0  0
    0.4033   -0.5324    0.2431 H   0  0  0  0  0  0  0  0  0  0  0  0
    3.8253    0.0025    1.7896 H   0  0  0  0  0  0  0  0  0  0  0  0
    3.2336   -1.6406    1.6284 H   0  0  0  0  0  0  0  0  0  0  0  0
    6.1130    0.2593    1.1290 H   0  0  0  0  0  0  0  0  0  0  0  0
    8.0819   -0.4931   -0.1850 H   0  0  0  0  0  0  0  0  0  0  0  0
    5.6953   -3.4865   -2.1056 H   0  0  0  0  0  0  0  0  0  0  0  0
    3.7049   -2.7529   -0.8105 H   0  0  0  0  0  0  0  0  0  0  0  0
    3.3740    0.7563   -1.3895 H   0  0  0  0  0  0  0  0  0  0  0  0
    3.4049    1.6094    0.1676 H   0  0  0  0  0  0  0  0  0  0  0  0
    0.8720    1.1729   -1.5081 H   0  0  0  0  0  0  0  0  0  0  0  0
    1.8151    2.6584   -1.4394 H   0  0  0  0  0  0  0  0  0  0  0  0
   -2.1088    2.8012   -1.0082 H   0  0  0  0  0  0  0  0  0  0  0  0
   -1.9984   -0.8502   -0.9758 H   0  0  0  0  0  0  0  0  0  0  0  0
   -0.7271   -0.1172   -1.9277 H   0  0  0  0  0  0  0  0  0  0  0  0
   -0.9750   -2.5636    0.4208 H   0  0  0  0  0  0  0  0  0  0  0  0
    1.5398   -0.9741   -1.5457 H   0  0  0  0  0  0  0  0  0  0  0  0
    2.0850   -1.2873    0.0888 H   0  0  0  0  0  0  0  0  0  0  0  0
    3.2574    1.8518    0.1502 H   0  0  0  0  0  0  0  0  0  0  0  0
   -1.2058   -0.9354    2.9447 H   0  0  0  0  0  0  0  0  0  0  0  0
  1  2  1  0
  2  3  1  0
  3  4  1  0
  4  5  2  0
  5  6  1  0
  6  7  1  0
  6  8  2  0
  8  9  1  0
  8 10  1  0
 10 11  2  0
 11 12  1  0
 12 13  2  0
 12 14  1  0
 14 15  1  0
 15 16  1  0
 16 17  1  0
 17 18  1  0
 18 19  1  0
 19 20  1  0
 20 21  2  0
 21 22  1  0
 22 23  2  0
 23 24  1  0
 23 25  1  0
 25 26  2  0
 18 27  1  0
 27 28  1  0
 28 29  1  0
 30 31  2  0
 31 32  1  0
 31 33  1  0
 33 34  1  0
 34 35  1  0
 34 36  1  0
 36 37  1  0
 37 38  2  0
 37 39  1  0
 34 40  1  0
 40 41  2  0
 40 42  1  0
 11  4  1  0
 29 16  1  0
 26 20  1  0
  1 43  1  0
  1 44  1  0
  1 45  1  0
  2 46  1  0
  2 47  1  0
  5 48  1  0
  7 49  1  0
  7 50  1  0
 10 51  1  0
 14 52  1  0
 15 53  1  0
 15 54  1  0
 16 55  1  0
 17 56  1  0
 17 57  1  0
 19 58  1  0
 19 59  1  0
 21 60  1  0
 22 61  1  0
 25 62  1  0
 26 63  1  0
 27 64  1  0
 27 65  1  0
 28 66  1  0
 28 67  1  0
 32 68  1  0
 33 69  1  0
 33 70  1  0
 35 71  1  0
 36 72  1  0
 36 73  1  0
 39 74  1  0
 42 75  1  0
M  END
$$$$
