
     RDKit          3D

 52 54  0  0  0  0  0  0  0  0999 V2000
   -2.5919   -3.5144    0.6637 C   0  0  0  0  0  0  0  0  0  0  0  0
   -2.4712   -2.1167    0.4171 O   0  0  0  0  0  0  0  0  0  0  0  0
   -3.5784   -1.3432    0.6509 C   0  0  0  0  0  0  0  0  0  0  0  0
   -4.7421   -1.8113    1.2758 C   0  0  0  0  0  0  0  0  0  0  0  0
   -5.8448   -0.9689    1.4387 C   0  0  0  0  0  0  0  0  0  0  0  0
   -7.2654   -1.5664    2.2055 Cl  0  0  0  0  0  0  0  0  0  0  0  0
   -5.8101    0.3453    0.9849 C   0  0  0  0  0  0  0  0  0  0  0  0
   -4.6540    0.8270    0.3741 C   0  0  0  0  0  0  0  0  0  0  0  0
   -3.5308   -0.0042    0.2199 C   0  0  0  0  0  0  0  0  0  0  0  0
   -2.3327    0.6123   -0.4200 C   0  0  0  0  0  0  0  0  0  0  0  0
   -2.5167    1.3892   -1.3504 O   0  0  0  0  0  0  0  0  0  0  0  0
   -1.1165    0.2792    0.1487 N   0  0  0  0  0  0  0  0  0  0  0  0
    0.1585    0.8388   -0.1247 C   0  0  0  0  0  0  0  0  0  0  0  0
    0.3053    1.9139   -1.0181 C   0  0  0  0  0  0  0  0  0  0  0  0
    1.5598    2.4692   -1.1862 C   0  0  0  0  0  0  0  0  0  0  0  0
    2.6741    1.9989   -0.4986 C   0  0  0  0  0  0  0  0  0  0  0  0
    2.5875    0.9403    0.3718 C   0  0  0  0  0  0  0  0  0  0  0  0
    1.3208    0.3453    0.5363 C   0  0  0  0  0  0  0  0  0  0  0  0
    1.2457   -1.0746    1.6161 S   0  0  0  0  0  6  0  0  0  0  0  0
   -0.0663   -1.0557    2.2408 O   0  0  0  0  0  0  0  0  0  0  0  0
    2.4424   -1.0665    2.4368 O   0  0  0  0  0  0  0  0  0  0  0  0
    1.3182   -2.4895    0.5081 C   0  0  0  0  0  0  0  0  0  0  0  0
    2.5816   -2.4954   -0.3463 C   0  0  0  0  0  0  0  0  0  0  0  0
    1.2234   -3.7806    1.3192 C   0  0  0  0  0  0  0  0  0  0  0  0
    3.7758    2.7746   -0.8750 N   0  0  0  0  0  0  0  0  0  0  0  0
    5.1157    2.6086   -0.3914 C   0  0  0  0  0  0  0  0  0  0  0  0
    3.3581    3.7427   -1.8152 C   0  0  0  0  0  0  0  0  0  0  0  0
    4.0545    4.5824   -2.3616 O   0  0  0  0  0  0  0  0  0  0  0  0
    1.9730    3.5359   -1.9942 N   0  0  0  0  0  0  0  0  0  0  0  0
    1.1211    4.2925   -2.8659 C   0  0  0  0  0  0  0  0  0  0  0  0
   -2.6753   -3.7136    1.7360 H   0  0  0  0  0  0  0  0  0  0  0  0
   -3.4314   -3.9480    0.1099 H   0  0  0  0  0  0  0  0  0  0  0  0
   -1.6793   -3.9968    0.3034 H   0  0  0  0  0  0  0  0  0  0  0  0
   -4.8200   -2.8278    1.6472 H   0  0  0  0  0  0  0  0  0  0  0  0
   -6.6708    0.9982    1.1054 H   0  0  0  0  0  0  0  0  0  0  0  0
   -4.6226    1.8571    0.0221 H   0  0  0  0  0  0  0  0  0  0  0  0
   -1.1696   -0.3863    0.9248 H   0  0  0  0  0  0  0  0  0  0  0  0
   -0.5289    2.3386   -1.5607 H   0  0  0  0  0  0  0  0  0  0  0  0
    3.4640    0.5775    0.8977 H   0  0  0  0  0  0  0  0  0  0  0  0
    0.4399   -2.4169   -0.1428 H   0  0  0  0  0  0  0  0  0  0  0  0
    2.6088   -1.6378   -1.0245 H   0  0  0  0  0  0  0  0  0  0  0  0
    2.6280   -3.3981   -0.9649 H   0  0  0  0  0  0  0  0  0  0  0  0
    3.4850   -2.4626    0.2720 H   0  0  0  0  0  0  0  0  0  0  0  0
    2.0820   -3.8934    1.9905 H   0  0  0  0  0  0  0  0  0  0  0  0
    1.1919   -4.6535    0.6584 H   0  0  0  0  0  0  0  0  0  0  0  0
    0.3191   -3.7942    1.9364 H   0  0  0  0  0  0  0  0  0  0  0  0
    5.4900    1.6279   -0.7014 H   0  0  0  0  0  0  0  0  0  0  0  0
    5.7682    3.3846   -0.8022 H   0  0  0  0  0  0  0  0  0  0  0  0
    5.1210    2.6787    0.7008 H   0  0  0  0  0  0  0  0  0  0  0  0
    1.6968    5.0638   -3.3852 H   0  0  0  0  0  0  0  0  0  0  0  0
    0.3334    4.7716   -2.2770 H   0  0  0  0  0  0  0  0  0  0  0  0
    0.6750    3.6224   -3.6064 H   0  0  0  0  0  0  0  0  0  0  0  0
  1  2  1  0
  2  3  1  0
  3  4  2  0
  4  5  1  0
  5  6  1  0
  5  7  2  0
  7  8  1  0
  8  9  2  0
  9 10  1  0
 10 11  2  0
 10 12  1  0
 12 13  1  0
 13 14  2  0
 14 15  1  0
 15 16  2  0
 16 17  1  0
 17 18  2  0
 18 19  1  0
 19 20  2  0
 19 21  2  0
 19 22  1  0
 22 23  1  0
 22 24  1  0
 16 25  1  0
 25 26  1  0
 25 27  1  0
 27 28  2  0
 27 29  1  0
 29 30  1  0
  9  3  1  0
 18 13  1  0
 29 15  1  0
  1 31  1  0
  1 32  1  0
  1 33  1  0
  4 34  1  0
  7 35  1  0
  8 36  1  0
 12 37  1  0
 14 38  1  0
 17 39  1  0
 22 40  1  0
 23 41  1  0
 23 42  1  0
 23 43  1  0
 24 44  1  0
 24 45  1  0
 24 46  1  0
 26 47  1  0
 26 48  1  0
 26 49  1  0
 30 50  1  0
 30 51  1  0
 30 52  1  0
M  END
$$$$
