
     RDKit          3D

 44 46  0  0  0  0  0  0  0  0999 V2000
   -0.2147    2.3830   -0.0573 C   0  0  0  0  0  0  0  0  0  0  0  0
   -1.5946    2.2156    0.2526 O   0  0  0  0  0  0  0  0  0  0  0  0
   -1.9767    0.8879    0.3142 C   0  0  0  0  0  0  0  0  0  0  0  0
   -1.1382   -0.0538   -0.0887 N   0  0  0  0  0  0  0  0  0  0  0  0
   -1.6298   -1.2782    0.0344 C   0  0  0  0  0  0  0  0  0  0  0  0
   -0.8590   -2.3868   -0.3829 O   0  0  0  0  0  0  0  0  0  0  0  0
    0.3158   -2.0055   -0.9685 C   0  0  0  0  0  0  0  0  0  0  0  0
    0.1693   -1.8653   -2.4229 C   0  0  0  0  0  0  0  0  0  0  0  0
    1.2751   -1.5213   -3.0865 C   0  0  0  0  0  0  0  0  0  0  0  0
    2.5562   -1.2928   -2.3699 C   0  0  0  0  0  0  0  0  0  0  0  0
    3.5428   -0.9524   -3.0212 O   0  0  0  0  0  0  0  0  0  0  0  0
    2.5349   -1.4900   -0.9920 N   0  0  0  0  0  0  0  0  0  0  0  0
    3.7357   -1.2076   -0.2063 C   0  0  0  0  0  0  0  0  0  0  0  0
    3.7535    0.2228    0.2960 C   0  0  0  0  0  0  0  0  0  0  0  0
    3.2184    0.5482    1.5523 C   0  0  0  0  0  0  0  0  0  0  0  0
    3.2022    1.8727    1.9933 C   0  0  0  0  0  0  0  0  0  0  0  0
    3.7115    2.8799    1.1781 C   0  0  0  0  0  0  0  0  0  0  0  0
    3.6794    4.5105    1.7206 Cl  0  0  0  0  0  0  0  0  0  0  0  0
    4.2388    2.5776   -0.0735 C   0  0  0  0  0  0  0  0  0  0  0  0
    4.2605    1.2523   -0.5129 C   0  0  0  0  0  0  0  0  0  0  0  0
    1.4042   -1.8714   -0.2808 N   0  0  0  0  0  0  0  0  0  0  0  0
   -2.8432   -1.5923    0.4716 N   0  0  0  0  0  0  0  0  0  0  0  0
   -3.6230   -0.5704    0.8187 C   0  0  0  0  0  0  0  0  0  0  0  0
   -4.9358   -0.8286    1.2200 N   0  0  0  0  0  0  0  0  0  0  0  0
   -5.1929   -2.1847    1.6748 C   0  0  0  0  0  0  0  0  0  0  0  0
   -5.5579    0.2398    1.9896 C   0  0  0  0  0  0  0  0  0  0  0  0
   -3.2124    0.6923    0.7542 N   0  0  0  0  0  0  0  0  0  0  0  0
    0.0147    3.4534   -0.0007 H   0  0  0  0  0  0  0  0  0  0  0  0
    0.0033    2.0469   -1.0789 H   0  0  0  0  0  0  0  0  0  0  0  0
    0.4168    1.8613    0.6702 H   0  0  0  0  0  0  0  0  0  0  0  0
   -0.7875   -2.0366   -2.8968 H   0  0  0  0  0  0  0  0  0  0  0  0
    1.2910   -1.3841   -4.1596 H   0  0  0  0  0  0  0  0  0  0  0  0
    3.7792   -1.9094    0.6336 H   0  0  0  0  0  0  0  0  0  0  0  0
    4.6320   -1.3933   -0.8124 H   0  0  0  0  0  0  0  0  0  0  0  0
    2.8023   -0.2300    2.1871 H   0  0  0  0  0  0  0  0  0  0  0  0
    2.7867    2.1140    2.9678 H   0  0  0  0  0  0  0  0  0  0  0  0
    4.6320    3.3608   -0.7128 H   0  0  0  0  0  0  0  0  0  0  0  0
    4.6649    1.0238   -1.4992 H   0  0  0  0  0  0  0  0  0  0  0  0
   -6.2620   -2.3225    1.8630 H   0  0  0  0  0  0  0  0  0  0  0  0
   -4.6563   -2.3987    2.6049 H   0  0  0  0  0  0  0  0  0  0  0  0
   -4.9155   -2.9278    0.9190 H   0  0  0  0  0  0  0  0  0  0  0  0
   -6.5980   -0.0183    2.2271 H   0  0  0  0  0  0  0  0  0  0  0  0
   -5.0381    0.3940    2.9413 H   0  0  0  0  0  0  0  0  0  0  0  0
   -5.5859    1.1851    1.4370 H   0  0  0  0  0  0  0  0  0  0  0  0
  1  2  1  0
  2  3  1  0
  3  4  2  0
  4  5  1  0
  5  6  1  0
  6  7  1  0
  7  8  1  0
  8  9  2  0
  9 10  1  0
 10 11  2  0
 10 12  1  0
 12 13  1  0
 13 14  1  0
 14 15  2  0
 15 16  1  0
 16 17  2  0
 17 18  1  0
 17 19  1  0
 19 20  2  0
 12 21  1  0
  5 22  2  0
 22 23  1  0
 23 24  1  0
 24 25  1  0
 24 26  1  0
 23 27  2  0
 27  3  1  0
 21  7  2  0
 20 14  1  0
  1 28  1  0
  1 29  1  0
  1 30  1  0
  8 31  1  0
  9 32  1  0
 13 33  1  0
 13 34  1  0
 15 35  1  0
 16 36  1  0
 19 37  1  0
 20 38  1  0
 25 39  1  0
 25 40  1  0
 25 41  1  0
 26 42  1  0
 26 43  1  0
 26 44  1  0
M  END
$$$$
