
     RDKit          3D

 62 66  0  0  0  0  0  0  0  0999 V2000
    7.9021    0.0351    1.9657 C   0  0  0  0  0  0  0  0  0  0  0  0
    7.7516   -1.2294    1.1225 C   0  0  0  0  0  0  0  0  0  0  0  0
    6.5307   -1.2110    0.3017 N   0  0  0  0  0  0  0  0  0  0  0  0
    5.2945   -1.2969    1.0938 C   0  0  0  0  0  0  0  0  0  0  0  0
    4.3534   -2.4363    0.6979 C   0  0  0  0  0  0  0  0  0  0  0  0
    4.1207   -2.5280   -0.8158 C   0  0  0  0  0  0  0  0  0  0  0  0
    2.9187   -1.8251   -1.2389 N   0  0  0  0  0  0  0  0  0  0  0  0
    2.6398   -0.4907   -1.2015 C   0  0  0  0  0  0  0  0  0  0  0  0
    1.3470   -0.4038   -1.6708 C   0  0  0  0  0  0  0  0  0  0  0  0
    0.4495    0.7787   -1.8251 C   0  0  0  0  0  0  0  0  0  0  0  0
   -0.6306    0.8394   -0.8338 N   0  0  0  0  0  0  0  0  0  0  0  0
   -1.6579    1.7722   -0.9517 C   0  0  0  0  0  0  0  0  0  0  0  0
   -1.5659    2.9441   -1.6916 C   0  0  0  0  0  0  0  0  0  0  0  0
   -2.6178    3.8707   -1.6977 C   0  0  0  0  0  0  0  0  0  0  0  0
   -2.4188    5.2772   -2.6962 Cl  0  0  0  0  0  0  0  0  0  0  0  0
   -3.7827    3.6969   -0.9378 C   0  0  0  0  0  0  0  0  0  0  0  0
   -4.7824    4.6091   -0.9674 N   0  0  0  0  0  0  0  0  0  0  0  0
   -5.8834    4.4131   -0.2101 C   0  0  0  0  0  0  0  0  0  0  0  0
   -6.0616    3.3236    0.6155 C   0  0  0  0  0  0  0  0  0  0  0  0
   -7.2565    3.2273    1.3954 C   0  0  0  0  0  0  0  0  0  0  0  0
   -8.2386    3.1867    2.0139 N   0  0  0  0  0  0  0  0  0  0  0  0
   -5.0365    2.3689    0.6689 C   0  0  0  0  0  0  0  0  0  0  0  0
   -5.1880    1.2171    1.4953 N   0  0  0  0  0  0  0  0  0  0  0  0
   -5.8189    0.0045    1.1145 C   0  0  0  0  0  0  0  0  0  0  0  0
   -6.6340   -0.1010   -0.0232 C   0  0  0  0  0  0  0  0  0  0  0  0
   -7.2912   -1.2984   -0.3258 C   0  0  0  0  0  0  0  0  0  0  0  0
   -7.1513   -2.3936    0.5184 C   0  0  0  0  0  0  0  0  0  0  0  0
   -7.7885   -3.5330    0.2084 F   0  0  0  0  0  0  0  0  0  0  0  0
   -6.3697   -2.3012    1.6664 C   0  0  0  0  0  0  0  0  0  0  0  0
   -6.1995   -3.6487    2.7253 Cl  0  0  0  0  0  0  0  0  0  0  0  0
   -5.7164   -1.1036    1.9709 C   0  0  0  0  0  0  0  0  0  0  0  0
   -3.8709    2.5395   -0.1351 C   0  0  0  0  0  0  0  0  0  0  0  0
   -2.8034    1.6031   -0.1642 C   0  0  0  0  0  0  0  0  0  0  0  0
    0.8979   -1.6627   -1.9770 N   0  0  0  0  0  0  0  0  0  0  0  0
    1.8717   -2.5225   -1.7157 N   0  0  0  0  0  0  0  0  0  0  0  0
    5.3485   -2.1226   -1.6385 C   0  0  0  0  0  0  0  0  0  0  0  0
    6.6168   -2.1787   -0.7947 C   0  0  0  0  0  0  0  0  0  0  0  0
    7.1008    0.1376    2.7052 H   0  0  0  0  0  0  0  0  0  0  0  0
    8.8542    0.0092    2.5081 H   0  0  0  0  0  0  0  0  0  0  0  0
    7.9032    0.9314    1.3360 H   0  0  0  0  0  0  0  0  0  0  0  0
    8.6359   -1.2814    0.4711 H   0  0  0  0  0  0  0  0  0  0  0  0
    7.7752   -2.1221    1.7626 H   0  0  0  0  0  0  0  0  0  0  0  0
    4.7693   -0.3390    0.9924 H   0  0  0  0  0  0  0  0  0  0  0  0
    5.5012   -1.4088    2.1665 H   0  0  0  0  0  0  0  0  0  0  0  0
    4.8042   -3.3795    1.0369 H   0  0  0  0  0  0  0  0  0  0  0  0
    3.4045   -2.3416    1.2419 H   0  0  0  0  0  0  0  0  0  0  0  0
    3.9201   -3.5882   -1.0291 H   0  0  0  0  0  0  0  0  0  0  0  0
    3.3428    0.2534   -0.8492 H   0  0  0  0  0  0  0  0  0  0  0  0
    1.0578    1.6887   -1.7540 H   0  0  0  0  0  0  0  0  0  0  0  0
    0.0222    0.7456   -2.8356 H   0  0  0  0  0  0  0  0  0  0  0  0
   -0.9692   -0.0999   -0.6234 H   0  0  0  0  0  0  0  0  0  0  0  0
   -0.6815    3.1612   -2.2826 H   0  0  0  0  0  0  0  0  0  0  0  0
   -6.6354    5.1950   -0.2951 H   0  0  0  0  0  0  0  0  0  0  0  0
   -4.3387    1.0266    2.0266 H   0  0  0  0  0  0  0  0  0  0  0  0
   -6.7708    0.7410   -0.6964 H   0  0  0  0  0  0  0  0  0  0  0  0
   -7.9176   -1.3772   -1.2109 H   0  0  0  0  0  0  0  0  0  0  0  0
   -5.1296   -1.0367    2.8838 H   0  0  0  0  0  0  0  0  0  0  0  0
   -2.8627    0.7002    0.4442 H   0  0  0  0  0  0  0  0  0  0  0  0
    5.2402   -1.1132   -2.0579 H   0  0  0  0  0  0  0  0  0  0  0  0
    5.4461   -2.7920   -2.5023 H   0  0  0  0  0  0  0  0  0  0  0  0
    6.7807   -3.1979   -0.4199 H   0  0  0  0  0  0  0  0  0  0  0  0
    7.4689   -1.9326   -1.4410 H   0  0  0  0  0  0  0  0  0  0  0  0
  1  2  1  0
  2  3  1  0
  3  4  1  0
  4  5  1  0
  5  6  1  0
  6  7  1  0
  7  8  1  0
  8  9  2  0
  9 10  1  0
 10 11  1  0
 11 12  1  0
 12 13  2  0
 13 14  1  0
 14 15  1  0
 14 16  2  0
 16 17  1  0
 17 18  2  0
 18 19  1  0
 19 20  1  0
 20 21  3  0
 19 22  2  0
 22 23  1  0
 23 24  1  0
 24 25  2  0
 25 26  1  0
 26 27  2  0
 27 28  1  0
 27 29  1  0
 29 30  1  0
 29 31  2  0
 22 32  1  0
 32 33  2  0
  9 34  1  0
 34 35  2  0
  6 36  1  0
 36 37  1  0
 37  3  1  0
 35  7  1  0
 33 12  1  0
 32 16  1  0
 31 24  1  0
  1 38  1  0
  1 39  1  0
  1 40  1  0
  2 41  1  0
  2 42  1  0
  4 43  1  0
  4 44  1  0
  5 45  1  0
  5 46  1  0
  6 47  1  0
  8 48  1  0
 10 49  1  0
 10 50  1  0
 11 51  1  0
 13 52  1  0
 18 53  1  0
 23 54  1  0
 25 55  1  0
 26 56  1  0
 31 57  1  0
 33 58  1  0
 36 59  1  0
 36 60  1  0
 37 61  1  0
 37 62  1  0
M  END
$$$$
