
     RDKit          3D

 22 23  0  0  0  0  0  0  0  0999 V2000
    3.0498    1.0663   -0.0002 O   0  0  0  0  0  0  0  0  0  0  0  0
    2.2760    0.5645   -0.7931 C   0  0  0  0  0  0  0  0  0  0  0  0
    2.3947    0.7381   -2.1225 O   0  0  0  0  0  0  0  0  0  0  0  0
    1.0687   -0.2132   -0.4704 C   0  0  0  0  0  0  0  0  0  0  0  0
    1.0310   -1.5724   -0.8098 C   0  0  0  0  0  0  0  0  0  0  0  0
    2.1096   -2.1654   -1.4066 O   0  0  0  0  0  0  0  0  0  0  0  0
   -0.0961   -2.3336   -0.5216 C   0  0  0  0  0  0  0  0  0  0  0  0
   -1.1855   -1.7373    0.1141 C   0  0  0  0  0  0  0  0  0  0  0  0
   -1.1643   -0.3799    0.4754 C   0  0  0  0  0  0  0  0  0  0  0  0
   -2.2715    0.1966    1.1198 C   0  0  0  0  0  0  0  0  0  0  0  0
   -2.2693    1.5414    1.4875 C   0  0  0  0  0  0  0  0  0  0  0  0
   -1.1588    2.3293    1.2160 C   0  0  0  0  0  0  0  0  0  0  0  0
   -0.0503    1.7726    0.5751 C   0  0  0  0  0  0  0  0  0  0  0  0
   -0.0230    0.4100    0.1895 C   0  0  0  0  0  0  0  0  0  0  0  0
    3.2260    1.2444   -2.2215 H   0  0  0  0  0  0  0  0  0  0  0  0
    1.8998   -3.0922   -1.6074 H   0  0  0  0  0  0  0  0  0  0  0  0
   -0.1461   -3.3882   -0.7754 H   0  0  0  0  0  0  0  0  0  0  0  0
   -2.0600   -2.3479    0.3333 H   0  0  0  0  0  0  0  0  0  0  0  0
   -3.1521   -0.4023    1.3437 H   0  0  0  0  0  0  0  0  0  0  0  0
   -3.1337    1.9711    1.9869 H   0  0  0  0  0  0  0  0  0  0  0  0
   -1.1489    3.3778    1.5031 H   0  0  0  0  0  0  0  0  0  0  0  0
    0.8040    2.4203    0.3839 H   0  0  0  0  0  0  0  0  0  0  0  0
  1  2  2  0
  2  3  1  0
  2  4  1  0
  4  5  2  0
  5  6  1  0
  5  7  1  0
  7  8  2  0
  8  9  1  0
  9 10  2  0
 10 11  1  0
 11 12  2  0
 12 13  1  0
 13 14  2  0
 14  4  1  0
 14  9  1  0
  3 15  1  0
  6 16  1  0
  7 17  1  0
  8 18  1  0
 10 19  1  0
 11 20  1  0
 12 21  1  0
 13 22  1  0
M  END
$$$$
