
     RDKit          3D

 21 22  0  0  0  0  0  0  0  0999 V2000
   -2.3152   -1.5143   -0.1131 C   0  0  0  0  0  0  0  0  0  0  0  0
   -1.6019   -0.1953   -0.1509 C   0  0  0  0  0  0  0  0  0  0  0  0
   -2.2693    0.9558   -0.3189 C   0  0  0  0  0  0  0  0  0  0  0  0
   -1.6186    2.2745   -0.3632 C   0  0  0  0  0  0  0  0  0  0  0  0
   -2.2823    3.2930   -0.5195 O   0  0  0  0  0  0  0  0  0  0  0  0
   -0.2430    2.2980   -0.2213 O   0  0  0  0  0  0  0  0  0  0  0  0
    0.4897    1.1084   -0.0433 C   0  0  0  0  0  0  0  0  0  0  0  0
    1.8709    1.2470    0.0894 C   0  0  0  0  0  0  0  0  0  0  0  0
    2.6439    0.1096    0.2672 C   0  0  0  0  0  0  0  0  0  0  0  0
    3.9912    0.2683    0.3946 O   0  0  0  0  0  0  0  0  0  0  0  0
    2.0540   -1.1497    0.3129 C   0  0  0  0  0  0  0  0  0  0  0  0
    0.6646   -1.2712    0.1779 C   0  0  0  0  0  0  0  0  0  0  0  0
   -0.1411   -0.1383   -0.0030 C   0  0  0  0  0  0  0  0  0  0  0  0
   -3.3976   -1.3957   -0.2364 H   0  0  0  0  0  0  0  0  0  0  0  0
   -1.9677   -2.1679   -0.9202 H   0  0  0  0  0  0  0  0  0  0  0  0
   -2.1525   -2.0173    0.8461 H   0  0  0  0  0  0  0  0  0  0  0  0
   -3.3471    0.9834   -0.4339 H   0  0  0  0  0  0  0  0  0  0  0  0
    2.3346    2.2279    0.0542 H   0  0  0  0  0  0  0  0  0  0  0  0
    4.4027   -0.6036    0.5120 H   0  0  0  0  0  0  0  0  0  0  0  0
    2.6525   -2.0451    0.4518 H   0  0  0  0  0  0  0  0  0  0  0  0
    0.2321   -2.2676    0.2176 H   0  0  0  0  0  0  0  0  0  0  0  0
  1  2  1  0
  2  3  2  0
  3  4  1  0
  4  5  2  0
  4  6  1  0
  6  7  1  0
  7  8  2  0
  8  9  1  0
  9 10  1  0
  9 11  2  0
 11 12  1  0
 12 13  2  0
 13  2  1  0
 13  7  1  0
  1 14  1  0
  1 15  1  0
  1 16  1  0
  3 17  1  0
  8 18  1  0
 10 19  1  0
 11 20  1  0
 12 21  1  0
M  END
$$$$
