
     RDKit          3D

 62 65  0  0  0  0  0  0  0  0999 V2000
   -3.7584   -0.5043    2.9987 C   0  0  0  0  0  0  0  0  0  0  0  0
   -3.3221   -0.3167    1.5918 C   0  0  0  0  0  0  0  0  0  0  0  0
   -2.2651   -1.0790    1.1182 N   0  0  0  0  0  0  0  0  0  0  0  0
   -1.9980   -0.7644   -0.1315 C   0  0  0  0  0  0  0  0  0  0  0  0
   -0.9031   -1.3730   -0.8339 C   0  0  0  0  0  0  0  0  0  0  0  0
    0.3594   -1.6343   -0.3229 C   0  0  0  0  0  0  0  0  0  0  0  0
    1.1385   -2.2068   -1.3560 C   0  0  0  0  0  0  0  0  0  0  0  0
    2.8102   -2.6409   -1.2491 S   0  0  0  0  0  6  0  0  0  0  0  0
    2.9345   -3.7862   -2.1230 O   0  0  0  0  0  0  0  0  0  0  0  0
    3.0984   -2.6946    0.1641 O   0  0  0  0  0  0  0  0  0  0  0  0
    3.6889   -1.3881   -1.9607 N   0  0  0  0  0  0  0  0  0  0  0  0
    3.5555   -0.0508   -1.3524 C   0  0  0  0  0  0  0  0  0  0  0  0
    4.6357    0.8765   -1.9089 C   0  0  0  0  0  0  0  0  0  0  0  0
    6.0177    0.6466   -1.2835 C   0  0  0  0  0  0  0  0  0  0  0  0
    6.0619    0.9480    0.1493 N   0  0  0  0  0  0  0  0  0  0  0  0
    5.9282    2.3693    0.4672 C   0  0  0  0  0  0  0  0  0  0  0  0
    6.3777    2.4345    1.9181 C   0  0  0  0  0  0  0  0  0  0  0  0
    7.3429    1.2688    2.0889 C   0  0  0  0  0  0  0  0  0  0  0  0
    7.3358    0.5456    0.7509 C   0  0  0  0  0  0  0  0  0  0  0  0
    0.3316   -2.3106   -2.4702 C   0  0  0  0  0  0  0  0  0  0  0  0
   -0.9174   -1.8456   -2.1312 N   0  0  0  0  0  0  0  0  0  0  0  0
   -2.0594   -1.9286   -3.0185 C   0  0  0  0  0  0  0  0  0  0  0  0
   -2.9758    0.4768   -0.8003 S   0  0  0  0  0  0  0  0  0  0  0  0
   -3.8581    0.5539    0.6619 C   0  0  0  0  0  0  0  0  0  0  0  0
   -4.9619    1.4713    0.7926 C   0  0  0  0  0  0  0  0  0  0  0  0
   -4.7995    2.6703    1.0165 O   0  0  0  0  0  0  0  0  0  0  0  0
   -6.2309    0.9290    0.6691 N   0  0  0  0  0  0  0  0  0  0  0  0
   -7.4159    1.7556    0.8136 C   0  0  0  0  0  0  0  0  0  0  0  0
   -8.5664    0.7611    0.8741 C   0  0  0  0  0  0  0  0  0  0  0  0
   -8.0620   -0.3980    0.0243 C   0  0  0  0  0  0  0  0  0  0  0  0
   -6.5785   -0.4506    0.3644 C   0  0  0  0  0  0  0  0  0  0  0  0
   -3.8373    0.4572    3.5139 H   0  0  0  0  0  0  0  0  0  0  0  0
   -4.7324   -0.9996    3.0357 H   0  0  0  0  0  0  0  0  0  0  0  0
   -3.0436   -1.1239    3.5481 H   0  0  0  0  0  0  0  0  0  0  0  0
    0.6853   -1.4123    0.6874 H   0  0  0  0  0  0  0  0  0  0  0  0
    3.5848   -1.4185   -2.9736 H   0  0  0  0  0  0  0  0  0  0  0  0
    3.6057   -0.1046   -0.2614 H   0  0  0  0  0  0  0  0  0  0  0  0
    2.5771    0.3545   -1.6335 H   0  0  0  0  0  0  0  0  0  0  0  0
    4.7154    0.7430   -2.9953 H   0  0  0  0  0  0  0  0  0  0  0  0
    4.3298    1.9176   -1.7534 H   0  0  0  0  0  0  0  0  0  0  0  0
    6.2955   -0.4034   -1.4409 H   0  0  0  0  0  0  0  0  0  0  0  0
    6.7574    1.2500   -1.8257 H   0  0  0  0  0  0  0  0  0  0  0  0
    6.5847    2.9892   -0.1571 H   0  0  0  0  0  0  0  0  0  0  0  0
    4.9006    2.7298    0.3598 H   0  0  0  0  0  0  0  0  0  0  0  0
    5.5234    2.3057    2.5938 H   0  0  0  0  0  0  0  0  0  0  0  0
    6.8473    3.3935    2.1549 H   0  0  0  0  0  0  0  0  0  0  0  0
    6.9950    0.6107    2.8932 H   0  0  0  0  0  0  0  0  0  0  0  0
    8.3485    1.6142    2.3483 H   0  0  0  0  0  0  0  0  0  0  0  0
    8.1896    0.8788    0.1464 H   0  0  0  0  0  0  0  0  0  0  0  0
    7.4049   -0.5387    0.8795 H   0  0  0  0  0  0  0  0  0  0  0  0
    0.5411   -2.7071   -3.4564 H   0  0  0  0  0  0  0  0  0  0  0  0
   -2.1969   -0.9545   -3.4931 H   0  0  0  0  0  0  0  0  0  0  0  0
   -2.9409   -2.2207   -2.4443 H   0  0  0  0  0  0  0  0  0  0  0  0
   -1.8677   -2.6879   -3.7814 H   0  0  0  0  0  0  0  0  0  0  0  0
   -7.4879    2.4003   -0.0701 H   0  0  0  0  0  0  0  0  0  0  0  0
   -7.3514    2.3839    1.7072 H   0  0  0  0  0  0  0  0  0  0  0  0
   -9.5063    1.1824    0.5082 H   0  0  0  0  0  0  0  0  0  0  0  0
   -8.7186    0.4264    1.9068 H   0  0  0  0  0  0  0  0  0  0  0  0
   -8.5753   -1.3404    0.2342 H   0  0  0  0  0  0  0  0  0  0  0  0
   -8.1947   -0.1629   -1.0383 H   0  0  0  0  0  0  0  0  0  0  0  0
   -6.4028   -1.0515    1.2621 H   0  0  0  0  0  0  0  0  0  0  0  0
   -5.9744   -0.8461   -0.4560 H   0  0  0  0  0  0  0  0  0  0  0  0
  1  2  1  0
  2  3  1  0
  3  4  2  0
  4  5  1  0
  5  6  2  0
  6  7  1  0
  7  8  1  0
  8  9  2  0
  8 10  2  0
  8 11  1  0
 11 12  1  0
 12 13  1  0
 13 14  1  0
 14 15  1  0
 15 16  1  0
 16 17  1  0
 17 18  1  0
 18 19  1  0
  7 20  2  0
 20 21  1  0
 21 22  1  0
  4 23  1  0
 23 24  1  0
 24 25  1  0
 25 26  2  0
 25 27  1  0
 27 28  1  0
 28 29  1  0
 29 30  1  0
 30 31  1  0
 24  2  2  0
 31 27  1  0
 21  5  1  0
 19 15  1  0
  1 32  1  0
  1 33  1  0
  1 34  1  0
  6 35  1  0
 11 36  1  0
 12 37  1  0
 12 38  1  0
 13 39  1  0
 13 40  1  0
 14 41  1  0
 14 42  1  0
 16 43  1  0
 16 44  1  0
 17 45  1  0
 17 46  1  0
 18 47  1  0
 18 48  1  0
 19 49  1  0
 19 50  1  0
 20 51  1  0
 22 52  1  0
 22 53  1  0
 22 54  1  0
 28 55  1  0
 28 56  1  0
 29 57  1  0
 29 58  1  0
 30 59  1  0
 30 60  1  0
 31 61  1  0
 31 62  1  0
M  END
$$$$
