
     RDKit          3D

 52 55  0  0  0  0  0  0  0  0999 V2000
   -8.3793    1.5297   -0.2200 N   0  0  0  0  0  0  0  0  0  0  0  0
   -7.1049    1.0003   -0.2258 C   0  0  0  0  0  0  0  0  0  0  0  0
   -6.1201    1.7729    0.2172 N   0  0  0  0  0  0  0  0  0  0  0  0
   -4.8867    1.2489    0.2223 C   0  0  0  0  0  0  0  0  0  0  0  0
   -3.8668    2.1120    0.6730 N   0  0  0  0  0  0  0  0  0  0  0  0
   -4.6020   -0.0597   -0.2150 C   0  0  0  0  0  0  0  0  0  0  0  0
   -3.3241   -0.6944   -0.2665 C   0  0  0  0  0  0  0  0  0  0  0  0
   -2.2289    0.0056    0.1793 O   0  0  0  0  0  0  0  0  0  0  0  0
   -1.0857   -0.0344   -0.6873 C   0  0  0  0  0  0  0  0  0  0  0  0
    0.1031   -0.6781    0.0423 C   0  0  0  0  0  0  0  0  0  0  0  0
    0.5198    0.1107    1.2972 C   0  0  0  0  0  0  0  0  0  0  0  0
    1.5955    1.1502    0.9841 C   0  0  0  0  0  0  0  0  0  0  0  0
    2.8095    0.5908    0.3715 N   0  0  0  0  0  0  0  0  0  0  0  0
    3.9671    0.6636    1.2798 C   0  0  0  0  0  0  0  0  0  0  0  0
    5.3005    0.4732    0.5817 C   0  0  0  0  0  0  0  0  0  0  0  0
    6.0524   -0.7093    0.7238 C   0  0  0  0  0  0  0  0  0  0  0  0
    5.5285   -2.0323    1.7097 Cl  0  0  0  0  0  0  0  0  0  0  0  0
    7.2782   -0.8733    0.0647 C   0  0  0  0  0  0  0  0  0  0  0  0
    7.7812    0.1362   -0.7488 C   0  0  0  0  0  0  0  0  0  0  0  0
    7.0580    1.3138   -0.9035 C   0  0  0  0  0  0  0  0  0  0  0  0
    5.8325    1.4835   -0.2466 C   0  0  0  0  0  0  0  0  0  0  0  0
    5.0273    2.9971   -0.4942 Cl  0  0  0  0  0  0  0  0  0  0  0  0
    2.6242   -0.7477   -0.2025 C   0  0  0  0  0  0  0  0  0  0  0  0
    1.2835   -0.8533   -0.9260 C   0  0  0  0  0  0  0  0  0  0  0  0
   -3.2044   -2.0237   -0.6774 C   0  0  0  0  0  0  0  0  0  0  0  0
   -4.3342   -2.7175   -1.0867 C   0  0  0  0  0  0  0  0  0  0  0  0
   -5.5774   -2.0850   -1.0651 C   0  0  0  0  0  0  0  0  0  0  0  0
   -5.7312   -0.7741   -0.6323 C   0  0  0  0  0  0  0  0  0  0  0  0
   -6.9641   -0.2600   -0.6322 N   0  0  0  0  0  0  0  0  0  0  0  0
   -8.4191    2.2856    0.4502 H   0  0  0  0  0  0  0  0  0  0  0  0
   -9.0584    0.7884   -0.1301 H   0  0  0  0  0  0  0  0  0  0  0  0
   -3.2148    2.2508   -0.0943 H   0  0  0  0  0  0  0  0  0  0  0  0
   -3.3370    1.6185    1.3894 H   0  0  0  0  0  0  0  0  0  0  0  0
   -1.2900   -0.5452   -1.6370 H   0  0  0  0  0  0  0  0  0  0  0  0
   -0.8494    1.0054   -0.9430 H   0  0  0  0  0  0  0  0  0  0  0  0
   -0.2162   -1.6684    0.3926 H   0  0  0  0  0  0  0  0  0  0  0  0
   -0.3420    0.5977    1.7668 H   0  0  0  0  0  0  0  0  0  0  0  0
    0.9143   -0.5893    2.0458 H   0  0  0  0  0  0  0  0  0  0  0  0
    1.1819    1.8843    0.2815 H   0  0  0  0  0  0  0  0  0  0  0  0
    1.8192    1.7156    1.8972 H   0  0  0  0  0  0  0  0  0  0  0  0
    3.8341   -0.0310    2.1166 H   0  0  0  0  0  0  0  0  0  0  0  0
    4.0081    1.6511    1.7603 H   0  0  0  0  0  0  0  0  0  0  0  0
    7.8472   -1.7928    0.1849 H   0  0  0  0  0  0  0  0  0  0  0  0
    8.7322    0.0065   -1.2591 H   0  0  0  0  0  0  0  0  0  0  0  0
    7.4531    2.1038   -1.5386 H   0  0  0  0  0  0  0  0  0  0  0  0
    3.4208   -0.9538   -0.9262 H   0  0  0  0  0  0  0  0  0  0  0  0
    2.6731   -1.5243    0.5712 H   0  0  0  0  0  0  0  0  0  0  0  0
    1.2039   -1.8283   -1.4221 H   0  0  0  0  0  0  0  0  0  0  0  0
    1.2484   -0.0997   -1.7242 H   0  0  0  0  0  0  0  0  0  0  0  0
   -2.2459   -2.5331   -0.6679 H   0  0  0  0  0  0  0  0  0  0  0  0
   -4.2566   -3.7509   -1.4149 H   0  0  0  0  0  0  0  0  0  0  0  0
   -6.4588   -2.6368   -1.3875 H   0  0  0  0  0  0  0  0  0  0  0  0
  1  2  1  0
  2  3  2  0
  3  4  1  0
  4  5  1  0
  4  6  2  0
  6  7  1  0
  7  8  1  0
  8  9  1  0
  9 10  1  0
 10 11  1  0
 11 12  1  0
 12 13  1  0
 13 14  1  0
 14 15  1  0
 15 16  2  0
 16 17  1  0
 16 18  1  0
 18 19  2  0
 19 20  1  0
 20 21  2  0
 21 22  1  0
 13 23  1  0
 23 24  1  0
  7 25  2  0
 25 26  1  0
 26 27  2  0
 27 28  1  0
 28 29  2  0
 29  2  1  0
 28  6  1  0
 24 10  1  0
 21 15  1  0
  1 30  1  0
  1 31  1  0
  5 32  1  0
  5 33  1  0
  9 34  1  0
  9 35  1  0
 10 36  1  0
 11 37  1  0
 11 38  1  0
 12 39  1  0
 12 40  1  0
 14 41  1  0
 14 42  1  0
 18 43  1  0
 19 44  1  0
 20 45  1  0
 23 46  1  0
 23 47  1  0
 24 48  1  0
 24 49  1  0
 25 50  1  0
 26 51  1  0
 27 52  1  0
M  END
$$$$
