
     RDKit          3D

 49 52  0  0  0  0  0  0  0  0999 V2000
    6.2818    0.9612   -3.8162 C   0  0  0  0  0  0  0  0  0  0  0  0
    5.0781    0.1821   -3.9026 N   0  0  0  0  0  0  0  0  0  0  0  0
    4.4313    0.0473   -5.0787 N   0  0  0  0  0  0  0  0  0  0  0  0
    3.4069   -0.7604   -4.8262 N   0  0  0  0  0  0  0  0  0  0  0  0
    3.4139   -1.1657   -3.5129 N   0  0  0  0  0  0  0  0  0  0  0  0
    4.4450   -0.5716   -2.9538 C   0  0  0  0  0  0  0  0  0  0  0  0
    4.9924   -0.7126   -1.3225 S   0  0  0  0  0  0  0  0  0  0  0  0
    4.0487   -2.1276   -0.7016 C   0  0  0  0  0  0  0  0  0  0  0  0
    2.7068   -1.7479   -0.1057 C   0  0  0  0  0  0  0  0  0  0  0  0
    2.5655   -1.0953    1.0750 C   0  0  0  0  0  0  0  0  0  0  0  0
    3.7469   -0.5588    1.7970 C   0  0  0  0  0  0  0  0  0  0  0  0
    4.6416   -1.2198    2.2972 O   0  0  0  0  0  0  0  0  0  0  0  0
    3.7443    0.7838    1.7881 O   0  0  0  0  0  0  0  0  0  0  0  0
    1.3398   -0.8736    1.6154 N   0  0  0  0  0  0  0  0  0  0  0  0
    0.7994   -0.1597    2.6210 C   0  0  0  0  0  0  0  0  0  0  0  0
    1.2659    0.5711    3.4608 O   0  0  0  0  0  0  0  0  0  0  0  0
   -0.6290   -0.6349    2.1945 C   0  0  0  0  0  0  0  0  0  0  0  0
   -1.5305    0.3961    1.6144 N   0  0  0  0  0  0  0  0  0  0  0  0
   -2.7697    0.0388    1.1129 C   0  0  0  0  0  0  0  0  0  0  0  0
   -3.2457   -1.0821    1.2835 O   0  0  0  0  0  0  0  0  0  0  0  0
   -3.4550    1.1633    0.2980 C   0  0  0  0  0  0  0  0  0  0  0  0
   -2.7322    2.3997    0.3896 O   0  0  0  0  0  0  0  0  0  0  0  0
   -4.9013    1.3767    0.7039 C   0  0  0  0  0  0  0  0  0  0  0  0
   -5.9211    1.2704   -0.2566 C   0  0  0  0  0  0  0  0  0  0  0  0
   -7.2555    1.4639    0.1043 C   0  0  0  0  0  0  0  0  0  0  0  0
   -7.5845    1.7852    1.4187 C   0  0  0  0  0  0  0  0  0  0  0  0
   -6.5799    1.9139    2.3812 C   0  0  0  0  0  0  0  0  0  0  0  0
   -5.2462    1.7047    2.0275 C   0  0  0  0  0  0  0  0  0  0  0  0
    0.1386   -1.5677    1.2128 C   0  0  0  0  0  0  0  0  0  0  0  0
   -0.0257   -1.3150   -0.5718 S   0  0  0  0  0  0  0  0  0  0  0  0
    1.5176   -2.2145   -0.9346 C   0  0  0  0  0  0  0  0  0  0  0  0
    6.2587    1.5714   -2.9085 H   0  0  0  0  0  0  0  0  0  0  0  0
    6.3482    1.6203   -4.6862 H   0  0  0  0  0  0  0  0  0  0  0  0
    7.1337    0.2748   -3.7992 H   0  0  0  0  0  0  0  0  0  0  0  0
    3.9301   -2.8747   -1.4980 H   0  0  0  0  0  0  0  0  0  0  0  0
    4.6551   -2.6342    0.0609 H   0  0  0  0  0  0  0  0  0  0  0  0
    4.5082    1.0415    2.3420 H   0  0  0  0  0  0  0  0  0  0  0  0
   -1.1306   -1.1759    3.0065 H   0  0  0  0  0  0  0  0  0  0  0  0
   -1.1802    1.3034    1.3101 H   0  0  0  0  0  0  0  0  0  0  0  0
   -3.3926    0.8491   -0.7499 H   0  0  0  0  0  0  0  0  0  0  0  0
   -3.3340    3.0612    0.7734 H   0  0  0  0  0  0  0  0  0  0  0  0
   -5.6848    1.0351   -1.2908 H   0  0  0  0  0  0  0  0  0  0  0  0
   -8.0426    1.3579   -0.6385 H   0  0  0  0  0  0  0  0  0  0  0  0
   -8.6245    1.9367    1.6975 H   0  0  0  0  0  0  0  0  0  0  0  0
   -6.8332    2.1846    3.4059 H   0  0  0  0  0  0  0  0  0  0  0  0
   -4.4789    1.7965    2.7967 H   0  0  0  0  0  0  0  0  0  0  0  0
    0.1290   -2.6167    1.5250 H   0  0  0  0  0  0  0  0  0  0  0  0
    1.3485   -3.2825   -0.7590 H   0  0  0  0  0  0  0  0  0  0  0  0
    1.7016   -2.0743   -2.0006 H   0  0  0  0  0  0  0  0  0  0  0  0
  1  2  1  0
  2  3  1  0
  3  4  2  0
  4  5  1  0
  5  6  2  0
  6  7  1  0
  7  8  1  0
  8  9  1  0
  9 10  2  0
 10 11  1  0
 11 12  2  0
 11 13  1  0
 10 14  1  0
 14 15  1  0
 15 16  2  0
 15 17  1  0
 17 18  1  0
 18 19  1  0
 19 20  2  0
 19 21  1  0
 21 22  1  0
 21 23  1  0
 23 24  2  0
 24 25  1  0
 25 26  2  0
 26 27  1  0
 27 28  2  0
 17 29  1  0
 29 30  1  0
 30 31  1  0
  6  2  1  0
 31  9  1  0
 29 14  1  0
 28 23  1  0
  1 32  1  0
  1 33  1  0
  1 34  1  0
  8 35  1  0
  8 36  1  0
 13 37  1  0
 17 38  1  0
 18 39  1  0
 21 40  1  0
 22 41  1  0
 24 42  1  0
 25 43  1  0
 26 44  1  0
 27 45  1  0
 28 46  1  0
 29 47  1  0
 31 48  1  0
 31 49  1  0
M  END
$$$$
