
     RDKit          3D

 50 52  0  0  0  0  0  0  0  0999 V2000
    7.7161   -0.7095    0.5364 C   0  0  0  0  0  0  0  0  0  0  0  0
    7.2268    0.3289   -0.3060 O   0  0  0  0  0  0  0  0  0  0  0  0
    5.8940    0.1800   -0.6313 C   0  0  0  0  0  0  0  0  0  0  0  0
    5.3560    1.1505   -1.4663 C   0  0  0  0  0  0  0  0  0  0  0  0
    4.0118    1.0537   -1.8185 C   0  0  0  0  0  0  0  0  0  0  0  0
    3.2568   -0.0014   -1.3108 C   0  0  0  0  0  0  0  0  0  0  0  0
    1.8415   -0.1449   -1.6855 C   0  0  0  0  0  0  0  0  0  0  0  0
    1.5625   -0.1974   -2.8796 O   0  0  0  0  0  0  0  0  0  0  0  0
    0.8875   -0.1919   -0.6834 N   0  0  0  0  0  0  0  0  0  0  0  0
    1.0587    0.2109    0.7059 C   0  0  0  0  0  0  0  0  0  0  0  0
   -0.2534   -0.1550    1.3829 C   0  0  0  0  0  0  0  0  0  0  0  0
   -1.2865    0.0113    0.2622 C   0  0  0  0  0  0  0  0  0  0  0  0
   -2.5446   -0.7390    0.4506 N   0  0  0  0  0  0  0  0  0  0  0  0
   -2.6855   -2.1280    0.4195 C   0  0  0  0  0  0  0  0  0  0  0  0
   -1.4791   -3.0320    0.3387 C   0  0  0  0  0  0  0  0  0  0  0  0
   -3.7918   -2.6738    0.4703 O   0  0  0  0  0  0  0  0  0  0  0  0
   -3.7996    0.0548    0.5266 C   0  0  0  0  0  0  0  0  0  0  0  0
   -3.8194    1.0562    1.6963 C   0  0  0  0  0  0  0  0  0  0  0  0
   -4.6613    2.2843    1.3681 C   0  0  0  0  0  0  0  0  0  0  0  0
   -5.7984    1.9068    0.6034 O   0  0  0  0  0  0  0  0  0  0  0  0
   -5.4707    1.4604   -0.7157 C   0  0  0  0  0  0  0  0  0  0  0  0
   -4.1271    0.7400   -0.8033 C   0  0  0  0  0  0  0  0  0  0  0  0
   -0.5222   -0.2466   -1.0464 C   0  0  0  0  0  0  0  0  0  0  0  0
    3.8871   -0.9423   -0.5100 C   0  0  0  0  0  0  0  0  0  0  0  0
    5.1889   -0.8652   -0.1411 N   0  0  0  0  0  0  0  0  0  0  0  0
    8.7740   -0.5090    0.7331 H   0  0  0  0  0  0  0  0  0  0  0  0
    7.1948   -0.7173    1.5003 H   0  0  0  0  0  0  0  0  0  0  0  0
    7.6488   -1.6870    0.0447 H   0  0  0  0  0  0  0  0  0  0  0  0
    5.9762    1.9574   -1.8420 H   0  0  0  0  0  0  0  0  0  0  0  0
    3.5617    1.7856   -2.4846 H   0  0  0  0  0  0  0  0  0  0  0  0
    1.2253    1.2943    0.7226 H   0  0  0  0  0  0  0  0  0  0  0  0
    1.9118   -0.2832    1.1751 H   0  0  0  0  0  0  0  0  0  0  0  0
   -0.2095   -1.1745    1.7728 H   0  0  0  0  0  0  0  0  0  0  0  0
   -0.4634    0.4961    2.2364 H   0  0  0  0  0  0  0  0  0  0  0  0
   -1.5375    1.0804    0.2463 H   0  0  0  0  0  0  0  0  0  0  0  0
   -0.5287   -2.5320    0.1912 H   0  0  0  0  0  0  0  0  0  0  0  0
   -1.6181   -3.7170   -0.5061 H   0  0  0  0  0  0  0  0  0  0  0  0
   -1.4192   -3.6131    1.2657 H   0  0  0  0  0  0  0  0  0  0  0  0
   -4.6338   -0.6319    0.7198 H   0  0  0  0  0  0  0  0  0  0  0  0
   -2.8239    1.3814    2.0110 H   0  0  0  0  0  0  0  0  0  0  0  0
   -4.2473    0.5442    2.5681 H   0  0  0  0  0  0  0  0  0  0  0  0
   -4.0807    3.0343    0.8169 H   0  0  0  0  0  0  0  0  0  0  0  0
   -5.0085    2.7577    2.2936 H   0  0  0  0  0  0  0  0  0  0  0  0
   -6.2753    0.7867   -1.0309 H   0  0  0  0  0  0  0  0  0  0  0  0
   -5.4875    2.3211   -1.3940 H   0  0  0  0  0  0  0  0  0  0  0  0
   -3.3502    1.4749   -1.0494 H   0  0  0  0  0  0  0  0  0  0  0  0
   -4.1385    0.0242   -1.6350 H   0  0  0  0  0  0  0  0  0  0  0  0
   -0.7416    0.5363   -1.7827 H   0  0  0  0  0  0  0  0  0  0  0  0
   -0.7340   -1.2063   -1.5252 H   0  0  0  0  0  0  0  0  0  0  0  0
    3.3568   -1.8141   -0.1380 H   0  0  0  0  0  0  0  0  0  0  0  0
  1  2  1  0
  2  3  1  0
  3  4  2  0
  4  5  1  0
  5  6  2  0
  6  7  1  0
  7  8  2  0
  7  9  1  0
  9 10  1  0
 10 11  1  0
 11 12  1  0
 12 13  1  0
 13 14  1  0
 14 15  1  0
 14 16  2  0
 13 17  1  0
 17 18  1  0
 18 19  1  0
 19 20  1  0
 20 21  1  0
 21 22  1  0
 12 23  1  0
  6 24  1  0
 24 25  2  0
 25  3  1  0
 23  9  1  0
 22 17  1  0
  1 26  1  0
  1 27  1  0
  1 28  1  0
  4 29  1  0
  5 30  1  0
 10 31  1  0
 10 32  1  0
 11 33  1  0
 11 34  1  0
 12 35  1  0
 15 36  1  0
 15 37  1  0
 15 38  1  0
 17 39  1  0
 18 40  1  0
 18 41  1  0
 19 42  1  0
 19 43  1  0
 21 44  1  0
 21 45  1  0
 22 46  1  0
 22 47  1  0
 23 48  1  0
 23 49  1  0
 24 50  1  0
M  END
$$$$
