
     RDKit          3D

 65 66  0  0  0  0  0  0  0  0999 V2000
    6.7621   -2.2972   -0.5511 C   0  0  0  0  0  0  0  0  0  0  0  0
    6.1608   -1.5436    0.6422 C   0  0  0  0  0  0  0  0  0  0  0  0
    6.6257   -2.1627    1.9529 C   0  0  0  0  0  0  0  0  0  0  0  0
    4.6746   -1.5746    0.4923 C   0  0  0  0  0  0  0  0  0  0  0  0
    4.2948   -0.1485    0.2948 N   0  0  0  0  0  0  0  0  0  0  0  0
    3.1208    0.5863    0.0922 C   0  0  0  0  0  0  0  0  0  0  0  0
    1.7443   -0.0639    0.0224 C   0  0  0  0  0  0  0  0  0  0  0  0
    0.4641    1.1506   -0.2445 S   0  0  0  0  0  0  0  0  0  0  0  0
   -1.1229    0.3477   -0.3192 C   0  0  0  0  0  0  0  0  0  0  0  0
   -2.2070    1.0178   -0.5054 N   0  0  0  0  0  0  0  0  0  0  0  0
   -2.1128    2.4455   -0.6539 C   0  0  0  0  0  0  0  0  0  0  0  0
   -3.2872    2.9214   -1.4832 C   0  0  0  0  0  0  0  0  0  0  0  0
   -3.3673    4.4048   -1.6010 C   0  0  0  0  0  0  0  0  0  0  0  0
   -3.0901    5.1487   -0.3421 C   0  0  0  0  0  0  0  0  0  0  0  0
   -1.9572    4.5964    0.4696 C   0  0  0  0  0  0  0  0  0  0  0  0
   -2.2506    3.1103    0.7054 C   0  0  0  0  0  0  0  0  0  0  0  0
   -1.2222   -1.0738   -0.1719 N   0  0  0  0  0  0  0  0  0  0  0  0
   -2.3421   -1.7858   -0.7267 C   0  0  0  0  0  0  0  0  0  0  0  0
   -3.6432   -1.3190   -0.1552 C   0  0  0  0  0  0  0  0  0  0  0  0
   -4.6577   -2.4509   -0.2584 C   0  0  0  0  0  0  0  0  0  0  0  0
   -4.2959   -3.5332    0.7226 C   0  0  0  0  0  0  0  0  0  0  0  0
   -2.7832   -3.6136    0.8456 C   0  0  0  0  0  0  0  0  0  0  0  0
   -2.1306   -3.2727   -0.4662 C   0  0  0  0  0  0  0  0  0  0  0  0
    3.2237    1.8815   -0.0410 C   0  0  0  0  0  0  0  0  0  0  0  0
    4.9627    2.2763    0.0945 S   0  0  0  0  0  0  0  0  0  0  0  0
    5.4891    0.5853    0.3366 C   0  0  0  0  0  0  0  0  0  0  0  0
    6.5225   -0.1680    0.5267 N   0  0  0  0  0  0  0  0  0  0  0  0
    0.6838    0.0000    0.0000 Cl  0  0  0  0  0  0  0  0  0  0  0  0
    0.6913    0.0000    0.0000 Cl  0  0  0  0  0  0  0  0  0  0  0  0
    6.0663   -2.1127   -1.4142 H   0  0  0  0  0  0  0  0  0  0  0  0
    6.8200   -3.3852   -0.3539 H   0  0  0  0  0  0  0  0  0  0  0  0
    7.7511   -1.8839   -0.7849 H   0  0  0  0  0  0  0  0  0  0  0  0
    7.1392   -1.4232    2.5980 H   0  0  0  0  0  0  0  0  0  0  0  0
    7.2731   -3.0523    1.7477 H   0  0  0  0  0  0  0  0  0  0  0  0
    5.7580   -2.5478    2.5363 H   0  0  0  0  0  0  0  0  0  0  0  0
    4.3430   -2.1749   -0.3656 H   0  0  0  0  0  0  0  0  0  0  0  0
    4.2182   -1.9167    1.4336 H   0  0  0  0  0  0  0  0  0  0  0  0
    1.8142   -0.8187   -0.7861 H   0  0  0  0  0  0  0  0  0  0  0  0
    1.5675   -0.5905    0.9658 H   0  0  0  0  0  0  0  0  0  0  0  0
   -1.1410    2.7566   -1.0900 H   0  0  0  0  0  0  0  0  0  0  0  0
   -4.1898    2.4473   -1.0721 H   0  0  0  0  0  0  0  0  0  0  0  0
   -3.1292    2.5096   -2.5104 H   0  0  0  0  0  0  0  0  0  0  0  0
   -2.7380    4.7677   -2.4539 H   0  0  0  0  0  0  0  0  0  0  0  0
   -4.4261    4.6533   -1.9064 H   0  0  0  0  0  0  0  0  0  0  0  0
   -2.7948    6.1999   -0.6329 H   0  0  0  0  0  0  0  0  0  0  0  0
   -3.9686    5.2550    0.3216 H   0  0  0  0  0  0  0  0  0  0  0  0
   -1.8994    5.1589    1.4095 H   0  0  0  0  0  0  0  0  0  0  0  0
   -0.9906    4.6179   -0.0982 H   0  0  0  0  0  0  0  0  0  0  0  0
   -1.5689    2.6799    1.4487 H   0  0  0  0  0  0  0  0  0  0  0  0
   -3.3190    3.0237    0.9847 H   0  0  0  0  0  0  0  0  0  0  0  0
   -0.4577   -1.5534    0.3465 H   0  0  0  0  0  0  0  0  0  0  0  0
   -2.4069   -1.6805   -1.8331 H   0  0  0  0  0  0  0  0  0  0  0  0
   -4.0677   -0.4483   -0.7340 H   0  0  0  0  0  0  0  0  0  0  0  0
   -3.5660   -1.0184    0.9117 H   0  0  0  0  0  0  0  0  0  0  0  0
   -5.6915   -2.0791   -0.0737 H   0  0  0  0  0  0  0  0  0  0  0  0
   -4.5521   -2.8495   -1.2996 H   0  0  0  0  0  0  0  0  0  0  0  0
   -4.6545   -4.5305    0.3626 H   0  0  0  0  0  0  0  0  0  0  0  0
   -4.7617   -3.2692    1.7003 H   0  0  0  0  0  0  0  0  0  0  0  0
   -2.4214   -2.8739    1.6076 H   0  0  0  0  0  0  0  0  0  0  0  0
   -2.4687   -4.6067    1.2331 H   0  0  0  0  0  0  0  0  0  0  0  0
   -2.4874   -3.8809   -1.2975 H   0  0  0  0  0  0  0  0  0  0  0  0
   -1.0382   -3.4486   -0.3739 H   0  0  0  0  0  0  0  0  0  0  0  0
    2.4131    2.6099   -0.2054 H   0  0  0  0  0  0  0  0  0  0  0  0
   -0.6838    0.0000    0.0000 H   0  0  0  0  0  0  0  0  0  0  0  0
   -0.6913    0.0000    0.0000 H   0  0  0  0  0  0  0  0  0  0  0  0
  1  2  1  0
  2  3  1  0
  2  4  1  0
  4  5  1  0
  5  6  1  0
  6  7  1  0
  7  8  1  0
  8  9  1  0
  9 10  2  0
 10 11  1  0
 11 12  1  0
 12 13  1  0
 13 14  1  0
 14 15  1  0
 15 16  1  0
  9 17  1  0
 17 18  1  0
 18 19  1  0
 19 20  1  0
 20 21  1  0
 21 22  1  0
 22 23  1  0
  6 24  2  0
 24 25  1  0
 25 26  1  0
 26 27  2  0
 27  2  1  0
 26  5  1  0
 16 11  1  0
 23 18  1  0
  1 30  1  0
  1 31  1  0
  1 32  1  0
  3 33  1  0
  3 34  1  0
  3 35  1  0
  4 36  1  0
  4 37  1  0
  7 38  1  0
  7 39  1  0
 11 40  1  0
 12 41  1  0
 12 42  1  0
 13 43  1  0
 13 44  1  0
 14 45  1  0
 14 46  1  0
 15 47  1  0
 15 48  1  0
 16 49  1  0
 16 50  1  0
 17 51  1  0
 18 52  1  0
 19 53  1  0
 19 54  1  0
 20 55  1  0
 20 56  1  0
 21 57  1  0
 21 58  1  0
 22 59  1  0
 22 60  1  0
 23 61  1  0
 23 62  1  0
 24 63  1  0
 28 64  1  0
 29 65  1  0
M  END
$$$$
