
     RDKit          3D

 68 70  0  0  0  0  0  0  0  0999 V2000
   -4.9477   -0.5566    3.5471 C   0  0  0  0  0  0  0  0  0  0  0  0
   -6.1659    0.0087    2.9150 C   0  0  0  0  0  0  0  0  0  0  0  0
   -6.0325    0.5720    1.6567 O   0  0  0  0  0  0  0  0  0  0  0  0
   -5.1701    1.6301    1.4485 C   0  0  0  0  0  0  0  0  0  0  0  0
   -4.5139    2.0361    2.4417 O   0  0  0  0  0  0  0  0  0  0  0  0
   -4.9934    2.2837    0.1610 C   0  0  0  0  0  0  0  0  0  0  0  0
   -4.7907    1.4497   -1.0338 C   0  0  0  0  0  0  0  0  0  0  0  0
   -3.6102    0.5880   -1.0221 N   0  0  0  0  0  0  0  0  0  0  0  0
   -2.4333    1.1352   -1.5217 C   0  0  0  0  0  0  0  0  0  0  0  0
   -2.4039    2.4310   -1.7148 O   0  0  0  0  0  0  0  0  0  0  0  0
   -1.2256    0.4422   -1.8564 C   0  0  0  0  0  0  0  0  0  0  0  0
   -1.0608   -0.9208   -1.9524 C   0  0  0  0  0  0  0  0  0  0  0  0
    0.1873   -1.5059   -2.2406 C   0  0  0  0  0  0  0  0  0  0  0  0
    1.3042   -0.7338   -2.4412 C   0  0  0  0  0  0  0  0  0  0  0  0
    1.1522    0.6417   -2.3480 C   0  0  0  0  0  0  0  0  0  0  0  0
   -0.0666    1.2069   -2.0664 C   0  0  0  0  0  0  0  0  0  0  0  0
    2.3903    1.1440   -2.5829 N   0  0  0  0  0  0  0  0  0  0  0  0
    3.2794    0.1642   -2.8116 C   0  0  0  0  0  0  0  0  0  0  0  0
    4.7483    0.3380   -3.1058 C   0  0  0  0  0  0  0  0  0  0  0  0
    5.2430    1.3266   -2.1512 N   0  0  0  0  0  0  0  0  0  0  0  0
    5.2707    1.0971   -0.7601 C   0  0  0  0  0  0  0  0  0  0  0  0
    5.6301    2.1133    0.0861 C   0  0  0  0  0  0  0  0  0  0  0  0
    5.6754    1.9050    1.4500 C   0  0  0  0  0  0  0  0  0  0  0  0
    5.3637    0.6817    1.9935 C   0  0  0  0  0  0  0  0  0  0  0  0
    5.3946    0.4038    3.4108 C   0  0  0  0  0  0  0  0  0  0  0  0
    5.7175    1.3156    4.2447 N   0  0  0  0  0  0  0  0  0  0  0  0
    5.0748   -0.8786    3.9189 N   0  0  0  0  0  0  0  0  0  0  0  0
    4.9990   -0.3467    1.1208 C   0  0  0  0  0  0  0  0  0  0  0  0
    4.9579   -0.1249   -0.2351 C   0  0  0  0  0  0  0  0  0  0  0  0
    2.5977   -0.9885   -2.7219 N   0  0  0  0  0  0  0  0  0  0  0  0
    3.1411   -2.3406   -2.8991 C   0  0  0  0  0  0  0  0  0  0  0  0
   -3.7363   -0.7325   -0.5486 C   0  0  0  0  0  0  0  0  0  0  0  0
   -3.0983   -1.1310    0.6116 C   0  0  0  0  0  0  0  0  0  0  0  0
   -3.2313   -2.4067    1.0980 C   0  0  0  0  0  0  0  0  0  0  0  0
   -4.0146   -3.3214    0.4262 C   0  0  0  0  0  0  0  0  0  0  0  0
   -4.6295   -2.8802   -0.7223 C   0  0  0  0  0  0  0  0  0  0  0  0
   -4.5109   -1.6404   -1.2106 N   0  0  0  0  0  0  0  0  0  0  0  0
    0.6893    0.0000    0.0000 Cl  0  0  0  0  0  0  0  0  0  0  0  0
   -4.8924   -1.6411    3.3246 H   0  0  0  0  0  0  0  0  0  0  0  0
   -3.9854   -0.1160    3.1653 H   0  0  0  0  0  0  0  0  0  0  0  0
   -4.9817   -0.4996    4.6628 H   0  0  0  0  0  0  0  0  0  0  0  0
   -6.9102   -0.8365    2.8072 H   0  0  0  0  0  0  0  0  0  0  0  0
   -6.6626    0.7022    3.6413 H   0  0  0  0  0  0  0  0  0  0  0  0
   -4.1751    3.0689    0.2168 H   0  0  0  0  0  0  0  0  0  0  0  0
   -5.9063    2.9286   -0.0476 H   0  0  0  0  0  0  0  0  0  0  0  0
   -5.6802    0.7785   -1.2386 H   0  0  0  0  0  0  0  0  0  0  0  0
   -4.7195    2.0733   -1.9434 H   0  0  0  0  0  0  0  0  0  0  0  0
   -1.9046   -1.5746   -1.8342 H   0  0  0  0  0  0  0  0  0  0  0  0
    0.2325   -2.5907   -2.2989 H   0  0  0  0  0  0  0  0  0  0  0  0
   -0.1396    2.2671   -2.0022 H   0  0  0  0  0  0  0  0  0  0  0  0
    4.8344    0.7838   -4.1154 H   0  0  0  0  0  0  0  0  0  0  0  0
    5.2645   -0.6222   -3.0003 H   0  0  0  0  0  0  0  0  0  0  0  0
    5.5984    2.2583   -2.5018 H   0  0  0  0  0  0  0  0  0  0  0  0
    5.8769    3.0803   -0.3200 H   0  0  0  0  0  0  0  0  0  0  0  0
    5.9633    2.7271    2.0971 H   0  0  0  0  0  0  0  0  0  0  0  0
    5.9796    2.2848    4.0750 H   0  0  0  0  0  0  0  0  0  0  0  0
    5.8102   -1.5107    4.3170 H   0  0  0  0  0  0  0  0  0  0  0  0
    4.1015   -1.2606    3.9242 H   0  0  0  0  0  0  0  0  0  0  0  0
    4.7487   -1.3229    1.5403 H   0  0  0  0  0  0  0  0  0  0  0  0
    4.6742   -0.9504   -0.8869 H   0  0  0  0  0  0  0  0  0  0  0  0
    4.0841   -2.2817   -3.4781 H   0  0  0  0  0  0  0  0  0  0  0  0
    2.4472   -2.9712   -3.4789 H   0  0  0  0  0  0  0  0  0  0  0  0
    3.4063   -2.7893   -1.9106 H   0  0  0  0  0  0  0  0  0  0  0  0
   -2.4850   -0.3758    1.1160 H   0  0  0  0  0  0  0  0  0  0  0  0
   -2.7160   -2.6884    2.0152 H   0  0  0  0  0  0  0  0  0  0  0  0
   -4.1081   -4.3149    0.8186 H   0  0  0  0  0  0  0  0  0  0  0  0
   -5.2473   -3.6152   -1.2484 H   0  0  0  0  0  0  0  0  0  0  0  0
   -0.6893    0.0000    0.0000 H   0  0  0  0  0  0  0  0  0  0  0  0
  1  2  1  0
  2  3  1  0
  3  4  1  0
  4  5  2  0
  4  6  1  0
  6  7  1  0
  7  8  1  0
  8  9  1  0
  9 10  2  0
  9 11  1  0
 11 12  2  0
 12 13  1  0
 13 14  2  0
 14 15  1  0
 15 16  2  0
 15 17  1  0
 17 18  2  0
 18 19  1  0
 19 20  1  0
 20 21  1  0
 21 22  2  0
 22 23  1  0
 23 24  2  0
 24 25  1  0
 25 26  2  3
 25 27  1  0
 24 28  1  0
 28 29  2  0
 18 30  1  0
 30 31  1  0
  8 32  1  0
 32 33  2  0
 33 34  1  0
 34 35  2  0
 35 36  1  0
 36 37  2  0
 16 11  1  0
 29 21  1  0
 37 32  1  0
 30 14  1  0
  1 39  1  0
  1 40  1  0
  1 41  1  0
  2 42  1  0
  2 43  1  0
  6 44  1  0
  6 45  1  0
  7 46  1  0
  7 47  1  0
 12 48  1  0
 13 49  1  0
 16 50  1  0
 19 51  1  0
 19 52  1  0
 20 53  1  0
 22 54  1  0
 23 55  1  0
 26 56  1  0
 27 57  1  0
 27 58  1  0
 28 59  1  0
 29 60  1  0
 31 61  1  0
 31 62  1  0
 31 63  1  0
 33 64  1  0
 34 65  1  0
 35 66  1  0
 36 67  1  0
 38 68  1  0
M  END
$$$$
