
     RDKit          3D

 41 44  0  0  0  0  0  0  0  0999 V2000
    7.2498    0.6566    0.1430 C   0  0  0  0  0  0  0  0  0  0  0  0
    5.9059    0.1345    0.1444 N   0  0  0  0  0  0  0  0  0  0  0  0
    5.5968   -1.1953    0.2059 C   0  0  0  0  0  0  0  0  0  0  0  0
    6.3336   -2.1590    0.2870 O   0  0  0  0  0  0  0  0  0  0  0  0
    4.1388   -1.2820    0.1474 C   0  0  0  0  0  0  0  0  0  0  0  0
    3.3062   -2.3800    0.1864 C   0  0  0  0  0  0  0  0  0  0  0  0
    1.9291   -2.1387    0.1072 C   0  0  0  0  0  0  0  0  0  0  0  0
    1.4135   -0.8240   -0.0123 C   0  0  0  0  0  0  0  0  0  0  0  0
    0.0152   -0.6982   -0.0801 N   0  0  0  0  0  0  0  0  0  0  0  0
   -0.7217    0.4514   -0.2813 C   0  0  0  0  0  0  0  0  0  0  0  0
   -0.3170    1.5839   -0.4797 O   0  0  0  0  0  0  0  0  0  0  0  0
   -2.2254    0.1668   -0.2628 C   0  0  0  0  0  0  0  0  0  0  0  0
   -2.5799   -0.9674   -0.7975 N   0  0  0  0  0  0  0  0  0  0  0  0
   -3.9105   -1.3020   -0.8261 N   0  0  0  0  0  0  0  0  0  0  0  0
   -4.2378   -2.5405   -1.5105 C   0  0  0  0  0  0  0  0  0  0  0  0
   -4.9361   -0.4773   -0.3711 C   0  0  0  0  0  0  0  0  0  0  0  0
   -6.1309   -0.7446   -0.4695 O   0  0  0  0  0  0  0  0  0  0  0  0
   -4.5242    0.7812    0.2793 C   0  0  0  0  0  0  0  0  0  0  0  0
   -5.4933    1.6278    0.8363 C   0  0  0  0  0  0  0  0  0  0  0  0
   -5.1064    2.8043    1.4756 C   0  0  0  0  0  0  0  0  0  0  0  0
   -3.7553    3.1322    1.5624 C   0  0  0  0  0  0  0  0  0  0  0  0
   -2.7886    2.2891    1.0058 C   0  0  0  0  0  0  0  0  0  0  0  0
   -3.1739    1.1124    0.3513 C   0  0  0  0  0  0  0  0  0  0  0  0
    2.2884    0.2680   -0.0480 C   0  0  0  0  0  0  0  0  0  0  0  0
    3.6440    0.0036    0.0347 C   0  0  0  0  0  0  0  0  0  0  0  0
    4.7883    0.9149    0.0248 C   0  0  0  0  0  0  0  0  0  0  0  0
    4.7045    2.1234   -0.0762 O   0  0  0  0  0  0  0  0  0  0  0  0
    7.9424   -0.0650    0.5842 H   0  0  0  0  0  0  0  0  0  0  0  0
    7.2815    1.5989    0.6972 H   0  0  0  0  0  0  0  0  0  0  0  0
    7.5417    0.8495   -0.8936 H   0  0  0  0  0  0  0  0  0  0  0  0
    3.7052   -3.3855    0.2741 H   0  0  0  0  0  0  0  0  0  0  0  0
    1.2536   -2.9923    0.1357 H   0  0  0  0  0  0  0  0  0  0  0  0
   -0.5394   -1.5508   -0.0630 H   0  0  0  0  0  0  0  0  0  0  0  0
   -5.2189   -2.9125   -1.2027 H   0  0  0  0  0  0  0  0  0  0  0  0
   -4.2499   -2.3476   -2.5871 H   0  0  0  0  0  0  0  0  0  0  0  0
   -3.4807   -3.2955   -1.2791 H   0  0  0  0  0  0  0  0  0  0  0  0
   -6.5492    1.3697    0.7758 H   0  0  0  0  0  0  0  0  0  0  0  0
   -5.8575    3.4621    1.9071 H   0  0  0  0  0  0  0  0  0  0  0  0
   -3.4506    4.0495    2.0625 H   0  0  0  0  0  0  0  0  0  0  0  0
   -1.7461    2.5829    1.0971 H   0  0  0  0  0  0  0  0  0  0  0  0
    1.9550    1.2960   -0.1350 H   0  0  0  0  0  0  0  0  0  0  0  0
  1  2  1  0
  2  3  1  0
  3  4  2  0
  3  5  1  0
  5  6  2  0
  6  7  1  0
  7  8  2  0
  8  9  1  0
  9 10  1  0
 10 11  2  0
 10 12  1  0
 12 13  2  0
 13 14  1  0
 14 15  1  0
 14 16  1  0
 16 17  2  0
 16 18  1  0
 18 19  2  0
 19 20  1  0
 20 21  2  0
 21 22  1  0
 22 23  2  0
  8 24  1  0
 24 25  2  0
 25 26  1  0
 26 27  2  0
 26  2  1  0
 25  5  1  0
 23 12  1  0
 23 18  1  0
  1 28  1  0
  1 29  1  0
  1 30  1  0
  6 31  1  0
  7 32  1  0
  9 33  1  0
 15 34  1  0
 15 35  1  0
 15 36  1  0
 19 37  1  0
 20 38  1  0
 21 39  1  0
 22 40  1  0
 24 41  1  0
M  END
$$$$
