
     RDKit          3D

 39 40  0  0  0  0  0  0  0  0999 V2000
    7.2254    0.6412   -0.4227 C   0  0  0  0  0  0  0  0  0  0  0  0
    6.5515   -0.1743    0.6648 C   0  0  0  0  0  0  0  0  0  0  0  0
    5.2617   -0.6219    0.2213 O   0  0  0  0  0  0  0  0  0  0  0  0
    4.2322    0.2501    0.4138 C   0  0  0  0  0  0  0  0  0  0  0  0
    4.3378    1.3504    0.9362 O   0  0  0  0  0  0  0  0  0  0  0  0
    2.9692   -0.2865   -0.0528 C   0  0  0  0  0  0  0  0  0  0  0  0
    2.6786   -1.5860   -0.4926 C   0  0  0  0  0  0  0  0  0  0  0  0
    1.4053   -1.7301   -0.8486 N   0  0  0  0  0  0  0  0  0  0  0  0
    0.8112   -0.5482   -0.5148 N   0  0  0  0  0  0  0  0  0  0  0  0
   -0.6164   -0.4959   -0.4878 C   0  0  0  0  0  0  0  0  0  0  0  0
   -1.3439   -1.4805   -1.1738 C   0  0  0  0  0  0  0  0  0  0  0  0
   -2.7434   -1.4760   -1.1577 C   0  0  0  0  0  0  0  0  0  0  0  0
   -3.4464   -0.5008   -0.4443 C   0  0  0  0  0  0  0  0  0  0  0  0
   -4.8539   -0.5689   -0.4779 N   0  0  0  0  0  0  0  0  0  0  0  0
   -5.7586    0.2909    0.1209 C   0  0  0  0  0  0  0  0  0  0  0  0
   -5.4806    1.2897    0.7727 O   0  0  0  0  0  0  0  0  0  0  0  0
   -7.1877   -0.1012   -0.1215 C   0  0  0  0  0  0  0  0  0  0  0  0
   -7.5230   -0.7576   -1.7022 Cl  0  0  0  0  0  0  0  0  0  0  0  0
   -8.1425    0.0430    0.8138 C   0  0  0  0  0  0  0  0  0  0  0  0
   -9.8008   -0.4021    0.5126 Cl  0  0  0  0  0  0  0  0  0  0  0  0
   -7.8451    0.6046    2.4287 Cl  0  0  0  0  0  0  0  0  0  0  0  0
   -2.7238    0.4610    0.2608 C   0  0  0  0  0  0  0  0  0  0  0  0
   -1.3198    0.4625    0.2468 C   0  0  0  0  0  0  0  0  0  0  0  0
    1.7697    0.3998   -0.2124 C   0  0  0  0  0  0  0  0  0  0  0  0
    1.5121    1.8466   -0.1562 C   0  0  0  0  0  0  0  0  0  0  0  0
    0.4733    2.2252   -0.9423 F   0  0  0  0  0  0  0  0  0  0  0  0
    2.5721    2.5692   -0.5975 F   0  0  0  0  0  0  0  0  0  0  0  0
    1.2352    2.2627    1.1022 F   0  0  0  0  0  0  0  0  0  0  0  0
    8.2332    0.9366   -0.1177 H   0  0  0  0  0  0  0  0  0  0  0  0
    6.6505    1.5445   -0.6504 H   0  0  0  0  0  0  0  0  0  0  0  0
    7.2918    0.0638   -1.3507 H   0  0  0  0  0  0  0  0  0  0  0  0
    7.1455   -1.0700    0.8738 H   0  0  0  0  0  0  0  0  0  0  0  0
    6.4780    0.3883    1.6025 H   0  0  0  0  0  0  0  0  0  0  0  0
    3.3467   -2.4350   -0.5801 H   0  0  0  0  0  0  0  0  0  0  0  0
   -0.8351   -2.2585   -1.7418 H   0  0  0  0  0  0  0  0  0  0  0  0
   -3.2669   -2.2504   -1.7129 H   0  0  0  0  0  0  0  0  0  0  0  0
   -5.2454   -1.3243   -1.0296 H   0  0  0  0  0  0  0  0  0  0  0  0
   -3.2189    1.2278    0.8500 H   0  0  0  0  0  0  0  0  0  0  0  0
   -0.8289    1.2105    0.8601 H   0  0  0  0  0  0  0  0  0  0  0  0
  1  2  1  0
  2  3  1  0
  3  4  1  0
  4  5  2  0
  4  6  1  0
  6  7  1  0
  7  8  2  0
  8  9  1  0
  9 10  1  0
 10 11  2  0
 11 12  1  0
 12 13  2  0
 13 14  1  0
 14 15  1  0
 15 16  2  0
 15 17  1  0
 17 18  1  0
 17 19  2  3
 19 20  1  0
 19 21  1  0
 13 22  1  0
 22 23  2  0
  9 24  1  0
 24 25  1  0
 25 26  1  0
 25 27  1  0
 25 28  1  0
 24  6  2  0
 23 10  1  0
  1 29  1  0
  1 30  1  0
  1 31  1  0
  2 32  1  0
  2 33  1  0
  7 34  1  0
 11 35  1  0
 12 36  1  0
 14 37  1  0
 22 38  1  0
 23 39  1  0
M  END
$$$$
