
     RDKit          3D

 51 54  0  0  0  0  0  0  0  0999 V2000
   -3.3489   -3.9011   -2.5378 C   0  0  0  0  0  0  0  0  0  0  0  0
   -4.0516   -2.6844   -2.0763 C   0  0  0  0  0  0  0  0  0  0  0  0
   -5.2877   -2.4756   -2.5915 O   0  0  0  0  0  0  0  0  0  0  0  0
   -5.8120   -1.3068   -2.0854 N   0  0  0  0  0  0  0  0  0  0  0  0
   -4.8881   -0.8045   -1.2486 C   0  0  0  0  0  0  0  0  0  0  0  0
   -5.1451    0.4510   -0.5420 C   0  0  0  0  0  0  0  0  0  0  0  0
   -4.7994    0.6137    0.8082 C   0  0  0  0  0  0  0  0  0  0  0  0
   -5.0546    1.8208    1.4644 C   0  0  0  0  0  0  0  0  0  0  0  0
   -5.6685    2.8616    0.7772 C   0  0  0  0  0  0  0  0  0  0  0  0
   -5.9165    4.0155    1.4097 F   0  0  0  0  0  0  0  0  0  0  0  0
   -6.0345    2.7188   -0.5549 C   0  0  0  0  0  0  0  0  0  0  0  0
   -5.7753    1.5138   -1.2126 C   0  0  0  0  0  0  0  0  0  0  0  0
   -3.7330   -1.6527   -1.2159 C   0  0  0  0  0  0  0  0  0  0  0  0
   -2.4636   -1.4776   -0.4565 C   0  0  0  0  0  0  0  0  0  0  0  0
   -1.7984   -0.2799   -0.8621 O   0  0  0  0  0  0  0  0  0  0  0  0
   -0.6077   -0.0765   -0.1980 C   0  0  0  0  0  0  0  0  0  0  0  0
    0.1954    0.9551   -0.6737 C   0  0  0  0  0  0  0  0  0  0  0  0
    1.4168    1.1895   -0.0439 C   0  0  0  0  0  0  0  0  0  0  0  0
    1.7785    0.3930    1.0394 C   0  0  0  0  0  0  0  0  0  0  0  0
    3.0354    0.5999    1.7797 C   0  0  0  0  0  0  0  0  0  0  0  0
    2.9605    0.7631    2.9947 O   0  0  0  0  0  0  0  0  0  0  0  0
    4.2457    0.6232    1.0805 N   0  0  0  0  0  0  0  0  0  0  0  0
    4.4276    0.0291   -0.2549 C   0  0  0  0  0  0  0  0  0  0  0  0
    5.6536   -0.8542   -0.3280 C   0  0  0  0  0  0  0  0  0  0  0  0
    7.1233    0.1160   -0.0704 S   0  0  0  0  0  6  0  0  0  0  0  0
    7.5069    0.6828   -1.3509 O   0  0  0  0  0  0  0  0  0  0  0  0
    8.0539   -0.6948    0.6950 O   0  0  0  0  0  0  0  0  0  0  0  0
    6.5828    1.4527    0.9691 C   0  0  0  0  0  0  0  0  0  0  0  0
    5.4460    0.9804    1.8471 C   0  0  0  0  0  0  0  0  0  0  0  0
    0.8897   -0.5811    1.4742 C   0  0  0  0  0  0  0  0  0  0  0  0
   -0.2903   -0.8492    0.8603 N   0  0  0  0  0  0  0  0  0  0  0  0
   -4.0438   -4.6146   -2.9955 H   0  0  0  0  0  0  0  0  0  0  0  0
   -2.8566   -4.4094   -1.7020 H   0  0  0  0  0  0  0  0  0  0  0  0
   -2.5891   -3.6404   -3.2849 H   0  0  0  0  0  0  0  0  0  0  0  0
   -4.3484   -0.1954    1.3728 H   0  0  0  0  0  0  0  0  0  0  0  0
   -4.7872    1.9491    2.5086 H   0  0  0  0  0  0  0  0  0  0  0  0
   -6.5231    3.5383   -1.0707 H   0  0  0  0  0  0  0  0  0  0  0  0
   -6.0698    1.4063   -2.2556 H   0  0  0  0  0  0  0  0  0  0  0  0
   -2.6949   -1.4491    0.6130 H   0  0  0  0  0  0  0  0  0  0  0  0
   -1.8084   -2.3377   -0.6416 H   0  0  0  0  0  0  0  0  0  0  0  0
   -0.1355    1.5653   -1.5022 H   0  0  0  0  0  0  0  0  0  0  0  0
    2.0606    2.0004   -0.3806 H   0  0  0  0  0  0  0  0  0  0  0  0
    4.4932    0.8576   -0.9676 H   0  0  0  0  0  0  0  0  0  0  0  0
    3.5562   -0.5741   -0.5218 H   0  0  0  0  0  0  0  0  0  0  0  0
    5.6236   -1.6307    0.4419 H   0  0  0  0  0  0  0  0  0  0  0  0
    5.7437   -1.3331   -1.3088 H   0  0  0  0  0  0  0  0  0  0  0  0
    7.4445    1.7781    1.5621 H   0  0  0  0  0  0  0  0  0  0  0  0
    6.2662    2.2776    0.3187 H   0  0  0  0  0  0  0  0  0  0  0  0
    5.7362    0.0943    2.4248 H   0  0  0  0  0  0  0  0  0  0  0  0
    5.1871    1.7651    2.5672 H   0  0  0  0  0  0  0  0  0  0  0  0
    1.1047   -1.1890    2.3451 H   0  0  0  0  0  0  0  0  0  0  0  0
  1  2  1  0
  2  3  1  0
  3  4  1  0
  4  5  2  0
  5  6  1  0
  6  7  2  0
  7  8  1  0
  8  9  2  0
  9 10  1  0
  9 11  1  0
 11 12  2  0
  5 13  1  0
 13 14  1  0
 14 15  1  0
 15 16  1  0
 16 17  2  0
 17 18  1  0
 18 19  2  0
 19 20  1  0
 20 21  2  0
 20 22  1  0
 22 23  1  0
 23 24  1  0
 24 25  1  0
 25 26  2  0
 25 27  2  0
 25 28  1  0
 28 29  1  0
 19 30  1  0
 30 31  2  0
 13  2  2  0
 31 16  1  0
 12  6  1  0
 29 22  1  0
  1 32  1  0
  1 33  1  0
  1 34  1  0
  7 35  1  0
  8 36  1  0
 11 37  1  0
 12 38  1  0
 14 39  1  0
 14 40  1  0
 17 41  1  0
 18 42  1  0
 23 43  1  0
 23 44  1  0
 24 45  1  0
 24 46  1  0
 28 47  1  0
 28 48  1  0
 29 49  1  0
 29 50  1  0
 30 51  1  0
M  END
$$$$
