
     RDKit          3D

 56 58  0  0  0  0  0  0  0  0999 V2000
   -2.9214    1.5800    2.2050 C   0  0  0  0  0  0  0  0  0  0  0  0
   -3.6422    0.7816    1.1519 C   0  0  0  0  0  0  0  0  0  0  0  0
   -4.8655    0.6549    1.2677 O   0  0  0  0  0  0  0  0  0  0  0  0
   -2.9275    0.1811    0.1127 N   0  0  0  0  0  0  0  0  0  0  0  0
   -3.7075   -0.5720   -0.9065 C   0  0  0  0  0  0  0  0  0  0  0  0
   -4.3898   -1.8263   -0.3312 C   0  0  0  0  0  0  0  0  0  0  0  0
   -5.6724   -2.1530   -1.0832 C   0  0  0  0  0  0  0  0  0  0  0  0
   -5.4862   -1.9036   -2.4738 O   0  0  0  0  0  0  0  0  0  0  0  0
   -5.3993   -0.5094   -2.7739 C   0  0  0  0  0  0  0  0  0  0  0  0
   -4.6882    0.3057   -1.6951 C   0  0  0  0  0  0  0  0  0  0  0  0
   -1.4729    0.3236   -0.1638 C   0  0  0  0  0  0  0  0  0  0  0  0
   -1.1230    1.6831   -0.7869 C   0  0  0  0  0  0  0  0  0  0  0  0
    0.3496    1.7167   -1.1913 C   0  0  0  0  0  0  0  0  0  0  0  0
    1.2674    1.3577   -0.0264 C   0  0  0  0  0  0  0  0  0  0  0  0
    0.8918    0.0860    0.5992 N   0  0  0  0  0  0  0  0  0  0  0  0
    1.8086   -0.7204    1.2843 C   0  0  0  0  0  0  0  0  0  0  0  0
    1.4931   -1.6146    2.0668 O   0  0  0  0  0  0  0  0  0  0  0  0
    3.2453   -0.4936    1.0484 C   0  0  0  0  0  0  0  0  0  0  0  0
    3.9796    0.2566    1.9653 C   0  0  0  0  0  0  0  0  0  0  0  0
    5.3334    0.4903    1.7244 C   0  0  0  0  0  0  0  0  0  0  0  0
    5.9612   -0.0327    0.5792 C   0  0  0  0  0  0  0  0  0  0  0  0
    7.4230    0.2473    0.3525 C   0  0  0  0  0  0  0  0  0  0  0  0
    5.2164   -0.8206   -0.3284 C   0  0  0  0  0  0  0  0  0  0  0  0
    5.8530   -1.4295   -1.5498 C   0  0  0  0  0  0  0  0  0  0  0  0
    3.8516   -1.0405   -0.0867 C   0  0  0  0  0  0  0  0  0  0  0  0
   -0.5162   -0.0475    0.9873 C   0  0  0  0  0  0  0  0  0  0  0  0
   -2.1467    2.2217    1.7931 H   0  0  0  0  0  0  0  0  0  0  0  0
   -2.5128    0.9026    2.9593 H   0  0  0  0  0  0  0  0  0  0  0  0
   -3.6423    2.2404    2.6998 H   0  0  0  0  0  0  0  0  0  0  0  0
   -2.9946   -0.9427   -1.6556 H   0  0  0  0  0  0  0  0  0  0  0  0
   -3.6867   -2.6641   -0.4336 H   0  0  0  0  0  0  0  0  0  0  0  0
   -4.6048   -1.7568    0.7399 H   0  0  0  0  0  0  0  0  0  0  0  0
   -5.9226   -3.2106   -0.9535 H   0  0  0  0  0  0  0  0  0  0  0  0
   -6.5216   -1.5676   -0.7102 H   0  0  0  0  0  0  0  0  0  0  0  0
   -4.8584   -0.4239   -3.7225 H   0  0  0  0  0  0  0  0  0  0  0  0
   -6.4095   -0.1197   -2.9442 H   0  0  0  0  0  0  0  0  0  0  0  0
   -5.4517    0.7294   -1.0349 H   0  0  0  0  0  0  0  0  0  0  0  0
   -4.1807    1.1645   -2.1483 H   0  0  0  0  0  0  0  0  0  0  0  0
   -1.2375   -0.4218   -0.9366 H   0  0  0  0  0  0  0  0  0  0  0  0
   -1.7450    1.8639   -1.6718 H   0  0  0  0  0  0  0  0  0  0  0  0
   -1.3251    2.5066   -0.0958 H   0  0  0  0  0  0  0  0  0  0  0  0
    0.6070    2.7110   -1.5734 H   0  0  0  0  0  0  0  0  0  0  0  0
    0.5125    1.0055   -2.0111 H   0  0  0  0  0  0  0  0  0  0  0  0
    1.2161    2.1282    0.7527 H   0  0  0  0  0  0  0  0  0  0  0  0
    2.2983    1.3321   -0.3874 H   0  0  0  0  0  0  0  0  0  0  0  0
    3.5053    0.6517    2.8599 H   0  0  0  0  0  0  0  0  0  0  0  0
    5.9011    1.0783    2.4436 H   0  0  0  0  0  0  0  0  0  0  0  0
    7.8441    0.8643    1.1545 H   0  0  0  0  0  0  0  0  0  0  0  0
    7.5617    0.7891   -0.5884 H   0  0  0  0  0  0  0  0  0  0  0  0
    7.9924   -0.6891    0.3228 H   0  0  0  0  0  0  0  0  0  0  0  0
    5.1506   -2.0798   -2.0864 H   0  0  0  0  0  0  0  0  0  0  0  0
    6.7119   -2.0478   -1.2619 H   0  0  0  0  0  0  0  0  0  0  0  0
    6.1804   -0.6454   -2.2436 H   0  0  0  0  0  0  0  0  0  0  0  0
    3.2571   -1.6420   -0.7717 H   0  0  0  0  0  0  0  0  0  0  0  0
   -0.7257   -1.0728    1.3137 H   0  0  0  0  0  0  0  0  0  0  0  0
   -0.6350    0.5939    1.8618 H   0  0  0  0  0  0  0  0  0  0  0  0
  1  2  1  0
  2  3  2  0
  2  4  1  0
  4  5  1  0
  5  6  1  0
  6  7  1  0
  7  8  1  0
  8  9  1  0
  9 10  1  0
  4 11  1  0
 11 12  1  0
 12 13  1  0
 13 14  1  0
 14 15  1  0
 15 16  1  0
 16 17  2  0
 16 18  1  0
 18 19  2  0
 19 20  1  0
 20 21  2  0
 21 22  1  0
 21 23  1  0
 23 24  1  0
 23 25  2  0
 15 26  1  0
 10  5  1  0
 26 11  1  0
 25 18  1  0
  1 27  1  0
  1 28  1  0
  1 29  1  0
  5 30  1  0
  6 31  1  0
  6 32  1  0
  7 33  1  0
  7 34  1  0
  9 35  1  0
  9 36  1  0
 10 37  1  0
 10 38  1  0
 11 39  1  0
 12 40  1  0
 12 41  1  0
 13 42  1  0
 13 43  1  0
 14 44  1  0
 14 45  1  0
 19 46  1  0
 20 47  1  0
 22 48  1  0
 22 49  1  0
 22 50  1  0
 24 51  1  0
 24 52  1  0
 24 53  1  0
 25 54  1  0
 26 55  1  0
 26 56  1  0
M  END
$$$$
