
     RDKit          3D

 48 51  0  0  0  0  0  0  0  0999 V2000
   -4.7992   -1.7310   -1.9935 C   0  0  0  0  0  0  0  0  0  0  0  0
   -4.5879   -0.3001   -1.7773 N   0  0  0  0  0  0  0  0  0  0  0  0
   -5.8430    0.4273   -1.9731 C   0  0  0  0  0  0  0  0  0  0  0  0
   -3.9540    0.0354   -0.4784 C   0  0  0  0  0  0  0  0  0  0  0  0
   -4.6078   -0.6198    0.7735 C   0  0  0  0  0  0  0  0  0  0  0  0
   -4.0155   -0.0718    2.0871 C   0  0  0  0  0  0  0  0  0  0  0  0
   -2.5355    0.0057    1.9810 C   0  0  0  0  0  0  0  0  0  0  0  0
   -1.6786    0.1797    3.0309 N   0  0  0  0  0  0  0  0  0  0  0  0
   -0.3813    0.2301    2.5681 C   0  0  0  0  0  0  0  0  0  0  0  0
    0.8185    0.3921    3.2662 C   0  0  0  0  0  0  0  0  0  0  0  0
    2.0095    0.4040    2.5266 C   0  0  0  0  0  0  0  0  0  0  0  0
    2.0091    0.2565    1.1397 C   0  0  0  0  0  0  0  0  0  0  0  0
    3.1786    0.2683    0.3476 N   0  0  0  0  0  0  0  0  0  0  0  0
    4.4891    0.3339    0.7832 C   0  0  0  0  0  0  0  0  0  0  0  0
    4.8859    0.3226    1.9418 O   0  0  0  0  0  0  0  0  0  0  0  0
    5.5073    0.3826   -0.3050 C   0  0  0  0  0  0  0  0  0  0  0  0
    6.7299   -0.2756   -0.1059 C   0  0  0  0  0  0  0  0  0  0  0  0
    7.7092   -0.2494   -1.1004 C   0  0  0  0  0  0  0  0  0  0  0  0
    7.4668    0.4426   -2.2817 C   0  0  0  0  0  0  0  0  0  0  0  0
    8.4066    0.4696   -3.2352 F   0  0  0  0  0  0  0  0  0  0  0  0
    6.2661    1.1157   -2.4862 C   0  0  0  0  0  0  0  0  0  0  0  0
    5.2821    1.0919   -1.4948 C   0  0  0  0  0  0  0  0  0  0  0  0
    0.7881    0.0988    0.4617 C   0  0  0  0  0  0  0  0  0  0  0  0
   -0.4251    0.0848    1.1808 C   0  0  0  0  0  0  0  0  0  0  0  0
   -1.7941   -0.0533    0.8198 C   0  0  0  0  0  0  0  0  0  0  0  0
   -2.4199   -0.2562   -0.5228 C   0  0  0  0  0  0  0  0  0  0  0  0
   -5.1431   -1.9092   -3.0190 H   0  0  0  0  0  0  0  0  0  0  0  0
   -5.5475   -2.1534   -1.3140 H   0  0  0  0  0  0  0  0  0  0  0  0
   -3.8711   -2.2993   -1.8827 H   0  0  0  0  0  0  0  0  0  0  0  0
   -6.2337    0.2510   -2.9818 H   0  0  0  0  0  0  0  0  0  0  0  0
   -5.6834    1.5081   -1.8899 H   0  0  0  0  0  0  0  0  0  0  0  0
   -6.6154    0.1349   -1.2540 H   0  0  0  0  0  0  0  0  0  0  0  0
   -4.0384    1.1252   -0.3480 H   0  0  0  0  0  0  0  0  0  0  0  0
   -4.4497   -1.7059    0.7453 H   0  0  0  0  0  0  0  0  0  0  0  0
   -5.6905   -0.4526    0.7857 H   0  0  0  0  0  0  0  0  0  0  0  0
   -4.3156   -0.7120    2.9238 H   0  0  0  0  0  0  0  0  0  0  0  0
   -4.4139    0.9321    2.2761 H   0  0  0  0  0  0  0  0  0  0  0  0
   -1.9434    0.2625    4.0028 H   0  0  0  0  0  0  0  0  0  0  0  0
    0.8397    0.5065    4.3451 H   0  0  0  0  0  0  0  0  0  0  0  0
    2.9350    0.5367    3.0793 H   0  0  0  0  0  0  0  0  0  0  0  0
    3.0278    0.1481   -0.6450 H   0  0  0  0  0  0  0  0  0  0  0  0
    6.9180   -0.8088    0.8245 H   0  0  0  0  0  0  0  0  0  0  0  0
    8.6575   -0.7583   -0.9582 H   0  0  0  0  0  0  0  0  0  0  0  0
    6.1111    1.6634   -3.4109 H   0  0  0  0  0  0  0  0  0  0  0  0
    4.3647    1.6536   -1.6498 H   0  0  0  0  0  0  0  0  0  0  0  0
    0.7559   -0.0156   -0.6167 H   0  0  0  0  0  0  0  0  0  0  0  0
   -2.2255   -1.2907   -0.8279 H   0  0  0  0  0  0  0  0  0  0  0  0
   -1.9435    0.3992   -1.2621 H   0  0  0  0  0  0  0  0  0  0  0  0
  1  2  1  0
  2  3  1  0
  2  4  1  0
  4  5  1  0
  5  6  1  0
  6  7  1  0
  7  8  1  0
  8  9  1  0
  9 10  2  0
 10 11  1  0
 11 12  2  0
 12 13  1  0
 13 14  1  0
 14 15  2  0
 14 16  1  0
 16 17  2  0
 17 18  1  0
 18 19  2  0
 19 20  1  0
 19 21  1  0
 21 22  2  0
 12 23  1  0
 23 24  2  0
 24 25  1  0
 25 26  1  0
 26  4  1  0
 25  7  2  0
 24  9  1  0
 22 16  1  0
  1 27  1  0
  1 28  1  0
  1 29  1  0
  3 30  1  0
  3 31  1  0
  3 32  1  0
  4 33  1  0
  5 34  1  0
  5 35  1  0
  6 36  1  0
  6 37  1  0
  8 38  1  0
 10 39  1  0
 11 40  1  0
 13 41  1  0
 17 42  1  0
 18 43  1  0
 21 44  1  0
 22 45  1  0
 23 46  1  0
 26 47  1  0
 26 48  1  0
M  END
$$$$
