
     RDKit          3D

 24 24  0  0  0  0  0  0  0  0999 V2000
    3.8627    0.2039   -0.5453 C   0  0  0  0  0  0  0  0  0  0  0  0
    2.9913    0.1291    0.6988 C   0  0  0  0  0  0  0  0  0  0  0  0
    1.5740   -0.3769    0.4220 C   0  0  0  0  0  0  0  0  0  0  0  0
    0.7509    0.5725   -0.4530 C   0  0  0  0  0  0  0  0  0  0  0  0
   -0.6611    0.1113   -0.6051 C   0  0  0  0  0  0  0  0  0  0  0  0
   -1.7803    0.4638    0.1836 C   0  0  0  0  0  0  0  0  0  0  0  0
   -2.8451   -0.2256   -0.3603 C   0  0  0  0  0  0  0  0  0  0  0  0
   -4.2264   -0.2889   -0.0148 C   0  0  0  0  0  0  0  0  0  0  0  0
   -5.0932   -0.9418   -0.5736 O   0  0  0  0  0  0  0  0  0  0  0  0
   -4.5112    0.4844    1.0512 O   0  0  0  0  0  0  0  0  0  0  0  0
   -2.3170   -0.9259   -1.4085 N   0  0  0  0  0  0  0  0  0  0  0  0
   -0.9977   -0.7409   -1.5807 N   0  0  0  0  0  0  0  0  0  0  0  0
    4.8866    0.4771   -0.2704 H   0  0  0  0  0  0  0  0  0  0  0  0
    3.8965   -0.7614   -1.0603 H   0  0  0  0  0  0  0  0  0  0  0  0
    3.4965    0.9587   -1.2471 H   0  0  0  0  0  0  0  0  0  0  0  0
    3.4676   -0.5490    1.4170 H   0  0  0  0  0  0  0  0  0  0  0  0
    2.9492    1.1156    1.1750 H   0  0  0  0  0  0  0  0  0  0  0  0
    1.0655   -0.5148    1.3851 H   0  0  0  0  0  0  0  0  0  0  0  0
    1.6220   -1.3688   -0.0452 H   0  0  0  0  0  0  0  0  0  0  0  0
    1.2055    0.6647   -1.4464 H   0  0  0  0  0  0  0  0  0  0  0  0
    0.7543    1.5770   -0.0118 H   0  0  0  0  0  0  0  0  0  0  0  0
   -1.8095    1.1295    1.0354 H   0  0  0  0  0  0  0  0  0  0  0  0
   -5.4721    0.3538    1.1821 H   0  0  0  0  0  0  0  0  0  0  0  0
   -2.8092   -1.5473   -2.0430 H   0  0  0  0  0  0  0  0  0  0  0  0
  1  2  1  0
  2  3  1  0
  3  4  1  0
  4  5  1  0
  5  6  1  0
  6  7  2  0
  7  8  1  0
  8  9  2  0
  8 10  1  0
  7 11  1  0
 11 12  1  0
 12  5  2  0
  1 13  1  0
  1 14  1  0
  1 15  1  0
  2 16  1  0
  2 17  1  0
  3 18  1  0
  3 19  1  0
  4 20  1  0
  4 21  1  0
  6 22  1  0
 10 23  1  0
 11 24  1  0
M  END
$$$$
