
     RDKit          3D

 26 27  0  0  0  0  0  0  0  0999 V2000
   -0.1563   -0.5931   -2.2456 O   0  0  0  0  0  0  0  0  0  0  0  0
   -0.4284    0.1137   -1.2820 C   0  0  0  0  0  0  0  0  0  0  0  0
    0.6565    0.9973   -0.7111 C   0  0  0  0  0  0  0  0  0  0  0  0
    0.4884    2.2112   -0.7300 O   0  0  0  0  0  0  0  0  0  0  0  0
    1.8728    0.3860   -0.1131 C   0  0  0  0  0  0  0  0  0  0  0  0
    2.8473    1.2381    0.4281 C   0  0  0  0  0  0  0  0  0  0  0  0
    4.0008    0.7115    1.0152 C   0  0  0  0  0  0  0  0  0  0  0  0
    4.1821   -0.6689    1.0622 C   0  0  0  0  0  0  0  0  0  0  0  0
    5.7409   -1.3846    1.8554 Br  0  0  0  0  0  0  0  0  0  0  0  0
    3.2218   -1.5261    0.5269 C   0  0  0  0  0  0  0  0  0  0  0  0
    2.0660   -1.0005   -0.0606 C   0  0  0  0  0  0  0  0  0  0  0  0
   -1.7749    0.0911   -0.6516 C   0  0  0  0  0  0  0  0  0  0  0  0
   -2.0921    0.8735    0.4662 C   0  0  0  0  0  0  0  0  0  0  0  0
   -3.3700    0.8043    1.0314 C   0  0  0  0  0  0  0  0  0  0  0  0
   -4.3288   -0.0458    0.4823 C   0  0  0  0  0  0  0  0  0  0  0  0
   -6.0530   -0.1360    1.2505 Br  0  0  0  0  0  0  0  0  0  0  0  0
   -4.0248   -0.8282   -0.6294 C   0  0  0  0  0  0  0  0  0  0  0  0
   -2.7490   -0.7596   -1.1956 C   0  0  0  0  0  0  0  0  0  0  0  0
    2.7150    2.3187    0.3935 H   0  0  0  0  0  0  0  0  0  0  0  0
    4.7477    1.3850    1.4283 H   0  0  0  0  0  0  0  0  0  0  0  0
    3.3645   -2.6039    0.5569 H   0  0  0  0  0  0  0  0  0  0  0  0
    1.3415   -1.6953   -0.4787 H   0  0  0  0  0  0  0  0  0  0  0  0
   -1.3704    1.5545    0.9113 H   0  0  0  0  0  0  0  0  0  0  0  0
   -3.6073    1.4207    1.8955 H   0  0  0  0  0  0  0  0  0  0  0  0
   -4.7694   -1.4907   -1.0638 H   0  0  0  0  0  0  0  0  0  0  0  0
   -2.5209   -1.3729   -2.0663 H   0  0  0  0  0  0  0  0  0  0  0  0
  1  2  2  0
  2  3  1  0
  3  4  2  0
  3  5  1  0
  5  6  2  0
  6  7  1  0
  7  8  2  0
  8  9  1  0
  8 10  1  0
 10 11  2  0
  2 12  1  0
 12 13  2  0
 13 14  1  0
 14 15  2  0
 15 16  1  0
 15 17  1  0
 17 18  2  0
 11  5  1  0
 18 12  1  0
  6 19  1  0
  7 20  1  0
 10 21  1  0
 11 22  1  0
 13 23  1  0
 14 24  1  0
 17 25  1  0
 18 26  1  0
M  END
$$$$
