
     RDKit          3D

 43 46  0  0  0  0  0  0  0  0999 V2000
   -5.9929   -2.2160   -0.4637 C   0  0  0  0  0  0  0  0  0  0  0  0
   -4.5811   -2.2941   -0.6065 O   0  0  0  0  0  0  0  0  0  0  0  0
   -3.8534   -1.1735   -0.2965 C   0  0  0  0  0  0  0  0  0  0  0  0
   -4.4056    0.0828   -0.0240 C   0  0  0  0  0  0  0  0  0  0  0  0
   -3.5772    1.1641    0.2831 C   0  0  0  0  0  0  0  0  0  0  0  0
   -2.1943    0.9808    0.3190 C   0  0  0  0  0  0  0  0  0  0  0  0
   -1.5971   -0.2603    0.0481 C   0  0  0  0  0  0  0  0  0  0  0  0
   -2.4512   -1.3284   -0.2764 C   0  0  0  0  0  0  0  0  0  0  0  0
   -1.9070   -2.5745   -0.5114 O   0  0  0  0  0  0  0  0  0  0  0  0
   -1.6529   -2.7319   -1.9059 C   0  0  0  0  0  0  0  0  0  0  0  0
   -0.1878   -0.4591    0.0889 N   0  0  0  0  0  0  0  0  0  0  0  0
    0.5757    0.5498    0.4026 C   0  0  0  0  0  0  0  0  0  0  0  0
    1.9037    0.1661    0.4033 N   0  0  0  0  0  0  0  0  0  0  0  0
    3.1118    0.8015    0.6660 C   0  0  0  0  0  0  0  0  0  0  0  0
    3.2514    1.9220    1.1374 O   0  0  0  0  0  0  0  0  0  0  0  0
    4.3264   -0.0066    0.3911 C   0  0  0  0  0  0  0  0  0  0  0  0
    4.3876   -0.9958   -0.5949 C   0  0  0  0  0  0  0  0  0  0  0  0
    5.5766   -1.7000   -0.7828 C   0  0  0  0  0  0  0  0  0  0  0  0
    6.6653   -1.3855    0.0155 C   0  0  0  0  0  0  0  0  0  0  0  0
    6.6437   -0.4262    0.9652 N   0  0  0  0  0  0  0  0  0  0  0  0
    5.4779    0.2483    1.1269 C   0  0  0  0  0  0  0  0  0  0  0  0
    0.0652    1.7941    0.6698 N   0  0  0  0  0  0  0  0  0  0  0  0
    0.7600    2.9974    1.0488 C   0  0  0  0  0  0  0  0  0  0  0  0
   -0.3854    4.0193    1.1549 C   0  0  0  0  0  0  0  0  0  0  0  0
   -1.6664    3.2985    0.9094 N   0  0  0  0  0  0  0  0  0  0  0  0
   -1.2774    2.0792    0.6450 C   0  0  0  0  0  0  0  0  0  0  0  0
   -6.2752   -1.9376    0.5571 H   0  0  0  0  0  0  0  0  0  0  0  0
   -6.4231   -1.5256   -1.1964 H   0  0  0  0  0  0  0  0  0  0  0  0
   -6.4044   -3.2102   -0.6631 H   0  0  0  0  0  0  0  0  0  0  0  0
   -5.4769    0.2550   -0.0430 H   0  0  0  0  0  0  0  0  0  0  0  0
   -4.0063    2.1401    0.4974 H   0  0  0  0  0  0  0  0  0  0  0  0
   -0.9337   -1.9891   -2.2681 H   0  0  0  0  0  0  0  0  0  0  0  0
   -2.5778   -2.6794   -2.4906 H   0  0  0  0  0  0  0  0  0  0  0  0
   -1.2161   -3.7238   -2.0560 H   0  0  0  0  0  0  0  0  0  0  0  0
    1.9430   -0.8186    0.1772 H   0  0  0  0  0  0  0  0  0  0  0  0
    3.5419   -1.2149   -1.2400 H   0  0  0  0  0  0  0  0  0  0  0  0
    5.6565   -2.4719   -1.5412 H   0  0  0  0  0  0  0  0  0  0  0  0
    7.6122   -1.9071   -0.0951 H   0  0  0  0  0  0  0  0  0  0  0  0
    5.5008    1.0183    1.8948 H   0  0  0  0  0  0  0  0  0  0  0  0
    1.2457    2.8938    2.0237 H   0  0  0  0  0  0  0  0  0  0  0  0
    1.4741    3.3225    0.2866 H   0  0  0  0  0  0  0  0  0  0  0  0
   -0.2693    4.8143    0.4103 H   0  0  0  0  0  0  0  0  0  0  0  0
   -0.4067    4.4824    2.1471 H   0  0  0  0  0  0  0  0  0  0  0  0
  1  2  1  0
  2  3  1  0
  3  4  2  0
  4  5  1  0
  5  6  2  0
  6  7  1  0
  7  8  2  0
  8  9  1  0
  9 10  1  0
  7 11  1  0
 11 12  2  0
 12 13  1  0
 13 14  1  0
 14 15  2  0
 14 16  1  0
 16 17  2  0
 17 18  1  0
 18 19  2  0
 19 20  1  0
 20 21  2  0
 12 22  1  0
 22 23  1  0
 23 24  1  0
 24 25  1  0
 25 26  2  0
  8  3  1  0
 21 16  1  0
 26 22  1  0
 26  6  1  0
  1 27  1  0
  1 28  1  0
  1 29  1  0
  4 30  1  0
  5 31  1  0
 10 32  1  0
 10 33  1  0
 10 34  1  0
 13 35  1  0
 17 36  1  0
 18 37  1  0
 19 38  1  0
 21 39  1  0
 23 40  1  0
 23 41  1  0
 24 42  1  0
 24 43  1  0
M  END
$$$$
