
     RDKit          3D

 34 36  0  0  0  0  0  0  0  0999 V2000
   -5.0585    2.2691    0.9045 C   0  0  0  0  0  0  0  0  0  0  0  0
   -4.3246    1.1218    0.2741 C   0  0  0  0  0  0  0  0  0  0  0  0
   -4.8422    0.4987   -0.8661 C   0  0  0  0  0  0  0  0  0  0  0  0
   -4.1483   -0.5483   -1.4675 C   0  0  0  0  0  0  0  0  0  0  0  0
   -2.9307   -0.9756   -0.9355 C   0  0  0  0  0  0  0  0  0  0  0  0
   -2.3879   -0.3549    0.1968 C   0  0  0  0  0  0  0  0  0  0  0  0
   -1.1550   -0.8520    0.6694 N   0  0  0  0  0  0  0  0  0  0  0  0
   -0.3834   -0.3579    1.7101 C   0  0  0  0  0  0  0  0  0  0  0  0
   -0.6357    0.6298    2.3960 O   0  0  0  0  0  0  0  0  0  0  0  0
    0.8414   -1.1968    2.0139 C   0  0  0  0  0  0  0  0  0  0  0  0
    1.7221   -1.2269    0.8340 C   0  0  0  0  0  0  0  0  0  0  0  0
    1.5958   -1.9330   -0.2691 N   0  0  0  0  0  0  0  0  0  0  0  0
    2.6748   -1.6014   -1.0594 N   0  0  0  0  0  0  0  0  0  0  0  0
    3.3911   -0.7186   -0.3867 C   0  0  0  0  0  0  0  0  0  0  0  0
    4.7087   -0.0754   -0.9171 C   0  0  0  0  0  0  0  0  0  0  0  0
    5.3048   -0.3544   -2.1800 C   0  0  0  0  0  0  0  0  0  0  0  0
    6.4650    0.3650   -2.3698 C   0  0  0  0  0  0  0  0  0  0  0  0
    6.8281    1.3673   -1.0292 S   0  0  0  0  0  0  0  0  0  0  0  0
    5.4297    0.8445   -0.1893 C   0  0  0  0  0  0  0  0  0  0  0  0
    2.8364   -0.4372    0.8401 O   0  0  0  0  0  0  0  0  0  0  0  0
   -3.0894    0.6970    0.7912 C   0  0  0  0  0  0  0  0  0  0  0  0
   -4.8657    3.1896    0.3436 H   0  0  0  0  0  0  0  0  0  0  0  0
   -6.1367    2.0761    0.9171 H   0  0  0  0  0  0  0  0  0  0  0  0
   -4.7418    2.4207    1.9426 H   0  0  0  0  0  0  0  0  0  0  0  0
   -5.7881    0.8277   -1.2902 H   0  0  0  0  0  0  0  0  0  0  0  0
   -4.5527   -1.0302   -2.3539 H   0  0  0  0  0  0  0  0  0  0  0  0
   -2.4100   -1.7943   -1.4263 H   0  0  0  0  0  0  0  0  0  0  0  0
   -0.7635   -1.6209    0.1319 H   0  0  0  0  0  0  0  0  0  0  0  0
    0.5195   -2.2072    2.2869 H   0  0  0  0  0  0  0  0  0  0  0  0
    1.3620   -0.7720    2.8799 H   0  0  0  0  0  0  0  0  0  0  0  0
    4.9037   -1.0466   -2.9112 H   0  0  0  0  0  0  0  0  0  0  0  0
    7.1201    0.3521   -3.2306 H   0  0  0  0  0  0  0  0  0  0  0  0
    5.2102    1.2391    0.7938 H   0  0  0  0  0  0  0  0  0  0  0  0
   -2.6991    1.2052    1.6679 H   0  0  0  0  0  0  0  0  0  0  0  0
  1  2  1  0
  2  3  2  0
  3  4  1  0
  4  5  2  0
  5  6  1  0
  6  7  1  0
  7  8  1  0
  8  9  2  0
  8 10  1  0
 10 11  1  0
 11 12  2  0
 12 13  1  0
 13 14  2  0
 14 15  1  0
 15 16  1  0
 16 17  2  0
 17 18  1  0
 18 19  1  0
 14 20  1  0
  6 21  2  0
 21  2  1  0
 20 11  1  0
 19 15  2  0
  1 22  1  0
  1 23  1  0
  1 24  1  0
  3 25  1  0
  4 26  1  0
  5 27  1  0
  7 28  1  0
 10 29  1  0
 10 30  1  0
 16 31  1  0
 17 32  1  0
 19 33  1  0
 21 34  1  0
M  END
$$$$
