
     RDKit          3D

 70 74  0  0  0  0  0  0  0  0999 V2000
   -5.4631    1.4745    5.4951 C   0  0  0  0  0  0  0  0  0  0  0  0
   -4.3429    1.2467    4.5193 C   0  0  0  0  0  0  0  0  0  0  0  0
   -3.1447    0.9399    5.0818 N   0  0  0  0  0  0  0  0  0  0  0  0
   -2.0997    0.6986    4.2524 C   0  0  0  0  0  0  0  0  0  0  0  0
   -2.1848    0.7516    2.8703 C   0  0  0  0  0  0  0  0  0  0  0  0
   -1.1228    0.4994    1.9709 N   0  0  0  0  0  0  0  0  0  0  0  0
    0.1913    0.2318    2.3070 C   0  0  0  0  0  0  0  0  0  0  0  0
    0.6541    0.2239    3.4426 O   0  0  0  0  0  0  0  0  0  0  0  0
    1.1170   -0.0210    1.1613 C   0  0  0  0  0  0  0  0  0  0  0  0
    2.4652    0.3005    1.3240 C   0  0  0  0  0  0  0  0  0  0  0  0
    3.3810    0.0786    0.2912 C   0  0  0  0  0  0  0  0  0  0  0  0
    2.9849   -0.4823   -0.9335 C   0  0  0  0  0  0  0  0  0  0  0  0
    3.9621   -0.7020   -2.0869 C   0  0  0  0  0  0  0  0  0  0  0  0
    5.3871   -0.7899   -1.8170 N   0  0  0  0  0  0  0  0  0  0  0  0
    5.8491   -1.8869   -0.9711 C   0  0  0  0  0  0  0  0  0  0  0  0
    7.1490   -1.5646   -0.1948 C   0  0  0  0  0  0  0  0  0  0  0  0
    8.2118   -0.9072   -0.9755 N   0  0  0  0  0  0  0  0  0  0  0  0
    8.9784   -1.8819   -1.7523 C   0  0  0  0  0  0  0  0  0  0  0  0
    7.6724    0.1543   -1.8569 C   0  0  0  0  0  0  0  0  0  0  0  0
    6.1563    0.4428   -1.7256 C   0  0  0  0  0  0  0  0  0  0  0  0
    1.6106   -0.8076   -1.1041 C   0  0  0  0  0  0  0  0  0  0  0  0
    1.0939   -1.4188   -2.3942 C   0  0  0  0  0  0  0  0  0  0  0  0
   -0.2644   -1.4553   -2.4698 F   0  0  0  0  0  0  0  0  0  0  0  0
    1.4986   -0.7361   -3.5015 F   0  0  0  0  0  0  0  0  0  0  0  0
    1.5118   -2.7021   -2.5663 F   0  0  0  0  0  0  0  0  0  0  0  0
    0.6968   -0.5883   -0.0462 C   0  0  0  0  0  0  0  0  0  0  0  0
   -3.4315    1.0734    2.3237 C   0  0  0  0  0  0  0  0  0  0  0  0
   -4.5479    1.3400    3.1306 C   0  0  0  0  0  0  0  0  0  0  0  0
   -5.8181    1.6099    2.5992 N   0  0  0  0  0  0  0  0  0  0  0  0
   -6.3498    1.5234    1.3163 C   0  0  0  0  0  0  0  0  0  0  0  0
   -7.5850    2.0172    1.1632 N   0  0  0  0  0  0  0  0  0  0  0  0
   -8.1301    1.9296   -0.0634 C   0  0  0  0  0  0  0  0  0  0  0  0
   -7.4919    1.3692   -1.1431 C   0  0  0  0  0  0  0  0  0  0  0  0
   -6.2261    0.8792   -0.9072 C   0  0  0  0  0  0  0  0  0  0  0  0
   -5.3839    0.2482   -1.9363 C   0  0  0  0  0  0  0  0  0  0  0  0
   -5.4546    0.5689   -3.2998 C   0  0  0  0  0  0  0  0  0  0  0  0
   -4.6037   -0.0492   -4.2186 C   0  0  0  0  0  0  0  0  0  0  0  0
   -3.6915   -0.9795   -3.7517 C   0  0  0  0  0  0  0  0  0  0  0  0
   -3.5821   -1.3255   -2.4545 N   0  0  0  0  0  0  0  0  0  0  0  0
   -4.4257   -0.7095   -1.5889 C   0  0  0  0  0  0  0  0  0  0  0  0
   -5.6637    0.9532    0.3180 N   0  0  0  0  0  0  0  0  0  0  0  0
   -5.8541    2.4921    5.3954 H   0  0  0  0  0  0  0  0  0  0  0  0
   -5.1141    1.3509    6.5264 H   0  0  0  0  0  0  0  0  0  0  0  0
   -6.2695    0.7535    5.3257 H   0  0  0  0  0  0  0  0  0  0  0  0
   -1.1813    0.4517    4.7732 H   0  0  0  0  0  0  0  0  0  0  0  0
   -1.3511    0.5957    0.9909 H   0  0  0  0  0  0  0  0  0  0  0  0
    2.8160    0.7278    2.2627 H   0  0  0  0  0  0  0  0  0  0  0  0
    4.4166    0.3415    0.4808 H   0  0  0  0  0  0  0  0  0  0  0  0
    3.7824    0.0883   -2.8272 H   0  0  0  0  0  0  0  0  0  0  0  0
    3.6979   -1.6430   -2.5833 H   0  0  0  0  0  0  0  0  0  0  0  0
    5.0907   -2.1838   -0.2376 H   0  0  0  0  0  0  0  0  0  0  0  0
    6.0229   -2.7603   -1.6111 H   0  0  0  0  0  0  0  0  0  0  0  0
    6.8935   -0.8906    0.6347 H   0  0  0  0  0  0  0  0  0  0  0  0
    7.5262   -2.4763    0.2859 H   0  0  0  0  0  0  0  0  0  0  0  0
    9.4281   -2.6340   -1.0944 H   0  0  0  0  0  0  0  0  0  0  0  0
    8.3633   -2.3992   -2.4985 H   0  0  0  0  0  0  0  0  0  0  0  0
    9.8081   -1.3884   -2.2714 H   0  0  0  0  0  0  0  0  0  0  0  0
    8.2222    1.0794   -1.6423 H   0  0  0  0  0  0  0  0  0  0  0  0
    7.8706   -0.0781   -2.9137 H   0  0  0  0  0  0  0  0  0  0  0  0
    5.9757    0.9693   -0.7839 H   0  0  0  0  0  0  0  0  0  0  0  0
    5.8746    1.1301   -2.5323 H   0  0  0  0  0  0  0  0  0  0  0  0
   -0.3401   -0.8947   -0.1778 H   0  0  0  0  0  0  0  0  0  0  0  0
   -3.5219    1.1339    1.2452 H   0  0  0  0  0  0  0  0  0  0  0  0
   -6.5013    2.0340    3.2089 H   0  0  0  0  0  0  0  0  0  0  0  0
   -9.1334    2.3362   -0.1547 H   0  0  0  0  0  0  0  0  0  0  0  0
   -7.9777    1.3112   -2.1068 H   0  0  0  0  0  0  0  0  0  0  0  0
   -6.1528    1.3176   -3.6644 H   0  0  0  0  0  0  0  0  0  0  0  0
   -4.6463    0.1973   -5.2742 H   0  0  0  0  0  0  0  0  0  0  0  0
   -3.0040   -1.4824   -4.4259 H   0  0  0  0  0  0  0  0  0  0  0  0
   -4.3050   -1.0268   -0.5548 H   0  0  0  0  0  0  0  0  0  0  0  0
  1  2  1  0
  2  3  2  0
  3  4  1  0
  4  5  2  0
  5  6  1  0
  6  7  1  0
  7  8  2  0
  7  9  1  0
  9 10  2  0
 10 11  1  0
 11 12  2  0
 12 13  1  0
 13 14  1  0
 14 15  1  0
 15 16  1  0
 16 17  1  0
 17 18  1  0
 17 19  1  0
 19 20  1  0
 12 21  1  0
 21 22  1  0
 22 23  1  0
 22 24  1  0
 22 25  1  0
 21 26  2  0
  5 27  1  0
 27 28  2  0
 28 29  1  0
 29 30  1  0
 30 31  2  0
 31 32  1  0
 32 33  2  0
 33 34  1  0
 34 35  1  0
 35 36  2  0
 36 37  1  0
 37 38  2  0
 38 39  1  0
 39 40  2  0
 34 41  2  0
 28  2  1  0
 41 30  1  0
 26  9  1  0
 40 35  1  0
 20 14  1  0
  1 42  1  0
  1 43  1  0
  1 44  1  0
  4 45  1  0
  6 46  1  0
 10 47  1  0
 11 48  1  0
 13 49  1  0
 13 50  1  0
 15 51  1  0
 15 52  1  0
 16 53  1  0
 16 54  1  0
 18 55  1  0
 18 56  1  0
 18 57  1  0
 19 58  1  0
 19 59  1  0
 20 60  1  0
 20 61  1  0
 26 62  1  0
 27 63  1  0
 29 64  1  0
 32 65  1  0
 33 66  1  0
 36 67  1  0
 37 68  1  0
 38 69  1  0
 40 70  1  0
M  END
$$$$
