
     RDKit          3D

 56 59  0  0  0  0  0  0  0  0999 V2000
   -7.1400    3.3707   -0.3957 C   0  0  0  0  0  0  0  0  0  0  0  0
   -6.1946    2.3895    0.2081 C   0  0  0  0  0  0  0  0  0  0  0  0
   -5.6152    2.4155    1.4599 C   0  0  0  0  0  0  0  0  0  0  0  0
   -4.7733    1.2878    1.6869 C   0  0  0  0  0  0  0  0  0  0  0  0
   -4.7209    0.4454    0.5941 C   0  0  0  0  0  0  0  0  0  0  0  0
   -3.9915   -0.7985    0.4204 C   0  0  0  0  0  0  0  0  0  0  0  0
   -4.5584   -1.8606    0.1650 O   0  0  0  0  0  0  0  0  0  0  0  0
   -2.6072   -0.7423    0.5460 N   0  0  0  0  0  0  0  0  0  0  0  0
   -1.7913    0.4528    0.6567 C   0  0  0  0  0  0  0  0  0  0  0  0
   -0.3483   -0.0593    0.7345 C   0  0  0  0  0  0  0  0  0  0  0  0
    0.6207    1.0312    0.2765 C   0  0  0  0  0  0  0  0  0  0  0  0
    2.0081    0.6465    0.4269 N   0  0  0  0  0  0  0  0  0  0  0  0
    2.9829    1.3193   -0.2672 C   0  0  0  0  0  0  0  0  0  0  0  0
    2.7301    2.1998   -1.0832 O   0  0  0  0  0  0  0  0  0  0  0  0
    4.2622    0.9128    0.0174 N   0  0  0  0  0  0  0  0  0  0  0  0
    5.3987    1.5390   -0.6348 C   0  0  0  0  0  0  0  0  0  0  0  0
    6.6099    0.9550    0.0764 C   0  0  0  0  0  0  0  0  0  0  0  0
    6.1391   -0.4468    0.4425 C   0  0  0  0  0  0  0  0  0  0  0  0
    4.6782   -0.2315    0.8142 C   0  0  0  0  0  0  0  0  0  0  0  0
   -0.3933   -1.3865   -0.0826 C   0  0  0  0  0  0  0  0  0  0  0  0
   -0.3181   -1.1726   -1.6101 C   0  0  0  0  0  0  0  0  0  0  0  0
   -0.4113   -2.4899   -2.3863 C   0  0  0  0  0  0  0  0  0  0  0  0
   -0.0164   -3.6207   -1.6074 O   0  0  0  0  0  0  0  0  0  0  0  0
    1.1065   -3.3423   -0.7837 C   0  0  0  0  0  0  0  0  0  0  0  0
    0.7136   -2.3819    0.3379 C   0  0  0  0  0  0  0  0  0  0  0  0
   -1.7927   -1.9245    0.3156 C   0  0  0  0  0  0  0  0  0  0  0  0
   -5.7267    0.9994   -0.6736 S   0  0  0  0  0  0  0  0  0  0  0  0
   -6.8983    3.5654   -1.4461 H   0  0  0  0  0  0  0  0  0  0  0  0
   -8.1671    2.9939   -0.3378 H   0  0  0  0  0  0  0  0  0  0  0  0
   -7.0997    4.3268    0.1376 H   0  0  0  0  0  0  0  0  0  0  0  0
   -5.7960    3.1998    2.1853 H   0  0  0  0  0  0  0  0  0  0  0  0
   -4.2409    1.0994    2.6111 H   0  0  0  0  0  0  0  0  0  0  0  0
   -2.0548    1.0211    1.5525 H   0  0  0  0  0  0  0  0  0  0  0  0
   -1.9724    1.0758   -0.2266 H   0  0  0  0  0  0  0  0  0  0  0  0
   -0.1299   -0.3112    1.7830 H   0  0  0  0  0  0  0  0  0  0  0  0
    0.4300    1.3244   -0.7617 H   0  0  0  0  0  0  0  0  0  0  0  0
    0.4800    1.9327    0.8855 H   0  0  0  0  0  0  0  0  0  0  0  0
    2.2970    0.3708    1.3528 H   0  0  0  0  0  0  0  0  0  0  0  0
    5.3811    1.2558   -1.6936 H   0  0  0  0  0  0  0  0  0  0  0  0
    5.3423    2.6291   -0.5568 H   0  0  0  0  0  0  0  0  0  0  0  0
    7.5077    0.9568   -0.5475 H   0  0  0  0  0  0  0  0  0  0  0  0
    6.8221    1.5246    0.9894 H   0  0  0  0  0  0  0  0  0  0  0  0
    6.7186   -0.8967    1.2532 H   0  0  0  0  0  0  0  0  0  0  0  0
    6.2098   -1.1013   -0.4348 H   0  0  0  0  0  0  0  0  0  0  0  0
    4.5718    0.0389    1.8704 H   0  0  0  0  0  0  0  0  0  0  0  0
    4.0589   -1.1077    0.6022 H   0  0  0  0  0  0  0  0  0  0  0  0
   -1.0842   -0.4789   -1.9752 H   0  0  0  0  0  0  0  0  0  0  0  0
    0.6468   -0.7130   -1.8602 H   0  0  0  0  0  0  0  0  0  0  0  0
   -1.4424   -2.6667   -2.7106 H   0  0  0  0  0  0  0  0  0  0  0  0
    0.2059   -2.4468   -3.2907 H   0  0  0  0  0  0  0  0  0  0  0  0
    1.4678   -4.2845   -0.3592 H   0  0  0  0  0  0  0  0  0  0  0  0
    1.9189   -2.9303   -1.3946 H   0  0  0  0  0  0  0  0  0  0  0  0
    1.6194   -1.8723    0.6776 H   0  0  0  0  0  0  0  0  0  0  0  0
    0.3764   -2.9684    1.2017 H   0  0  0  0  0  0  0  0  0  0  0  0
   -2.2524   -2.5788   -0.4301 H   0  0  0  0  0  0  0  0  0  0  0  0
   -1.7671   -2.4660    1.2687 H   0  0  0  0  0  0  0  0  0  0  0  0
  1  2  1  0
  2  3  2  0
  3  4  1  0
  4  5  2  0
  5  6  1  0
  6  7  2  0
  6  8  1  0
  8  9  1  0
  9 10  1  0
 10 11  1  0
 11 12  1  0
 12 13  1  0
 13 14  2  0
 13 15  1  0
 15 16  1  0
 16 17  1  0
 17 18  1  0
 18 19  1  0
 10 20  1  0
 20 21  1  0
 21 22  1  0
 22 23  1  0
 23 24  1  0
 24 25  1  0
 20 26  1  0
  5 27  1  0
 27  2  1  0
 26  8  1  0
 19 15  1  0
 25 20  1  0
  1 28  1  0
  1 29  1  0
  1 30  1  0
  3 31  1  0
  4 32  1  0
  9 33  1  0
  9 34  1  0
 10 35  1  0
 11 36  1  0
 11 37  1  0
 12 38  1  0
 16 39  1  0
 16 40  1  0
 17 41  1  0
 17 42  1  0
 18 43  1  0
 18 44  1  0
 19 45  1  0
 19 46  1  0
 21 47  1  0
 21 48  1  0
 22 49  1  0
 22 50  1  0
 24 51  1  0
 24 52  1  0
 25 53  1  0
 25 54  1  0
 26 55  1  0
 26 56  1  0
M  END
$$$$
