
     RDKit          3D

 38 42  0  0  0  0  0  0  0  0999 V2000
    4.8927    0.8360   -1.2276 N   0  0  0  0  0  0  0  0  0  0  0  0
    4.2699    1.1309   -0.0776 C   0  0  0  0  0  0  0  0  0  0  0  0
    4.8487    1.8295    0.8986 N   0  0  0  0  0  0  0  0  0  0  0  0
    3.8919    1.9015    1.8469 N   0  0  0  0  0  0  0  0  0  0  0  0
    2.7411    1.2620    1.5056 C   0  0  0  0  0  0  0  0  0  0  0  0
    1.6226    1.1582    2.2386 N   0  0  0  0  0  0  0  0  0  0  0  0
    0.6202    0.4852    1.6820 N   0  0  0  0  0  0  0  0  0  0  0  0
    0.7421   -0.0616    0.4421 C   0  0  0  0  0  0  0  0  0  0  0  0
   -0.4293   -0.7514   -0.0557 C   0  0  0  0  0  0  0  0  0  0  0  0
   -1.7678   -0.2921   -0.2352 C   0  0  0  0  0  0  0  0  0  0  0  0
   -2.3281    1.0447   -0.0062 C   0  0  0  0  0  0  0  0  0  0  0  0
   -1.6046    2.2058   -0.3111 C   0  0  0  0  0  0  0  0  0  0  0  0
   -2.1597    3.4692   -0.0861 C   0  0  0  0  0  0  0  0  0  0  0  0
   -3.4454    3.5857    0.4384 C   0  0  0  0  0  0  0  0  0  0  0  0
   -4.1804    2.4404    0.7352 C   0  0  0  0  0  0  0  0  0  0  0  0
   -3.6258    1.1778    0.5114 C   0  0  0  0  0  0  0  0  0  0  0  0
   -2.5568   -1.2788   -0.6907 N   0  0  0  0  0  0  0  0  0  0  0  0
   -1.7655   -2.3687   -0.7942 N   0  0  0  0  0  0  0  0  0  0  0  0
   -2.1523   -3.6385   -1.2296 C   0  0  0  0  0  0  0  0  0  0  0  0
   -1.2602   -4.6405   -1.2735 C   0  0  0  0  0  0  0  0  0  0  0  0
    0.1029   -4.3795   -0.8486 C   0  0  0  0  0  0  0  0  0  0  0  0
    0.4892   -3.1594   -0.4298 C   0  0  0  0  0  0  0  0  0  0  0  0
   -0.4556   -2.0876   -0.4052 C   0  0  0  0  0  0  0  0  0  0  0  0
    1.8922    0.0338   -0.3383 C   0  0  0  0  0  0  0  0  0  0  0  0
    2.9472    0.7392    0.2442 C   0  0  0  0  0  0  0  0  0  0  0  0
    4.6068    0.0391   -1.7822 H   0  0  0  0  0  0  0  0  0  0  0  0
    5.8952    0.9966   -1.2418 H   0  0  0  0  0  0  0  0  0  0  0  0
    4.0840    2.4007    2.7065 H   0  0  0  0  0  0  0  0  0  0  0  0
   -0.6070    2.1487   -0.7360 H   0  0  0  0  0  0  0  0  0  0  0  0
   -1.5870    4.3621   -0.3228 H   0  0  0  0  0  0  0  0  0  0  0  0
   -3.8753    4.5683    0.6131 H   0  0  0  0  0  0  0  0  0  0  0  0
   -5.1850    2.5259    1.1403 H   0  0  0  0  0  0  0  0  0  0  0  0
   -4.2117    0.2911    0.7458 H   0  0  0  0  0  0  0  0  0  0  0  0
   -3.1898   -3.7454   -1.5165 H   0  0  0  0  0  0  0  0  0  0  0  0
   -1.5321   -5.6365   -1.6049 H   0  0  0  0  0  0  0  0  0  0  0  0
    0.8048   -5.2084   -0.8660 H   0  0  0  0  0  0  0  0  0  0  0  0
    1.5092   -2.9921   -0.0981 H   0  0  0  0  0  0  0  0  0  0  0  0
    1.9591   -0.3921   -1.3306 H   0  0  0  0  0  0  0  0  0  0  0  0
  1  2  1  0
  2  3  2  0
  3  4  1  0
  4  5  1  0
  5  6  2  0
  6  7  1  0
  7  8  2  0
  8  9  1  0
  9 10  1  0
 10 11  1  0
 11 12  2  0
 12 13  1  0
 13 14  2  0
 14 15  1  0
 15 16  2  0
 10 17  2  0
 17 18  1  0
 18 19  1  0
 19 20  2  0
 20 21  1  0
 21 22  2  0
 22 23  1  0
  8 24  1  0
 24 25  2  0
 25  2  1  0
 25  5  1  0
 23  9  2  0
 16 11  1  0
 23 18  1  0
  1 26  1  0
  1 27  1  0
  4 28  1  0
 12 29  1  0
 13 30  1  0
 14 31  1  0
 15 32  1  0
 16 33  1  0
 19 34  1  0
 20 35  1  0
 21 36  1  0
 22 37  1  0
 24 38  1  0
M  END
$$$$
