
     RDKit          3D

 43 44  0  0  0  0  0  0  0  0999 V2000
   -1.8036    3.8964    3.4818 C   0  0  0  0  0  0  0  0  0  0  0  0
   -0.6142    4.0405    2.5513 C   0  0  0  0  0  0  0  0  0  0  0  0
   -0.7354    3.1260    1.4521 O   0  0  0  0  0  0  0  0  0  0  0  0
   -0.2243    1.8795    1.6578 C   0  0  0  0  0  0  0  0  0  0  0  0
    0.2642    1.4773    2.7085 O   0  0  0  0  0  0  0  0  0  0  0  0
   -0.4146    1.0121    0.4130 C   0  0  2  0  0  0  0  0  0  0  0  0
   -1.8062    0.3709    0.4882 C   0  0  0  0  0  0  0  0  0  0  0  0
   -2.1611   -0.4312   -0.7448 C   0  0  0  0  0  0  0  0  0  0  0  0
   -2.1787   -1.8332   -0.6985 C   0  0  0  0  0  0  0  0  0  0  0  0
   -2.4928   -2.5770   -1.8384 C   0  0  0  0  0  0  0  0  0  0  0  0
   -2.7917   -1.9136   -3.0348 C   0  0  0  0  0  0  0  0  0  0  0  0
   -3.1227   -2.6918   -4.2346 N   0  0  0  0  0  4  0  0  0  0  0  0
   -3.0802   -3.9279   -4.1500 O   0  0  0  0  0  0  0  0  0  0  0  0
   -3.4289   -2.0686   -5.2613 O   0  0  0  0  0  1  0  0  0  0  0  0
   -2.7791   -0.5152   -3.0954 C   0  0  0  0  0  0  0  0  0  0  0  0
   -2.4642    0.2202   -1.9503 C   0  0  0  0  0  0  0  0  0  0  0  0
    0.6508    0.0030    0.3865 N   0  0  0  0  0  0  0  0  0  0  0  0
    1.8485    0.2856   -0.2392 C   0  0  0  0  0  0  0  0  0  0  0  0
    2.0397    1.3057   -0.8906 O   0  0  0  0  0  0  0  0  0  0  0  0
    2.9413   -0.7073   -0.0475 C   0  0  0  0  0  0  0  0  0  0  0  0
    4.2673   -0.2695   -0.1503 C   0  0  0  0  0  0  0  0  0  0  0  0
    5.3189   -1.1711    0.0216 C   0  0  0  0  0  0  0  0  0  0  0  0
    5.0497   -2.5134    0.2870 C   0  0  0  0  0  0  0  0  0  0  0  0
    3.7305   -2.9589    0.3741 C   0  0  0  0  0  0  0  0  0  0  0  0
    2.6750   -2.0599    0.2040 C   0  0  0  0  0  0  0  0  0  0  0  0
   -1.7522    4.6276    4.2934 H   0  0  0  0  0  0  0  0  0  0  0  0
   -2.7403    4.0419    2.9336 H   0  0  0  0  0  0  0  0  0  0  0  0
   -1.8427    2.8929    3.9172 H   0  0  0  0  0  0  0  0  0  0  0  0
   -0.5979    5.0500    2.1276 H   0  0  0  0  0  0  0  0  0  0  0  0
    0.3327    3.8997    3.0850 H   0  0  0  0  0  0  0  0  0  0  0  0
   -0.3187    1.6488   -0.4742 H   0  0  0  0  0  0  0  0  0  0  0  0
   -2.5738    1.1443    0.6259 H   0  0  0  0  0  0  0  0  0  0  0  0
   -1.8774   -0.2703    1.3774 H   0  0  0  0  0  0  0  0  0  0  0  0
   -1.9450   -2.3574    0.2262 H   0  0  0  0  0  0  0  0  0  0  0  0
   -2.4992   -3.6633   -1.7777 H   0  0  0  0  0  0  0  0  0  0  0  0
   -3.0063    0.0137   -4.0189 H   0  0  0  0  0  0  0  0  0  0  0  0
   -2.4523    1.3076   -2.0079 H   0  0  0  0  0  0  0  0  0  0  0  0
    0.7031   -0.6056    1.1951 H   0  0  0  0  0  0  0  0  0  0  0  0
    4.4831    0.7758   -0.3624 H   0  0  0  0  0  0  0  0  0  0  0  0
    6.3470   -0.8261   -0.0555 H   0  0  0  0  0  0  0  0  0  0  0  0
    5.8701   -3.2153    0.4168 H   0  0  0  0  0  0  0  0  0  0  0  0
    3.5257   -4.0095    0.5650 H   0  0  0  0  0  0  0  0  0  0  0  0
    1.6559   -2.4333    0.2431 H   0  0  0  0  0  0  0  0  0  0  0  0
  1  2  1  0
  2  3  1  0
  3  4  1  0
  4  5  2  0
  4  6  1  0
  6  7  1  0
  7  8  1  0
  8  9  2  0
  9 10  1  0
 10 11  2  0
 11 12  1  0
 12 13  2  0
 12 14  1  0
 11 15  1  0
 15 16  2  0
  6 17  1  0
 17 18  1  0
 18 19  2  0
 18 20  1  0
 20 21  2  0
 21 22  1  0
 22 23  2  0
 23 24  1  0
 24 25  2  0
 16  8  1  0
 25 20  1  0
  1 26  1  0
  1 27  1  0
  1 28  1  0
  2 29  1  0
  2 30  1  0
  6 31  1  6
  7 32  1  0
  7 33  1  0
  9 34  1  0
 10 35  1  0
 15 36  1  0
 16 37  1  0
 17 38  1  0
 21 39  1  0
 22 40  1  0
 23 41  1  0
 24 42  1  0
 25 43  1  0
M  CHG  2  12   1  14  -1
M  END
$$$$
