
     RDKit          3D

 21 20  0  0  0  0  0  0  0  0999 V2000
   -3.3917   -0.2168    0.2346 N   0  0  0  0  0  0  0  0  0  0  0  0
   -1.9690   -0.4792    0.0493 C   0  0  0  0  0  0  0  0  0  0  0  0
   -1.1394    0.6042    0.7379 C   0  0  0  0  0  0  0  0  0  0  0  0
    0.3709    0.3565    0.6518 C   0  0  0  0  0  0  0  0  0  0  0  0
    0.9170    0.4371   -0.7775 C   0  0  0  0  0  0  0  0  0  0  0  0
    2.4468    0.4091   -0.8441 C   0  0  0  0  0  0  0  0  0  0  0  0
    3.0156   -0.8480   -0.3728 N   0  0  0  0  0  0  0  0  0  0  0  0
   -3.6173   -0.2238    1.2286 H   0  0  0  0  0  0  0  0  0  0  0  0
   -3.9331   -0.9710   -0.1859 H   0  0  0  0  0  0  0  0  0  0  0  0
   -1.7583   -0.5028   -1.0240 H   0  0  0  0  0  0  0  0  0  0  0  0
   -1.7244   -1.4640    0.4618 H   0  0  0  0  0  0  0  0  0  0  0  0
   -1.4145    0.6521    1.7996 H   0  0  0  0  0  0  0  0  0  0  0  0
   -1.3738    1.5862    0.3078 H   0  0  0  0  0  0  0  0  0  0  0  0
    0.6000   -0.6215    1.0908 H   0  0  0  0  0  0  0  0  0  0  0  0
    0.8753    1.1090    1.2705 H   0  0  0  0  0  0  0  0  0  0  0  0
    0.5723    1.3691   -1.2423 H   0  0  0  0  0  0  0  0  0  0  0  0
    0.5146   -0.3846   -1.3816 H   0  0  0  0  0  0  0  0  0  0  0  0
    2.7610    0.5622   -1.8824 H   0  0  0  0  0  0  0  0  0  0  0  0
    2.8660    1.2354   -0.2597 H   0  0  0  0  0  0  0  0  0  0  0  0
    2.5859   -1.6274   -0.8691 H   0  0  0  0  0  0  0  0  0  0  0  0
    2.7963   -0.9817    0.6129 H   0  0  0  0  0  0  0  0  0  0  0  0
  1  2  1  0
  2  3  1  0
  3  4  1  0
  4  5  1  0
  5  6  1  0
  6  7  1  0
  1  8  1  0
  1  9  1  0
  2 10  1  0
  2 11  1  0
  3 12  1  0
  3 13  1  0
  4 14  1  0
  4 15  1  0
  5 16  1  0
  5 17  1  0
  6 18  1  0
  6 19  1  0
  7 20  1  0
  7 21  1  0
M  END
$$$$
