
     RDKit          3D

 60 62  0  0  0  0  0  0  0  0999 V2000
    7.8659   -1.6068    3.4596 C   0  0  0  0  0  0  0  0  0  0  0  0
    7.8543   -2.1118    2.1051 N   0  0  0  0  0  0  0  0  0  0  0  0
    6.7778   -1.6842    1.3400 C   0  0  0  0  0  0  0  0  0  0  0  0
    6.3463   -2.5589    0.4264 N   0  0  0  0  0  0  0  0  0  0  0  0
    5.3169   -2.1649   -0.3379 C   0  0  0  0  0  0  0  0  0  0  0  0
    4.7054   -0.9333   -0.2116 C   0  0  0  0  0  0  0  0  0  0  0  0
    3.6304   -0.5053   -1.0083 C   0  0  0  0  0  0  0  0  0  0  0  0
    3.0752    0.7583   -0.8034 C   0  0  0  0  0  0  0  0  0  0  0  0
    1.9549    1.2144   -1.6389 C   0  0  0  0  0  0  0  0  0  0  0  0
    0.6360    0.9262   -1.2239 C   0  0  0  0  0  0  0  0  0  0  0  0
   -0.4653    1.3280   -1.9808 C   0  0  0  0  0  0  0  0  0  0  0  0
   -1.8074    1.0793   -1.6256 N   0  0  0  0  0  0  0  0  0  0  0  0
   -2.2732    0.2685   -0.6172 C   0  0  0  0  0  0  0  0  0  0  0  0
   -1.6008   -0.4438    0.1153 O   0  0  0  0  0  0  0  0  0  0  0  0
   -3.6515    0.3421   -0.5345 N   0  0  0  0  0  0  0  0  0  0  0  0
   -4.3409   -0.3899    0.5139 C   0  0  0  0  0  0  0  0  0  0  0  0
   -5.8497   -0.4010    0.2666 C   0  0  0  0  0  0  0  0  0  0  0  0
   -6.6991   -1.1497    1.3267 C   0  0  0  0  0  0  0  0  0  0  0  0
   -6.5430   -0.5090    2.7157 C   0  0  0  0  0  0  0  0  0  0  0  0
   -6.3063   -2.6342    1.4067 C   0  0  0  0  0  0  0  0  0  0  0  0
   -8.1798   -1.0576    0.9090 C   0  0  0  0  0  0  0  0  0  0  0  0
   -0.2370    2.0377   -3.1615 C   0  0  0  0  0  0  0  0  0  0  0  0
   -1.2811    2.4449   -3.9016 F   0  0  0  0  0  0  0  0  0  0  0  0
    1.0506    2.3316   -3.5983 C   0  0  0  0  0  0  0  0  0  0  0  0
    2.1608    1.9205   -2.8473 C   0  0  0  0  0  0  0  0  0  0  0  0
    3.5438    2.2422   -3.3503 C   0  0  0  0  0  0  0  0  0  0  0  0
    3.6357    1.5272    0.2219 C   0  0  0  0  0  0  0  0  0  0  0  0
    3.1066    2.8930    0.5608 C   0  0  0  0  0  0  0  0  0  0  0  0
    4.6826    1.1020    0.9821 N   0  0  0  0  0  0  0  0  0  0  0  0
    5.2182   -0.1034    0.7768 C   0  0  0  0  0  0  0  0  0  0  0  0
    6.2388   -0.4779    1.5382 N   0  0  0  0  0  0  0  0  0  0  0  0
    8.0105   -0.5212    3.4856 H   0  0  0  0  0  0  0  0  0  0  0  0
    8.7021   -2.0584    4.0029 H   0  0  0  0  0  0  0  0  0  0  0  0
    6.9450   -1.8643    3.9946 H   0  0  0  0  0  0  0  0  0  0  0  0
    7.8837   -3.1210    2.0129 H   0  0  0  0  0  0  0  0  0  0  0  0
    4.9906   -2.8918   -1.0757 H   0  0  0  0  0  0  0  0  0  0  0  0
    3.2293   -1.1554   -1.7830 H   0  0  0  0  0  0  0  0  0  0  0  0
    0.4964    0.3853   -0.2905 H   0  0  0  0  0  0  0  0  0  0  0  0
   -2.5003    1.4025   -2.2886 H   0  0  0  0  0  0  0  0  0  0  0  0
   -4.0228    1.2564   -0.7478 H   0  0  0  0  0  0  0  0  0  0  0  0
   -4.0941    0.0995    1.4615 H   0  0  0  0  0  0  0  0  0  0  0  0
   -3.9380   -1.4073    0.5404 H   0  0  0  0  0  0  0  0  0  0  0  0
   -6.0363   -0.8431   -0.7221 H   0  0  0  0  0  0  0  0  0  0  0  0
   -6.1997    0.6384    0.1958 H   0  0  0  0  0  0  0  0  0  0  0  0
   -7.2202   -0.9733    3.4418 H   0  0  0  0  0  0  0  0  0  0  0  0
   -5.5259   -0.6242    3.1042 H   0  0  0  0  0  0  0  0  0  0  0  0
   -6.7732    0.5618    2.6847 H   0  0  0  0  0  0  0  0  0  0  0  0
   -5.2894   -2.7653    1.7907 H   0  0  0  0  0  0  0  0  0  0  0  0
   -6.3591   -3.1104    0.4213 H   0  0  0  0  0  0  0  0  0  0  0  0
   -6.9773   -3.1833    2.0774 H   0  0  0  0  0  0  0  0  0  0  0  0
   -8.3434   -1.5168   -0.0726 H   0  0  0  0  0  0  0  0  0  0  0  0
   -8.5101   -0.0143    0.8496 H   0  0  0  0  0  0  0  0  0  0  0  0
   -8.8288   -1.5708    1.6278 H   0  0  0  0  0  0  0  0  0  0  0  0
    1.1729    2.8802   -4.5282 H   0  0  0  0  0  0  0  0  0  0  0  0
    4.1101    1.3221   -3.5253 H   0  0  0  0  0  0  0  0  0  0  0  0
    4.0777    2.8709   -2.6313 H   0  0  0  0  0  0  0  0  0  0  0  0
    3.5071    2.7889   -4.2987 H   0  0  0  0  0  0  0  0  0  0  0  0
    2.0594    2.8318    0.8726 H   0  0  0  0  0  0  0  0  0  0  0  0
    3.6746    3.3336    1.3872 H   0  0  0  0  0  0  0  0  0  0  0  0
    3.1943    3.5654   -0.2978 H   0  0  0  0  0  0  0  0  0  0  0  0
  1  2  1  0
  2  3  1  0
  3  4  2  0
  4  5  1  0
  5  6  2  0
  6  7  1  0
  7  8  2  0
  8  9  1  0
  9 10  2  0
 10 11  1  0
 11 12  1  0
 12 13  1  0
 13 14  2  0
 13 15  1  0
 15 16  1  0
 16 17  1  0
 17 18  1  0
 18 19  1  0
 18 20  1  0
 18 21  1  0
 11 22  2  0
 22 23  1  0
 22 24  1  0
 24 25  2  0
 25 26  1  0
  8 27  1  0
 27 28  1  0
 27 29  2  0
 29 30  1  0
 30 31  2  0
 31  3  1  0
 30  6  1  0
 25  9  1  0
  1 32  1  0
  1 33  1  0
  1 34  1  0
  2 35  1  0
  5 36  1  0
  7 37  1  0
 10 38  1  0
 12 39  1  0
 15 40  1  0
 16 41  1  0
 16 42  1  0
 17 43  1  0
 17 44  1  0
 19 45  1  0
 19 46  1  0
 19 47  1  0
 20 48  1  0
 20 49  1  0
 20 50  1  0
 21 51  1  0
 21 52  1  0
 21 53  1  0
 24 54  1  0
 26 55  1  0
 26 56  1  0
 26 57  1  0
 28 58  1  0
 28 59  1  0
 28 60  1  0
M  END
$$$$
