
     RDKit          3D

 27 30  0  0  0  0  0  0  0  0999 V2000
    1.2628    3.3179    0.1900 O   0  0  0  0  0  0  0  0  0  0  0  0
    1.2137    2.1115    0.1449 C   0  0  0  0  0  0  0  0  0  0  0  0
    2.3308    1.1683    0.2124 C   0  0  0  0  0  0  0  0  0  0  0  0
    3.6830    1.4197    0.3411 C   0  0  0  0  0  0  0  0  0  0  0  0
    4.5308    0.3127    0.3791 C   0  0  0  0  0  0  0  0  0  0  0  0
    4.0107   -0.9931    0.2887 C   0  0  0  0  0  0  0  0  0  0  0  0
    2.6332   -1.2185    0.1586 C   0  0  0  0  0  0  0  0  0  0  0  0
    1.7953   -0.1192    0.1212 C   0  0  0  0  0  0  0  0  0  0  0  0
    0.3949   -0.0657   -0.0014 N   0  0  0  0  0  0  0  0  0  0  0  0
   -0.0290    1.2480    0.0052 C   0  0  0  0  0  0  0  0  0  0  0  0
   -1.2464    1.6605   -0.0891 N   0  0  0  0  0  0  0  0  0  0  0  0
   -2.2222    0.6528   -0.2099 C   0  0  0  0  0  0  0  0  0  0  0  0
   -3.5616    1.0336   -0.3161 C   0  0  0  0  0  0  0  0  0  0  0  0
   -4.5683    0.0717   -0.4381 C   0  0  0  0  0  0  0  0  0  0  0  0
   -4.2441   -1.2850   -0.4551 C   0  0  0  0  0  0  0  0  0  0  0  0
   -2.9121   -1.6838   -0.3501 C   0  0  0  0  0  0  0  0  0  0  0  0
   -1.9077   -0.7161   -0.2282 C   0  0  0  0  0  0  0  0  0  0  0  0
   -0.4829   -1.1207   -0.1151 C   0  0  0  0  0  0  0  0  0  0  0  0
   -0.1792   -2.3091   -0.1283 O   0  0  0  0  0  0  0  0  0  0  0  0
    4.0646    2.4333    0.4092 H   0  0  0  0  0  0  0  0  0  0  0  0
    5.6052    0.4566    0.4795 H   0  0  0  0  0  0  0  0  0  0  0  0
    4.6910   -1.8430    0.3205 H   0  0  0  0  0  0  0  0  0  0  0  0
    2.2543   -2.2339    0.0906 H   0  0  0  0  0  0  0  0  0  0  0  0
   -3.8201    2.0901   -0.3034 H   0  0  0  0  0  0  0  0  0  0  0  0
   -5.6068    0.3844   -0.5199 H   0  0  0  0  0  0  0  0  0  0  0  0
   -5.0298   -2.0311   -0.5502 H   0  0  0  0  0  0  0  0  0  0  0  0
   -2.6602   -2.7420   -0.3635 H   0  0  0  0  0  0  0  0  0  0  0  0
  1  2  2  0
  2  3  1  0
  3  4  2  0
  4  5  1  0
  5  6  2  0
  6  7  1  0
  7  8  2  0
  8  9  1  0
  9 10  1  0
 10 11  2  0
 11 12  1  0
 12 13  2  0
 13 14  1  0
 14 15  2  0
 15 16  1  0
 16 17  2  0
 17 18  1  0
 18 19  2  0
 10  2  1  0
 17 12  1  0
  8  3  1  0
 18  9  1  0
  4 20  1  0
  5 21  1  0
  6 22  1  0
  7 23  1  0
 13 24  1  0
 14 25  1  0
 15 26  1  0
 16 27  1  0
M  END
$$$$
