
     RDKit          3D

 14 14  0  0  0  0  0  0  0  0999 V2000
    3.3233   -0.4646    0.2617 C   0  0  0  0  0  0  0  0  0  0  0  0
    2.1408   -0.3056    0.1261 C   0  0  0  0  0  0  0  0  0  0  0  0
    0.7402   -0.1166   -0.0342 C   0  0  0  0  0  0  0  0  0  0  0  0
   -0.0181   -1.0306   -0.6549 C   0  0  0  0  0  0  0  0  0  0  0  0
   -1.3669   -0.8602   -0.8154 N   0  0  0  0  0  0  0  0  0  0  0  0
   -2.0509    0.2359   -0.3662 C   0  0  0  0  0  0  0  0  0  0  0  0
   -3.2599    0.3574   -0.5264 O   0  0  0  0  0  0  0  0  0  0  0  0
   -1.2960    1.1792    0.2693 N   0  0  0  0  0  0  0  0  0  0  0  0
    0.0565    1.1076    0.4824 C   0  0  0  0  0  0  0  0  0  0  0  0
    0.6582    2.0049    1.0653 O   0  0  0  0  0  0  0  0  0  0  0  0
    4.3734   -0.5928    0.3889 H   0  0  0  0  0  0  0  0  0  0  0  0
    0.3967   -1.9488   -1.0605 H   0  0  0  0  0  0  0  0  0  0  0  0
   -1.9238   -1.5638   -1.2882 H   0  0  0  0  0  0  0  0  0  0  0  0
   -1.7736    1.9981    0.6111 H   0  0  0  0  0  0  0  0  0  0  0  0
  1  2  3  0
  2  3  1  0
  3  4  2  0
  4  5  1  0
  5  6  1  0
  6  7  2  0
  6  8  1  0
  8  9  1  0
  9 10  2  0
  9  3  1  0
  1 11  1  0
  4 12  1  0
  5 13  1  0
  8 14  1  0
M  END
$$$$
