
     RDKit          3D

 42 45  0  0  0  0  0  0  0  0999 V2000
   -3.7296   -1.7545   -2.0656 C   0  0  0  0  0  0  0  0  0  0  0  0
   -2.9287   -0.8370   -1.2613 N   0  0  0  0  0  0  0  0  0  0  0  0
   -1.5704   -1.1141   -1.1345 C   0  0  0  0  0  0  0  0  0  0  0  0
   -0.9935   -1.9650   -1.8179 O   0  0  0  0  0  0  0  0  0  0  0  0
   -0.7495   -0.4818   -0.0802 C   0  0  0  0  0  0  0  0  0  0  0  0
    0.2382   -1.2654    0.5358 C   0  0  0  0  0  0  0  0  0  0  0  0
    1.1065   -0.6872    1.4668 C   0  0  0  0  0  0  0  0  0  0  0  0
    2.3727   -1.6945    2.2054 S   0  0  0  0  0  6  0  0  0  0  0  0
    1.7716   -2.9759    2.5073 O   0  0  0  0  0  0  0  0  0  0  0  0
    3.0260   -0.9116    3.2323 O   0  0  0  0  0  0  0  0  0  0  0  0
    3.4454   -1.9533    0.9275 N   0  0  0  0  0  0  0  0  0  0  0  0
    3.9364   -0.8353    0.1965 C   0  0  0  0  0  0  0  0  0  0  0  0
    4.7300    0.1324    0.8113 C   0  0  0  0  0  0  0  0  0  0  0  0
    5.1681    1.2398    0.0833 C   0  0  0  0  0  0  0  0  0  0  0  0
    4.8115    1.3792   -1.2576 C   0  0  0  0  0  0  0  0  0  0  0  0
    4.0198    0.4101   -1.8732 C   0  0  0  0  0  0  0  0  0  0  0  0
    3.5827   -0.6990   -1.1473 C   0  0  0  0  0  0  0  0  0  0  0  0
    0.9920    0.6613    1.8079 C   0  0  0  0  0  0  0  0  0  0  0  0
    0.0079    1.4366    1.1955 C   0  0  0  0  0  0  0  0  0  0  0  0
   -0.8631    0.8600    0.2631 C   0  0  0  0  0  0  0  0  0  0  0  0
   -1.7655    1.6912   -0.3361 O   0  0  0  0  0  0  0  0  0  0  0  0
   -3.0700    1.3451   -0.1096 C   0  0  0  0  0  0  0  0  0  0  0  0
   -3.8619    2.3156    0.5109 C   0  0  0  0  0  0  0  0  0  0  0  0
   -5.2194    2.0870    0.6812 C   0  0  0  0  0  0  0  0  0  0  0  0
   -5.7363    0.9029    0.1959 C   0  0  0  0  0  0  0  0  0  0  0  0
   -4.9948   -0.0399   -0.4274 N   0  0  0  0  0  0  0  0  0  0  0  0
   -3.6580    0.1666   -0.5676 C   0  0  0  0  0  0  0  0  0  0  0  0
   -3.1075   -2.3601   -2.7310 H   0  0  0  0  0  0  0  0  0  0  0  0
   -4.4317   -1.1920   -2.6903 H   0  0  0  0  0  0  0  0  0  0  0  0
   -4.2736   -2.4329   -1.4000 H   0  0  0  0  0  0  0  0  0  0  0  0
    0.3368   -2.3180    0.2744 H   0  0  0  0  0  0  0  0  0  0  0  0
    3.2198   -2.7982    0.4044 H   0  0  0  0  0  0  0  0  0  0  0  0
    5.0226    0.0294    1.8534 H   0  0  0  0  0  0  0  0  0  0  0  0
    5.7901    1.9914    0.5630 H   0  0  0  0  0  0  0  0  0  0  0  0
    5.1538    2.2420   -1.8241 H   0  0  0  0  0  0  0  0  0  0  0  0
    3.7417    0.5189   -2.9187 H   0  0  0  0  0  0  0  0  0  0  0  0
    2.9591   -1.4405   -1.6396 H   0  0  0  0  0  0  0  0  0  0  0  0
    1.6687    1.1154    2.5290 H   0  0  0  0  0  0  0  0  0  0  0  0
   -0.0771    2.4931    1.4391 H   0  0  0  0  0  0  0  0  0  0  0  0
   -3.4188    3.2483    0.8486 H   0  0  0  0  0  0  0  0  0  0  0  0
   -5.8581    2.8182    1.1637 H   0  0  0  0  0  0  0  0  0  0  0  0
   -6.7940    0.6718    0.2896 H   0  0  0  0  0  0  0  0  0  0  0  0
  1  2  1  0
  2  3  1  0
  3  4  2  0
  3  5  1  0
  5  6  2  0
  6  7  1  0
  7  8  1  0
  8  9  2  0
  8 10  2  0
  8 11  1  0
 11 12  1  0
 12 13  2  0
 13 14  1  0
 14 15  2  0
 15 16  1  0
 16 17  2  0
  7 18  2  0
 18 19  1  0
 19 20  2  0
 20 21  1  0
 21 22  1  0
 22 23  2  0
 23 24  1  0
 24 25  2  0
 25 26  1  0
 26 27  2  0
 27  2  1  0
 20  5  1  0
 27 22  1  0
 17 12  1  0
  1 28  1  0
  1 29  1  0
  1 30  1  0
  6 31  1  0
 11 32  1  0
 13 33  1  0
 14 34  1  0
 15 35  1  0
 16 36  1  0
 17 37  1  0
 18 38  1  0
 19 39  1  0
 23 40  1  0
 24 41  1  0
 25 42  1  0
M  END
$$$$
