
     RDKit          3D

 42 45  0  0  0  0  0  0  0  0999 V2000
    5.2476    0.6174   -0.0278 C   0  0  0  0  0  0  0  0  0  0  0  0
    3.9829    1.3268    0.1390 N   0  0  0  0  0  0  0  0  0  0  0  0
    3.0836    1.1401   -1.0180 C   0  0  0  0  0  0  0  0  0  0  0  0
    2.0561   -0.0045   -0.8770 C   0  0  0  0  0  0  0  0  0  0  0  0
    1.2223    0.1368    0.3371 N   0  0  0  0  0  0  0  0  0  0  0  0
   -0.1713   -0.0208    0.2639 C   0  0  0  0  0  0  0  0  0  0  0  0
   -0.9057    0.8433    0.9076 N   0  0  0  0  0  0  0  0  0  0  0  0
   -2.3043    0.8962    0.9248 C   0  0  0  0  0  0  0  0  0  0  0  0
   -2.8735    1.3949    2.1058 C   0  0  0  0  0  0  0  0  0  0  0  0
   -4.2411    1.6343    2.1976 C   0  0  0  0  0  0  0  0  0  0  0  0
   -4.9106    2.2437    3.6610 Cl  0  0  0  0  0  0  0  0  0  0  0  0
   -5.0682    1.3990    1.1069 C   0  0  0  0  0  0  0  0  0  0  0  0
   -4.5183    0.9079   -0.0778 C   0  0  0  0  0  0  0  0  0  0  0  0
   -3.1391    0.6410   -0.1816 C   0  0  0  0  0  0  0  0  0  0  0  0
   -2.6593    0.0647   -1.3834 N   0  0  0  0  0  0  0  0  0  0  0  0
   -1.8167   -1.0671   -1.3678 C   0  0  0  0  0  0  0  0  0  0  0  0
   -2.1516   -2.1618   -2.1874 C   0  0  0  0  0  0  0  0  0  0  0  0
   -1.4278   -3.3555   -2.1355 C   0  0  0  0  0  0  0  0  0  0  0  0
   -0.3583   -3.4791   -1.2570 C   0  0  0  0  0  0  0  0  0  0  0  0
    0.0016   -2.3972   -0.4555 C   0  0  0  0  0  0  0  0  0  0  0  0
   -0.7060   -1.1824   -0.5234 C   0  0  0  0  0  0  0  0  0  0  0  0
    1.7836    1.0450    1.3595 C   0  0  0  0  0  0  0  0  0  0  0  0
    3.3205    0.9266    1.4012 C   0  0  0  0  0  0  0  0  0  0  0  0
    5.7829    0.9895   -0.9083 H   0  0  0  0  0  0  0  0  0  0  0  0
    5.1054   -0.4631   -0.1430 H   0  0  0  0  0  0  0  0  0  0  0  0
    5.9024    0.7909    0.8334 H   0  0  0  0  0  0  0  0  0  0  0  0
    2.5299    2.0793   -1.1499 H   0  0  0  0  0  0  0  0  0  0  0  0
    3.6570    1.0092   -1.9443 H   0  0  0  0  0  0  0  0  0  0  0  0
    1.4322   -0.0088   -1.7785 H   0  0  0  0  0  0  0  0  0  0  0  0
    2.5837   -0.9642   -0.8328 H   0  0  0  0  0  0  0  0  0  0  0  0
   -2.2223    1.6144    2.9478 H   0  0  0  0  0  0  0  0  0  0  0  0
   -6.1355    1.5911    1.1706 H   0  0  0  0  0  0  0  0  0  0  0  0
   -5.1806    0.7158   -0.9178 H   0  0  0  0  0  0  0  0  0  0  0  0
   -3.3778    0.0068   -2.0953 H   0  0  0  0  0  0  0  0  0  0  0  0
   -3.0054   -2.1035   -2.8580 H   0  0  0  0  0  0  0  0  0  0  0  0
   -1.7138   -4.1926   -2.7673 H   0  0  0  0  0  0  0  0  0  0  0  0
    0.1981   -4.4107   -1.1976 H   0  0  0  0  0  0  0  0  0  0  0  0
    0.8430   -2.4965    0.2265 H   0  0  0  0  0  0  0  0  0  0  0  0
    1.4908    2.0818    1.1509 H   0  0  0  0  0  0  0  0  0  0  0  0
    1.3871    0.7739    2.3453 H   0  0  0  0  0  0  0  0  0  0  0  0
    3.7105    1.5526    2.2118 H   0  0  0  0  0  0  0  0  0  0  0  0
    3.5658   -0.1153    1.6500 H   0  0  0  0  0  0  0  0  0  0  0  0
  1  2  1  0
  2  3  1  0
  3  4  1  0
  4  5  1  0
  5  6  1  0
  6  7  2  0
  7  8  1  0
  8  9  2  0
  9 10  1  0
 10 11  1  0
 10 12  2  0
 12 13  1  0
 13 14  2  0
 14 15  1  0
 15 16  1  0
 16 17  2  0
 17 18  1  0
 18 19  2  0
 19 20  1  0
 20 21  2  0
  5 22  1  0
 22 23  1  0
 23  2  1  0
 21  6  1  0
 14  8  1  0
 21 16  1  0
  1 24  1  0
  1 25  1  0
  1 26  1  0
  3 27  1  0
  3 28  1  0
  4 29  1  0
  4 30  1  0
  9 31  1  0
 12 32  1  0
 13 33  1  0
 15 34  1  0
 17 35  1  0
 18 36  1  0
 19 37  1  0
 20 38  1  0
 22 39  1  0
 22 40  1  0
 23 41  1  0
 23 42  1  0
M  END
$$$$
