
     RDKit          3D

 62 66  0  0  0  0  0  0  0  0999 V2000
    8.2638   -0.3579    0.7731 C   0  0  0  0  0  0  0  0  0  0  0  0
    6.8506   -0.8546    0.7821 C   0  0  0  0  0  0  0  0  0  0  0  0
    6.5331   -2.0333    0.7213 O   0  0  0  0  0  0  0  0  0  0  0  0
    5.9906    0.1974    0.8536 O   0  0  0  0  0  0  0  0  0  0  0  0
    4.5874   -0.1336    0.8704 C   0  0  1  0  0  0  0  0  0  0  0  0
    3.8558    1.0504    1.5028 C   0  0  0  0  0  0  0  0  0  0  0  0
    2.3420    0.8444    1.4906 C   0  0  0  0  0  0  0  0  0  0  0  0
    1.7430    0.5711    0.0797 C   0  0  1  0  0  0  0  0  0  0  0  0
    1.8265    1.8598   -0.7726 C   0  0  0  0  0  0  0  0  0  0  0  0
    2.5757   -0.5151   -0.6176 C   0  0  0  0  0  0  0  0  0  0  0  0
    2.0235   -1.5646   -1.2536 C   0  0  0  0  0  0  0  0  0  0  0  0
    0.5526   -1.7984   -1.3971 C   0  0  0  0  0  0  0  0  0  0  0  0
   -0.2982   -0.5709   -1.0385 C   0  0  1  0  0  0  0  0  0  0  0  0
   -1.7617   -0.9621   -0.8198 C   0  0  2  0  0  0  0  0  0  0  0  0
   -2.5112   -1.7178   -1.9114 C   0  0  0  0  0  0  0  0  0  0  0  0
   -3.9157   -1.5274   -1.4101 C   0  0  0  0  0  0  0  0  0  0  0  0
   -4.0172   -0.4851   -0.5571 C   0  0  0  0  0  0  0  0  0  0  0  0
   -5.2508   -0.0959    0.1415 C   0  0  0  0  0  0  0  0  0  0  0  0
   -6.1976   -1.0567    0.5208 C   0  0  0  0  0  0  0  0  0  0  0  0
   -7.3574   -0.6842    1.2000 C   0  0  0  0  0  0  0  0  0  0  0  0
   -7.5444    0.6536    1.4930 C   0  0  0  0  0  0  0  0  0  0  0  0
   -6.6645    1.6171    1.1587 N   0  0  0  0  0  0  0  0  0  0  0  0
   -5.5474    1.2183    0.4968 C   0  0  0  0  0  0  0  0  0  0  0  0
   -2.6782    0.2409   -0.4763 C   0  0  2  0  0  0  0  0  0  0  0  0
   -2.6518    1.3634   -1.5446 C   0  0  0  0  0  0  0  0  0  0  0  0
   -2.1880    0.7627    0.8844 C   0  0  0  0  0  0  0  0  0  0  0  0
   -0.7059    1.1826    0.8284 C   0  0  0  0  0  0  0  0  0  0  0  0
    0.2464    0.0952    0.2592 C   0  0  2  0  0  0  0  0  0  0  0  0
    4.0827   -0.3731   -0.5563 C   0  0  0  0  0  0  0  0  0  0  0  0
    8.4435    0.2686    1.6509 H   0  0  0  0  0  0  0  0  0  0  0  0
    8.4521    0.2035   -0.1456 H   0  0  0  0  0  0  0  0  0  0  0  0
    8.9480   -1.2102    0.8131 H   0  0  0  0  0  0  0  0  0  0  0  0
    4.4181   -1.0219    1.4941 H   0  0  0  0  0  0  0  0  0  0  0  0
    4.1235    1.9811    0.9871 H   0  0  0  0  0  0  0  0  0  0  0  0
    4.2022    1.1826    2.5355 H   0  0  0  0  0  0  0  0  0  0  0  0
    1.8734    1.7289    1.9386 H   0  0  0  0  0  0  0  0  0  0  0  0
    2.1117    0.0021    2.1573 H   0  0  0  0  0  0  0  0  0  0  0  0
    1.3797    2.7159   -0.2570 H   0  0  0  0  0  0  0  0  0  0  0  0
    1.3181    1.7448   -1.7354 H   0  0  0  0  0  0  0  0  0  0  0  0
    2.8601    2.1454   -0.9948 H   0  0  0  0  0  0  0  0  0  0  0  0
    2.6634   -2.3186   -1.7095 H   0  0  0  0  0  0  0  0  0  0  0  0
    0.3414   -2.0901   -2.4330 H   0  0  0  0  0  0  0  0  0  0  0  0
    0.2844   -2.6542   -0.7653 H   0  0  0  0  0  0  0  0  0  0  0  0
   -0.2302    0.1335   -1.8747 H   0  0  0  0  0  0  0  0  0  0  0  0
   -1.7557   -1.6428    0.0530 H   0  0  0  0  0  0  0  0  0  0  0  0
   -2.2350   -2.7762   -1.9273 H   0  0  0  0  0  0  0  0  0  0  0  0
   -2.3808   -1.2910   -2.9102 H   0  0  0  0  0  0  0  0  0  0  0  0
   -4.7230   -2.1830   -1.7071 H   0  0  0  0  0  0  0  0  0  0  0  0
   -6.0375   -2.1103    0.3065 H   0  0  0  0  0  0  0  0  0  0  0  0
   -8.0922   -1.4240    1.4962 H   0  0  0  0  0  0  0  0  0  0  0  0
   -8.4296    0.9947    2.0210 H   0  0  0  0  0  0  0  0  0  0  0  0
   -4.8849    2.0398    0.2495 H   0  0  0  0  0  0  0  0  0  0  0  0
   -3.0084    1.0166   -2.5213 H   0  0  0  0  0  0  0  0  0  0  0  0
   -3.2893    2.2039   -1.2534 H   0  0  0  0  0  0  0  0  0  0  0  0
   -1.6518    1.7751   -1.7046 H   0  0  0  0  0  0  0  0  0  0  0  0
   -2.7802    1.6240    1.2122 H   0  0  0  0  0  0  0  0  0  0  0  0
   -2.3130   -0.0078    1.6564 H   0  0  0  0  0  0  0  0  0  0  0  0
   -0.6344    2.1025    0.2409 H   0  0  0  0  0  0  0  0  0  0  0  0
   -0.3937    1.4472    1.8453 H   0  0  0  0  0  0  0  0  0  0  0  0
    0.2566   -0.7018    1.0212 H   0  0  0  0  0  0  0  0  0  0  0  0
    4.3993    0.4543   -1.2040 H   0  0  0  0  0  0  0  0  0  0  0  0
    4.5800   -1.2585   -0.9714 H   0  0  0  0  0  0  0  0  0  0  0  0
  1  2  1  0
  2  3  2  0
  2  4  1  0
  4  5  1  0
  5  6  1  0
  6  7  1  0
  7  8  1  0
  8  9  1  6
  8 10  1  0
 10 11  2  0
 11 12  1  0
 12 13  1  0
 13 14  1  0
 14 15  1  0
 15 16  1  0
 16 17  2  0
 17 18  1  0
 18 19  2  0
 19 20  1  0
 20 21  2  0
 21 22  1  0
 22 23  2  0
 17 24  1  0
 24 25  1  6
 24 26  1  0
 26 27  1  0
 27 28  1  0
 10 29  1  0
 29  5  1  0
 28  8  1  0
 28 13  1  0
 24 14  1  0
 23 18  1  0
  1 30  1  0
  1 31  1  0
  1 32  1  0
  5 33  1  1
  6 34  1  0
  6 35  1  0
  7 36  1  0
  7 37  1  0
  9 38  1  0
  9 39  1  0
  9 40  1  0
 11 41  1  0
 12 42  1  0
 12 43  1  0
 13 44  1  6
 14 45  1  1
 15 46  1  0
 15 47  1  0
 16 48  1  0
 19 49  1  0
 20 50  1  0
 21 51  1  0
 23 52  1  0
 25 53  1  0
 25 54  1  0
 25 55  1  0
 26 56  1  0
 26 57  1  0
 27 58  1  0
 27 59  1  0
 28 60  1  1
 29 61  1  0
 29 62  1  0
M  END
$$$$
