
     RDKit          3D

 33 35  0  0  0  0  0  0  0  0999 V2000
    3.7355    0.3579    3.1503 N   0  0  0  0  0  0  0  0  0  0  0  0
    3.5052   -0.0810    1.8867 C   0  0  0  0  0  0  0  0  0  0  0  0
    4.4823   -0.5394    1.1622 N   0  0  0  0  0  0  0  0  0  0  0  0
    4.2205   -0.9843   -0.1343 C   0  0  0  0  0  0  0  0  0  0  0  0
    5.3673   -1.5368   -1.2170 S   0  0  0  0  0  0  0  0  0  0  0  0
    2.8217   -0.9550   -0.5671 C   0  0  0  0  0  0  0  0  0  0  0  0
    2.2191   -1.3467   -1.7387 N   0  0  0  0  0  0  0  0  0  0  0  0
    0.9334   -1.1177   -1.5636 C   0  0  0  0  0  0  0  0  0  0  0  0
    0.6746   -0.5540   -0.3387 N   0  0  0  0  0  0  0  0  0  0  0  0
   -0.6039   -0.0660    0.1181 C   0  0  0  0  0  0  0  0  0  0  0  0
   -1.6602   -0.9476   -0.3294 O   0  0  0  0  0  0  0  0  0  0  0  0
   -2.7742   -0.1115   -0.7349 C   0  0  0  0  0  0  0  0  0  0  0  0
   -4.0640   -0.6928   -0.1579 C   0  0  0  0  0  0  0  0  0  0  0  0
   -4.2505   -2.0272   -0.6346 O   0  0  0  0  0  0  0  0  0  0  0  0
   -2.4709    1.2972   -0.2244 C   0  0  0  0  0  0  0  0  0  0  0  0
   -3.1106    2.3095   -0.9862 O   0  0  0  0  0  0  0  0  0  0  0  0
   -0.9561    1.3499   -0.3589 C   0  0  0  0  0  0  0  0  0  0  0  0
   -0.6670    1.6033   -1.7467 O   0  0  0  0  0  0  0  0  0  0  0  0
    1.8759   -0.4508    0.2922 C   0  0  0  0  0  0  0  0  0  0  0  0
    2.1873    0.0257    1.5111 N   0  0  0  0  0  0  0  0  0  0  0  0
    4.7393    0.3316    3.3387 H   0  0  0  0  0  0  0  0  0  0  0  0
    3.3977    1.3000    3.3216 H   0  0  0  0  0  0  0  0  0  0  0  0
    0.1574   -1.3128   -2.2933 H   0  0  0  0  0  0  0  0  0  0  0  0
   -0.6125   -0.1153    1.2157 H   0  0  0  0  0  0  0  0  0  0  0  0
   -2.8186   -0.1475   -1.8333 H   0  0  0  0  0  0  0  0  0  0  0  0
   -4.0123   -0.7402    0.9353 H   0  0  0  0  0  0  0  0  0  0  0  0
   -4.9325   -0.1001   -0.4495 H   0  0  0  0  0  0  0  0  0  0  0  0
   -3.3730   -2.4503   -0.6284 H   0  0  0  0  0  0  0  0  0  0  0  0
   -2.7597    1.4054    0.8269 H   0  0  0  0  0  0  0  0  0  0  0  0
   -2.5804    2.4014   -1.8072 H   0  0  0  0  0  0  0  0  0  0  0  0
   -0.4934    2.1459    0.2340 H   0  0  0  0  0  0  0  0  0  0  0  0
    0.3007    1.6153   -1.8608 H   0  0  0  0  0  0  0  0  0  0  0  0
    1.5220    0.1341    2.2678 H   0  0  0  0  0  0  0  0  0  0  0  0
  1  2  1  0
  2  3  2  0
  3  4  1  0
  4  5  2  0
  4  6  1  0
  6  7  1  0
  7  8  2  0
  8  9  1  0
  9 10  1  0
 10 11  1  0
 11 12  1  0
 12 13  1  0
 13 14  1  0
 12 15  1  0
 15 16  1  0
 15 17  1  0
 17 18  1  0
  9 19  1  0
 19 20  1  0
 20  2  1  0
 19  6  2  0
 17 10  1  0
  1 21  1  0
  1 22  1  0
  8 23  1  0
 10 24  1  0
 12 25  1  0
 13 26  1  0
 13 27  1  0
 14 28  1  0
 15 29  1  0
 16 30  1  0
 17 31  1  0
 18 32  1  0
 20 33  1  0
M  END
$$$$
