
     RDKit          3D

 39 42  0  0  0  0  0  0  0  0999 V2000
   -4.0295   -0.8150   -1.9791 C   0  0  0  0  0  0  0  0  0  0  0  0
   -3.8687   -0.5335   -0.4854 C   0  0  0  0  0  0  0  0  0  0  0  0
   -4.0264   -1.8094    0.3414 C   0  0  0  0  0  0  0  0  0  0  0  0
   -2.6005    0.1296   -0.2032 N   0  0  0  0  0  0  0  0  0  0  0  0
   -1.4332   -0.4957   -0.4667 N   0  0  0  0  0  0  0  0  0  0  0  0
   -0.5037    0.3738   -0.0376 C   0  0  0  0  0  0  0  0  0  0  0  0
    0.9792   -0.1009   -0.0718 C   0  0  0  0  0  0  0  0  0  0  0  0
    2.1174    0.4694    0.4473 C   0  0  0  0  0  0  0  0  0  0  0  0
    3.2144   -0.3868    0.1341 C   0  0  0  0  0  0  0  0  0  0  0  0
    4.5995   -0.3337    0.3901 C   0  0  0  0  0  0  0  0  0  0  0  0
    5.4045   -1.3773   -0.0728 C   0  0  0  0  0  0  0  0  0  0  0  0
    6.7530   -1.3740    0.1458 O   0  0  0  0  0  0  0  0  0  0  0  0
    4.8713   -2.4553   -0.7685 C   0  0  0  0  0  0  0  0  0  0  0  0
    3.4994   -2.5309   -1.0253 C   0  0  0  0  0  0  0  0  0  0  0  0
    2.6986   -1.4816   -0.5600 C   0  0  0  0  0  0  0  0  0  0  0  0
    1.3406   -1.2928   -0.6472 N   0  0  0  0  0  0  0  0  0  0  0  0
   -1.0690    1.6012    0.3969 C   0  0  0  0  0  0  0  0  0  0  0  0
   -0.6758    2.8729    0.8336 C   0  0  0  0  0  0  0  0  0  0  0  0
    0.6282    3.3552    0.8456 N   0  0  0  0  0  0  0  0  0  0  0  0
   -1.6245    3.7574    1.2095 N   0  0  0  0  0  0  0  0  0  0  0  0
   -2.9170    3.3964    1.1211 C   0  0  0  0  0  0  0  0  0  0  0  0
   -3.4158    2.2384    0.6676 N   0  0  0  0  0  0  0  0  0  0  0  0
   -2.4378    1.3842    0.3177 C   0  0  0  0  0  0  0  0  0  0  0  0
   -3.9232    0.1058   -2.5632 H   0  0  0  0  0  0  0  0  0  0  0  0
   -5.0184   -1.2358   -2.1891 H   0  0  0  0  0  0  0  0  0  0  0  0
   -3.2777   -1.5258   -2.3398 H   0  0  0  0  0  0  0  0  0  0  0  0
   -4.6647    0.1592   -0.1870 H   0  0  0  0  0  0  0  0  0  0  0  0
   -3.2753   -2.5606    0.0730 H   0  0  0  0  0  0  0  0  0  0  0  0
   -5.0157   -2.2520    0.1846 H   0  0  0  0  0  0  0  0  0  0  0  0
   -3.9168   -1.5973    1.4107 H   0  0  0  0  0  0  0  0  0  0  0  0
    2.1846    1.3785    1.0254 H   0  0  0  0  0  0  0  0  0  0  0  0
    5.0153    0.5061    0.9348 H   0  0  0  0  0  0  0  0  0  0  0  0
    6.9797   -0.5780    0.6536 H   0  0  0  0  0  0  0  0  0  0  0  0
    5.5281   -3.2503   -1.1126 H   0  0  0  0  0  0  0  0  0  0  0  0
    3.0788   -3.3748   -1.5617 H   0  0  0  0  0  0  0  0  0  0  0  0
    0.6789   -1.9226   -1.0804 H   0  0  0  0  0  0  0  0  0  0  0  0
    0.6028    4.3621    0.9763 H   0  0  0  0  0  0  0  0  0  0  0  0
    1.1604    3.0568    0.0364 H   0  0  0  0  0  0  0  0  0  0  0  0
   -3.6414    4.1374    1.4453 H   0  0  0  0  0  0  0  0  0  0  0  0
  1  2  1  0
  2  3  1  0
  2  4  1  0
  4  5  1  0
  5  6  2  0
  6  7  1  0
  7  8  2  0
  8  9  1  0
  9 10  2  0
 10 11  1  0
 11 12  1  0
 11 13  2  0
 13 14  1  0
 14 15  2  0
 15 16  1  0
  6 17  1  0
 17 18  2  0
 18 19  1  0
 18 20  1  0
 20 21  2  0
 21 22  1  0
 22 23  2  0
 23  4  1  0
 16  7  1  0
 23 17  1  0
 15  9  1  0
  1 24  1  0
  1 25  1  0
  1 26  1  0
  2 27  1  0
  3 28  1  0
  3 29  1  0
  3 30  1  0
  8 31  1  0
 10 32  1  0
 12 33  1  0
 13 34  1  0
 14 35  1  0
 16 36  1  0
 19 37  1  0
 19 38  1  0
 21 39  1  0
M  END
$$$$
