
     RDKit          3D

 31 31  0  0  0  0  0  0  0  0999 V2000
    4.2710   -1.8969   -0.3616 C   0  0  0  0  0  0  0  0  0  0  0  0
    2.8186   -1.5523   -0.4278 C   0  0  0  0  0  0  0  0  0  0  0  0
    2.2514   -0.5854    0.3116 C   0  0  0  0  0  0  0  0  0  0  0  0
    0.8230   -0.2158    0.2490 C   0  0  0  0  0  0  0  0  0  0  0  0
   -0.1603   -1.2169    0.1736 C   0  0  0  0  0  0  0  0  0  0  0  0
   -1.5198   -0.8916    0.1399 C   0  0  0  0  0  0  0  0  0  0  0  0
   -2.5372   -1.8107    0.0605 O   0  0  0  0  0  0  0  0  0  0  0  0
   -2.1828   -3.1840   -0.0129 C   0  0  0  0  0  0  0  0  0  0  0  0
   -1.9099    0.4589    0.1955 C   0  0  0  0  0  0  0  0  0  0  0  0
   -3.2634    0.6934    0.1580 O   0  0  0  0  0  0  0  0  0  0  0  0
   -3.7070    2.0418    0.1806 C   0  0  0  0  0  0  0  0  0  0  0  0
   -0.9353    1.4607    0.2911 C   0  0  0  0  0  0  0  0  0  0  0  0
    0.4274    1.1349    0.3226 C   0  0  0  0  0  0  0  0  0  0  0  0
    1.4400    2.0590    0.4208 O   0  0  0  0  0  0  0  0  0  0  0  0
    1.0874    3.4354    0.4257 C   0  0  0  0  0  0  0  0  0  0  0  0
    4.8118   -1.2784    0.3617 H   0  0  0  0  0  0  0  0  0  0  0  0
    4.3918   -2.9451   -0.0717 H   0  0  0  0  0  0  0  0  0  0  0  0
    4.7324   -1.7558   -1.3438 H   0  0  0  0  0  0  0  0  0  0  0  0
    2.2274   -2.1240   -1.1387 H   0  0  0  0  0  0  0  0  0  0  0  0
    2.8569    0.0084    0.9935 H   0  0  0  0  0  0  0  0  0  0  0  0
    0.1600   -2.2530    0.1551 H   0  0  0  0  0  0  0  0  0  0  0  0
   -1.5902   -3.3926   -0.9097 H   0  0  0  0  0  0  0  0  0  0  0  0
   -1.6588   -3.5054    0.8932 H   0  0  0  0  0  0  0  0  0  0  0  0
   -3.1077   -3.7645   -0.0844 H   0  0  0  0  0  0  0  0  0  0  0  0
   -3.3335    2.5960   -0.6867 H   0  0  0  0  0  0  0  0  0  0  0  0
   -3.4258    2.5339    1.1174 H   0  0  0  0  0  0  0  0  0  0  0  0
   -4.7998    2.0355    0.1245 H   0  0  0  0  0  0  0  0  0  0  0  0
   -1.2399    2.4967    0.3458 H   0  0  0  0  0  0  0  0  0  0  0  0
    0.5689    3.7149   -0.4973 H   0  0  0  0  0  0  0  0  0  0  0  0
    0.4906    3.6859    1.3088 H   0  0  0  0  0  0  0  0  0  0  0  0
    2.0129    4.0170    0.4753 H   0  0  0  0  0  0  0  0  0  0  0  0
  1  2  1  0
  2  3  2  0
  3  4  1  0
  4  5  2  0
  5  6  1  0
  6  7  1  0
  7  8  1  0
  6  9  2  0
  9 10  1  0
 10 11  1  0
  9 12  1  0
 12 13  2  0
 13 14  1  0
 14 15  1  0
 13  4  1  0
  1 16  1  0
  1 17  1  0
  1 18  1  0
  2 19  1  0
  3 20  1  0
  5 21  1  0
  8 22  1  0
  8 23  1  0
  8 24  1  0
 11 25  1  0
 11 26  1  0
 11 27  1  0
 12 28  1  0
 15 29  1  0
 15 30  1  0
 15 31  1  0
M  END
$$$$
