
     RDKit          3D

 41 42  0  0  0  0  0  0  0  0999 V2000
   -5.0508    1.3009   -2.9171 C   0  0  0  0  0  0  0  0  0  0  0  0
   -4.9060    0.3035   -1.7679 C   0  0  2  0  0  0  0  0  0  0  0  0
   -3.4937    0.1050   -1.3591 N   0  0  0  0  0  0  0  0  0  0  0  0
   -2.9973    1.2080   -0.5372 C   0  0  0  0  0  0  0  0  0  0  0  0
   -1.5644    0.9567   -0.1314 C   0  0  0  0  0  0  0  0  0  0  0  0
   -1.2575   -0.0192    0.8276 C   0  0  0  0  0  0  0  0  0  0  0  0
    0.0679   -0.2611    1.2076 C   0  0  0  0  0  0  0  0  0  0  0  0
    1.1061    0.4715    0.6322 C   0  0  0  0  0  0  0  0  0  0  0  0
    2.4380    0.3457    0.9138 O   0  0  0  0  0  0  0  0  0  0  0  0
    2.8066   -0.6173    1.9020 C   0  0  0  0  0  0  0  0  0  0  0  0
    4.3059   -0.6078    2.1143 C   0  0  0  0  0  0  0  0  0  0  0  0
    4.8379   -1.0283    3.3462 C   0  0  0  0  0  0  0  0  0  0  0  0
    6.2192   -1.0573    3.5563 C   0  0  0  0  0  0  0  0  0  0  0  0
    7.0861   -0.6752    2.5348 C   0  0  0  0  0  0  0  0  0  0  0  0
    6.5654   -0.2748    1.3101 C   0  0  0  0  0  0  0  0  0  0  0  0
    7.3996    0.0887    0.3260 F   0  0  0  0  0  0  0  0  0  0  0  0
    5.1923   -0.2447    1.0889 C   0  0  0  0  0  0  0  0  0  0  0  0
    0.8056    1.4370   -0.3311 C   0  0  0  0  0  0  0  0  0  0  0  0
   -0.5167    1.6786   -0.7144 C   0  0  0  0  0  0  0  0  0  0  0  0
   -5.4830   -1.0711   -2.1780 C   0  0  0  0  0  0  0  0  0  0  0  0
   -5.1009   -2.0984   -1.3545 N   0  0  0  0  0  0  0  0  0  0  0  0
   -6.2511   -1.2634   -3.1137 O   0  0  0  0  0  0  0  0  0  0  0  0
   -4.6925    2.2970   -2.6402 H   0  0  0  0  0  0  0  0  0  0  0  0
   -4.4959    0.9714   -3.8039 H   0  0  0  0  0  0  0  0  0  0  0  0
   -6.1012    1.4030   -3.2114 H   0  0  0  0  0  0  0  0  0  0  0  0
   -5.5053    0.6376   -0.9096 H   0  0  0  0  0  0  0  0  0  0  0  0
   -2.9114    0.0277   -2.1956 H   0  0  0  0  0  0  0  0  0  0  0  0
   -3.0609    2.1630   -1.0728 H   0  0  0  0  0  0  0  0  0  0  0  0
   -3.5994    1.3118    0.3744 H   0  0  0  0  0  0  0  0  0  0  0  0
   -2.0568   -0.5999    1.2826 H   0  0  0  0  0  0  0  0  0  0  0  0
    0.2489   -1.0277    1.9527 H   0  0  0  0  0  0  0  0  0  0  0  0
    2.3162   -0.3664    2.8513 H   0  0  0  0  0  0  0  0  0  0  0  0
    2.5167   -1.6249    1.5777 H   0  0  0  0  0  0  0  0  0  0  0  0
    4.1758   -1.3341    4.1566 H   0  0  0  0  0  0  0  0  0  0  0  0
    6.6169   -1.3766    4.5165 H   0  0  0  0  0  0  0  0  0  0  0  0
    8.1612   -0.6888    2.6842 H   0  0  0  0  0  0  0  0  0  0  0  0
    4.8262    0.0703    0.1151 H   0  0  0  0  0  0  0  0  0  0  0  0
    1.6101    2.0092   -0.7882 H   0  0  0  0  0  0  0  0  0  0  0  0
   -0.7176    2.4359   -1.4684 H   0  0  0  0  0  0  0  0  0  0  0  0
   -4.2170   -1.9554   -0.8747 H   0  0  0  0  0  0  0  0  0  0  0  0
   -5.3233   -3.0303   -1.6772 H   0  0  0  0  0  0  0  0  0  0  0  0
  1  2  1  0
  2  3  1  0
  3  4  1  0
  4  5  1  0
  5  6  2  0
  6  7  1  0
  7  8  2  0
  8  9  1  0
  9 10  1  0
 10 11  1  0
 11 12  2  0
 12 13  1  0
 13 14  2  0
 14 15  1  0
 15 16  1  0
 15 17  2  0
  8 18  1  0
 18 19  2  0
  2 20  1  0
 20 21  1  0
 20 22  2  0
 19  5  1  0
 17 11  1  0
  1 23  1  0
  1 24  1  0
  1 25  1  0
  2 26  1  1
  3 27  1  0
  4 28  1  0
  4 29  1  0
  6 30  1  0
  7 31  1  0
 10 32  1  0
 10 33  1  0
 12 34  1  0
 13 35  1  0
 14 36  1  0
 17 37  1  0
 18 38  1  0
 19 39  1  0
 21 40  1  0
 21 41  1  0
M  END
$$$$
