
     RDKit          3D

 31 32  0  0  0  0  0  0  0  0999 V2000
    0.9887   -1.1205   -1.6726 C   0  0  0  0  0  0  0  0  0  0  0  0
    1.2031    0.0504   -0.6906 C   0  0  0  0  0  0  0  0  0  0  0  0
    1.0801    1.3805   -1.4583 C   0  0  0  0  0  0  0  0  0  0  0  0
    2.6158   -0.0179   -0.3049 N   0  0  0  0  0  0  0  0  0  0  0  0
    2.8973   -0.5028    0.8492 C   0  0  0  0  0  0  0  0  0  0  0  0
    4.2010   -0.6116    1.2013 N   0  0  0  0  0  0  0  0  0  0  0  0
    1.9917   -0.8895    1.7791 N   0  0  0  0  0  0  0  0  0  0  0  0
    0.7458   -0.6251    1.5577 C   0  0  0  0  0  0  0  0  0  0  0  0
   -0.1428   -0.9479    2.5390 N   0  0  0  0  0  0  0  0  0  0  0  0
    0.2500   -0.0066    0.4373 N   0  0  0  0  0  0  0  0  0  0  0  0
   -1.1287    0.0125    0.1196 C   0  0  0  0  0  0  0  0  0  0  0  0
   -1.8727   -1.1741    0.0007 C   0  0  0  0  0  0  0  0  0  0  0  0
   -3.2369   -1.1444   -0.2979 C   0  0  0  0  0  0  0  0  0  0  0  0
   -3.8826    0.0774   -0.4717 C   0  0  0  0  0  0  0  0  0  0  0  0
   -3.1614    1.2611   -0.3382 C   0  0  0  0  0  0  0  0  0  0  0  0
   -3.9601    2.7729   -0.5354 Cl  0  0  0  0  0  0  0  0  0  0  0  0
   -1.7985    1.2337   -0.0400 C   0  0  0  0  0  0  0  0  0  0  0  0
    1.0461   -2.0853   -1.1553 H   0  0  0  0  0  0  0  0  0  0  0  0
    1.7588   -1.1254   -2.4535 H   0  0  0  0  0  0  0  0  0  0  0  0
    0.0185   -1.0650   -2.1771 H   0  0  0  0  0  0  0  0  0  0  0  0
    1.1775    2.2354   -0.7790 H   0  0  0  0  0  0  0  0  0  0  0  0
    0.1260    1.4700   -1.9871 H   0  0  0  0  0  0  0  0  0  0  0  0
    1.8708    1.4754   -2.2129 H   0  0  0  0  0  0  0  0  0  0  0  0
    4.7912    0.0205    0.6785 H   0  0  0  0  0  0  0  0  0  0  0  0
    4.3313   -0.5825    2.2027 H   0  0  0  0  0  0  0  0  0  0  0  0
    0.3333   -1.1824    3.4024 H   0  0  0  0  0  0  0  0  0  0  0  0
   -0.8687   -0.2560    2.6763 H   0  0  0  0  0  0  0  0  0  0  0  0
   -1.3822   -2.1357    0.1436 H   0  0  0  0  0  0  0  0  0  0  0  0
   -3.7922   -2.0745   -0.3905 H   0  0  0  0  0  0  0  0  0  0  0  0
   -4.9442    0.1003   -0.7033 H   0  0  0  0  0  0  0  0  0  0  0  0
   -1.2560    2.1678    0.0810 H   0  0  0  0  0  0  0  0  0  0  0  0
  1  2  1  0
  2  3  1  0
  2  4  1  0
  4  5  2  0
  5  6  1  0
  5  7  1  0
  7  8  2  0
  8  9  1  0
  8 10  1  0
 10 11  1  0
 11 12  2  0
 12 13  1  0
 13 14  2  0
 14 15  1  0
 15 16  1  0
 15 17  2  0
 10  2  1  0
 17 11  1  0
  1 18  1  0
  1 19  1  0
  1 20  1  0
  3 21  1  0
  3 22  1  0
  3 23  1  0
  6 24  1  0
  6 25  1  0
  9 26  1  0
  9 27  1  0
 12 28  1  0
 13 29  1  0
 14 30  1  0
 17 31  1  0
M  END
$$$$
