
     RDKit          3D

 33 34  0  0  0  0  0  0  0  0999 V2000
    5.8235   -0.0095   -1.0264 C   0  0  0  0  0  0  0  0  0  0  0  0
    4.7671   -0.8774   -0.6326 O   0  0  0  0  0  0  0  0  0  0  0  0
    3.6587   -0.2943   -0.0825 C   0  0  0  0  0  0  0  0  0  0  0  0
    3.4628    1.0738    0.1102 C   0  0  0  0  0  0  0  0  0  0  0  0
    2.2742    1.5367    0.6844 C   0  0  0  0  0  0  0  0  0  0  0  0
    1.2692    0.6351    1.0560 C   0  0  0  0  0  0  0  0  0  0  0  0
    0.0473    1.1934    1.6731 C   0  0  0  0  0  0  0  0  0  0  0  0
    0.1505    2.0128    2.5834 O   0  0  0  0  0  0  0  0  0  0  0  0
   -1.3040    0.8252    1.1729 C   0  0  0  0  0  0  0  0  0  0  0  0
   -1.5610    0.3413   -0.0519 C   0  0  0  0  0  0  0  0  0  0  0  0
   -2.9112    0.0099   -0.5272 C   0  0  0  0  0  0  0  0  0  0  0  0
   -3.0799   -1.1116   -1.3510 C   0  0  0  0  0  0  0  0  0  0  0  0
   -4.3429   -1.4468   -1.8479 C   0  0  0  0  0  0  0  0  0  0  0  0
   -5.4432   -0.6539   -1.5317 C   0  0  0  0  0  0  0  0  0  0  0  0
   -6.9975   -1.0641   -2.1439 Cl  0  0  0  0  0  0  0  0  0  0  0  0
   -5.2902    0.4725   -0.7273 C   0  0  0  0  0  0  0  0  0  0  0  0
   -4.0263    0.8062   -0.2307 C   0  0  0  0  0  0  0  0  0  0  0  0
    1.4785   -0.7358    0.8879 C   0  0  0  0  0  0  0  0  0  0  0  0
    0.5383   -1.6361    1.3036 O   0  0  0  0  0  0  0  0  0  0  0  0
    2.6641   -1.1963    0.3121 C   0  0  0  0  0  0  0  0  0  0  0  0
    6.6287   -0.6275   -1.4352 H   0  0  0  0  0  0  0  0  0  0  0  0
    5.4969    0.6765   -1.8148 H   0  0  0  0  0  0  0  0  0  0  0  0
    6.2263    0.5370   -0.1672 H   0  0  0  0  0  0  0  0  0  0  0  0
    4.2130    1.8071   -0.1681 H   0  0  0  0  0  0  0  0  0  0  0  0
    2.1327    2.6040    0.8453 H   0  0  0  0  0  0  0  0  0  0  0  0
   -2.0957    1.0308    1.8863 H   0  0  0  0  0  0  0  0  0  0  0  0
   -0.7602    0.1522   -0.7616 H   0  0  0  0  0  0  0  0  0  0  0  0
   -2.2296   -1.7411   -1.6054 H   0  0  0  0  0  0  0  0  0  0  0  0
   -4.4589   -2.3239   -2.4787 H   0  0  0  0  0  0  0  0  0  0  0  0
   -6.1456    1.0980   -0.4861 H   0  0  0  0  0  0  0  0  0  0  0  0
   -3.9247    1.7003    0.3805 H   0  0  0  0  0  0  0  0  0  0  0  0
    0.9006   -2.5355    1.2313 H   0  0  0  0  0  0  0  0  0  0  0  0
    2.8381   -2.2590    0.1670 H   0  0  0  0  0  0  0  0  0  0  0  0
  1  2  1  0
  2  3  1  0
  3  4  2  0
  4  5  1  0
  5  6  2  0
  6  7  1  0
  7  8  2  0
  7  9  1  0
  9 10  2  0
 10 11  1  0
 11 12  2  0
 12 13  1  0
 13 14  2  0
 14 15  1  0
 14 16  1  0
 16 17  2  0
  6 18  1  0
 18 19  1  0
 18 20  2  0
 20  3  1  0
 17 11  1  0
  1 21  1  0
  1 22  1  0
  1 23  1  0
  4 24  1  0
  5 25  1  0
  9 26  1  0
 10 27  1  0
 12 28  1  0
 13 29  1  0
 16 30  1  0
 17 31  1  0
 19 32  1  0
 20 33  1  0
M  END
$$$$
