
     RDKit          3D

 48 52  0  0  0  0  0  0  0  0999 V2000
    7.0432    3.1896    0.6620 C   0  0  0  0  0  0  0  0  0  0  0  0
    5.9827    2.2140    0.6532 N   0  0  0  0  0  0  0  0  0  0  0  0
    5.7139    1.4568   -0.4650 C   0  0  0  0  0  0  0  0  0  0  0  0
    6.3930    1.5124   -1.4857 O   0  0  0  0  0  0  0  0  0  0  0  0
    4.5416    0.5380   -0.4133 C   0  0  0  0  0  0  0  0  0  0  0  0
    4.2668   -0.2528   -1.5404 C   0  0  0  0  0  0  0  0  0  0  0  0
    3.1805   -1.1374   -1.5508 C   0  0  0  0  0  0  0  0  0  0  0  0
    2.3584   -1.2475   -0.4249 C   0  0  0  0  0  0  0  0  0  0  0  0
    1.1873   -2.1630   -0.3902 C   0  0  0  0  0  0  0  0  0  0  0  0
    1.2080   -3.4332   -1.2244 C   0  0  0  0  0  0  0  0  0  0  0  0
    0.2202   -4.2681   -1.2735 N   0  0  0  0  0  0  0  0  0  0  0  0
   -0.8515   -3.9315   -0.5080 C   0  0  0  0  0  0  0  0  0  0  0  0
   -1.9882   -4.5802   -0.3576 N   0  0  0  0  0  0  0  0  0  0  0  0
   -2.7326   -3.8351    0.5176 C   0  0  0  0  0  0  0  0  0  0  0  0
   -2.0509   -2.7088    0.9237 C   0  0  0  0  0  0  0  0  0  0  0  0
   -2.4280   -1.6066    1.8442 C   0  0  0  0  0  0  0  0  0  0  0  0
   -2.9764   -0.4005    1.1169 C   0  0  0  0  0  0  0  0  0  0  0  0
   -2.1518    0.6880    0.8196 C   0  0  0  0  0  0  0  0  0  0  0  0
   -2.6603    1.7940    0.1302 C   0  0  0  0  0  0  0  0  0  0  0  0
   -3.9824    1.8514   -0.2857 C   0  0  0  0  0  0  0  0  0  0  0  0
   -4.4220    2.9380   -0.9461 N   0  0  0  0  0  0  0  0  0  0  0  0
   -5.7138    2.9583   -1.3417 C   0  0  0  0  0  0  0  0  0  0  0  0
   -6.6088    1.9316   -1.1082 C   0  0  0  0  0  0  0  0  0  0  0  0
   -6.1514    0.8118   -0.4246 C   0  0  0  0  0  0  0  0  0  0  0  0
   -4.8184    0.7525    0.0031 C   0  0  0  0  0  0  0  0  0  0  0  0
   -4.3127   -0.3619    0.6979 C   0  0  0  0  0  0  0  0  0  0  0  0
   -0.8460   -2.7769    0.2716 N   0  0  0  0  0  0  0  0  0  0  0  0
    0.1686   -1.8694    0.3680 N   0  0  0  0  0  0  0  0  0  0  0  0
    2.6185   -0.4496    0.6960 C   0  0  0  0  0  0  0  0  0  0  0  0
    3.7020    0.4289    0.6955 C   0  0  0  0  0  0  0  0  0  0  0  0
    3.9070    1.1678    1.7969 F   0  0  0  0  0  0  0  0  0  0  0  0
    7.2922    3.4236    1.6996 H   0  0  0  0  0  0  0  0  0  0  0  0
    6.6917    4.0911    0.1534 H   0  0  0  0  0  0  0  0  0  0  0  0
    7.9245    2.7998    0.1456 H   0  0  0  0  0  0  0  0  0  0  0  0
    5.3349    2.2041    1.4334 H   0  0  0  0  0  0  0  0  0  0  0  0
    4.8986   -0.1751   -2.4257 H   0  0  0  0  0  0  0  0  0  0  0  0
    2.9910   -1.7006   -2.4613 H   0  0  0  0  0  0  0  0  0  0  0  0
    2.1278   -3.6392   -1.7902 H   0  0  0  0  0  0  0  0  0  0  0  0
   -3.7268   -4.1494    0.8093 H   0  0  0  0  0  0  0  0  0  0  0  0
   -1.5704   -1.3117    2.4624 H   0  0  0  0  0  0  0  0  0  0  0  0
   -3.1840   -1.9622    2.5568 H   0  0  0  0  0  0  0  0  0  0  0  0
   -1.1049    0.6837    1.1148 H   0  0  0  0  0  0  0  0  0  0  0  0
   -2.0057    2.6331   -0.0924 H   0  0  0  0  0  0  0  0  0  0  0  0
   -6.0188    3.8562   -1.8716 H   0  0  0  0  0  0  0  0  0  0  0  0
   -7.6350    2.0007   -1.4499 H   0  0  0  0  0  0  0  0  0  0  0  0
   -6.8345   -0.0105   -0.2293 H   0  0  0  0  0  0  0  0  0  0  0  0
   -4.9647   -1.2073    0.9087 H   0  0  0  0  0  0  0  0  0  0  0  0
    1.9880   -0.5012    1.5804 H   0  0  0  0  0  0  0  0  0  0  0  0
  1  2  1  0
  2  3  1  0
  3  4  2  0
  3  5  1  0
  5  6  2  0
  6  7  1  0
  7  8  2  0
  8  9  1  0
  9 10  1  0
 10 11  2  0
 11 12  1  0
 12 13  2  0
 13 14  1  0
 14 15  2  0
 15 16  1  0
 16 17  1  0
 17 18  2  0
 18 19  1  0
 19 20  2  0
 20 21  1  0
 21 22  2  0
 22 23  1  0
 23 24  2  0
 24 25  1  0
 25 26  2  0
 15 27  1  0
 27 28  1  0
  8 29  1  0
 29 30  2  0
 30 31  1  0
 30  5  1  0
 28  9  2  0
 27 12  1  0
 26 17  1  0
 25 20  1  0
  1 32  1  0
  1 33  1  0
  1 34  1  0
  2 35  1  0
  6 36  1  0
  7 37  1  0
 10 38  1  0
 14 39  1  0
 16 40  1  0
 16 41  1  0
 18 42  1  0
 19 43  1  0
 22 44  1  0
 23 45  1  0
 24 46  1  0
 26 47  1  0
 29 48  1  0
M  END
$$$$
