
     RDKit          3D

 44 47  0  0  0  0  0  0  0  0999 V2000
   -5.9466    1.1113   -0.4200 C   0  0  0  0  0  0  0  0  0  0  0  0
   -4.9817   -0.0804   -0.4175 C   0  0  0  0  0  0  0  0  0  0  0  0
   -5.7791   -1.3897   -0.3879 C   0  0  0  0  0  0  0  0  0  0  0  0
   -4.1374   -0.0384   -1.6681 C   0  0  0  0  0  0  0  0  0  0  0  0
   -2.8030    0.0143   -1.6499 C   0  0  0  0  0  0  0  0  0  0  0  0
   -2.1239    0.0303   -0.3587 C   0  0  0  0  0  0  0  0  0  0  0  0
   -2.8945    0.0150    0.8078 C   0  0  0  0  0  0  0  0  0  0  0  0
   -2.2797    0.0355    2.0602 C   0  0  0  0  0  0  0  0  0  0  0  0
   -0.8901    0.0602    2.1610 C   0  0  0  0  0  0  0  0  0  0  0  0
   -0.0981    0.0650    1.0061 C   0  0  0  0  0  0  0  0  0  0  0  0
   -0.7196    0.0716   -0.2539 C   0  0  0  0  0  0  0  0  0  0  0  0
    0.0021    0.0803   -1.4255 O   0  0  0  0  0  0  0  0  0  0  0  0
    1.3607    0.5126   -1.2900 C   0  0  0  0  0  0  0  0  0  0  0  0
    2.0860   -0.2542   -0.1821 C   0  0  1  0  0  0  0  0  0  0  0  0
    3.5845   -0.0100   -0.0980 C   0  0  0  0  0  0  0  0  0  0  0  0
    4.1483    1.2434   -0.3899 C   0  0  0  0  0  0  0  0  0  0  0  0
    5.5268    1.4485   -0.2922 C   0  0  0  0  0  0  0  0  0  0  0  0
    6.3542    0.4079    0.1070 C   0  0  0  0  0  0  0  0  0  0  0  0
    7.6921    0.6593    0.1868 O   0  0  0  0  0  0  0  0  0  0  0  0
    5.8276   -0.8396    0.4191 C   0  0  0  0  0  0  0  0  0  0  0  0
    4.4486   -1.0361    0.3195 C   0  0  0  0  0  0  0  0  0  0  0  0
    3.9124   -2.2524    0.6432 O   0  0  0  0  0  0  0  0  0  0  0  0
    1.4012    0.0862    1.1439 C   0  0  0  0  0  0  0  0  0  0  0  0
   -4.2609   -0.0122    0.8289 O   0  0  0  0  0  0  0  0  0  0  0  0
   -6.5806    1.1025    0.4745 H   0  0  0  0  0  0  0  0  0  0  0  0
   -5.3958    2.0595   -0.3972 H   0  0  0  0  0  0  0  0  0  0  0  0
   -6.5965    1.1124   -1.3020 H   0  0  0  0  0  0  0  0  0  0  0  0
   -5.1072   -2.2552   -0.3409 H   0  0  0  0  0  0  0  0  0  0  0  0
   -6.4207   -1.5001   -1.2691 H   0  0  0  0  0  0  0  0  0  0  0  0
   -6.4109   -1.4420    0.5066 H   0  0  0  0  0  0  0  0  0  0  0  0
   -4.6515   -0.0574   -2.6252 H   0  0  0  0  0  0  0  0  0  0  0  0
   -2.2185    0.0396   -2.5624 H   0  0  0  0  0  0  0  0  0  0  0  0
   -2.8890    0.0275    2.9601 H   0  0  0  0  0  0  0  0  0  0  0  0
   -0.4279    0.0688    3.1456 H   0  0  0  0  0  0  0  0  0  0  0  0
    1.8481    0.3328   -2.2552 H   0  0  0  0  0  0  0  0  0  0  0  0
    1.3629    1.5979   -1.1273 H   0  0  0  0  0  0  0  0  0  0  0  0
    1.9124   -1.3193   -0.3929 H   0  0  0  0  0  0  0  0  0  0  0  0
    3.5289    2.0845   -0.6899 H   0  0  0  0  0  0  0  0  0  0  0  0
    5.9518    2.4215   -0.5240 H   0  0  0  0  0  0  0  0  0  0  0  0
    8.1499   -0.1490    0.4692 H   0  0  0  0  0  0  0  0  0  0  0  0
    6.4778   -1.6451    0.7398 H   0  0  0  0  0  0  0  0  0  0  0  0
    4.6258   -2.8648    0.8850 H   0  0  0  0  0  0  0  0  0  0  0  0
    1.7142   -0.6294    1.9148 H   0  0  0  0  0  0  0  0  0  0  0  0
    1.6968    1.0868    1.4861 H   0  0  0  0  0  0  0  0  0  0  0  0
  1  2  1  0
  2  3  1  0
  2  4  1  0
  4  5  2  0
  5  6  1  0
  6  7  2  0
  7  8  1  0
  8  9  2  0
  9 10  1  0
 10 11  2  0
 11 12  1  0
 12 13  1  0
 13 14  1  0
 14 15  1  0
 15 16  2  0
 16 17  1  0
 17 18  2  0
 18 19  1  0
 18 20  1  0
 20 21  2  0
 21 22  1  0
 14 23  1  0
  7 24  1  0
 24  2  1  0
 11  6  1  0
 21 15  1  0
 23 10  1  0
  1 25  1  0
  1 26  1  0
  1 27  1  0
  3 28  1  0
  3 29  1  0
  3 30  1  0
  4 31  1  0
  5 32  1  0
  8 33  1  0
  9 34  1  0
 13 35  1  0
 13 36  1  0
 14 37  1  6
 16 38  1  0
 17 39  1  0
 19 40  1  0
 20 41  1  0
 22 42  1  0
 23 43  1  0
 23 44  1  0
M  END
$$$$
