
     RDKit          3D

 37 38  0  0  0  0  0  0  0  0999 V2000
   -5.6323    0.3088   -0.8539 O   0  0  0  0  0  0  0  0  0  0  0  0
   -4.5727   -0.0611   -0.3553 C   0  0  0  0  0  0  0  0  0  0  0  0
   -4.4806   -1.2247    0.3799 N   0  0  0  0  0  0  0  0  0  0  0  0
   -5.6589   -2.0133    0.3722 O   0  0  0  0  0  0  0  0  0  0  0  0
   -3.3100    0.6960   -0.5668 C   0  0  0  0  0  0  0  0  0  0  0  0
   -3.2235    1.5392   -1.6829 C   0  0  0  0  0  0  0  0  0  0  0  0
   -2.0672    2.2840   -1.9140 C   0  0  0  0  0  0  0  0  0  0  0  0
   -0.9941    2.1921   -1.0283 C   0  0  0  0  0  0  0  0  0  0  0  0
   -1.0708    1.3529    0.0909 C   0  0  0  0  0  0  0  0  0  0  0  0
    0.0926    1.3127    1.0180 C   0  0  0  0  0  0  0  0  0  0  0  0
    0.8056    2.3015    1.1419 O   0  0  0  0  0  0  0  0  0  0  0  0
    0.3105    0.1178    1.6734 N   0  0  0  0  0  0  0  0  0  0  0  0
    1.4952   -0.0951    2.4893 C   0  0  0  0  0  0  0  0  0  0  0  0
    2.4162   -1.1843    1.9207 C   0  0  0  0  0  0  0  0  0  0  0  0
    2.9150   -0.9721    0.5086 C   0  0  0  0  0  0  0  0  0  0  0  0
    2.9716   -2.0594   -0.3772 C   0  0  0  0  0  0  0  0  0  0  0  0
    3.4482   -1.8958   -1.6796 C   0  0  0  0  0  0  0  0  0  0  0  0
    3.8841   -0.6456   -2.1106 C   0  0  0  0  0  0  0  0  0  0  0  0
    3.8500    0.4384   -1.2373 C   0  0  0  0  0  0  0  0  0  0  0  0
    3.3764    0.2750    0.0664 C   0  0  0  0  0  0  0  0  0  0  0  0
   -2.2359    0.6112    0.3308 C   0  0  0  0  0  0  0  0  0  0  0  0
   -3.6136   -1.7467    0.4366 H   0  0  0  0  0  0  0  0  0  0  0  0
   -6.2864   -1.4481   -0.1324 H   0  0  0  0  0  0  0  0  0  0  0  0
   -4.0617    1.6236   -2.3733 H   0  0  0  0  0  0  0  0  0  0  0  0
   -2.0049    2.9416   -2.7781 H   0  0  0  0  0  0  0  0  0  0  0  0
   -0.0956    2.7813   -1.2069 H   0  0  0  0  0  0  0  0  0  0  0  0
   -0.2130   -0.7006    1.3998 H   0  0  0  0  0  0  0  0  0  0  0  0
    1.1383   -0.4120    3.4756 H   0  0  0  0  0  0  0  0  0  0  0  0
    2.0397    0.8441    2.6292 H   0  0  0  0  0  0  0  0  0  0  0  0
    3.2882   -1.2945    2.5770 H   0  0  0  0  0  0  0  0  0  0  0  0
    1.8705   -2.1363    1.9634 H   0  0  0  0  0  0  0  0  0  0  0  0
    2.6459   -3.0473   -0.0591 H   0  0  0  0  0  0  0  0  0  0  0  0
    3.4834   -2.7455   -2.3562 H   0  0  0  0  0  0  0  0  0  0  0  0
    4.2557   -0.5164   -3.1234 H   0  0  0  0  0  0  0  0  0  0  0  0
    4.1934    1.4156   -1.5674 H   0  0  0  0  0  0  0  0  0  0  0  0
    3.3643    1.1409    0.7256 H   0  0  0  0  0  0  0  0  0  0  0  0
   -2.3236    0.0221    1.2384 H   0  0  0  0  0  0  0  0  0  0  0  0
  1  2  2  0
  2  3  1  0
  3  4  1  0
  2  5  1  0
  5  6  2  0
  6  7  1  0
  7  8  2  0
  8  9  1  0
  9 10  1  0
 10 11  2  0
 10 12  1  0
 12 13  1  0
 13 14  1  0
 14 15  1  0
 15 16  2  0
 16 17  1  0
 17 18  2  0
 18 19  1  0
 19 20  2  0
  9 21  2  0
 21  5  1  0
 20 15  1  0
  3 22  1  0
  4 23  1  0
  6 24  1  0
  7 25  1  0
  8 26  1  0
 12 27  1  0
 13 28  1  0
 13 29  1  0
 14 30  1  0
 14 31  1  0
 16 32  1  0
 17 33  1  0
 18 34  1  0
 19 35  1  0
 20 36  1  0
 21 37  1  0
M  END
$$$$
