
     RDKit          3D

 39 41  0  0  0  0  0  0  0  0999 V2000
   -2.1318    1.0155   -2.4400 O   0  0  0  0  0  0  0  0  0  0  0  0
   -2.4102    0.6202   -1.3149 C   0  0  0  0  0  0  0  0  0  0  0  0
   -1.5434    0.0745   -0.3855 N   0  0  0  0  0  0  0  0  0  0  0  0
   -0.1738   -0.2167   -0.5645 C   0  0  0  0  0  0  0  0  0  0  0  0
    0.5035   -0.0735   -1.7774 C   0  0  0  0  0  0  0  0  0  0  0  0
    1.8634   -0.3898   -1.8724 C   0  0  0  0  0  0  0  0  0  0  0  0
    2.5577   -0.8380   -0.7515 C   0  0  0  0  0  0  0  0  0  0  0  0
    3.8835   -1.1624   -0.9225 O   0  0  0  0  0  0  0  0  0  0  0  0
    4.7696   -0.7127    0.0300 C   0  0  0  0  0  0  0  0  0  0  0  0
    5.7042   -1.6297    0.5113 C   0  0  0  0  0  0  0  0  0  0  0  0
    6.6506   -1.2274    1.4541 C   0  0  0  0  0  0  0  0  0  0  0  0
    6.6706    0.0942    1.9017 C   0  0  0  0  0  0  0  0  0  0  0  0
    5.7503    1.0166    1.4020 C   0  0  0  0  0  0  0  0  0  0  0  0
    4.8025    0.6168    0.4589 C   0  0  0  0  0  0  0  0  0  0  0  0
    1.8872   -1.0110    0.4589 C   0  0  0  0  0  0  0  0  0  0  0  0
    0.5284   -0.6950    0.5509 C   0  0  0  0  0  0  0  0  0  0  0  0
   -3.8217    0.7652   -0.8557 C   0  0  0  0  0  0  0  0  0  0  0  0
   -4.5647    1.8597   -1.3227 C   0  0  0  0  0  0  0  0  0  0  0  0
   -5.8938    2.0355   -0.9307 C   0  0  0  0  0  0  0  0  0  0  0  0
   -6.4957    1.1133   -0.0747 C   0  0  0  0  0  0  0  0  0  0  0  0
   -5.7589    0.0105    0.3780 C   0  0  0  0  0  0  0  0  0  0  0  0
   -6.3912   -0.9655    1.2736 N   0  0  0  0  0  4  0  0  0  0  0  0
   -5.6600   -1.8208    1.7929 O   0  0  0  0  0  0  0  0  0  0  0  0
   -7.6113   -0.8704    1.4629 O   0  0  0  0  0  1  0  0  0  0  0  0
   -4.4238   -0.1752   -0.0113 C   0  0  0  0  0  0  0  0  0  0  0  0
   -1.8967   -0.0795    0.5494 H   0  0  0  0  0  0  0  0  0  0  0  0
    0.0023    0.2748   -2.6750 H   0  0  0  0  0  0  0  0  0  0  0  0
    2.3772   -0.2804   -2.8238 H   0  0  0  0  0  0  0  0  0  0  0  0
    5.6923   -2.6559    0.1547 H   0  0  0  0  0  0  0  0  0  0  0  0
    7.3752   -1.9421    1.8353 H   0  0  0  0  0  0  0  0  0  0  0  0
    7.4105    0.4081    2.6338 H   0  0  0  0  0  0  0  0  0  0  0  0
    5.7760    2.0489    1.7409 H   0  0  0  0  0  0  0  0  0  0  0  0
    4.1021    1.3446    0.0590 H   0  0  0  0  0  0  0  0  0  0  0  0
    2.4099   -1.3953    1.3304 H   0  0  0  0  0  0  0  0  0  0  0  0
    0.0310   -0.8336    1.5072 H   0  0  0  0  0  0  0  0  0  0  0  0
   -4.1047    2.5805   -1.9985 H   0  0  0  0  0  0  0  0  0  0  0  0
   -6.4587    2.8900   -1.2983 H   0  0  0  0  0  0  0  0  0  0  0  0
   -7.5326    1.2626    0.2217 H   0  0  0  0  0  0  0  0  0  0  0  0
   -3.8750   -1.0565    0.3119 H   0  0  0  0  0  0  0  0  0  0  0  0
  1  2  2  0
  2  3  1  0
  3  4  1  0
  4  5  2  0
  5  6  1  0
  6  7  2  0
  7  8  1  0
  8  9  1  0
  9 10  2  0
 10 11  1  0
 11 12  2  0
 12 13  1  0
 13 14  2  0
  7 15  1  0
 15 16  2  0
  2 17  1  0
 17 18  2  0
 18 19  1  0
 19 20  2  0
 20 21  1  0
 21 22  1  0
 22 23  2  0
 22 24  1  0
 21 25  2  0
 16  4  1  0
 25 17  1  0
 14  9  1  0
  3 26  1  0
  5 27  1  0
  6 28  1  0
 10 29  1  0
 11 30  1  0
 12 31  1  0
 13 32  1  0
 14 33  1  0
 15 34  1  0
 16 35  1  0
 18 36  1  0
 19 37  1  0
 20 38  1  0
 25 39  1  0
M  CHG  2  22   1  24  -1
M  END
$$$$
