
     RDKit          3D

 54 57  0  0  0  0  0  0  0  0999 V2000
    6.9693    2.7886   -1.8942 C   0  0  0  0  0  0  0  0  0  0  0  0
    6.6540    1.5084   -2.4271 O   0  0  0  0  0  0  0  0  0  0  0  0
    5.8405    0.7064   -1.6755 C   0  0  0  0  0  0  0  0  0  0  0  0
    5.5876   -0.5516   -2.2332 C   0  0  0  0  0  0  0  0  0  0  0  0
    4.7708   -1.4724   -1.5740 C   0  0  0  0  0  0  0  0  0  0  0  0
    4.1868   -1.1258   -0.3547 C   0  0  0  0  0  0  0  0  0  0  0  0
    3.3314   -2.1175    0.3357 C   0  0  0  0  0  0  0  0  0  0  0  0
    3.7851   -3.2443    0.5185 O   0  0  0  0  0  0  0  0  0  0  0  0
    2.0584   -1.7374    0.7460 N   0  0  0  0  0  0  0  0  0  0  0  0
    1.3402   -0.5506    0.2621 C   0  0  0  0  0  0  0  0  0  0  0  0
   -0.1685   -0.8030    0.1322 C   0  0  0  0  0  0  0  0  0  0  0  0
   -0.7877   -1.2458    1.4238 N   0  0  0  0  0  0  0  0  0  0  0  0
   -1.6759   -0.0573    2.2646 S   0  0  0  0  0  6  0  0  0  0  0  0
   -2.1947   -0.6444    3.4801 O   0  0  0  0  0  0  0  0  0  0  0  0
   -0.8420    1.1264    2.3059 O   0  0  0  0  0  0  0  0  0  0  0  0
   -3.0580    0.2535    1.1765 C   0  0  0  0  0  0  0  0  0  0  0  0
   -3.1485    1.5253    0.5897 C   0  0  0  0  0  0  0  0  0  0  0  0
   -4.2073    1.8285   -0.2616 C   0  0  0  0  0  0  0  0  0  0  0  0
   -5.1771    0.8647   -0.5316 C   0  0  0  0  0  0  0  0  0  0  0  0
   -5.0956   -0.4019    0.0517 C   0  0  0  0  0  0  0  0  0  0  0  0
   -4.0356   -0.7291    0.9174 C   0  0  0  0  0  0  0  0  0  0  0  0
   -4.0197   -2.0958    1.5453 C   0  0  0  0  0  0  0  0  0  0  0  0
   -6.2254    1.1502   -1.4039 N   0  0  0  0  0  0  0  0  0  0  0  0
   -6.3841    2.3904   -1.9546 C   0  0  0  0  0  0  0  0  0  0  0  0
   -7.2919    2.6262   -2.7479 O   0  0  0  0  0  0  0  0  0  0  0  0
   -5.4023    3.4542   -1.4652 C   0  0  0  0  0  0  0  0  0  0  0  0
   -4.1947    3.0742   -0.8221 O   0  0  0  0  0  0  0  0  0  0  0  0
    0.1524   -2.0087    2.3139 C   0  0  0  0  0  0  0  0  0  0  0  0
    1.2685   -2.6952    1.5216 C   0  0  0  0  0  0  0  0  0  0  0  0
    4.4537    0.1196    0.2230 C   0  0  0  0  0  0  0  0  0  0  0  0
    5.2756    1.0366   -0.4416 C   0  0  0  0  0  0  0  0  0  0  0  0
    7.5141    2.6992   -0.9486 H   0  0  0  0  0  0  0  0  0  0  0  0
    6.0683    3.3993   -1.7755 H   0  0  0  0  0  0  0  0  0  0  0  0
    7.6232    3.2968   -2.6092 H   0  0  0  0  0  0  0  0  0  0  0  0
    6.0390   -0.8185   -3.1861 H   0  0  0  0  0  0  0  0  0  0  0  0
    4.5947   -2.4537   -2.0082 H   0  0  0  0  0  0  0  0  0  0  0  0
    1.7385   -0.2408   -0.7087 H   0  0  0  0  0  0  0  0  0  0  0  0
    1.5260    0.2522    0.9838 H   0  0  0  0  0  0  0  0  0  0  0  0
   -0.6553    0.0962   -0.2564 H   0  0  0  0  0  0  0  0  0  0  0  0
   -0.3548   -1.5955   -0.6035 H   0  0  0  0  0  0  0  0  0  0  0  0
   -2.3992    2.2886    0.7905 H   0  0  0  0  0  0  0  0  0  0  0  0
   -5.8638   -1.1428   -0.1618 H   0  0  0  0  0  0  0  0  0  0  0  0
   -4.7858   -2.7433    1.1042 H   0  0  0  0  0  0  0  0  0  0  0  0
   -4.2309   -2.0266    2.6164 H   0  0  0  0  0  0  0  0  0  0  0  0
   -3.0619   -2.5966    1.3844 H   0  0  0  0  0  0  0  0  0  0  0  0
   -6.9008    0.4444   -1.6659 H   0  0  0  0  0  0  0  0  0  0  0  0
   -5.9519    4.1105   -0.7803 H   0  0  0  0  0  0  0  0  0  0  0  0
   -5.1184    4.0517   -2.3384 H   0  0  0  0  0  0  0  0  0  0  0  0
    0.6056   -1.3258    3.0430 H   0  0  0  0  0  0  0  0  0  0  0  0
   -0.4248   -2.7644    2.8574 H   0  0  0  0  0  0  0  0  0  0  0  0
    1.9278   -3.2459    2.2018 H   0  0  0  0  0  0  0  0  0  0  0  0
    0.8466   -3.4174    0.8120 H   0  0  0  0  0  0  0  0  0  0  0  0
    4.0384    0.3758    1.1945 H   0  0  0  0  0  0  0  0  0  0  0  0
    5.4602    1.9947    0.0337 H   0  0  0  0  0  0  0  0  0  0  0  0
  1  2  1  0
  2  3  1  0
  3  4  2  0
  4  5  1  0
  5  6  2  0
  6  7  1  0
  7  8  2  0
  7  9  1  0
  9 10  1  0
 10 11  1  0
 11 12  1  0
 12 13  1  0
 13 14  2  0
 13 15  2  0
 13 16  1  0
 16 17  2  0
 17 18  1  0
 18 19  2  0
 19 20  1  0
 20 21  2  0
 21 22  1  0
 19 23  1  0
 23 24  1  0
 24 25  2  0
 24 26  1  0
 26 27  1  0
 12 28  1  0
 28 29  1  0
  6 30  1  0
 30 31  2  0
 31  3  1  0
 29  9  1  0
 21 16  1  0
 27 18  1  0
  1 32  1  0
  1 33  1  0
  1 34  1  0
  4 35  1  0
  5 36  1  0
 10 37  1  0
 10 38  1  0
 11 39  1  0
 11 40  1  0
 17 41  1  0
 20 42  1  0
 22 43  1  0
 22 44  1  0
 22 45  1  0
 23 46  1  0
 26 47  1  0
 26 48  1  0
 28 49  1  0
 28 50  1  0
 29 51  1  0
 29 52  1  0
 30 53  1  0
 31 54  1  0
M  END
$$$$
