
     RDKit          3D

 40 41  0  0  0  0  0  0  0  0999 V2000
    7.1916   -0.1356    0.0863 C   0  0  0  0  0  0  0  0  0  0  0  0
    6.5599    0.6300    1.1053 O   0  0  0  0  0  0  0  0  0  0  0  0
    5.1434    0.4429    1.1364 C   0  0  0  0  0  0  0  0  0  0  0  0
    4.4362    1.3027    0.0843 C   0  0  0  0  0  0  0  0  0  0  0  0
    2.9916    1.2838    0.2156 N   0  0  0  0  0  0  0  0  0  0  0  0
    2.2463    0.2012   -0.1972 C   0  0  0  0  0  0  0  0  0  0  0  0
    2.7398   -0.7966   -0.7100 O   0  0  0  0  0  0  0  0  0  0  0  0
    0.7655    0.3698    0.0514 C   0  0  0  0  0  0  0  0  0  0  0  0
   -0.0113   -0.8478   -0.4352 C   0  0  0  0  0  0  0  0  0  0  0  0
   -1.4372   -0.6985   -0.2030 N   0  0  0  0  0  0  0  0  0  0  0  0
   -2.3000   -0.0914   -1.0883 C   0  0  0  0  0  0  0  0  0  0  0  0
   -2.0195    0.5129   -2.1080 O   0  0  0  0  0  0  0  0  0  0  0  0
   -3.6786   -0.3771   -0.5721 C   0  0  0  0  0  0  0  0  0  0  0  0
   -4.8151    0.5716   -0.8930 C   0  0  0  0  0  0  0  0  0  0  0  0
   -5.9802    0.2878    0.0335 C   0  0  0  0  0  0  0  0  0  0  0  0
   -5.8809   -0.4641    1.1487 C   0  0  0  0  0  0  0  0  0  0  0  0
   -4.5784   -1.0564    1.6476 C   0  0  0  0  0  0  0  0  0  0  0  0
   -3.4211   -0.3960    0.9272 C   0  0  0  0  0  0  0  0  0  0  0  0
   -2.0562   -1.0180    0.9857 C   0  0  0  0  0  0  0  0  0  0  0  0
   -1.5706   -1.5877    1.9474 O   0  0  0  0  0  0  0  0  0  0  0  0
    6.8574    0.1807   -0.9054 H   0  0  0  0  0  0  0  0  0  0  0  0
    6.9959   -1.2026    0.2295 H   0  0  0  0  0  0  0  0  0  0  0  0
    8.2702    0.0305    0.1545 H   0  0  0  0  0  0  0  0  0  0  0  0
    4.8074    0.7525    2.1327 H   0  0  0  0  0  0  0  0  0  0  0  0
    4.8910   -0.6193    1.0359 H   0  0  0  0  0  0  0  0  0  0  0  0
    4.6982    0.9654   -0.9243 H   0  0  0  0  0  0  0  0  0  0  0  0
    4.7622    2.3451    0.1678 H   0  0  0  0  0  0  0  0  0  0  0  0
    2.5416    2.0468    0.7055 H   0  0  0  0  0  0  0  0  0  0  0  0
    0.6052    0.5180    1.1258 H   0  0  0  0  0  0  0  0  0  0  0  0
    0.4227    1.2720   -0.4686 H   0  0  0  0  0  0  0  0  0  0  0  0
    0.3317   -1.7490    0.0865 H   0  0  0  0  0  0  0  0  0  0  0  0
    0.1499   -0.9956   -1.5095 H   0  0  0  0  0  0  0  0  0  0  0  0
   -3.9369   -1.3846   -0.9354 H   0  0  0  0  0  0  0  0  0  0  0  0
   -4.5087    1.6186   -0.7873 H   0  0  0  0  0  0  0  0  0  0  0  0
   -5.1299    0.4321   -1.9333 H   0  0  0  0  0  0  0  0  0  0  0  0
   -6.9446    0.7071   -0.2463 H   0  0  0  0  0  0  0  0  0  0  0  0
   -6.7689   -0.6531    1.7486 H   0  0  0  0  0  0  0  0  0  0  0  0
   -4.4870   -0.8874    2.7265 H   0  0  0  0  0  0  0  0  0  0  0  0
   -4.5841   -2.1411    1.4910 H   0  0  0  0  0  0  0  0  0  0  0  0
   -3.2984    0.6303    1.3089 H   0  0  0  0  0  0  0  0  0  0  0  0
  1  2  1  0
  2  3  1  0
  3  4  1  0
  4  5  1  0
  5  6  1  0
  6  7  2  0
  6  8  1  0
  8  9  1  0
  9 10  1  0
 10 11  1  0
 11 12  2  0
 11 13  1  0
 13 14  1  0
 14 15  1  0
 15 16  2  0
 16 17  1  0
 17 18  1  0
 18 19  1  0
 19 20  2  0
 19 10  1  0
 18 13  1  0
  1 21  1  0
  1 22  1  0
  1 23  1  0
  3 24  1  0
  3 25  1  0
  4 26  1  0
  4 27  1  0
  5 28  1  0
  8 29  1  0
  8 30  1  0
  9 31  1  0
  9 32  1  0
 13 33  1  0
 14 34  1  0
 14 35  1  0
 15 36  1  0
 16 37  1  0
 17 38  1  0
 17 39  1  0
 18 40  1  0
M  END
$$$$
