
     RDKit          3D

 47 48  0  0  0  0  0  0  0  0999 V2000
   -6.5517    0.9509    1.8863 C   0  0  0  0  0  0  0  0  0  0  0  0
   -5.4579    0.7296    0.8853 C   0  0  0  0  0  0  0  0  0  0  0  0
   -5.7184    0.0638   -0.3208 C   0  0  0  0  0  0  0  0  0  0  0  0
   -4.7116   -0.1063   -1.2827 C   0  0  0  0  0  0  0  0  0  0  0  0
   -5.0030   -0.8403   -2.5582 C   0  0  0  0  0  0  0  0  0  0  0  0
   -3.4252    0.3799   -1.0193 C   0  0  0  0  0  0  0  0  0  0  0  0
   -3.1576    1.0387    0.1837 C   0  0  0  0  0  0  0  0  0  0  0  0
   -1.9267    1.5812    0.4837 O   0  0  0  0  0  0  0  0  0  0  0  0
   -0.8178    0.8098    0.2086 C   0  0  0  0  0  0  0  0  0  0  0  0
   -0.6882   -0.4760    0.7419 C   0  0  0  0  0  0  0  0  0  0  0  0
    0.4597   -1.2254    0.4846 C   0  0  0  0  0  0  0  0  0  0  0  0
    1.4900   -0.6938   -0.3014 C   0  0  0  0  0  0  0  0  0  0  0  0
    2.7425   -1.4883   -0.5582 C   0  0  0  0  0  0  0  0  0  0  0  0
    3.8045   -1.0674    0.3243 N   0  0  0  0  0  0  0  0  0  0  0  0
    5.0738   -1.5813    0.1904 C   0  0  0  0  0  0  0  0  0  0  0  0
    5.3861   -2.3608   -0.7087 O   0  0  0  0  0  0  0  0  0  0  0  0
    6.0713   -1.1132    1.2739 C   0  0  2  0  0  0  0  0  0  0  0  0
    6.3335    0.3833    1.1677 C   0  0  0  0  0  0  0  0  0  0  0  0
    7.3450   -1.8478    1.1373 N   0  0  0  0  0  0  0  0  0  0  0  0
    1.3623    0.6105   -0.8068 C   0  0  0  0  0  0  0  0  0  0  0  0
    0.2143    1.3749   -0.5531 C   0  0  0  0  0  0  0  0  0  0  0  0
    0.0968    2.7704   -1.0944 C   0  0  0  0  0  0  0  0  0  0  0  0
   -4.1741    1.2357    1.1195 C   0  0  0  0  0  0  0  0  0  0  0  0
   -7.3021    0.1556    1.8299 H   0  0  0  0  0  0  0  0  0  0  0  0
   -7.0404    1.9116    1.6979 H   0  0  0  0  0  0  0  0  0  0  0  0
   -6.1513    0.9481    2.9047 H   0  0  0  0  0  0  0  0  0  0  0  0
   -6.7175   -0.3211   -0.5180 H   0  0  0  0  0  0  0  0  0  0  0  0
   -6.0055   -0.5932   -2.9236 H   0  0  0  0  0  0  0  0  0  0  0  0
   -4.2915   -0.5646   -3.3454 H   0  0  0  0  0  0  0  0  0  0  0  0
   -4.9396   -1.9205   -2.3894 H   0  0  0  0  0  0  0  0  0  0  0  0
   -2.6377    0.2554   -1.7585 H   0  0  0  0  0  0  0  0  0  0  0  0
   -1.4768   -0.8948    1.3616 H   0  0  0  0  0  0  0  0  0  0  0  0
    0.5466   -2.2251    0.9048 H   0  0  0  0  0  0  0  0  0  0  0  0
    3.0669   -1.3734   -1.5992 H   0  0  0  0  0  0  0  0  0  0  0  0
    2.5688   -2.5582   -0.3969 H   0  0  0  0  0  0  0  0  0  0  0  0
    3.5521   -0.5798    1.1749 H   0  0  0  0  0  0  0  0  0  0  0  0
    5.6443   -1.3503    2.2540 H   0  0  0  0  0  0  0  0  0  0  0  0
    5.4170    0.9577    1.3391 H   0  0  0  0  0  0  0  0  0  0  0  0
    7.0710    0.7077    1.9099 H   0  0  0  0  0  0  0  0  0  0  0  0
    6.7066    0.6542    0.1727 H   0  0  0  0  0  0  0  0  0  0  0  0
    7.1251   -2.8465    1.1351 H   0  0  0  0  0  0  0  0  0  0  0  0
    7.6934   -1.6878    0.1887 H   0  0  0  0  0  0  0  0  0  0  0  0
    2.1721    1.0328   -1.4006 H   0  0  0  0  0  0  0  0  0  0  0  0
   -0.7638    2.8456   -1.7666 H   0  0  0  0  0  0  0  0  0  0  0  0
   -0.0195    3.4862   -0.2746 H   0  0  0  0  0  0  0  0  0  0  0  0
    0.9889    3.0566   -1.6616 H   0  0  0  0  0  0  0  0  0  0  0  0
   -3.9550    1.7757    2.0372 H   0  0  0  0  0  0  0  0  0  0  0  0
  1  2  1  0
  2  3  2  0
  3  4  1  0
  4  5  1  0
  4  6  2  0
  6  7  1  0
  7  8  1  0
  8  9  1  0
  9 10  2  0
 10 11  1  0
 11 12  2  0
 12 13  1  0
 13 14  1  0
 14 15  1  0
 15 16  2  0
 15 17  1  0
 17 18  1  0
 17 19  1  0
 12 20  1  0
 20 21  2  0
 21 22  1  0
  7 23  2  0
 23  2  1  0
 21  9  1  0
  1 24  1  0
  1 25  1  0
  1 26  1  0
  3 27  1  0
  5 28  1  0
  5 29  1  0
  5 30  1  0
  6 31  1  0
 10 32  1  0
 11 33  1  0
 13 34  1  0
 13 35  1  0
 14 36  1  0
 17 37  1  1
 18 38  1  0
 18 39  1  0
 18 40  1  0
 19 41  1  0
 19 42  1  0
 20 43  1  0
 22 44  1  0
 22 45  1  0
 22 46  1  0
 23 47  1  0
M  END
$$$$
