
     RDKit          3D

 58 59  0  0  0  0  0  0  0  0999 V2000
    6.6327   -2.8529    2.8575 O   0  0  0  0  0  0  0  0  0  0  0  0
    6.6472   -2.9463    1.6402 C   0  0  0  0  0  0  0  0  0  0  0  0
    6.9866   -4.1076    1.0435 O   0  0  0  0  0  0  0  0  0  0  0  0
    6.3446   -1.8654    0.6357 C   0  0  0  0  0  0  0  0  0  0  0  0
    5.7138   -0.6252    1.2703 C   0  0  0  0  0  0  0  0  0  0  0  0
    4.2773   -0.8785    1.7521 C   0  0  0  0  0  0  0  0  0  0  0  0
    3.6534    0.3820    2.2878 C   0  0  0  0  0  0  0  0  0  0  0  0
    2.4781    0.9316    1.9401 C   0  0  0  0  0  0  0  0  0  0  0  0
    1.4755    0.4155    0.9392 C   0  0  0  0  0  0  0  0  0  0  0  0
    1.0728    1.4680   -0.1068 C   0  0  1  0  0  0  0  0  0  0  0  0
    2.1754    1.9031   -1.1050 C   0  0  1  0  0  0  0  0  0  0  0  0
    3.2952    1.0337   -1.1421 O   0  0  0  0  0  0  0  0  0  0  0  0
    1.5289    1.9141   -2.4916 C   0  0  0  0  0  0  0  0  0  0  0  0
    0.0341    1.9313   -2.2243 C   0  0  1  0  0  0  0  0  0  0  0  0
   -0.6712    1.4541   -3.3590 O   0  0  0  0  0  0  0  0  0  0  0  0
   -0.0994    1.0023   -1.0061 C   0  0  2  0  0  0  0  0  0  0  0  0
   -1.4324    0.9982   -0.2854 C   0  0  0  0  0  0  0  0  0  0  0  0
   -2.4699    1.8286   -0.4832 C   0  0  0  0  0  0  0  0  0  0  0  0
   -3.7760    1.7451    0.2627 C   0  0  1  0  0  0  0  0  0  0  0  0
   -3.9594    2.9999    0.9163 O   0  0  0  0  0  0  0  0  0  0  0  0
   -4.9699    1.4873   -0.6749 C   0  0  0  0  0  0  0  0  0  0  0  0
   -4.9458    0.1703   -1.2335 O   0  0  0  0  0  0  0  0  0  0  0  0
   -5.4489   -0.8670   -0.4987 C   0  0  0  0  0  0  0  0  0  0  0  0
   -5.3368   -2.1187   -1.1167 C   0  0  0  0  0  0  0  0  0  0  0  0
   -5.8006   -3.2740   -0.4839 C   0  0  0  0  0  0  0  0  0  0  0  0
   -6.3824   -3.1838    0.7791 C   0  0  0  0  0  0  0  0  0  0  0  0
   -6.4976   -1.9385    1.3956 C   0  0  0  0  0  0  0  0  0  0  0  0
   -7.2128   -1.8266    2.9599 Cl  0  0  0  0  0  0  0  0  0  0  0  0
   -6.0366   -0.7798    0.7642 C   0  0  0  0  0  0  0  0  0  0  0  0
    7.1707   -4.7173    1.7883 H   0  0  0  0  0  0  0  0  0  0  0  0
    7.2945   -1.5834    0.1645 H   0  0  0  0  0  0  0  0  0  0  0  0
    5.6809   -2.2709   -0.1366 H   0  0  0  0  0  0  0  0  0  0  0  0
    5.7128    0.1800    0.5251 H   0  0  0  0  0  0  0  0  0  0  0  0
    6.3314   -0.2778    2.1095 H   0  0  0  0  0  0  0  0  0  0  0  0
    3.6922   -1.3015    0.9295 H   0  0  0  0  0  0  0  0  0  0  0  0
    4.2754   -1.6219    2.5567 H   0  0  0  0  0  0  0  0  0  0  0  0
    4.2262    0.8769    3.0739 H   0  0  0  0  0  0  0  0  0  0  0  0
    2.1780    1.8345    2.4702 H   0  0  0  0  0  0  0  0  0  0  0  0
    0.5891    0.1170    1.5135 H   0  0  0  0  0  0  0  0  0  0  0  0
    1.8217   -0.4904    0.4322 H   0  0  0  0  0  0  0  0  0  0  0  0
    0.7411    2.3755    0.4216 H   0  0  0  0  0  0  0  0  0  0  0  0
    2.5323    2.9106   -0.8511 H   0  0  0  0  0  0  0  0  0  0  0  0
    3.7950    1.1733   -0.3191 H   0  0  0  0  0  0  0  0  0  0  0  0
    1.8408    2.7852   -3.0801 H   0  0  0  0  0  0  0  0  0  0  0  0
    1.8170    1.0307   -3.0783 H   0  0  0  0  0  0  0  0  0  0  0  0
   -0.2942    2.9550   -2.0064 H   0  0  0  0  0  0  0  0  0  0  0  0
   -1.5508    1.1642   -3.0615 H   0  0  0  0  0  0  0  0  0  0  0  0
    0.0723   -0.0311   -1.3424 H   0  0  0  0  0  0  0  0  0  0  0  0
   -1.5442    0.2060    0.4555 H   0  0  0  0  0  0  0  0  0  0  0  0
   -2.4120    2.6285   -1.2166 H   0  0  0  0  0  0  0  0  0  0  0  0
   -3.7279    0.9708    1.0367 H   0  0  0  0  0  0  0  0  0  0  0  0
   -3.1833    3.1345    1.4894 H   0  0  0  0  0  0  0  0  0  0  0  0
   -5.9290    1.7107   -0.1920 H   0  0  0  0  0  0  0  0  0  0  0  0
   -4.9258    2.1881   -1.5193 H   0  0  0  0  0  0  0  0  0  0  0  0
   -4.8818   -2.1934   -2.1033 H   0  0  0  0  0  0  0  0  0  0  0  0
   -5.7049   -4.2398   -0.9755 H   0  0  0  0  0  0  0  0  0  0  0  0
   -6.7416   -4.0812    1.2762 H   0  0  0  0  0  0  0  0  0  0  0  0
   -6.1517    0.1664    1.2812 H   0  0  0  0  0  0  0  0  0  0  0  0
  1  2  2  0
  2  3  1  0
  2  4  1  0
  4  5  1  0
  5  6  1  0
  6  7  1  0
  7  8  2  0
  8  9  1  0
  9 10  1  0
 10 11  1  0
 11 12  1  0
 11 13  1  0
 13 14  1  0
 14 15  1  0
 14 16  1  0
 16 17  1  0
 17 18  2  0
 18 19  1  0
 19 20  1  0
 19 21  1  0
 21 22  1  0
 22 23  1  0
 23 24  2  0
 24 25  1  0
 25 26  2  0
 26 27  1  0
 27 28  1  0
 27 29  2  0
 16 10  1  0
 29 23  1  0
  3 30  1  0
  4 31  1  0
  4 32  1  0
  5 33  1  0
  5 34  1  0
  6 35  1  0
  6 36  1  0
  7 37  1  0
  8 38  1  0
  9 39  1  0
  9 40  1  0
 10 41  1  1
 11 42  1  1
 12 43  1  0
 13 44  1  0
 13 45  1  0
 14 46  1  1
 15 47  1  0
 16 48  1  6
 17 49  1  0
 18 50  1  0
 19 51  1  1
 20 52  1  0
 21 53  1  0
 21 54  1  0
 24 55  1  0
 25 56  1  0
 26 57  1  0
 29 58  1  0
M  END
$$$$
