
     RDKit          3D

 31 32  0  0  0  0  0  0  0  0999 V2000
    0.6847    0.0000    0.0000 Cl  0  0  0  0  0  0  0  0  0  0  0  0
   -4.0221   -1.3432    2.7698 Cl  0  0  0  0  0  0  0  0  0  0  0  0
   -3.3265   -0.3053    1.5323 C   0  0  0  0  0  0  0  0  0  0  0  0
   -3.6868    1.0222    1.5032 C   0  0  0  0  0  0  0  0  0  0  0  0
   -3.1257    1.7950    0.5287 C   0  0  0  0  0  0  0  0  0  0  0  0
   -2.2376    1.2705   -0.3834 C   0  0  0  0  0  0  0  0  0  0  0  0
   -1.8597   -0.0853   -0.3631 C   0  0  0  0  0  0  0  0  0  0  0  0
   -0.9595   -0.5506   -1.4270 C   0  0  0  0  0  0  0  0  0  0  0  0
   -1.2240   -0.3159   -2.7653 N   0  0  0  0  0  0  0  0  0  0  0  0
   -0.2601   -0.7603   -3.4956 N   0  0  0  0  0  0  0  0  0  0  0  0
    0.6243   -1.2746   -2.6891 N   0  0  0  0  0  0  0  0  0  0  0  0
    0.2175   -1.1555   -1.4122 N   0  0  0  0  0  0  0  0  0  0  0  0
    1.0288   -1.5535   -0.2826 C   0  0  0  0  0  0  0  0  0  0  0  0
    1.9905   -0.5028    0.1074 C   0  0  0  0  0  0  0  0  0  0  0  0
    3.2330   -0.4716   -0.4498 C   0  0  0  0  0  0  0  0  0  0  0  0
    4.1365    0.5232   -0.0773 C   0  0  0  0  0  0  0  0  0  0  0  0
    3.7164    1.4466    0.8582 C   0  0  0  0  0  0  0  0  0  0  0  0
    2.4817    1.4053    1.4037 N   0  0  0  0  0  0  0  0  0  0  0  0
    1.6229    0.4379    1.0321 C   0  0  0  0  0  0  0  0  0  0  0  0
   -2.4312   -0.8376    0.6114 C   0  0  0  0  0  0  0  0  0  0  0  0
   -2.1623   -2.5577    0.7007 Cl  0  0  0  0  0  0  0  0  0  0  0  0
   -0.6847    0.0000    0.0000 H   0  0  0  0  0  0  0  0  0  0  0  0
   -4.3869    1.3859    2.2421 H   0  0  0  0  0  0  0  0  0  0  0  0
   -3.4094    2.8446    0.5022 H   0  0  0  0  0  0  0  0  0  0  0  0
   -1.7960    1.8962   -1.1565 H   0  0  0  0  0  0  0  0  0  0  0  0
    0.4666   -1.8773    0.5636 H   0  0  0  0  0  0  0  0  0  0  0  0
    1.6358   -2.4421   -0.6268 H   0  0  0  0  0  0  0  0  0  0  0  0
    3.5175   -1.2041   -1.1690 H   0  0  0  0  0  0  0  0  0  0  0  0
    5.1220    0.5646   -0.5059 H   0  0  0  0  0  0  0  0  0  0  0  0
    4.4458    2.2131    1.1296 H   0  0  0  0  0  0  0  0  0  0  0  0
    0.6487    0.4322    1.4841 H   0  0  0  0  0  0  0  0  0  0  0  0
  2  3  1  0
  3  4  2  0
  4  5  1  0
  5  6  2  0
  6  7  1  0
  7  8  1  0
  8  9  2  0
  9 10  1  0
 10 11  2  0
 11 12  1  0
 12 13  1  0
 13 14  1  0
 14 15  2  0
 15 16  1  0
 16 17  2  0
 17 18  1  0
 18 19  2  0
  7 20  2  0
 20 21  1  0
 20  3  1  0
 12  8  1  0
 19 14  1  0
  1 22  1  0
  4 23  1  0
  5 24  1  0
  6 25  1  0
 13 26  1  0
 13 27  1  0
 15 28  1  0
 16 29  1  0
 17 30  1  0
 19 31  1  0
M  END
$$$$
