
     RDKit          3D

 91 93  0  0  0  0  0  0  0  0999 V2000
   -5.8009   -1.0556    2.7779 C   0  0  0  0  0  0  0  0  0  0  0  0
   -6.3334   -0.7273    1.3710 C   0  0  0  0  0  0  0  0  0  0  0  0
   -7.4928   -1.7005    0.9831 C   0  0  0  0  0  0  0  0  0  0  0  0
   -7.6773   -2.6841    1.7558 O   0  0  0  0  0  0  0  0  0  0  0  0
   -8.1223   -1.4083   -0.0756 O   0  0  0  0  0  1  0  0  0  0  0  0
   -6.8736    0.7143    1.3416 C   0  0  0  0  0  0  0  0  0  0  0  0
   -5.7686    1.7718    1.3070 C   0  0  0  0  0  0  0  0  0  0  0  0
   -4.7387    1.5448    0.1706 C   0  0  0  0  0  0  0  0  0  0  0  0
   -5.4479    1.7566   -1.1879 C   0  0  0  0  0  0  0  0  0  0  0  0
   -3.5972    2.5658    0.3522 C   0  0  0  0  0  0  0  0  0  0  0  0
   -2.5428    2.4605   -0.7412 C   0  0  0  0  0  0  0  0  0  0  0  0
   -1.9847    1.0251   -1.0421 C   0  0  0  0  0  0  0  0  0  0  0  0
   -1.9609    0.9877   -2.6190 C   0  0  0  0  0  0  0  0  0  0  0  0
   -2.9059   -0.1345   -0.5808 C   0  0  0  0  0  0  0  0  0  0  0  0
   -2.5184   -1.3895   -0.8859 C   0  0  0  0  0  0  0  0  0  0  0  0
   -1.0968   -1.5294   -1.2992 C   0  0  0  0  0  0  0  0  0  0  0  0
   -0.8080   -2.1944   -2.2854 O   0  0  0  0  0  0  0  0  0  0  0  0
   -0.1156   -0.7788   -0.3718 C   0  0  0  0  0  0  0  0  0  0  0  0
    1.4246   -1.2362   -0.3985 C   0  0  0  0  0  0  0  0  0  0  0  0
    1.4812   -2.7237   -0.8485 C   0  0  0  0  0  0  0  0  0  0  0  0
    2.0065   -1.2221    1.0549 C   0  0  0  0  0  0  0  0  0  0  0  0
    3.5095   -1.4992    1.1526 C   0  0  0  0  0  0  0  0  0  0  0  0
    4.3485   -0.5731    0.2689 C   0  0  0  0  0  0  0  0  0  0  0  0
    5.7154   -1.0248    0.3709 O   0  0  0  0  0  0  0  0  0  0  0  0
    6.6736   -0.0783    0.6064 C   0  0  0  0  0  0  0  0  0  0  0  0
    6.4710    1.1289    0.6462 O   0  0  0  0  0  0  0  0  0  0  0  0
    8.0346   -0.7387    0.6300 C   0  0  0  0  0  0  0  0  0  0  0  0
    9.0525    0.0428    1.4460 C   0  0  0  0  0  0  0  0  0  0  0  0
    8.8027   -0.0107    2.9523 C   0  0  0  0  0  0  0  0  0  0  0  0
    9.6517    0.6284    3.6385 O   0  0  0  0  0  0  0  0  0  0  0  0
    7.8160   -0.6971    3.3338 O   0  0  0  0  0  1  0  0  0  0  0  0
    3.8821   -0.5718   -1.2179 C   0  0  0  0  0  0  0  0  0  0  0  0
    4.2804   -1.8868   -1.9362 C   0  0  0  0  0  0  0  0  0  0  0  0
    4.6688    0.5263   -1.9899 C   0  0  0  0  0  0  0  0  0  0  0  0
    2.3144   -0.3016   -1.2966 C   0  0  0  0  0  0  0  0  0  0  0  0
    2.0025    1.1817   -0.9674 C   0  0  0  0  0  0  0  0  0  0  0  0
    0.5578    1.5424   -1.2559 C   0  0  0  0  0  0  0  0  0  0  0  0
   -0.4871    0.7703   -0.4251 C   0  0  0  0  0  0  0  0  0  0  0  0
   -0.4656    1.3071    1.0357 C   0  0  0  0  0  0  0  0  0  0  0  0
   -4.1232    0.1288    0.3152 C   0  0  0  0  0  0  0  0  0  0  0  0
   -5.2293   -0.9575    0.3081 C   0  0  0  0  0  0  0  0  0  0  0  0
    0.0000    0.0000    0.0000 Na  0  0  0  0  0 15  0  0  0  0  0  0
    0.0000    0.0000    0.0000 Na  0  0  0  0  0 15  0  0  0  0  0  0
   -5.0124   -0.3669    3.0960 H   0  0  0  0  0  0  0  0  0  0  0  0
   -6.6013   -0.9982    3.5254 H   0  0  0  0  0  0  0  0  0  0  0  0
   -5.3837   -2.0682    2.8232 H   0  0  0  0  0  0  0  0  0  0  0  0
   -7.5069    0.8925    2.2207 H   0  0  0  0  0  0  0  0  0  0  0  0
   -7.5365    0.8773    0.4850 H   0  0  0  0  0  0  0  0  0  0  0  0
   -5.2560    1.7833    2.2769 H   0  0  0  0  0  0  0  0  0  0  0  0
   -6.2303    2.7620    1.2023 H   0  0  0  0  0  0  0  0  0  0  0  0
   -4.7915    1.5763   -2.0404 H   0  0  0  0  0  0  0  0  0  0  0  0
   -5.8192    2.7841   -1.2720 H   0  0  0  0  0  0  0  0  0  0  0  0
   -6.3057    1.0923   -1.3227 H   0  0  0  0  0  0  0  0  0  0  0  0
   -4.0033    3.5858    0.3510 H   0  0  0  0  0  0  0  0  0  0  0  0
   -3.1235    2.4321    1.3323 H   0  0  0  0  0  0  0  0  0  0  0  0
   -1.7311    3.1642   -0.5306 H   0  0  0  0  0  0  0  0  0  0  0  0
   -3.0009    2.8836   -1.6460 H   0  0  0  0  0  0  0  0  0  0  0  0
   -1.3518    0.1850   -3.0394 H   0  0  0  0  0  0  0  0  0  0  0  0
   -1.5642    1.9216   -3.0370 H   0  0  0  0  0  0  0  0  0  0  0  0
   -2.9686    0.8641   -3.0312 H   0  0  0  0  0  0  0  0  0  0  0  0
   -3.0514   -2.3042   -0.6739 H   0  0  0  0  0  0  0  0  0  0  0  0
   -0.4533   -1.1382    0.6163 H   0  0  0  0  0  0  0  0  0  0  0  0
    2.3579   -3.2615   -0.4914 H   0  0  0  0  0  0  0  0  0  0  0  0
    1.4700   -2.8187   -1.9384 H   0  0  0  0  0  0  0  0  0  0  0  0
    0.6405   -3.2934   -0.4354 H   0  0  0  0  0  0  0  0  0  0  0  0
    1.8394   -0.2570    1.5314 H   0  0  0  0  0  0  0  0  0  0  0  0
    1.4748   -1.9551    1.6760 H   0  0  0  0  0  0  0  0  0  0  0  0
    3.7361   -2.5486    0.9366 H   0  0  0  0  0  0  0  0  0  0  0  0
    3.8259   -1.3685    2.1959 H   0  0  0  0  0  0  0  0  0  0  0  0
    4.2498    0.4379    0.6833 H   0  0  0  0  0  0  0  0  0  0  0  0
    8.3730   -0.8128   -0.4099 H   0  0  0  0  0  0  0  0  0  0  0  0
    7.9361   -1.7582    1.0218 H   0  0  0  0  0  0  0  0  0  0  0  0
    9.0728    1.0935    1.1338 H   0  0  0  0  0  0  0  0  0  0  0  0
   10.0506   -0.3741    1.2619 H   0  0  0  0  0  0  0  0  0  0  0  0
    4.0953   -2.7797   -1.3422 H   0  0  0  0  0  0  0  0  0  0  0  0
    3.7552   -1.9881   -2.8922 H   0  0  0  0  0  0  0  0  0  0  0  0
    5.3542   -1.9141   -2.1581 H   0  0  0  0  0  0  0  0  0  0  0  0
    4.6557    1.4888   -1.4690 H   0  0  0  0  0  0  0  0  0  0  0  0
    4.2555    0.6696   -2.9945 H   0  0  0  0  0  0  0  0  0  0  0  0
    5.7259    0.2630   -2.1105 H   0  0  0  0  0  0  0  0  0  0  0  0
    2.0112   -0.4634   -2.3411 H   0  0  0  0  0  0  0  0  0  0  0  0
    2.5959    1.8465   -1.6030 H   0  0  0  0  0  0  0  0  0  0  0  0
    2.2644    1.4336    0.0647 H   0  0  0  0  0  0  0  0  0  0  0  0
    0.4297    2.6226   -1.1143 H   0  0  0  0  0  0  0  0  0  0  0  0
    0.4228    1.3619   -2.3261 H   0  0  0  0  0  0  0  0  0  0  0  0
   -0.6452    2.3842    1.0886 H   0  0  0  0  0  0  0  0  0  0  0  0
    0.4952    1.1637    1.5253 H   0  0  0  0  0  0  0  0  0  0  0  0
   -1.2212    0.8106    1.6532 H   0  0  0  0  0  0  0  0  0  0  0  0
   -3.6832    0.0956    1.3242 H   0  0  0  0  0  0  0  0  0  0  0  0
   -4.7934   -1.9454    0.5003 H   0  0  0  0  0  0  0  0  0  0  0  0
   -5.6567   -1.0207   -0.7006 H   0  0  0  0  0  0  0  0  0  0  0  0
  1  2  1  0
  2  3  1  0
  3  4  2  0
  3  5  1  0
  2  6  1  0
  6  7  1  0
  7  8  1  0
  8  9  1  0
  8 10  1  0
 10 11  1  0
 11 12  1  0
 12 13  1  0
 12 14  1  0
 14 15  2  0
 15 16  1  0
 16 17  2  0
 16 18  1  0
 18 19  1  0
 19 20  1  0
 19 21  1  0
 21 22  1  0
 22 23  1  0
 23 24  1  0
 24 25  1  0
 25 26  2  0
 25 27  1  0
 27 28  1  0
 28 29  1  0
 29 30  2  0
 29 31  1  0
 23 32  1  0
 32 33  1  0
 32 34  1  0
 32 35  1  0
 35 36  1  0
 36 37  1  0
 37 38  1  0
 38 39  1  0
 14 40  1  0
 40 41  1  0
 41  2  1  0
 40  8  1  0
 38 12  1  0
 38 18  1  0
 35 19  1  0
  1 44  1  0
  1 45  1  0
  1 46  1  0
  6 47  1  0
  6 48  1  0
  7 49  1  0
  7 50  1  0
  9 51  1  0
  9 52  1  0
  9 53  1  0
 10 54  1  0
 10 55  1  0
 11 56  1  0
 11 57  1  0
 13 58  1  0
 13 59  1  0
 13 60  1  0
 15 61  1  0
 18 62  1  0
 20 63  1  0
 20 64  1  0
 20 65  1  0
 21 66  1  0
 21 67  1  0
 22 68  1  0
 22 69  1  0
 23 70  1  0
 27 71  1  0
 27 72  1  0
 28 73  1  0
 28 74  1  0
 33 75  1  0
 33 76  1  0
 33 77  1  0
 34 78  1  0
 34 79  1  0
 34 80  1  0
 35 81  1  0
 36 82  1  0
 36 83  1  0
 37 84  1  0
 37 85  1  0
 39 86  1  0
 39 87  1  0
 39 88  1  0
 40 89  1  0
 41 90  1  0
 41 91  1  0
M  CHG  4   5  -1  31  -1  42   1  43   1
M  END
$$$$
