
     RDKit          3D

 48 50  0  0  0  0  0  0  0  0999 V2000
   -7.7064   -1.0062   -0.8692 C   0  0  0  0  0  0  0  0  0  0  0  0
   -6.7084   -0.3702   -1.8142 C   0  0  0  0  0  0  0  0  0  0  0  0
   -6.0848    1.1976   -1.2455 S   0  0  0  0  0  6  0  0  0  0  0  0
   -5.0798    1.6489   -2.1912 O   0  0  0  0  0  0  0  0  0  0  0  0
   -7.2051    2.0511   -0.9009 O   0  0  0  0  0  0  0  0  0  0  0  0
   -5.2124    0.8203    0.2578 C   0  0  0  0  0  0  0  0  0  0  0  0
   -5.8363    1.0141    1.4933 C   0  0  0  0  0  0  0  0  0  0  0  0
   -5.1387    0.7265    2.6657 C   0  0  0  0  0  0  0  0  0  0  0  0
   -3.8187    0.2742    2.6001 C   0  0  0  0  0  0  0  0  0  0  0  0
   -3.1816    0.1238    1.3605 C   0  0  0  0  0  0  0  0  0  0  0  0
   -1.7668   -0.3410    1.3391 C   0  0  0  0  0  0  0  0  0  0  0  0
   -1.4184   -1.1515    2.1874 O   0  0  0  0  0  0  0  0  0  0  0  0
   -0.9901    0.2375    0.3615 N   0  0  0  0  0  0  0  0  0  0  0  0
    0.3217   -0.1023    0.1747 C   0  0  0  0  0  0  0  0  0  0  0  0
    1.0361   -1.0165    0.7721 N   0  0  0  0  0  0  0  0  0  0  0  0
    2.3170   -1.0167    0.2538 C   0  0  0  0  0  0  0  0  0  0  0  0
    3.3659   -1.8743    0.6454 C   0  0  0  0  0  0  0  0  0  0  0  0
    4.6211   -1.7636    0.0384 C   0  0  0  0  0  0  0  0  0  0  0  0
    4.8368   -0.7935   -0.9409 C   0  0  0  0  0  0  0  0  0  0  0  0
    6.4370   -0.6809   -1.7253 S   0  0  0  0  0  6  0  0  0  0  0  0
    6.2346   -0.0699   -3.0221 O   0  0  0  0  0  0  0  0  0  0  0  0
    7.0690   -1.9769   -1.6004 O   0  0  0  0  0  0  0  0  0  0  0  0
    7.2719    0.4230   -0.7378 N   0  0  0  0  0  0  0  0  0  0  0  0
    6.8284    1.8264   -0.7758 C   0  0  0  0  0  0  0  0  0  0  0  0
    7.6459   -0.0333    0.6115 C   0  0  0  0  0  0  0  0  0  0  0  0
    3.8080    0.0565   -1.3714 C   0  0  0  0  0  0  0  0  0  0  0  0
    2.5555   -0.0727   -0.7496 C   0  0  0  0  0  0  0  0  0  0  0  0
    1.1031    0.8127   -1.0331 S   0  0  0  0  0  0  0  0  0  0  0  0
   -3.8844    0.3864    0.1798 C   0  0  0  0  0  0  0  0  0  0  0  0
   -8.5517   -0.3389   -0.6742 H   0  0  0  0  0  0  0  0  0  0  0  0
   -7.2462   -1.2564    0.0909 H   0  0  0  0  0  0  0  0  0  0  0  0
   -8.0981   -1.9319   -1.3022 H   0  0  0  0  0  0  0  0  0  0  0  0
   -7.1809   -0.1798   -2.7835 H   0  0  0  0  0  0  0  0  0  0  0  0
   -5.8509   -1.0296   -1.9801 H   0  0  0  0  0  0  0  0  0  0  0  0
   -6.8593    1.3816    1.5531 H   0  0  0  0  0  0  0  0  0  0  0  0
   -5.6188    0.8584    3.6332 H   0  0  0  0  0  0  0  0  0  0  0  0
   -3.2801    0.0487    3.5199 H   0  0  0  0  0  0  0  0  0  0  0  0
   -1.3413    0.9875   -0.2145 H   0  0  0  0  0  0  0  0  0  0  0  0
    3.1830   -2.6208    1.4134 H   0  0  0  0  0  0  0  0  0  0  0  0
    5.4180   -2.4427    0.3360 H   0  0  0  0  0  0  0  0  0  0  0  0
    5.9164    1.9666   -0.1889 H   0  0  0  0  0  0  0  0  0  0  0  0
    7.6102    2.4704   -0.3597 H   0  0  0  0  0  0  0  0  0  0  0  0
    6.6568    2.1608   -1.8024 H   0  0  0  0  0  0  0  0  0  0  0  0
    6.7884   -0.0016    1.2893 H   0  0  0  0  0  0  0  0  0  0  0  0
    8.0564   -1.0464    0.5890 H   0  0  0  0  0  0  0  0  0  0  0  0
    8.4297    0.6166    1.0145 H   0  0  0  0  0  0  0  0  0  0  0  0
    3.9664    0.7872   -2.1598 H   0  0  0  0  0  0  0  0  0  0  0  0
   -3.4180    0.2410   -0.7914 H   0  0  0  0  0  0  0  0  0  0  0  0
  1  2  1  0
  2  3  1  0
  3  4  2  0
  3  5  2  0
  3  6  1  0
  6  7  2  0
  7  8  1  0
  8  9  2  0
  9 10  1  0
 10 11  1  0
 11 12  2  0
 11 13  1  0
 13 14  1  0
 14 15  2  0
 15 16  1  0
 16 17  2  0
 17 18  1  0
 18 19  2  0
 19 20  1  0
 20 21  2  0
 20 22  2  0
 20 23  1  0
 23 24  1  0
 23 25  1  0
 19 26  1  0
 26 27  2  0
 27 28  1  0
 10 29  2  0
 29  6  1  0
 28 14  1  0
 27 16  1  0
  1 30  1  0
  1 31  1  0
  1 32  1  0
  2 33  1  0
  2 34  1  0
  7 35  1  0
  8 36  1  0
  9 37  1  0
 13 38  1  0
 17 39  1  0
 18 40  1  0
 24 41  1  0
 24 42  1  0
 24 43  1  0
 25 44  1  0
 25 45  1  0
 25 46  1  0
 26 47  1  0
 29 48  1  0
M  END
$$$$
