
     RDKit          3D

 18 19  0  0  0  0  0  0  0  0999 V2000
   -2.8967    0.1974    0.0338 C   0  0  0  0  0  0  0  0  0  0  0  0
   -2.2017   -0.8067    0.7039 C   0  0  0  0  0  0  0  0  0  0  0  0
   -0.8046   -0.8500    0.6508 C   0  0  0  0  0  0  0  0  0  0  0  0
   -0.0854    0.1118   -0.0741 C   0  0  0  0  0  0  0  0  0  0  0  0
    1.3660    0.0954   -0.1496 C   0  0  0  0  0  0  0  0  0  0  0  0
    2.2274   -0.8052    0.4372 C   0  0  0  0  0  0  0  0  0  0  0  0
    3.4636   -0.3745    0.0577 N   0  0  0  0  0  0  0  0  0  0  0  0
    3.3898    0.7185   -0.7127 N   0  0  0  0  0  0  0  0  0  0  0  0
    2.1053    1.0191   -0.8487 N   0  0  0  0  0  0  0  0  0  0  0  0
   -0.8013    1.1163   -0.7432 C   0  0  0  0  0  0  0  0  0  0  0  0
   -2.1972    1.1593   -0.6900 C   0  0  0  0  0  0  0  0  0  0  0  0
   -3.9823    0.2305    0.0754 H   0  0  0  0  0  0  0  0  0  0  0  0
   -2.7466   -1.5584    1.2694 H   0  0  0  0  0  0  0  0  0  0  0  0
   -0.2951   -1.6467    1.1850 H   0  0  0  0  0  0  0  0  0  0  0  0
    2.0902   -1.6739    1.0612 H   0  0  0  0  0  0  0  0  0  0  0  0
    4.3770   -0.7565    0.2737 H   0  0  0  0  0  0  0  0  0  0  0  0
   -0.2741    1.8784   -1.3151 H   0  0  0  0  0  0  0  0  0  0  0  0
   -2.7343    1.9452   -1.2149 H   0  0  0  0  0  0  0  0  0  0  0  0
  1  2  2  0
  2  3  1  0
  3  4  2  0
  4  5  1  0
  5  6  2  0
  6  7  1  0
  7  8  1  0
  8  9  2  0
  4 10  1  0
 10 11  2  0
 11  1  1  0
  9  5  1  0
  1 12  1  0
  2 13  1  0
  3 14  1  0
  6 15  1  0
  7 16  1  0
 10 17  1  0
 11 18  1  0
M  END
$$$$
