
     RDKit          3D

 70 73  0  0  0  0  0  0  0  0999 V2000
   -4.9993   -2.5944   -3.0126 C   0  0  0  0  0  0  0  0  0  0  0  0
   -3.5280   -2.9908   -3.0136 C   0  0  0  0  0  0  0  0  0  0  0  0
   -2.6032   -1.7781   -2.9225 C   0  0  0  0  0  0  0  0  0  0  0  0
   -2.5712   -1.1691   -1.5407 C   0  0  0  0  0  0  0  0  0  0  0  0
   -2.9558   -1.7054   -0.5081 O   0  0  0  0  0  0  0  0  0  0  0  0
   -1.9769    0.0560   -1.5902 O   0  0  0  0  0  0  0  0  0  0  0  0
   -1.8830    0.8420   -0.3600 C   0  0  2  0  0  0  0  0  0  0  0  0
   -3.2965    0.9055    0.2872 C   0  0  0  0  0  0  0  0  0  0  0  0
   -4.2330    1.4323   -0.3364 O   0  0  0  0  0  0  0  0  0  0  0  0
   -3.5625    0.2804    1.6389 C   0  0  0  0  0  0  0  0  0  0  0  0
   -3.3739    1.2841    2.6463 O   0  0  0  0  0  0  0  0  0  0  0  0
   -4.5044    1.8911    3.1117 C   0  0  0  0  0  0  0  0  0  0  0  0
   -4.1340    3.0345    4.0090 C   0  0  0  0  0  0  0  0  0  0  0  0
   -5.6535    1.5685    2.8499 O   0  0  0  0  0  0  0  0  0  0  0  0
   -1.5749    2.2960   -0.8661 C   0  0  0  0  0  0  0  0  0  0  0  0
   -0.0477    2.4510   -0.9236 C   0  0  0  0  0  0  0  0  0  0  0  0
    0.4898    1.0679   -0.5780 C   0  0  1  0  0  0  0  0  0  0  0  0
    1.9516    0.9634   -0.1091 C   0  0  2  0  0  0  0  0  0  0  0  0
    2.9055    1.5378   -1.1720 C   0  0  0  0  0  0  0  0  0  0  0  0
    4.3737    1.3782   -0.7881 C   0  0  2  0  0  0  0  0  0  0  0  0
    5.1230    1.8247   -1.8362 F   0  0  0  0  0  0  0  0  0  0  0  0
    4.6966   -0.0576   -0.4551 C   0  0  0  0  0  0  0  0  0  0  0  0
    5.6640   -0.7230   -1.1108 C   0  0  0  0  0  0  0  0  0  0  0  0
    5.9705   -2.1403   -0.8387 C   0  0  0  0  0  0  0  0  0  0  0  0
    6.8838   -2.7190   -1.4141 O   0  0  0  0  0  0  0  0  0  0  0  0
    5.1330   -2.8298    0.1594 C   0  0  0  0  0  0  0  0  0  0  0  0
    4.1677   -2.1748    0.8159 C   0  0  0  0  0  0  0  0  0  0  0  0
    3.8136   -0.7004    0.6289 C   0  0  1  0  0  0  0  0  0  0  0  0
    4.1432   -0.0162    1.9793 C   0  0  0  0  0  0  0  0  0  0  0  0
    2.3048   -0.5334    0.1781 C   0  0  2  0  0  0  0  0  0  0  0  0
    2.1918   -1.1800   -1.0478 F   0  0  0  0  0  0  0  0  0  0  0  0
    1.2466   -1.2357    1.0844 C   0  0  1  0  0  0  0  0  0  0  0  0
    1.3725   -0.8769    2.4534 O   0  0  0  0  0  0  0  0  0  0  0  0
   -0.2008   -0.9927    0.6036 C   0  0  0  0  0  0  0  0  0  0  0  0
   -0.5594    0.5033    0.4247 C   0  0  2  0  0  0  0  0  0  0  0  0
   -0.5021    1.2406    1.7886 C   0  0  0  0  0  0  0  0  0  0  0  0
   -5.6314   -3.4799   -3.1439 H   0  0  0  0  0  0  0  0  0  0  0  0
   -5.2172   -1.9003   -3.8316 H   0  0  0  0  0  0  0  0  0  0  0  0
   -5.2816   -2.1116   -2.0715 H   0  0  0  0  0  0  0  0  0  0  0  0
   -3.3143   -3.5266   -3.9440 H   0  0  0  0  0  0  0  0  0  0  0  0
   -3.3336   -3.6881   -2.1917 H   0  0  0  0  0  0  0  0  0  0  0  0
   -2.9177   -1.0120   -3.6421 H   0  0  0  0  0  0  0  0  0  0  0  0
   -1.5797   -2.0885   -3.1635 H   0  0  0  0  0  0  0  0  0  0  0  0
   -2.8880   -0.5512    1.8353 H   0  0  0  0  0  0  0  0  0  0  0  0
   -4.5815   -0.1324    1.6417 H   0  0  0  0  0  0  0  0  0  0  0  0
   -3.3208    2.7429    4.6800 H   0  0  0  0  0  0  0  0  0  0  0  0
   -4.9981    3.3097    4.6167 H   0  0  0  0  0  0  0  0  0  0  0  0
   -3.8284    3.8902    3.3992 H   0  0  0  0  0  0  0  0  0  0  0  0
   -2.0082    2.4742   -1.8566 H   0  0  0  0  0  0  0  0  0  0  0  0
   -1.9813    3.0591   -0.1900 H   0  0  0  0  0  0  0  0  0  0  0  0
    0.2775    2.7651   -1.9195 H   0  0  0  0  0  0  0  0  0  0  0  0
    0.2899    3.2119   -0.2132 H   0  0  0  0  0  0  0  0  0  0  0  0
    0.4342    0.4802   -1.5084 H   0  0  0  0  0  0  0  0  0  0  0  0
    2.0809    1.5608    0.7978 H   0  0  0  0  0  0  0  0  0  0  0  0
    2.7046    2.6001   -1.3414 H   0  0  0  0  0  0  0  0  0  0  0  0
    2.7336    1.0505   -2.1407 H   0  0  0  0  0  0  0  0  0  0  0  0
    4.6148    2.0240    0.0629 H   0  0  0  0  0  0  0  0  0  0  0  0
    6.2711   -0.2609   -1.8809 H   0  0  0  0  0  0  0  0  0  0  0  0
    5.3506   -3.8721    0.3411 H   0  0  0  0  0  0  0  0  0  0  0  0
    3.6043   -2.7342    1.5614 H   0  0  0  0  0  0  0  0  0  0  0  0
    5.2285    0.0321    2.1377 H   0  0  0  0  0  0  0  0  0  0  0  0
    3.7339   -0.5668    2.8344 H   0  0  0  0  0  0  0  0  0  0  0  0
    3.7686    1.0082    2.0415 H   0  0  0  0  0  0  0  0  0  0  0  0
    1.4145   -2.3199    1.0177 H   0  0  0  0  0  0  0  0  0  0  0  0
    0.7446   -1.4100    2.9704 H   0  0  0  0  0  0  0  0  0  0  0  0
   -0.2963   -1.5137   -0.3581 H   0  0  0  0  0  0  0  0  0  0  0  0
   -0.9013   -1.4696    1.3017 H   0  0  0  0  0  0  0  0  0  0  0  0
   -0.9652    2.2357    1.7648 H   0  0  0  0  0  0  0  0  0  0  0  0
   -0.9981    0.6543    2.5722 H   0  0  0  0  0  0  0  0  0  0  0  0
    0.5197    1.3988    2.1449 H   0  0  0  0  0  0  0  0  0  0  0  0
  1  2  1  0
  2  3  1  0
  3  4  1  0
  4  5  2  0
  4  6  1  0
  7  6  1  6
  7  8  1  0
  8  9  2  0
  8 10  1  0
 10 11  1  0
 11 12  1  0
 12 13  1  0
 12 14  2  0
  7 15  1  0
 15 16  1  0
 16 17  1  0
 17 18  1  0
 18 19  1  0
 19 20  1  0
 20 21  1  0
 20 22  1  0
 22 23  2  0
 23 24  1  0
 24 25  2  0
 24 26  1  0
 26 27  2  0
 27 28  1  0
 28 29  1  1
 28 30  1  0
 30 31  1  6
 30 32  1  0
 32 33  1  0
 32 34  1  0
 34 35  1  0
 35 36  1  1
 35  7  1  0
 35 17  1  0
 30 18  1  0
 28 22  1  0
  1 37  1  0
  1 38  1  0
  1 39  1  0
  2 40  1  0
  2 41  1  0
  3 42  1  0
  3 43  1  0
 10 44  1  0
 10 45  1  0
 13 46  1  0
 13 47  1  0
 13 48  1  0
 15 49  1  0
 15 50  1  0
 16 51  1  0
 16 52  1  0
 17 53  1  6
 18 54  1  1
 19 55  1  0
 19 56  1  0
 20 57  1  1
 23 58  1  0
 26 59  1  0
 27 60  1  0
 29 61  1  0
 29 62  1  0
 29 63  1  0
 32 64  1  1
 33 65  1  0
 34 66  1  0
 34 67  1  0
 36 68  1  0
 36 69  1  0
 36 70  1  0
M  END
$$$$
