
     RDKit          3D

 29 30  0  0  0  0  0  0  0  0999 V2000
    4.9474   -0.4881   -0.0939 C   0  0  0  0  0  0  0  0  0  0  0  0
    3.4611   -0.4288   -0.3225 C   0  0  0  0  0  0  0  0  0  0  0  0
    2.8095   -1.4212   -0.6303 O   0  0  0  0  0  0  0  0  0  0  0  0
    2.9111    0.8184   -0.1374 N   0  0  0  0  0  0  0  0  0  0  0  0
    1.4833    1.0460   -0.2753 C   0  0  0  0  0  0  0  0  0  0  0  0
    0.6991    0.5991    0.9614 C   0  0  0  0  0  0  0  0  0  0  0  0
   -0.7666    0.8645    0.8280 C   0  0  0  0  0  0  0  0  0  0  0  0
   -1.4690    1.9185    1.3794 C   0  0  0  0  0  0  0  0  0  0  0  0
   -2.7842    1.7928    1.0195 N   0  0  0  0  0  0  0  0  0  0  0  0
   -2.9603    0.6758    0.2373 C   0  0  0  0  0  0  0  0  0  0  0  0
   -4.1204    0.1601   -0.3531 C   0  0  0  0  0  0  0  0  0  0  0  0
   -3.9980   -1.0118   -1.1058 C   0  0  0  0  0  0  0  0  0  0  0  0
   -2.7647   -1.6405   -1.2594 C   0  0  0  0  0  0  0  0  0  0  0  0
   -1.6150   -1.1116   -0.6618 C   0  0  0  0  0  0  0  0  0  0  0  0
   -1.7113    0.0700    0.1019 C   0  0  0  0  0  0  0  0  0  0  0  0
    5.4133   -1.0417   -0.9138 H   0  0  0  0  0  0  0  0  0  0  0  0
    5.1433   -0.9967    0.8536 H   0  0  0  0  0  0  0  0  0  0  0  0
    5.3914    0.5106   -0.0605 H   0  0  0  0  0  0  0  0  0  0  0  0
    3.4853    1.5701    0.2201 H   0  0  0  0  0  0  0  0  0  0  0  0
    1.1324    0.5152   -1.1680 H   0  0  0  0  0  0  0  0  0  0  0  0
    1.3464    2.1187   -0.4519 H   0  0  0  0  0  0  0  0  0  0  0  0
    0.8592   -0.4702    1.1468 H   0  0  0  0  0  0  0  0  0  0  0  0
    1.0883    1.1187    1.8466 H   0  0  0  0  0  0  0  0  0  0  0  0
   -1.1461    2.7439    1.9996 H   0  0  0  0  0  0  0  0  0  0  0  0
   -3.5255    2.4247    1.2874 H   0  0  0  0  0  0  0  0  0  0  0  0
   -5.0829    0.6462   -0.2347 H   0  0  0  0  0  0  0  0  0  0  0  0
   -4.8798   -1.4392   -1.5776 H   0  0  0  0  0  0  0  0  0  0  0  0
   -2.6899   -2.5516   -1.8479 H   0  0  0  0  0  0  0  0  0  0  0  0
   -0.6572   -1.6104   -0.7875 H   0  0  0  0  0  0  0  0  0  0  0  0
  1  2  1  0
  2  3  2  0
  2  4  1  0
  4  5  1  0
  5  6  1  0
  6  7  1  0
  7  8  2  0
  8  9  1  0
  9 10  1  0
 10 11  2  0
 11 12  1  0
 12 13  2  0
 13 14  1  0
 14 15  2  0
 15  7  1  0
 15 10  1  0
  1 16  1  0
  1 17  1  0
  1 18  1  0
  4 19  1  0
  5 20  1  0
  5 21  1  0
  6 22  1  0
  6 23  1  0
  8 24  1  0
  9 25  1  0
 11 26  1  0
 12 27  1  0
 13 28  1  0
 14 29  1  0
M  END
$$$$
