
     RDKit          3D

151154  0  0  0  0  0  0  0  0999 V2000
   -3.0718    0.1019    1.1773 C   0  0  0  0  0  0  0  0  0  0  0  0
   -3.5145    0.4307   -0.1403 O   0  0  0  0  0  0  0  0  0  0  0  0
   -4.8299    1.0118   -0.1251 C   0  0  1  0  0  0  0  0  0  0  0  0
   -4.8024    2.4426   -0.7111 C   0  0  0  0  0  0  0  0  0  0  0  0
   -4.2739    3.4441    0.3232 C   0  0  2  0  0  0  0  0  0  0  0  0
   -4.6001    4.9016   -0.0234 C   0  0  0  0  0  0  0  0  0  0  0  0
   -3.3472    5.7087   -0.3306 C   0  0  0  0  0  0  0  0  0  0  0  0
   -2.2734    5.5783    0.7655 C   0  0  1  0  0  0  0  0  0  0  0  0
   -2.4229    6.6699    1.8236 C   0  0  0  0  0  0  0  0  0  0  0  0
   -2.2482    4.1574    1.3833 C   0  0  1  0  0  0  0  0  0  0  0  0
   -2.9782    4.1103    2.6185 O   0  0  0  0  0  0  0  0  0  0  0  0
   -2.8625    3.2497    0.4593 O   0  0  0  0  0  0  0  0  0  0  0  0
   -0.8648    3.5406    1.6773 C   0  0  0  0  0  0  0  0  0  0  0  0
   -0.7212    2.5320    2.3739 O   0  0  0  0  0  0  0  0  0  0  0  0
    0.3484    4.2495    1.1378 C   0  0  0  0  0  0  0  0  0  0  0  0
    0.8364    5.1238    1.8535 O   0  0  0  0  0  0  0  0  0  0  0  0
    0.8227    3.9230   -0.1289 N   0  0  0  0  0  0  0  0  0  0  0  0
    1.9183    4.6964   -0.6947 C   0  0  0  0  0  0  0  0  0  0  0  0
    1.4121    5.5213   -1.8811 C   0  0  0  0  0  0  0  0  0  0  0  0
    0.2478    4.8429   -2.6175 C   0  0  0  0  0  0  0  0  0  0  0  0
    0.2597    3.3191   -2.4788 C   0  0  0  0  0  0  0  0  0  0  0  0
    0.2894    2.8564   -1.0042 C   0  0  1  0  0  0  0  0  0  0  0  0
    1.0954    1.5619   -0.7664 C   0  0  0  0  0  0  0  0  0  0  0  0
    1.0435    0.8734    0.2422 O   0  0  0  0  0  0  0  0  0  0  0  0
    1.9481    1.2763   -1.8017 O   0  0  0  0  0  0  0  0  0  0  0  0
    2.9464    0.2416   -1.5692 C   0  0  2  0  0  0  0  0  0  0  0  0
    4.1509    0.6422   -2.4763 C   0  0  2  0  0  0  0  0  0  0  0  0
    3.8261    0.5498   -3.9815 C   0  0  0  0  0  0  0  0  0  0  0  0
    5.4442   -0.1456   -2.1782 C   0  0  0  0  0  0  0  0  0  0  0  0
    6.0863    0.1091   -0.7928 C   0  0  2  0  0  0  0  0  0  0  0  0
    6.3708    1.5979   -0.5183 C   0  0  0  0  0  0  0  0  0  0  0  0
    7.7186    1.8746    0.1548 C   0  0  0  0  0  0  0  0  0  0  0  0
    8.0958    0.8617    1.2356 C   0  0  1  0  0  0  0  0  0  0  0  0
    7.2344    1.1004    2.3679 O   0  0  0  0  0  0  0  0  0  0  0  0
    7.7745    0.6168    3.6104 C   0  0  0  0  0  0  0  0  0  0  0  0
    8.7601    1.6049    4.2464 C   0  0  0  0  0  0  0  0  0  0  0  0
    8.0552    2.6815    4.8535 O   0  0  0  0  0  0  0  0  0  0  0  0
    7.9716   -0.6116    0.7544 C   0  0  2  0  0  0  0  0  0  0  0  0
    9.2966   -1.1732    0.7708 O   0  0  0  0  0  0  0  0  0  0  0  0
    9.3154   -2.5893    0.7600 C   0  0  0  0  0  0  0  0  0  0  0  0
    7.3676   -0.7271   -0.6577 C   0  0  0  0  0  0  0  0  0  0  0  0
    2.3167   -1.1303   -1.8763 C   0  0  0  0  0  0  0  0  0  0  0  0
    2.3965   -2.0969   -0.7013 C   0  0  0  0  0  0  0  0  0  0  0  0
    3.1847   -1.9044    0.2343 O   0  0  0  0  0  0  0  0  0  0  0  0
    1.5586   -3.3901   -0.7343 C   0  0  2  0  0  0  0  0  0  0  0  0
    2.5108   -4.5906   -0.6704 C   0  0  0  0  0  0  0  0  0  0  0  0
    0.6589   -3.5545   -1.9392 C   0  0  0  0  0  0  0  0  0  0  0  0
   -0.6929   -3.4851   -1.9907 C   0  0  0  0  0  0  0  0  0  0  0  0
   -1.4097   -3.7755   -3.2929 C   0  0  0  0  0  0  0  0  0  0  0  0
   -1.5954   -3.1192   -0.8114 C   0  0  1  0  0  0  0  0  0  0  0  0
   -2.6019   -2.2528   -1.3425 O   0  0  0  0  0  0  0  0  0  0  0  0
   -2.3039   -4.3161   -0.1174 C   0  0  1  0  0  0  0  0  0  0  0  0
   -1.3806   -5.3390    0.2911 O   0  0  0  0  0  0  0  0  0  0  0  0
   -1.3407   -6.4530   -0.5869 C   0  0  0  0  0  0  0  0  0  0  0  0
   -2.9587   -3.8298    1.1808 C   0  0  0  0  0  0  0  0  0  0  0  0
   -2.4824   -2.8985    1.8427 O   0  0  0  0  0  0  0  0  0  0  0  0
   -4.2222   -4.5234    1.6930 C   0  0  2  0  0  0  0  0  0  0  0  0
   -4.1760   -6.0450    1.5674 C   0  0  0  0  0  0  0  0  0  0  0  0
   -5.5002   -3.9418    1.0514 C   0  0  0  0  0  0  0  0  0  0  0  0
   -6.5547   -3.3693    2.0362 C   0  0  2  0  0  0  0  0  0  0  0  0
   -6.7409   -4.1713    3.3315 C   0  0  0  0  0  0  0  0  0  0  0  0
   -7.9207   -3.3037    1.3631 C   0  0  0  0  0  0  0  0  0  0  0  0
   -8.7063   -2.2256    1.2019 C   0  0  0  0  0  0  0  0  0  0  0  0
   -8.3547   -0.8700    1.5610 C   0  0  0  0  0  0  0  0  0  0  0  0
   -7.5103   -0.0803    0.8815 C   0  0  0  0  0  0  0  0  0  0  0  0
   -6.9131   -0.4090   -0.3977 C   0  0  0  0  0  0  0  0  0  0  0  0
   -5.7681    0.0976   -0.8992 C   0  0  0  0  0  0  0  0  0  0  0  0
   -5.3447   -0.2660   -2.3030 C   0  0  0  0  0  0  0  0  0  0  0  0
   -3.0283    0.9946    1.8109 H   0  0  0  0  0  0  0  0  0  0  0  0
   -3.7480   -0.6342    1.6258 H   0  0  0  0  0  0  0  0  0  0  0  0
   -2.0667   -0.3263    1.1123 H   0  0  0  0  0  0  0  0  0  0  0  0
   -5.1793    1.0793    0.9153 H   0  0  0  0  0  0  0  0  0  0  0  0
   -5.8190    2.7263   -0.9959 H   0  0  0  0  0  0  0  0  0  0  0  0
   -4.1622    2.4736   -1.6028 H   0  0  0  0  0  0  0  0  0  0  0  0
   -4.7594    3.2126    1.2837 H   0  0  0  0  0  0  0  0  0  0  0  0
   -5.1144    5.3557    0.8338 H   0  0  0  0  0  0  0  0  0  0  0  0
   -5.3165    4.9701   -0.8553 H   0  0  0  0  0  0  0  0  0  0  0  0
   -3.6138    6.7612   -0.4999 H   0  0  0  0  0  0  0  0  0  0  0  0
   -2.9292    5.3409   -1.2758 H   0  0  0  0  0  0  0  0  0  0  0  0
   -1.3307    5.7869    0.2418 H   0  0  0  0  0  0  0  0  0  0  0  0
   -2.4010    7.6646    1.3759 H   0  0  0  0  0  0  0  0  0  0  0  0
   -1.6149    6.6180    2.5614 H   0  0  0  0  0  0  0  0  0  0  0  0
   -3.3716    6.5893    2.3635 H   0  0  0  0  0  0  0  0  0  0  0  0
   -2.6444    3.3168    3.0882 H   0  0  0  0  0  0  0  0  0  0  0  0
    2.6982    3.9952   -1.0089 H   0  0  0  0  0  0  0  0  0  0  0  0
    2.3695    5.3675    0.0513 H   0  0  0  0  0  0  0  0  0  0  0  0
    1.0785    6.5109   -1.5482 H   0  0  0  0  0  0  0  0  0  0  0  0
    2.2491    5.6906   -2.5698 H   0  0  0  0  0  0  0  0  0  0  0  0
    0.2890    5.1213   -3.6831 H   0  0  0  0  0  0  0  0  0  0  0  0
   -0.7064    5.2296   -2.2326 H   0  0  0  0  0  0  0  0  0  0  0  0
    1.1021    2.9423   -3.0621 H   0  0  0  0  0  0  0  0  0  0  0  0
   -0.6344    2.8956   -2.9636 H   0  0  0  0  0  0  0  0  0  0  0  0
   -0.7304    2.6103   -0.7054 H   0  0  0  0  0  0  0  0  0  0  0  0
    3.2720    0.3328   -0.5326 H   0  0  0  0  0  0  0  0  0  0  0  0
    4.3408    1.7100   -2.2966 H   0  0  0  0  0  0  0  0  0  0  0  0
    3.7103   -0.4862   -4.3167 H   0  0  0  0  0  0  0  0  0  0  0  0
    2.9195    1.1025   -4.2367 H   0  0  0  0  0  0  0  0  0  0  0  0
    4.6447    0.9852   -4.5688 H   0  0  0  0  0  0  0  0  0  0  0  0
    5.2478   -1.2203   -2.2894 H   0  0  0  0  0  0  0  0  0  0  0  0
    6.1906    0.1052   -2.9425 H   0  0  0  0  0  0  0  0  0  0  0  0
    5.3909   -0.2444   -0.0208 H   0  0  0  0  0  0  0  0  0  0  0  0
    6.3548    2.1864   -1.4504 H   0  0  0  0  0  0  0  0  0  0  0  0
    5.5581    2.0015    0.0967 H   0  0  0  0  0  0  0  0  0  0  0  0
    8.4989    1.8734   -0.6160 H   0  0  0  0  0  0  0  0  0  0  0  0
    7.6949    2.8866    0.5807 H   0  0  0  0  0  0  0  0  0  0  0  0
    9.1297    1.0792    1.5287 H   0  0  0  0  0  0  0  0  0  0  0  0
    8.2558   -0.3571    3.4571 H   0  0  0  0  0  0  0  0  0  0  0  0
    6.9182    0.4728    4.2814 H   0  0  0  0  0  0  0  0  0  0  0  0
    9.4444    2.0259    3.5070 H   0  0  0  0  0  0  0  0  0  0  0  0
    9.3318    1.1008    5.0276 H   0  0  0  0  0  0  0  0  0  0  0  0
    8.7175    3.3120    5.1860 H   0  0  0  0  0  0  0  0  0  0  0  0
    7.3410   -1.1676    1.4539 H   0  0  0  0  0  0  0  0  0  0  0  0
    8.9463   -2.9828   -0.1909 H   0  0  0  0  0  0  0  0  0  0  0  0
   10.3528   -2.9169    0.8711 H   0  0  0  0  0  0  0  0  0  0  0  0
    8.7271   -2.9954    1.5882 H   0  0  0  0  0  0  0  0  0  0  0  0
    7.1469   -1.7805   -0.8781 H   0  0  0  0  0  0  0  0  0  0  0  0
    8.1100   -0.4231   -1.4130 H   0  0  0  0  0  0  0  0  0  0  0  0
    1.2622   -0.9851   -2.1297 H   0  0  0  0  0  0  0  0  0  0  0  0
    2.8096   -1.6387   -2.7087 H   0  0  0  0  0  0  0  0  0  0  0  0
    0.9602   -3.3923    0.1827 H   0  0  0  0  0  0  0  0  0  0  0  0
    1.9674   -5.5401   -0.7259 H   0  0  0  0  0  0  0  0  0  0  0  0
    3.0845   -4.5906    0.2653 H   0  0  0  0  0  0  0  0  0  0  0  0
    3.2380   -4.5608   -1.4938 H   0  0  0  0  0  0  0  0  0  0  0  0
    1.1841   -3.8072   -2.8637 H   0  0  0  0  0  0  0  0  0  0  0  0
   -2.2273   -4.4818   -3.1285 H   0  0  0  0  0  0  0  0  0  0  0  0
   -0.7453   -4.2193   -4.0385 H   0  0  0  0  0  0  0  0  0  0  0  0
   -1.8230   -2.8539   -3.7192 H   0  0  0  0  0  0  0  0  0  0  0  0
   -1.0127   -2.5357   -0.0898 H   0  0  0  0  0  0  0  0  0  0  0  0
   -2.5992   -1.4301   -0.8158 H   0  0  0  0  0  0  0  0  0  0  0  0
   -3.1046   -4.7084   -0.7658 H   0  0  0  0  0  0  0  0  0  0  0  0
   -0.9909   -6.1649   -1.5788 H   0  0  0  0  0  0  0  0  0  0  0  0
   -2.3267   -6.9247   -0.6655 H   0  0  0  0  0  0  0  0  0  0  0  0
   -0.6430   -7.1843   -0.1785 H   0  0  0  0  0  0  0  0  0  0  0  0
   -4.2076   -4.3113    2.7700 H   0  0  0  0  0  0  0  0  0  0  0  0
   -3.2381   -6.4521    1.9754 H   0  0  0  0  0  0  0  0  0  0  0  0
   -4.9995   -6.5047    2.1211 H   0  0  0  0  0  0  0  0  0  0  0  0
   -4.2588   -6.3716    0.5250 H   0  0  0  0  0  0  0  0  0  0  0  0
   -5.9753   -4.7077    0.4121 H   0  0  0  0  0  0  0  0  0  0  0  0
   -5.2323   -3.1338    0.3554 H   0  0  0  0  0  0  0  0  0  0  0  0
   -6.2168   -2.3659    2.3275 H   0  0  0  0  0  0  0  0  0  0  0  0
   -7.6345   -3.8494    3.8755 H   0  0  0  0  0  0  0  0  0  0  0  0
   -5.9031   -4.0417    4.0162 H   0  0  0  0  0  0  0  0  0  0  0  0
   -6.8532   -5.2408    3.1249 H   0  0  0  0  0  0  0  0  0  0  0  0
   -8.3321   -4.2681    1.0565 H   0  0  0  0  0  0  0  0  0  0  0  0
   -9.7104   -2.3586    0.7937 H   0  0  0  0  0  0  0  0  0  0  0  0
   -8.8183   -0.5002    2.4727 H   0  0  0  0  0  0  0  0  0  0  0  0
   -7.3032    0.9036    1.2950 H   0  0  0  0  0  0  0  0  0  0  0  0
   -7.4808   -1.1152   -1.0080 H   0  0  0  0  0  0  0  0  0  0  0  0
   -6.0736   -0.9136   -2.8014 H   0  0  0  0  0  0  0  0  0  0  0  0
   -4.3896   -0.7935   -2.3088 H   0  0  0  0  0  0  0  0  0  0  0  0
   -5.2400    0.6358   -2.9187 H   0  0  0  0  0  0  0  0  0  0  0  0
  1  2  1  0
  2  3  1  0
  3  4  1  0
  4  5  1  0
  5  6  1  0
  6  7  1  0
  7  8  1  0
  8  9  1  0
  8 10  1  0
 10 11  1  1
 10 12  1  0
 10 13  1  0
 13 14  2  0
 13 15  1  0
 15 16  2  0
 15 17  1  0
 17 18  1  0
 18 19  1  0
 19 20  1  0
 20 21  1  0
 21 22  1  0
 22 23  1  0
 23 24  2  0
 23 25  1  0
 25 26  1  0
 26 27  1  0
 27 28  1  0
 27 29  1  0
 29 30  1  0
 30 31  1  0
 31 32  1  0
 32 33  1  0
 33 34  1  0
 34 35  1  0
 35 36  1  0
 36 37  1  0
 33 38  1  0
 38 39  1  0
 39 40  1  0
 38 41  1  0
 26 42  1  0
 42 43  1  0
 43 44  2  0
 43 45  1  0
 45 46  1  0
 45 47  1  0
 47 48  2  0
 48 49  1  0
 48 50  1  0
 50 51  1  0
 50 52  1  0
 52 53  1  0
 53 54  1  0
 52 55  1  0
 55 56  2  0
 55 57  1  0
 57 58  1  0
 57 59  1  0
 59 60  1  0
 60 61  1  0
 60 62  1  0
 62 63  2  0
 63 64  1  0
 64 65  2  0
 65 66  1  0
 66 67  2  0
 67 68  1  0
 67  3  1  0
 12  5  1  0
 22 17  1  0
 41 30  1  0
  1 69  1  0
  1 70  1  0
  1 71  1  0
  3 72  1  1
  4 73  1  0
  4 74  1  0
  5 75  1  1
  6 76  1  0
  6 77  1  0
  7 78  1  0
  7 79  1  0
  8 80  1  6
  9 81  1  0
  9 82  1  0
  9 83  1  0
 11 84  1  0
 18 85  1  0
 18 86  1  0
 19 87  1  0
 19 88  1  0
 20 89  1  0
 20 90  1  0
 21 91  1  0
 21 92  1  0
 22 93  1  1
 26 94  1  1
 27 95  1  1
 28 96  1  0
 28 97  1  0
 28 98  1  0
 29 99  1  0
 29100  1  0
 30101  1  1
 31102  1  0
 31103  1  0
 32104  1  0
 32105  1  0
 33106  1  1
 35107  1  0
 35108  1  0
 36109  1  0
 36110  1  0
 37111  1  0
 38112  1  1
 40113  1  0
 40114  1  0
 40115  1  0
 41116  1  0
 41117  1  0
 42118  1  0
 42119  1  0
 45120  1  1
 46121  1  0
 46122  1  0
 46123  1  0
 47124  1  0
 49125  1  0
 49126  1  0
 49127  1  0
 50128  1  1
 51129  1  0
 52130  1  6
 54131  1  0
 54132  1  0
 54133  1  0
 57134  1  1
 58135  1  0
 58136  1  0
 58137  1  0
 59138  1  0
 59139  1  0
 60140  1  1
 61141  1  0
 61142  1  0
 61143  1  0
 62144  1  0
 63145  1  0
 64146  1  0
 65147  1  0
 66148  1  0
 68149  1  0
 68150  1  0
 68151  1  0
M  END
$$$$
