
     RDKit          3D

 55 55  0  0  0  0  0  0  0  0999 V2000
   -5.9182    1.3757   -1.3704 C   0  0  0  0  0  0  0  0  0  0  0  0
   -4.5653    1.3220   -1.9254 N   0  0  0  0  0  0  0  0  0  0  0  0
   -3.5583    0.0655   -1.4115 S   0  0  0  0  0  6  0  0  0  0  0  0
   -4.4160   -1.0339   -1.0277 O   0  0  0  0  0  0  0  0  0  0  0  0
   -2.5736   -0.0602   -2.4652 O   0  0  0  0  0  0  0  0  0  0  0  0
   -2.7940    0.8103    0.0363 C   0  0  0  0  0  0  0  0  0  0  0  0
   -1.8829   -0.1937    0.6933 C   0  0  0  0  0  0  0  0  0  0  0  0
   -2.3699   -1.0310    1.7049 C   0  0  0  0  0  0  0  0  0  0  0  0
   -1.5483   -1.9727    2.3340 C   0  0  0  0  0  0  0  0  0  0  0  0
   -0.2159   -2.0527    1.9179 C   0  0  0  0  0  0  0  0  0  0  0  0
    0.7970   -2.8775    2.3489 N   0  0  0  0  0  0  0  0  0  0  0  0
    1.9472   -2.6161    1.6562 C   0  0  0  0  0  0  0  0  0  0  0  0
    1.6896   -1.6040    0.7514 C   0  0  0  0  0  0  0  0  0  0  0  0
    2.6704   -1.0146   -0.2174 C   0  0  0  0  0  0  0  0  0  0  0  0
    3.1634    0.3760    0.2186 C   0  0  0  0  0  0  0  0  0  0  0  0
    4.3118    0.8896   -0.5590 N   0  0  0  0  0  0  0  0  0  0  0  0
    4.7197    2.1964   -0.0318 C   0  0  0  0  0  0  0  0  0  0  0  0
    4.0069    1.0072   -1.9860 C   0  0  0  0  0  0  0  0  0  0  0  0
    0.3117   -1.2437    0.9122 C   0  0  0  0  0  0  0  0  0  0  0  0
   -0.5389   -0.3042    0.2901 C   0  0  0  0  0  0  0  0  0  0  0  0
   -2.0633   -1.4013    0.2350 O   0  0  0  0  0  0  0  0  0  0  0  0
   -1.8791   -0.3150   -0.2858 C   0  0  0  0  0  0  0  0  0  0  0  0
   -2.9191    0.4297   -0.7076 O   0  0  0  0  0  0  0  0  0  0  0  0
   -0.5629    0.3521   -0.5554 C   0  0  0  0  0  0  0  0  0  0  0  0
    0.5784   -0.4126    0.1022 C   0  0  0  0  0  0  0  0  0  0  0  0
    1.8922    0.2573   -0.1711 C   0  0  0  0  0  0  0  0  0  0  0  0
    2.1538    1.0126   -1.0930 O   0  0  0  0  0  0  0  0  0  0  0  0
    2.8372   -0.0882    0.7259 O   0  0  0  0  0  0  0  0  0  0  0  0
   -6.3357    2.3709   -1.5549 H   0  0  0  0  0  0  0  0  0  0  0  0
   -6.5593    0.6395   -1.8647 H   0  0  0  0  0  0  0  0  0  0  0  0
   -5.9159    1.2067   -0.2892 H   0  0  0  0  0  0  0  0  0  0  0  0
   -4.4824    1.4612   -2.9346 H   0  0  0  0  0  0  0  0  0  0  0  0
   -3.5886    1.1204    0.7208 H   0  0  0  0  0  0  0  0  0  0  0  0
   -2.2389    1.6953   -0.2878 H   0  0  0  0  0  0  0  0  0  0  0  0
   -3.4132   -0.9694    2.0119 H   0  0  0  0  0  0  0  0  0  0  0  0
   -1.9406   -2.6215    3.1120 H   0  0  0  0  0  0  0  0  0  0  0  0
    0.6976   -3.5778    3.0694 H   0  0  0  0  0  0  0  0  0  0  0  0
    2.8517   -3.1746    1.8589 H   0  0  0  0  0  0  0  0  0  0  0  0
    3.5218   -1.6963   -0.3302 H   0  0  0  0  0  0  0  0  0  0  0  0
    2.1849   -0.9491   -1.1985 H   0  0  0  0  0  0  0  0  0  0  0  0
    2.3257    1.0857    0.1691 H   0  0  0  0  0  0  0  0  0  0  0  0
    3.4600    0.3193    1.2742 H   0  0  0  0  0  0  0  0  0  0  0  0
    4.9766    2.1247    1.0309 H   0  0  0  0  0  0  0  0  0  0  0  0
    5.6176    2.5569   -0.5459 H   0  0  0  0  0  0  0  0  0  0  0  0
    3.9303    2.9498   -0.1488 H   0  0  0  0  0  0  0  0  0  0  0  0
    4.8572    1.4410   -2.5260 H   0  0  0  0  0  0  0  0  0  0  0  0
    3.1264    1.6335   -2.1708 H   0  0  0  0  0  0  0  0  0  0  0  0
    3.8378    0.0229   -2.4349 H   0  0  0  0  0  0  0  0  0  0  0  0
   -0.1493    0.3223   -0.5087 H   0  0  0  0  0  0  0  0  0  0  0  0
   -3.7076   -0.1101   -0.4890 H   0  0  0  0  0  0  0  0  0  0  0  0
   -0.4189    0.4038   -1.6405 H   0  0  0  0  0  0  0  0  0  0  0  0
   -0.6000    1.3728   -0.1580 H   0  0  0  0  0  0  0  0  0  0  0  0
    0.4169   -0.4495    1.1881 H   0  0  0  0  0  0  0  0  0  0  0  0
    0.6331   -1.4412   -0.2744 H   0  0  0  0  0  0  0  0  0  0  0  0
    3.6392    0.3898    0.4270 H   0  0  0  0  0  0  0  0  0  0  0  0
  1  2  1  0
  2  3  1  0
  3  4  2  0
  3  5  2  0
  3  6  1  0
  6  7  1  0
  7  8  2  0
  8  9  1  0
  9 10  2  0
 10 11  1  0
 11 12  1  0
 12 13  2  0
 13 14  1  0
 14 15  1  0
 15 16  1  0
 16 17  1  0
 16 18  1  0
 13 19  1  0
 19 20  2  0
 21 22  2  0
 22 23  1  0
 22 24  1  0
 24 25  1  0
 25 26  1  0
 26 27  2  0
 26 28  1  0
 20  7  1  0
 19 10  1  0
  1 29  1  0
  1 30  1  0
  1 31  1  0
  2 32  1  0
  6 33  1  0
  6 34  1  0
  8 35  1  0
  9 36  1  0
 11 37  1  0
 12 38  1  0
 14 39  1  0
 14 40  1  0
 15 41  1  0
 15 42  1  0
 17 43  1  0
 17 44  1  0
 17 45  1  0
 18 46  1  0
 18 47  1  0
 18 48  1  0
 20 49  1  0
 23 50  1  0
 24 51  1  0
 24 52  1  0
 25 53  1  0
 25 54  1  0
 28 55  1  0
M  END
$$$$
