
     RDKit          3D

 39 41  0  0  0  0  0  0  0  0999 V2000
   -4.7540   -0.6006    1.2611 C   0  0  0  0  0  0  0  0  0  0  0  0
   -3.8619    0.2669    0.4923 N   0  0  0  0  0  0  0  0  0  0  0  0
   -4.5834    1.4640    0.0560 C   0  0  0  0  0  0  0  0  0  0  0  0
   -2.6589    0.6500    1.2593 C   0  0  0  0  0  0  0  0  0  0  0  0
   -1.6782   -0.4951    1.5813 C   0  0  0  0  0  0  0  0  0  0  0  0
   -1.0062   -1.0775    0.3750 C   0  0  0  0  0  0  0  0  0  0  0  0
   -1.4015   -2.2076   -0.3140 C   0  0  0  0  0  0  0  0  0  0  0  0
   -0.5350   -2.4054   -1.3532 N   0  0  0  0  0  0  0  0  0  0  0  0
    0.4364   -1.4322   -1.3549 C   0  0  0  0  0  0  0  0  0  0  0  0
    1.5183   -1.2428   -2.2207 C   0  0  0  0  0  0  0  0  0  0  0  0
    2.3566   -0.1497   -1.9822 C   0  0  0  0  0  0  0  0  0  0  0  0
    2.1281    0.7284   -0.9144 C   0  0  0  0  0  0  0  0  0  0  0  0
    3.0525    1.8972   -0.6789 C   0  0  0  0  0  0  0  0  0  0  0  0
    4.3776    1.4683   -0.2696 N   0  0  0  0  0  0  0  0  0  0  0  0
    4.7250    0.7963    0.8623 C   0  0  0  0  0  0  0  0  0  0  0  0
    6.0294    0.6485    0.9031 N   0  0  0  0  0  0  0  0  0  0  0  0
    6.4420    1.2569   -0.2480 C   0  0  0  0  0  0  0  0  0  0  0  0
    5.4695    1.7840   -0.9966 N   0  0  0  0  0  0  0  0  0  0  0  0
    1.0278    0.5138   -0.0628 C   0  0  0  0  0  0  0  0  0  0  0  0
    0.1676   -0.5833   -0.2823 C   0  0  0  0  0  0  0  0  0  0  0  0
   -5.6477   -0.8474    0.6763 H   0  0  0  0  0  0  0  0  0  0  0  0
   -4.2761   -1.5566    1.4952 H   0  0  0  0  0  0  0  0  0  0  0  0
   -5.0777   -0.1338    2.1983 H   0  0  0  0  0  0  0  0  0  0  0  0
   -5.4510    1.1906   -0.5551 H   0  0  0  0  0  0  0  0  0  0  0  0
   -4.9328    2.0670    0.9020 H   0  0  0  0  0  0  0  0  0  0  0  0
   -3.9447    2.0914   -0.5757 H   0  0  0  0  0  0  0  0  0  0  0  0
   -2.9579    1.1273    2.2022 H   0  0  0  0  0  0  0  0  0  0  0  0
   -2.1036    1.4083    0.6907 H   0  0  0  0  0  0  0  0  0  0  0  0
   -2.1765   -1.2882    2.1503 H   0  0  0  0  0  0  0  0  0  0  0  0
   -0.9036   -0.1012    2.2525 H   0  0  0  0  0  0  0  0  0  0  0  0
   -2.2382   -2.8754   -0.1583 H   0  0  0  0  0  0  0  0  0  0  0  0
   -0.5969   -3.1550   -2.0277 H   0  0  0  0  0  0  0  0  0  0  0  0
    1.7071   -1.9170   -3.0500 H   0  0  0  0  0  0  0  0  0  0  0  0
    3.2061    0.0095   -2.6468 H   0  0  0  0  0  0  0  0  0  0  0  0
    3.1445    2.4934   -1.5942 H   0  0  0  0  0  0  0  0  0  0  0  0
    2.6766    2.5584    0.1104 H   0  0  0  0  0  0  0  0  0  0  0  0
    4.0117    0.4476    1.5959 H   0  0  0  0  0  0  0  0  0  0  0  0
    7.4807    1.3205   -0.5459 H   0  0  0  0  0  0  0  0  0  0  0  0
    0.8280    1.1858    0.7670 H   0  0  0  0  0  0  0  0  0  0  0  0
  1  2  1  0
  2  3  1  0
  2  4  1  0
  4  5  1  0
  5  6  1  0
  6  7  2  0
  7  8  1  0
  8  9  1  0
  9 10  2  0
 10 11  1  0
 11 12  2  0
 12 13  1  0
 13 14  1  0
 14 15  1  0
 15 16  2  0
 16 17  1  0
 17 18  2  0
 12 19  1  0
 19 20  2  0
 20  6  1  0
 20  9  1  0
 18 14  1  0
  1 21  1  0
  1 22  1  0
  1 23  1  0
  3 24  1  0
  3 25  1  0
  3 26  1  0
  4 27  1  0
  4 28  1  0
  5 29  1  0
  5 30  1  0
  7 31  1  0
  8 32  1  0
 10 33  1  0
 11 34  1  0
 13 35  1  0
 13 36  1  0
 15 37  1  0
 17 38  1  0
 19 39  1  0
M  END
$$$$
