
     RDKit          3D

 56 59  0  0  0  0  0  0  0  0999 V2000
   -4.8133   -1.9281   -0.4626 C   0  0  0  0  0  0  0  0  0  0  0  0
   -3.4823   -1.2995   -0.4662 N   0  0  0  0  0  0  0  0  0  0  0  0
   -3.4313    0.1180   -0.2416 C   0  0  0  0  0  0  0  0  0  0  0  0
   -3.8723    0.9935   -1.2435 C   0  0  0  0  0  0  0  0  0  0  0  0
   -3.8893    2.3702   -1.0243 C   0  0  0  0  0  0  0  0  0  0  0  0
   -3.4881    2.8792    0.2053 C   0  0  0  0  0  0  0  0  0  0  0  0
   -3.0709    2.0119    1.2156 C   0  0  0  0  0  0  0  0  0  0  0  0
   -3.0202    0.6199    1.0082 C   0  0  0  0  0  0  0  0  0  0  0  0
   -2.6183   -0.3155    2.1341 C   0  0  0  0  0  0  0  0  0  0  0  0
   -1.7233    0.3016    3.1271 N   0  0  0  0  0  0  0  0  0  0  0  0
   -0.3750    0.4080    2.7428 C   0  0  0  0  0  0  0  0  0  0  0  0
   -0.0182   -0.0273    1.5252 N   0  0  0  0  0  0  0  0  0  0  0  0
    1.2468    0.1053    1.1060 C   0  0  0  0  0  0  0  0  0  0  0  0
    1.4919   -0.3789   -0.1736 N   0  0  0  0  0  0  0  0  0  0  0  0
    2.6089   -0.3922   -1.0158 C   0  0  0  0  0  0  0  0  0  0  0  0
    2.4812   -1.0261   -2.2791 C   0  0  0  0  0  0  0  0  0  0  0  0
    3.5456   -1.1088   -3.1844 C   0  0  0  0  0  0  0  0  0  0  0  0
    4.7392   -0.5499   -2.7966 C   0  0  0  0  0  0  0  0  0  0  0  0
    4.9024    0.0712   -1.5638 C   0  0  0  0  0  0  0  0  0  0  0  0
    3.8516    0.1541   -0.6641 C   0  0  0  0  0  0  0  0  0  0  0  0
    6.3102    0.5711   -1.4394 C   0  0  0  0  0  0  0  0  0  0  0  0
    6.9206    0.1450   -2.7802 C   0  0  0  0  0  0  0  0  0  0  0  0
    8.0665    0.3345   -3.1535 O   0  0  0  0  0  0  0  0  0  0  0  0
    5.9278   -0.5030   -3.5058 N   0  0  0  0  0  0  0  0  0  0  0  0
    2.1979    0.6567    1.8664 N   0  0  0  0  0  0  0  0  0  0  0  0
    1.8268    1.0927    3.0832 C   0  0  0  0  0  0  0  0  0  0  0  0
    0.5468    0.9924    3.5813 C   0  0  0  0  0  0  0  0  0  0  0  0
    0.2039    1.5316    4.9183 C   0  0  0  0  0  0  0  0  0  0  0  0
   -0.5848    0.6925    5.6515 F   0  0  0  0  0  0  0  0  0  0  0  0
    1.3003    1.7590    5.6997 F   0  0  0  0  0  0  0  0  0  0  0  0
   -0.4555    2.7216    4.8675 F   0  0  0  0  0  0  0  0  0  0  0  0
   -2.2495   -2.0296   -1.3694 S   0  0  0  0  0  6  0  0  0  0  0  0
   -2.8022   -1.8260   -3.0510 C   0  0  0  0  0  0  0  0  0  0  0  0
   -2.2923   -3.4513   -1.0901 O   0  0  0  0  0  0  0  0  0  0  0  0
   -1.0098   -1.2932   -1.2255 O   0  0  0  0  0  0  0  0  0  0  0  0
   -5.3730   -1.6665   -1.3649 H   0  0  0  0  0  0  0  0  0  0  0  0
   -4.7356   -3.0166   -0.3923 H   0  0  0  0  0  0  0  0  0  0  0  0
   -5.3841   -1.5955    0.4110 H   0  0  0  0  0  0  0  0  0  0  0  0
   -4.2258    0.6175   -2.1974 H   0  0  0  0  0  0  0  0  0  0  0  0
   -4.2245    3.0449   -1.8077 H   0  0  0  0  0  0  0  0  0  0  0  0
   -3.5037    3.9514    0.3854 H   0  0  0  0  0  0  0  0  0  0  0  0
   -2.7757    2.4316    2.1757 H   0  0  0  0  0  0  0  0  0  0  0  0
   -3.5433   -0.5915    2.6563 H   0  0  0  0  0  0  0  0  0  0  0  0
   -2.1856   -1.2526    1.7640 H   0  0  0  0  0  0  0  0  0  0  0  0
   -1.7871   -0.1927    4.0156 H   0  0  0  0  0  0  0  0  0  0  0  0
    0.6097   -0.7174   -0.5636 H   0  0  0  0  0  0  0  0  0  0  0  0
    1.5261   -1.4677   -2.5579 H   0  0  0  0  0  0  0  0  0  0  0  0
    3.4237   -1.5971   -4.1433 H   0  0  0  0  0  0  0  0  0  0  0  0
    4.0064    0.6410    0.2916 H   0  0  0  0  0  0  0  0  0  0  0  0
    6.3402    1.6599   -1.3510 H   0  0  0  0  0  0  0  0  0  0  0  0
    6.8383    0.0760   -0.6209 H   0  0  0  0  0  0  0  0  0  0  0  0
    6.0822   -0.8821   -4.4272 H   0  0  0  0  0  0  0  0  0  0  0  0
    2.6288    1.5469    3.6612 H   0  0  0  0  0  0  0  0  0  0  0  0
   -3.8033   -2.2445   -3.1608 H   0  0  0  0  0  0  0  0  0  0  0  0
   -2.1088   -2.3751   -3.6932 H   0  0  0  0  0  0  0  0  0  0  0  0
   -2.7766   -0.7704   -3.3198 H   0  0  0  0  0  0  0  0  0  0  0  0
  1  2  1  0
  2  3  1  0
  3  4  2  0
  4  5  1  0
  5  6  2  0
  6  7  1  0
  7  8  2  0
  8  9  1  0
  9 10  1  0
 10 11  1  0
 11 12  2  0
 12 13  1  0
 13 14  1  0
 14 15  1  0
 15 16  2  0
 16 17  1  0
 17 18  2  0
 18 19  1  0
 19 20  2  0
 19 21  1  0
 21 22  1  0
 22 23  2  0
 22 24  1  0
 13 25  2  0
 25 26  1  0
 26 27  2  0
 27 28  1  0
 28 29  1  0
 28 30  1  0
 28 31  1  0
  2 32  1  0
 32 33  1  0
 32 34  2  0
 32 35  2  0
  8  3  1  0
 27 11  1  0
 20 15  1  0
 24 18  1  0
  1 36  1  0
  1 37  1  0
  1 38  1  0
  4 39  1  0
  5 40  1  0
  6 41  1  0
  7 42  1  0
  9 43  1  0
  9 44  1  0
 10 45  1  0
 14 46  1  0
 16 47  1  0
 17 48  1  0
 20 49  1  0
 21 50  1  0
 21 51  1  0
 24 52  1  0
 26 53  1  0
 33 54  1  0
 33 55  1  0
 33 56  1  0
M  END
$$$$
