
     RDKit          3D

 77 81  0  0  0  0  0  0  0  0999 V2000
    5.0990   -1.2122    2.8503 C   0  0  0  0  0  0  0  0  0  0  0  0
    4.6540    0.1053    2.1894 C   0  0  0  0  0  0  0  0  0  0  0  0
    4.9177    1.2465    3.1902 C   0  0  0  0  0  0  0  0  0  0  0  0
    5.4514    0.3776    0.9025 C   0  0  0  0  0  0  0  0  0  0  0  0
    5.1518   -0.6232   -0.2135 C   0  0  0  0  0  0  0  0  0  0  0  0
    3.6464   -0.7921   -0.5426 C   0  0  2  0  0  0  0  0  0  0  0  0
    3.5924   -2.0463   -1.4331 C   0  0  0  0  0  0  0  0  0  0  0  0
    3.6789   -2.0733   -2.6503 O   0  0  0  0  0  0  0  0  0  0  0  0
    3.4993   -3.2035   -0.7539 O   0  0  0  0  0  0  0  0  0  0  0  0
    3.1459    0.4172   -1.3740 C   0  0  0  0  0  0  0  0  0  0  0  0
    1.6548    0.3406   -1.7433 C   0  0  0  0  0  0  0  0  0  0  0  0
    0.6979    0.1333   -0.5348 C   0  0  2  0  0  0  0  0  0  0  0  0
    0.6333    1.4953    0.2352 C   0  0  0  0  0  0  0  0  0  0  0  0
    1.2634   -0.9991    0.3755 C   0  0  2  0  0  0  0  0  0  0  0  0
    0.3380   -1.2457    1.5594 C   0  0  0  0  0  0  0  0  0  0  0  0
    0.7081   -1.7603    2.6116 O   0  0  0  0  0  0  0  0  0  0  0  0
   -1.1106   -0.9271    1.4078 C   0  0  0  0  0  0  0  0  0  0  0  0
   -1.6877   -0.4938    0.2615 C   0  0  0  0  0  0  0  0  0  0  0  0
   -0.7965   -0.3137   -1.0025 C   0  0  2  0  0  0  0  0  0  0  0  0
   -0.7923   -1.7019   -1.7264 C   0  0  0  0  0  0  0  0  0  0  0  0
   -1.3521    0.7000   -2.0430 C   0  0  0  0  0  0  0  0  0  0  0  0
   -2.8680    0.7075   -2.1933 C   0  0  0  0  0  0  0  0  0  0  0  0
   -3.5281    0.9129   -0.8193 C   0  0  1  0  0  0  0  0  0  0  0  0
   -5.0222    1.3745   -0.8965 C   0  0  0  0  0  0  0  0  0  0  0  0
   -5.1127    2.7497   -1.6065 C   0  0  0  0  0  0  0  0  0  0  0  0
   -5.9596    0.4068   -1.6363 C   0  0  0  0  0  0  0  0  0  0  0  0
   -5.5781    1.5760    0.5220 C   0  0  0  0  0  0  0  0  0  0  0  0
   -6.5657    2.2809    0.7301 O   0  0  0  0  0  0  0  0  0  0  0  0
   -4.9503    0.8495    1.6581 C   0  0  0  0  0  0  0  0  0  0  0  0
   -5.5050    1.0192    2.9595 C   0  0  0  0  0  0  0  0  0  0  0  0
   -5.9000    1.1201    4.0458 N   0  0  0  0  0  0  0  0  0  0  0  0
   -3.9217    0.0035    1.4604 C   0  0  0  0  0  0  0  0  0  0  0  0
   -3.2369   -0.2992    0.1286 C   0  0  2  0  0  0  0  0  0  0  0  0
   -3.8270   -1.6550   -0.3260 C   0  0  0  0  0  0  0  0  0  0  0  0
    2.7753   -0.9427    0.7461 C   0  0  2  0  0  0  0  0  0  0  0  0
    3.1478    0.0804    1.8430 C   0  0  0  0  0  0  0  0  0  0  0  0
    4.9921   -2.0772    2.1908 H   0  0  0  0  0  0  0  0  0  0  0  0
    6.1542   -1.1670    3.1495 H   0  0  0  0  0  0  0  0  0  0  0  0
    4.5090   -1.4205    3.7475 H   0  0  0  0  0  0  0  0  0  0  0  0
    4.3325    1.1114    4.1069 H   0  0  0  0  0  0  0  0  0  0  0  0
    4.6515    2.2212    2.7638 H   0  0  0  0  0  0  0  0  0  0  0  0
    5.9758    1.2869    3.4719 H   0  0  0  0  0  0  0  0  0  0  0  0
    5.2319    1.3904    0.5400 H   0  0  0  0  0  0  0  0  0  0  0  0
    6.5281    0.3656    1.1150 H   0  0  0  0  0  0  0  0  0  0  0  0
    5.6949   -0.3090   -1.1138 H   0  0  0  0  0  0  0  0  0  0  0  0
    5.5894   -1.5913    0.0593 H   0  0  0  0  0  0  0  0  0  0  0  0
    3.5408   -3.8973   -1.4441 H   0  0  0  0  0  0  0  0  0  0  0  0
    3.3446    1.3573   -0.8466 H   0  0  0  0  0  0  0  0  0  0  0  0
    3.7162    0.4851   -2.3129 H   0  0  0  0  0  0  0  0  0  0  0  0
    1.3891    1.2596   -2.2794 H   0  0  0  0  0  0  0  0  0  0  0  0
    1.5390   -0.4656   -2.4716 H   0  0  0  0  0  0  0  0  0  0  0  0
    1.6097    1.9794    0.3069 H   0  0  0  0  0  0  0  0  0  0  0  0
    0.0046    2.2367   -0.2642 H   0  0  0  0  0  0  0  0  0  0  0  0
    0.2494    1.3952    1.2531 H   0  0  0  0  0  0  0  0  0  0  0  0
    1.1854   -1.9354   -0.1919 H   0  0  0  0  0  0  0  0  0  0  0  0
   -1.6567   -1.1440    2.3167 H   0  0  0  0  0  0  0  0  0  0  0  0
   -1.7356   -1.8930   -2.2484 H   0  0  0  0  0  0  0  0  0  0  0  0
   -0.0175   -1.7684   -2.4941 H   0  0  0  0  0  0  0  0  0  0  0  0
   -0.6535   -2.5433   -1.0372 H   0  0  0  0  0  0  0  0  0  0  0  0
   -1.0602    1.7264   -1.8151 H   0  0  0  0  0  0  0  0  0  0  0  0
   -0.9111    0.4958   -3.0275 H   0  0  0  0  0  0  0  0  0  0  0  0
   -3.1160    1.5239   -2.8783 H   0  0  0  0  0  0  0  0  0  0  0  0
   -3.2135   -0.2057   -2.6864 H   0  0  0  0  0  0  0  0  0  0  0  0
   -3.0013    1.7713   -0.3648 H   0  0  0  0  0  0  0  0  0  0  0  0
   -4.4496    3.4833   -1.1349 H   0  0  0  0  0  0  0  0  0  0  0  0
   -4.8533    2.6855   -2.6671 H   0  0  0  0  0  0  0  0  0  0  0  0
   -6.1300    3.1631   -1.5646 H   0  0  0  0  0  0  0  0  0  0  0  0
   -6.1839   -0.4862   -1.0525 H   0  0  0  0  0  0  0  0  0  0  0  0
   -5.5489    0.0957   -2.6010 H   0  0  0  0  0  0  0  0  0  0  0  0
   -6.9291    0.8790   -1.8350 H   0  0  0  0  0  0  0  0  0  0  0  0
   -3.6069   -0.5734    2.3291 H   0  0  0  0  0  0  0  0  0  0  0  0
   -4.8827   -1.7705   -0.0580 H   0  0  0  0  0  0  0  0  0  0  0  0
   -3.3195   -2.4948    0.1663 H   0  0  0  0  0  0  0  0  0  0  0  0
   -3.7526   -1.8214   -1.4000 H   0  0  0  0  0  0  0  0  0  0  0  0
    2.9952   -1.9209    1.1938 H   0  0  0  0  0  0  0  0  0  0  0  0
    2.5785   -0.1236    2.7563 H   0  0  0  0  0  0  0  0  0  0  0  0
    2.8689    1.0880    1.5386 H   0  0  0  0  0  0  0  0  0  0  0  0
  1  2  1  0
  2  3  1  0
  2  4  1  0
  4  5  1  0
  5  6  1  0
  6  7  1  6
  7  8  2  0
  7  9  1  0
  6 10  1  0
 10 11  1  0
 11 12  1  0
 12 13  1  1
 12 14  1  0
 14 15  1  0
 15 16  2  0
 15 17  1  0
 17 18  2  0
 18 19  1  0
 19 20  1  6
 19 21  1  0
 21 22  1  0
 22 23  1  0
 23 24  1  0
 24 25  1  0
 24 26  1  0
 24 27  1  0
 27 28  2  0
 27 29  1  0
 29 30  1  0
 30 31  3  0
 29 32  2  0
 32 33  1  0
 33 34  1  6
 14 35  1  0
 35 36  1  0
 36  2  1  0
 35  6  1  0
 19 12  1  0
 33 23  1  0
 33 18  1  0
  1 37  1  0
  1 38  1  0
  1 39  1  0
  3 40  1  0
  3 41  1  0
  3 42  1  0
  4 43  1  0
  4 44  1  0
  5 45  1  0
  5 46  1  0
  9 47  1  0
 10 48  1  0
 10 49  1  0
 11 50  1  0
 11 51  1  0
 13 52  1  0
 13 53  1  0
 13 54  1  0
 14 55  1  6
 17 56  1  0
 20 57  1  0
 20 58  1  0
 20 59  1  0
 21 60  1  0
 21 61  1  0
 22 62  1  0
 22 63  1  0
 23 64  1  1
 25 65  1  0
 25 66  1  0
 25 67  1  0
 26 68  1  0
 26 69  1  0
 26 70  1  0
 32 71  1  0
 34 72  1  0
 34 73  1  0
 34 74  1  0
 35 75  1  1
 36 76  1  0
 36 77  1  0
M  END
$$$$
