
     RDKit          3D

 79 83  0  0  0  0  0  0  0  0999 V2000
  -11.9971    0.2952    1.2903 C   0  0  0  0  0  0  0  0  0  0  0  0
  -11.0222   -0.0781    0.2967 N   0  0  0  0  0  0  0  0  0  0  0  0
   -9.7329    0.4128    0.3642 C   0  0  0  0  0  0  0  0  0  0  0  0
   -9.3610    1.2318    1.2000 O   0  0  0  0  0  0  0  0  0  0  0  0
   -8.7559   -0.1587   -0.6088 C   0  0  0  0  0  0  0  0  0  0  0  0
   -9.2001   -0.5168   -1.8944 C   0  0  0  0  0  0  0  0  0  0  0  0
   -8.3167   -1.0834   -2.8092 C   0  0  0  0  0  0  0  0  0  0  0  0
   -6.9939   -1.3020   -2.4423 C   0  0  0  0  0  0  0  0  0  0  0  0
   -6.5446   -0.9305   -1.1703 C   0  0  0  0  0  0  0  0  0  0  0  0
   -7.3962   -0.3148   -0.2398 C   0  0  0  0  0  0  0  0  0  0  0  0
   -6.9650    0.0195    1.0685 N   0  0  0  0  0  0  0  0  0  0  0  0
   -5.6698    0.2492    1.5978 C   0  0  0  0  0  0  0  0  0  0  0  0
   -4.5891    0.2328    0.7864 N   0  0  0  0  0  0  0  0  0  0  0  0
   -3.3648    0.3785    1.3196 C   0  0  0  0  0  0  0  0  0  0  0  0
   -2.3198    0.3259    0.4066 N   0  0  0  0  0  0  0  0  0  0  0  0
   -0.9420    0.0860    0.5245 C   0  0  0  0  0  0  0  0  0  0  0  0
   -0.2718   -0.0060    1.7413 C   0  0  0  0  0  0  0  0  0  0  0  0
    1.0977   -0.2827    1.7876 C   0  0  0  0  0  0  0  0  0  0  0  0
    1.8448   -0.4680    0.6126 C   0  0  0  0  0  0  0  0  0  0  0  0
    1.2069   -0.3397   -0.6332 C   0  0  0  0  0  0  0  0  0  0  0  0
   -0.1696   -0.0278   -0.6539 C   0  0  0  0  0  0  0  0  0  0  0  0
   -0.8240    0.0938   -1.8652 O   0  0  0  0  0  0  0  0  0  0  0  0
   -0.8075    1.4601   -2.2899 C   0  0  0  0  0  0  0  0  0  0  0  0
    1.9781   -0.5562   -1.9133 C   0  0  0  0  0  0  0  0  0  0  0  0
    3.0773    0.4848   -2.1174 C   0  0  0  0  0  0  0  0  0  0  0  0
    4.3762    0.1732   -1.3703 C   0  0  0  0  0  0  0  0  0  0  0  0
    4.2802    0.2327    0.1665 C   0  0  2  0  0  0  0  0  0  0  0  0
    5.5860    0.0952    0.8518 N   0  0  0  0  0  0  0  0  0  0  0  0
    6.4048    1.3150    0.8995 C   0  0  0  0  0  0  0  0  0  0  0  0
    7.5278    1.4317   -0.1596 C   0  0  0  0  0  0  0  0  0  0  0  0
    8.3789    0.2313   -0.3142 N   0  0  0  0  0  0  0  0  0  0  0  0
    9.2885    0.0800    0.8456 C   0  0  0  0  0  0  0  0  0  0  0  0
   10.3900   -0.9606    0.5769 C   0  0  0  0  0  0  0  0  0  0  0  0
   10.9953   -0.7064   -0.6892 O   0  0  0  0  0  0  0  0  0  0  0  0
    7.4927   -0.9371   -0.5047 C   0  0  0  0  0  0  0  0  0  0  0  0
    6.3791   -1.1056    0.5583 C   0  0  0  0  0  0  0  0  0  0  0  0
    3.3083   -0.8366    0.7297 C   0  0  0  0  0  0  0  0  0  0  0  0
   -3.1542    0.5602    2.6299 N   0  0  0  0  0  0  0  0  0  0  0  0
   -4.2408    0.5822    3.4267 C   0  0  0  0  0  0  0  0  0  0  0  0
   -5.5267    0.4268    2.9687 C   0  0  0  0  0  0  0  0  0  0  0  0
   -6.8480    0.4522    4.0688 Cl  0  0  0  0  0  0  0  0  0  0  0  0
  -12.9898    0.0282    0.9196 H   0  0  0  0  0  0  0  0  0  0  0  0
  -11.9446    1.3696    1.4865 H   0  0  0  0  0  0  0  0  0  0  0  0
  -11.7862   -0.2549    2.2102 H   0  0  0  0  0  0  0  0  0  0  0  0
  -11.1722   -0.9471   -0.1975 H   0  0  0  0  0  0  0  0  0  0  0  0
  -10.2290   -0.3397   -2.1980 H   0  0  0  0  0  0  0  0  0  0  0  0
   -8.6602   -1.3598   -3.8023 H   0  0  0  0  0  0  0  0  0  0  0  0
   -6.3017   -1.7632   -3.1432 H   0  0  0  0  0  0  0  0  0  0  0  0
   -5.5095   -1.1442   -0.9202 H   0  0  0  0  0  0  0  0  0  0  0  0
   -7.6444    0.6393    1.5293 H   0  0  0  0  0  0  0  0  0  0  0  0
   -2.6867    0.1293   -0.5173 H   0  0  0  0  0  0  0  0  0  0  0  0
   -0.8016    0.1074    2.6819 H   0  0  0  0  0  0  0  0  0  0  0  0
    1.5740   -0.3703    2.7629 H   0  0  0  0  0  0  0  0  0  0  0  0
   -1.3952    2.0951   -1.6191 H   0  0  0  0  0  0  0  0  0  0  0  0
    0.2148    1.8424   -2.3729 H   0  0  0  0  0  0  0  0  0  0  0  0
   -1.2640    1.5031   -3.2847 H   0  0  0  0  0  0  0  0  0  0  0  0
    2.3895   -1.5733   -1.9271 H   0  0  0  0  0  0  0  0  0  0  0  0
    1.3062   -0.5113   -2.7775 H   0  0  0  0  0  0  0  0  0  0  0  0
    3.3198    0.5100   -3.1872 H   0  0  0  0  0  0  0  0  0  0  0  0
    2.7236    1.4892   -1.8547 H   0  0  0  0  0  0  0  0  0  0  0  0
    4.7311   -0.8135   -1.6912 H   0  0  0  0  0  0  0  0  0  0  0  0
    5.1174    0.9003   -1.7171 H   0  0  0  0  0  0  0  0  0  0  0  0
    3.8661    1.2126    0.4434 H   0  0  0  0  0  0  0  0  0  0  0  0
    5.7797    2.2169    0.8600 H   0  0  0  0  0  0  0  0  0  0  0  0
    6.8738    1.3420    1.8916 H   0  0  0  0  0  0  0  0  0  0  0  0
    8.1515    2.3053    0.0695 H   0  0  0  0  0  0  0  0  0  0  0  0
    7.0803    1.6532   -1.1355 H   0  0  0  0  0  0  0  0  0  0  0  0
    8.7614   -0.1581    1.7765 H   0  0  0  0  0  0  0  0  0  0  0  0
    9.8018    1.0396    0.9999 H   0  0  0  0  0  0  0  0  0  0  0  0
   11.1674   -0.9057    1.3464 H   0  0  0  0  0  0  0  0  0  0  0  0
    9.9911   -1.9790    0.5708 H   0  0  0  0  0  0  0  0  0  0  0  0
   10.2670   -0.3512   -1.2421 H   0  0  0  0  0  0  0  0  0  0  0  0
    8.0783   -1.8619   -0.5630 H   0  0  0  0  0  0  0  0  0  0  0  0
    7.0300   -0.8415   -1.4939 H   0  0  0  0  0  0  0  0  0  0  0  0
    6.8503   -1.4152    1.4999 H   0  0  0  0  0  0  0  0  0  0  0  0
    5.7434   -1.9514    0.2754 H   0  0  0  0  0  0  0  0  0  0  0  0
    3.4657   -1.8132    0.2530 H   0  0  0  0  0  0  0  0  0  0  0  0
    3.5319   -0.9972    1.7939 H   0  0  0  0  0  0  0  0  0  0  0  0
   -4.0299    0.7284    4.4821 H   0  0  0  0  0  0  0  0  0  0  0  0
  1  2  1  0
  2  3  1  0
  3  4  2  0
  3  5  1  0
  5  6  2  0
  6  7  1  0
  7  8  2  0
  8  9  1  0
  9 10  2  0
 10 11  1  0
 11 12  1  0
 12 13  2  0
 13 14  1  0
 14 15  1  0
 15 16  1  0
 16 17  2  0
 17 18  1  0
 18 19  2  0
 19 20  1  0
 20 21  2  0
 21 22  1  0
 22 23  1  0
 20 24  1  0
 24 25  1  0
 25 26  1  0
 26 27  1  0
 27 28  1  0
 28 29  1  0
 29 30  1  0
 30 31  1  0
 31 32  1  0
 32 33  1  0
 33 34  1  0
 31 35  1  0
 35 36  1  0
 27 37  1  0
 14 38  2  0
 38 39  1  0
 39 40  2  0
 40 41  1  0
 10  5  1  0
 40 12  1  0
 21 16  1  0
 36 28  1  0
 37 19  1  0
  1 42  1  0
  1 43  1  0
  1 44  1  0
  2 45  1  0
  6 46  1  0
  7 47  1  0
  8 48  1  0
  9 49  1  0
 11 50  1  0
 15 51  1  0
 17 52  1  0
 18 53  1  0
 23 54  1  0
 23 55  1  0
 23 56  1  0
 24 57  1  0
 24 58  1  0
 25 59  1  0
 25 60  1  0
 26 61  1  0
 26 62  1  0
 27 63  1  6
 29 64  1  0
 29 65  1  0
 30 66  1  0
 30 67  1  0
 32 68  1  0
 32 69  1  0
 33 70  1  0
 33 71  1  0
 34 72  1  0
 35 73  1  0
 35 74  1  0
 36 75  1  0
 36 76  1  0
 37 77  1  0
 37 78  1  0
 39 79  1  0
M  END
$$$$
