
     RDKit          3D

 51 55  0  0  0  0  0  0  0  0999 V2000
   -3.8853   -3.8002   -0.8154 C   0  0  0  0  0  0  0  0  0  0  0  0
   -4.4086   -2.6317   -0.0218 C   0  0  0  0  0  0  0  0  0  0  0  0
   -5.5826   -2.5793    0.3408 O   0  0  0  0  0  0  0  0  0  0  0  0
   -3.5023   -1.6383    0.2840 N   0  0  0  0  0  0  0  0  0  0  0  0
   -3.9271   -0.4573    1.0247 C   0  0  0  0  0  0  0  0  0  0  0  0
   -2.7494    0.5065    0.9572 C   0  0  0  0  0  0  0  0  0  0  0  0
   -2.8750    1.4649   -0.1728 C   0  0  0  0  0  0  0  0  0  0  0  0
   -2.8153    2.7743   -0.1497 N   0  0  0  0  0  0  0  0  0  0  0  0
   -2.9382    3.0947   -1.4773 C   0  0  0  0  0  0  0  0  0  0  0  0
   -2.9507    4.4877   -1.9623 C   0  0  0  0  0  0  0  0  0  0  0  0
   -3.0455    2.0454   -2.3014 N   0  0  0  0  0  0  0  0  0  0  0  0
   -3.0118    0.9561   -1.4331 O   0  0  0  0  0  0  0  0  0  0  0  0
   -1.5714   -0.4472    0.7811 C   0  0  0  0  0  0  0  0  0  0  0  0
   -2.0776   -1.6457   -0.0193 C   0  0  0  0  0  0  0  0  0  0  0  0
   -0.1778    0.1126    0.3884 C   0  0  0  0  0  0  0  0  0  0  0  0
    0.4505   -0.8080    1.3890 N   0  0  0  0  0  0  0  0  0  0  0  0
    1.9111   -0.4599    2.2239 S   0  0  0  0  0  6  0  0  0  0  0  0
    1.7480    0.9010    2.6886 O   0  0  0  0  0  0  0  0  0  0  0  0
    2.1352   -1.5637    3.1349 O   0  0  0  0  0  0  0  0  0  0  0  0
    3.1151   -0.5823    0.9339 C   0  0  0  0  0  0  0  0  0  0  0  0
    2.9649   -1.6249   -0.0005 C   0  0  0  0  0  0  0  0  0  0  0  0
    3.8673   -1.7548   -1.0463 C   0  0  0  0  0  0  0  0  0  0  0  0
    4.9188   -0.8516   -1.1505 C   0  0  0  0  0  0  0  0  0  0  0  0
    5.0809    0.1744   -0.2019 C   0  0  0  0  0  0  0  0  0  0  0  0
    6.1585    1.0658   -0.3048 C   0  0  0  0  0  0  0  0  0  0  0  0
    6.3288    2.0675    0.6402 C   0  0  0  0  0  0  0  0  0  0  0  0
    5.4117    2.1413    1.6639 C   0  0  0  0  0  0  0  0  0  0  0  0
    4.3639    1.2993    1.7893 N   0  0  0  0  0  0  0  0  0  0  0  0
    4.1741    0.3248    0.8742 C   0  0  0  0  0  0  0  0  0  0  0  0
   -0.8667   -0.8686    2.1008 C   0  0  0  0  0  0  0  0  0  0  0  0
   -3.2130   -4.4000   -0.1965 H   0  0  0  0  0  0  0  0  0  0  0  0
   -3.3670   -3.4531   -1.7126 H   0  0  0  0  0  0  0  0  0  0  0  0
   -4.7245   -4.4269   -1.1301 H   0  0  0  0  0  0  0  0  0  0  0  0
   -4.1039   -0.7812    2.0575 H   0  0  0  0  0  0  0  0  0  0  0  0
   -4.8655   -0.0597    0.6221 H   0  0  0  0  0  0  0  0  0  0  0  0
   -2.6799    1.0887    1.8838 H   0  0  0  0  0  0  0  0  0  0  0  0
   -3.9674    4.7833   -2.2431 H   0  0  0  0  0  0  0  0  0  0  0  0
   -2.3030    4.6007   -2.8371 H   0  0  0  0  0  0  0  0  0  0  0  0
   -2.5956    5.1749   -1.1879 H   0  0  0  0  0  0  0  0  0  0  0  0
   -1.6265   -2.6007    0.2639 H   0  0  0  0  0  0  0  0  0  0  0  0
   -1.9614   -1.4997   -1.0979 H   0  0  0  0  0  0  0  0  0  0  0  0
   -0.0150    1.1688    0.6302 H   0  0  0  0  0  0  0  0  0  0  0  0
    0.1494   -0.0813   -0.6368 H   0  0  0  0  0  0  0  0  0  0  0  0
    2.1511   -2.3407    0.0964 H   0  0  0  0  0  0  0  0  0  0  0  0
    3.7589   -2.5579   -1.7718 H   0  0  0  0  0  0  0  0  0  0  0  0
    5.6253   -0.9601   -1.9713 H   0  0  0  0  0  0  0  0  0  0  0  0
    6.8743    0.9817   -1.1189 H   0  0  0  0  0  0  0  0  0  0  0  0
    7.1558    2.7658    0.5820 H   0  0  0  0  0  0  0  0  0  0  0  0
    5.4888    2.8991    2.4391 H   0  0  0  0  0  0  0  0  0  0  0  0
   -1.0965   -1.8633    2.4905 H   0  0  0  0  0  0  0  0  0  0  0  0
   -0.9278   -0.1408    2.9176 H   0  0  0  0  0  0  0  0  0  0  0  0
  1  2  1  0
  2  3  2  0
  2  4  1  0
  4  5  1  0
  5  6  1  0
  6  7  1  0
  7  8  2  0
  8  9  1  0
  9 10  1  0
  9 11  2  0
 11 12  1  0
  6 13  1  0
 13 14  1  0
 13 15  1  0
 15 16  1  0
 16 17  1  0
 17 18  2  0
 17 19  2  0
 17 20  1  0
 20 21  2  0
 21 22  1  0
 22 23  2  0
 23 24  1  0
 24 25  2  0
 25 26  1  0
 26 27  2  0
 27 28  1  0
 28 29  2  0
 16 30  1  0
 14  4  1  0
 29 20  1  0
 12  7  1  0
 30 13  1  0
 29 24  1  0
  1 31  1  0
  1 32  1  0
  1 33  1  0
  5 34  1  0
  5 35  1  0
  6 36  1  0
 10 37  1  0
 10 38  1  0
 10 39  1  0
 14 40  1  0
 14 41  1  0
 15 42  1  0
 15 43  1  0
 21 44  1  0
 22 45  1  0
 23 46  1  0
 25 47  1  0
 26 48  1  0
 27 49  1  0
 30 50  1  0
 30 51  1  0
M  END
$$$$
