
     RDKit          3D

 58 61  0  0  0  0  0  0  0  0999 V2000
   -5.0838   -3.7462   -0.4291 C   0  0  0  0  0  0  0  0  0  0  0  0
   -4.9155   -2.2492   -0.4291 C   0  0  0  0  0  0  0  0  0  0  0  0
   -5.9351   -1.4612   -0.9949 C   0  0  0  0  0  0  0  0  0  0  0  0
   -5.8261   -0.0705   -1.0209 C   0  0  0  0  0  0  0  0  0  0  0  0
   -4.6996    0.5537   -0.4907 C   0  0  0  0  0  0  0  0  0  0  0  0
   -3.6715   -0.2113    0.0579 C   0  0  0  0  0  0  0  0  0  0  0  0
   -3.7679   -1.6073    0.0893 C   0  0  0  0  0  0  0  0  0  0  0  0
   -2.4378   -2.5916    0.7728 S   0  0  0  0  0  6  0  0  0  0  0  0
   -2.9052   -3.0687    2.0570 O   0  0  0  0  0  0  0  0  0  0  0  0
   -2.0235   -3.5029   -0.2736 O   0  0  0  0  0  0  0  0  0  0  0  0
   -1.1467   -1.5586    1.0590 N   0  0  0  0  0  0  0  0  0  0  0  0
   -0.2858   -1.1031   -0.0521 C   0  0  0  0  0  0  0  0  0  0  0  0
    1.0833   -0.6595    0.4882 C   0  0  0  0  0  0  0  0  0  0  0  0
    0.9795    0.3831    1.5204 N   0  0  0  0  0  0  0  0  0  0  0  0
    1.9256    1.3846    1.7237 C   0  0  0  0  0  0  0  0  0  0  0  0
    1.6835    2.4106    2.3560 O   0  0  0  0  0  0  0  0  0  0  0  0
    3.2834    1.2225    1.1541 C   0  0  0  0  0  0  0  0  0  0  0  0
    4.0331    0.0707    1.3827 C   0  0  0  0  0  0  0  0  0  0  0  0
    5.3216   -0.0387    0.8435 C   0  0  0  0  0  0  0  0  0  0  0  0
    5.9023    0.9890    0.0755 C   0  0  0  0  0  0  0  0  0  0  0  0
    7.2011    0.8473   -0.4368 N   0  0  0  0  0  0  0  0  0  0  0  0
    7.4861   -0.4289   -1.0997 C   0  0  0  0  0  0  0  0  0  0  0  0
    7.8445    2.0081   -1.0509 C   0  0  0  0  0  0  0  0  0  0  0  0
    5.1362    2.1564   -0.0933 C   0  0  0  0  0  0  0  0  0  0  0  0
    3.8448    2.2781    0.4381 C   0  0  0  0  0  0  0  0  0  0  0  0
   -0.3201    0.5305    2.1770 C   0  0  0  0  0  0  0  0  0  0  0  0
   -1.0808   -0.7937    2.3286 C   0  0  0  0  0  0  0  0  0  0  0  0
   -4.4964    1.9051   -0.5066 O   0  0  0  0  0  0  0  0  0  0  0  0
   -5.6340    2.6811   -0.8527 C   0  0  0  0  0  0  0  0  0  0  0  0
   -6.8036    2.0526   -1.6097 C   0  0  0  0  0  0  0  0  0  0  0  0
   -7.6842    2.7146   -2.1530 O   0  0  0  0  0  0  0  0  0  0  0  0
   -6.8406    0.6871   -1.6023 N   0  0  0  0  0  0  0  0  0  0  0  0
   -4.8807   -4.1663    0.5603 H   0  0  0  0  0  0  0  0  0  0  0  0
   -6.1115   -4.0291   -0.6825 H   0  0  0  0  0  0  0  0  0  0  0  0
   -4.4236   -4.2041   -1.1718 H   0  0  0  0  0  0  0  0  0  0  0  0
   -6.8176   -1.9423   -1.4131 H   0  0  0  0  0  0  0  0  0  0  0  0
   -2.8092    0.3103    0.4514 H   0  0  0  0  0  0  0  0  0  0  0  0
   -0.1248   -1.9113   -0.7719 H   0  0  0  0  0  0  0  0  0  0  0  0
   -0.7667   -0.2706   -0.5759 H   0  0  0  0  0  0  0  0  0  0  0  0
    1.5846   -1.5158    0.9539 H   0  0  0  0  0  0  0  0  0  0  0  0
    1.7039   -0.3041   -0.3402 H   0  0  0  0  0  0  0  0  0  0  0  0
    3.6410   -0.7335    1.9990 H   0  0  0  0  0  0  0  0  0  0  0  0
    5.8890   -0.9371    1.0733 H   0  0  0  0  0  0  0  0  0  0  0  0
    8.5121   -0.4423   -1.4854 H   0  0  0  0  0  0  0  0  0  0  0  0
    6.8092   -0.5876   -1.9478 H   0  0  0  0  0  0  0  0  0  0  0  0
    7.4100   -1.2788   -0.4140 H   0  0  0  0  0  0  0  0  0  0  0  0
    7.3701    2.2693   -2.0038 H   0  0  0  0  0  0  0  0  0  0  0  0
    7.8263    2.8749   -0.3803 H   0  0  0  0  0  0  0  0  0  0  0  0
    8.9014    1.7965   -1.2496 H   0  0  0  0  0  0  0  0  0  0  0  0
    5.5198    3.0031   -0.6541 H   0  0  0  0  0  0  0  0  0  0  0  0
    3.2837    3.1974    0.2893 H   0  0  0  0  0  0  0  0  0  0  0  0
   -0.1864    0.9934    3.1613 H   0  0  0  0  0  0  0  0  0  0  0  0
   -0.9017    1.2321    1.5671 H   0  0  0  0  0  0  0  0  0  0  0  0
   -0.5666   -1.4234    3.0641 H   0  0  0  0  0  0  0  0  0  0  0  0
   -2.0851   -0.5825    2.7098 H   0  0  0  0  0  0  0  0  0  0  0  0
   -6.0399    3.1048    0.0734 H   0  0  0  0  0  0  0  0  0  0  0  0
   -5.2703    3.5143   -1.4646 H   0  0  0  0  0  0  0  0  0  0  0  0
   -7.6336    0.2490   -2.0519 H   0  0  0  0  0  0  0  0  0  0  0  0
  1  2  1  0
  2  3  2  0
  3  4  1  0
  4  5  2  0
  5  6  1  0
  6  7  2  0
  7  8  1  0
  8  9  2  0
  8 10  2  0
  8 11  1  0
 11 12  1  0
 12 13  1  0
 13 14  1  0
 14 15  1  0
 15 16  2  0
 15 17  1  0
 17 18  2  0
 18 19  1  0
 19 20  2  0
 20 21  1  0
 21 22  1  0
 21 23  1  0
 20 24  1  0
 24 25  2  0
 14 26  1  0
 26 27  1  0
  5 28  1  0
 28 29  1  0
 29 30  1  0
 30 31  2  0
 30 32  1  0
  7  2  1  0
 27 11  1  0
 32  4  1  0
 25 17  1  0
  1 33  1  0
  1 34  1  0
  1 35  1  0
  3 36  1  0
  6 37  1  0
 12 38  1  0
 12 39  1  0
 13 40  1  0
 13 41  1  0
 18 42  1  0
 19 43  1  0
 22 44  1  0
 22 45  1  0
 22 46  1  0
 23 47  1  0
 23 48  1  0
 23 49  1  0
 24 50  1  0
 25 51  1  0
 26 52  1  0
 26 53  1  0
 27 54  1  0
 27 55  1  0
 29 56  1  0
 29 57  1  0
 32 58  1  0
M  END
$$$$
