
     RDKit          3D

 40 42  0  0  0  0  0  0  0  0999 V2000
   -4.8335    0.7175    2.9661 C   0  0  0  0  0  0  0  0  0  0  0  0
   -4.3908   -0.0096    1.7972 N   0  0  0  0  0  0  0  0  0  0  0  0
   -4.9691   -1.1596    1.3295 C   0  0  0  0  0  0  0  0  0  0  0  0
   -4.2825   -1.5487    0.2023 C   0  0  0  0  0  0  0  0  0  0  0  0
   -3.2458   -0.6026   -0.0222 C   0  0  0  0  0  0  0  0  0  0  0  0
   -2.2421   -0.4750   -1.0018 C   0  0  0  0  0  0  0  0  0  0  0  0
   -1.3420    0.5996   -0.9335 C   0  0  0  0  0  0  0  0  0  0  0  0
   -0.2854    0.6926   -1.9791 C   0  0  0  0  0  0  0  0  0  0  0  0
   -0.4613    0.1968   -3.0861 O   0  0  0  0  0  0  0  0  0  0  0  0
    0.8901    1.3098   -1.6024 N   0  0  0  0  0  0  0  0  0  0  0  0
    2.0539    1.2968   -2.4712 C   0  0  0  0  0  0  0  0  0  0  0  0
    2.7934   -0.0463   -2.4624 C   0  0  0  0  0  0  0  0  0  0  0  0
    3.3241   -0.4094   -1.0937 C   0  0  0  0  0  0  0  0  0  0  0  0
    4.5018    0.1745   -0.6072 C   0  0  0  0  0  0  0  0  0  0  0  0
    4.9704   -0.1429    0.6684 C   0  0  0  0  0  0  0  0  0  0  0  0
    4.2646   -1.0422    1.4584 C   0  0  0  0  0  0  0  0  0  0  0  0
    4.7586   -1.3230    2.6980 O   0  0  0  0  0  0  0  0  0  0  0  0
    3.0936   -1.6320    0.9950 C   0  0  0  0  0  0  0  0  0  0  0  0
    2.6242   -1.3140   -0.2809 C   0  0  0  0  0  0  0  0  0  0  0  0
   -1.4568    1.5536    0.0828 C   0  0  0  0  0  0  0  0  0  0  0  0
   -2.4497    1.4457    1.0636 C   0  0  0  0  0  0  0  0  0  0  0  0
   -3.3305    0.3553    0.9920 C   0  0  0  0  0  0  0  0  0  0  0  0
   -5.1266    1.7238    2.6565 H   0  0  0  0  0  0  0  0  0  0  0  0
   -4.0084    0.7566    3.6818 H   0  0  0  0  0  0  0  0  0  0  0  0
   -5.6881    0.2050    3.4151 H   0  0  0  0  0  0  0  0  0  0  0  0
   -5.8196   -1.6077    1.8266 H   0  0  0  0  0  0  0  0  0  0  0  0
   -4.5019   -2.4203   -0.4004 H   0  0  0  0  0  0  0  0  0  0  0  0
   -2.1644   -1.2071   -1.8017 H   0  0  0  0  0  0  0  0  0  0  0  0
    1.0680    1.4359   -0.6141 H   0  0  0  0  0  0  0  0  0  0  0  0
    1.7288    1.5270   -3.4920 H   0  0  0  0  0  0  0  0  0  0  0  0
    2.7099    2.1071   -2.1353 H   0  0  0  0  0  0  0  0  0  0  0  0
    2.1355   -0.8458   -2.8250 H   0  0  0  0  0  0  0  0  0  0  0  0
    3.6330   -0.0040   -3.1676 H   0  0  0  0  0  0  0  0  0  0  0  0
    5.0626    0.8783   -1.2178 H   0  0  0  0  0  0  0  0  0  0  0  0
    5.8845    0.3080    1.0438 H   0  0  0  0  0  0  0  0  0  0  0  0
    4.1881   -1.9910    3.1122 H   0  0  0  0  0  0  0  0  0  0  0  0
    2.5352   -2.3348    1.6050 H   0  0  0  0  0  0  0  0  0  0  0  0
    1.7053   -1.7739   -0.6404 H   0  0  0  0  0  0  0  0  0  0  0  0
   -0.7920    2.4130    0.1148 H   0  0  0  0  0  0  0  0  0  0  0  0
   -2.5349    2.1931    1.8462 H   0  0  0  0  0  0  0  0  0  0  0  0
  1  2  1  0
  2  3  1  0
  3  4  2  0
  4  5  1  0
  5  6  2  0
  6  7  1  0
  7  8  1  0
  8  9  2  0
  8 10  1  0
 10 11  1  0
 11 12  1  0
 12 13  1  0
 13 14  2  0
 14 15  1  0
 15 16  2  0
 16 17  1  0
 16 18  1  0
 18 19  2  0
  7 20  2  0
 20 21  1  0
 21 22  2  0
 22  2  1  0
 22  5  1  0
 19 13  1  0
  1 23  1  0
  1 24  1  0
  1 25  1  0
  3 26  1  0
  4 27  1  0
  6 28  1  0
 10 29  1  0
 11 30  1  0
 11 31  1  0
 12 32  1  0
 12 33  1  0
 14 34  1  0
 15 35  1  0
 17 36  1  0
 18 37  1  0
 19 38  1  0
 20 39  1  0
 21 40  1  0
M  END
$$$$
