
     RDKit          3D

 47 51  0  0  0  0  0  0  0  0999 V2000
    3.3769    2.5822   -0.7563 O   0  0  0  0  0  0  0  0  0  0  0  0
    3.1330    1.3758   -0.7563 C   0  0  0  0  0  0  0  0  0  0  0  0
    2.1699    0.7422   -1.7587 C   0  0  0  0  0  0  0  0  0  0  0  0
    0.8904    0.4175   -1.1296 N   0  0  0  0  0  0  0  0  0  0  0  0
    0.7878   -0.8195   -0.5245 C   0  0  0  0  0  0  0  0  0  0  0  0
    1.7304   -1.6023   -0.4038 O   0  0  0  0  0  0  0  0  0  0  0  0
   -0.5293   -1.2143    0.0022 C   0  0  0  0  0  0  0  0  0  0  0  0
   -1.6001   -0.4031   -0.0033 C   0  0  0  0  0  0  0  0  0  0  0  0
   -2.8239   -0.9715    0.4974 C   0  0  0  0  0  0  0  0  0  0  0  0
   -4.0566   -0.6448    0.1432 N   0  0  0  0  0  0  0  0  0  0  0  0
   -4.8445   -1.4808    0.8817 C   0  0  0  0  0  0  0  0  0  0  0  0
   -6.3939   -1.4641    0.7945 C   0  0  0  0  0  0  0  0  0  0  0  0
   -7.0990   -2.5650    0.0422 C   0  0  0  0  0  0  0  0  0  0  0  0
   -7.0557   -1.1771   -0.5292 C   0  0  0  0  0  0  0  0  0  0  0  0
   -4.1811   -2.3077    1.6892 N   0  0  0  0  0  0  0  0  0  0  0  0
   -2.8515   -1.9875    1.4434 O   0  0  0  0  0  0  0  0  0  0  0  0
   -1.4181    0.9736   -0.5320 C   0  0  0  0  0  0  0  0  0  0  0  0
   -2.4597    1.9192   -0.4762 C   0  0  0  0  0  0  0  0  0  0  0  0
   -2.2891    3.2166   -0.9597 C   0  0  0  0  0  0  0  0  0  0  0  0
   -1.0686    3.5964   -1.4968 C   0  0  0  0  0  0  0  0  0  0  0  0
   -0.0198    2.6779   -1.5555 C   0  0  0  0  0  0  0  0  0  0  0  0
   -0.1781    1.3623   -1.0843 C   0  0  0  0  0  0  0  0  0  0  0  0
    3.6852    0.4777    0.1304 N   0  0  0  0  0  0  0  0  0  0  0  0
    4.5984    0.8777    1.1733 C   0  0  0  0  0  0  0  0  0  0  0  0
    5.7057   -0.1252    1.2304 C   0  0  0  0  0  0  0  0  0  0  0  0
    5.7680   -1.3027    1.9524 C   0  0  0  0  0  0  0  0  0  0  0  0
    6.9864   -2.0063    1.7351 C   0  0  0  0  0  0  0  0  0  0  0  0
    7.8084   -1.3521    0.8460 C   0  0  0  0  0  0  0  0  0  0  0  0
    7.1257    0.1147    0.3005 S   0  0  0  0  0  0  0  0  0  0  0  0
    2.0416    1.3911   -2.6301 H   0  0  0  0  0  0  0  0  0  0  0  0
    2.6348   -0.1734   -2.1474 H   0  0  0  0  0  0  0  0  0  0  0  0
   -0.5631   -2.2348    0.3718 H   0  0  0  0  0  0  0  0  0  0  0  0
   -6.8789   -1.0832    1.6849 H   0  0  0  0  0  0  0  0  0  0  0  0
   -8.0397   -2.9260    0.4411 H   0  0  0  0  0  0  0  0  0  0  0  0
   -6.4997   -3.3287   -0.4420 H   0  0  0  0  0  0  0  0  0  0  0  0
   -6.4286   -1.0121   -1.4005 H   0  0  0  0  0  0  0  0  0  0  0  0
   -7.9675   -0.5922   -0.5213 H   0  0  0  0  0  0  0  0  0  0  0  0
   -3.4288    1.6702   -0.0501 H   0  0  0  0  0  0  0  0  0  0  0  0
   -3.1084    3.9292   -0.9072 H   0  0  0  0  0  0  0  0  0  0  0  0
   -0.9232    4.6107   -1.8625 H   0  0  0  0  0  0  0  0  0  0  0  0
    0.9227    3.0406   -1.9555 H   0  0  0  0  0  0  0  0  0  0  0  0
    3.3430   -0.4827    0.1236 H   0  0  0  0  0  0  0  0  0  0  0  0
    4.0368    0.8805    2.1137 H   0  0  0  0  0  0  0  0  0  0  0  0
    4.9727    1.8930    1.0032 H   0  0  0  0  0  0  0  0  0  0  0  0
    4.9730   -1.6469    2.6022 H   0  0  0  0  0  0  0  0  0  0  0  0
    7.2413   -2.9557    2.1930 H   0  0  0  0  0  0  0  0  0  0  0  0
    8.7754   -1.6676    0.4875 H   0  0  0  0  0  0  0  0  0  0  0  0
  1  2  2  0
  2  3  1  0
  3  4  1  0
  4  5  1  0
  5  6  2  0
  5  7  1  0
  7  8  2  0
  8  9  1  0
  9 10  2  0
 10 11  1  0
 11 12  1  0
 12 13  1  0
 13 14  1  0
 11 15  2  0
 15 16  1  0
  8 17  1  0
 17 18  2  0
 18 19  1  0
 19 20  2  0
 20 21  1  0
 21 22  2  0
  2 23  1  0
 23 24  1  0
 24 25  1  0
 25 26  2  0
 26 27  1  0
 27 28  2  0
 28 29  1  0
 22  4  1  0
 29 25  1  0
 16  9  1  0
 22 17  1  0
 14 12  1  0
  3 30  1  0
  3 31  1  0
  7 32  1  0
 12 33  1  0
 13 34  1  0
 13 35  1  0
 14 36  1  0
 14 37  1  0
 18 38  1  0
 19 39  1  0
 20 40  1  0
 21 41  1  0
 23 42  1  0
 24 43  1  0
 24 44  1  0
 26 45  1  0
 27 46  1  0
 28 47  1  0
M  END
$$$$
