
     RDKit          3D

 54 57  0  0  0  0  0  0  0  0999 V2000
    5.4538    1.2404    1.3709 C   0  0  0  0  0  0  0  0  0  0  0  0
    5.5238    0.0212    0.4919 C   0  0  0  0  0  0  0  0  0  0  0  0
    6.6937   -0.2182   -0.2474 C   0  0  0  0  0  0  0  0  0  0  0  0
    6.8039   -1.3386   -1.0708 C   0  0  0  0  0  0  0  0  0  0  0  0
    5.7471   -2.2369   -1.1667 C   0  0  0  0  0  0  0  0  0  0  0  0
    4.5811   -2.0174   -0.4348 C   0  0  0  0  0  0  0  0  0  0  0  0
    4.4571   -0.8992    0.4095 C   0  0  0  0  0  0  0  0  0  0  0  0
    3.1592   -0.6996    1.1525 C   0  0  0  0  0  0  0  0  0  0  0  0
    2.2384    0.0807    0.3589 N   0  0  0  0  0  0  0  0  0  0  0  0
    0.9423    0.2830    0.7880 C   0  0  0  0  0  0  0  0  0  0  0  0
    0.5049   -0.2138    1.8212 O   0  0  0  0  0  0  0  0  0  0  0  0
    0.1361    1.2243   -0.1189 C   0  0  0  0  0  0  0  0  0  0  0  0
   -1.3265    1.0626   -0.0928 N   0  0  0  0  0  0  0  0  0  0  0  0
   -2.0678    2.2296   -0.0605 C   0  0  0  0  0  0  0  0  0  0  0  0
   -1.5443    3.3220   -0.3202 O   0  0  0  0  0  0  0  0  0  0  0  0
   -3.5687    2.1810    0.1870 C   0  0  0  0  0  0  0  0  0  0  0  0
   -4.5208    1.6783   -0.8825 C   0  0  0  0  0  0  0  0  0  0  0  0
   -5.8224    1.4296   -0.0929 C   0  0  0  0  0  0  0  0  0  0  0  0
   -5.4588    1.6282    1.3902 C   0  0  0  0  0  0  0  0  0  0  0  0
   -4.0093    1.5266    1.4013 N   0  0  0  0  0  0  0  0  0  0  0  0
   -3.5521    0.2878    1.8404 C   0  0  0  0  0  0  0  0  0  0  0  0
   -3.8850   -0.1475    2.9435 O   0  0  0  0  0  0  0  0  0  0  0  0
   -2.8551   -0.6205    0.8925 C   0  0  0  0  0  0  0  0  0  0  0  0
   -3.2617   -1.9678    1.0008 C   0  0  0  0  0  0  0  0  0  0  0  0
   -2.7487   -2.9475    0.1634 C   0  0  0  0  0  0  0  0  0  0  0  0
   -1.8448   -2.5863   -0.8220 C   0  0  0  0  0  0  0  0  0  0  0  0
   -1.4246   -1.2494   -0.9661 C   0  0  0  0  0  0  0  0  0  0  0  0
   -0.5323   -0.9668   -2.1480 C   0  0  0  0  0  0  0  0  0  0  0  0
   -1.8836   -0.2519   -0.0578 C   0  0  0  0  0  0  0  0  0  0  0  0
    5.4398    0.9455    2.4248 H   0  0  0  0  0  0  0  0  0  0  0  0
    6.3186    1.8952    1.2186 H   0  0  0  0  0  0  0  0  0  0  0  0
    4.5598    1.8290    1.1423 H   0  0  0  0  0  0  0  0  0  0  0  0
    7.5335    0.4713   -0.1862 H   0  0  0  0  0  0  0  0  0  0  0  0
    7.7163   -1.5091   -1.6362 H   0  0  0  0  0  0  0  0  0  0  0  0
    5.8306   -3.1097   -1.8090 H   0  0  0  0  0  0  0  0  0  0  0  0
    3.7613   -2.7283   -0.5226 H   0  0  0  0  0  0  0  0  0  0  0  0
    3.3151   -0.1933    2.1112 H   0  0  0  0  0  0  0  0  0  0  0  0
    2.6942   -1.6649    1.3879 H   0  0  0  0  0  0  0  0  0  0  0  0
    2.6270    0.6735   -0.3629 H   0  0  0  0  0  0  0  0  0  0  0  0
    0.4860    1.1781   -1.1533 H   0  0  0  0  0  0  0  0  0  0  0  0
    0.3995    2.2289    0.2368 H   0  0  0  0  0  0  0  0  0  0  0  0
   -3.8261    3.2403    0.3563 H   0  0  0  0  0  0  0  0  0  0  0  0
   -4.6627    2.4145   -1.6803 H   0  0  0  0  0  0  0  0  0  0  0  0
   -4.1785    0.7525   -1.3550 H   0  0  0  0  0  0  0  0  0  0  0  0
   -6.6238    2.1110   -0.3957 H   0  0  0  0  0  0  0  0  0  0  0  0
   -6.1712    0.4060   -0.2708 H   0  0  0  0  0  0  0  0  0  0  0  0
   -5.7313    2.6369    1.7209 H   0  0  0  0  0  0  0  0  0  0  0  0
   -5.9562    0.8963    2.0341 H   0  0  0  0  0  0  0  0  0  0  0  0
   -3.9898   -2.2581    1.7582 H   0  0  0  0  0  0  0  0  0  0  0  0
   -3.0670   -3.9810    0.2701 H   0  0  0  0  0  0  0  0  0  0  0  0
   -1.4729   -3.3562   -1.4964 H   0  0  0  0  0  0  0  0  0  0  0  0
   -0.7549    0.0114   -2.5850 H   0  0  0  0  0  0  0  0  0  0  0  0
    0.5208   -1.0285   -1.8617 H   0  0  0  0  0  0  0  0  0  0  0  0
   -0.7030   -1.6952   -2.9495 H   0  0  0  0  0  0  0  0  0  0  0  0
  1  2  1  0
  2  3  2  0
  3  4  1  0
  4  5  2  0
  5  6  1  0
  6  7  2  0
  7  8  1  0
  8  9  1  0
  9 10  1  0
 10 11  2  0
 10 12  1  0
 12 13  1  0
 13 14  1  0
 14 15  2  0
 14 16  1  0
 16 17  1  0
 17 18  1  0
 18 19  1  0
 19 20  1  0
 20 21  1  0
 21 22  2  0
 21 23  1  0
 23 24  2  0
 24 25  1  0
 25 26  2  0
 26 27  1  0
 27 28  1  0
 27 29  2  0
  7  2  1  0
 29 13  1  0
 20 16  1  0
 29 23  1  0
  1 30  1  0
  1 31  1  0
  1 32  1  0
  3 33  1  0
  4 34  1  0
  5 35  1  0
  6 36  1  0
  8 37  1  0
  8 38  1  0
  9 39  1  0
 12 40  1  0
 12 41  1  0
 16 42  1  0
 17 43  1  0
 17 44  1  0
 18 45  1  0
 18 46  1  0
 19 47  1  0
 19 48  1  0
 24 49  1  0
 25 50  1  0
 26 51  1  0
 28 52  1  0
 28 53  1  0
 28 54  1  0
M  END
$$$$
