
     RDKit          3D

 25 26  0  0  0  0  0  0  0  0999 V2000
    0.6913    0.0000    0.0000 Cl  0  0  0  0  0  0  0  0  0  0  0  0
   -4.9414    0.2212   -0.9513 O   0  0  0  0  0  0  0  0  0  0  0  0
   -3.7076    0.1642   -0.7703 C   0  0  0  0  0  0  0  0  0  0  0  0
   -2.8474   -1.0531   -0.7355 C   0  0  0  0  0  0  0  0  0  0  0  0
   -1.5130   -0.5354   -0.4947 N   0  0  0  0  0  0  0  0  0  0  0  0
   -0.2777   -1.2735   -0.3664 C   0  0  0  0  0  0  0  0  0  0  0  0
    0.8757   -0.3979   -0.1250 C   0  0  0  0  0  0  0  0  0  0  0  0
    0.8178    0.9742   -0.0272 C   0  0  0  0  0  0  0  0  0  0  0  0
    1.9416    1.7427    0.2015 C   0  0  0  0  0  0  0  0  0  0  0  0
    3.1744    1.1599    0.3416 C   0  0  0  0  0  0  0  0  0  0  0  0
    3.2553   -0.2101    0.2474 C   0  0  0  0  0  0  0  0  0  0  0  0
    4.8447   -0.9365    0.4299 Cl  0  0  0  0  0  0  0  0  0  0  0  0
    2.1211   -0.9780    0.0172 C   0  0  0  0  0  0  0  0  0  0  0  0
    2.3020   -2.7090   -0.0900 Cl  0  0  0  0  0  0  0  0  0  0  0  0
   -0.4335    1.6121   -0.1657 N   0  0  0  0  0  0  0  0  0  0  0  0
   -1.6322    0.8605   -0.4043 C   0  0  0  0  0  0  0  0  0  0  0  0
   -2.8511    1.2554   -0.5568 N   0  0  0  0  0  0  0  0  0  0  0  0
   -0.6913    0.0000    0.0000 H   0  0  0  0  0  0  0  0  0  0  0  0
   -3.1314   -1.6268    0.1948 H   0  0  0  0  0  0  0  0  0  0  0  0
   -2.9244   -1.6585   -1.6444 H   0  0  0  0  0  0  0  0  0  0  0  0
   -0.4064   -1.9771    0.4916 H   0  0  0  0  0  0  0  0  0  0  0  0
   -0.0554   -1.8544   -1.3096 H   0  0  0  0  0  0  0  0  0  0  0  0
    1.8670    2.8127    0.2733 H   0  0  0  0  0  0  0  0  0  0  0  0
    4.0523    1.7544    0.5197 H   0  0  0  0  0  0  0  0  0  0  0  0
   -0.5303    2.6529   -0.0995 H   0  0  0  0  0  0  0  0  0  0  0  0
  2  3  2  0
  3  4  1  0
  4  5  1  0
  5  6  1  0
  6  7  1  0
  7  8  2  0
  8  9  1  0
  9 10  2  0
 10 11  1  0
 11 12  1  0
 11 13  2  0
 13 14  1  0
  8 15  1  0
 15 16  1  0
 16 17  2  0
 17  3  1  0
 16  5  1  0
 13  7  1  0
  1 18  1  0
  4 19  1  0
  4 20  1  0
  6 21  1  0
  6 22  1  0
  9 23  1  0
 10 24  1  0
 15 25  1  0
M  END
$$$$
