
     RDKit          3D

 42 45  0  0  0  0  0  0  0  0999 V2000
    5.2946    1.0352    1.2384 C   0  0  0  0  0  0  0  0  0  0  0  0
    4.6863    0.8126   -0.1422 C   0  0  1  0  0  0  0  0  0  0  0  0
    4.7748   -0.6601   -0.5807 C   0  0  0  0  0  0  0  0  0  0  0  0
    3.4832   -1.2860   -0.3688 O   0  0  0  0  0  0  0  0  0  0  0  0
    2.6240   -0.2006   -0.2682 C   0  0  0  0  0  0  0  0  0  0  0  0
    3.2195    0.9753   -0.1504 C   0  0  0  0  0  0  0  0  0  0  0  0
    2.4514    2.2053   -0.0287 C   0  0  0  0  0  0  0  0  0  0  0  0
    2.9899    3.2780    0.1971 O   0  0  0  0  0  0  0  0  0  0  0  0
    0.9393    2.0833   -0.2182 C   0  0  0  0  0  0  0  0  0  0  0  0
    0.3012    3.0998   -0.4553 O   0  0  0  0  0  0  0  0  0  0  0  0
    0.3117    0.7191   -0.1598 C   0  0  0  0  0  0  0  0  0  0  0  0
    1.1786   -0.3917   -0.2290 C   0  0  0  0  0  0  0  0  0  0  0  0
    0.6403   -1.6776   -0.2485 C   0  0  0  0  0  0  0  0  0  0  0  0
   -0.7391   -1.8661   -0.2107 C   0  0  0  0  0  0  0  0  0  0  0  0
   -1.6317   -0.7800   -0.1409 C   0  0  0  0  0  0  0  0  0  0  0  0
   -1.0986    0.5335   -0.0742 C   0  0  0  0  0  0  0  0  0  0  0  0
   -2.0224    1.7278    0.0635 C   0  0  0  0  0  0  0  0  0  0  0  0
   -3.4380    1.3876    0.5079 C   0  0  0  0  0  0  0  0  0  0  0  0
   -3.9707    0.2325   -0.3175 C   0  0  0  0  0  0  0  0  0  0  0  0
   -3.1449   -1.0571   -0.1003 C   0  0  0  0  0  0  0  0  0  0  0  0
   -3.5724   -2.0441   -1.2123 C   0  0  0  0  0  0  0  0  0  0  0  0
   -3.5012   -1.6810    1.2674 C   0  0  0  0  0  0  0  0  0  0  0  0
    5.1785    2.0772    1.5549 H   0  0  0  0  0  0  0  0  0  0  0  0
    6.3658    0.8073    1.2259 H   0  0  0  0  0  0  0  0  0  0  0  0
    4.8259    0.3998    1.9987 H   0  0  0  0  0  0  0  0  0  0  0  0
    5.1850    1.4567   -0.8742 H   0  0  0  0  0  0  0  0  0  0  0  0
    5.5360   -1.2266   -0.0339 H   0  0  0  0  0  0  0  0  0  0  0  0
    5.0023   -0.7331   -1.6519 H   0  0  0  0  0  0  0  0  0  0  0  0
    1.2882   -2.5511   -0.2964 H   0  0  0  0  0  0  0  0  0  0  0  0
   -1.1094   -2.8895   -0.2252 H   0  0  0  0  0  0  0  0  0  0  0  0
   -1.6222    2.4257    0.8075 H   0  0  0  0  0  0  0  0  0  0  0  0
   -2.0697    2.2377   -0.9067 H   0  0  0  0  0  0  0  0  0  0  0  0
   -4.0803    2.2670    0.3824 H   0  0  0  0  0  0  0  0  0  0  0  0
   -3.4522    1.1404    1.5753 H   0  0  0  0  0  0  0  0  0  0  0  0
   -3.9483    0.5221   -1.3774 H   0  0  0  0  0  0  0  0  0  0  0  0
   -5.0253    0.0586   -0.0689 H   0  0  0  0  0  0  0  0  0  0  0  0
   -3.2512   -1.6914   -2.1996 H   0  0  0  0  0  0  0  0  0  0  0  0
   -3.1537   -3.0456   -1.0680 H   0  0  0  0  0  0  0  0  0  0  0  0
   -4.6627   -2.1584   -1.2364 H   0  0  0  0  0  0  0  0  0  0  0  0
   -3.0254   -2.6596    1.4009 H   0  0  0  0  0  0  0  0  0  0  0  0
   -3.1742   -1.0520    2.1025 H   0  0  0  0  0  0  0  0  0  0  0  0
   -4.5826   -1.8311    1.3634 H   0  0  0  0  0  0  0  0  0  0  0  0
  1  2  1  0
  2  3  1  0
  3  4  1  0
  4  5  1  0
  5  6  2  0
  6  7  1  0
  7  8  2  0
  7  9  1  0
  9 10  2  0
  9 11  1  0
 11 12  2  0
 12 13  1  0
 13 14  2  0
 14 15  1  0
 15 16  2  0
 16 17  1  0
 17 18  1  0
 18 19  1  0
 19 20  1  0
 20 21  1  0
 20 22  1  0
  6  2  1  0
 16 11  1  0
 12  5  1  0
 20 15  1  0
  1 23  1  0
  1 24  1  0
  1 25  1  0
  2 26  1  6
  3 27  1  0
  3 28  1  0
 13 29  1  0
 14 30  1  0
 17 31  1  0
 17 32  1  0
 18 33  1  0
 18 34  1  0
 19 35  1  0
 19 36  1  0
 21 37  1  0
 21 38  1  0
 21 39  1  0
 22 40  1  0
 22 41  1  0
 22 42  1  0
M  END
$$$$
