
     RDKit          3D

 79 84  0  0  0  0  0  0  0  0999 V2000
   12.5798    0.3633    0.7615 C   0  0  0  0  0  0  0  0  0  0  0  0
   11.1189    0.3953    0.8621 N   0  0  0  0  0  0  0  0  0  0  0  0
   10.6181   -0.9256    1.2539 C   0  0  0  0  0  0  0  0  0  0  0  0
   10.5363    0.8347   -0.4151 C   0  0  0  0  0  0  0  0  0  0  0  0
    9.1193    1.1924   -0.2713 C   0  0  0  0  0  0  0  0  0  0  0  0
    7.9627    1.4969   -0.1569 C   0  0  0  0  0  0  0  0  0  0  0  0
    6.5881    1.8608   -0.0187 C   0  0  0  0  0  0  0  0  0  0  0  0
    5.7806    1.1999    0.9116 C   0  0  0  0  0  0  0  0  0  0  0  0
    4.4304    1.5447    1.0527 C   0  0  0  0  0  0  0  0  0  0  0  0
    3.8791    2.5509    0.2557 C   0  0  0  0  0  0  0  0  0  0  0  0
    2.5777    2.9681    0.2882 O   0  0  0  0  0  0  0  0  0  0  0  0
    1.6647    2.2187    1.0844 C   0  0  0  0  0  0  0  0  0  0  0  0
    0.2492    2.6950    0.7610 C   0  0  0  0  0  0  0  0  0  0  0  0
   -0.2082    2.3276   -0.6576 C   0  0  0  0  0  0  0  0  0  0  0  0
   -0.5398    0.8682   -0.8065 C   0  0  0  0  0  0  0  0  0  0  0  0
   -2.0299    0.2842   -0.1841 S   0  0  0  0  0  0  0  0  0  0  0  0
   -1.6709   -1.3184   -0.7282 C   0  0  0  0  0  0  0  0  0  0  0  0
   -2.5136   -2.3826   -0.5267 N   0  0  0  0  0  0  0  0  0  0  0  0
   -2.0553   -3.6744   -1.0509 C   0  0  0  0  0  0  0  0  0  0  0  0
   -2.7498   -4.8084   -0.2950 C   0  0  0  0  0  0  0  0  0  0  0  0
   -4.2476   -4.6424   -0.2877 C   0  0  0  0  0  0  0  0  0  0  0  0
   -5.0762   -5.7562   -0.0730 C   0  0  0  0  0  0  0  0  0  0  0  0
   -6.4654   -5.6183   -0.0526 C   0  0  0  0  0  0  0  0  0  0  0  0
   -7.0417   -4.3640   -0.2295 C   0  0  0  0  0  0  0  0  0  0  0  0
   -6.2161   -3.2502   -0.4179 C   0  0  0  0  0  0  0  0  0  0  0  0
   -6.8528   -1.9260   -0.5670 C   0  0  0  0  0  0  0  0  0  0  0  0
   -7.1380   -1.5518   -1.6941 O   0  0  0  0  0  0  0  0  0  0  0  0
   -7.0012   -1.2778    0.6348 N   0  0  0  0  0  0  0  0  0  0  0  0
   -7.4268    0.0179    0.7211 C   0  0  0  0  0  0  0  0  0  0  0  0
   -7.7672    0.8437   -0.2301 N   0  0  0  0  0  0  0  0  0  0  0  0
   -8.0958    2.0690    0.3206 C   0  0  0  0  0  0  0  0  0  0  0  0
   -8.5025    3.2142   -0.3916 C   0  0  0  0  0  0  0  0  0  0  0  0
   -8.7977    4.3932    0.3005 C   0  0  0  0  0  0  0  0  0  0  0  0
   -8.6933    4.4441    1.6871 C   0  0  0  0  0  0  0  0  0  0  0  0
   -8.2903    3.3224    2.4185 C   0  0  0  0  0  0  0  0  0  0  0  0
   -7.9957    2.1443    1.7133 C   0  0  0  0  0  0  0  0  0  0  0  0
   -7.4765    0.6156    2.3159 S   0  0  0  0  0  0  0  0  0  0  0  0
   -4.8126   -3.3652   -0.4484 C   0  0  0  0  0  0  0  0  0  0  0  0
   -3.9548   -2.1351   -0.6889 C   0  0  0  0  0  0  0  0  0  0  0  0
   -0.4974   -1.4121   -1.3097 N   0  0  0  0  0  0  0  0  0  0  0  0
    0.1526   -0.1769   -1.4035 C   0  0  0  0  0  0  0  0  0  0  0  0
    1.4459   -0.0696   -2.0799 C   0  0  0  0  0  0  0  0  0  0  0  0
    2.0914    0.9547   -2.2487 O   0  0  0  0  0  0  0  0  0  0  0  0
    1.9366   -1.2414   -2.5505 O   0  0  0  0  0  0  0  0  0  0  0  0
    4.7051    3.2107   -0.6625 C   0  0  0  0  0  0  0  0  0  0  0  0
    4.2066    4.1941   -1.4298 F   0  0  0  0  0  0  0  0  0  0  0  0
    6.0490    2.8746   -0.8066 C   0  0  0  0  0  0  0  0  0  0  0  0
   12.9703    1.3645    0.5386 H   0  0  0  0  0  0  0  0  0  0  0  0
   13.0262    0.0622    1.7157 H   0  0  0  0  0  0  0  0  0  0  0  0
   12.9276   -0.3250   -0.0192 H   0  0  0  0  0  0  0  0  0  0  0  0
    9.5336   -0.9123    1.4053 H   0  0  0  0  0  0  0  0  0  0  0  0
   10.8576   -1.6968    0.5121 H   0  0  0  0  0  0  0  0  0  0  0  0
   11.0536   -1.2285    2.2124 H   0  0  0  0  0  0  0  0  0  0  0  0
   10.6602    0.0706   -1.1934 H   0  0  0  0  0  0  0  0  0  0  0  0
   11.0615    1.7318   -0.7680 H   0  0  0  0  0  0  0  0  0  0  0  0
    6.1989    0.4122    1.5358 H   0  0  0  0  0  0  0  0  0  0  0  0
    3.8428    1.0136    1.7959 H   0  0  0  0  0  0  0  0  0  0  0  0
    1.7520    1.1443    0.8900 H   0  0  0  0  0  0  0  0  0  0  0  0
    1.8719    2.4134    2.1429 H   0  0  0  0  0  0  0  0  0  0  0  0
    0.2203    3.7879    0.8460 H   0  0  0  0  0  0  0  0  0  0  0  0
   -0.4439    2.2917    1.5069 H   0  0  0  0  0  0  0  0  0  0  0  0
   -1.1083    2.9129   -0.8890 H   0  0  0  0  0  0  0  0  0  0  0  0
    0.5345    2.6429   -1.3961 H   0  0  0  0  0  0  0  0  0  0  0  0
   -0.9742   -3.8045   -0.9169 H   0  0  0  0  0  0  0  0  0  0  0  0
   -2.2679   -3.7393   -2.1259 H   0  0  0  0  0  0  0  0  0  0  0  0
   -2.4763   -5.7641   -0.7574 H   0  0  0  0  0  0  0  0  0  0  0  0
   -2.4025   -4.8285    0.7454 H   0  0  0  0  0  0  0  0  0  0  0  0
   -4.6388   -6.7425    0.0720 H   0  0  0  0  0  0  0  0  0  0  0  0
   -7.0949   -6.4936    0.0976 H   0  0  0  0  0  0  0  0  0  0  0  0
   -8.1241   -4.2546   -0.2281 H   0  0  0  0  0  0  0  0  0  0  0  0
   -6.7475   -1.7335    1.4990 H   0  0  0  0  0  0  0  0  0  0  0  0
   -8.5779    3.1727   -1.4742 H   0  0  0  0  0  0  0  0  0  0  0  0
   -9.1112    5.2747   -0.2549 H   0  0  0  0  0  0  0  0  0  0  0  0
   -8.9249    5.3695    2.2111 H   0  0  0  0  0  0  0  0  0  0  0  0
   -8.2070    3.3650    3.5002 H   0  0  0  0  0  0  0  0  0  0  0  0
   -4.1534   -1.7620   -1.7027 H   0  0  0  0  0  0  0  0  0  0  0  0
   -4.2662   -1.3807    0.0424 H   0  0  0  0  0  0  0  0  0  0  0  0
    2.7785   -0.9766   -2.9700 H   0  0  0  0  0  0  0  0  0  0  0  0
    6.6545    3.4102   -1.5308 H   0  0  0  0  0  0  0  0  0  0  0  0
  1  2  1  0
  2  3  1  0
  2  4  1  0
  4  5  1  0
  5  6  3  0
  6  7  1  0
  7  8  2  0
  8  9  1  0
  9 10  2  0
 10 11  1  0
 11 12  1  0
 12 13  1  0
 13 14  1  0
 14 15  1  0
 15 16  1  0
 16 17  1  0
 17 18  1  0
 18 19  1  0
 19 20  1  0
 20 21  1  0
 21 22  2  0
 22 23  1  0
 23 24  2  0
 24 25  1  0
 25 26  1  0
 26 27  2  0
 26 28  1  0
 28 29  1  0
 29 30  2  0
 30 31  1  0
 31 32  2  0
 32 33  1  0
 33 34  2  0
 34 35  1  0
 35 36  2  0
 36 37  1  0
 25 38  2  0
 38 39  1  0
 17 40  2  0
 40 41  1  0
 41 42  1  0
 42 43  2  0
 42 44  1  0
 10 45  1  0
 45 46  1  0
 45 47  2  0
 47  7  1  0
 41 15  2  0
 39 18  1  0
 38 21  1  0
 37 29  1  0
 36 31  1  0
  1 48  1  0
  1 49  1  0
  1 50  1  0
  3 51  1  0
  3 52  1  0
  3 53  1  0
  4 54  1  0
  4 55  1  0
  8 56  1  0
  9 57  1  0
 12 58  1  0
 12 59  1  0
 13 60  1  0
 13 61  1  0
 14 62  1  0
 14 63  1  0
 19 64  1  0
 19 65  1  0
 20 66  1  0
 20 67  1  0
 22 68  1  0
 23 69  1  0
 24 70  1  0
 28 71  1  0
 32 72  1  0
 33 73  1  0
 34 74  1  0
 35 75  1  0
 39 76  1  0
 39 77  1  0
 44 78  1  0
 47 79  1  0
M  END
$$$$
