
     RDKit          3D

 53 56  0  0  0  0  0  0  0  0999 V2000
   -5.3211   -4.3054    0.4143 C   0  0  0  0  0  0  0  0  0  0  0  0
   -4.6944   -2.9267    0.3466 C   0  0  0  0  0  0  0  0  0  0  0  0
   -2.9188   -3.0310    0.1395 S   0  0  0  0  0  6  0  0  0  0  0  0
   -2.6161   -3.5284   -1.1853 O   0  0  0  0  0  0  0  0  0  0  0  0
   -2.3508   -3.6482    1.3182 O   0  0  0  0  0  0  0  0  0  0  0  0
   -2.4686   -1.3965    0.1674 N   0  0  0  0  0  0  0  0  0  0  0  0
   -2.9325   -0.5333   -0.9589 C   0  0  0  0  0  0  0  0  0  0  0  0
   -1.9041    0.5965   -1.0656 C   0  0  0  0  0  0  0  0  0  0  0  0
   -2.2671    1.7466   -0.1955 C   0  0  0  0  0  0  0  0  0  0  0  0
   -2.5999    2.9678   -0.5493 N   0  0  0  0  0  0  0  0  0  0  0  0
   -2.8089    3.5722    0.6638 C   0  0  0  0  0  0  0  0  0  0  0  0
   -3.1970    4.9890    0.7886 C   0  0  0  0  0  0  0  0  0  0  0  0
   -2.6226    2.7804    1.7272 N   0  0  0  0  0  0  0  0  0  0  0  0
   -2.2643    1.5592    1.1571 O   0  0  0  0  0  0  0  0  0  0  0  0
   -0.6093   -0.1055   -0.6686 C   0  0  0  0  0  0  0  0  0  0  0  0
    0.1747   -0.7105   -1.8629 C   0  0  0  0  0  0  0  0  0  0  0  0
    1.3869    0.0035   -1.4423 N   0  0  0  0  0  0  0  0  0  0  0  0
    2.3731   -0.9320   -0.8780 C   0  0  0  0  0  0  0  0  0  0  0  0
    3.6220   -0.2281   -0.3864 C   0  0  0  0  0  0  0  0  0  0  0  0
    4.3830    0.5638   -1.2583 C   0  0  0  0  0  0  0  0  0  0  0  0
    5.5405    1.2046   -0.8112 C   0  0  0  0  0  0  0  0  0  0  0  0
    5.9681    1.0585    0.5162 C   0  0  0  0  0  0  0  0  0  0  0  0
    7.2060    1.7685    1.0045 C   0  0  0  0  0  0  0  0  0  0  0  0
    8.1588    1.9080    0.0402 F   0  0  0  0  0  0  0  0  0  0  0  0
    7.8194    1.1269    2.0389 F   0  0  0  0  0  0  0  0  0  0  0  0
    6.9403    3.0270    1.4516 F   0  0  0  0  0  0  0  0  0  0  0  0
    5.2045    0.2700    1.3894 C   0  0  0  0  0  0  0  0  0  0  0  0
    4.0461   -0.3707    0.9416 C   0  0  0  0  0  0  0  0  0  0  0  0
    0.6622    0.7267   -0.3882 C   0  0  0  0  0  0  0  0  0  0  0  0
   -1.0110   -1.1445    0.3767 C   0  0  0  0  0  0  0  0  0  0  0  0
   -6.4055   -4.2247    0.5351 H   0  0  0  0  0  0  0  0  0  0  0  0
   -5.1195   -4.8748   -0.4985 H   0  0  0  0  0  0  0  0  0  0  0  0
   -4.9255   -4.8778    1.2595 H   0  0  0  0  0  0  0  0  0  0  0  0
   -4.8860   -2.3757    1.2719 H   0  0  0  0  0  0  0  0  0  0  0  0
   -5.1006   -2.3717   -0.5030 H   0  0  0  0  0  0  0  0  0  0  0  0
   -3.9464   -0.1680   -0.7678 H   0  0  0  0  0  0  0  0  0  0  0  0
   -2.9331   -1.1056   -1.8933 H   0  0  0  0  0  0  0  0  0  0  0  0
   -1.8678    0.9695   -2.0965 H   0  0  0  0  0  0  0  0  0  0  0  0
   -3.9256    5.1281    1.5938 H   0  0  0  0  0  0  0  0  0  0  0  0
   -2.3192    5.6060    1.0047 H   0  0  0  0  0  0  0  0  0  0  0  0
   -3.6481    5.3506   -0.1407 H   0  0  0  0  0  0  0  0  0  0  0  0
    0.2380   -1.8050   -1.8958 H   0  0  0  0  0  0  0  0  0  0  0  0
   -0.1740   -0.3882   -2.8518 H   0  0  0  0  0  0  0  0  0  0  0  0
    1.9449   -1.5422   -0.0718 H   0  0  0  0  0  0  0  0  0  0  0  0
    2.6891   -1.6365   -1.6589 H   0  0  0  0  0  0  0  0  0  0  0  0
    4.0667    0.6898   -2.2924 H   0  0  0  0  0  0  0  0  0  0  0  0
    6.1094    1.8202   -1.5065 H   0  0  0  0  0  0  0  0  0  0  0  0
    5.5120    0.1488    2.4275 H   0  0  0  0  0  0  0  0  0  0  0  0
    3.4765   -0.9801    1.6403 H   0  0  0  0  0  0  0  0  0  0  0  0
    1.0549    0.6448    0.6320 H   0  0  0  0  0  0  0  0  0  0  0  0
    0.5647    1.7959   -0.6117 H   0  0  0  0  0  0  0  0  0  0  0  0
   -0.8886   -0.7521    1.3927 H   0  0  0  0  0  0  0  0  0  0  0  0
   -0.4156   -2.0598    0.3018 H   0  0  0  0  0  0  0  0  0  0  0  0
  1  2  1  0
  2  3  1  0
  3  4  2  0
  3  5  2  0
  3  6  1  0
  6  7  1  0
  7  8  1  0
  8  9  1  0
  9 10  2  0
 10 11  1  0
 11 12  1  0
 11 13  2  0
 13 14  1  0
  8 15  1  0
 15 16  1  0
 16 17  1  0
 17 18  1  0
 18 19  1  0
 19 20  2  0
 20 21  1  0
 21 22  2  0
 22 23  1  0
 23 24  1  0
 23 25  1  0
 23 26  1  0
 22 27  1  0
 27 28  2  0
 17 29  1  0
 15 30  1  0
 30  6  1  0
 14  9  1  0
 29 15  1  0
 28 19  1  0
  1 31  1  0
  1 32  1  0
  1 33  1  0
  2 34  1  0
  2 35  1  0
  7 36  1  0
  7 37  1  0
  8 38  1  0
 12 39  1  0
 12 40  1  0
 12 41  1  0
 16 42  1  0
 16 43  1  0
 18 44  1  0
 18 45  1  0
 20 46  1  0
 21 47  1  0
 27 48  1  0
 28 49  1  0
 29 50  1  0
 29 51  1  0
 30 52  1  0
 30 53  1  0
M  END
$$$$
