
     RDKit          3D

 52 53  0  0  0  0  0  0  0  0999 V2000
   -5.2464   -0.5479   -1.9635 C   0  0  0  0  0  0  0  0  0  0  0  0
   -3.9619    0.0704   -1.8968 O   0  0  0  0  0  0  0  0  0  0  0  0
   -3.6495    0.5528   -0.6718 C   0  0  0  0  0  0  0  0  0  0  0  0
   -4.3572    0.5593    0.3219 O   0  0  0  0  0  0  0  0  0  0  0  0
   -2.2906    1.1152   -0.7241 C   0  0  0  0  0  0  0  0  0  0  0  0
   -2.0905    2.4510   -0.7176 C   0  0  0  0  0  0  0  0  0  0  0  0
   -3.1882    3.4807   -0.6437 C   0  0  0  0  0  0  0  0  0  0  0  0
   -0.7976    2.9455   -0.8112 N   0  0  0  0  0  0  0  0  0  0  0  0
    0.3252    2.1604   -1.0305 C   0  0  0  0  0  0  0  0  0  0  0  0
    1.6069    2.9060   -1.2997 C   0  0  0  0  0  0  0  0  0  0  0  0
    0.2045    0.8134   -1.0291 C   0  0  0  0  0  0  0  0  0  0  0  0
    1.3338   -0.1095   -1.2556 C   0  0  0  0  0  0  0  0  0  0  0  0
    1.2893   -1.0371   -2.0471 O   0  0  0  0  0  0  0  0  0  0  0  0
    2.3350    0.1609   -0.3840 O   0  0  0  0  0  0  0  0  0  0  0  0
    3.4171   -0.7797   -0.4145 C   0  0  0  0  0  0  0  0  0  0  0  0
    4.3305   -0.5201    0.7896 C   0  0  0  0  0  0  0  0  0  0  0  0
    5.5631   -1.4189    0.7273 C   0  0  0  0  0  0  0  0  0  0  0  0
    3.5817   -0.7323    2.1078 C   0  0  0  0  0  0  0  0  0  0  0  0
   -1.1405    0.1205   -0.8035 C   0  0  0  0  0  0  0  0  0  0  0  0
   -1.0761   -0.7629    0.4530 C   0  0  0  0  0  0  0  0  0  0  0  0
   -0.8401   -0.1520    1.7046 C   0  0  0  0  0  0  0  0  0  0  0  0
   -0.7095   -0.9074    2.8741 C   0  0  0  0  0  0  0  0  0  0  0  0
   -0.8076   -2.2950    2.8292 C   0  0  0  0  0  0  0  0  0  0  0  0
   -1.0460   -2.9314    1.6142 C   0  0  0  0  0  0  0  0  0  0  0  0
   -1.1835   -2.1687    0.4414 C   0  0  0  0  0  0  0  0  0  0  0  0
   -1.4662   -2.9124   -0.7788 N   0  0  0  0  0  4  0  0  0  0  0  0
   -0.7041   -3.8461   -1.0619 O   0  0  0  0  0  0  0  0  0  0  0  0
   -2.4793   -2.5933   -1.4133 O   0  0  0  0  0  1  0  0  0  0  0  0
   -6.0331    0.1909   -1.7831 H   0  0  0  0  0  0  0  0  0  0  0  0
   -5.3756   -0.9550   -2.9698 H   0  0  0  0  0  0  0  0  0  0  0  0
   -5.3184   -1.3704   -1.2445 H   0  0  0  0  0  0  0  0  0  0  0  0
   -3.0860    4.1988   -1.4652 H   0  0  0  0  0  0  0  0  0  0  0  0
   -4.1931    3.0552   -0.7143 H   0  0  0  0  0  0  0  0  0  0  0  0
   -3.1213    4.0302    0.3013 H   0  0  0  0  0  0  0  0  0  0  0  0
   -0.6885    3.9542   -0.8905 H   0  0  0  0  0  0  0  0  0  0  0  0
    2.0180    3.2965   -0.3631 H   0  0  0  0  0  0  0  0  0  0  0  0
    2.3685    2.2894   -1.7845 H   0  0  0  0  0  0  0  0  0  0  0  0
    1.4211    3.7521   -1.9711 H   0  0  0  0  0  0  0  0  0  0  0  0
    3.9743   -0.6374   -1.3477 H   0  0  0  0  0  0  0  0  0  0  0  0
    3.0294   -1.8056   -0.3800 H   0  0  0  0  0  0  0  0  0  0  0  0
    4.6561    0.5277    0.7615 H   0  0  0  0  0  0  0  0  0  0  0  0
    6.1244   -1.2455   -0.1969 H   0  0  0  0  0  0  0  0  0  0  0  0
    5.2856   -2.4779    0.7625 H   0  0  0  0  0  0  0  0  0  0  0  0
    6.2350   -1.2164    1.5683 H   0  0  0  0  0  0  0  0  0  0  0  0
    3.1975   -1.7551    2.1850 H   0  0  0  0  0  0  0  0  0  0  0  0
    2.7344   -0.0446    2.1971 H   0  0  0  0  0  0  0  0  0  0  0  0
    4.2428   -0.5535    2.9623 H   0  0  0  0  0  0  0  0  0  0  0  0
   -1.3134   -0.4858   -1.6993 H   0  0  0  0  0  0  0  0  0  0  0  0
   -0.7476    0.9321    1.7792 H   0  0  0  0  0  0  0  0  0  0  0  0
   -0.5286   -0.4062    3.8229 H   0  0  0  0  0  0  0  0  0  0  0  0
   -0.7047   -2.8785    3.7412 H   0  0  0  0  0  0  0  0  0  0  0  0
   -1.1294   -4.0167    1.5864 H   0  0  0  0  0  0  0  0  0  0  0  0
  1  2  1  0
  2  3  1  0
  3  4  2  0
  3  5  1  0
  5  6  2  0
  6  7  1  0
  6  8  1  0
  8  9  1  0
  9 10  1  0
  9 11  2  0
 11 12  1  0
 12 13  2  0
 12 14  1  0
 14 15  1  0
 15 16  1  0
 16 17  1  0
 16 18  1  0
 11 19  1  0
 19 20  1  0
 20 21  2  0
 21 22  1  0
 22 23  2  0
 23 24  1  0
 24 25  2  0
 25 26  1  0
 26 27  2  0
 26 28  1  0
 19  5  1  0
 25 20  1  0
  1 29  1  0
  1 30  1  0
  1 31  1  0
  7 32  1  0
  7 33  1  0
  7 34  1  0
  8 35  1  0
 10 36  1  0
 10 37  1  0
 10 38  1  0
 15 39  1  0
 15 40  1  0
 16 41  1  0
 17 42  1  0
 17 43  1  0
 17 44  1  0
 18 45  1  0
 18 46  1  0
 18 47  1  0
 19 48  1  0
 21 49  1  0
 22 50  1  0
 23 51  1  0
 24 52  1  0
M  CHG  2  26   1  28  -1
M  END
$$$$
