
     RDKit          3D

 54 57  0  0  0  0  0  0  0  0999 V2000
    0.3373    0.4516    1.4090 O   0  0  0  0  0  0  0  0  0  0  0  0
    0.2219   -0.1521    0.3500 C   0  0  0  0  0  0  0  0  0  0  0  0
    1.2622   -0.7412   -0.3290 N   0  0  0  0  0  0  0  0  0  0  0  0
    2.6011   -0.9229    0.2489 C   0  0  2  0  0  0  0  0  0  0  0  0
    2.5711   -1.9651    1.3845 C   0  0  0  0  0  0  0  0  0  0  0  0
    2.1644   -3.2387    0.8686 O   0  0  0  0  0  0  0  0  0  0  0  0
    3.2422    0.4093    0.6887 C   0  0  0  0  0  0  0  0  0  0  0  0
    4.7421    0.3161    0.8561 C   0  0  0  0  0  0  0  0  0  0  0  0
    5.3145    0.2837    2.1349 C   0  0  0  0  0  0  0  0  0  0  0  0
    6.6980    0.1817    2.2879 C   0  0  0  0  0  0  0  0  0  0  0  0
    7.5218    0.1142    1.1661 C   0  0  0  0  0  0  0  0  0  0  0  0
    6.9638    0.1517   -0.1102 C   0  0  0  0  0  0  0  0  0  0  0  0
    5.5806    0.2532   -0.2657 C   0  0  0  0  0  0  0  0  0  0  0  0
   -1.0855   -0.2488   -0.3539 C   0  0  0  0  0  0  0  0  0  0  0  0
   -1.6701    0.9278   -0.6256 C   0  0  0  0  0  0  0  0  0  0  0  0
   -2.8486    1.0313   -1.3462 N   0  0  0  0  0  0  0  0  0  0  0  0
   -3.4327    2.3532   -1.5744 C   0  0  0  0  0  0  0  0  0  0  0  0
   -4.3170    2.7917   -0.4321 C   0  0  0  0  0  0  0  0  0  0  0  0
   -3.8231    3.6006    0.5954 C   0  0  0  0  0  0  0  0  0  0  0  0
   -4.6764    3.9583    1.6282 C   0  0  0  0  0  0  0  0  0  0  0  0
   -5.9669    3.5709    1.7069 N   0  0  0  0  0  0  0  0  0  0  0  0
   -6.4219    2.7799    0.7120 C   0  0  0  0  0  0  0  0  0  0  0  0
   -5.6480    2.3687   -0.3612 C   0  0  0  0  0  0  0  0  0  0  0  0
   -3.5144   -0.0883   -1.8526 C   0  0  0  0  0  0  0  0  0  0  0  0
   -4.5422   -0.0270   -2.5230 O   0  0  0  0  0  0  0  0  0  0  0  0
   -2.9188   -1.4170   -1.5375 C   0  0  0  0  0  0  0  0  0  0  0  0
   -3.5677   -2.5803   -1.9760 C   0  0  0  0  0  0  0  0  0  0  0  0
   -3.0516   -3.8322   -1.6481 C   0  0  0  0  0  0  0  0  0  0  0  0
   -1.8983   -3.9228   -0.8732 C   0  0  0  0  0  0  0  0  0  0  0  0
   -1.2491   -2.7637   -0.4370 C   0  0  0  0  0  0  0  0  0  0  0  0
   -1.7376   -1.4944   -0.7817 C   0  0  0  0  0  0  0  0  0  0  0  0
    1.0393   -1.2996   -1.1434 H   0  0  0  0  0  0  0  0  0  0  0  0
    3.1832   -1.3462   -0.5801 H   0  0  0  0  0  0  0  0  0  0  0  0
    3.5537   -2.0966    1.8468 H   0  0  0  0  0  0  0  0  0  0  0  0
    1.8623   -1.6845    2.1695 H   0  0  0  0  0  0  0  0  0  0  0  0
    2.9315   -3.6111    0.3995 H   0  0  0  0  0  0  0  0  0  0  0  0
    3.0339    1.1882   -0.0573 H   0  0  0  0  0  0  0  0  0  0  0  0
    2.7935    0.7681    1.6226 H   0  0  0  0  0  0  0  0  0  0  0  0
    4.6870    0.3402    3.0222 H   0  0  0  0  0  0  0  0  0  0  0  0
    7.1334    0.1591    3.2837 H   0  0  0  0  0  0  0  0  0  0  0  0
    8.5993    0.0386    1.2870 H   0  0  0  0  0  0  0  0  0  0  0  0
    7.6075    0.1072   -0.9849 H   0  0  0  0  0  0  0  0  0  0  0  0
    5.1622    0.2903   -1.2692 H   0  0  0  0  0  0  0  0  0  0  0  0
   -1.2196    1.8635   -0.3001 H   0  0  0  0  0  0  0  0  0  0  0  0
   -4.0166    2.3495   -2.5033 H   0  0  0  0  0  0  0  0  0  0  0  0
   -2.6261    3.0803   -1.7354 H   0  0  0  0  0  0  0  0  0  0  0  0
   -2.7950    3.9462    0.6024 H   0  0  0  0  0  0  0  0  0  0  0  0
   -4.3318    4.5844    2.4463 H   0  0  0  0  0  0  0  0  0  0  0  0
   -7.4595    2.4716    0.8022 H   0  0  0  0  0  0  0  0  0  0  0  0
   -6.0757    1.7248   -1.1244 H   0  0  0  0  0  0  0  0  0  0  0  0
   -4.4820   -2.5113   -2.5620 H   0  0  0  0  0  0  0  0  0  0  0  0
   -3.5585   -4.7345   -1.9815 H   0  0  0  0  0  0  0  0  0  0  0  0
   -1.5051   -4.8985   -0.5951 H   0  0  0  0  0  0  0  0  0  0  0  0
   -0.3684   -2.8794    0.1922 H   0  0  0  0  0  0  0  0  0  0  0  0
  1  2  2  0
  2  3  1  0
  3  4  1  0
  4  5  1  0
  5  6  1  0
  4  7  1  0
  7  8  1  0
  8  9  2  0
  9 10  1  0
 10 11  2  0
 11 12  1  0
 12 13  2  0
  2 14  1  0
 14 15  2  0
 15 16  1  0
 16 17  1  0
 17 18  1  0
 18 19  2  0
 19 20  1  0
 20 21  2  0
 21 22  1  0
 22 23  2  0
 16 24  1  0
 24 25  2  0
 24 26  1  0
 26 27  2  0
 27 28  1  0
 28 29  2  0
 29 30  1  0
 30 31  2  0
 13  8  1  0
 31 14  1  0
 23 18  1  0
 31 26  1  0
  3 32  1  0
  4 33  1  6
  5 34  1  0
  5 35  1  0
  6 36  1  0
  7 37  1  0
  7 38  1  0
  9 39  1  0
 10 40  1  0
 11 41  1  0
 12 42  1  0
 13 43  1  0
 15 44  1  0
 17 45  1  0
 17 46  1  0
 19 47  1  0
 20 48  1  0
 22 49  1  0
 23 50  1  0
 27 51  1  0
 28 52  1  0
 29 53  1  0
 30 54  1  0
M  END
$$$$
