
     RDKit          3D

 57 60  0  0  0  0  0  0  0  0999 V2000
    4.8425   -2.4827    0.6445 C   0  0  0  0  0  0  0  0  0  0  0  0
    4.3807   -1.1951    1.0637 O   0  0  0  0  0  0  0  0  0  0  0  0
    3.6613   -0.5986    0.0618 C   0  0  0  0  0  0  0  0  0  0  0  0
    2.3109   -0.9642   -0.0376 C   0  0  0  0  0  0  0  0  0  0  0  0
    1.5041   -0.4381   -1.0477 C   0  0  0  0  0  0  0  0  0  0  0  0
    0.0966   -0.8255   -1.1712 C   0  0  0  0  0  0  0  0  0  0  0  0
   -0.8738   -0.5177   -0.2857 C   0  0  0  0  0  0  0  0  0  0  0  0
   -0.6613    0.3135    0.9458 C   0  0  0  0  0  0  0  0  0  0  0  0
   -1.9075    1.0908    1.3211 C   0  0  0  0  0  0  0  0  0  0  0  0
   -3.0630    0.1201    1.4414 C   0  0  0  0  0  0  0  0  0  0  0  0
   -3.3004   -0.5844    0.1856 N   0  0  0  0  0  0  0  0  0  0  0  0
   -4.6332   -1.1830   -0.0413 C   0  0  1  0  0  0  0  0  0  0  0  0
   -4.8351   -2.4068    0.8625 C   0  0  0  0  0  0  0  0  0  0  0  0
   -5.7395   -0.1312    0.0055 C   0  0  0  0  0  0  0  0  0  0  0  0
   -6.7353   -0.1002    0.9962 C   0  0  0  0  0  0  0  0  0  0  0  0
   -7.7176    0.8941    0.9864 C   0  0  0  0  0  0  0  0  0  0  0  0
   -7.7105    1.8610   -0.0107 C   0  0  0  0  0  0  0  0  0  0  0  0
   -8.6534    2.8123   -0.0145 F   0  0  0  0  0  0  0  0  0  0  0  0
   -6.7392    1.8554   -1.0016 C   0  0  0  0  0  0  0  0  0  0  0  0
   -5.7574    0.8635   -0.9934 C   0  0  0  0  0  0  0  0  0  0  0  0
   -2.2499   -1.0367   -0.6055 C   0  0  0  0  0  0  0  0  0  0  0  0
   -2.4175   -1.8180   -1.5413 O   0  0  0  0  0  0  0  0  0  0  0  0
    2.0591    0.4548   -1.9636 C   0  0  0  0  0  0  0  0  0  0  0  0
    3.3999    0.8441   -1.8527 C   0  0  0  0  0  0  0  0  0  0  0  0
    4.2173    0.3383   -0.8250 C   0  0  0  0  0  0  0  0  0  0  0  0
    5.5669    0.7947   -0.7222 N   0  0  0  0  0  0  0  0  0  0  0  0
    6.2903    1.4573   -1.6951 C   0  0  0  0  0  0  0  0  0  0  0  0
    7.5124    1.7572   -1.3146 N   0  0  0  0  0  0  0  0  0  0  0  0
    7.6128    1.2875   -0.0349 C   0  0  0  0  0  0  0  0  0  0  0  0
    8.8571    1.4639    0.7446 C   0  0  0  0  0  0  0  0  0  0  0  0
    6.4280    0.6987    0.3504 C   0  0  0  0  0  0  0  0  0  0  0  0
    4.0085   -3.1854    0.5470 H   0  0  0  0  0  0  0  0  0  0  0  0
    5.4023   -2.4226   -0.2952 H   0  0  0  0  0  0  0  0  0  0  0  0
    5.5168   -2.8628    1.4175 H   0  0  0  0  0  0  0  0  0  0  0  0
    1.8974   -1.6732    0.6760 H   0  0  0  0  0  0  0  0  0  0  0  0
   -0.1282   -1.4050   -2.0663 H   0  0  0  0  0  0  0  0  0  0  0  0
   -0.3804   -0.3495    1.7739 H   0  0  0  0  0  0  0  0  0  0  0  0
    0.1580    1.0288    0.8122 H   0  0  0  0  0  0  0  0  0  0  0  0
   -1.7521    1.6129    2.2715 H   0  0  0  0  0  0  0  0  0  0  0  0
   -2.1256    1.8499    0.5595 H   0  0  0  0  0  0  0  0  0  0  0  0
   -2.8629   -0.6294    2.2159 H   0  0  0  0  0  0  0  0  0  0  0  0
   -3.9573    0.6772    1.7334 H   0  0  0  0  0  0  0  0  0  0  0  0
   -4.6668   -1.5764   -1.0665 H   0  0  0  0  0  0  0  0  0  0  0  0
   -5.7927   -2.8967    0.6551 H   0  0  0  0  0  0  0  0  0  0  0  0
   -4.8135   -2.1402    1.9244 H   0  0  0  0  0  0  0  0  0  0  0  0
   -4.0407   -3.1429    0.6978 H   0  0  0  0  0  0  0  0  0  0  0  0
   -6.7643   -0.8415    1.7902 H   0  0  0  0  0  0  0  0  0  0  0  0
   -8.4880    0.9194    1.7506 H   0  0  0  0  0  0  0  0  0  0  0  0
   -6.7504    2.6188   -1.7726 H   0  0  0  0  0  0  0  0  0  0  0  0
   -4.9957    0.8634   -1.7723 H   0  0  0  0  0  0  0  0  0  0  0  0
    1.4473    0.8736   -2.7610 H   0  0  0  0  0  0  0  0  0  0  0  0
    3.7578    1.5771   -2.5703 H   0  0  0  0  0  0  0  0  0  0  0  0
    5.8971    1.6781   -2.6767 H   0  0  0  0  0  0  0  0  0  0  0  0
    8.7769    2.3419    1.3930 H   0  0  0  0  0  0  0  0  0  0  0  0
    9.7160    1.6040    0.0806 H   0  0  0  0  0  0  0  0  0  0  0  0
    9.0525    0.5872    1.3702 H   0  0  0  0  0  0  0  0  0  0  0  0
    6.1424    0.2683    1.2973 H   0  0  0  0  0  0  0  0  0  0  0  0
  1  2  1  0
  2  3  1  0
  3  4  2  0
  4  5  1  0
  5  6  1  0
  6  7  2  0
  7  8  1  0
  8  9  1  0
  9 10  1  0
 10 11  1  0
 11 12  1  0
 12 13  1  0
 12 14  1  0
 14 15  2  0
 15 16  1  0
 16 17  2  0
 17 18  1  0
 17 19  1  0
 19 20  2  0
 11 21  1  0
 21 22  2  0
  5 23  2  0
 23 24  1  0
 24 25  2  0
 25 26  1  0
 26 27  1  0
 27 28  2  0
 28 29  1  0
 29 30  1  0
 29 31  2  0
 25  3  1  0
 31 26  1  0
 21  7  1  0
 20 14  1  0
  1 32  1  0
  1 33  1  0
  1 34  1  0
  4 35  1  0
  6 36  1  0
  8 37  1  0
  8 38  1  0
  9 39  1  0
  9 40  1  0
 10 41  1  0
 10 42  1  0
 12 43  1  6
 13 44  1  0
 13 45  1  0
 13 46  1  0
 15 47  1  0
 16 48  1  0
 19 49  1  0
 20 50  1  0
 23 51  1  0
 24 52  1  0
 27 53  1  0
 30 54  1  0
 30 55  1  0
 30 56  1  0
 31 57  1  0
M  END
$$$$
