
     RDKit          3D

 33 35  0  0  0  0  0  0  0  0999 V2000
    2.3075   -0.4888   -3.6062 C   0  0  0  0  0  0  0  0  0  0  0  0
    1.1391   -0.9110   -2.7334 C   0  0  0  0  0  0  0  0  0  0  0  0
    1.5384   -1.0202   -1.2654 C   0  0  0  0  0  0  0  0  0  0  0  0
    0.3714   -1.4160   -0.5249 O   0  0  0  0  0  0  0  0  0  0  0  0
    0.6099   -1.3688    0.8271 C   0  0  0  0  0  0  0  0  0  0  0  0
    1.4439   -2.3374    1.3983 C   0  0  0  0  0  0  0  0  0  0  0  0
    1.6864   -2.3316    2.7717 C   0  0  0  0  0  0  0  0  0  0  0  0
    1.0897   -1.3663    3.5792 C   0  0  0  0  0  0  0  0  0  0  0  0
    0.2386   -0.4128    3.0155 C   0  0  0  0  0  0  0  0  0  0  0  0
   -0.0264   -0.4122    1.6356 C   0  0  0  0  0  0  0  0  0  0  0  0
   -0.9685    0.6261    1.1059 C   0  0  0  0  0  0  0  0  0  0  0  0
   -1.2194    1.6913    1.8147 N   0  0  0  0  0  0  0  0  0  0  0  0
   -2.1158    2.5851    1.2209 C   0  0  0  0  0  0  0  0  0  0  0  0
   -2.5665    3.7777    1.7025 N   0  0  0  0  0  0  0  0  0  0  0  0
   -3.4131    4.2852    0.8044 N   0  0  0  0  0  0  0  0  0  0  0  0
   -3.4870    3.4102   -0.2181 N   0  0  0  0  0  0  0  0  0  0  0  0
   -2.6867    2.3420    0.0086 C   0  0  0  0  0  0  0  0  0  0  0  0
   -2.4395    1.1893   -0.7591 C   0  0  0  0  0  0  0  0  0  0  0  0
   -2.9589    0.9379   -1.8389 O   0  0  0  0  0  0  0  0  0  0  0  0
   -1.5384    0.3619   -0.1359 N   0  0  0  0  0  0  0  0  0  0  0  0
    1.9921   -0.4173   -4.6517 H   0  0  0  0  0  0  0  0  0  0  0  0
    2.6972    0.4893   -3.3021 H   0  0  0  0  0  0  0  0  0  0  0  0
    3.1232   -1.2168   -3.5488 H   0  0  0  0  0  0  0  0  0  0  0  0
    0.3149   -0.1945   -2.8400 H   0  0  0  0  0  0  0  0  0  0  0  0
    0.7489   -1.8762   -3.0792 H   0  0  0  0  0  0  0  0  0  0  0  0
    2.3329   -1.7681   -1.1533 H   0  0  0  0  0  0  0  0  0  0  0  0
    1.9013   -0.0489   -0.9060 H   0  0  0  0  0  0  0  0  0  0  0  0
    1.9007   -3.1055    0.7787 H   0  0  0  0  0  0  0  0  0  0  0  0
    2.3361   -3.0825    3.2140 H   0  0  0  0  0  0  0  0  0  0  0  0
    1.2756   -1.3596    4.6512 H   0  0  0  0  0  0  0  0  0  0  0  0
   -0.2356    0.3201    3.6681 H   0  0  0  0  0  0  0  0  0  0  0  0
   -4.0858    3.6148   -1.0103 H   0  0  0  0  0  0  0  0  0  0  0  0
   -1.3063   -0.4966   -0.6231 H   0  0  0  0  0  0  0  0  0  0  0  0
  1  2  1  0
  2  3  1  0
  3  4  1  0
  4  5  1  0
  5  6  2  0
  6  7  1  0
  7  8  2  0
  8  9  1  0
  9 10  2  0
 10 11  1  0
 11 12  2  0
 12 13  1  0
 13 14  1  0
 14 15  2  0
 15 16  1  0
 16 17  1  0
 17 18  1  0
 18 19  2  0
 18 20  1  0
 10  5  1  0
 20 11  1  0
 17 13  2  0
  1 21  1  0
  1 22  1  0
  1 23  1  0
  2 24  1  0
  2 25  1  0
  3 26  1  0
  3 27  1  0
  6 28  1  0
  7 29  1  0
  8 30  1  0
  9 31  1  0
 16 32  1  0
 20 33  1  0
M  END
$$$$
