
     RDKit          3D

 48 51  0  0  0  0  0  0  0  0999 V2000
   -1.8038    3.2624    3.5710 C   0  0  0  0  0  0  0  0  0  0  0  0
   -0.9859    2.2903    2.9335 O   0  0  0  0  0  0  0  0  0  0  0  0
   -1.4890    1.8812    1.7172 C   0  0  0  0  0  0  0  0  0  0  0  0
   -2.6098    2.4385    1.2386 N   0  0  0  0  0  0  0  0  0  0  0  0
   -3.0430    1.9716    0.0509 C   0  0  0  0  0  0  0  0  0  0  0  0
   -2.3869    0.9966   -0.6638 C   0  0  0  0  0  0  0  0  0  0  0  0
   -1.2421    0.4959   -0.0826 C   0  0  0  0  0  0  0  0  0  0  0  0
   -0.4373   -0.5561   -0.7035 C   0  0  0  0  0  0  0  0  0  0  0  0
   -0.8071   -1.7275   -1.3387 C   0  0  0  0  0  0  0  0  0  0  0  0
   -2.1606   -2.1983   -1.5449 C   0  0  0  0  0  0  0  0  0  0  0  0
   -2.7336   -2.1467   -2.8253 C   0  0  0  0  0  0  0  0  0  0  0  0
   -4.0504   -2.5759   -3.0243 C   0  0  0  0  0  0  0  0  0  0  0  0
   -4.7785   -3.0686   -1.9423 C   0  0  0  0  0  0  0  0  0  0  0  0
   -6.0410   -3.4821   -2.1375 F   0  0  0  0  0  0  0  0  0  0  0  0
   -4.2167   -3.1430   -0.6688 C   0  0  0  0  0  0  0  0  0  0  0  0
   -2.9043   -2.7036   -0.4669 C   0  0  0  0  0  0  0  0  0  0  0  0
    0.2808   -2.4567   -1.7343 N   0  0  0  0  0  0  0  0  0  0  0  0
    1.3156   -1.7781   -1.3282 C   0  0  0  0  0  0  0  0  0  0  0  0
    0.9507   -0.6002   -0.7349 N   0  0  0  0  0  0  0  0  0  0  0  0
    1.8831    0.3985   -0.2047 C   0  0  1  0  0  0  0  0  0  0  0  0
    2.3519    0.0356    1.2221 C   0  0  0  0  0  0  0  0  0  0  0  0
    3.8270   -0.3577    1.2744 C   0  0  0  0  0  0  0  0  0  0  0  0
    4.7343    0.7581    0.7377 C   0  0  2  0  0  0  0  0  0  0  0  0
    4.9973    1.7063    1.7709 O   0  0  0  0  0  0  0  0  0  0  0  0
    4.1297    1.5203   -0.4489 C   0  0  0  0  0  0  0  0  0  0  0  0
    3.0547    0.7100   -1.1645 C   0  0  0  0  0  0  0  0  0  0  0  0
   -0.7775    0.9233    1.1077 N   0  0  0  0  0  0  0  0  0  0  0  0
   -1.3472    3.5039    4.5395 H   0  0  0  0  0  0  0  0  0  0  0  0
   -1.8437    4.1889    2.9854 H   0  0  0  0  0  0  0  0  0  0  0  0
   -2.8098    2.8714    3.7673 H   0  0  0  0  0  0  0  0  0  0  0  0
   -3.9587    2.4182   -0.3188 H   0  0  0  0  0  0  0  0  0  0  0  0
   -2.7560    0.6586   -1.6178 H   0  0  0  0  0  0  0  0  0  0  0  0
   -2.1561   -1.7722   -3.6710 H   0  0  0  0  0  0  0  0  0  0  0  0
   -4.5104   -2.5330   -4.0119 H   0  0  0  0  0  0  0  0  0  0  0  0
   -4.8004   -3.5436    0.1571 H   0  0  0  0  0  0  0  0  0  0  0  0
   -2.4572   -2.7697    0.5215 H   0  0  0  0  0  0  0  0  0  0  0  0
    2.3444   -2.0939   -1.4412 H   0  0  0  0  0  0  0  0  0  0  0  0
    1.3143    1.3350   -0.1371 H   0  0  0  0  0  0  0  0  0  0  0  0
    1.7430   -0.7699    1.6522 H   0  0  0  0  0  0  0  0  0  0  0  0
    2.2062    0.9082    1.8730 H   0  0  0  0  0  0  0  0  0  0  0  0
    3.9715   -1.2659    0.6740 H   0  0  0  0  0  0  0  0  0  0  0  0
    4.0972   -0.6069    2.3089 H   0  0  0  0  0  0  0  0  0  0  0  0
    5.6987    0.3249    0.4459 H   0  0  0  0  0  0  0  0  0  0  0  0
    5.3783    1.2296    2.5314 H   0  0  0  0  0  0  0  0  0  0  0  0
    3.7027    2.4766   -0.1182 H   0  0  0  0  0  0  0  0  0  0  0  0
    4.9305    1.7801   -1.1538 H   0  0  0  0  0  0  0  0  0  0  0  0
    2.6799    1.2680   -2.0331 H   0  0  0  0  0  0  0  0  0  0  0  0
    3.5150   -0.2021   -1.5634 H   0  0  0  0  0  0  0  0  0  0  0  0
  1  2  1  0
  2  3  1  0
  3  4  2  0
  4  5  1  0
  5  6  2  0
  6  7  1  0
  7  8  1  0
  8  9  2  0
  9 10  1  0
 10 11  2  0
 11 12  1  0
 12 13  2  0
 13 14  1  0
 13 15  1  0
 15 16  2  0
  9 17  1  0
 17 18  2  0
 18 19  1  0
 19 20  1  0
 20 21  1  0
 21 22  1  0
 22 23  1  0
 23 24  1  0
 23 25  1  0
 25 26  1  0
  7 27  2  0
 27  3  1  0
 19  8  1  0
 26 20  1  0
 16 10  1  0
  1 28  1  0
  1 29  1  0
  1 30  1  0
  5 31  1  0
  6 32  1  0
 11 33  1  0
 12 34  1  0
 15 35  1  0
 16 36  1  0
 18 37  1  0
 20 38  1  1
 21 39  1  0
 21 40  1  0
 22 41  1  0
 22 42  1  0
 23 43  1  6
 24 44  1  0
 25 45  1  0
 25 46  1  0
 26 47  1  0
 26 48  1  0
M  END
$$$$
