
     RDKit          3D

 44 48  0  0  0  0  0  0  0  0999 V2000
    0.4111   -3.3919    2.5431 O   0  0  0  0  0  0  0  0  0  0  0  0
    0.6507   -2.5942    1.6445 C   0  0  0  0  0  0  0  0  0  0  0  0
   -0.4016   -2.1406    0.7278 C   0  0  0  0  0  0  0  0  0  0  0  0
   -0.0587   -1.2713   -0.2288 C   0  0  0  0  0  0  0  0  0  0  0  0
   -1.0458   -0.7597   -1.1907 C   0  0  0  0  0  0  0  0  0  0  0  0
   -1.1288   -1.4177   -2.4296 C   0  0  0  0  0  0  0  0  0  0  0  0
   -2.0400   -1.0001   -3.3944 C   0  0  0  0  0  0  0  0  0  0  0  0
   -2.8786    0.0793   -3.1297 C   0  0  0  0  0  0  0  0  0  0  0  0
   -2.8193    0.7514   -1.8982 C   0  0  0  0  0  0  0  0  0  0  0  0
   -1.8962    0.3382   -0.9157 C   0  0  0  0  0  0  0  0  0  0  0  0
   -1.7517    1.2110    0.6513 S   0  0  0  0  0  0  0  0  0  0  0  0
   -3.4574    1.5835    1.0157 C   0  0  0  0  0  0  0  0  0  0  0  0
   -3.8700    1.5038    2.3542 C   0  0  0  0  0  0  0  0  0  0  0  0
   -5.1851    1.8044    2.7123 C   0  0  0  0  0  0  0  0  0  0  0  0
   -6.0960    2.1981    1.7374 C   0  0  0  0  0  0  0  0  0  0  0  0
   -5.6933    2.2865    0.4038 C   0  0  0  0  0  0  0  0  0  0  0  0
   -4.3766    1.9768    0.0324 C   0  0  0  0  0  0  0  0  0  0  0  0
   -3.9422    2.1308   -1.6917 S   0  0  0  0  0  0  0  0  0  0  0  0
    1.2212   -0.7912   -0.4139 O   0  0  0  0  0  0  0  0  0  0  0  0
    2.2464   -1.1833    0.4470 C   0  0  0  0  0  0  0  0  0  0  0  0
    3.4922   -0.6135    0.1788 N   0  0  0  0  0  0  0  0  0  0  0  0
    3.7180    0.2299   -1.0166 C   0  0  0  0  0  0  0  0  0  0  0  0
    5.2017    0.2162   -1.4137 C   0  0  0  0  0  0  0  0  0  0  0  0
    6.0815    0.7091   -0.3941 O   0  0  0  0  0  0  0  0  0  0  0  0
    5.5608    0.5347    0.9301 C   0  0  0  0  0  0  0  0  0  0  0  0
    4.6572   -0.6991    1.0835 C   0  0  0  0  0  0  0  0  0  0  0  0
    2.0044   -2.0526    1.4412 C   0  0  0  0  0  0  0  0  0  0  0  0
   -1.4021   -2.5229    0.8759 H   0  0  0  0  0  0  0  0  0  0  0  0
   -0.4739   -2.2601   -2.6483 H   0  0  0  0  0  0  0  0  0  0  0  0
   -2.0957   -1.5122   -4.3521 H   0  0  0  0  0  0  0  0  0  0  0  0
   -3.5834    0.3963   -3.8964 H   0  0  0  0  0  0  0  0  0  0  0  0
   -3.1680    1.2053    3.1299 H   0  0  0  0  0  0  0  0  0  0  0  0
   -5.4940    1.7369    3.7530 H   0  0  0  0  0  0  0  0  0  0  0  0
   -7.1193    2.4399    2.0132 H   0  0  0  0  0  0  0  0  0  0  0  0
   -6.4167    2.6020   -0.3451 H   0  0  0  0  0  0  0  0  0  0  0  0
    3.1325   -0.1371   -1.8670 H   0  0  0  0  0  0  0  0  0  0  0  0
    3.3976    1.2530   -0.7871 H   0  0  0  0  0  0  0  0  0  0  0  0
    5.3582    0.8277   -2.3078 H   0  0  0  0  0  0  0  0  0  0  0  0
    5.5192   -0.8045   -1.6574 H   0  0  0  0  0  0  0  0  0  0  0  0
    5.0099    1.4453    1.1940 H   0  0  0  0  0  0  0  0  0  0  0  0
    6.4147    0.4619    1.6112 H   0  0  0  0  0  0  0  0  0  0  0  0
    4.3382   -0.7560    2.1299 H   0  0  0  0  0  0  0  0  0  0  0  0
    5.2193   -1.6082    0.8409 H   0  0  0  0  0  0  0  0  0  0  0  0
    2.7591   -2.4058    2.1278 H   0  0  0  0  0  0  0  0  0  0  0  0
  1  2  2  0
  2  3  1  0
  3  4  2  0
  4  5  1  0
  5  6  2  0
  6  7  1  0
  7  8  2  0
  8  9  1  0
  9 10  2  0
 10 11  1  0
 11 12  1  0
 12 13  2  0
 13 14  1  0
 14 15  2  0
 15 16  1  0
 16 17  2  0
 17 18  1  0
  4 19  1  0
 19 20  1  0
 20 21  1  0
 21 22  1  0
 22 23  1  0
 23 24  1  0
 24 25  1  0
 25 26  1  0
 20 27  2  0
 27  2  1  0
 10  5  1  0
 17 12  1  0
 26 21  1  0
 18  9  1  0
  3 28  1  0
  6 29  1  0
  7 30  1  0
  8 31  1  0
 13 32  1  0
 14 33  1  0
 15 34  1  0
 16 35  1  0
 22 36  1  0
 22 37  1  0
 23 38  1  0
 23 39  1  0
 25 40  1  0
 25 41  1  0
 26 42  1  0
 26 43  1  0
 27 44  1  0
M  END
$$$$
