
     RDKit          3D

 62 65  0  0  0  0  0  0  0  0999 V2000
   -3.5834    1.0374    1.8462 C   0  0  0  0  0  0  0  0  0  0  0  0
   -3.6582   -0.0143    0.7705 C   0  0  0  0  0  0  0  0  0  0  0  0
   -4.5287   -0.8831    0.8693 O   0  0  0  0  0  0  0  0  0  0  0  0
   -2.7399    0.0029   -0.2803 N   0  0  0  0  0  0  0  0  0  0  0  0
   -2.9034   -1.0072   -1.3565 C   0  0  0  0  0  0  0  0  0  0  0  0
   -4.2275   -0.8770   -2.1178 C   0  0  0  0  0  0  0  0  0  0  0  0
   -4.2798   -1.8717   -3.2773 C   0  0  0  0  0  0  0  0  0  0  0  0
   -3.4357   -3.0089   -3.0863 O   0  0  0  0  0  0  0  0  0  0  0  0
   -3.4248   -3.4516   -1.7315 C   0  0  0  0  0  0  0  0  0  0  0  0
   -2.6603   -2.4481   -0.8757 C   0  0  0  0  0  0  0  0  0  0  0  0
   -1.7045    1.0406   -0.5117 C   0  0  0  0  0  0  0  0  0  0  0  0
   -2.2963    2.3508   -1.0567 C   0  0  0  0  0  0  0  0  0  0  0  0
   -1.4067    3.5611   -0.7714 C   0  0  0  0  0  0  0  0  0  0  0  0
    0.0724    3.1912   -0.7648 C   0  0  0  0  0  0  0  0  0  0  0  0
    0.3797    2.1905    0.2551 N   0  0  0  0  0  0  0  0  0  0  0  0
    1.6974    2.1163    0.7256 C   0  0  0  0  0  0  0  0  0  0  0  0
    2.6004    2.7304    0.1525 O   0  0  0  0  0  0  0  0  0  0  0  0
    2.0070    1.2971    1.9105 C   0  0  0  0  0  0  0  0  0  0  0  0
    1.1095    1.0619    2.8838 N   0  0  0  0  0  0  0  0  0  0  0  0
    1.7469    0.2871    3.8260 O   0  0  0  0  0  0  0  0  0  0  0  0
    3.0309    0.0758    3.4480 C   0  0  0  0  0  0  0  0  0  0  0  0
    3.8545   -0.7461    4.3553 C   0  0  0  0  0  0  0  0  0  0  0  0
    3.2695    0.7125    2.2475 C   0  0  0  0  0  0  0  0  0  0  0  0
    4.5413    0.7537    1.4778 C   0  0  0  0  0  0  0  0  0  0  0  0
    4.5815   -0.3208    0.4936 N   0  0  0  0  0  0  0  0  0  0  0  0
    4.1987   -0.2493   -0.8143 C   0  0  0  0  0  0  0  0  0  0  0  0
    4.4250   -1.4983   -1.3549 C   0  0  0  0  0  0  0  0  0  0  0  0
    4.1770   -1.9592   -2.7367 C   0  0  0  0  0  0  0  0  0  0  0  0
    4.9625   -2.2449   -0.2837 C   0  0  0  0  0  0  0  0  0  0  0  0
    5.0661   -1.5317    0.8390 N   0  0  0  0  0  0  0  0  0  0  0  0
   -0.6931    1.2582    0.6355 C   0  0  0  0  0  0  0  0  0  0  0  0
   -3.3629    2.0279    1.4536 H   0  0  0  0  0  0  0  0  0  0  0  0
   -4.5583    1.1067    2.3387 H   0  0  0  0  0  0  0  0  0  0  0  0
   -2.8450    0.7417    2.5963 H   0  0  0  0  0  0  0  0  0  0  0  0
   -2.1241   -0.8130   -2.1052 H   0  0  0  0  0  0  0  0  0  0  0  0
   -4.3761    0.1435   -2.4901 H   0  0  0  0  0  0  0  0  0  0  0  0
   -5.0787   -1.0795   -1.4577 H   0  0  0  0  0  0  0  0  0  0  0  0
   -3.9493   -1.3842   -4.2010 H   0  0  0  0  0  0  0  0  0  0  0  0
   -5.3070   -2.2143   -3.4433 H   0  0  0  0  0  0  0  0  0  0  0  0
   -4.4527   -3.5892   -1.3761 H   0  0  0  0  0  0  0  0  0  0  0  0
   -2.9313   -4.4285   -1.6930 H   0  0  0  0  0  0  0  0  0  0  0  0
   -1.5853   -2.6518   -0.9598 H   0  0  0  0  0  0  0  0  0  0  0  0
   -2.9055   -2.6090    0.1793 H   0  0  0  0  0  0  0  0  0  0  0  0
   -1.0699    0.6547   -1.3220 H   0  0  0  0  0  0  0  0  0  0  0  0
   -3.3027    2.5459   -0.6725 H   0  0  0  0  0  0  0  0  0  0  0  0
   -2.4219    2.2419   -2.1423 H   0  0  0  0  0  0  0  0  0  0  0  0
   -1.6764    3.9795    0.2066 H   0  0  0  0  0  0  0  0  0  0  0  0
   -1.5989    4.3427   -1.5151 H   0  0  0  0  0  0  0  0  0  0  0  0
    0.3721    2.7768   -1.7348 H   0  0  0  0  0  0  0  0  0  0  0  0
    0.6763    4.0891   -0.5887 H   0  0  0  0  0  0  0  0  0  0  0  0
    4.4114   -1.5019    3.7943 H   0  0  0  0  0  0  0  0  0  0  0  0
    3.2356   -1.2641    5.0964 H   0  0  0  0  0  0  0  0  0  0  0  0
    4.5718   -0.1157    4.8923 H   0  0  0  0  0  0  0  0  0  0  0  0
    4.6843    1.6998    0.9495 H   0  0  0  0  0  0  0  0  0  0  0  0
    5.4087    0.6222    2.1371 H   0  0  0  0  0  0  0  0  0  0  0  0
    3.8058    0.6633   -1.2429 H   0  0  0  0  0  0  0  0  0  0  0  0
    5.1228   -2.1196   -3.2607 H   0  0  0  0  0  0  0  0  0  0  0  0
    3.6205   -2.9014   -2.7321 H   0  0  0  0  0  0  0  0  0  0  0  0
    3.5958   -1.2256   -3.3040 H   0  0  0  0  0  0  0  0  0  0  0  0
    5.2876   -3.2772   -0.2779 H   0  0  0  0  0  0  0  0  0  0  0  0
   -0.2650    0.2891    0.9127 H   0  0  0  0  0  0  0  0  0  0  0  0
   -1.1598    1.6948    1.5194 H   0  0  0  0  0  0  0  0  0  0  0  0
  1  2  1  0
  2  3  2  0
  2  4  1  0
  4  5  1  0
  5  6  1  0
  6  7  1  0
  7  8  1  0
  8  9  1  0
  9 10  1  0
  4 11  1  0
 11 12  1  0
 12 13  1  0
 13 14  1  0
 14 15  1  0
 15 16  1  0
 16 17  2  0
 16 18  1  0
 18 19  2  0
 19 20  1  0
 20 21  1  0
 21 22  1  0
 21 23  2  0
 23 24  1  0
 24 25  1  0
 25 26  1  0
 26 27  2  0
 27 28  1  0
 27 29  1  0
 29 30  2  0
 15 31  1  0
 10  5  1  0
 31 11  1  0
 23 18  1  0
 30 25  1  0
  1 32  1  0
  1 33  1  0
  1 34  1  0
  5 35  1  0
  6 36  1  0
  6 37  1  0
  7 38  1  0
  7 39  1  0
  9 40  1  0
  9 41  1  0
 10 42  1  0
 10 43  1  0
 11 44  1  0
 12 45  1  0
 12 46  1  0
 13 47  1  0
 13 48  1  0
 14 49  1  0
 14 50  1  0
 22 51  1  0
 22 52  1  0
 22 53  1  0
 24 54  1  0
 24 55  1  0
 26 56  1  0
 28 57  1  0
 28 58  1  0
 28 59  1  0
 29 60  1  0
 31 61  1  0
 31 62  1  0
M  END
$$$$
