
     RDKit          3D

 56 59  0  0  0  0  0  0  0  0999 V2000
   -6.4248   -1.7410    0.2818 O   0  0  0  0  0  0  0  0  0  0  0  0
   -6.0959   -0.7810    0.9602 C   0  0  0  0  0  0  0  0  0  0  0  0
   -6.0999   -0.8615    2.3059 O   0  0  0  0  0  0  0  0  0  0  0  0
   -5.6929    0.5851    0.4346 C   0  0  0  0  0  0  0  0  0  0  0  0
   -4.4985    1.1136    0.9887 O   0  0  0  0  0  0  0  0  0  0  0  0
   -3.3082    0.5877    0.5671 C   0  0  0  0  0  0  0  0  0  0  0  0
   -3.1361   -0.4038   -0.3973 C   0  0  0  0  0  0  0  0  0  0  0  0
   -1.8521   -0.8423   -0.7296 C   0  0  0  0  0  0  0  0  0  0  0  0
   -0.7344   -0.2868   -0.1088 C   0  0  0  0  0  0  0  0  0  0  0  0
   -0.8854    0.7227    0.8489 C   0  0  0  0  0  0  0  0  0  0  0  0
    0.3168    1.3359    1.5262 C   0  0  0  0  0  0  0  0  0  0  0  0
    1.3804    1.7487    0.5698 N   0  0  0  0  0  0  0  0  0  0  0  0
    2.7368    1.3405    1.0262 C   0  0  0  0  0  0  0  0  0  0  0  0
    3.0653   -0.0687    0.5858 C   0  0  0  0  0  0  0  0  0  0  0  0
    3.0318   -1.1402    1.4871 C   0  0  0  0  0  0  0  0  0  0  0  0
    3.3033   -2.4440    1.0575 C   0  0  0  0  0  0  0  0  0  0  0  0
    3.6190   -2.6907   -0.2859 C   0  0  0  0  0  0  0  0  0  0  0  0
    3.9024   -4.0070   -0.7520 N   0  0  0  0  0  0  0  0  0  0  0  0
    3.9008   -5.1855   -0.0315 C   0  0  0  0  0  0  0  0  0  0  0  0
    4.2164   -6.1983   -0.9058 C   0  0  0  0  0  0  0  0  0  0  0  0
    4.4038   -5.5532   -2.1367 C   0  0  0  0  0  0  0  0  0  0  0  0
    4.2216   -4.2359   -2.0561 N   0  0  0  0  0  0  0  0  0  0  0  0
    3.6553   -1.6197   -1.1899 C   0  0  0  0  0  0  0  0  0  0  0  0
    3.3771   -0.3213   -0.7567 C   0  0  0  0  0  0  0  0  0  0  0  0
    1.3229    3.3643    0.0425 S   0  0  0  0  0  6  0  0  0  0  0  0
    2.3490    3.5421   -0.9638 O   0  0  0  0  0  0  0  0  0  0  0  0
    1.3056    4.1991    1.2282 O   0  0  0  0  0  0  0  0  0  0  0  0
   -0.2243    3.5165   -0.7708 C   0  0  0  0  0  0  0  0  0  0  0  0
   -1.2621    4.2746   -0.2345 C   0  0  0  0  0  0  0  0  0  0  0  0
   -2.4553    4.3688   -0.9439 C   0  0  0  0  0  0  0  0  0  0  0  0
   -2.5499    3.7165   -2.1642 C   0  0  0  0  0  0  0  0  0  0  0  0
   -1.5466    2.9963   -2.7141 N   0  0  0  0  0  0  0  0  0  0  0  0
   -0.3965    2.9114   -2.0024 C   0  0  0  0  0  0  0  0  0  0  0  0
   -2.1820    1.1365    1.1906 C   0  0  0  0  0  0  0  0  0  0  0  0
   -6.3580   -1.7871    2.4947 H   0  0  0  0  0  0  0  0  0  0  0  0
   -5.6551    0.5738   -0.6607 H   0  0  0  0  0  0  0  0  0  0  0  0
   -6.5063    1.2719    0.6954 H   0  0  0  0  0  0  0  0  0  0  0  0
   -3.9699   -0.8618   -0.9193 H   0  0  0  0  0  0  0  0  0  0  0  0
   -1.7217   -1.6150   -1.4835 H   0  0  0  0  0  0  0  0  0  0  0  0
    0.2563   -0.6384   -0.3893 H   0  0  0  0  0  0  0  0  0  0  0  0
    0.0170    2.1867    2.1490 H   0  0  0  0  0  0  0  0  0  0  0  0
    0.6963    0.5885    2.2337 H   0  0  0  0  0  0  0  0  0  0  0  0
    2.8201    1.4375    2.1151 H   0  0  0  0  0  0  0  0  0  0  0  0
    3.5161    1.9930    0.6181 H   0  0  0  0  0  0  0  0  0  0  0  0
    2.7876   -0.9714    2.5334 H   0  0  0  0  0  0  0  0  0  0  0  0
    3.2620   -3.2390    1.7957 H   0  0  0  0  0  0  0  0  0  0  0  0
    3.6741   -5.2153    1.0232 H   0  0  0  0  0  0  0  0  0  0  0  0
    4.2967   -7.2520   -0.6833 H   0  0  0  0  0  0  0  0  0  0  0  0
    4.6634   -5.9872   -3.0927 H   0  0  0  0  0  0  0  0  0  0  0  0
    3.9009   -1.7784   -2.2387 H   0  0  0  0  0  0  0  0  0  0  0  0
    3.4023    0.4976   -1.4750 H   0  0  0  0  0  0  0  0  0  0  0  0
   -1.1524    4.7828    0.7193 H   0  0  0  0  0  0  0  0  0  0  0  0
   -3.2926    4.9381   -0.5567 H   0  0  0  0  0  0  0  0  0  0  0  0
   -3.4620    3.7614   -2.7525 H   0  0  0  0  0  0  0  0  0  0  0  0
    0.3909    2.3255   -2.4678 H   0  0  0  0  0  0  0  0  0  0  0  0
   -2.3292    1.9091    1.9427 H   0  0  0  0  0  0  0  0  0  0  0  0
  1  2  2  0
  2  3  1  0
  2  4  1  0
  4  5  1  0
  5  6  1  0
  6  7  2  0
  7  8  1  0
  8  9  2  0
  9 10  1  0
 10 11  1  0
 11 12  1  0
 12 13  1  0
 13 14  1  0
 14 15  2  0
 15 16  1  0
 16 17  2  0
 17 18  1  0
 18 19  1  0
 19 20  2  0
 20 21  1  0
 21 22  2  0
 17 23  1  0
 23 24  2  0
 12 25  1  0
 25 26  2  0
 25 27  2  0
 25 28  1  0
 28 29  2  0
 29 30  1  0
 30 31  2  0
 31 32  1  0
 32 33  2  0
 10 34  2  0
 34  6  1  0
 24 14  1  0
 33 28  1  0
 22 18  1  0
  3 35  1  0
  4 36  1  0
  4 37  1  0
  7 38  1  0
  8 39  1  0
  9 40  1  0
 11 41  1  0
 11 42  1  0
 13 43  1  0
 13 44  1  0
 15 45  1  0
 16 46  1  0
 19 47  1  0
 20 48  1  0
 21 49  1  0
 23 50  1  0
 24 51  1  0
 29 52  1  0
 30 53  1  0
 31 54  1  0
 33 55  1  0
 34 56  1  0
M  END
$$$$
