
     RDKit          3D

 43 45  0  0  0  0  0  0  0  0999 V2000
    6.8396   -0.6375   -0.6214 C   0  0  0  0  0  0  0  0  0  0  0  0
    5.4841   -0.2880   -0.0235 C   0  0  0  0  0  0  0  0  0  0  0  0
    4.4595    0.0733   -1.0792 C   0  0  0  0  0  0  0  0  0  0  0  0
    4.7938    0.1630   -2.2657 O   0  0  0  0  0  0  0  0  0  0  0  0
    3.1471    0.2902   -0.7041 N   0  0  0  0  0  0  0  0  0  0  0  0
    2.1684    0.6324   -1.7454 C   0  0  0  0  0  0  0  0  0  0  0  0
    0.7869    0.6289   -1.0972 C   0  0  0  0  0  0  0  0  0  0  0  0
    1.1273    0.5474    0.3586 C   0  0  0  0  0  0  0  0  0  0  0  0
    0.2615    0.6596    1.4456 C   0  0  0  0  0  0  0  0  0  0  0  0
   -1.1946    0.8792    1.2855 C   0  0  0  0  0  0  0  0  0  0  0  0
   -1.6966    1.8393    1.8538 O   0  0  0  0  0  0  0  0  0  0  0  0
   -1.8264   -0.0846    0.5257 N   0  0  0  0  0  0  0  0  0  0  0  0
   -3.1881   -0.1326    0.1646 C   0  0  0  0  0  0  0  0  0  0  0  0
   -3.6183   -1.2470   -0.5657 C   0  0  0  0  0  0  0  0  0  0  0  0
   -4.9524   -1.3667   -0.9680 C   0  0  0  0  0  0  0  0  0  0  0  0
   -5.8819   -0.3767   -0.6386 C   0  0  0  0  0  0  0  0  0  0  0  0
   -7.3062   -0.4835   -1.0954 C   0  0  0  0  0  0  0  0  0  0  0  0
   -5.4481    0.7443    0.0757 C   0  0  0  0  0  0  0  0  0  0  0  0
   -4.1125    0.8633    0.4777 C   0  0  0  0  0  0  0  0  0  0  0  0
    0.7835    0.5907    2.7393 C   0  0  0  0  0  0  0  0  0  0  0  0
    2.1516    0.3733    2.9289 C   0  0  0  0  0  0  0  0  0  0  0  0
    3.0142    0.2406    1.8326 C   0  0  0  0  0  0  0  0  0  0  0  0
    2.5010    0.3377    0.5474 C   0  0  0  0  0  0  0  0  0  0  0  0
    7.2536    0.2076   -1.1814 H   0  0  0  0  0  0  0  0  0  0  0  0
    7.5476   -0.9010    0.1705 H   0  0  0  0  0  0  0  0  0  0  0  0
    6.7598   -1.4883   -1.3063 H   0  0  0  0  0  0  0  0  0  0  0  0
    5.6173    0.5716    0.6401 H   0  0  0  0  0  0  0  0  0  0  0  0
    5.1250   -1.1547    0.5397 H   0  0  0  0  0  0  0  0  0  0  0  0
    2.2301   -0.0801   -2.5760 H   0  0  0  0  0  0  0  0  0  0  0  0
    2.4219    1.6266   -2.1345 H   0  0  0  0  0  0  0  0  0  0  0  0
    0.2231   -0.2544   -1.4127 H   0  0  0  0  0  0  0  0  0  0  0  0
    0.2274    1.5351   -1.3468 H   0  0  0  0  0  0  0  0  0  0  0  0
   -1.2651   -0.8748    0.2351 H   0  0  0  0  0  0  0  0  0  0  0  0
   -2.9247   -2.0391   -0.8341 H   0  0  0  0  0  0  0  0  0  0  0  0
   -5.2600   -2.2398   -1.5390 H   0  0  0  0  0  0  0  0  0  0  0  0
   -7.9810    0.0115   -0.3892 H   0  0  0  0  0  0  0  0  0  0  0  0
   -7.6176   -1.5313   -1.1616 H   0  0  0  0  0  0  0  0  0  0  0  0
   -7.4195   -0.0179   -2.0792 H   0  0  0  0  0  0  0  0  0  0  0  0
   -6.1459    1.5398    0.3288 H   0  0  0  0  0  0  0  0  0  0  0  0
   -3.8271    1.7524    1.0312 H   0  0  0  0  0  0  0  0  0  0  0  0
    0.1271    0.7056    3.6000 H   0  0  0  0  0  0  0  0  0  0  0  0
    2.5510    0.3186    3.9398 H   0  0  0  0  0  0  0  0  0  0  0  0
    4.0635    0.0929    2.0444 H   0  0  0  0  0  0  0  0  0  0  0  0
  1  2  1  0
  2  3  1  0
  3  4  2  0
  3  5  1  0
  5  6  1  0
  6  7  1  0
  7  8  1  0
  8  9  2  0
  9 10  1  0
 10 11  2  0
 10 12  1  0
 12 13  1  0
 13 14  2  0
 14 15  1  0
 15 16  2  0
 16 17  1  0
 16 18  1  0
 18 19  2  0
  9 20  1  0
 20 21  2  0
 21 22  1  0
 22 23  2  0
 23  5  1  0
 23  8  1  0
 19 13  1  0
  1 24  1  0
  1 25  1  0
  1 26  1  0
  2 27  1  0
  2 28  1  0
  6 29  1  0
  6 30  1  0
  7 31  1  0
  7 32  1  0
 12 33  1  0
 14 34  1  0
 15 35  1  0
 17 36  1  0
 17 37  1  0
 17 38  1  0
 18 39  1  0
 19 40  1  0
 20 41  1  0
 21 42  1  0
 22 43  1  0
M  END
$$$$
