
     RDKit          3D

 60 63  0  0  0  0  0  0  0  0999 V2000
   -6.2778    1.4740    2.9848 C   0  0  0  0  0  0  0  0  0  0  0  0
   -6.9032    1.1140    1.7595 O   0  0  0  0  0  0  0  0  0  0  0  0
   -6.0979    0.5795    0.7885 C   0  0  0  0  0  0  0  0  0  0  0  0
   -4.7552    0.2290    0.9430 C   0  0  0  0  0  0  0  0  0  0  0  0
   -4.0326   -0.3114   -0.1315 C   0  0  0  0  0  0  0  0  0  0  0  0
   -2.5810   -0.6990    0.0331 C   0  0  0  0  0  0  0  0  0  0  0  0
   -1.6062    0.4746    0.0472 C   0  0  0  0  0  0  0  0  0  0  0  0
   -1.9597    1.6421    0.2144 O   0  0  0  0  0  0  0  0  0  0  0  0
   -0.2688    0.1576   -0.0959 N   0  0  0  0  0  0  0  0  0  0  0  0
    0.7356    1.1933   -0.1848 C   0  0  0  0  0  0  0  0  0  0  0  0
    2.0835    0.4812   -0.4120 C   0  0  1  0  0  0  0  0  0  0  0  0
    3.1358    1.0953    0.4056 N   0  0  0  0  0  0  0  0  0  0  0  0
    4.4674    1.0690    0.0632 C   0  0  0  0  0  0  0  0  0  0  0  0
    4.8689    0.5121   -0.9531 O   0  0  0  0  0  0  0  0  0  0  0  0
    5.4207    1.7576    0.9765 C   0  0  0  0  0  0  0  0  0  0  0  0
    5.1599    1.9300    2.3430 C   0  0  0  0  0  0  0  0  0  0  0  0
    6.0905    2.5829    3.1557 C   0  0  0  0  0  0  0  0  0  0  0  0
    7.2844    3.0539    2.6129 C   0  0  0  0  0  0  0  0  0  0  0  0
    7.5575    2.8676    1.2583 C   0  0  0  0  0  0  0  0  0  0  0  0
    6.6303    2.2180    0.4416 C   0  0  0  0  0  0  0  0  0  0  0  0
    1.8056   -0.9915   -0.0300 C   0  0  2  0  0  0  0  0  0  0  0  0
    2.5689   -2.0432   -0.7663 C   0  0  0  0  0  0  0  0  0  0  0  0
    2.1785   -3.2903   -0.9489 N   0  0  0  0  0  0  0  0  0  0  0  0
    3.2001   -3.8483   -1.6691 C   0  0  0  0  0  0  0  0  0  0  0  0
    3.1835   -5.2546   -2.1163 C   0  0  0  0  0  0  0  0  0  0  0  0
    4.2090   -3.0173   -1.9399 N   0  0  0  0  0  0  0  0  0  0  0  0
    3.7975   -1.8826   -1.3484 N   0  0  0  0  0  0  0  0  0  0  0  0
    0.3068   -1.1529   -0.3180 C   0  0  0  0  0  0  0  0  0  0  0  0
   -4.6776   -0.4873   -1.3636 C   0  0  0  0  0  0  0  0  0  0  0  0
   -6.0234   -0.1500   -1.5254 C   0  0  0  0  0  0  0  0  0  0  0  0
   -6.5245   -0.3870   -2.7773 O   0  0  0  0  0  0  0  0  0  0  0  0
   -7.8990   -0.0837   -2.9839 C   0  0  0  0  0  0  0  0  0  0  0  0
   -6.7285    0.3794   -0.4451 C   0  0  0  0  0  0  0  0  0  0  0  0
   -5.9000    0.5893    3.5070 H   0  0  0  0  0  0  0  0  0  0  0  0
   -5.4826    2.2097    2.8243 H   0  0  0  0  0  0  0  0  0  0  0  0
   -7.0363    1.9375    3.6232 H   0  0  0  0  0  0  0  0  0  0  0  0
   -4.2425    0.3732    1.8882 H   0  0  0  0  0  0  0  0  0  0  0  0
   -2.3067   -1.3844   -0.7767 H   0  0  0  0  0  0  0  0  0  0  0  0
   -2.4652   -1.2505    0.9739 H   0  0  0  0  0  0  0  0  0  0  0  0
    0.7063    1.7791    0.7406 H   0  0  0  0  0  0  0  0  0  0  0  0
    0.4971    1.8645   -1.0167 H   0  0  0  0  0  0  0  0  0  0  0  0
    2.3636    0.5653   -1.4695 H   0  0  0  0  0  0  0  0  0  0  0  0
    2.8500    1.6381    1.2108 H   0  0  0  0  0  0  0  0  0  0  0  0
    4.2573    1.5428    2.8019 H   0  0  0  0  0  0  0  0  0  0  0  0
    5.8895    2.7160    4.2164 H   0  0  0  0  0  0  0  0  0  0  0  0
    8.0090    3.5590    3.2476 H   0  0  0  0  0  0  0  0  0  0  0  0
    8.4937    3.2241    0.8378 H   0  0  0  0  0  0  0  0  0  0  0  0
    6.8555    2.0742   -0.6147 H   0  0  0  0  0  0  0  0  0  0  0  0
    1.9768   -1.1251    1.0471 H   0  0  0  0  0  0  0  0  0  0  0  0
    3.6074   -5.3488   -3.1226 H   0  0  0  0  0  0  0  0  0  0  0  0
    2.1584   -5.6423   -2.1461 H   0  0  0  0  0  0  0  0  0  0  0  0
    3.7674   -5.8777   -1.4319 H   0  0  0  0  0  0  0  0  0  0  0  0
    4.3937   -1.0553   -1.3826 H   0  0  0  0  0  0  0  0  0  0  0  0
    0.1067   -1.4232   -1.3629 H   0  0  0  0  0  0  0  0  0  0  0  0
   -0.1621   -1.9003    0.3304 H   0  0  0  0  0  0  0  0  0  0  0  0
   -4.1349   -0.8948   -2.2137 H   0  0  0  0  0  0  0  0  0  0  0  0
   -8.1465   -0.3421   -4.0180 H   0  0  0  0  0  0  0  0  0  0  0  0
   -8.0915    0.9863   -2.8528 H   0  0  0  0  0  0  0  0  0  0  0  0
   -8.5395   -0.6850   -2.3295 H   0  0  0  0  0  0  0  0  0  0  0  0
   -7.7735    0.6583   -0.5299 H   0  0  0  0  0  0  0  0  0  0  0  0
  1  2  1  0
  2  3  1  0
  3  4  2  0
  4  5  1  0
  5  6  1  0
  6  7  1  0
  7  8  2  0
  7  9  1  0
  9 10  1  0
 10 11  1  0
 11 12  1  0
 12 13  1  0
 13 14  2  0
 13 15  1  0
 15 16  2  0
 16 17  1  0
 17 18  2  0
 18 19  1  0
 19 20  2  0
 11 21  1  0
 21 22  1  0
 22 23  2  0
 23 24  1  0
 24 25  1  0
 24 26  2  0
 26 27  1  0
 21 28  1  0
  5 29  2  0
 29 30  1  0
 30 31  1  0
 31 32  1  0
 30 33  2  0
 33  3  1  0
 28  9  1  0
 20 15  1  0
 27 22  1  0
  1 34  1  0
  1 35  1  0
  1 36  1  0
  4 37  1  0
  6 38  1  0
  6 39  1  0
 10 40  1  0
 10 41  1  0
 11 42  1  6
 12 43  1  0
 16 44  1  0
 17 45  1  0
 18 46  1  0
 19 47  1  0
 20 48  1  0
 21 49  1  1
 25 50  1  0
 25 51  1  0
 25 52  1  0
 27 53  1  0
 28 54  1  0
 28 55  1  0
 29 56  1  0
 32 57  1  0
 32 58  1  0
 32 59  1  0
 33 60  1  0
M  END
$$$$
