
     RDKit          3D

 57 59  0  0  0  0  0  0  0  0999 V2000
   -5.5419    2.4794   -2.0723 C   0  0  0  0  0  0  0  0  0  0  0  0
   -4.2613    2.1876   -1.5303 O   0  0  0  0  0  0  0  0  0  0  0  0
   -3.9218    0.8131   -1.6895 C   0  0  0  0  0  0  0  0  0  0  0  0
   -2.4601    0.5641   -1.2965 C   0  0  0  0  0  0  0  0  0  0  0  0
   -1.5915    0.7753   -2.1507 O   0  0  0  0  0  0  0  0  0  0  0  0
   -2.1272    0.1344   -0.0049 N   0  0  0  0  0  0  0  0  0  0  0  0
   -3.0809   -0.3865    1.0069 C   0  0  0  0  0  0  0  0  0  0  0  0
   -4.0923    0.6473    1.5208 C   0  0  0  0  0  0  0  0  0  0  0  0
   -5.4276   -0.0031    1.8493 C   0  0  0  0  0  0  0  0  0  0  0  0
   -5.1988   -1.2301    2.5308 O   0  0  0  0  0  0  0  0  0  0  0  0
   -4.6368   -2.2480    1.7031 C   0  0  0  0  0  0  0  0  0  0  0  0
   -3.7172   -1.7207    0.6024 C   0  0  0  0  0  0  0  0  0  0  0  0
   -0.6957    0.0022    0.3352 C   0  0  0  0  0  0  0  0  0  0  0  0
    0.1420    1.2838    0.2193 C   0  0  0  0  0  0  0  0  0  0  0  0
    1.5735    0.7563    0.2602 C   0  0  0  0  0  0  0  0  0  0  0  0
    1.5004   -0.6037   -0.2636 N   0  0  0  0  0  0  0  0  0  0  0  0
    2.5412   -1.3665   -0.7564 C   0  0  0  0  0  0  0  0  0  0  0  0
    2.3794   -2.4313   -1.3454 O   0  0  0  0  0  0  0  0  0  0  0  0
    3.9196   -0.8645   -0.5713 C   0  0  0  0  0  0  0  0  0  0  0  0
    4.7025   -0.6239   -1.7029 C   0  0  0  0  0  0  0  0  0  0  0  0
    6.0095   -0.1454   -1.5599 C   0  0  0  0  0  0  0  0  0  0  0  0
    6.8390    0.1617   -2.7717 C   0  0  0  0  0  0  0  0  0  0  0  0
    6.5123    0.0931   -0.2719 C   0  0  0  0  0  0  0  0  0  0  0  0
    5.7441   -0.1835    0.8687 C   0  0  0  0  0  0  0  0  0  0  0  0
    6.3033    0.0805    2.2354 C   0  0  0  0  0  0  0  0  0  0  0  0
    4.4388   -0.6612    0.7112 C   0  0  0  0  0  0  0  0  0  0  0  0
    0.1197   -1.0129   -0.4766 C   0  0  0  0  0  0  0  0  0  0  0  0
   -5.5610    2.2764   -3.1469 H   0  0  0  0  0  0  0  0  0  0  0  0
   -6.3131    1.8939   -1.5645 H   0  0  0  0  0  0  0  0  0  0  0  0
   -5.7491    3.5401   -1.9137 H   0  0  0  0  0  0  0  0  0  0  0  0
   -4.6216    0.2042   -1.1238 H   0  0  0  0  0  0  0  0  0  0  0  0
   -4.0209    0.5244   -2.7437 H   0  0  0  0  0  0  0  0  0  0  0  0
   -2.4837   -0.6346    1.8950 H   0  0  0  0  0  0  0  0  0  0  0  0
   -3.6777    1.0873    2.4378 H   0  0  0  0  0  0  0  0  0  0  0  0
   -4.2431    1.4915    0.8482 H   0  0  0  0  0  0  0  0  0  0  0  0
   -6.0089    0.6515    2.5068 H   0  0  0  0  0  0  0  0  0  0  0  0
   -6.0289   -0.1824    0.9498 H   0  0  0  0  0  0  0  0  0  0  0  0
   -4.0768   -2.9174    2.3654 H   0  0  0  0  0  0  0  0  0  0  0  0
   -5.4520   -2.8373    1.2678 H   0  0  0  0  0  0  0  0  0  0  0  0
   -2.9488   -2.4694    0.3708 H   0  0  0  0  0  0  0  0  0  0  0  0
   -4.3032   -1.6214   -0.3159 H   0  0  0  0  0  0  0  0  0  0  0  0
   -0.6191   -0.2997    1.3886 H   0  0  0  0  0  0  0  0  0  0  0  0
   -0.0217    1.8134   -0.7239 H   0  0  0  0  0  0  0  0  0  0  0  0
   -0.0619    1.9923    1.0282 H   0  0  0  0  0  0  0  0  0  0  0  0
    2.2599    1.3712   -0.3292 H   0  0  0  0  0  0  0  0  0  0  0  0
    1.9330    0.7007    1.2929 H   0  0  0  0  0  0  0  0  0  0  0  0
    4.2854   -0.8086   -2.6911 H   0  0  0  0  0  0  0  0  0  0  0  0
    6.6351    1.1805   -3.1174 H   0  0  0  0  0  0  0  0  0  0  0  0
    7.9078    0.0717   -2.5487 H   0  0  0  0  0  0  0  0  0  0  0  0
    6.6163   -0.5390   -3.5833 H   0  0  0  0  0  0  0  0  0  0  0  0
    7.5208    0.4870   -0.1550 H   0  0  0  0  0  0  0  0  0  0  0  0
    6.2409    1.1490    2.4652 H   0  0  0  0  0  0  0  0  0  0  0  0
    7.3497   -0.2378    2.2913 H   0  0  0  0  0  0  0  0  0  0  0  0
    5.7524   -0.4736    3.0025 H   0  0  0  0  0  0  0  0  0  0  0  0
    3.8262   -0.8838    1.5815 H   0  0  0  0  0  0  0  0  0  0  0  0
   -0.0769   -0.9861   -1.5522 H   0  0  0  0  0  0  0  0  0  0  0  0
   -0.0316   -2.0417   -0.1321 H   0  0  0  0  0  0  0  0  0  0  0  0
  1  2  1  0
  2  3  1  0
  3  4  1  0
  4  5  2  0
  4  6  1  0
  6  7  1  0
  7  8  1  0
  8  9  1  0
  9 10  1  0
 10 11  1  0
 11 12  1  0
  6 13  1  0
 13 14  1  0
 14 15  1  0
 15 16  1  0
 16 17  1  0
 17 18  2  0
 17 19  1  0
 19 20  2  0
 20 21  1  0
 21 22  1  0
 21 23  2  0
 23 24  1  0
 24 25  1  0
 24 26  2  0
 16 27  1  0
 12  7  1  0
 27 13  1  0
 26 19  1  0
  1 28  1  0
  1 29  1  0
  1 30  1  0
  3 31  1  0
  3 32  1  0
  7 33  1  0
  8 34  1  0
  8 35  1  0
  9 36  1  0
  9 37  1  0
 11 38  1  0
 11 39  1  0
 12 40  1  0
 12 41  1  0
 13 42  1  0
 14 43  1  0
 14 44  1  0
 15 45  1  0
 15 46  1  0
 20 47  1  0
 22 48  1  0
 22 49  1  0
 22 50  1  0
 23 51  1  0
 25 52  1  0
 25 53  1  0
 25 54  1  0
 26 55  1  0
 27 56  1  0
 27 57  1  0
M  END
$$$$
