
     RDKit          3D

 63 65  0  0  0  0  0  0  0  0999 V2000
    1.7044    3.8421   -1.7025 C   0  0  0  0  0  0  0  0  0  0  0  0
    0.4216    3.0858   -1.4107 C   0  0  0  0  0  0  0  0  0  0  0  0
    0.2255    2.1389   -2.4698 O   0  0  0  0  0  0  0  0  0  0  0  0
   -0.8331    1.3167   -2.1932 C   0  0  0  0  0  0  0  0  0  0  0  0
   -2.1317    1.7633   -2.4521 C   0  0  0  0  0  0  0  0  0  0  0  0
   -3.2174    0.9094   -2.2405 C   0  0  0  0  0  0  0  0  0  0  0  0
   -2.9920   -0.3913   -1.7793 C   0  0  0  0  0  0  0  0  0  0  0  0
   -4.3500   -1.5047   -1.5375 S   0  0  0  0  0  6  0  0  0  0  0  0
   -5.5722   -0.8423   -1.9222 O   0  0  0  0  0  0  0  0  0  0  0  0
   -3.9562   -2.7602   -2.1400 O   0  0  0  0  0  0  0  0  0  0  0  0
   -4.3570   -1.7759    0.1071 N   0  0  0  0  0  0  0  0  0  0  0  0
   -4.6717   -0.8221    1.1893 C   0  0  0  0  0  0  0  0  0  0  0  0
   -5.7303    0.2110    0.8012 C   0  0  0  0  0  0  0  0  0  0  0  0
   -5.2164   -1.6579    2.3638 C   0  0  0  0  0  0  0  0  0  0  0  0
   -3.3836   -0.1259    1.6412 C   0  0  0  0  0  0  0  0  0  0  0  0
   -1.6936   -0.8600   -1.5548 C   0  0  0  0  0  0  0  0  0  0  0  0
   -0.6177    0.0029   -1.7651 C   0  0  0  0  0  0  0  0  0  0  0  0
    0.7403   -0.4941   -1.4876 C   0  0  0  0  0  0  0  0  0  0  0  0
    1.3705   -0.0935   -0.4212 N   0  0  0  0  0  0  0  0  0  0  0  0
    2.6320   -0.6758   -0.2741 C   0  0  0  0  0  0  0  0  0  0  0  0
    3.5976   -0.4990    0.7372 C   0  0  0  0  0  0  0  0  0  0  0  0
    3.5481    0.4110    1.9537 C   0  0  0  0  0  0  0  0  0  0  0  0
    4.7715    0.2074    2.8761 C   0  0  0  0  0  0  0  0  0  0  0  0
    3.5409    1.8877    1.5054 C   0  0  0  0  0  0  0  0  0  0  0  0
    2.2819    0.1308    2.7910 C   0  0  0  0  0  0  0  0  0  0  0  0
    4.6707   -1.2766    0.4844 N   0  0  0  0  0  0  0  0  0  0  0  0
    4.3704   -1.9094   -0.6732 N   0  0  0  0  0  0  0  0  0  0  0  0
    5.3136   -2.8410   -1.2451 C   0  0  0  0  0  0  0  0  0  0  0  0
    3.1459   -1.5792   -1.1579 C   0  0  0  0  0  0  0  0  0  0  0  0
    2.4496   -2.0117   -2.3138 C   0  0  0  0  0  0  0  0  0  0  0  0
    2.8531   -2.8289   -3.1336 O   0  0  0  0  0  0  0  0  0  0  0  0
    1.2176   -1.4070   -2.4163 N   0  0  0  0  0  0  0  0  0  0  0  0
    2.5476    3.1481   -1.7812 H   0  0  0  0  0  0  0  0  0  0  0  0
    1.9209    4.5673   -0.9146 H   0  0  0  0  0  0  0  0  0  0  0  0
    1.6287    4.3665   -2.6618 H   0  0  0  0  0  0  0  0  0  0  0  0
   -0.4182    3.7902   -1.3716 H   0  0  0  0  0  0  0  0  0  0  0  0
    0.5054    2.5757   -0.4432 H   0  0  0  0  0  0  0  0  0  0  0  0
   -2.2971    2.7667   -2.8354 H   0  0  0  0  0  0  0  0  0  0  0  0
   -4.2272    1.2615   -2.4463 H   0  0  0  0  0  0  0  0  0  0  0  0
   -4.0819   -2.7254    0.3634 H   0  0  0  0  0  0  0  0  0  0  0  0
   -6.6361   -0.2683    0.4102 H   0  0  0  0  0  0  0  0  0  0  0  0
   -5.3611    0.9084    0.0414 H   0  0  0  0  0  0  0  0  0  0  0  0
   -6.0265    0.8136    1.6680 H   0  0  0  0  0  0  0  0  0  0  0  0
   -6.1293   -2.1953    2.0805 H   0  0  0  0  0  0  0  0  0  0  0  0
   -4.4866   -2.4083    2.6899 H   0  0  0  0  0  0  0  0  0  0  0  0
   -5.4511   -1.0257    3.2274 H   0  0  0  0  0  0  0  0  0  0  0  0
   -3.5490    0.4690    2.5474 H   0  0  0  0  0  0  0  0  0  0  0  0
   -2.5914   -0.8515    1.8558 H   0  0  0  0  0  0  0  0  0  0  0  0
   -3.0005    0.5559    0.8780 H   0  0  0  0  0  0  0  0  0  0  0  0
   -1.5276   -1.8795   -1.2137 H   0  0  0  0  0  0  0  0  0  0  0  0
    5.7104    0.4292    2.3536 H   0  0  0  0  0  0  0  0  0  0  0  0
    4.7201    0.8640    3.7537 H   0  0  0  0  0  0  0  0  0  0  0  0
    4.8294   -0.8267    3.2388 H   0  0  0  0  0  0  0  0  0  0  0  0
    4.4300    2.1233    0.9076 H   0  0  0  0  0  0  0  0  0  0  0  0
    3.5280    2.5672    2.3666 H   0  0  0  0  0  0  0  0  0  0  0  0
    2.6653    2.1198    0.8911 H   0  0  0  0  0  0  0  0  0  0  0  0
    2.2769    0.7208    3.7156 H   0  0  0  0  0  0  0  0  0  0  0  0
    1.3670    0.3821    2.2436 H   0  0  0  0  0  0  0  0  0  0  0  0
    2.2174   -0.9296    3.0681 H   0  0  0  0  0  0  0  0  0  0  0  0
    6.2808   -2.7306   -0.7467 H   0  0  0  0  0  0  0  0  0  0  0  0
    4.9267   -3.8526   -1.0922 H   0  0  0  0  0  0  0  0  0  0  0  0
    5.4281   -2.6204   -2.3091 H   0  0  0  0  0  0  0  0  0  0  0  0
    0.6689   -1.6657   -3.2244 H   0  0  0  0  0  0  0  0  0  0  0  0
  1  2  1  0
  2  3  1  0
  3  4  1  0
  4  5  2  0
  5  6  1  0
  6  7  2  0
  7  8  1  0
  8  9  2  0
  8 10  2  0
  8 11  1  0
 11 12  1  0
 12 13  1  0
 12 14  1  0
 12 15  1  0
  7 16  1  0
 16 17  2  0
 17 18  1  0
 18 19  2  0
 19 20  1  0
 20 21  1  0
 21 22  1  0
 22 23  1  0
 22 24  1  0
 22 25  1  0
 21 26  2  0
 26 27  1  0
 27 28  1  0
 27 29  1  0
 29 30  1  0
 30 31  2  0
 30 32  1  0
 17  4  1  0
 32 18  1  0
 29 20  2  0
  1 33  1  0
  1 34  1  0
  1 35  1  0
  2 36  1  0
  2 37  1  0
  5 38  1  0
  6 39  1  0
 11 40  1  0
 13 41  1  0
 13 42  1  0
 13 43  1  0
 14 44  1  0
 14 45  1  0
 14 46  1  0
 15 47  1  0
 15 48  1  0
 15 49  1  0
 16 50  1  0
 23 51  1  0
 23 52  1  0
 23 53  1  0
 24 54  1  0
 24 55  1  0
 24 56  1  0
 25 57  1  0
 25 58  1  0
 25 59  1  0
 28 60  1  0
 28 61  1  0
 28 62  1  0
 32 63  1  0
M  END
$$$$
