
     RDKit          3D

 15 16  0  0  0  0  0  0  0  0999 V2000
   -2.9243   -1.3029    0.1295 O   0  0  0  0  0  0  0  0  0  0  0  0
   -1.8530   -0.7053    0.0748 C   0  0  0  0  0  0  0  0  0  0  0  0
   -1.7995    0.6720   -0.0088 N   0  0  0  0  0  0  0  0  0  0  0  0
   -0.6666    1.4642   -0.0762 C   0  0  0  0  0  0  0  0  0  0  0  0
   -0.7114    2.6860   -0.1488 O   0  0  0  0  0  0  0  0  0  0  0  0
    0.5500    0.7057   -0.0520 C   0  0  0  0  0  0  0  0  0  0  0  0
    1.9155    1.0141   -0.0945 C   0  0  0  0  0  0  0  0  0  0  0  0
    2.6811   -0.0870   -0.0418 N   0  0  0  0  0  0  0  0  0  0  0  0
    1.7900   -1.1003    0.0347 N   0  0  0  0  0  0  0  0  0  0  0  0
    0.5046   -0.6580    0.0307 C   0  0  0  0  0  0  0  0  0  0  0  0
   -0.6528   -1.3840    0.0945 N   0  0  0  0  0  0  0  0  0  0  0  0
   -2.6843    1.1537   -0.0222 H   0  0  0  0  0  0  0  0  0  0  0  0
    2.3883    1.9862   -0.1611 H   0  0  0  0  0  0  0  0  0  0  0  0
    2.1415   -2.0504    0.0856 H   0  0  0  0  0  0  0  0  0  0  0  0
   -0.6792   -2.3940    0.1557 H   0  0  0  0  0  0  0  0  0  0  0  0
  1  2  2  0
  2  3  1  0
  3  4  1  0
  4  5  2  0
  4  6  1  0
  6  7  1  0
  7  8  2  0
  8  9  1  0
  9 10  1  0
 10 11  1  0
 11  2  1  0
 10  6  2  0
  3 12  1  0
  7 13  1  0
  9 14  1  0
 11 15  1  0
M  END
$$$$
