
     RDKit          3D

 64 67  0  0  0  0  0  0  0  0999 V2000
   -3.3394    0.8250    3.4288 C   0  0  0  0  0  0  0  0  0  0  0  0
   -3.5289    2.0717    2.5781 C   0  0  0  0  0  0  0  0  0  0  0  0
   -4.4604    1.8363    1.4297 C   0  0  0  0  0  0  0  0  0  0  0  0
   -5.7172    2.2381    1.4386 N   0  0  0  0  0  0  0  0  0  0  0  0
   -6.2948    1.7176    0.3085 C   0  0  0  0  0  0  0  0  0  0  0  0
   -7.6156    1.8425   -0.1611 C   0  0  0  0  0  0  0  0  0  0  0  0
   -8.6759    2.6004    0.5720 C   0  0  0  0  0  0  0  0  0  0  0  0
   -7.9597    1.2437   -1.3418 N   0  0  0  0  0  0  0  0  0  0  0  0
   -7.0340    0.5596   -2.0545 C   0  0  0  0  0  0  0  0  0  0  0  0
   -7.4856   -0.0332   -3.3580 C   0  0  0  0  0  0  0  0  0  0  0  0
   -5.7118    0.3962   -1.6487 C   0  0  0  0  0  0  0  0  0  0  0  0
   -5.3705    0.9801   -0.4233 C   0  0  0  0  0  0  0  0  0  0  0  0
   -4.1852    1.0712    0.2975 N   0  0  0  0  0  0  0  0  0  0  0  0
   -2.9524    0.4640   -0.0591 C   0  0  0  0  0  0  0  0  0  0  0  0
   -1.7610    1.1919    0.0005 C   0  0  0  0  0  0  0  0  0  0  0  0
   -0.5536    0.5807   -0.3464 C   0  0  0  0  0  0  0  0  0  0  0  0
   -0.5221   -0.7619   -0.7481 C   0  0  0  0  0  0  0  0  0  0  0  0
    0.7898   -1.4269   -1.0875 C   0  0  0  0  0  0  0  0  0  0  0  0
    1.6207   -1.7106    0.1681 C   0  0  0  0  0  0  0  0  0  0  0  0
    2.8079   -2.4936   -0.1121 N   0  0  0  0  0  0  0  0  0  0  0  0
    3.8990   -1.9525   -0.7255 C   0  0  0  0  0  0  0  0  0  0  0  0
    3.9831   -0.7811   -1.0525 O   0  0  0  0  0  0  0  0  0  0  0  0
    4.8971   -2.8855   -0.9273 N   0  0  0  0  0  0  0  0  0  0  0  0
    6.3254   -2.6016   -1.7251 S   0  0  0  0  0  6  0  0  0  0  0  0
    6.0437   -2.0553   -3.0335 O   0  0  0  0  0  0  0  0  0  0  0  0
    7.0799   -3.8313   -1.5852 O   0  0  0  0  0  0  0  0  0  0  0  0
    7.1320   -1.3747   -0.7306 C   0  0  0  0  0  0  0  0  0  0  0  0
    7.0706   -0.0294   -1.1011 C   0  0  0  0  0  0  0  0  0  0  0  0
    7.7509    0.9266   -0.3441 C   0  0  0  0  0  0  0  0  0  0  0  0
    8.4994    0.5438    0.7770 C   0  0  0  0  0  0  0  0  0  0  0  0
    9.2523    1.5629    1.5814 C   0  0  0  0  0  0  0  0  0  0  0  0
    8.5693   -0.8123    1.1257 C   0  0  0  0  0  0  0  0  0  0  0  0
    7.8915   -1.7732    0.3727 C   0  0  0  0  0  0  0  0  0  0  0  0
   -1.7224   -1.4801   -0.8165 C   0  0  0  0  0  0  0  0  0  0  0  0
   -2.9335   -0.8706   -0.4810 C   0  0  0  0  0  0  0  0  0  0  0  0
   -2.8362    0.0294    2.8718 H   0  0  0  0  0  0  0  0  0  0  0  0
   -4.3003    0.4341    3.7800 H   0  0  0  0  0  0  0  0  0  0  0  0
   -2.7271    1.0577    4.3065 H   0  0  0  0  0  0  0  0  0  0  0  0
   -3.9581    2.8596    3.2116 H   0  0  0  0  0  0  0  0  0  0  0  0
   -2.5617    2.4577    2.2496 H   0  0  0  0  0  0  0  0  0  0  0  0
   -9.5951    2.6594   -0.0193 H   0  0  0  0  0  0  0  0  0  0  0  0
   -8.9056    2.1016    1.5189 H   0  0  0  0  0  0  0  0  0  0  0  0
   -8.3363    3.6198    0.7807 H   0  0  0  0  0  0  0  0  0  0  0  0
   -8.5473    0.1708   -3.5323 H   0  0  0  0  0  0  0  0  0  0  0  0
   -6.9145    0.3985   -4.1868 H   0  0  0  0  0  0  0  0  0  0  0  0
   -7.3432   -1.1184   -3.3485 H   0  0  0  0  0  0  0  0  0  0  0  0
   -4.9945   -0.1343   -2.2627 H   0  0  0  0  0  0  0  0  0  0  0  0
   -1.7513    2.2472    0.2599 H   0  0  0  0  0  0  0  0  0  0  0  0
    0.3658    1.1636   -0.3112 H   0  0  0  0  0  0  0  0  0  0  0  0
    1.3455   -0.7878   -1.7852 H   0  0  0  0  0  0  0  0  0  0  0  0
    0.6054   -2.3641   -1.6279 H   0  0  0  0  0  0  0  0  0  0  0  0
    1.0345   -2.2765    0.9010 H   0  0  0  0  0  0  0  0  0  0  0  0
    1.9315   -0.7723    0.6429 H   0  0  0  0  0  0  0  0  0  0  0  0
    2.7719   -3.4912    0.0258 H   0  0  0  0  0  0  0  0  0  0  0  0
    4.8375   -3.8219   -0.5542 H   0  0  0  0  0  0  0  0  0  0  0  0
    6.4914    0.2816   -1.9683 H   0  0  0  0  0  0  0  0  0  0  0  0
    7.6973    1.9725   -0.6414 H   0  0  0  0  0  0  0  0  0  0  0  0
   10.3300    1.4279    1.4436 H   0  0  0  0  0  0  0  0  0  0  0  0
    8.9942    2.5836    1.2788 H   0  0  0  0  0  0  0  0  0  0  0  0
    9.0102    1.4617    2.6445 H   0  0  0  0  0  0  0  0  0  0  0  0
    9.1644   -1.1261    1.9803 H   0  0  0  0  0  0  0  0  0  0  0  0
    7.9711   -2.8226    0.6458 H   0  0  0  0  0  0  0  0  0  0  0  0
   -1.7251   -2.5232   -1.1259 H   0  0  0  0  0  0  0  0  0  0  0  0
   -3.8431   -1.4666   -0.5123 H   0  0  0  0  0  0  0  0  0  0  0  0
  1  2  1  0
  2  3  1  0
  3  4  2  0
  4  5  1  0
  5  6  2  0
  6  7  1  0
  6  8  1  0
  8  9  2  0
  9 10  1  0
  9 11  1  0
 11 12  2  0
 12 13  1  0
 13 14  1  0
 14 15  2  0
 15 16  1  0
 16 17  2  0
 17 18  1  0
 18 19  1  0
 19 20  1  0
 20 21  1  0
 21 22  2  0
 21 23  1  0
 23 24  1  0
 24 25  2  0
 24 26  2  0
 24 27  1  0
 27 28  2  0
 28 29  1  0
 29 30  2  0
 30 31  1  0
 30 32  1  0
 32 33  2  0
 17 34  1  0
 34 35  2  0
 13  3  1  0
 35 14  1  0
 12  5  1  0
 33 27  1  0
  1 36  1  0
  1 37  1  0
  1 38  1  0
  2 39  1  0
  2 40  1  0
  7 41  1  0
  7 42  1  0
  7 43  1  0
 10 44  1  0
 10 45  1  0
 10 46  1  0
 11 47  1  0
 15 48  1  0
 16 49  1  0
 18 50  1  0
 18 51  1  0
 19 52  1  0
 19 53  1  0
 20 54  1  0
 23 55  1  0
 28 56  1  0
 29 57  1  0
 31 58  1  0
 31 59  1  0
 31 60  1  0
 32 61  1  0
 33 62  1  0
 34 63  1  0
 35 64  1  0
M  END
$$$$
