
     RDKit          3D

 27 27  0  0  0  0  0  0  0  0999 V2000
    2.1130    2.0042   -1.4207 N   0  0  0  0  0  0  0  0  0  0  0  0
    1.1993    1.2262   -0.7021 C   0  0  0  0  0  0  0  0  0  0  0  0
   -0.0216    1.8216   -0.3416 C   0  0  0  0  0  0  0  0  0  0  0  0
   -1.0807    1.0995    0.2538 C   0  0  0  0  0  0  0  0  0  0  0  0
   -2.3351    1.8495    0.6430 C   0  0  0  0  0  0  0  0  0  0  0  0
   -3.4925    1.1987    0.3490 F   0  0  0  0  0  0  0  0  0  0  0  0
   -2.4409    3.0490   -0.0035 F   0  0  0  0  0  0  0  0  0  0  0  0
   -2.3723    2.1570    1.9653 F   0  0  0  0  0  0  0  0  0  0  0  0
   -0.8985   -0.2761    0.4642 C   0  0  0  0  0  0  0  0  0  0  0  0
   -2.1410   -1.2773    1.2464 S   0  0  0  0  0  6  0  0  0  0  0  0
   -3.2643   -1.4410    0.0189 N   0  0  0  0  0  0  0  0  0  0  0  0
   -2.7535   -0.5156    2.3041 O   0  0  0  0  0  0  0  0  0  0  0  0
   -1.6046   -2.6001    1.4651 O   0  0  0  0  0  0  0  0  0  0  0  0
    0.2930   -0.9015    0.0744 C   0  0  0  0  0  0  0  0  0  0  0  0
    1.3233   -0.1558   -0.5194 C   0  0  0  0  0  0  0  0  0  0  0  0
    2.7874   -1.0360   -0.9870 S   0  0  0  0  0  6  0  0  0  0  0  0
    3.1985   -1.8437    0.4312 N   0  0  0  0  0  0  0  0  0  0  0  0
    2.4274   -2.0589   -1.9393 O   0  0  0  0  0  0  0  0  0  0  0  0
    3.8732   -0.1048   -1.2040 O   0  0  0  0  0  0  0  0  0  0  0  0
    2.1052    2.9986   -1.2146 H   0  0  0  0  0  0  0  0  0  0  0  0
    3.0689    1.6318   -1.4473 H   0  0  0  0  0  0  0  0  0  0  0  0
   -0.1575    2.8870   -0.5379 H   0  0  0  0  0  0  0  0  0  0  0  0
   -4.1295   -0.9498    0.2560 H   0  0  0  0  0  0  0  0  0  0  0  0
   -3.3951   -2.4242   -0.2219 H   0  0  0  0  0  0  0  0  0  0  0  0
    0.4244   -1.9731    0.2215 H   0  0  0  0  0  0  0  0  0  0  0  0
    3.1684   -2.8526    0.2751 H   0  0  0  0  0  0  0  0  0  0  0  0
    4.1052   -1.5126    0.7643 H   0  0  0  0  0  0  0  0  0  0  0  0
  1  2  1  0
  2  3  2  0
  3  4  1  0
  4  5  1  0
  5  6  1  0
  5  7  1  0
  5  8  1  0
  4  9  2  0
  9 10  1  0
 10 11  1  0
 10 12  2  0
 10 13  2  0
  9 14  1  0
 14 15  2  0
 15 16  1  0
 16 17  1  0
 16 18  2  0
 16 19  2  0
 15  2  1  0
  1 20  1  0
  1 21  1  0
  3 22  1  0
 11 23  1  0
 11 24  1  0
 14 25  1  0
 17 26  1  0
 17 27  1  0
M  END
$$$$
