
     RDKit          3D

 29 31  0  0  0  0  0  0  0  0999 V2000
    4.1926    0.8887    2.5409 O   0  0  0  0  0  0  0  0  0  0  0  0
    3.2877    0.7587    1.7234 C   0  0  0  0  0  0  0  0  0  0  0  0
    2.4406    1.8060    1.3942 N   0  0  0  0  0  0  0  0  0  0  0  0
    1.3772    1.8196    0.4992 C   0  0  0  0  0  0  0  0  0  0  0  0
    0.5595    3.2757    0.3417 S   0  0  0  0  0  0  0  0  0  0  0  0
    1.0903    0.6213   -0.1849 N   0  0  0  0  0  0  0  0  0  0  0  0
   -0.0197    0.4767   -1.1498 C   0  0  0  0  0  0  0  0  0  0  0  0
   -1.2487   -0.2174   -0.5487 C   0  0  1  0  0  0  0  0  0  0  0  0
   -2.1956    0.6952    0.2115 C   0  0  0  0  0  0  0  0  0  0  0  0
   -3.4922   -0.0699    0.1143 C   0  0  0  0  0  0  0  0  0  0  0  0
   -3.4245   -0.6223   -1.2936 C   0  0  0  0  0  0  0  0  0  0  0  0
   -2.0340   -0.8155   -1.6015 O   0  0  0  0  0  0  0  0  0  0  0  0
    1.9210   -0.4546    0.1168 C   0  0  0  0  0  0  0  0  0  0  0  0
    1.8815   -1.7222   -0.3924 N   0  0  0  0  0  0  0  0  0  0  0  0
    2.8941   -2.4256    0.2074 C   0  0  0  0  0  0  0  0  0  0  0  0
    3.5693   -1.6839    1.0594 N   0  0  0  0  0  0  0  0  0  0  0  0
    2.9680   -0.4501    1.0044 C   0  0  0  0  0  0  0  0  0  0  0  0
    2.6407    2.6695    1.8778 H   0  0  0  0  0  0  0  0  0  0  0  0
   -0.2981    1.4435   -1.5802 H   0  0  0  0  0  0  0  0  0  0  0  0
    0.3566   -0.1052   -2.0014 H   0  0  0  0  0  0  0  0  0  0  0  0
   -0.9401   -1.0452    0.1017 H   0  0  0  0  0  0  0  0  0  0  0  0
   -1.8785    0.8774    1.2418 H   0  0  0  0  0  0  0  0  0  0  0  0
   -2.3088    1.6602   -0.2960 H   0  0  0  0  0  0  0  0  0  0  0  0
   -3.4944   -0.8920    0.8398 H   0  0  0  0  0  0  0  0  0  0  0  0
   -4.3798    0.5435    0.2897 H   0  0  0  0  0  0  0  0  0  0  0  0
   -3.8288    0.0911   -2.0195 H   0  0  0  0  0  0  0  0  0  0  0  0
   -3.9598   -1.5700   -1.3992 H   0  0  0  0  0  0  0  0  0  0  0  0
    1.2363   -2.0866   -1.0797 H   0  0  0  0  0  0  0  0  0  0  0  0
    3.0876   -3.4667   -0.0172 H   0  0  0  0  0  0  0  0  0  0  0  0
  1  2  2  0
  2  3  1  0
  3  4  1  0
  4  5  2  0
  4  6  1  0
  6  7  1  0
  7  8  1  0
  8  9  1  0
  9 10  1  0
 10 11  1  0
 11 12  1  0
  6 13  1  0
 13 14  1  0
 14 15  1  0
 15 16  2  0
 16 17  1  0
 17  2  1  0
 12  8  1  0
 17 13  2  0
  3 18  1  0
  7 19  1  0
  7 20  1  0
  8 21  1  1
  9 22  1  0
  9 23  1  0
 10 24  1  0
 10 25  1  0
 11 26  1  0
 11 27  1  0
 14 28  1  0
 15 29  1  0
M  END
$$$$
