
     RDKit          3D

 59 62  0  0  0  0  0  0  0  0999 V2000
   10.9347    0.1860   -0.1147 C   0  0  0  0  0  0  0  0  0  0  0  0
    9.5039   -0.2138   -0.4274 C   0  0  0  0  0  0  0  0  0  0  0  0
    8.6368    0.6169    0.3418 O   0  0  0  0  0  0  0  0  0  0  0  0
    7.2923    0.4248    0.1902 C   0  0  0  0  0  0  0  0  0  0  0  0
    6.4897    1.2788    0.9472 C   0  0  0  0  0  0  0  0  0  0  0  0
    5.0932    1.1954    0.8891 C   0  0  0  0  0  0  0  0  0  0  0  0
    4.4785    0.2516    0.0688 C   0  0  0  0  0  0  0  0  0  0  0  0
    3.0825    0.0946   -0.0519 N   0  0  0  0  0  0  0  0  0  0  0  0
    2.0890    0.8428    0.5621 C   0  0  0  0  0  0  0  0  0  0  0  0
    2.2637    1.7911    1.3187 O   0  0  0  0  0  0  0  0  0  0  0  0
    0.6892    0.3380    0.2079 C   0  0  0  0  0  0  0  0  0  0  0  0
    0.4175   -0.9996    0.9047 C   0  0  0  0  0  0  0  0  0  0  0  0
   -0.9425   -1.5830    0.5054 C   0  0  0  0  0  0  0  0  0  0  0  0
   -1.8945   -0.5189    0.1538 N   0  0  0  0  0  0  0  0  0  0  0  0
   -3.2034   -0.9680   -0.0815 C   0  0  0  0  0  0  0  0  0  0  0  0
   -4.1630   -0.1071   -0.5966 C   0  0  0  0  0  0  0  0  0  0  0  0
   -5.4455   -0.5797   -0.8372 C   0  0  0  0  0  0  0  0  0  0  0  0
   -6.4356    0.2637   -1.3606 N   0  0  0  0  0  0  0  0  0  0  0  0
   -7.7024   -0.3938   -1.7444 C   0  0  0  0  0  0  0  0  0  0  0  0
   -8.6248   -0.6821   -0.5521 C   0  0  0  0  0  0  0  0  0  0  0  0
   -9.0687    0.8314    0.3747 S   0  0  0  0  0  0  0  0  0  0  0  0
   -7.3806    1.4898    0.6032 C   0  0  0  0  0  0  0  0  0  0  0  0
   -6.6144    1.5815   -0.7219 C   0  0  0  0  0  0  0  0  0  0  0  0
   -5.7362   -1.8701   -0.6171 N   0  0  0  0  0  0  0  0  0  0  0  0
   -4.7516   -2.6432   -0.1464 C   0  0  0  0  0  0  0  0  0  0  0  0
   -3.5026   -2.2577    0.1328 N   0  0  0  0  0  0  0  0  0  0  0  0
   -1.7416    0.7132    0.9274 C   0  0  0  0  0  0  0  0  0  0  0  0
   -0.4075    1.3642    0.5541 C   0  0  0  0  0  0  0  0  0  0  0  0
    5.2860   -0.6072   -0.6876 C   0  0  0  0  0  0  0  0  0  0  0  0
    6.6836   -0.5223   -0.6293 C   0  0  0  0  0  0  0  0  0  0  0  0
   11.1022    1.2405   -0.3577 H   0  0  0  0  0  0  0  0  0  0  0  0
   11.6431   -0.4239   -0.6824 H   0  0  0  0  0  0  0  0  0  0  0  0
   11.1433    0.0679    0.9538 H   0  0  0  0  0  0  0  0  0  0  0  0
    9.3185   -0.0699   -1.4981 H   0  0  0  0  0  0  0  0  0  0  0  0
    9.3594   -1.2664   -0.1580 H   0  0  0  0  0  0  0  0  0  0  0  0
    6.9524    2.0220    1.5926 H   0  0  0  0  0  0  0  0  0  0  0  0
    4.5210    1.8850    1.5010 H   0  0  0  0  0  0  0  0  0  0  0  0
    2.7762   -0.6318   -0.6865 H   0  0  0  0  0  0  0  0  0  0  0  0
    0.6662    0.1794   -0.8800 H   0  0  0  0  0  0  0  0  0  0  0  0
    1.2013   -1.7368    0.6945 H   0  0  0  0  0  0  0  0  0  0  0  0
    0.4407   -0.8469    1.9926 H   0  0  0  0  0  0  0  0  0  0  0  0
   -0.8020   -2.2359   -0.3654 H   0  0  0  0  0  0  0  0  0  0  0  0
   -1.3051   -2.2000    1.3377 H   0  0  0  0  0  0  0  0  0  0  0  0
   -3.8925    0.9033   -0.8679 H   0  0  0  0  0  0  0  0  0  0  0  0
   -7.5091   -1.3186   -2.3033 H   0  0  0  0  0  0  0  0  0  0  0  0
   -8.2259    0.2606   -2.4543 H   0  0  0  0  0  0  0  0  0  0  0  0
   -8.1713   -1.3854    0.1522 H   0  0  0  0  0  0  0  0  0  0  0  0
   -9.5534   -1.1372   -0.9116 H   0  0  0  0  0  0  0  0  0  0  0  0
   -6.8535    0.8538    1.3220 H   0  0  0  0  0  0  0  0  0  0  0  0
   -7.4679    2.4867    1.0466 H   0  0  0  0  0  0  0  0  0  0  0  0
   -5.6575    2.0859   -0.5517 H   0  0  0  0  0  0  0  0  0  0  0  0
   -7.1587    2.2345   -1.4171 H   0  0  0  0  0  0  0  0  0  0  0  0
   -4.9904   -3.6864    0.0265 H   0  0  0  0  0  0  0  0  0  0  0  0
   -1.7618    0.4794    2.0001 H   0  0  0  0  0  0  0  0  0  0  0  0
   -2.5375    1.4456    0.7564 H   0  0  0  0  0  0  0  0  0  0  0  0
   -0.1160    2.0338    1.3711 H   0  0  0  0  0  0  0  0  0  0  0  0
   -0.5529    2.0110   -0.3214 H   0  0  0  0  0  0  0  0  0  0  0  0
    4.8430   -1.3571   -1.3380 H   0  0  0  0  0  0  0  0  0  0  0  0
    7.2625   -1.2103   -1.2359 H   0  0  0  0  0  0  0  0  0  0  0  0
  1  2  1  0
  2  3  1  0
  3  4  1  0
  4  5  2  0
  5  6  1  0
  6  7  2  0
  7  8  1  0
  8  9  1  0
  9 10  2  0
  9 11  1  0
 11 12  1  0
 12 13  1  0
 13 14  1  0
 14 15  1  0
 15 16  2  0
 16 17  1  0
 17 18  1  0
 18 19  1  0
 19 20  1  0
 20 21  1  0
 21 22  1  0
 22 23  1  0
 17 24  2  0
 24 25  1  0
 25 26  2  0
 14 27  1  0
 27 28  1  0
  7 29  1  0
 29 30  2  0
 30  4  1  0
 28 11  1  0
 26 15  1  0
 23 18  1  0
  1 31  1  0
  1 32  1  0
  1 33  1  0
  2 34  1  0
  2 35  1  0
  5 36  1  0
  6 37  1  0
  8 38  1  0
 11 39  1  0
 12 40  1  0
 12 41  1  0
 13 42  1  0
 13 43  1  0
 16 44  1  0
 19 45  1  0
 19 46  1  0
 20 47  1  0
 20 48  1  0
 22 49  1  0
 22 50  1  0
 23 51  1  0
 23 52  1  0
 25 53  1  0
 27 54  1  0
 27 55  1  0
 28 56  1  0
 28 57  1  0
 29 58  1  0
 30 59  1  0
M  END
$$$$
