
     RDKit          3D

 46 49  0  0  0  0  0  0  0  0999 V2000
   -4.5679    2.6472   -0.8869 C   0  0  0  0  0  0  0  0  0  0  0  0
   -3.3337    2.2611   -0.2087 N   0  0  0  0  0  0  0  0  0  0  0  0
   -3.6146    1.2942    0.8750 C   0  0  0  0  0  0  0  0  0  0  0  0
   -2.3630    0.5274    1.3572 C   0  0  0  0  0  0  0  0  0  0  0  0
   -1.6863   -0.2056    0.2565 N   0  0  0  0  0  0  0  0  0  0  0  0
   -1.7156   -1.6202    0.3900 C   0  0  0  0  0  0  0  0  0  0  0  0
   -2.9089   -2.3461    0.5068 C   0  0  0  0  0  0  0  0  0  0  0  0
   -2.8825   -3.7377    0.6106 C   0  0  0  0  0  0  0  0  0  0  0  0
   -1.6653   -4.4165    0.5965 C   0  0  0  0  0  0  0  0  0  0  0  0
   -0.4654   -3.7112    0.4805 C   0  0  0  0  0  0  0  0  0  0  0  0
   -0.4837   -2.3209    0.3788 C   0  0  0  0  0  0  0  0  0  0  0  0
    0.6649   -1.5104    0.2755 N   0  0  0  0  0  0  0  0  0  0  0  0
    1.9928   -1.8814    0.2148 C   0  0  0  0  0  0  0  0  0  0  0  0
    2.3831   -3.0458    0.2185 O   0  0  0  0  0  0  0  0  0  0  0  0
    2.9120   -0.7529    0.1357 C   0  0  0  0  0  0  0  0  0  0  0  0
    2.7384    0.6232    0.1663 C   0  0  0  0  0  0  0  0  0  0  0  0
    4.0250    1.2128    0.0459 C   0  0  0  0  0  0  0  0  0  0  0  0
    4.5322    2.5236    0.0097 C   0  0  0  0  0  0  0  0  0  0  0  0
    5.9168    2.7048   -0.1236 C   0  0  0  0  0  0  0  0  0  0  0  0
    6.7810    1.6104   -0.2185 C   0  0  0  0  0  0  0  0  0  0  0  0
    6.2939    0.2997   -0.1836 C   0  0  0  0  0  0  0  0  0  0  0  0
    4.9154    0.1535   -0.0506 C   0  0  0  0  0  0  0  0  0  0  0  0
    4.2501   -1.0294    0.0039 O   0  0  0  0  0  0  0  0  0  0  0  0
   -2.1052    0.2133   -1.1044 C   0  0  0  0  0  0  0  0  0  0  0  0
   -2.3216    1.7425   -1.1557 C   0  0  0  0  0  0  0  0  0  0  0  0
   -5.2906    3.0532   -0.1705 H   0  0  0  0  0  0  0  0  0  0  0  0
   -4.3721    3.4394   -1.6180 H   0  0  0  0  0  0  0  0  0  0  0  0
   -5.0336    1.8032   -1.4084 H   0  0  0  0  0  0  0  0  0  0  0  0
   -4.3631    0.5608    0.5471 H   0  0  0  0  0  0  0  0  0  0  0  0
   -4.0465    1.8351    1.7252 H   0  0  0  0  0  0  0  0  0  0  0  0
   -1.6399    1.2477    1.7606 H   0  0  0  0  0  0  0  0  0  0  0  0
   -2.6314   -0.1331    2.1914 H   0  0  0  0  0  0  0  0  0  0  0  0
   -3.8679   -1.8383    0.5086 H   0  0  0  0  0  0  0  0  0  0  0  0
   -3.8118   -4.2943    0.6996 H   0  0  0  0  0  0  0  0  0  0  0  0
   -1.6451   -5.5007    0.6771 H   0  0  0  0  0  0  0  0  0  0  0  0
    0.4638   -4.2717    0.4778 H   0  0  0  0  0  0  0  0  0  0  0  0
    0.4180   -0.5270    0.2448 H   0  0  0  0  0  0  0  0  0  0  0  0
    1.8024    1.1529    0.2676 H   0  0  0  0  0  0  0  0  0  0  0  0
    3.8708    3.3815    0.0836 H   0  0  0  0  0  0  0  0  0  0  0  0
    6.3237    3.7136   -0.1527 H   0  0  0  0  0  0  0  0  0  0  0  0
    7.8512    1.7781   -0.3207 H   0  0  0  0  0  0  0  0  0  0  0  0
    6.9469   -0.5616   -0.2547 H   0  0  0  0  0  0  0  0  0  0  0  0
   -1.3207   -0.0588   -1.8210 H   0  0  0  0  0  0  0  0  0  0  0  0
   -3.0306   -0.2888   -1.4162 H   0  0  0  0  0  0  0  0  0  0  0  0
   -2.5445    2.0442   -2.1866 H   0  0  0  0  0  0  0  0  0  0  0  0
   -1.3709    2.2291   -0.9012 H   0  0  0  0  0  0  0  0  0  0  0  0
  1  2  1  0
  2  3  1  0
  3  4  1  0
  4  5  1  0
  5  6  1  0
  6  7  2  0
  7  8  1  0
  8  9  2  0
  9 10  1  0
 10 11  2  0
 11 12  1  0
 12 13  1  0
 13 14  2  0
 13 15  1  0
 15 16  2  0
 16 17  1  0
 17 18  2  0
 18 19  1  0
 19 20  2  0
 20 21  1  0
 21 22  2  0
 22 23  1  0
  5 24  1  0
 24 25  1  0
 25  2  1  0
 11  6  1  0
 23 15  1  0
 22 17  1  0
  1 26  1  0
  1 27  1  0
  1 28  1  0
  3 29  1  0
  3 30  1  0
  4 31  1  0
  4 32  1  0
  7 33  1  0
  8 34  1  0
  9 35  1  0
 10 36  1  0
 12 37  1  0
 16 38  1  0
 18 39  1  0
 19 40  1  0
 20 41  1  0
 21 42  1  0
 24 43  1  0
 24 44  1  0
 25 45  1  0
 25 46  1  0
M  END
$$$$
