
     RDKit          3D

 40 41  0  0  0  0  0  0  0  0999 V2000
    0.3175    0.6463    1.6415 O   0  0  0  0  0  0  0  0  0  0  0  0
    0.1257   -0.1821    0.7621 C   0  0  0  0  0  0  0  0  0  0  0  0
    1.1087   -0.6778   -0.0569 N   0  0  0  0  0  0  0  0  0  0  0  0
    2.4632   -0.1455   -0.0184 C   0  0  0  0  0  0  0  0  0  0  0  0
    3.4626   -1.1893   -0.5429 C   0  0  0  0  0  0  0  0  0  0  0  0
    4.7476   -0.5793   -1.1090 C   0  0  0  0  0  0  0  0  0  0  0  0
    5.0749    0.7613   -0.4671 C   0  0  0  0  0  0  0  0  0  0  0  0
    3.9623    1.7858   -0.6942 C   0  0  0  0  0  0  0  0  0  0  0  0
    2.5685    1.1633   -0.8065 C   0  0  0  0  0  0  0  0  0  0  0  0
   -1.0914   -0.7595    0.5003 N   0  0  0  0  0  0  0  0  0  0  0  0
   -2.2996   -0.3251    1.1928 C   0  0  0  0  0  0  0  0  0  0  0  0
   -2.8533    0.9774    0.5832 C   0  0  0  0  0  0  0  0  0  0  0  0
   -3.9184    0.7019   -0.4725 C   0  0  0  0  0  0  0  0  0  0  0  0
   -5.1166   -0.0496    0.1116 C   0  0  0  0  0  0  0  0  0  0  0  0
   -4.7563   -0.9427    1.3001 C   0  0  0  0  0  0  0  0  0  0  0  0
   -3.3303   -1.4670    1.1961 C   0  0  0  0  0  0  0  0  0  0  0  0
    0.8119   -1.1352   -0.9035 H   0  0  0  0  0  0  0  0  0  0  0  0
    2.7025    0.0679    1.0321 H   0  0  0  0  0  0  0  0  0  0  0  0
    3.7117   -1.8740    0.2782 H   0  0  0  0  0  0  0  0  0  0  0  0
    3.0072   -1.8158   -1.3208 H   0  0  0  0  0  0  0  0  0  0  0  0
    4.6349   -0.4395   -2.1916 H   0  0  0  0  0  0  0  0  0  0  0  0
    5.5787   -1.2800   -0.9708 H   0  0  0  0  0  0  0  0  0  0  0  0
    5.2230    0.6173    0.6106 H   0  0  0  0  0  0  0  0  0  0  0  0
    6.0199    1.1516   -0.8616 H   0  0  0  0  0  0  0  0  0  0  0  0
    3.9796    2.5100    0.1294 H   0  0  0  0  0  0  0  0  0  0  0  0
    4.1652    2.3582   -1.6075 H   0  0  0  0  0  0  0  0  0  0  0  0
    2.3422    0.9685   -1.8635 H   0  0  0  0  0  0  0  0  0  0  0  0
    1.8198    1.8904   -0.4696 H   0  0  0  0  0  0  0  0  0  0  0  0
   -1.2046   -1.1960   -0.4001 H   0  0  0  0  0  0  0  0  0  0  0  0
   -2.0164   -0.1067    2.2307 H   0  0  0  0  0  0  0  0  0  0  0  0
   -2.0513    1.5877    0.1519 H   0  0  0  0  0  0  0  0  0  0  0  0
   -3.3061    1.5795    1.3819 H   0  0  0  0  0  0  0  0  0  0  0  0
   -4.2595    1.6417   -0.9215 H   0  0  0  0  0  0  0  0  0  0  0  0
   -3.4773    0.1107   -1.2848 H   0  0  0  0  0  0  0  0  0  0  0  0
   -5.5730   -0.6532   -0.6824 H   0  0  0  0  0  0  0  0  0  0  0  0
   -5.8846    0.6656    0.4303 H   0  0  0  0  0  0  0  0  0  0  0  0
   -5.4650   -1.7763    1.3617 H   0  0  0  0  0  0  0  0  0  0  0  0
   -4.8639   -0.3725    2.2315 H   0  0  0  0  0  0  0  0  0  0  0  0
   -3.2431   -2.0709    0.2830 H   0  0  0  0  0  0  0  0  0  0  0  0
   -3.1168   -2.1469    2.0297 H   0  0  0  0  0  0  0  0  0  0  0  0
  1  2  2  0
  2  3  1  0
  3  4  1  0
  4  5  1  0
  5  6  1  0
  6  7  1  0
  7  8  1  0
  8  9  1  0
  2 10  1  0
 10 11  1  0
 11 12  1  0
 12 13  1  0
 13 14  1  0
 14 15  1  0
 15 16  1  0
  9  4  1  0
 16 11  1  0
  3 17  1  0
  4 18  1  0
  5 19  1  0
  5 20  1  0
  6 21  1  0
  6 22  1  0
  7 23  1  0
  7 24  1  0
  8 25  1  0
  8 26  1  0
  9 27  1  0
  9 28  1  0
 10 29  1  0
 11 30  1  0
 12 31  1  0
 12 32  1  0
 13 33  1  0
 13 34  1  0
 14 35  1  0
 14 36  1  0
 15 37  1  0
 15 38  1  0
 16 39  1  0
 16 40  1  0
M  END
$$$$
