
     RDKit          3D

 53 57  0  0  0  0  0  0  0  0999 V2000
   -2.1845    4.2858   -3.9599 C   0  0  0  0  0  0  0  0  0  0  0  0
   -1.8657    3.6414   -2.6725 C   0  0  0  0  0  0  0  0  0  0  0  0
   -2.2496    4.1457   -1.4928 N   0  0  0  0  0  0  0  0  0  0  0  0
   -1.7621    3.2418   -0.6380 N   0  0  0  0  0  0  0  0  0  0  0  0
   -1.1038    2.2353   -1.2939 C   0  0  0  0  0  0  0  0  0  0  0  0
   -0.4382    1.0957   -0.5901 C   0  0  2  0  0  0  0  0  0  0  0  0
    0.7356    1.5698    0.2605 C   0  0  0  0  0  0  0  0  0  0  0  0
    1.5827    0.3877    0.4616 N   0  0  0  0  0  0  0  0  0  0  0  0
    2.9950    0.7679    0.6643 C   0  0  0  0  0  0  0  0  0  0  0  0
    3.8710   -0.3885    1.0961 C   0  0  0  0  0  0  0  0  0  0  0  0
    3.6605   -1.0128    2.3346 C   0  0  0  0  0  0  0  0  0  0  0  0
    4.4826   -2.0636    2.7492 C   0  0  0  0  0  0  0  0  0  0  0  0
    5.5185   -2.5054    1.9272 C   0  0  0  0  0  0  0  0  0  0  0  0
    5.7333   -1.8980    0.6914 C   0  0  0  0  0  0  0  0  0  0  0  0
    4.9200   -0.8399    0.2801 C   0  0  0  0  0  0  0  0  0  0  0  0
    1.3822   -0.5043   -0.7012 C   0  0  0  0  0  0  0  0  0  0  0  0
    0.2498    0.1083   -1.5417 C   0  0  1  0  0  0  0  0  0  0  0  0
   -0.8426   -0.8795   -1.9237 C   0  0  0  0  0  0  0  0  0  0  0  0
   -1.7646   -0.8753   -0.8010 N   0  0  0  0  0  0  0  0  0  0  0  0
   -2.8146   -1.7805   -0.7256 C   0  0  0  0  0  0  0  0  0  0  0  0
   -2.9799   -2.6432   -1.5884 O   0  0  0  0  0  0  0  0  0  0  0  0
   -3.6804   -1.6519    0.4188 C   0  0  0  0  0  0  0  0  0  0  0  0
   -4.8698   -0.9798    0.2928 O   0  0  0  0  0  0  0  0  0  0  0  0
   -5.4030   -1.0261    1.5439 C   0  0  0  0  0  0  0  0  0  0  0  0
   -4.6704   -1.6354    2.4461 N   0  0  0  0  0  0  0  0  0  0  0  0
   -3.5718   -2.0665    1.7338 C   0  0  0  0  0  0  0  0  0  0  0  0
   -2.4989   -2.8446    2.3851 C   0  0  0  0  0  0  0  0  0  0  0  0
   -1.4546    0.1994    0.1398 C   0  0  0  0  0  0  0  0  0  0  0  0
   -1.1552    2.4754   -2.5899 N   0  0  0  0  0  0  0  0  0  0  0  0
   -3.2596    4.2633   -4.1413 H   0  0  0  0  0  0  0  0  0  0  0  0
   -1.6873    3.7692   -4.7872 H   0  0  0  0  0  0  0  0  0  0  0  0
   -1.8548    5.3293   -3.9627 H   0  0  0  0  0  0  0  0  0  0  0  0
   -1.9184    3.3709    0.3554 H   0  0  0  0  0  0  0  0  0  0  0  0
    1.2849    2.3609   -0.2662 H   0  0  0  0  0  0  0  0  0  0  0  0
    0.4069    1.9805    1.2247 H   0  0  0  0  0  0  0  0  0  0  0  0
    3.4005    1.2372   -0.2447 H   0  0  0  0  0  0  0  0  0  0  0  0
    3.0626    1.5293    1.4564 H   0  0  0  0  0  0  0  0  0  0  0  0
    2.8519   -0.6784    2.9836 H   0  0  0  0  0  0  0  0  0  0  0  0
    4.3033   -2.5420    3.7071 H   0  0  0  0  0  0  0  0  0  0  0  0
    6.1491   -3.3340    2.2489 H   0  0  0  0  0  0  0  0  0  0  0  0
    6.5391   -2.2496    0.0465 H   0  0  0  0  0  0  0  0  0  0  0  0
    5.1031   -0.3754   -0.6888 H   0  0  0  0  0  0  0  0  0  0  0  0
    2.2808   -0.6306   -1.3327 H   0  0  0  0  0  0  0  0  0  0  0  0
    1.1115   -1.5059   -0.3218 H   0  0  0  0  0  0  0  0  0  0  0  0
    0.6851    0.5886   -2.4289 H   0  0  0  0  0  0  0  0  0  0  0  0
   -0.4713   -1.8914   -2.1157 H   0  0  0  0  0  0  0  0  0  0  0  0
   -1.3953   -0.5377   -2.8085 H   0  0  0  0  0  0  0  0  0  0  0  0
   -6.3582   -0.5415    1.6841 H   0  0  0  0  0  0  0  0  0  0  0  0
   -2.9121   -3.7458    2.8413 H   0  0  0  0  0  0  0  0  0  0  0  0
   -1.7284   -3.1507    1.6749 H   0  0  0  0  0  0  0  0  0  0  0  0
   -2.0184   -2.2501    3.1666 H   0  0  0  0  0  0  0  0  0  0  0  0
   -1.0253   -0.2743    1.0293 H   0  0  0  0  0  0  0  0  0  0  0  0
   -2.3712    0.7190    0.4438 H   0  0  0  0  0  0  0  0  0  0  0  0
  1  2  1  0
  2  3  2  0
  3  4  1  0
  4  5  1  0
  6  5  1  6
  6  7  1  0
  7  8  1  0
  8  9  1  0
  9 10  1  0
 10 11  2  0
 11 12  1  0
 12 13  2  0
 13 14  1  0
 14 15  2  0
  8 16  1  0
 16 17  1  0
 17 18  1  0
 18 19  1  0
 19 20  1  0
 20 21  2  0
 20 22  1  0
 22 23  1  0
 23 24  1  0
 24 25  2  0
 25 26  1  0
 26 27  1  0
 19 28  1  0
  5 29  2  0
 29  2  1  0
 17  6  1  0
 26 22  2  0
 28  6  1  0
 15 10  1  0
  1 30  1  0
  1 31  1  0
  1 32  1  0
  4 33  1  0
  7 34  1  0
  7 35  1  0
  9 36  1  0
  9 37  1  0
 11 38  1  0
 12 39  1  0
 13 40  1  0
 14 41  1  0
 15 42  1  0
 16 43  1  0
 16 44  1  0
 17 45  1  6
 18 46  1  0
 18 47  1  0
 24 48  1  0
 27 49  1  0
 27 50  1  0
 27 51  1  0
 28 52  1  0
 28 53  1  0
M  END
$$$$
