
     RDKit          3D

 44 46  0  0  0  0  0  0  0  0999 V2000
   -0.7731   -2.1938    0.8588 C   0  0  0  0  0  0  0  0  0  0  0  0
   -0.8694   -0.9859    1.6028 O   0  0  0  0  0  0  0  0  0  0  0  0
   -2.0449   -0.2956    1.5914 C   0  0  0  0  0  0  0  0  0  0  0  0
   -3.1849   -0.7202    0.8934 C   0  0  0  0  0  0  0  0  0  0  0  0
   -4.3661    0.0357    0.9129 C   0  0  0  0  0  0  0  0  0  0  0  0
   -5.5184   -0.4165    0.1886 C   0  0  0  0  0  0  0  0  0  0  0  0
   -6.4464   -0.7805   -0.4049 N   0  0  0  0  0  0  0  0  0  0  0  0
   -4.4192    1.2274    1.6363 C   0  0  0  0  0  0  0  0  0  0  0  0
   -3.2938    1.6634    2.3344 C   0  0  0  0  0  0  0  0  0  0  0  0
   -2.1063    0.9112    2.3052 C   0  0  0  0  0  0  0  0  0  0  0  0
   -0.7206    1.5342    3.2491 S   0  0  0  0  0  6  0  0  0  0  0  0
    0.1025    0.4409    3.7145 O   0  0  0  0  0  0  0  0  0  0  0  0
   -1.2584    2.4917    4.1976 O   0  0  0  0  0  0  0  0  0  0  0  0
    0.1325    2.4701    2.1297 N   0  0  0  0  0  0  0  0  0  0  0  0
    0.6099    1.8845    0.9287 C   0  0  0  0  0  0  0  0  0  0  0  0
    0.0803    2.3062   -0.2875 C   0  0  0  0  0  0  0  0  0  0  0  0
    0.5053    1.7103   -1.4796 C   0  0  0  0  0  0  0  0  0  0  0  0
    1.4650    0.6868   -1.4680 C   0  0  0  0  0  0  0  0  0  0  0  0
    2.0000    0.2800   -0.2362 C   0  0  0  0  0  0  0  0  0  0  0  0
    1.5755    0.8822    0.9559 C   0  0  0  0  0  0  0  0  0  0  0  0
    2.9961   -0.7838   -0.1926 C   0  0  0  0  0  0  0  0  0  0  0  0
    3.4071   -1.3851   -1.3168 C   0  0  0  0  0  0  0  0  0  0  0  0
    4.4263   -2.4820   -1.3271 C   0  0  0  0  0  0  0  0  0  0  0  0
    2.8541   -0.9786   -2.6461 C   0  0  0  0  0  0  0  0  0  0  0  0
    3.2468   -1.5576   -3.6587 O   0  0  0  0  0  0  0  0  0  0  0  0
    1.9090    0.0448   -2.6628 N   0  0  0  0  0  0  0  0  0  0  0  0
    1.3685    0.4562   -3.9491 C   0  0  0  0  0  0  0  0  0  0  0  0
    0.2387   -2.5885    0.9919 H   0  0  0  0  0  0  0  0  0  0  0  0
   -0.9209   -2.0097   -0.2103 H   0  0  0  0  0  0  0  0  0  0  0  0
   -1.4756   -2.9448    1.2341 H   0  0  0  0  0  0  0  0  0  0  0  0
   -3.1812   -1.6459    0.3230 H   0  0  0  0  0  0  0  0  0  0  0  0
   -5.3335    1.8183    1.6675 H   0  0  0  0  0  0  0  0  0  0  0  0
   -3.3539    2.5888    2.9056 H   0  0  0  0  0  0  0  0  0  0  0  0
   -0.1837    3.4376    2.1115 H   0  0  0  0  0  0  0  0  0  0  0  0
   -0.6722    3.0889   -0.3257 H   0  0  0  0  0  0  0  0  0  0  0  0
    0.0632    2.0645   -2.4058 H   0  0  0  0  0  0  0  0  0  0  0  0
    1.9896    0.5598    1.9088 H   0  0  0  0  0  0  0  0  0  0  0  0
    3.3925   -1.0745    0.7754 H   0  0  0  0  0  0  0  0  0  0  0  0
    4.7815   -2.7181   -0.3182 H   0  0  0  0  0  0  0  0  0  0  0  0
    4.0009   -3.3979   -1.7501 H   0  0  0  0  0  0  0  0  0  0  0  0
    5.2971   -2.1919   -1.9242 H   0  0  0  0  0  0  0  0  0  0  0  0
    0.2863    0.2914   -3.9578 H   0  0  0  0  0  0  0  0  0  0  0  0
    1.5945    1.5139   -4.1172 H   0  0  0  0  0  0  0  0  0  0  0  0
    1.7992   -0.1123   -4.7781 H   0  0  0  0  0  0  0  0  0  0  0  0
  1  2  1  0
  2  3  1  0
  3  4  2  0
  4  5  1  0
  5  6  1  0
  6  7  3  0
  5  8  2  0
  8  9  1  0
  9 10  2  0
 10 11  1  0
 11 12  2  0
 11 13  2  0
 11 14  1  0
 14 15  1  0
 15 16  2  0
 16 17  1  0
 17 18  2  0
 18 19  1  0
 19 20  2  0
 19 21  1  0
 21 22  2  0
 22 23  1  0
 22 24  1  0
 24 25  2  0
 24 26  1  0
 26 27  1  0
 10  3  1  0
 20 15  1  0
 26 18  1  0
  1 28  1  0
  1 29  1  0
  1 30  1  0
  4 31  1  0
  8 32  1  0
  9 33  1  0
 14 34  1  0
 16 35  1  0
 17 36  1  0
 20 37  1  0
 21 38  1  0
 23 39  1  0
 23 40  1  0
 23 41  1  0
 27 42  1  0
 27 43  1  0
 27 44  1  0
M  END
$$$$
