
     RDKit          3D

 39 41  0  0  0  0  0  0  0  0999 V2000
   -1.8716    1.5401    0.1414 C   0  0  0  0  0  0  0  0  0  0  0  0
   -0.8064    0.5097    0.5671 C   0  0  1  0  0  0  0  0  0  0  0  0
   -1.5565   -0.7572    0.9437 C   0  0  0  0  0  0  0  0  0  0  0  0
   -2.0364   -1.5225   -0.0727 N   0  0  0  0  0  0  0  0  0  0  0  0
   -2.7105   -2.6343    0.2892 C   0  0  0  0  0  0  0  0  0  0  0  0
   -2.9678   -3.0298    1.5465 N   0  0  0  0  0  0  0  0  0  0  0  0
   -2.4812   -2.2310    2.5196 C   0  0  0  0  0  0  0  0  0  0  0  0
   -1.7714   -1.0802    2.2713 C   0  0  0  0  0  0  0  0  0  0  0  0
   -1.3247   -0.3114    3.2719 F   0  0  0  0  0  0  0  0  0  0  0  0
    0.3020    0.3016   -0.5389 C   0  0  2  0  0  0  0  0  0  0  0  0
   -0.2975   -0.2172   -1.7352 O   0  0  0  0  0  0  0  0  0  0  0  0
    1.4640   -0.6493   -0.1331 C   0  0  0  0  0  0  0  0  0  0  0  0
    1.1257   -2.0368    0.0746 N   0  0  0  0  0  0  0  0  0  0  0  0
    0.9291   -2.9989   -0.8667 C   0  0  0  0  0  0  0  0  0  0  0  0
    0.7220   -4.1530   -0.2758 N   0  0  0  0  0  0  0  0  0  0  0  0
    0.8330   -3.8435    1.0498 C   0  0  0  0  0  0  0  0  0  0  0  0
    1.0951   -2.5598    1.3165 N   0  0  0  0  0  0  0  0  0  0  0  0
    0.9824    1.6581   -0.8690 C   0  0  0  0  0  0  0  0  0  0  0  0
    1.5846    2.4159    0.1629 C   0  0  0  0  0  0  0  0  0  0  0  0
    2.2076    3.6382   -0.1046 C   0  0  0  0  0  0  0  0  0  0  0  0
    2.2450    4.1198   -1.4049 C   0  0  0  0  0  0  0  0  0  0  0  0
    2.8434    5.2904   -1.6583 F   0  0  0  0  0  0  0  0  0  0  0  0
    1.6764    3.4016   -2.4424 C   0  0  0  0  0  0  0  0  0  0  0  0
    1.0559    2.1830   -2.1733 C   0  0  0  0  0  0  0  0  0  0  0  0
    0.5395    1.5284   -3.2215 F   0  0  0  0  0  0  0  0  0  0  0  0
   -2.6372    1.6553    0.9180 H   0  0  0  0  0  0  0  0  0  0  0  0
   -1.4356    2.5300   -0.0229 H   0  0  0  0  0  0  0  0  0  0  0  0
   -2.3828    1.2398   -0.7802 H   0  0  0  0  0  0  0  0  0  0  0  0
   -0.3209    0.8926    1.4732 H   0  0  0  0  0  0  0  0  0  0  0  0
   -3.0796   -3.2689   -0.5102 H   0  0  0  0  0  0  0  0  0  0  0  0
   -2.6842   -2.5484    3.5367 H   0  0  0  0  0  0  0  0  0  0  0  0
   -1.0531   -0.7861   -1.4721 H   0  0  0  0  0  0  0  0  0  0  0  0
    2.2296   -0.6581   -0.9220 H   0  0  0  0  0  0  0  0  0  0  0  0
    1.9594   -0.2999    0.7816 H   0  0  0  0  0  0  0  0  0  0  0  0
    0.9418   -2.8073   -1.9312 H   0  0  0  0  0  0  0  0  0  0  0  0
    0.7209   -4.5740    1.8407 H   0  0  0  0  0  0  0  0  0  0  0  0
    1.5809    2.0670    1.1942 H   0  0  0  0  0  0  0  0  0  0  0  0
    2.6648    4.2158    0.6937 H   0  0  0  0  0  0  0  0  0  0  0  0
    1.7144    3.7802   -3.4575 H   0  0  0  0  0  0  0  0  0  0  0  0
  1  2  1  0
  2  3  1  0
  3  4  2  0
  4  5  1  0
  5  6  2  0
  6  7  1  0
  7  8  2  0
  8  9  1  0
  2 10  1  0
 10 11  1  6
 10 12  1  0
 12 13  1  0
 13 14  1  0
 14 15  2  0
 15 16  1  0
 16 17  2  0
 10 18  1  0
 18 19  2  0
 19 20  1  0
 20 21  2  0
 21 22  1  0
 21 23  1  0
 23 24  2  0
 24 25  1  0
  8  3  1  0
 17 13  1  0
 24 18  1  0
  1 26  1  0
  1 27  1  0
  1 28  1  0
  2 29  1  1
  5 30  1  0
  7 31  1  0
 11 32  1  0
 12 33  1  0
 12 34  1  0
 14 35  1  0
 16 36  1  0
 19 37  1  0
 20 38  1  0
 23 39  1  0
M  END
$$$$
