
     RDKit          3D

 43 45  0  0  0  0  0  0  0  0999 V2000
    6.8458   -2.5744    0.4040 C   0  0  0  0  0  0  0  0  0  0  0  0
    5.4954   -1.9376    0.2534 C   0  0  0  0  0  0  0  0  0  0  0  0
    4.8852   -1.2837    1.3310 C   0  0  0  0  0  0  0  0  0  0  0  0
    3.6166   -0.7144    1.1886 C   0  0  0  0  0  0  0  0  0  0  0  0
    2.9491   -0.7925   -0.0397 C   0  0  0  0  0  0  0  0  0  0  0  0
    1.5954   -0.2033   -0.2351 C   0  0  0  0  0  0  0  0  0  0  0  0
    0.7943   -0.8089   -0.9362 O   0  0  0  0  0  0  0  0  0  0  0  0
    1.3921    1.0071    0.4028 N   0  0  0  0  0  0  0  0  0  0  0  0
    0.2085    1.7762    0.4245 C   0  0  0  0  0  0  0  0  0  0  0  0
    0.2287    2.9567    1.1814 C   0  0  0  0  0  0  0  0  0  0  0  0
   -0.8996    3.7765    1.2610 C   0  0  0  0  0  0  0  0  0  0  0  0
   -2.0664    3.4153    0.5930 C   0  0  0  0  0  0  0  0  0  0  0  0
   -2.1027    2.2311   -0.1494 C   0  0  0  0  0  0  0  0  0  0  0  0
   -3.3557    1.8904   -0.8648 C   0  0  0  0  0  0  0  0  0  0  0  0
   -3.9126    2.7761   -1.5103 O   0  0  0  0  0  0  0  0  0  0  0  0
   -3.8689    0.6116   -0.7512 N   0  0  0  0  0  0  0  0  0  0  0  0
   -5.1002    0.2542   -1.4327 C   0  0  0  0  0  0  0  0  0  0  0  0
   -5.2914   -1.2225   -1.1258 C   0  0  0  0  0  0  0  0  0  0  0  0
   -4.6709   -1.3589    0.2587 C   0  0  0  0  0  0  0  0  0  0  0  0
   -3.4636   -0.4332    0.1814 C   0  0  0  0  0  0  0  0  0  0  0  0
   -0.9603    1.4273   -0.2540 C   0  0  0  0  0  0  0  0  0  0  0  0
    3.5441   -1.4656   -1.1114 C   0  0  0  0  0  0  0  0  0  0  0  0
    4.8122   -2.0319   -0.9656 C   0  0  0  0  0  0  0  0  0  0  0  0
    6.7476   -3.6644    0.4032 H   0  0  0  0  0  0  0  0  0  0  0  0
    7.3275   -2.2739    1.3402 H   0  0  0  0  0  0  0  0  0  0  0  0
    7.5028   -2.2717   -0.4179 H   0  0  0  0  0  0  0  0  0  0  0  0
    5.3899   -1.2248    2.2932 H   0  0  0  0  0  0  0  0  0  0  0  0
    3.1531   -0.2435    2.0506 H   0  0  0  0  0  0  0  0  0  0  0  0
    2.1850    1.4104    0.8839 H   0  0  0  0  0  0  0  0  0  0  0  0
    1.1259    3.2602    1.7150 H   0  0  0  0  0  0  0  0  0  0  0  0
   -0.8672    4.6967    1.8386 H   0  0  0  0  0  0  0  0  0  0  0  0
   -2.9452    4.0544    0.6421 H   0  0  0  0  0  0  0  0  0  0  0  0
   -5.9112    0.8608   -1.0123 H   0  0  0  0  0  0  0  0  0  0  0  0
   -5.0248    0.4648   -2.5033 H   0  0  0  0  0  0  0  0  0  0  0  0
   -6.3398   -1.5290   -1.1563 H   0  0  0  0  0  0  0  0  0  0  0  0
   -4.7317   -1.8319   -1.8454 H   0  0  0  0  0  0  0  0  0  0  0  0
   -5.3746   -0.9942    1.0169 H   0  0  0  0  0  0  0  0  0  0  0  0
   -4.3976   -2.3875    0.5072 H   0  0  0  0  0  0  0  0  0  0  0  0
   -2.6068   -0.9611   -0.2488 H   0  0  0  0  0  0  0  0  0  0  0  0
   -3.1906   -0.0165    1.1552 H   0  0  0  0  0  0  0  0  0  0  0  0
   -1.0007    0.5527   -0.8937 H   0  0  0  0  0  0  0  0  0  0  0  0
    3.0211   -1.5493   -2.0624 H   0  0  0  0  0  0  0  0  0  0  0  0
    5.2622   -2.5518   -1.8094 H   0  0  0  0  0  0  0  0  0  0  0  0
  1  2  1  0
  2  3  2  0
  3  4  1  0
  4  5  2  0
  5  6  1  0
  6  7  2  0
  6  8  1  0
  8  9  1  0
  9 10  2  0
 10 11  1  0
 11 12  2  0
 12 13  1  0
 13 14  1  0
 14 15  2  0
 14 16  1  0
 16 17  1  0
 17 18  1  0
 18 19  1  0
 19 20  1  0
 13 21  2  0
  5 22  1  0
 22 23  2  0
 23  2  1  0
 21  9  1  0
 20 16  1  0
  1 24  1  0
  1 25  1  0
  1 26  1  0
  3 27  1  0
  4 28  1  0
  8 29  1  0
 10 30  1  0
 11 31  1  0
 12 32  1  0
 17 33  1  0
 17 34  1  0
 18 35  1  0
 18 36  1  0
 19 37  1  0
 19 38  1  0
 20 39  1  0
 20 40  1  0
 21 41  1  0
 22 42  1  0
 23 43  1  0
M  END
$$$$
