
     RDKit          3D

 21 23  0  0  0  0  0  0  0  0999 V2000
   -3.5356   -0.8406   -0.4276 C   0  0  0  0  0  0  0  0  0  0  0  0
   -3.5737    0.4566    0.0907 C   0  0  0  0  0  0  0  0  0  0  0  0
   -2.3994    1.1803    0.3301 C   0  0  0  0  0  0  0  0  0  0  0  0
   -1.1972    0.5394    0.0250 C   0  0  0  0  0  0  0  0  0  0  0  0
    0.1117    0.9293    0.1260 N   0  0  0  0  0  0  0  0  0  0  0  0
    0.9000   -0.0988   -0.3162 C   0  0  0  0  0  0  0  0  0  0  0  0
    2.4520   -0.0110   -0.3457 C   0  0  0  0  0  0  0  0  0  0  0  0
    3.2495   -1.0435   -0.7900 C   0  0  0  0  0  0  0  0  0  0  0  0
    4.8975   -0.5852   -0.6759 S   0  0  0  0  0  0  0  0  0  0  0  0
    4.4087    0.9369   -0.0493 C   0  0  0  0  0  0  0  0  0  0  0  0
    3.1134    1.1285    0.0807 N   0  0  0  0  0  0  0  0  0  0  0  0
    0.1780   -1.1316   -0.6976 N   0  0  0  0  0  0  0  0  0  0  0  0
   -1.1268   -0.7509   -0.4919 C   0  0  0  0  0  0  0  0  0  0  0  0
   -2.3144   -1.4595   -0.7248 C   0  0  0  0  0  0  0  0  0  0  0  0
   -4.4639   -1.3790   -0.6035 H   0  0  0  0  0  0  0  0  0  0  0  0
   -4.5359    0.9141    0.3128 H   0  0  0  0  0  0  0  0  0  0  0  0
   -2.4298    2.1869    0.7323 H   0  0  0  0  0  0  0  0  0  0  0  0
    0.4639    1.8132    0.4634 H   0  0  0  0  0  0  0  0  0  0  0  0
    2.9445   -2.0113   -1.1628 H   0  0  0  0  0  0  0  0  0  0  0  0
    5.1356    1.6919    0.2212 H   0  0  0  0  0  0  0  0  0  0  0  0
   -2.2779   -2.4656   -1.1270 H   0  0  0  0  0  0  0  0  0  0  0  0
  1  2  2  0
  2  3  1  0
  3  4  2  0
  4  5  1  0
  5  6  1  0
  6  7  1  0
  7  8  2  0
  8  9  1  0
  9 10  1  0
 10 11  2  0
  6 12  2  0
 12 13  1  0
 13 14  2  0
 14  1  1  0
 13  4  1  0
 11  7  1  0
  1 15  1  0
  2 16  1  0
  3 17  1  0
  5 18  1  0
  8 19  1  0
 10 20  1  0
 14 21  1  0
M  END
$$$$
