
     RDKit          3D

 43 44  0  0  0  0  0  0  0  0999 V2000
   -1.4529   -2.1747    0.3566 O   0  0  0  0  0  0  0  0  0  0  0  0
   -1.0712   -1.0484    0.6371 C   0  0  0  0  0  0  0  0  0  0  0  0
    0.2387   -0.7038    0.8719 N   0  0  0  0  0  0  0  0  0  0  0  0
    1.2524   -1.7400    0.8911 C   0  0  0  0  0  0  0  0  0  0  0  0
    2.6626   -1.1629    0.8397 C   0  0  0  0  0  0  0  0  0  0  0  0
    2.9650   -0.5033   -0.5086 C   0  0  0  0  0  0  0  0  0  0  0  0
    4.3769    0.0266   -0.5597 C   0  0  0  0  0  0  0  0  0  0  0  0
    4.6624    1.3313   -0.1360 C   0  0  0  0  0  0  0  0  0  0  0  0
    5.9718    1.8141   -0.1665 C   0  0  0  0  0  0  0  0  0  0  0  0
    7.0070    0.9966   -0.6162 C   0  0  0  0  0  0  0  0  0  0  0  0
    6.7345   -0.3045   -1.0344 C   0  0  0  0  0  0  0  0  0  0  0  0
    5.4259   -0.7890   -1.0046 C   0  0  0  0  0  0  0  0  0  0  0  0
   -1.8887    0.0482    0.7632 N   0  0  0  0  0  0  0  0  0  0  0  0
   -3.3111   -0.0492    0.4649 C   0  0  0  0  0  0  0  0  0  0  0  0
   -4.0699    1.1134    1.1055 C   0  0  0  0  0  0  0  0  0  0  0  0
   -5.5818    0.9882    0.9053 C   0  0  0  0  0  0  0  0  0  0  0  0
   -5.9705    0.2556   -0.3798 C   0  0  0  0  0  0  0  0  0  0  0  0
   -4.9269    0.4385   -1.4725 C   0  0  0  0  0  0  0  0  0  0  0  0
   -3.5592   -0.1070   -1.0538 C   0  0  0  0  0  0  0  0  0  0  0  0
    0.3302    0.0196    1.5707 H   0  0  0  0  0  0  0  0  0  0  0  0
    1.0837   -2.4286    0.0551 H   0  0  0  0  0  0  0  0  0  0  0  0
    1.1153   -2.3078    1.8186 H   0  0  0  0  0  0  0  0  0  0  0  0
    3.3790   -1.9746    1.0187 H   0  0  0  0  0  0  0  0  0  0  0  0
    2.7981   -0.4371    1.6517 H   0  0  0  0  0  0  0  0  0  0  0  0
    2.2652    0.3192   -0.7020 H   0  0  0  0  0  0  0  0  0  0  0  0
    2.8173   -1.2229   -1.3239 H   0  0  0  0  0  0  0  0  0  0  0  0
    3.8655    1.9800    0.2197 H   0  0  0  0  0  0  0  0  0  0  0  0
    6.1843    2.8282    0.1610 H   0  0  0  0  0  0  0  0  0  0  0  0
    8.0262    1.3730   -0.6400 H   0  0  0  0  0  0  0  0  0  0  0  0
    7.5415   -0.9432   -1.3836 H   0  0  0  0  0  0  0  0  0  0  0  0
    5.2290   -1.8076   -1.3314 H   0  0  0  0  0  0  0  0  0  0  0  0
   -1.4376    0.9199    0.5267 H   0  0  0  0  0  0  0  0  0  0  0  0
   -3.6727   -0.9853    0.9116 H   0  0  0  0  0  0  0  0  0  0  0  0
   -3.8484    1.1784    2.1779 H   0  0  0  0  0  0  0  0  0  0  0  0
   -3.7235    2.0600    0.6690 H   0  0  0  0  0  0  0  0  0  0  0  0
   -6.0267    0.4608    1.7579 H   0  0  0  0  0  0  0  0  0  0  0  0
   -6.0200    1.9936    0.9067 H   0  0  0  0  0  0  0  0  0  0  0  0
   -6.9484    0.6109   -0.7240 H   0  0  0  0  0  0  0  0  0  0  0  0
   -6.0848   -0.8150   -0.1678 H   0  0  0  0  0  0  0  0  0  0  0  0
   -4.8351    1.5068   -1.7060 H   0  0  0  0  0  0  0  0  0  0  0  0
   -5.2522   -0.0551   -2.3953 H   0  0  0  0  0  0  0  0  0  0  0  0
   -2.7839    0.4468   -1.5988 H   0  0  0  0  0  0  0  0  0  0  0  0
   -3.4670   -1.1495   -1.3846 H   0  0  0  0  0  0  0  0  0  0  0  0
  1  2  2  0
  2  3  1  0
  3  4  1  0
  4  5  1  0
  5  6  1  0
  6  7  1  0
  7  8  2  0
  8  9  1  0
  9 10  2  0
 10 11  1  0
 11 12  2  0
  2 13  1  0
 13 14  1  0
 14 15  1  0
 15 16  1  0
 16 17  1  0
 17 18  1  0
 18 19  1  0
 12  7  1  0
 19 14  1  0
  3 20  1  0
  4 21  1  0
  4 22  1  0
  5 23  1  0
  5 24  1  0
  6 25  1  0
  6 26  1  0
  8 27  1  0
  9 28  1  0
 10 29  1  0
 11 30  1  0
 12 31  1  0
 13 32  1  0
 14 33  1  0
 15 34  1  0
 15 35  1  0
 16 36  1  0
 16 37  1  0
 17 38  1  0
 17 39  1  0
 18 40  1  0
 18 41  1  0
 19 42  1  0
 19 43  1  0
M  END
$$$$
