
     RDKit          3D

 48 50  0  0  0  0  0  0  0  0999 V2000
   -3.7918   -1.6687    1.4988 C   0  0  0  0  0  0  0  0  0  0  0  0
   -4.1815   -0.3234    2.0958 C   0  0  0  0  0  0  0  0  0  0  0  0
   -3.5773    0.8292    1.3438 C   0  0  0  0  0  0  0  0  0  0  0  0
   -4.2332    1.4722    0.2993 C   0  0  0  0  0  0  0  0  0  0  0  0
   -5.6039    1.0655   -0.1606 C   0  0  0  0  0  0  0  0  0  0  0  0
   -3.6868    2.5090   -0.3729 N   0  0  0  0  0  0  0  0  0  0  0  0
   -2.4686    2.9100    0.0072 C   0  0  0  0  0  0  0  0  0  0  0  0
   -1.6702    4.1737   -0.9443 S   0  0  0  0  0  0  0  0  0  0  0  0
   -1.9262    3.4643   -2.5973 C   0  0  0  0  0  0  0  0  0  0  0  0
   -1.4353    2.0271   -2.7477 C   0  0  0  0  0  0  0  0  0  0  0  0
   -2.0382    1.2595   -3.4957 O   0  0  0  0  0  0  0  0  0  0  0  0
   -0.2750    1.7485   -2.0612 N   0  0  0  0  0  0  0  0  0  0  0  0
    0.4018    0.5580   -2.0150 C   0  0  0  0  0  0  0  0  0  0  0  0
    1.4401    0.4032   -1.2294 N   0  0  0  0  0  0  0  0  0  0  0  0
    1.9477   -0.8852   -1.3474 C   0  0  0  0  0  0  0  0  0  0  0  0
    3.1010   -1.3130   -0.5562 C   0  0  0  0  0  0  0  0  0  0  0  0
    3.8499   -0.3542    0.1425 C   0  0  0  0  0  0  0  0  0  0  0  0
    4.9608   -0.7197    0.9135 C   0  0  0  0  0  0  0  0  0  0  0  0
    5.3410   -2.0564    1.0015 C   0  0  0  0  0  0  0  0  0  0  0  0
    6.3974   -2.5493    1.7150 O   0  0  0  0  0  0  0  0  0  0  0  0
    7.2035   -1.6020    2.4043 C   0  0  0  0  0  0  0  0  0  0  0  0
    4.5986   -3.0187    0.3165 C   0  0  0  0  0  0  0  0  0  0  0  0
    3.4887   -2.6550   -0.4553 C   0  0  0  0  0  0  0  0  0  0  0  0
    1.2803   -1.6728   -2.2678 C   0  0  0  0  0  0  0  0  0  0  0  0
   -0.0150   -0.7917   -2.9644 S   0  0  0  0  0  0  0  0  0  0  0  0
   -1.7489    2.3618    0.9842 N   0  0  0  0  0  0  0  0  0  0  0  0
   -2.3169    1.3340    1.6232 C   0  0  0  0  0  0  0  0  0  0  0  0
   -1.5180    0.8131    2.5990 O   0  0  0  0  0  0  0  0  0  0  0  0
   -4.2443   -2.4810    2.0756 H   0  0  0  0  0  0  0  0  0  0  0  0
   -4.1335   -1.7603    0.4641 H   0  0  0  0  0  0  0  0  0  0  0  0
   -2.7063   -1.8163    1.5059 H   0  0  0  0  0  0  0  0  0  0  0  0
   -5.2737   -0.2376    2.1198 H   0  0  0  0  0  0  0  0  0  0  0  0
   -3.8777   -0.2830    3.1488 H   0  0  0  0  0  0  0  0  0  0  0  0
   -5.6191    0.0107   -0.4483 H   0  0  0  0  0  0  0  0  0  0  0  0
   -6.3388    1.2413    0.6309 H   0  0  0  0  0  0  0  0  0  0  0  0
   -5.9093    1.6496   -1.0356 H   0  0  0  0  0  0  0  0  0  0  0  0
   -2.9931    3.5014   -2.8414 H   0  0  0  0  0  0  0  0  0  0  0  0
   -1.3914    4.0798   -3.3273 H   0  0  0  0  0  0  0  0  0  0  0  0
    0.0830    2.4341   -1.4051 H   0  0  0  0  0  0  0  0  0  0  0  0
    3.5708    0.6972    0.0925 H   0  0  0  0  0  0  0  0  0  0  0  0
    5.4988    0.0669    1.4321 H   0  0  0  0  0  0  0  0  0  0  0  0
    6.6254   -1.0757    3.1713 H   0  0  0  0  0  0  0  0  0  0  0  0
    7.6706   -0.8975    1.7067 H   0  0  0  0  0  0  0  0  0  0  0  0
    8.0053   -2.1496    2.9097 H   0  0  0  0  0  0  0  0  0  0  0  0
    4.8853   -4.0655    0.3848 H   0  0  0  0  0  0  0  0  0  0  0  0
    2.9392   -3.4449   -0.9590 H   0  0  0  0  0  0  0  0  0  0  0  0
    1.4702   -2.6905   -2.5731 H   0  0  0  0  0  0  0  0  0  0  0  0
   -1.7854   -0.0982    2.7755 H   0  0  0  0  0  0  0  0  0  0  0  0
  1  2  1  0
  2  3  1  0
  3  4  2  0
  4  5  1  0
  4  6  1  0
  6  7  2  0
  7  8  1  0
  8  9  1  0
  9 10  1  0
 10 11  2  0
 10 12  1  0
 12 13  1  0
 13 14  2  0
 14 15  1  0
 15 16  1  0
 16 17  2  0
 17 18  1  0
 18 19  2  0
 19 20  1  0
 20 21  1  0
 19 22  1  0
 22 23  2  0
 15 24  2  0
 24 25  1  0
  7 26  1  0
 26 27  2  0
 27 28  1  0
 27  3  1  0
 25 13  1  0
 23 16  1  0
  1 29  1  0
  1 30  1  0
  1 31  1  0
  2 32  1  0
  2 33  1  0
  5 34  1  0
  5 35  1  0
  5 36  1  0
  9 37  1  0
  9 38  1  0
 12 39  1  0
 17 40  1  0
 18 41  1  0
 21 42  1  0
 21 43  1  0
 21 44  1  0
 22 45  1  0
 23 46  1  0
 24 47  1  0
 28 48  1  0
M  END
$$$$
