
     RDKit          3D

 54 56  0  0  0  0  0  0  0  0999 V2000
    8.2752   -1.2427   -2.6649 C   0  0  0  0  0  0  0  0  0  0  0  0
    7.8958   -1.0559   -1.3074 O   0  0  0  0  0  0  0  0  0  0  0  0
    6.6342   -0.5784   -1.0805 C   0  0  0  0  0  0  0  0  0  0  0  0
    6.2843   -0.4701    0.2669 C   0  0  0  0  0  0  0  0  0  0  0  0
    5.0244    0.0029    0.6427 C   0  0  0  0  0  0  0  0  0  0  0  0
    4.0939    0.3848   -0.3306 C   0  0  0  0  0  0  0  0  0  0  0  0
    2.7316    0.9029    0.0670 C   0  0  0  0  0  0  0  0  0  0  0  0
    1.5988   -0.1078   -0.0802 C   0  0  0  0  0  0  0  0  0  0  0  0
    1.7017   -1.1445   -0.7351 O   0  0  0  0  0  0  0  0  0  0  0  0
    0.4114    0.2179    0.5477 N   0  0  0  0  0  0  0  0  0  0  0  0
    0.1214    1.4109    1.3280 C   0  0  0  0  0  0  0  0  0  0  0  0
   -1.3928    1.4064    1.4959 C   0  0  0  0  0  0  0  0  0  0  0  0
   -1.7284   -0.0916    1.5060 C   0  0  0  0  0  0  0  0  0  0  0  0
   -3.1487   -0.4060    1.2660 N   0  0  0  0  0  0  0  0  0  0  0  0
   -3.9426   -1.1061    2.1788 C   0  0  0  0  0  0  0  0  0  0  0  0
   -3.2997   -1.5847    3.4565 C   0  0  0  0  0  0  0  0  0  0  0  0
   -5.1357   -1.3417    1.9828 O   0  0  0  0  0  0  0  0  0  0  0  0
   -3.7604    0.0321   -0.0134 C   0  0  0  0  0  0  0  0  0  0  0  0
   -4.8770    1.0739    0.1796 C   0  0  0  0  0  0  0  0  0  0  0  0
   -5.9046    0.9994   -0.9421 C   0  0  0  0  0  0  0  0  0  0  0  0
   -5.2450    0.7174   -2.1728 O   0  0  0  0  0  0  0  0  0  0  0  0
   -4.7483   -0.6219   -2.2319 C   0  0  0  0  0  0  0  0  0  0  0  0
   -4.2255   -1.1356   -0.8911 C   0  0  0  0  0  0  0  0  0  0  0  0
   -0.7374   -0.6746    0.4869 C   0  0  0  0  0  0  0  0  0  0  0  0
    4.4472    0.2712   -1.6818 C   0  0  0  0  0  0  0  0  0  0  0  0
    5.7089   -0.2066   -2.0548 C   0  0  0  0  0  0  0  0  0  0  0  0
    7.6220   -1.9671   -3.1623 H   0  0  0  0  0  0  0  0  0  0  0  0
    8.2934   -0.2897   -3.2039 H   0  0  0  0  0  0  0  0  0  0  0  0
    9.2910   -1.6494   -2.6748 H   0  0  0  0  0  0  0  0  0  0  0  0
    6.9992   -0.7628    1.0318 H   0  0  0  0  0  0  0  0  0  0  0  0
    4.7809    0.0670    1.7002 H   0  0  0  0  0  0  0  0  0  0  0  0
    2.4906    1.7793   -0.5473 H   0  0  0  0  0  0  0  0  0  0  0  0
    2.7770    1.2436    1.1081 H   0  0  0  0  0  0  0  0  0  0  0  0
    0.4860    2.3104    0.8246 H   0  0  0  0  0  0  0  0  0  0  0  0
    0.6273    1.3103    2.2944 H   0  0  0  0  0  0  0  0  0  0  0  0
   -1.8534    1.9251    0.6490 H   0  0  0  0  0  0  0  0  0  0  0  0
   -1.7142    1.9163    2.4091 H   0  0  0  0  0  0  0  0  0  0  0  0
   -1.4235   -0.4649    2.4878 H   0  0  0  0  0  0  0  0  0  0  0  0
   -2.9641   -0.7332    4.0542 H   0  0  0  0  0  0  0  0  0  0  0  0
   -4.0373   -2.1395    4.0452 H   0  0  0  0  0  0  0  0  0  0  0  0
   -2.4713   -2.2628    3.2352 H   0  0  0  0  0  0  0  0  0  0  0  0
   -2.9747    0.5341   -0.5914 H   0  0  0  0  0  0  0  0  0  0  0  0
   -4.4116    2.0683    0.1783 H   0  0  0  0  0  0  0  0  0  0  0  0
   -5.3884    0.9930    1.1439 H   0  0  0  0  0  0  0  0  0  0  0  0
   -6.6661    0.2353   -0.7443 H   0  0  0  0  0  0  0  0  0  0  0  0
   -6.4222    1.9592   -1.0399 H   0  0  0  0  0  0  0  0  0  0  0  0
   -3.9422   -0.6271   -2.9732 H   0  0  0  0  0  0  0  0  0  0  0  0
   -5.5396   -1.2776   -2.6118 H   0  0  0  0  0  0  0  0  0  0  0  0
   -3.4208   -1.8620   -1.0542 H   0  0  0  0  0  0  0  0  0  0  0  0
   -5.0324   -1.6913   -0.4009 H   0  0  0  0  0  0  0  0  0  0  0  0
   -1.1098   -0.6681   -0.5420 H   0  0  0  0  0  0  0  0  0  0  0  0
   -0.4440   -1.6995    0.7374 H   0  0  0  0  0  0  0  0  0  0  0  0
    3.7339    0.5409   -2.4579 H   0  0  0  0  0  0  0  0  0  0  0  0
    5.9314   -0.2800   -3.1137 H   0  0  0  0  0  0  0  0  0  0  0  0
  1  2  1  0
  2  3  1  0
  3  4  2  0
  4  5  1  0
  5  6  2  0
  6  7  1  0
  7  8  1  0
  8  9  2  0
  8 10  1  0
 10 11  1  0
 11 12  1  0
 12 13  1  0
 13 14  1  0
 14 15  1  0
 15 16  1  0
 15 17  2  0
 14 18  1  0
 18 19  1  0
 19 20  1  0
 20 21  1  0
 21 22  1  0
 22 23  1  0
 13 24  1  0
  6 25  1  0
 25 26  2  0
 26  3  1  0
 24 10  1  0
 23 18  1  0
  1 27  1  0
  1 28  1  0
  1 29  1  0
  4 30  1  0
  5 31  1  0
  7 32  1  0
  7 33  1  0
 11 34  1  0
 11 35  1  0
 12 36  1  0
 12 37  1  0
 13 38  1  0
 16 39  1  0
 16 40  1  0
 16 41  1  0
 18 42  1  0
 19 43  1  0
 19 44  1  0
 20 45  1  0
 20 46  1  0
 22 47  1  0
 22 48  1  0
 23 49  1  0
 23 50  1  0
 24 51  1  0
 24 52  1  0
 25 53  1  0
 26 54  1  0
M  END
$$$$
