
     RDKit          3D

 37 38  0  0  0  0  0  0  0  0999 V2000
    4.2470   -0.7160   -3.3304 N   0  0  0  0  0  0  0  0  0  0  0  0
    3.1879   -1.6874   -2.4619 S   0  0  0  0  0  6  0  0  0  0  0  0
    4.0138   -2.6800   -1.8129 O   0  0  0  0  0  0  0  0  0  0  0  0
    2.1237   -2.0397   -3.3725 O   0  0  0  0  0  0  0  0  0  0  0  0
    2.5577   -0.5614   -1.2532 C   0  0  0  0  0  0  0  0  0  0  0  0
    2.9596   -0.6679    0.0817 C   0  0  0  0  0  0  0  0  0  0  0  0
    2.4251    0.2035    1.0337 C   0  0  0  0  0  0  0  0  0  0  0  0
    1.4918    1.1822    0.6577 C   0  0  0  0  0  0  0  0  0  0  0  0
    0.8735    2.0910    1.6918 C   0  0  0  0  0  0  0  0  0  0  0  0
   -0.4689    1.6553    2.0049 N   0  0  0  0  0  0  0  0  0  0  0  0
   -1.5698    2.2708    1.4444 C   0  0  0  0  0  0  0  0  0  0  0  0
   -1.5131    3.3256    0.8185 O   0  0  0  0  0  0  0  0  0  0  0  0
   -2.8811    1.5406    1.6822 C   0  0  0  0  0  0  0  0  0  0  0  0
   -2.9132    0.1655    1.0558 C   0  0  0  0  0  0  0  0  0  0  0  0
   -3.1736   -0.9715    1.8363 C   0  0  0  0  0  0  0  0  0  0  0  0
   -3.1953   -2.2402    1.2529 C   0  0  0  0  0  0  0  0  0  0  0  0
   -2.9590   -2.3839   -0.1143 C   0  0  0  0  0  0  0  0  0  0  0  0
   -2.7067   -1.2596   -0.9011 C   0  0  0  0  0  0  0  0  0  0  0  0
   -2.6896    0.0093   -0.3208 C   0  0  0  0  0  0  0  0  0  0  0  0
    1.0961    1.2719   -0.6878 C   0  0  0  0  0  0  0  0  0  0  0  0
    1.6211    0.3996   -1.6423 C   0  0  0  0  0  0  0  0  0  0  0  0
    5.2000   -1.0668   -3.2323 H   0  0  0  0  0  0  0  0  0  0  0  0
    3.9335   -0.6390   -4.2978 H   0  0  0  0  0  0  0  0  0  0  0  0
    3.6781   -1.4255    0.3884 H   0  0  0  0  0  0  0  0  0  0  0  0
    2.7355    0.1085    2.0724 H   0  0  0  0  0  0  0  0  0  0  0  0
    1.4478    2.0562    2.6245 H   0  0  0  0  0  0  0  0  0  0  0  0
    0.8831    3.1282    1.3372 H   0  0  0  0  0  0  0  0  0  0  0  0
   -0.5752    0.6881    2.2817 H   0  0  0  0  0  0  0  0  0  0  0  0
   -3.7002    2.1391    1.2658 H   0  0  0  0  0  0  0  0  0  0  0  0
   -3.0437    1.4847    2.7645 H   0  0  0  0  0  0  0  0  0  0  0  0
   -3.3667   -0.8805    2.9036 H   0  0  0  0  0  0  0  0  0  0  0  0
   -3.3960   -3.1174    1.8627 H   0  0  0  0  0  0  0  0  0  0  0  0
   -2.9688   -3.3715   -0.5679 H   0  0  0  0  0  0  0  0  0  0  0  0
   -2.5143   -1.3729   -1.9653 H   0  0  0  0  0  0  0  0  0  0  0  0
   -2.4932    0.8765   -0.9504 H   0  0  0  0  0  0  0  0  0  0  0  0
    0.3603    2.0168   -0.9899 H   0  0  0  0  0  0  0  0  0  0  0  0
    1.2929    0.4677   -2.6771 H   0  0  0  0  0  0  0  0  0  0  0  0
  1  2  1  0
  2  3  2  0
  2  4  2  0
  2  5  1  0
  5  6  2  0
  6  7  1  0
  7  8  2  0
  8  9  1  0
  9 10  1  0
 10 11  1  0
 11 12  2  0
 11 13  1  0
 13 14  1  0
 14 15  2  0
 15 16  1  0
 16 17  2  0
 17 18  1  0
 18 19  2  0
  8 20  1  0
 20 21  2  0
 21  5  1  0
 19 14  1  0
  1 22  1  0
  1 23  1  0
  6 24  1  0
  7 25  1  0
  9 26  1  0
  9 27  1  0
 10 28  1  0
 13 29  1  0
 13 30  1  0
 15 31  1  0
 16 32  1  0
 17 33  1  0
 18 34  1  0
 19 35  1  0
 20 36  1  0
 21 37  1  0
M  END
$$$$
