
     RDKit          3D

 47 49  0  0  0  0  0  0  0  0999 V2000
    4.7100   -3.1157    1.1772 C   0  0  0  0  0  0  0  0  0  0  0  0
    5.3768   -1.8074    0.7808 C   0  0  0  0  0  0  0  0  0  0  0  0
    5.4282   -0.7780    1.9146 C   0  0  0  0  0  0  0  0  0  0  0  0
    4.0656   -0.2884    2.4145 C   0  0  0  0  0  0  0  0  0  0  0  0
    3.3130    0.4774    1.3753 C   0  0  0  0  0  0  0  0  0  0  0  0
    3.7219    1.6059    0.8320 N   0  0  0  0  0  0  0  0  0  0  0  0
    2.8251    2.0900   -0.1031 N   0  0  0  0  0  0  0  0  0  0  0  0
    1.7771    1.3143   -0.2161 C   0  0  0  0  0  0  0  0  0  0  0  0
    0.6668    1.4228   -1.0080 N   0  0  0  0  0  0  0  0  0  0  0  0
    0.4855    2.4767   -1.8736 C   0  0  0  0  0  0  0  0  0  0  0  0
    1.2652    3.4082   -2.0501 O   0  0  0  0  0  0  0  0  0  0  0  0
   -0.8153    2.4363   -2.6726 C   0  0  0  0  0  0  0  0  0  0  0  0
   -0.8936    1.2324   -3.5948 C   0  0  0  0  0  0  0  0  0  0  0  0
   -1.6858    0.2219   -2.8000 C   0  0  0  0  0  0  0  0  0  0  0  0
   -1.7350   -0.9590   -3.1033 O   0  0  0  0  0  0  0  0  0  0  0  0
   -2.2881    0.8875   -1.7206 N   0  0  0  0  0  0  0  0  0  0  0  0
   -3.1465    0.3079   -0.7433 C   0  0  0  0  0  0  0  0  0  0  0  0
   -3.8378    1.1151    0.1737 C   0  0  0  0  0  0  0  0  0  0  0  0
   -4.6724    0.5593    1.1521 C   0  0  0  0  0  0  0  0  0  0  0  0
   -4.8476   -0.8219    1.2335 C   0  0  0  0  0  0  0  0  0  0  0  0
   -5.7171   -1.4263    2.2951 C   0  0  0  0  0  0  0  0  0  0  0  0
   -4.1578   -1.6362    0.3347 C   0  0  0  0  0  0  0  0  0  0  0  0
   -3.3233   -1.0769   -0.6424 C   0  0  0  0  0  0  0  0  0  0  0  0
   -2.0331    2.3115   -1.7828 C   0  0  0  0  0  0  0  0  0  0  0  0
    1.7858   -0.0624    0.7938 S   0  0  0  0  0  0  0  0  0  0  0  0
    3.6460   -2.9781    1.3899 H   0  0  0  0  0  0  0  0  0  0  0  0
    4.7934   -3.8410    0.3613 H   0  0  0  0  0  0  0  0  0  0  0  0
    5.1870   -3.5475    2.0628 H   0  0  0  0  0  0  0  0  0  0  0  0
    4.8704   -1.3885   -0.0957 H   0  0  0  0  0  0  0  0  0  0  0  0
    6.4059   -2.0251    0.4693 H   0  0  0  0  0  0  0  0  0  0  0  0
    6.0221    0.0799    1.5744 H   0  0  0  0  0  0  0  0  0  0  0  0
    5.9736   -1.2129    2.7619 H   0  0  0  0  0  0  0  0  0  0  0  0
    3.4771   -1.1286    2.7995 H   0  0  0  0  0  0  0  0  0  0  0  0
    4.2308    0.3808    3.2684 H   0  0  0  0  0  0  0  0  0  0  0  0
   -0.0281    0.6981   -0.8888 H   0  0  0  0  0  0  0  0  0  0  0  0
   -0.8567    3.3696   -3.2478 H   0  0  0  0  0  0  0  0  0  0  0  0
    0.0889    0.8265   -3.8528 H   0  0  0  0  0  0  0  0  0  0  0  0
   -1.4537    1.4643   -4.5064 H   0  0  0  0  0  0  0  0  0  0  0  0
   -3.7654    2.1979    0.1505 H   0  0  0  0  0  0  0  0  0  0  0  0
   -5.1896    1.2192    1.8454 H   0  0  0  0  0  0  0  0  0  0  0  0
   -6.2414   -2.3079    1.9112 H   0  0  0  0  0  0  0  0  0  0  0  0
   -6.4796   -0.7156    2.6312 H   0  0  0  0  0  0  0  0  0  0  0  0
   -5.1078   -1.7199    3.1553 H   0  0  0  0  0  0  0  0  0  0  0  0
   -4.2642   -2.7184    0.3799 H   0  0  0  0  0  0  0  0  0  0  0  0
   -2.8183   -1.7698   -1.3085 H   0  0  0  0  0  0  0  0  0  0  0  0
   -1.8525    2.7314   -0.7880 H   0  0  0  0  0  0  0  0  0  0  0  0
   -2.9054    2.7931   -2.2396 H   0  0  0  0  0  0  0  0  0  0  0  0
  1  2  1  0
  2  3  1  0
  3  4  1  0
  4  5  1  0
  5  6  2  0
  6  7  1  0
  7  8  2  0
  8  9  1  0
  9 10  1  0
 10 11  2  0
 10 12  1  0
 12 13  1  0
 13 14  1  0
 14 15  2  0
 14 16  1  0
 16 17  1  0
 17 18  2  0
 18 19  1  0
 19 20  2  0
 20 21  1  0
 20 22  1  0
 22 23  2  0
 16 24  1  0
  8 25  1  0
 25  5  1  0
 24 12  1  0
 23 17  1  0
  1 26  1  0
  1 27  1  0
  1 28  1  0
  2 29  1  0
  2 30  1  0
  3 31  1  0
  3 32  1  0
  4 33  1  0
  4 34  1  0
  9 35  1  0
 12 36  1  0
 13 37  1  0
 13 38  1  0
 18 39  1  0
 19 40  1  0
 21 41  1  0
 21 42  1  0
 21 43  1  0
 22 44  1  0
 23 45  1  0
 24 46  1  0
 24 47  1  0
M  END
$$$$
