
     RDKit          3D

 48 50  0  0  0  0  0  0  0  0999 V2000
    3.8469    2.1551    0.0287 O   0  0  0  0  0  0  0  0  0  0  0  0
    4.5630    1.1799    0.2485 C   0  0  0  0  0  0  0  0  0  0  0  0
    4.0484   -0.0891    0.4182 N   0  0  0  0  0  0  0  0  0  0  0  0
    2.6590   -0.2424    0.3933 N   0  0  0  0  0  0  0  0  0  0  0  0
    2.1528   -1.5260    0.4216 C   0  0  0  0  0  0  0  0  0  0  0  0
    2.8659   -2.5150    0.5786 O   0  0  0  0  0  0  0  0  0  0  0  0
    0.6836   -1.6688    0.2243 C   0  0  0  0  0  0  0  0  0  0  0  0
   -0.2141   -0.6291    0.4958 C   0  0  0  0  0  0  0  0  0  0  0  0
   -1.5851   -0.8180    0.2947 C   0  0  0  0  0  0  0  0  0  0  0  0
   -2.0785   -2.0474   -0.1680 C   0  0  0  0  0  0  0  0  0  0  0  0
   -3.5594   -2.2333   -0.3957 C   0  0  0  0  0  0  0  0  0  0  0  0
   -3.9901   -1.4999   -1.5813 N   0  0  0  0  0  0  0  0  0  0  0  0
   -5.6270   -1.2342   -1.7896 S   0  0  0  0  0  6  0  0  0  0  0  0
   -5.8190   -0.9022   -3.1827 O   0  0  0  0  0  0  0  0  0  0  0  0
   -6.3475   -2.3103   -1.1491 O   0  0  0  0  0  0  0  0  0  0  0  0
   -5.8669    0.2540   -0.8521 C   0  0  0  0  0  0  0  0  0  0  0  0
   -5.4211    1.4723   -1.3801 C   0  0  0  0  0  0  0  0  0  0  0  0
   -5.6126    2.6464   -0.6515 C   0  0  0  0  0  0  0  0  0  0  0  0
   -6.2489    2.5937    0.5872 C   0  0  0  0  0  0  0  0  0  0  0  0
   -6.4179    3.7349    1.2710 F   0  0  0  0  0  0  0  0  0  0  0  0
   -6.7011    1.3792    1.1056 C   0  0  0  0  0  0  0  0  0  0  0  0
   -7.4859    1.3182    2.6364 Cl  0  0  0  0  0  0  0  0  0  0  0  0
   -6.5163    0.1996    0.3854 C   0  0  0  0  0  0  0  0  0  0  0  0
   -1.1761   -3.0854   -0.4331 C   0  0  0  0  0  0  0  0  0  0  0  0
    0.1941   -2.8993   -0.2313 C   0  0  0  0  0  0  0  0  0  0  0  0
    6.0401    1.3253    0.3679 C   0  0  0  0  0  0  0  0  0  0  0  0
    6.5563    2.5898    0.6828 C   0  0  0  0  0  0  0  0  0  0  0  0
    7.9342    2.7776    0.8059 C   0  0  0  0  0  0  0  0  0  0  0  0
    8.8033    1.7060    0.6070 C   0  0  0  0  0  0  0  0  0  0  0  0
    8.2982    0.4481    0.2787 C   0  0  0  0  0  0  0  0  0  0  0  0
    6.9195    0.2550    0.1551 C   0  0  0  0  0  0  0  0  0  0  0  0
    4.5810   -0.8941    0.7401 H   0  0  0  0  0  0  0  0  0  0  0  0
    2.1367    0.5663    0.0614 H   0  0  0  0  0  0  0  0  0  0  0  0
    0.1253    0.3272    0.8845 H   0  0  0  0  0  0  0  0  0  0  0  0
   -2.2713    0.0009    0.5049 H   0  0  0  0  0  0  0  0  0  0  0  0
   -3.7841   -3.2979   -0.5282 H   0  0  0  0  0  0  0  0  0  0  0  0
   -4.0931   -1.8907    0.4981 H   0  0  0  0  0  0  0  0  0  0  0  0
   -3.4959   -1.6805   -2.4540 H   0  0  0  0  0  0  0  0  0  0  0  0
   -4.9298    1.5095   -2.3509 H   0  0  0  0  0  0  0  0  0  0  0  0
   -5.2745    3.6029   -1.0401 H   0  0  0  0  0  0  0  0  0  0  0  0
   -6.8750   -0.7463    0.7847 H   0  0  0  0  0  0  0  0  0  0  0  0
   -1.5292   -4.0488   -0.7957 H   0  0  0  0  0  0  0  0  0  0  0  0
    0.8817   -3.7189   -0.4347 H   0  0  0  0  0  0  0  0  0  0  0  0
    5.8850    3.4329    0.8362 H   0  0  0  0  0  0  0  0  0  0  0  0
    8.3281    3.7603    1.0543 H   0  0  0  0  0  0  0  0  0  0  0  0
    9.8767    1.8535    0.7004 H   0  0  0  0  0  0  0  0  0  0  0  0
    8.9805   -0.3821    0.1109 H   0  0  0  0  0  0  0  0  0  0  0  0
    6.5598   -0.7289   -0.1317 H   0  0  0  0  0  0  0  0  0  0  0  0
  1  2  2  0
  2  3  1  0
  3  4  1  0
  4  5  1  0
  5  6  2  0
  5  7  1  0
  7  8  2  0
  8  9  1  0
  9 10  2  0
 10 11  1  0
 11 12  1  0
 12 13  1  0
 13 14  2  0
 13 15  2  0
 13 16  1  0
 16 17  2  0
 17 18  1  0
 18 19  2  0
 19 20  1  0
 19 21  1  0
 21 22  1  0
 21 23  2  0
 10 24  1  0
 24 25  2  0
  2 26  1  0
 26 27  2  0
 27 28  1  0
 28 29  2  0
 29 30  1  0
 30 31  2  0
 25  7  1  0
 31 26  1  0
 23 16  1  0
  3 32  1  0
  4 33  1  0
  8 34  1  0
  9 35  1  0
 11 36  1  0
 11 37  1  0
 12 38  1  0
 17 39  1  0
 18 40  1  0
 23 41  1  0
 24 42  1  0
 25 43  1  0
 27 44  1  0
 28 45  1  0
 29 46  1  0
 30 47  1  0
 31 48  1  0
M  END
$$$$
