
     RDKit          3D

 32 34  0  0  0  0  0  0  0  0999 V2000
    4.9287    0.0530   -1.5764 N   0  0  0  0  0  0  0  0  0  0  0  0
    3.8747   -0.4936   -0.8571 C   0  0  0  0  0  0  0  0  0  0  0  0
    4.0361   -1.7243   -0.3175 N   0  0  0  0  0  0  0  0  0  0  0  0
    3.0075   -2.2652    0.3703 C   0  0  0  0  0  0  0  0  0  0  0  0
    1.7903   -1.7328    0.6239 N   0  0  0  0  0  0  0  0  0  0  0  0
    1.7004   -0.4997    0.0915 C   0  0  0  0  0  0  0  0  0  0  0  0
    2.6583    0.1755   -0.6450 C   0  0  0  0  0  0  0  0  0  0  0  0
    2.1971    1.4200   -1.0197 N   0  0  0  0  0  0  0  0  0  0  0  0
    0.9733    1.4876   -0.5335 C   0  0  0  0  0  0  0  0  0  0  0  0
    0.6304    0.3534    0.1510 N   0  0  0  0  0  0  0  0  0  0  0  0
   -0.5899    0.0757    0.8837 C   0  0  0  0  0  0  0  0  0  0  0  0
   -1.3729    1.2851    1.0116 O   0  0  0  0  0  0  0  0  0  0  0  0
   -2.5715    1.1455    0.1954 C   0  0  2  0  0  0  0  0  0  0  0  0
   -3.7681    1.1098    1.1495 C   0  0  0  0  0  0  0  0  0  0  0  0
   -3.8420    2.3310    1.8824 O   0  0  0  0  0  0  0  0  0  0  0  0
   -2.4241   -0.1406   -0.6111 C   0  0  1  0  0  0  0  0  0  0  0  0
   -1.7623    0.1316   -1.8507 O   0  0  0  0  0  0  0  0  0  0  0  0
   -1.5170   -0.9823    0.2672 C   0  0  1  0  0  0  0  0  0  0  0  0
   -0.9233   -2.0377   -0.4796 O   0  0  0  0  0  0  0  0  0  0  0  0
    5.8193   -0.3580   -1.3324 H   0  0  0  0  0  0  0  0  0  0  0  0
    4.8784    1.0621   -1.6646 H   0  0  0  0  0  0  0  0  0  0  0  0
    3.1846   -3.2597    0.7715 H   0  0  0  0  0  0  0  0  0  0  0  0
    0.3010    2.3296   -0.6459 H   0  0  0  0  0  0  0  0  0  0  0  0
   -0.2779   -0.2236    1.8912 H   0  0  0  0  0  0  0  0  0  0  0  0
   -2.6230    2.0351   -0.4418 H   0  0  0  0  0  0  0  0  0  0  0  0
   -3.6742    0.3016    1.8816 H   0  0  0  0  0  0  0  0  0  0  0  0
   -4.7066    0.9836    0.6021 H   0  0  0  0  0  0  0  0  0  0  0  0
   -2.9288    2.5513    2.1497 H   0  0  0  0  0  0  0  0  0  0  0  0
   -3.3734   -0.6278   -0.8518 H   0  0  0  0  0  0  0  0  0  0  0  0
   -1.3966   -0.7263   -2.1527 H   0  0  0  0  0  0  0  0  0  0  0  0
   -2.1161   -1.4326    1.0680 H   0  0  0  0  0  0  0  0  0  0  0  0
   -0.1124   -2.3274   -0.0108 H   0  0  0  0  0  0  0  0  0  0  0  0
  1  2  1  0
  2  3  2  0
  3  4  1  0
  4  5  2  0
  5  6  1  0
  6  7  2  0
  7  8  1  0
  8  9  2  0
  9 10  1  0
 10 11  1  0
 11 12  1  0
 12 13  1  0
 13 14  1  0
 14 15  1  0
 13 16  1  0
 16 17  1  0
 16 18  1  0
 18 19  1  0
  7  2  1  0
 18 11  1  0
 10  6  1  0
  1 20  1  0
  1 21  1  0
  4 22  1  0
  9 23  1  0
 11 24  1  0
 13 25  1  6
 14 26  1  0
 14 27  1  0
 15 28  1  0
 16 29  1  6
 17 30  1  0
 18 31  1  1
 19 32  1  0
M  END
$$$$
