
     RDKit          3D

 42 43  0  0  0  0  0  0  0  0999 V2000
   -5.4271   -1.6371   -1.9862 C   0  0  0  0  0  0  0  0  0  0  0  0
   -4.0222   -1.3250   -1.4950 C   0  0  0  0  0  0  0  0  0  0  0  0
   -3.6511    0.1369   -1.7556 C   0  0  0  0  0  0  0  0  0  0  0  0
   -2.2284    0.4621   -1.3008 C   0  0  0  0  0  0  0  0  0  0  0  0
   -2.1480    0.2956    0.1116 O   0  0  0  0  0  0  0  0  0  0  0  0
   -0.9293    0.4787    0.7164 C   0  0  0  0  0  0  0  0  0  0  0  0
    0.2234    0.9229    0.0561 C   0  0  0  0  0  0  0  0  0  0  0  0
    1.4306    1.0881    0.7519 C   0  0  0  0  0  0  0  0  0  0  0  0
    2.6768    1.5474    0.0299 C   0  0  0  0  0  0  0  0  0  0  0  0
    3.4102    0.3993   -0.6657 C   0  0  0  0  0  0  0  0  0  0  0  0
    4.6134    0.8782   -1.4866 C   0  0  0  0  0  0  0  0  0  0  0  0
    5.5797   -0.1683   -1.2957 N   0  0  0  0  0  0  0  0  0  0  0  0
    5.2428   -0.9650   -0.2198 C   0  0  0  0  0  0  0  0  0  0  0  0
    5.9068   -1.8793    0.2288 O   0  0  0  0  0  0  0  0  0  0  0  0
    4.0134   -0.5447    0.2522 N   0  0  0  0  0  0  0  0  0  0  0  0
    1.4721    0.7997    2.1193 C   0  0  0  0  0  0  0  0  0  0  0  0
    0.3270    0.3590    2.7870 C   0  0  0  0  0  0  0  0  0  0  0  0
   -0.8775    0.1967    2.0960 C   0  0  0  0  0  0  0  0  0  0  0  0
   -2.0496   -0.2321    2.6686 O   0  0  0  0  0  0  0  0  0  0  0  0
   -2.0351   -0.5266    4.0576 C   0  0  0  0  0  0  0  0  0  0  0  0
   -5.6722   -2.6859   -1.7918 H   0  0  0  0  0  0  0  0  0  0  0  0
   -6.1685   -1.0145   -1.4753 H   0  0  0  0  0  0  0  0  0  0  0  0
   -5.5142   -1.4620   -3.0633 H   0  0  0  0  0  0  0  0  0  0  0  0
   -3.3093   -1.9851   -2.0025 H   0  0  0  0  0  0  0  0  0  0  0  0
   -3.9627   -1.5459   -0.4232 H   0  0  0  0  0  0  0  0  0  0  0  0
   -3.7432    0.3564   -2.8256 H   0  0  0  0  0  0  0  0  0  0  0  0
   -4.3582    0.7830   -1.2210 H   0  0  0  0  0  0  0  0  0  0  0  0
   -1.5218   -0.2059   -1.8079 H   0  0  0  0  0  0  0  0  0  0  0  0
   -2.0084    1.5034   -1.5641 H   0  0  0  0  0  0  0  0  0  0  0  0
    0.2039    1.1522   -1.0041 H   0  0  0  0  0  0  0  0  0  0  0  0
    2.3928    2.3083   -0.7085 H   0  0  0  0  0  0  0  0  0  0  0  0
    3.3427    2.0526    0.7420 H   0  0  0  0  0  0  0  0  0  0  0  0
    2.7310   -0.1769   -1.3071 H   0  0  0  0  0  0  0  0  0  0  0  0
    4.3855    0.9925   -2.5495 H   0  0  0  0  0  0  0  0  0  0  0  0
    5.0479    1.8064   -1.1013 H   0  0  0  0  0  0  0  0  0  0  0  0
    6.5054   -0.2220   -1.6994 H   0  0  0  0  0  0  0  0  0  0  0  0
    3.4945   -1.1720    0.8540 H   0  0  0  0  0  0  0  0  0  0  0  0
    2.3993    0.9144    2.6782 H   0  0  0  0  0  0  0  0  0  0  0  0
    0.4099    0.1500    3.8482 H   0  0  0  0  0  0  0  0  0  0  0  0
   -3.0416   -0.8486    4.3418 H   0  0  0  0  0  0  0  0  0  0  0  0
   -1.7923    0.3631    4.6479 H   0  0  0  0  0  0  0  0  0  0  0  0
   -1.3483   -1.3499    4.2800 H   0  0  0  0  0  0  0  0  0  0  0  0
  1  2  1  0
  2  3  1  0
  3  4  1  0
  4  5  1  0
  5  6  1  0
  6  7  2  0
  7  8  1  0
  8  9  1  0
  9 10  1  0
 10 11  1  0
 11 12  1  0
 12 13  1  0
 13 14  2  0
 13 15  1  0
  8 16  2  0
 16 17  1  0
 17 18  2  0
 18 19  1  0
 19 20  1  0
 18  6  1  0
 15 10  1  0
  1 21  1  0
  1 22  1  0
  1 23  1  0
  2 24  1  0
  2 25  1  0
  3 26  1  0
  3 27  1  0
  4 28  1  0
  4 29  1  0
  7 30  1  0
  9 31  1  0
  9 32  1  0
 10 33  1  0
 11 34  1  0
 11 35  1  0
 12 36  1  0
 15 37  1  0
 16 38  1  0
 17 39  1  0
 20 40  1  0
 20 41  1  0
 20 42  1  0
M  END
$$$$
