
     RDKit          3D

 32 32  0  0  0  0  0  0  0  0999 V2000
    4.2927    1.0654   -0.4711 C   0  0  0  0  0  0  0  0  0  0  0  0
    2.8529    0.5755   -0.4245 C   0  0  0  0  0  0  0  0  0  0  0  0
    2.7060   -0.6355    0.4932 C   0  0  0  0  0  0  0  0  0  0  0  0
    1.2572   -1.0694    0.7438 C   0  0  0  0  0  0  0  0  0  0  0  0
    0.5086   -1.5761   -0.4964 C   0  0  0  0  0  0  0  0  0  0  0  0
   -0.3176   -0.5190   -1.2428 C   0  0  0  0  0  0  0  0  0  0  0  0
   -1.5128   -0.0075   -0.4713 C   0  0  0  0  0  0  0  0  0  0  0  0
   -1.4701    1.2657    0.1202 C   0  0  0  0  0  0  0  0  0  0  0  0
   -2.5609    1.7552    0.8427 C   0  0  0  0  0  0  0  0  0  0  0  0
   -3.7011    0.9701    0.9731 C   0  0  0  0  0  0  0  0  0  0  0  0
   -4.7889    1.4086    1.6698 O   0  0  0  0  0  0  0  0  0  0  0  0
   -3.7700   -0.2914    0.3942 C   0  0  0  0  0  0  0  0  0  0  0  0
   -2.6770   -0.7724   -0.3251 C   0  0  0  0  0  0  0  0  0  0  0  0
   -2.7335   -2.0077   -0.9083 O   0  0  0  0  0  0  0  0  0  0  0  0
    4.3786    1.9252   -1.1429 H   0  0  0  0  0  0  0  0  0  0  0  0
    4.6345    1.3752    0.5217 H   0  0  0  0  0  0  0  0  0  0  0  0
    4.9624    0.2802   -0.8362 H   0  0  0  0  0  0  0  0  0  0  0  0
    2.2075    1.3907   -0.0784 H   0  0  0  0  0  0  0  0  0  0  0  0
    2.5455    0.3146   -1.4422 H   0  0  0  0  0  0  0  0  0  0  0  0
    3.2730   -1.4788    0.0798 H   0  0  0  0  0  0  0  0  0  0  0  0
    3.1592   -0.4049    1.4657 H   0  0  0  0  0  0  0  0  0  0  0  0
    0.7091   -0.2651    1.2443 H   0  0  0  0  0  0  0  0  0  0  0  0
    1.2980   -1.8973    1.4641 H   0  0  0  0  0  0  0  0  0  0  0  0
    1.2224   -2.0284   -1.1957 H   0  0  0  0  0  0  0  0  0  0  0  0
   -0.1590   -2.3873   -0.1801 H   0  0  0  0  0  0  0  0  0  0  0  0
    0.3128    0.3240   -1.5427 H   0  0  0  0  0  0  0  0  0  0  0  0
   -0.6777   -0.9516   -2.1855 H   0  0  0  0  0  0  0  0  0  0  0  0
   -0.5794    1.8827    0.0232 H   0  0  0  0  0  0  0  0  0  0  0  0
   -2.5000    2.7415    1.2913 H   0  0  0  0  0  0  0  0  0  0  0  0
   -4.5977    2.2968    2.0137 H   0  0  0  0  0  0  0  0  0  0  0  0
   -4.6745   -0.8784    0.5116 H   0  0  0  0  0  0  0  0  0  0  0  0
   -3.6002   -2.4009   -0.7145 H   0  0  0  0  0  0  0  0  0  0  0  0
  1  2  1  0
  2  3  1  0
  3  4  1  0
  4  5  1  0
  5  6  1  0
  6  7  1  0
  7  8  2  0
  8  9  1  0
  9 10  2  0
 10 11  1  0
 10 12  1  0
 12 13  2  0
 13 14  1  0
 13  7  1  0
  1 15  1  0
  1 16  1  0
  1 17  1  0
  2 18  1  0
  2 19  1  0
  3 20  1  0
  3 21  1  0
  4 22  1  0
  4 23  1  0
  5 24  1  0
  5 25  1  0
  6 26  1  0
  6 27  1  0
  8 28  1  0
  9 29  1  0
 11 30  1  0
 12 31  1  0
 14 32  1  0
M  END
$$$$
