
     RDKit          3D

 43 46  0  0  0  0  0  0  0  0999 V2000
    2.1291    2.4598   -2.0427 C   0  0  0  0  0  0  0  0  0  0  0  0
    3.3368    1.6271   -2.4307 C   0  0  0  0  0  0  0  0  0  0  0  0
    4.0436    0.7372   -1.0435 S   0  0  0  0  0  6  0  0  0  0  0  0
    5.0591   -0.1654   -1.5511 O   0  0  0  0  0  0  0  0  0  0  0  0
    4.3307    1.6795    0.0241 O   0  0  0  0  0  0  0  0  0  0  0  0
    2.7467   -0.2074   -0.5422 N   0  0  0  0  0  0  0  0  0  0  0  0
    2.2762   -1.4799   -1.1793 C   0  0  0  0  0  0  0  0  0  0  0  0
    1.6206   -1.8892    0.1852 C   0  0  0  0  0  0  0  0  0  0  0  0
    1.6448   -3.3473    0.6257 C   0  0  0  0  0  0  0  0  0  0  0  0
    2.9882   -3.9336    0.5967 C   0  0  0  0  0  0  0  0  0  0  0  0
    4.0555   -4.3843    0.5650 N   0  0  0  0  0  0  0  0  0  0  0  0
    0.2118   -1.4049    0.2191 N   0  0  0  0  0  0  0  0  0  0  0  0
   -0.3752   -0.7106    1.2439 C   0  0  0  0  0  0  0  0  0  0  0  0
   -1.6993   -0.5235    0.8705 C   0  0  0  0  0  0  0  0  0  0  0  0
   -2.6427    0.2500    1.6442 C   0  0  0  0  0  0  0  0  0  0  0  0
   -2.4001    0.3896    2.9778 N   0  0  0  0  0  0  0  0  0  0  0  0
   -3.2476    1.1524    3.6895 C   0  0  0  0  0  0  0  0  0  0  0  0
   -4.3252    1.8257    3.2516 N   0  0  0  0  0  0  0  0  0  0  0  0
   -4.5101    1.6640    1.9315 C   0  0  0  0  0  0  0  0  0  0  0  0
   -5.5153    2.2522    1.2236 N   0  0  0  0  0  0  0  0  0  0  0  0
   -5.4272    1.8772   -0.0993 C   0  0  0  0  0  0  0  0  0  0  0  0
   -4.3302    1.0514   -0.2312 C   0  0  0  0  0  0  0  0  0  0  0  0
   -3.7398    0.9014    1.0597 C   0  0  0  0  0  0  0  0  0  0  0  0
   -1.8180   -1.2313   -0.3430 C   0  0  0  0  0  0  0  0  0  0  0  0
   -0.6713   -1.8043   -0.7173 N   0  0  0  0  0  0  0  0  0  0  0  0
    2.6412   -0.8746    0.7936 C   0  0  0  0  0  0  0  0  0  0  0  0
    2.3703    3.1669   -1.2397 H   0  0  0  0  0  0  0  0  0  0  0  0
    1.3068    1.8257   -1.6938 H   0  0  0  0  0  0  0  0  0  0  0  0
    1.7728    3.0376   -2.9058 H   0  0  0  0  0  0  0  0  0  0  0  0
    4.1264    2.2762   -2.8282 H   0  0  0  0  0  0  0  0  0  0  0  0
    3.0799    0.8839   -3.2038 H   0  0  0  0  0  0  0  0  0  0  0  0
    3.1084   -2.1076   -1.5118 H   0  0  0  0  0  0  0  0  0  0  0  0
    1.6143   -1.2989   -2.0351 H   0  0  0  0  0  0  0  0  0  0  0  0
    1.2428   -3.4417    1.6464 H   0  0  0  0  0  0  0  0  0  0  0  0
    0.9954   -3.9496   -0.0247 H   0  0  0  0  0  0  0  0  0  0  0  0
    0.1653   -0.3814    2.1297 H   0  0  0  0  0  0  0  0  0  0  0  0
   -3.0296    1.2404    4.7442 H   0  0  0  0  0  0  0  0  0  0  0  0
   -6.2074    2.8661    1.6332 H   0  0  0  0  0  0  0  0  0  0  0  0
   -6.1398    2.2380   -0.8234 H   0  0  0  0  0  0  0  0  0  0  0  0
   -3.9986    0.6085   -1.1572 H   0  0  0  0  0  0  0  0  0  0  0  0
   -2.6952   -1.3777   -0.9664 H   0  0  0  0  0  0  0  0  0  0  0  0
    2.3033   -0.1926    1.5797 H   0  0  0  0  0  0  0  0  0  0  0  0
    3.6025   -1.3049    1.1087 H   0  0  0  0  0  0  0  0  0  0  0  0
  1  2  1  0
  2  3  1  0
  3  4  2  0
  3  5  2  0
  3  6  1  0
  6  7  1  0
  7  8  1  0
  8  9  1  0
  9 10  1  0
 10 11  3  0
  8 12  1  0
 12 13  1  0
 13 14  2  0
 14 15  1  0
 15 16  2  0
 16 17  1  0
 17 18  2  0
 18 19  1  0
 19 20  1  0
 20 21  1  0
 21 22  2  0
 22 23  1  0
 14 24  1  0
 24 25  2  0
  8 26  1  0
 26  6  1  0
 25 12  1  0
 23 15  1  0
 23 19  2  0
  1 27  1  0
  1 28  1  0
  1 29  1  0
  2 30  1  0
  2 31  1  0
  7 32  1  0
  7 33  1  0
  9 34  1  0
  9 35  1  0
 13 36  1  0
 17 37  1  0
 20 38  1  0
 21 39  1  0
 22 40  1  0
 24 41  1  0
 26 42  1  0
 26 43  1  0
M  END
$$$$
