
     RDKit          3D

 89 91  0  0  0  0  0  0  0  0999 V2000
    5.5021   -3.3246    1.1505 C   0  0  0  0  0  0  0  0  0  0  0  0
    4.2067   -3.9338    0.6777 C   0  0  0  0  0  0  0  0  0  0  0  0
    2.9993   -3.0885    0.9494 C   0  0  0  0  0  0  0  0  0  0  0  0
    3.1535   -1.8263    0.2998 O   0  0  0  0  0  0  0  0  0  0  0  0
    2.1147   -0.8916    0.3964 C   0  0  0  0  0  0  0  0  0  0  0  0
    2.2265    0.3308   -0.2160 C   0  0  0  0  0  0  0  0  0  0  0  0
    1.1847    1.2220   -0.1057 C   0  0  0  0  0  0  0  0  0  0  0  0
    1.1969    2.4761   -0.6680 O   0  0  0  0  0  0  0  0  0  0  0  0
    2.2847    3.0171   -1.3387 C   0  0  0  0  0  0  0  0  0  0  0  0
    3.3680    3.2701   -0.3059 C   0  0  0  0  0  0  0  0  0  0  0  0
    4.6286    3.8527   -0.8993 C   0  0  0  0  0  0  0  0  0  0  0  0
    5.6735    4.0840    0.1780 C   0  0  0  0  0  0  0  0  0  0  0  0
    6.8824    4.6577   -0.3240 N   0  0  0  0  0  0  0  0  0  0  0  0
    6.6385    6.0312   -0.6987 C   0  0  0  0  0  0  0  0  0  0  0  0
    7.4379    3.8945   -1.4357 C   0  0  0  0  0  0  0  0  0  0  0  0
    0.0312    0.8664    0.6250 C   0  0  0  0  0  0  0  0  0  0  0  0
   -0.1001   -0.3398    1.2388 C   0  0  0  0  0  0  0  0  0  0  0  0
   -1.2399   -0.6787    1.9622 O   0  0  0  0  0  0  0  0  0  0  0  0
   -1.8131   -1.9168    1.8027 C   0  0  0  0  0  0  0  0  0  0  0  0
   -1.8145   -2.7863    2.8983 C   0  0  0  0  0  0  0  0  0  0  0  0
   -2.3842   -4.0285    2.7728 C   0  0  0  0  0  0  0  0  0  0  0  0
   -2.9605   -4.4404    1.5800 C   0  0  0  0  0  0  0  0  0  0  0  0
   -2.9649   -3.5893    0.4886 C   0  0  0  0  0  0  0  0  0  0  0  0
   -2.3790   -2.3214    0.6277 C   0  0  0  0  0  0  0  0  0  0  0  0
   -2.3708   -1.5370   -0.5472 N   0  0  0  0  0  0  0  0  0  0  0  0
   -3.7023   -1.4515   -1.6334 S   0  0  0  0  0  6  0  0  0  0  0  0
   -3.3749   -2.0136   -2.9912 O   0  0  0  0  0  0  0  0  0  0  0  0
   -4.8699   -2.2838   -1.0393 O   0  0  0  0  0  0  0  0  0  0  0  0
   -4.3772    0.1244   -1.8347 C   0  0  0  0  0  0  0  0  0  0  0  0
   -5.7200    0.2126   -2.1788 C   0  0  0  0  0  0  0  0  0  0  0  0
   -6.3030    1.4820   -2.3347 C   0  0  0  0  0  0  0  0  0  0  0  0
   -5.6012    2.5881   -2.1617 C   0  0  0  0  0  0  0  0  0  0  0  0
   -6.1451    3.8592   -2.3070 O   0  0  0  0  0  0  0  0  0  0  0  0
   -7.4830    4.0580   -2.6568 C   0  0  0  0  0  0  0  0  0  0  0  0
   -4.2091    2.5607   -1.8078 C   0  0  0  0  0  0  0  0  0  0  0  0
   -3.5850    3.6761   -1.6645 O   0  0  0  0  0  0  0  0  0  0  0  0
   -2.3842    4.2704   -1.3711 C   0  0  0  0  0  0  0  0  0  0  0  0
   -3.6752    1.2671   -1.6630 C   0  0  0  0  0  0  0  0  0  0  0  0
   -3.4144   -5.6819    1.7888 N   0  0  0  0  0  0  0  0  0  0  0  0
   -4.0929   -6.5420    0.8495 C   0  0  0  0  0  0  0  0  0  0  0  0
   -3.1348   -6.0344    3.0553 C   0  0  0  0  0  0  0  0  0  0  0  0
   -3.3901   -7.1308    3.6615 O   0  0  0  0  0  0  0  0  0  0  0  0
   -2.5001   -5.0367    3.6875 N   0  0  0  0  0  0  0  0  0  0  0  0
   -2.0202   -4.9848    5.0434 C   0  0  0  0  0  0  0  0  0  0  0  0
    0.9659   -1.2442    1.1233 C   0  0  0  0  0  0  0  0  0  0  0  0
    0.6842    0.0000    0.0000 Cl  0  0  0  0  0  0  0  0  0  0  0  0
    6.2960   -4.1209    1.1698 H   0  0  0  0  0  0  0  0  0  0  0  0
    5.8062   -2.5458    0.4084 H   0  0  0  0  0  0  0  0  0  0  0  0
    5.4040   -2.8321    2.1534 H   0  0  0  0  0  0  0  0  0  0  0  0
    4.0370   -4.8992    1.2518 H   0  0  0  0  0  0  0  0  0  0  0  0
    4.2857   -4.1993   -0.4158 H   0  0  0  0  0  0  0  0  0  0  0  0
    2.0914   -3.6028    0.5564 H   0  0  0  0  0  0  0  0  0  0  0  0
    2.8528   -2.8834    2.0234 H   0  0  0  0  0  0  0  0  0  0  0  0
    3.1050    0.5887   -0.8084 H   0  0  0  0  0  0  0  0  0  0  0  0
    1.9805    3.9766   -1.8318 H   0  0  0  0  0  0  0  0  0  0  0  0
    2.6552    2.3710   -2.1765 H   0  0  0  0  0  0  0  0  0  0  0  0
    2.8904    4.0690    0.3724 H   0  0  0  0  0  0  0  0  0  0  0  0
    3.6021    2.4374    0.3519 H   0  0  0  0  0  0  0  0  0  0  0  0
    5.0836    3.0509   -1.5601 H   0  0  0  0  0  0  0  0  0  0  0  0
    4.4332    4.7085   -1.5391 H   0  0  0  0  0  0  0  0  0  0  0  0
    5.8030    3.1999    0.8380 H   0  0  0  0  0  0  0  0  0  0  0  0
    5.2201    4.8677    0.8632 H   0  0  0  0  0  0  0  0  0  0  0  0
    7.5544    6.3733   -1.2567 H   0  0  0  0  0  0  0  0  0  0  0  0
    6.6182    6.6902    0.2171 H   0  0  0  0  0  0  0  0  0  0  0  0
    5.7209    6.1944   -1.2471 H   0  0  0  0  0  0  0  0  0  0  0  0
    8.4907    4.2158   -1.5542 H   0  0  0  0  0  0  0  0  0  0  0  0
    7.3263    2.8059   -1.2968 H   0  0  0  0  0  0  0  0  0  0  0  0
    6.9052    4.2089   -2.3629 H   0  0  0  0  0  0  0  0  0  0  0  0
   -0.7861    1.5926    0.7091 H   0  0  0  0  0  0  0  0  0  0  0  0
   -1.3643   -2.4430    3.8029 H   0  0  0  0  0  0  0  0  0  0  0  0
   -3.4146   -3.9221   -0.4490 H   0  0  0  0  0  0  0  0  0  0  0  0
   -1.5415   -0.9757   -0.8272 H   0  0  0  0  0  0  0  0  0  0  0  0
   -6.3346   -0.6550   -2.3421 H   0  0  0  0  0  0  0  0  0  0  0  0
   -7.3768    1.5122   -2.6107 H   0  0  0  0  0  0  0  0  0  0  0  0
   -7.7787    5.1258   -2.4842 H   0  0  0  0  0  0  0  0  0  0  0  0
   -7.6156    3.8370   -3.7421 H   0  0  0  0  0  0  0  0  0  0  0  0
   -8.1528    3.4244   -2.0305 H   0  0  0  0  0  0  0  0  0  0  0  0
   -1.6619    3.5857   -0.8687 H   0  0  0  0  0  0  0  0  0  0  0  0
   -1.8695    4.5958   -2.3292 H   0  0  0  0  0  0  0  0  0  0  0  0
   -2.4982    5.1632   -0.7728 H   0  0  0  0  0  0  0  0  0  0  0  0
   -2.6311    1.2335   -1.3982 H   0  0  0  0  0  0  0  0  0  0  0  0
   -3.3688   -7.2578    0.3620 H   0  0  0  0  0  0  0  0  0  0  0  0
   -4.6168   -5.9315    0.1028 H   0  0  0  0  0  0  0  0  0  0  0  0
   -4.8512   -7.1105    1.4629 H   0  0  0  0  0  0  0  0  0  0  0  0
   -1.3416   -4.1098    5.1826 H   0  0  0  0  0  0  0  0  0  0  0  0
   -2.8685   -4.9344    5.7582 H   0  0  0  0  0  0  0  0  0  0  0  0
   -1.4358   -5.8976    5.2749 H   0  0  0  0  0  0  0  0  0  0  0  0
    0.8611   -2.2018    1.6206 H   0  0  0  0  0  0  0  0  0  0  0  0
   -0.6842    0.0000    0.0000 H   0  0  0  0  0  0  0  0  0  0  0  0
  1  2  1  0
  2  3  1  0
  3  4  1  0
  4  5  1  0
  5  6  2  0
  6  7  1  0
  7  8  1  0
  8  9  1  0
  9 10  1  0
 10 11  1  0
 11 12  1  0
 12 13  1  0
 13 14  1  0
 13 15  1  0
  7 16  2  0
 16 17  1  0
 17 18  1  0
 18 19  1  0
 19 20  2  0
 20 21  1  0
 21 22  2  0
 22 23  1  0
 23 24  2  0
 24 25  1  0
 25 26  1  0
 26 27  2  0
 26 28  2  0
 26 29  1  0
 29 30  2  0
 30 31  1  0
 31 32  2  0
 32 33  1  0
 33 34  1  0
 32 35  1  0
 35 36  1  0
 36 37  1  0
 35 38  2  0
 22 39  1  0
 39 40  1  0
 39 41  1  0
 41 42  2  0
 41 43  1  0
 43 44  1  0
 17 45  2  0
 45  5  1  0
 24 19  1  0
 38 29  1  0
 43 21  1  0
  1 47  1  0
  1 48  1  0
  1 49  1  0
  2 50  1  0
  2 51  1  0
  3 52  1  0
  3 53  1  0
  6 54  1  0
  9 55  1  0
  9 56  1  0
 10 57  1  0
 10 58  1  0
 11 59  1  0
 11 60  1  0
 12 61  1  0
 12 62  1  0
 14 63  1  0
 14 64  1  0
 14 65  1  0
 15 66  1  0
 15 67  1  0
 15 68  1  0
 16 69  1  0
 20 70  1  0
 23 71  1  0
 25 72  1  0
 30 73  1  0
 31 74  1  0
 34 75  1  0
 34 76  1  0
 34 77  1  0
 37 78  1  0
 37 79  1  0
 37 80  1  0
 38 81  1  0
 40 82  1  0
 40 83  1  0
 40 84  1  0
 44 85  1  0
 44 86  1  0
 44 87  1  0
 45 88  1  0
 46 89  1  0
M  END
$$$$
