
     RDKit          3D

 56 59  0  0  0  0  0  0  0  0999 V2000
    7.9185    3.5629    0.1302 C   0  0  0  0  0  0  0  0  0  0  0  0
    7.5898    2.7571   -0.9943 O   0  0  0  0  0  0  0  0  0  0  0  0
    6.9166    1.5931   -0.7435 C   0  0  0  0  0  0  0  0  0  0  0  0
    6.5149    1.1305    0.5092 C   0  0  0  0  0  0  0  0  0  0  0  0
    5.8290   -0.0840    0.6245 C   0  0  0  0  0  0  0  0  0  0  0  0
    5.5420   -0.8556   -0.5097 C   0  0  0  0  0  0  0  0  0  0  0  0
    4.7811   -2.1547   -0.3837 C   0  0  0  0  0  0  0  0  0  0  0  0
    3.3560   -1.9520   -0.4844 N   0  0  0  0  0  0  0  0  0  0  0  0
    2.6558   -1.9753   -1.6484 C   0  0  0  0  0  0  0  0  0  0  0  0
    3.0842   -2.1589   -2.7755 O   0  0  0  0  0  0  0  0  0  0  0  0
    1.3279   -1.7400   -1.3675 N   0  0  0  0  0  0  0  0  0  0  0  0
    1.1268   -1.3896    0.0170 C   0  0  1  0  0  0  0  0  0  0  0  0
    0.1123   -2.2844    0.7233 C   0  0  0  0  0  0  0  0  0  0  0  0
   -1.2999   -2.2063    0.1430 C   0  0  0  0  0  0  0  0  0  0  0  0
   -1.9665   -0.8640    0.3658 C   0  0  0  0  0  0  0  0  0  0  0  0
   -1.4224    0.0819    0.9233 O   0  0  0  0  0  0  0  0  0  0  0  0
   -3.2453   -0.8087   -0.1261 N   0  0  0  0  0  0  0  0  0  0  0  0
   -4.0597    0.3924   -0.0428 C   0  0  1  0  0  0  0  0  0  0  0  0
   -3.6821    1.3822   -1.1426 C   0  0  0  0  0  0  0  0  0  0  0  0
   -5.4881   -0.0227   -0.1708 C   0  0  0  0  0  0  0  0  0  0  0  0
   -5.9413   -1.0649   -0.8472 N   0  0  0  0  0  0  0  0  0  0  0  0
   -7.3089   -1.1024   -0.7182 N   0  0  0  0  0  0  0  0  0  0  0  0
   -7.6705   -0.0853    0.0315 C   0  0  0  0  0  0  0  0  0  0  0  0
   -8.9364    0.3704    0.4907 C   0  0  0  0  0  0  0  0  0  0  0  0
   -9.0057    1.4745    1.2601 C   0  0  0  0  0  0  0  0  0  0  0  0
   -7.8107    2.2160    1.6357 C   0  0  0  0  0  0  0  0  0  0  0  0
   -6.6123    1.7855    1.2040 C   0  0  0  0  0  0  0  0  0  0  0  0
   -6.5487    0.6408    0.4083 N   0  0  0  0  0  0  0  0  0  0  0  0
    2.5408   -1.6214    0.5610 C   0  0  0  0  0  0  0  0  0  0  0  0
    2.8715   -1.5156    1.7346 O   0  0  0  0  0  0  0  0  0  0  0  0
    5.9357   -0.3794   -1.7658 C   0  0  0  0  0  0  0  0  0  0  0  0
    6.6208    0.8330   -1.8771 C   0  0  0  0  0  0  0  0  0  0  0  0
    8.4530    4.4448   -0.2356 H   0  0  0  0  0  0  0  0  0  0  0  0
    8.5853    3.0305    0.8167 H   0  0  0  0  0  0  0  0  0  0  0  0
    7.0163    3.9105    0.6441 H   0  0  0  0  0  0  0  0  0  0  0  0
    6.7132    1.6896    1.4173 H   0  0  0  0  0  0  0  0  0  0  0  0
    5.5116   -0.4211    1.6104 H   0  0  0  0  0  0  0  0  0  0  0  0
    5.0094   -2.6238    0.5807 H   0  0  0  0  0  0  0  0  0  0  0  0
    5.1042   -2.8498   -1.1676 H   0  0  0  0  0  0  0  0  0  0  0  0
    0.6994   -1.5176   -2.1288 H   0  0  0  0  0  0  0  0  0  0  0  0
    0.8983   -0.3224    0.0745 H   0  0  0  0  0  0  0  0  0  0  0  0
    0.0860   -2.0275    1.7901 H   0  0  0  0  0  0  0  0  0  0  0  0
    0.4468   -3.3291    0.6696 H   0  0  0  0  0  0  0  0  0  0  0  0
   -1.2910   -2.4224   -0.9310 H   0  0  0  0  0  0  0  0  0  0  0  0
   -1.9207   -2.9680    0.6304 H   0  0  0  0  0  0  0  0  0  0  0  0
   -3.6493   -1.6059   -0.6089 H   0  0  0  0  0  0  0  0  0  0  0  0
   -3.8764    0.8503    0.9357 H   0  0  0  0  0  0  0  0  0  0  0  0
   -4.2982    2.2866   -1.0892 H   0  0  0  0  0  0  0  0  0  0  0  0
   -3.8182    0.9442   -2.1386 H   0  0  0  0  0  0  0  0  0  0  0  0
   -2.6327    1.6847   -1.0583 H   0  0  0  0  0  0  0  0  0  0  0  0
   -9.8236   -0.1852    0.2086 H   0  0  0  0  0  0  0  0  0  0  0  0
   -9.9634    1.8386    1.6211 H   0  0  0  0  0  0  0  0  0  0  0  0
   -7.9153    3.0989    2.2579 H   0  0  0  0  0  0  0  0  0  0  0  0
   -5.6886    2.2929    1.4498 H   0  0  0  0  0  0  0  0  0  0  0  0
    5.7060   -0.9446   -2.6675 H   0  0  0  0  0  0  0  0  0  0  0  0
    6.9228    1.1905   -2.8586 H   0  0  0  0  0  0  0  0  0  0  0  0
  1  2  1  0
  2  3  1  0
  3  4  2  0
  4  5  1  0
  5  6  2  0
  6  7  1  0
  7  8  1  0
  8  9  1  0
  9 10  2  0
  9 11  1  0
 11 12  1  0
 12 13  1  0
 13 14  1  0
 14 15  1  0
 15 16  2  0
 15 17  1  0
 17 18  1  0
 18 19  1  0
 18 20  1  0
 20 21  2  0
 21 22  1  0
 22 23  2  0
 23 24  1  0
 24 25  2  0
 25 26  1  0
 26 27  2  0
 27 28  1  0
 12 29  1  0
 29 30  2  0
  6 31  1  0
 31 32  2  0
 32  3  1  0
 29  8  1  0
 28 20  1  0
 28 23  1  0
  1 33  1  0
  1 34  1  0
  1 35  1  0
  4 36  1  0
  5 37  1  0
  7 38  1  0
  7 39  1  0
 11 40  1  0
 12 41  1  6
 13 42  1  0
 13 43  1  0
 14 44  1  0
 14 45  1  0
 17 46  1  0
 18 47  1  1
 19 48  1  0
 19 49  1  0
 19 50  1  0
 24 51  1  0
 25 52  1  0
 26 53  1  0
 27 54  1  0
 31 55  1  0
 32 56  1  0
M  END
$$$$
