
     RDKit          3D

 60 62  0  0  0  0  0  0  0  0999 V2000
   -2.6769   -1.7468    0.4958 O   0  0  0  0  0  0  0  0  0  0  0  0
   -1.5016   -1.4908    0.7602 C   0  0  0  0  0  0  0  0  0  0  0  0
   -0.8620   -2.2561    1.8443 C   0  0  0  0  0  0  0  0  0  0  0  0
   -1.5626   -3.2758    2.5126 C   0  0  0  0  0  0  0  0  0  0  0  0
   -2.8521   -3.6238    2.2090 O   0  0  0  0  0  0  0  0  0  0  0  0
   -0.9648   -4.0003    3.5406 C   0  0  0  0  0  0  0  0  0  0  0  0
    0.3444   -3.7141    3.9135 C   0  0  0  0  0  0  0  0  0  0  0  0
    1.0445   -2.7063    3.2551 C   0  0  0  0  0  0  0  0  0  0  0  0
    2.3276   -2.4940    3.6840 O   0  0  0  0  0  0  0  0  0  0  0  0
    0.4460   -1.9694    2.2183 C   0  0  0  0  0  0  0  0  0  0  0  0
    1.1920   -0.9066    1.5240 C   0  0  0  0  0  0  0  0  0  0  0  0
    2.3689   -0.7302    1.8402 O   0  0  0  0  0  0  0  0  0  0  0  0
    0.5491   -0.0984    0.4526 C   0  0  0  0  0  0  0  0  0  0  0  0
    1.2699    0.9526   -0.1722 C   0  0  0  0  0  0  0  0  0  0  0  0
    2.5231    1.3777    0.3096 N   0  0  0  0  0  0  0  0  0  0  0  0
    3.5165    1.8797   -0.6427 C   0  0  0  0  0  0  0  0  0  0  0  0
    4.8816    2.0580    0.0610 C   0  0  0  0  0  0  0  0  0  0  0  0
    5.9371    2.6931   -0.7409 N   0  0  0  0  0  0  0  0  0  0  0  0
    6.3195    1.9548   -1.9457 C   0  0  0  0  0  0  0  0  0  0  0  0
    6.9049    0.5585   -1.6967 C   0  0  0  0  0  0  0  0  0  0  0  0
    7.3785    0.0018   -2.9205 O   0  0  0  0  0  0  0  0  0  0  0  0
    0.6364    1.6496   -1.2055 C   0  0  0  0  0  0  0  0  0  0  0  0
   -0.6438    1.3031   -1.6415 C   0  0  0  0  0  0  0  0  0  0  0  0
   -1.3762    0.2832   -1.0256 C   0  0  0  0  0  0  0  0  0  0  0  0
   -2.6279   -0.1027   -1.5372 N   0  0  0  0  0  0  0  0  0  0  0  0
   -3.5105    0.9103   -2.1243 C   0  0  0  0  0  0  0  0  0  0  0  0
   -4.9440    0.3610   -2.3182 C   0  0  0  0  0  0  0  0  0  0  0  0
   -5.8890    0.6174   -1.2147 N   0  0  0  0  0  0  0  0  0  0  0  0
   -5.5158   -0.0679    0.0346 C   0  0  0  0  0  0  0  0  0  0  0  0
   -6.6079    0.1589    1.0888 C   0  0  0  0  0  0  0  0  0  0  0  0
   -6.8462    1.5570    1.2428 O   0  0  0  0  0  0  0  0  0  0  0  0
   -0.7557   -0.4245    0.0366 C   0  0  0  0  0  0  0  0  0  0  0  0
   -3.1577   -3.0433    1.4767 H   0  0  0  0  0  0  0  0  0  0  0  0
   -1.5190   -4.7858    4.0485 H   0  0  0  0  0  0  0  0  0  0  0  0
    0.8203   -4.2747    4.7144 H   0  0  0  0  0  0  0  0  0  0  0  0
    2.7200   -1.7784    3.1347 H   0  0  0  0  0  0  0  0  0  0  0  0
    2.9191    0.6630    0.9371 H   0  0  0  0  0  0  0  0  0  0  0  0
    3.2009    2.8509   -1.0399 H   0  0  0  0  0  0  0  0  0  0  0  0
    3.6185    1.1746   -1.4756 H   0  0  0  0  0  0  0  0  0  0  0  0
    4.7327    2.6862    0.9486 H   0  0  0  0  0  0  0  0  0  0  0  0
    5.2310    1.0945    0.4506 H   0  0  0  0  0  0  0  0  0  0  0  0
    5.6315    3.6299   -1.0077 H   0  0  0  0  0  0  0  0  0  0  0  0
    5.4828    1.8876   -2.6513 H   0  0  0  0  0  0  0  0  0  0  0  0
    7.0782    2.5493   -2.4703 H   0  0  0  0  0  0  0  0  0  0  0  0
    6.1457   -0.1223   -1.3006 H   0  0  0  0  0  0  0  0  0  0  0  0
    7.7389    0.5952   -0.9880 H   0  0  0  0  0  0  0  0  0  0  0  0
    8.1709    0.5059   -3.1756 H   0  0  0  0  0  0  0  0  0  0  0  0
    1.1243    2.4880   -1.6948 H   0  0  0  0  0  0  0  0  0  0  0  0
   -1.0563    1.8569   -2.4807 H   0  0  0  0  0  0  0  0  0  0  0  0
   -3.1134   -0.7193   -0.8757 H   0  0  0  0  0  0  0  0  0  0  0  0
   -3.1230    1.1845   -3.1126 H   0  0  0  0  0  0  0  0  0  0  0  0
   -3.5382    1.8184   -1.5092 H   0  0  0  0  0  0  0  0  0  0  0  0
   -4.9250   -0.7093   -2.5578 H   0  0  0  0  0  0  0  0  0  0  0  0
   -5.3666    0.8677   -3.1944 H   0  0  0  0  0  0  0  0  0  0  0  0
   -6.8085    0.2784   -1.5066 H   0  0  0  0  0  0  0  0  0  0  0  0
   -4.5863    0.3644    0.4182 H   0  0  0  0  0  0  0  0  0  0  0  0
   -5.3819   -1.1425   -0.1267 H   0  0  0  0  0  0  0  0  0  0  0  0
   -6.3035   -0.2499    2.0566 H   0  0  0  0  0  0  0  0  0  0  0  0
   -7.5478   -0.3165    0.7897 H   0  0  0  0  0  0  0  0  0  0  0  0
   -6.6908    1.9378    0.3547 H   0  0  0  0  0  0  0  0  0  0  0  0
  1  2  2  0
  2  3  1  0
  3  4  2  0
  4  5  1  0
  4  6  1  0
  6  7  2  0
  7  8  1  0
  8  9  1  0
  8 10  2  0
 10 11  1  0
 11 12  2  0
 11 13  1  0
 13 14  2  0
 14 15  1  0
 15 16  1  0
 16 17  1  0
 17 18  1  0
 18 19  1  0
 19 20  1  0
 20 21  1  0
 14 22  1  0
 22 23  2  0
 23 24  1  0
 24 25  1  0
 25 26  1  0
 26 27  1  0
 27 28  1  0
 28 29  1  0
 29 30  1  0
 30 31  1  0
 24 32  2  0
 32  2  1  0
 10  3  1  0
 32 13  1  0
  5 33  1  0
  6 34  1  0
  7 35  1  0
  9 36  1  0
 15 37  1  0
 16 38  1  0
 16 39  1  0
 17 40  1  0
 17 41  1  0
 18 42  1  0
 19 43  1  0
 19 44  1  0
 20 45  1  0
 20 46  1  0
 21 47  1  0
 22 48  1  0
 23 49  1  0
 25 50  1  0
 26 51  1  0
 26 52  1  0
 27 53  1  0
 27 54  1  0
 28 55  1  0
 29 56  1  0
 29 57  1  0
 30 58  1  0
 30 59  1  0
 31 60  1  0
M  END
$$$$
