
     RDKit          3D

 53 55  0  0  0  0  0  0  0  0999 V2000
    9.9782    1.3620    1.6389 C   0  0  0  0  0  0  0  0  0  0  0  0
    8.6368    0.8130    1.2547 C   0  0  0  0  0  0  0  0  0  0  0  0
    8.5381   -0.2636    0.3682 C   0  0  0  0  0  0  0  0  0  0  0  0
    7.2875   -0.7613   -0.0174 C   0  0  0  0  0  0  0  0  0  0  0  0
    6.1157   -0.1827    0.4693 C   0  0  0  0  0  0  0  0  0  0  0  0
    4.8200   -0.6190    0.1360 N   0  0  0  0  0  0  0  0  0  0  0  0
    4.4457   -1.6699   -0.6917 C   0  0  0  0  0  0  0  0  0  0  0  0
    5.2277   -2.4089   -1.2838 O   0  0  0  0  0  0  0  0  0  0  0  0
    2.9970   -1.8049   -0.7820 C   0  0  0  0  0  0  0  0  0  0  0  0
    2.1597   -0.9988   -0.1556 N   0  0  0  0  0  0  0  0  0  0  0  0
    0.8445   -1.3384   -0.3949 N   0  0  0  0  0  0  0  0  0  0  0  0
    0.7342   -2.3799   -1.1981 C   0  0  0  0  0  0  0  0  0  0  0  0
   -0.5588   -2.9813   -1.6444 C   0  0  0  0  0  0  0  0  0  0  0  0
   -1.1697   -2.2195   -3.1900 S   0  0  0  0  0  0  0  0  0  0  0  0
   -1.6927   -0.5928   -2.5603 C   0  0  0  0  0  0  0  0  0  0  0  0
   -2.9714   -0.6517   -1.7327 C   0  0  0  0  0  0  0  0  0  0  0  0
   -3.3559   -1.6403   -1.1152 O   0  0  0  0  0  0  0  0  0  0  0  0
   -3.6647    0.5454   -1.7148 N   0  0  0  0  0  0  0  0  0  0  0  0
   -4.8736    0.7098   -0.9237 C   0  0  0  0  0  0  0  0  0  0  0  0
   -4.5630    1.0225    0.5527 C   0  0  0  0  0  0  0  0  0  0  0  0
   -5.6825    1.2295    1.4809 N   0  0  0  0  0  0  0  0  0  0  0  0
   -6.5966    2.3098    1.1152 C   0  0  0  0  0  0  0  0  0  0  0  0
   -7.7750    1.6651    0.4038 C   0  0  0  0  0  0  0  0  0  0  0  0
   -7.7333    0.1963    0.7919 C   0  0  0  0  0  0  0  0  0  0  0  0
   -6.5128    0.0408    1.6851 C   0  0  0  0  0  0  0  0  0  0  0  0
    2.2451   -3.0293   -1.7100 S   0  0  0  0  0  0  0  0  0  0  0  0
    6.2145    0.9056    1.3446 C   0  0  0  0  0  0  0  0  0  0  0  0
    7.4631    1.4030    1.7306 C   0  0  0  0  0  0  0  0  0  0  0  0
    9.9459    1.8100    2.6378 H   0  0  0  0  0  0  0  0  0  0  0  0
   10.2906    2.1250    0.9192 H   0  0  0  0  0  0  0  0  0  0  0  0
   10.7321    0.5678    1.6640 H   0  0  0  0  0  0  0  0  0  0  0  0
    9.4361   -0.7295   -0.0323 H   0  0  0  0  0  0  0  0  0  0  0  0
    7.2711   -1.6018   -0.7034 H   0  0  0  0  0  0  0  0  0  0  0  0
    4.0452   -0.1105    0.5543 H   0  0  0  0  0  0  0  0  0  0  0  0
   -1.3021   -2.9026   -0.8478 H   0  0  0  0  0  0  0  0  0  0  0  0
   -0.4320   -4.0525   -1.8378 H   0  0  0  0  0  0  0  0  0  0  0  0
   -0.9021   -0.1204   -1.9726 H   0  0  0  0  0  0  0  0  0  0  0  0
   -1.8737    0.0376   -3.4377 H   0  0  0  0  0  0  0  0  0  0  0  0
   -3.2457    1.3710   -2.1236 H   0  0  0  0  0  0  0  0  0  0  0  0
   -5.4307    1.5295   -1.3863 H   0  0  0  0  0  0  0  0  0  0  0  0
   -5.4655   -0.2064   -1.0102 H   0  0  0  0  0  0  0  0  0  0  0  0
   -3.9239    0.2284    0.9607 H   0  0  0  0  0  0  0  0  0  0  0  0
   -3.9324    1.9214    0.5854 H   0  0  0  0  0  0  0  0  0  0  0  0
   -6.9523    2.7843    2.0384 H   0  0  0  0  0  0  0  0  0  0  0  0
   -6.1289    3.1011    0.5187 H   0  0  0  0  0  0  0  0  0  0  0  0
   -8.7214    2.1302    0.6989 H   0  0  0  0  0  0  0  0  0  0  0  0
   -7.6836    1.7677   -0.6830 H   0  0  0  0  0  0  0  0  0  0  0  0
   -7.6481   -0.4268   -0.1050 H   0  0  0  0  0  0  0  0  0  0  0  0
   -8.6476   -0.1037    1.3152 H   0  0  0  0  0  0  0  0  0  0  0  0
   -5.9855   -0.9032    1.5090 H   0  0  0  0  0  0  0  0  0  0  0  0
   -6.8361    0.0263    2.7333 H   0  0  0  0  0  0  0  0  0  0  0  0
    5.3223    1.3849    1.7399 H   0  0  0  0  0  0  0  0  0  0  0  0
    7.5108    2.2528    2.4076 H   0  0  0  0  0  0  0  0  0  0  0  0
  1  2  1  0
  2  3  2  0
  3  4  1  0
  4  5  2  0
  5  6  1  0
  6  7  1  0
  7  8  2  0
  7  9  1  0
  9 10  2  0
 10 11  1  0
 11 12  2  0
 12 13  1  0
 13 14  1  0
 14 15  1  0
 15 16  1  0
 16 17  2  0
 16 18  1  0
 18 19  1  0
 19 20  1  0
 20 21  1  0
 21 22  1  0
 22 23  1  0
 23 24  1  0
 24 25  1  0
 12 26  1  0
  5 27  1  0
 27 28  2  0
 28  2  1  0
 26  9  1  0
 25 21  1  0
  1 29  1  0
  1 30  1  0
  1 31  1  0
  3 32  1  0
  4 33  1  0
  6 34  1  0
 13 35  1  0
 13 36  1  0
 15 37  1  0
 15 38  1  0
 18 39  1  0
 19 40  1  0
 19 41  1  0
 20 42  1  0
 20 43  1  0
 22 44  1  0
 22 45  1  0
 23 46  1  0
 23 47  1  0
 24 48  1  0
 24 49  1  0
 25 50  1  0
 25 51  1  0
 27 52  1  0
 28 53  1  0
M  END
$$$$
