
     RDKit          3D

 36 38  0  0  0  0  0  0  0  0999 V2000
    4.9132   -1.1680    0.8270 C   0  0  0  0  0  0  0  0  0  0  0  0
    4.4678    0.0637    0.0348 C   0  0  0  0  0  0  0  0  0  0  0  0
    5.0175    1.3457    0.6652 C   0  0  0  0  0  0  0  0  0  0  0  0
    2.9574    0.1165   -0.1115 C   0  0  0  0  0  0  0  0  0  0  0  0
    2.3771    0.0492   -1.3851 C   0  0  0  0  0  0  0  0  0  0  0  0
    0.9875    0.0960   -1.5433 C   0  0  0  0  0  0  0  0  0  0  0  0
    0.1425    0.2167   -0.4320 C   0  0  0  0  0  0  0  0  0  0  0  0
   -1.3255    0.2578   -0.5771 C   0  0  0  0  0  0  0  0  0  0  0  0
   -1.9179    1.0024   -1.5224 C   0  0  0  0  0  0  0  0  0  0  0  0
   -3.3865    1.0134   -1.6159 C   0  0  0  0  0  0  0  0  0  0  0  0
   -3.9592    1.6764   -2.4706 O   0  0  0  0  0  0  0  0  0  0  0  0
   -4.1125    0.1915   -0.6372 C   0  0  0  0  0  0  0  0  0  0  0  0
   -5.5092    0.1338   -0.6448 C   0  0  0  0  0  0  0  0  0  0  0  0
   -6.1705   -0.6554    0.2972 C   0  0  0  0  0  0  0  0  0  0  0  0
   -5.4378   -1.3809    1.2390 C   0  0  0  0  0  0  0  0  0  0  0  0
   -4.0423   -1.3192    1.2419 C   0  0  0  0  0  0  0  0  0  0  0  0
   -3.3801   -0.5307    0.3011 C   0  0  0  0  0  0  0  0  0  0  0  0
   -2.0094   -0.5093    0.3542 O   0  0  0  0  0  0  0  0  0  0  0  0
    0.7229    0.2731    0.8418 C   0  0  0  0  0  0  0  0  0  0  0  0
    2.1120    0.2272    1.0006 C   0  0  0  0  0  0  0  0  0  0  0  0
    4.5309   -2.0872    0.3691 H   0  0  0  0  0  0  0  0  0  0  0  0
    6.0062   -1.2353    0.8513 H   0  0  0  0  0  0  0  0  0  0  0  0
    4.5590   -1.1391    1.8632 H   0  0  0  0  0  0  0  0  0  0  0  0
    4.9127   -0.0188   -0.9659 H   0  0  0  0  0  0  0  0  0  0  0  0
    6.1125    1.3257    0.6852 H   0  0  0  0  0  0  0  0  0  0  0  0
    4.6689    1.4784    1.6952 H   0  0  0  0  0  0  0  0  0  0  0  0
    4.7088    2.2272    0.0922 H   0  0  0  0  0  0  0  0  0  0  0  0
    3.0025   -0.0453   -2.2705 H   0  0  0  0  0  0  0  0  0  0  0  0
    0.5771    0.0235   -2.5480 H   0  0  0  0  0  0  0  0  0  0  0  0
   -1.3827    1.6188   -2.2327 H   0  0  0  0  0  0  0  0  0  0  0  0
   -6.0784    0.6995   -1.3793 H   0  0  0  0  0  0  0  0  0  0  0  0
   -7.2570   -0.7050    0.2967 H   0  0  0  0  0  0  0  0  0  0  0  0
   -5.9550   -1.9959    1.9720 H   0  0  0  0  0  0  0  0  0  0  0  0
   -3.4746   -1.8857    1.9755 H   0  0  0  0  0  0  0  0  0  0  0  0
    0.0971    0.3610    1.7276 H   0  0  0  0  0  0  0  0  0  0  0  0
    2.5251    0.2783    2.0055 H   0  0  0  0  0  0  0  0  0  0  0  0
  1  2  1  0
  2  3  1  0
  2  4  1  0
  4  5  2  0
  5  6  1  0
  6  7  2  0
  7  8  1  0
  8  9  2  0
  9 10  1  0
 10 11  2  0
 10 12  1  0
 12 13  2  0
 13 14  1  0
 14 15  2  0
 15 16  1  0
 16 17  2  0
 17 18  1  0
  7 19  1  0
 19 20  2  0
 20  4  1  0
 18  8  1  0
 17 12  1  0
  1 21  1  0
  1 22  1  0
  1 23  1  0
  2 24  1  0
  3 25  1  0
  3 26  1  0
  3 27  1  0
  5 28  1  0
  6 29  1  0
  9 30  1  0
 13 31  1  0
 14 32  1  0
 15 33  1  0
 16 34  1  0
 19 35  1  0
 20 36  1  0
M  END
$$$$
