
     RDKit          3D

 45 45  0  0  0  0  0  0  0  0999 V2000
    3.1743   -2.4414   -2.1775 C   0  0  0  0  0  0  0  0  0  0  0  0
    1.9799   -1.5113   -1.9244 C   0  0  0  0  0  0  0  0  0  0  0  0
    2.5257   -0.4000   -1.0441 C   0  0  0  0  0  0  0  0  0  0  0  0
    1.5969    0.5844   -0.6705 N   0  0  0  0  0  0  0  0  0  0  0  0
    2.1323    1.5859    0.1517 C   0  0  0  0  0  0  0  0  0  0  0  0
    2.5500    1.1665    1.5414 C   0  0  0  0  0  0  0  0  0  0  0  0
    3.0994    2.3603    2.3220 C   0  0  0  0  0  0  0  0  0  0  0  0
    0.3599    0.0305   -0.2345 C   0  0  0  0  0  0  0  0  0  0  0  0
   -0.6124    1.0354    0.2831 C   0  0  0  0  0  0  0  0  0  0  0  0
   -1.8671    0.3470    0.6859 C   0  0  0  0  0  0  0  0  0  0  0  0
   -1.9946    0.0782    2.0370 C   0  0  0  0  0  0  0  0  0  0  0  0
   -3.1108   -0.5683    2.5119 C   0  0  0  0  0  0  0  0  0  0  0  0
   -4.1329   -0.9668    1.6698 C   0  0  0  0  0  0  0  0  0  0  0  0
   -3.9711   -0.6794    0.3237 C   0  0  0  0  0  0  0  0  0  0  0  0
   -2.8631   -0.0343   -0.1838 C   0  0  0  0  0  0  0  0  0  0  0  0
   -2.9769    0.1449   -1.6402 C   0  0  0  0  0  0  0  0  0  0  0  0
   -4.2959   -0.4629   -1.9635 C   0  0  0  0  0  0  0  0  0  0  0  0
   -4.8538   -0.5501   -3.1090 O   0  0  0  0  0  0  0  0  0  0  0  0
   -4.8772   -0.9580   -0.7660 N   0  0  0  0  0  0  0  0  0  0  0  0
    0.6918    0.0000    0.0000 Cl  0  0  0  0  0  0  0  0  0  0  0  0
    2.9999   -3.1454   -2.9914 H   0  0  0  0  0  0  0  0  0  0  0  0
    3.3603   -2.9535   -1.1858 H   0  0  0  0  0  0  0  0  0  0  0  0
    4.0575   -1.7797   -2.3258 H   0  0  0  0  0  0  0  0  0  0  0  0
    1.2417   -2.1299   -1.3583 H   0  0  0  0  0  0  0  0  0  0  0  0
    1.6008   -1.1609   -2.8820 H   0  0  0  0  0  0  0  0  0  0  0  0
    2.9639   -0.9542   -0.1587 H   0  0  0  0  0  0  0  0  0  0  0  0
    3.3708    0.0411   -1.6545 H   0  0  0  0  0  0  0  0  0  0  0  0
    3.0133    2.0840   -0.3614 H   0  0  0  0  0  0  0  0  0  0  0  0
    1.4313    2.4606    0.3140 H   0  0  0  0  0  0  0  0  0  0  0  0
    1.7925    0.6945    2.1443 H   0  0  0  0  0  0  0  0  0  0  0  0
    3.3895    0.4175    1.4248 H   0  0  0  0  0  0  0  0  0  0  0  0
    2.8245    2.3037    3.3956 H   0  0  0  0  0  0  0  0  0  0  0  0
    2.7183    3.3134    1.8848 H   0  0  0  0  0  0  0  0  0  0  0  0
    4.2089    2.3441    2.2351 H   0  0  0  0  0  0  0  0  0  0  0  0
   -0.0662   -0.5156   -1.1196 H   0  0  0  0  0  0  0  0  0  0  0  0
    0.5991   -0.7101    0.5733 H   0  0  0  0  0  0  0  0  0  0  0  0
   -0.1839    1.5728    1.1404 H   0  0  0  0  0  0  0  0  0  0  0  0
   -0.8257    1.8283   -0.4843 H   0  0  0  0  0  0  0  0  0  0  0  0
   -1.2230    0.3649    2.7623 H   0  0  0  0  0  0  0  0  0  0  0  0
   -3.2129   -0.7757    3.5665 H   0  0  0  0  0  0  0  0  0  0  0  0
   -5.0175   -1.4755    2.0228 H   0  0  0  0  0  0  0  0  0  0  0  0
   -2.1514   -0.3628   -2.1444 H   0  0  0  0  0  0  0  0  0  0  0  0
   -2.9615    1.2171   -1.9444 H   0  0  0  0  0  0  0  0  0  0  0  0
   -5.7929   -1.4392   -0.6666 H   0  0  0  0  0  0  0  0  0  0  0  0
   -0.6918    0.0000    0.0000 H   0  0  0  0  0  0  0  0  0  0  0  0
  1  2  1  0
  2  3  1  0
  3  4  1  0
  4  5  1  0
  5  6  1  0
  6  7  1  0
  4  8  1  0
  8  9  1  0
  9 10  1  0
 10 11  2  0
 11 12  1  0
 12 13  2  0
 13 14  1  0
 14 15  2  0
 15 16  1  0
 16 17  1  0
 17 18  2  0
 17 19  1  0
 15 10  1  0
 19 14  1  0
  1 21  1  0
  1 22  1  0
  1 23  1  0
  2 24  1  0
  2 25  1  0
  3 26  1  0
  3 27  1  0
  5 28  1  0
  5 29  1  0
  6 30  1  0
  6 31  1  0
  7 32  1  0
  7 33  1  0
  7 34  1  0
  8 35  1  0
  8 36  1  0
  9 37  1  0
  9 38  1  0
 11 39  1  0
 12 40  1  0
 13 41  1  0
 16 42  1  0
 16 43  1  0
 19 44  1  0
 20 45  1  0
M  END
$$$$
