
     RDKit          3D

 79 83  0  0  0  0  0  0  0  0999 V2000
   -4.4742   -6.5616    0.0130 C   0  0  0  0  0  0  0  0  0  0  0  0
   -4.4920   -5.5938   -1.0284 O   0  0  0  0  0  0  0  0  0  0  0  0
   -4.2565   -4.2993   -0.6596 C   0  0  0  0  0  0  0  0  0  0  0  0
   -4.6295   -3.3433   -1.6105 C   0  0  0  0  0  0  0  0  0  0  0  0
   -4.4157   -1.9839   -1.3786 C   0  0  0  0  0  0  0  0  0  0  0  0
   -3.8006   -1.5476   -0.1951 C   0  0  0  0  0  0  0  0  0  0  0  0
   -3.5351   -0.1472   -0.0206 N   0  0  0  0  0  0  0  0  0  0  0  0
   -4.6000    0.7576   -0.2206 C   0  0  0  0  0  0  0  0  0  0  0  0
   -5.7651    0.3773   -0.3607 O   0  0  0  0  0  0  0  0  0  0  0  0
   -4.2423    2.0920   -0.2637 N   0  0  0  0  0  0  0  0  0  0  0  0
   -5.1317    3.1660   -0.5212 C   0  0  0  0  0  0  0  0  0  0  0  0
   -6.0320    3.1664   -1.6100 C   0  0  0  0  0  0  0  0  0  0  0  0
   -6.0847    2.0807   -2.6539 C   0  0  0  0  0  0  0  0  0  0  0  0
   -6.9111    4.2538   -1.7728 C   0  0  0  0  0  0  0  0  0  0  0  0
   -6.8593    5.3538   -0.9225 C   0  0  0  0  0  0  0  0  0  0  0  0
   -5.9190    5.3897    0.1012 C   0  0  0  0  0  0  0  0  0  0  0  0
   -5.0504    4.3073    0.3145 C   0  0  0  0  0  0  0  0  0  0  0  0
   -4.0648    4.4046    1.4490 C   0  0  0  0  0  0  0  0  0  0  0  0
   -2.2062    0.2404    0.3728 C   0  0  0  0  0  0  0  0  0  0  0  0
   -1.1130   -0.5633    0.0793 C   0  0  0  0  0  0  0  0  0  0  0  0
    0.1540   -0.1273    0.4355 C   0  0  0  0  0  0  0  0  0  0  0  0
    1.2458   -0.9301    0.0193 N   0  0  0  0  0  0  0  0  0  0  0  0
    2.6360   -0.7205    0.0330 C   0  0  0  0  0  0  0  0  0  0  0  0
    3.4573   -1.7148   -0.5068 C   0  0  0  0  0  0  0  0  0  0  0  0
    4.8461   -1.5413   -0.6144 C   0  0  0  0  0  0  0  0  0  0  0  0
    5.4902   -0.3735   -0.1743 C   0  0  0  0  0  0  0  0  0  0  0  0
    6.8872   -0.2287   -0.2995 N   0  0  0  0  0  0  0  0  0  0  0  0
    7.4764    1.0609    0.1401 C   0  0  0  0  0  0  0  0  0  0  0  0
    8.9840    1.1424   -0.1897 C   0  0  0  0  0  0  0  0  0  0  0  0
    9.7480    0.0168    0.3804 N   0  0  0  0  0  0  0  0  0  0  0  0
   11.1666    0.1307    0.0494 C   0  0  0  0  0  0  0  0  0  0  0  0
    9.1809   -1.2431   -0.1448 C   0  0  0  0  0  0  0  0  0  0  0  0
    7.6753   -1.3975    0.1760 C   0  0  0  0  0  0  0  0  0  0  0  0
    4.6484    0.6324    0.3220 C   0  0  0  0  0  0  0  0  0  0  0  0
    3.2539    0.4649    0.4131 C   0  0  0  0  0  0  0  0  0  0  0  0
    0.3241    1.0568    1.0431 N   0  0  0  0  0  0  0  0  0  0  0  0
   -0.7742    1.7824    1.2842 C   0  0  0  0  0  0  0  0  0  0  0  0
   -2.0334    1.4425    0.9668 N   0  0  0  0  0  0  0  0  0  0  0  0
   -3.4756   -2.5148    0.7779 C   0  0  0  0  0  0  0  0  0  0  0  0
   -2.9241   -2.1601    1.9787 O   0  0  0  0  0  0  0  0  0  0  0  0
   -3.9577   -1.8189    2.9066 C   0  0  0  0  0  0  0  0  0  0  0  0
   -3.6773   -3.8793    0.5389 C   0  0  0  0  0  0  0  0  0  0  0  0
   -5.1561   -6.2829    0.8265 H   0  0  0  0  0  0  0  0  0  0  0  0
   -3.4513   -6.7087    0.3887 H   0  0  0  0  0  0  0  0  0  0  0  0
   -4.8169   -7.5118   -0.4048 H   0  0  0  0  0  0  0  0  0  0  0  0
   -5.0928   -3.6634   -2.5435 H   0  0  0  0  0  0  0  0  0  0  0  0
   -4.7108   -1.2681   -2.1426 H   0  0  0  0  0  0  0  0  0  0  0  0
   -3.4494    2.2874    0.3361 H   0  0  0  0  0  0  0  0  0  0  0  0
   -6.8364    1.3237   -2.3970 H   0  0  0  0  0  0  0  0  0  0  0  0
   -5.1094    1.6060   -2.7896 H   0  0  0  0  0  0  0  0  0  0  0  0
   -6.3540    2.5080   -3.6314 H   0  0  0  0  0  0  0  0  0  0  0  0
   -7.6319    4.2553   -2.5884 H   0  0  0  0  0  0  0  0  0  0  0  0
   -7.5413    6.1873   -1.0676 H   0  0  0  0  0  0  0  0  0  0  0  0
   -5.8785    6.2676    0.7470 H   0  0  0  0  0  0  0  0  0  0  0  0
   -3.0488    4.4739    1.0479 H   0  0  0  0  0  0  0  0  0  0  0  0
   -4.2442    5.2897    2.0700 H   0  0  0  0  0  0  0  0  0  0  0  0
   -4.1475    3.5305    2.1077 H   0  0  0  0  0  0  0  0  0  0  0  0
   -1.2136   -1.4955   -0.4547 H   0  0  0  0  0  0  0  0  0  0  0  0
    1.0175   -1.9183    0.0709 H   0  0  0  0  0  0  0  0  0  0  0  0
    3.0217   -2.6307   -0.8871 H   0  0  0  0  0  0  0  0  0  0  0  0
    5.4110   -2.3335   -1.0968 H   0  0  0  0  0  0  0  0  0  0  0  0
    6.9873    1.8952   -0.3731 H   0  0  0  0  0  0  0  0  0  0  0  0
    7.3397    1.1834    1.2238 H   0  0  0  0  0  0  0  0  0  0  0  0
    9.1119    1.1862   -1.2800 H   0  0  0  0  0  0  0  0  0  0  0  0
    9.3705    2.0845    0.2185 H   0  0  0  0  0  0  0  0  0  0  0  0
   11.3438    0.1457   -1.0350 H   0  0  0  0  0  0  0  0  0  0  0  0
   11.7306   -0.7039    0.4812 H   0  0  0  0  0  0  0  0  0  0  0  0
   11.5887    1.0470    0.4818 H   0  0  0  0  0  0  0  0  0  0  0  0
    9.3250   -1.3011   -1.2375 H   0  0  0  0  0  0  0  0  0  0  0  0
    9.7092   -2.0995    0.2963 H   0  0  0  0  0  0  0  0  0  0  0  0
    7.3486   -2.3253   -0.3084 H   0  0  0  0  0  0  0  0  0  0  0  0
    7.5443   -1.5181    1.2601 H   0  0  0  0  0  0  0  0  0  0  0  0
    5.0383    1.5890    0.6575 H   0  0  0  0  0  0  0  0  0  0  0  0
    2.6745    1.2962    0.8018 H   0  0  0  0  0  0  0  0  0  0  0  0
   -0.6303    2.7473    1.7569 H   0  0  0  0  0  0  0  0  0  0  0  0
   -3.5313   -1.1086    3.6203 H   0  0  0  0  0  0  0  0  0  0  0  0
   -4.2658   -2.7204    3.4617 H   0  0  0  0  0  0  0  0  0  0  0  0
   -4.8335   -1.3555    2.4378 H   0  0  0  0  0  0  0  0  0  0  0  0
   -3.3670   -4.5884    1.2978 H   0  0  0  0  0  0  0  0  0  0  0  0
  1  2  1  0
  2  3  1  0
  3  4  2  0
  4  5  1  0
  5  6  2  0
  6  7  1  0
  7  8  1  0
  8  9  2  0
  8 10  1  0
 10 11  1  0
 11 12  2  0
 12 13  1  0
 12 14  1  0
 14 15  2  0
 15 16  1  0
 16 17  2  0
 17 18  1  0
  7 19  1  0
 19 20  2  0
 20 21  1  0
 21 22  1  0
 22 23  1  0
 23 24  2  0
 24 25  1  0
 25 26  2  0
 26 27  1  0
 27 28  1  0
 28 29  1  0
 29 30  1  0
 30 31  1  0
 30 32  1  0
 32 33  1  0
 26 34  1  0
 34 35  2  0
 21 36  2  0
 36 37  1  0
 37 38  2  0
  6 39  1  0
 39 40  1  0
 40 41  1  0
 39 42  2  0
 42  3  1  0
 17 11  1  0
 38 19  1  0
 35 23  1  0
 33 27  1  0
  1 43  1  0
  1 44  1  0
  1 45  1  0
  4 46  1  0
  5 47  1  0
 10 48  1  0
 13 49  1  0
 13 50  1  0
 13 51  1  0
 14 52  1  0
 15 53  1  0
 16 54  1  0
 18 55  1  0
 18 56  1  0
 18 57  1  0
 20 58  1  0
 22 59  1  0
 24 60  1  0
 25 61  1  0
 28 62  1  0
 28 63  1  0
 29 64  1  0
 29 65  1  0
 31 66  1  0
 31 67  1  0
 31 68  1  0
 32 69  1  0
 32 70  1  0
 33 71  1  0
 33 72  1  0
 34 73  1  0
 35 74  1  0
 37 75  1  0
 41 76  1  0
 41 77  1  0
 41 78  1  0
 42 79  1  0
M  END
$$$$
