
     RDKit          3D

 41 44  0  0  0  0  0  0  0  0999 V2000
   -1.1516    1.6639   -0.3717 O   0  0  0  0  0  0  0  0  0  0  0  0
   -0.8861    0.4646   -0.3364 C   0  0  0  0  0  0  0  0  0  0  0  0
   -1.8294   -0.5357   -0.4093 N   0  0  0  0  0  0  0  0  0  0  0  0
   -3.2314   -0.3900   -0.3314 C   0  0  0  0  0  0  0  0  0  0  0  0
   -3.8683    0.7700    0.1120 C   0  0  0  0  0  0  0  0  0  0  0  0
   -5.2653    0.8349    0.1779 C   0  0  0  0  0  0  0  0  0  0  0  0
   -6.0519   -0.2663   -0.1851 C   0  0  0  0  0  0  0  0  0  0  0  0
   -7.5579   -0.1887   -0.1361 C   0  0  0  0  0  0  0  0  0  0  0  0
   -8.1416   -1.3856    0.1553 F   0  0  0  0  0  0  0  0  0  0  0  0
   -8.0955    0.2085   -1.3221 F   0  0  0  0  0  0  0  0  0  0  0  0
   -8.0226    0.6862    0.7989 F   0  0  0  0  0  0  0  0  0  0  0  0
   -5.4105   -1.4314   -0.6267 C   0  0  0  0  0  0  0  0  0  0  0  0
   -4.0143   -1.4935   -0.6918 C   0  0  0  0  0  0  0  0  0  0  0  0
    0.4356    0.0255   -0.2284 N   0  0  0  0  0  0  0  0  0  0  0  0
    0.8743   -1.3716   -0.1850 C   0  0  0  0  0  0  0  0  0  0  0  0
    2.0624   -1.5770    0.7530 C   0  0  0  0  0  0  0  0  0  0  0  0
    3.1403   -0.5504    0.5414 C   0  0  0  0  0  0  0  0  0  0  0  0
    4.4058   -0.9305    0.9536 N   0  0  0  0  0  0  0  0  0  0  0  0
    5.3170   -0.0290    0.8401 C   0  0  0  0  0  0  0  0  0  0  0  0
    6.7598   -0.1157    1.1408 C   0  0  0  0  0  0  0  0  0  0  0  0
    7.2467    1.0627    0.7257 C   0  0  0  0  0  0  0  0  0  0  0  0
    6.2843    1.9448    0.2837 N   0  0  0  0  0  0  0  0  0  0  0  0
    5.0877    1.2342    0.3390 N   0  0  0  0  0  0  0  0  0  0  0  0
    3.9138    1.6253   -0.2489 C   0  0  0  0  0  0  0  0  0  0  0  0
    3.7508    2.6430   -0.9131 O   0  0  0  0  0  0  0  0  0  0  0  0
    2.8276    0.6272   -0.0380 C   0  0  0  0  0  0  0  0  0  0  0  0
    1.4641    1.0412   -0.4894 C   0  0  0  0  0  0  0  0  0  0  0  0
   -1.5110   -1.4148   -0.7797 H   0  0  0  0  0  0  0  0  0  0  0  0
   -3.3029    1.6445    0.4223 H   0  0  0  0  0  0  0  0  0  0  0  0
   -5.7339    1.7568    0.5206 H   0  0  0  0  0  0  0  0  0  0  0  0
   -5.9973   -2.3005   -0.9212 H   0  0  0  0  0  0  0  0  0  0  0  0
   -3.5520   -2.4160   -1.0337 H   0  0  0  0  0  0  0  0  0  0  0  0
    1.1333   -1.6600   -1.2112 H   0  0  0  0  0  0  0  0  0  0  0  0
    0.0691   -2.0305    0.1504 H   0  0  0  0  0  0  0  0  0  0  0  0
    1.7268   -1.5148    1.7959 H   0  0  0  0  0  0  0  0  0  0  0  0
    2.4596   -2.5874    0.5989 H   0  0  0  0  0  0  0  0  0  0  0  0
    7.2673   -0.9801    1.5239 H   0  0  0  0  0  0  0  0  0  0  0  0
    8.2843    1.3690    0.7039 H   0  0  0  0  0  0  0  0  0  0  0  0
    6.4671    2.3720   -0.6259 H   0  0  0  0  0  0  0  0  0  0  0  0
    1.1801    1.9771    0.0057 H   0  0  0  0  0  0  0  0  0  0  0  0
    1.4657    1.2176   -1.5721 H   0  0  0  0  0  0  0  0  0  0  0  0
  1  2  2  0
  2  3  1  0
  3  4  1  0
  4  5  2  0
  5  6  1  0
  6  7  2  0
  7  8  1  0
  8  9  1  0
  8 10  1  0
  8 11  1  0
  7 12  1  0
 12 13  2  0
  2 14  1  0
 14 15  1  0
 15 16  1  0
 16 17  1  0
 17 18  1  0
 18 19  2  0
 19 20  1  0
 20 21  2  0
 21 22  1  0
 22 23  1  0
 23 24  1  0
 24 25  2  0
 24 26  1  0
 26 27  1  0
 13  4  1  0
 27 14  1  0
 26 17  2  0
 23 19  1  0
  3 28  1  0
  5 29  1  0
  6 30  1  0
 12 31  1  0
 13 32  1  0
 15 33  1  0
 15 34  1  0
 16 35  1  0
 16 36  1  0
 20 37  1  0
 21 38  1  0
 22 39  1  0
 27 40  1  0
 27 41  1  0
M  END
$$$$
