
     RDKit          3D

 44 47  0  0  0  0  0  0  0  0999 V2000
    7.4056    2.8138    0.4827 F   0  0  0  0  0  0  0  0  0  0  0  0
    6.9370    2.5067   -0.7640 C   0  0  0  0  0  0  0  0  0  0  0  0
    6.4130    3.6711   -1.2486 F   0  0  0  0  0  0  0  0  0  0  0  0
    8.0426    2.2544   -1.5204 F   0  0  0  0  0  0  0  0  0  0  0  0
    5.9162    1.3760   -0.7363 C   0  0  0  0  0  0  0  0  0  0  0  0
    4.7856    1.5152    0.0699 C   0  0  0  0  0  0  0  0  0  0  0  0
    3.8437    0.4887    0.1035 C   0  0  0  0  0  0  0  0  0  0  0  0
    4.0358   -0.6595   -0.6693 C   0  0  0  0  0  0  0  0  0  0  0  0
    3.0500   -1.7985   -0.6560 C   0  0  0  0  0  0  0  0  0  0  0  0
    1.7844   -1.4115   -1.2676 N   0  0  0  0  0  0  0  0  0  0  0  0
    0.7429   -1.1374   -0.3851 C   0  0  0  0  0  0  0  0  0  0  0  0
    0.2687   -2.0794    0.5197 C   0  0  0  0  0  0  0  0  0  0  0  0
   -0.7848   -1.7411    1.3674 C   0  0  0  0  0  0  0  0  0  0  0  0
   -1.3583   -0.4712    1.2865 C   0  0  0  0  0  0  0  0  0  0  0  0
   -2.5009   -0.0576    2.1709 C   0  0  0  0  0  0  0  0  0  0  0  0
   -3.7509   -0.4941    1.4773 C   0  0  0  0  0  0  0  0  0  0  0  0
   -4.3701   -1.7304    1.5950 C   0  0  0  0  0  0  0  0  0  0  0  0
   -5.4896   -1.7339    0.8046 N   0  0  0  0  0  0  0  0  0  0  0  0
   -5.6281   -0.5215    0.1925 C   0  0  0  0  0  0  0  0  0  0  0  0
   -6.6382   -0.2049   -0.6394 N   0  0  0  0  0  0  0  0  0  0  0  0
   -6.5462    1.0622   -1.1134 C   0  0  0  0  0  0  0  0  0  0  0  0
   -5.5445    1.9724   -0.7995 C   0  0  0  0  0  0  0  0  0  0  0  0
   -5.5596    3.5558   -1.4687 Cl  0  0  0  0  0  0  0  0  0  0  0  0
   -4.5237    1.5919    0.0709 C   0  0  0  0  0  0  0  0  0  0  0  0
   -4.5646    0.2845    0.5890 C   0  0  0  0  0  0  0  0  0  0  0  0
   -0.8263    0.3943    0.3376 C   0  0  0  0  0  0  0  0  0  0  0  0
    0.2048    0.0905   -0.4855 N   0  0  0  0  0  0  0  0  0  0  0  0
    5.1842   -0.7154   -1.4488 C   0  0  0  0  0  0  0  0  0  0  0  0
    6.1190    0.2620   -1.4972 N   0  0  0  0  0  0  0  0  0  0  0  0
    4.6371    2.4111    0.6679 H   0  0  0  0  0  0  0  0  0  0  0  0
    2.9569    0.5927    0.7261 H   0  0  0  0  0  0  0  0  0  0  0  0
    2.9492   -2.1693    0.3721 H   0  0  0  0  0  0  0  0  0  0  0  0
    3.4525   -2.6380   -1.2358 H   0  0  0  0  0  0  0  0  0  0  0  0
    1.8756   -0.5596   -1.8222 H   0  0  0  0  0  0  0  0  0  0  0  0
    0.6939   -3.0762    0.5541 H   0  0  0  0  0  0  0  0  0  0  0  0
   -1.1637   -2.4774    2.0709 H   0  0  0  0  0  0  0  0  0  0  0  0
   -2.4135   -0.5291    3.1570 H   0  0  0  0  0  0  0  0  0  0  0  0
   -2.4943    1.0258    2.3368 H   0  0  0  0  0  0  0  0  0  0  0  0
   -4.1028   -2.6091    2.1671 H   0  0  0  0  0  0  0  0  0  0  0  0
   -6.1355   -2.4994    0.6780 H   0  0  0  0  0  0  0  0  0  0  0  0
   -7.3493    1.3420   -1.7915 H   0  0  0  0  0  0  0  0  0  0  0  0
   -3.7303    2.2804    0.3373 H   0  0  0  0  0  0  0  0  0  0  0  0
   -1.2226    1.3969    0.2030 H   0  0  0  0  0  0  0  0  0  0  0  0
    5.3990   -1.5741   -2.0811 H   0  0  0  0  0  0  0  0  0  0  0  0
  1  2  1  0
  2  3  1  0
  2  4  1  0
  2  5  1  0
  5  6  2  0
  6  7  1  0
  7  8  2  0
  8  9  1  0
  9 10  1  0
 10 11  1  0
 11 12  2  0
 12 13  1  0
 13 14  2  0
 14 15  1  0
 15 16  1  0
 16 17  2  0
 17 18  1  0
 18 19  1  0
 19 20  2  0
 20 21  1  0
 21 22  2  0
 22 23  1  0
 22 24  1  0
 24 25  2  0
 14 26  1  0
 26 27  2  0
  8 28  1  0
 28 29  2  0
 29  5  1  0
 27 11  1  0
 25 16  1  0
 25 19  1  0
  6 30  1  0
  7 31  1  0
  9 32  1  0
  9 33  1  0
 10 34  1  0
 12 35  1  0
 13 36  1  0
 15 37  1  0
 15 38  1  0
 17 39  1  0
 18 40  1  0
 21 41  1  0
 24 42  1  0
 26 43  1  0
 28 44  1  0
M  END
$$$$
