
     RDKit          3D

 65 68  0  0  0  0  0  0  0  0999 V2000
    5.4627   -0.9608   -1.4369 C   0  0  0  0  0  0  0  0  0  0  0  0
    5.5430    0.0279   -0.3359 C   0  0  0  0  0  0  0  0  0  0  0  0
    6.5917    0.2224    0.5910 C   0  0  0  0  0  0  0  0  0  0  0  0
    6.1728    1.2578    1.3911 C   0  0  0  0  0  0  0  0  0  0  0  0
    4.9345    1.6146    0.9324 N   0  0  0  0  0  0  0  0  0  0  0  0
    4.0916    2.6651    1.4756 C   0  0  0  0  0  0  0  0  0  0  0  0
    2.6162    2.3208    1.4808 C   0  0  0  0  0  0  0  0  0  0  0  0
    1.8312    2.9864    0.7952 O   0  0  0  0  0  0  0  0  0  0  0  0
    2.1551    1.2958    2.3108 N   0  0  0  0  0  0  0  0  0  0  0  0
    3.0227    0.4168    3.0825 C   0  0  0  0  0  0  0  0  0  0  0  0
    0.7920    0.8113    2.0637 C   0  0  0  0  0  0  0  0  0  0  0  0
    0.7113   -0.0714    0.7938 C   0  0  0  0  0  0  0  0  0  0  0  0
   -0.6186   -0.7225    0.6034 N   0  0  0  0  0  0  0  0  0  0  0  0
   -0.4740   -1.9893   -0.1803 C   0  0  0  0  0  0  0  0  0  0  0  0
    0.3744   -3.0174    0.6245 C   0  0  0  0  0  0  0  0  0  0  0  0
    0.0803   -4.4684    0.2608 C   0  0  0  0  0  0  0  0  0  0  0  0
   -0.2354   -4.5639   -1.1193 O   0  0  0  0  0  0  0  0  0  0  0  0
   -1.4844   -3.9483   -1.4234 C   0  0  0  0  0  0  0  0  0  0  0  0
   -1.7763   -2.7035   -0.5818 C   0  0  0  0  0  0  0  0  0  0  0  0
   -1.5723    0.2854    0.0794 C   0  0  0  0  0  0  0  0  0  0  0  0
   -1.5699    0.5912   -1.4280 C   0  0  0  0  0  0  0  0  0  0  0  0
   -2.8640    1.3749   -1.6115 C   0  0  0  0  0  0  0  0  0  0  0  0
   -3.7744    0.8201   -0.6238 N   0  0  0  0  0  0  0  0  0  0  0  0
   -5.1371    0.9962   -0.5610 C   0  0  0  0  0  0  0  0  0  0  0  0
   -5.8457    0.5028    0.3082 O   0  0  0  0  0  0  0  0  0  0  0  0
   -5.7491    1.8253   -1.6343 C   0  0  0  0  0  0  0  0  0  0  0  0
   -6.9214    2.7264   -1.3102 C   0  0  0  0  0  0  0  0  0  0  0  0
   -5.5877    3.3291   -1.6306 C   0  0  0  0  0  0  0  0  0  0  0  0
   -3.0649    0.0834    0.4110 C   0  0  0  0  0  0  0  0  0  0  0  0
    4.5356    0.8827   -0.1246 N   0  0  0  0  0  0  0  0  0  0  0  0
    5.3803   -0.4527   -2.4030 H   0  0  0  0  0  0  0  0  0  0  0  0
    6.3532   -1.5971   -1.4623 H   0  0  0  0  0  0  0  0  0  0  0  0
    4.5882   -1.6071   -1.3093 H   0  0  0  0  0  0  0  0  0  0  0  0
    7.5271   -0.3155    0.6571 H   0  0  0  0  0  0  0  0  0  0  0  0
    6.6418    1.7582    2.2264 H   0  0  0  0  0  0  0  0  0  0  0  0
    4.2537    3.5458    0.8443 H   0  0  0  0  0  0  0  0  0  0  0  0
    4.4245    2.9080    2.4889 H   0  0  0  0  0  0  0  0  0  0  0  0
    3.9005    0.9518    3.4489 H   0  0  0  0  0  0  0  0  0  0  0  0
    2.4754    0.0368    3.9504 H   0  0  0  0  0  0  0  0  0  0  0  0
    3.3401   -0.4197    2.4539 H   0  0  0  0  0  0  0  0  0  0  0  0
    0.4550    0.2522    2.9450 H   0  0  0  0  0  0  0  0  0  0  0  0
    0.1374    1.6847    1.9747 H   0  0  0  0  0  0  0  0  0  0  0  0
    0.9886    0.5063   -0.0963 H   0  0  0  0  0  0  0  0  0  0  0  0
    1.5019   -0.8176    0.9004 H   0  0  0  0  0  0  0  0  0  0  0  0
    0.0699   -1.7574   -1.1075 H   0  0  0  0  0  0  0  0  0  0  0  0
    0.2381   -2.8973    1.7064 H   0  0  0  0  0  0  0  0  0  0  0  0
    1.4358   -2.8341    0.4172 H   0  0  0  0  0  0  0  0  0  0  0  0
    0.9593   -5.0902    0.4585 H   0  0  0  0  0  0  0  0  0  0  0  0
   -0.7439   -4.8754    0.8591 H   0  0  0  0  0  0  0  0  0  0  0  0
   -2.2851   -4.6863   -1.3018 H   0  0  0  0  0  0  0  0  0  0  0  0
   -1.4540   -3.6795   -2.4847 H   0  0  0  0  0  0  0  0  0  0  0  0
   -2.4578   -2.0791   -1.1633 H   0  0  0  0  0  0  0  0  0  0  0  0
   -2.3180   -3.0040    0.3251 H   0  0  0  0  0  0  0  0  0  0  0  0
   -1.3434    1.2446    0.5631 H   0  0  0  0  0  0  0  0  0  0  0  0
   -1.6076   -0.3127   -2.0412 H   0  0  0  0  0  0  0  0  0  0  0  0
   -0.6969    1.1706   -1.7435 H   0  0  0  0  0  0  0  0  0  0  0  0
   -3.2700    1.2840   -2.6227 H   0  0  0  0  0  0  0  0  0  0  0  0
   -2.7193    2.4353   -1.3779 H   0  0  0  0  0  0  0  0  0  0  0  0
   -5.7979    1.3246   -2.5959 H   0  0  0  0  0  0  0  0  0  0  0  0
   -7.2657    2.7690   -0.2824 H   0  0  0  0  0  0  0  0  0  0  0  0
   -7.7132    2.8063   -2.0443 H   0  0  0  0  0  0  0  0  0  0  0  0
   -5.0372    3.7881   -0.8164 H   0  0  0  0  0  0  0  0  0  0  0  0
   -5.4717    3.8310   -2.5843 H   0  0  0  0  0  0  0  0  0  0  0  0
   -3.4105   -0.9506    0.3860 H   0  0  0  0  0  0  0  0  0  0  0  0
   -3.3186    0.4879    1.3975 H   0  0  0  0  0  0  0  0  0  0  0  0
  1  2  1  0
  2  3  1  0
  3  4  2  0
  4  5  1  0
  5  6  1  0
  6  7  1  0
  7  8  2  0
  7  9  1  0
  9 10  1  0
  9 11  1  0
 11 12  1  0
 12 13  1  0
 13 14  1  0
 14 15  1  0
 15 16  1  0
 16 17  1  0
 17 18  1  0
 18 19  1  0
 13 20  1  0
 20 21  1  0
 21 22  1  0
 22 23  1  0
 23 24  1  0
 24 25  2  0
 24 26  1  0
 26 27  1  0
 27 28  1  0
 23 29  1  0
  5 30  1  0
 30  2  2  0
 19 14  1  0
 29 20  1  0
 28 26  1  0
  1 31  1  0
  1 32  1  0
  1 33  1  0
  3 34  1  0
  4 35  1  0
  6 36  1  0
  6 37  1  0
 10 38  1  0
 10 39  1  0
 10 40  1  0
 11 41  1  0
 11 42  1  0
 12 43  1  0
 12 44  1  0
 14 45  1  0
 15 46  1  0
 15 47  1  0
 16 48  1  0
 16 49  1  0
 18 50  1  0
 18 51  1  0
 19 52  1  0
 19 53  1  0
 20 54  1  0
 21 55  1  0
 21 56  1  0
 22 57  1  0
 22 58  1  0
 26 59  1  0
 27 60  1  0
 27 61  1  0
 28 62  1  0
 28 63  1  0
 29 64  1  0
 29 65  1  0
M  END
$$$$
