
     RDKit          3D

 34 35  0  0  0  0  0  0  0  0999 V2000
   -5.9866    0.4677    0.3554 C   0  0  0  0  0  0  0  0  0  0  0  0
   -4.5346    0.3362    0.2537 N   0  0  0  0  0  4  0  0  0  0  0  0
   -3.7961    1.4622    0.2784 C   0  0  0  0  0  0  0  0  0  0  0  0
   -2.4278    1.4515    0.1898 C   0  0  0  0  0  0  0  0  0  0  0  0
   -1.7806    0.2120    0.0688 C   0  0  0  0  0  0  0  0  0  0  0  0
   -0.3251    0.2131   -0.0245 C   0  0  0  0  0  0  0  0  0  0  0  0
    0.3637   -0.8688   -0.1381 C   0  0  0  0  0  0  0  0  0  0  0  0
    1.7866   -1.0765   -0.2428 C   0  0  0  0  0  0  0  0  0  0  0  0
    2.3738   -2.3605   -0.3567 C   0  0  0  0  0  0  0  0  0  0  0  0
    3.6880   -2.1997   -0.4335 N   0  0  0  0  0  0  0  0  0  0  0  0
    4.0132   -0.8972   -0.3784 C   0  0  0  0  0  0  0  0  0  0  0  0
    5.2482   -0.2562   -0.4221 C   0  0  0  0  0  0  0  0  0  0  0  0
    5.2608    1.1125   -0.3430 C   0  0  0  0  0  0  0  0  0  0  0  0
    4.1098    1.8438   -0.2247 C   0  0  0  0  0  0  0  0  0  0  0  0
    2.8754    1.2129   -0.1804 C   0  0  0  0  0  0  0  0  0  0  0  0
    2.8183   -0.1783   -0.2578 C   0  0  0  0  0  0  0  0  0  0  0  0
   -2.5483   -0.9084    0.0464 C   0  0  0  0  0  0  0  0  0  0  0  0
   -3.9399   -0.8541    0.1392 C   0  0  0  0  0  0  0  0  0  0  0  0
    0.0000    0.0000    0.0000 I   0  0  0  0  0 15  0  0  0  0  0  0
   -6.3076    0.9185   -0.6255 H   0  0  0  0  0  0  0  0  0  0  0  0
   -6.4731   -0.5080    0.4926 H   0  0  0  0  0  0  0  0  0  0  0  0
   -6.2059    1.1852    1.1684 H   0  0  0  0  0  0  0  0  0  0  0  0
   -4.3238    2.4206    0.3736 H   0  0  0  0  0  0  0  0  0  0  0  0
   -1.8684    2.3877    0.2138 H   0  0  0  0  0  0  0  0  0  0  0  0
    0.1430    1.1728    0.0079 H   0  0  0  0  0  0  0  0  0  0  0  0
   -0.2507   -1.7902   -0.1579 H   0  0  0  0  0  0  0  0  0  0  0  0
    1.8344   -3.3060   -0.3768 H   0  0  0  0  0  0  0  0  0  0  0  0
    4.3871   -2.9894   -0.5257 H   0  0  0  0  0  0  0  0  0  0  0  0
    6.1322   -0.8663   -0.5159 H   0  0  0  0  0  0  0  0  0  0  0  0
    6.2288    1.6167   -0.3771 H   0  0  0  0  0  0  0  0  0  0  0  0
    4.1189    2.9186   -0.1625 H   0  0  0  0  0  0  0  0  0  0  0  0
    1.9903    1.8052   -0.0882 H   0  0  0  0  0  0  0  0  0  0  0  0
   -2.0932   -1.9079   -0.0469 H   0  0  0  0  0  0  0  0  0  0  0  0
   -4.5108   -1.7696    0.1173 H   0  0  0  0  0  0  0  0  0  0  0  0
  1  2  1  0
  2  3  2  0
  3  4  1  0
  4  5  2  0
  5  6  1  0
  6  7  2  0
  7  8  1  0
  8  9  2  0
  9 10  1  0
 10 11  1  0
 11 12  2  0
 12 13  1  0
 13 14  2  0
 14 15  1  0
 15 16  2  0
  5 17  1  0
 17 18  2  0
 18  2  1  0
 16  8  1  0
 16 11  1  0
  1 20  1  0
  1 21  1  0
  1 22  1  0
  3 23  1  0
  4 24  1  0
  6 25  1  0
  7 26  1  0
  9 27  1  0
 10 28  1  0
 12 29  1  0
 13 30  1  0
 14 31  1  0
 15 32  1  0
 17 33  1  0
 18 34  1  0
M  CHG  2   2   1  19  -1
M  END
$$$$
