
     RDKit          3D

 25 27  0  0  0  0  0  0  0  0999 V2000
    5.3098   -1.1385    1.5602 O   0  0  0  0  0  0  0  0  0  0  0  0
    4.5147   -0.5623    0.8380 C   0  0  0  0  0  0  0  0  0  0  0  0
    4.8263    0.1865   -0.2497 N   0  0  0  0  0  0  0  0  0  0  0  0
    3.8075    0.7681   -0.9424 C   0  0  0  0  0  0  0  0  0  0  0  0
    3.9483    1.4663   -1.9332 O   0  0  0  0  0  0  0  0  0  0  0  0
    2.5071    0.4248   -0.3080 C   0  0  0  0  0  0  0  0  0  0  0  0
    1.3416    0.8566   -0.8074 C   0  0  0  0  0  0  0  0  0  0  0  0
    0.0108    0.5625   -0.2676 C   0  0  0  0  0  0  0  0  0  0  0  0
   -0.3874    1.0285    0.9846 C   0  0  0  0  0  0  0  0  0  0  0  0
   -1.6693    0.7399    1.4588 C   0  0  0  0  0  0  0  0  0  0  0  0
   -2.5693   -0.0004    0.7044 C   0  0  0  0  0  0  0  0  0  0  0  0
   -3.7971   -0.2572    1.1968 N   0  0  0  0  0  0  0  0  0  0  0  0
   -4.6203   -0.9807    0.4079 C   0  0  0  0  0  0  0  0  0  0  0  0
   -4.2356   -1.4352   -0.8365 C   0  0  0  0  0  0  0  0  0  0  0  0
   -3.0105   -1.1868   -1.3476 N   0  0  0  0  0  0  0  0  0  0  0  0
   -2.1731   -0.4675   -0.5741 C   0  0  0  0  0  0  0  0  0  0  0  0
   -0.8955   -0.1750   -1.0370 C   0  0  0  0  0  0  0  0  0  0  0  0
    2.7778   -0.5815    1.0658 S   0  0  0  0  0  0  0  0  0  0  0  0
    5.7846    0.3089   -0.5323 H   0  0  0  0  0  0  0  0  0  0  0  0
    1.3392    1.4663   -1.7107 H   0  0  0  0  0  0  0  0  0  0  0  0
    0.2855    1.6182    1.6031 H   0  0  0  0  0  0  0  0  0  0  0  0
   -1.9750    1.1010    2.4378 H   0  0  0  0  0  0  0  0  0  0  0  0
   -5.6061   -1.1857    0.8087 H   0  0  0  0  0  0  0  0  0  0  0  0
   -4.9044   -2.0150   -1.4619 H   0  0  0  0  0  0  0  0  0  0  0  0
   -0.6095   -0.5416   -2.0207 H   0  0  0  0  0  0  0  0  0  0  0  0
  1  2  2  0
  2  3  1  0
  3  4  1  0
  4  5  2  0
  4  6  1  0
  6  7  2  0
  7  8  1  0
  8  9  2  0
  9 10  1  0
 10 11  2  0
 11 12  1  0
 12 13  2  0
 13 14  1  0
 14 15  2  0
 15 16  1  0
 16 17  2  0
  6 18  1  0
 18  2  1  0
 17  8  1  0
 16 11  1  0
  3 19  1  0
  7 20  1  0
  9 21  1  0
 10 22  1  0
 13 23  1  0
 14 24  1  0
 17 25  1  0
M  END
$$$$
