
     RDKit          3D

 41 44  0  0  0  0  0  0  0  0999 V2000
   -2.3543    0.2656   -1.5294 O   0  0  0  0  0  0  0  0  0  0  0  0
   -1.6967    0.4639   -0.5075 C   0  0  0  0  0  0  0  0  0  0  0  0
   -1.5167    1.8650   -0.0839 C   0  0  0  0  0  0  0  0  0  0  0  0
   -2.0827    2.9215   -0.8107 C   0  0  0  0  0  0  0  0  0  0  0  0
   -1.9174    4.2337   -0.3686 C   0  0  0  0  0  0  0  0  0  0  0  0
   -1.1915    4.4857    0.7941 C   0  0  0  0  0  0  0  0  0  0  0  0
   -0.6315    3.4253    1.5107 C   0  0  0  0  0  0  0  0  0  0  0  0
   -0.7933    2.1073    1.0765 C   0  0  0  0  0  0  0  0  0  0  0  0
   -0.1879    1.0828    1.8000 N   0  0  0  0  0  0  0  0  0  0  0  0
   -0.3419   -0.1371    1.3972 C   0  0  0  0  0  0  0  0  0  0  0  0
    0.6336   -1.3086    2.2779 S   0  0  0  0  0  0  0  0  0  0  0  0
    1.8654   -1.7132    1.0064 C   0  0  0  0  0  0  0  0  0  0  0  0
    2.4575   -0.5209    0.2971 C   0  0  0  0  0  0  0  0  0  0  0  0
    3.2672    0.3953    0.9842 C   0  0  0  0  0  0  0  0  0  0  0  0
    3.7910    1.5100    0.3279 C   0  0  0  0  0  0  0  0  0  0  0  0
    3.5163    1.7190   -1.0218 C   0  0  0  0  0  0  0  0  0  0  0  0
    2.7204    0.8124   -1.7183 C   0  0  0  0  0  0  0  0  0  0  0  0
    2.1959   -0.3033   -1.0643 C   0  0  0  0  0  0  0  0  0  0  0  0
   -1.1353   -0.5242    0.3150 N   0  0  0  0  0  0  0  0  0  0  0  0
   -1.4621   -1.8948    0.0266 C   0  0  0  0  0  0  0  0  0  0  0  0
   -1.3924   -2.3907   -1.2846 C   0  0  0  0  0  0  0  0  0  0  0  0
   -1.7089   -3.7224   -1.5675 C   0  0  0  0  0  0  0  0  0  0  0  0
   -2.1142   -4.5756   -0.5454 C   0  0  0  0  0  0  0  0  0  0  0  0
   -2.2140   -4.0955    0.7572 C   0  0  0  0  0  0  0  0  0  0  0  0
   -1.8970   -2.7636    1.0398 C   0  0  0  0  0  0  0  0  0  0  0  0
   -2.6539    2.7236   -1.7151 H   0  0  0  0  0  0  0  0  0  0  0  0
   -2.3548    5.0566   -0.9287 H   0  0  0  0  0  0  0  0  0  0  0  0
   -1.0568    5.5064    1.1434 H   0  0  0  0  0  0  0  0  0  0  0  0
   -0.0567    3.6234    2.4123 H   0  0  0  0  0  0  0  0  0  0  0  0
    2.6759   -2.2740    1.4862 H   0  0  0  0  0  0  0  0  0  0  0  0
    1.4129   -2.4015    0.2850 H   0  0  0  0  0  0  0  0  0  0  0  0
    3.4800    0.2549    2.0422 H   0  0  0  0  0  0  0  0  0  0  0  0
    4.4078    2.2193    0.8735 H   0  0  0  0  0  0  0  0  0  0  0  0
    3.9216    2.5899   -1.5301 H   0  0  0  0  0  0  0  0  0  0  0  0
    2.5069    0.9755   -2.7716 H   0  0  0  0  0  0  0  0  0  0  0  0
    1.5774   -0.9989   -1.6270 H   0  0  0  0  0  0  0  0  0  0  0  0
   -1.0778   -1.7504   -2.1060 H   0  0  0  0  0  0  0  0  0  0  0  0
   -1.6450   -4.0882   -2.5893 H   0  0  0  0  0  0  0  0  0  0  0  0
   -2.3663   -5.6097   -0.7664 H   0  0  0  0  0  0  0  0  0  0  0  0
   -2.5510   -4.7531    1.5548 H   0  0  0  0  0  0  0  0  0  0  0  0
   -2.0301   -2.4112    2.0602 H   0  0  0  0  0  0  0  0  0  0  0  0
  1  2  2  0
  2  3  1  0
  3  4  2  0
  4  5  1  0
  5  6  2  0
  6  7  1  0
  7  8  2  0
  8  9  1  0
  9 10  2  0
 10 11  1  0
 11 12  1  0
 12 13  1  0
 13 14  2  0
 14 15  1  0
 15 16  2  0
 16 17  1  0
 17 18  2  0
 10 19  1  0
 19 20  1  0
 20 21  2  0
 21 22  1  0
 22 23  2  0
 23 24  1  0
 24 25  2  0
 19  2  1  0
 25 20  1  0
  8  3  1  0
 18 13  1  0
  4 26  1  0
  5 27  1  0
  6 28  1  0
  7 29  1  0
 12 30  1  0
 12 31  1  0
 14 32  1  0
 15 33  1  0
 16 34  1  0
 17 35  1  0
 18 36  1  0
 21 37  1  0
 22 38  1  0
 23 39  1  0
 24 40  1  0
 25 41  1  0
M  END
$$$$
