
     RDKit          3D

 30 31  0  0  0  0  0  0  0  0999 V2000
   -1.0010   -2.4279   -1.3992 C   0  0  0  0  0  0  0  0  0  0  0  0
   -0.7967   -2.0549    0.0613 C   0  0  0  0  0  0  0  0  0  0  0  0
   -1.2482   -0.6428    0.3471 C   0  0  0  0  0  0  0  0  0  0  0  0
   -2.5675   -0.5162    0.6206 N   0  0  0  0  0  0  0  0  0  0  0  0
   -3.0334    0.7121    0.8446 C   0  0  0  0  0  0  0  0  0  0  0  0
   -4.3757    0.8408    1.1336 N   0  0  0  0  0  0  0  0  0  0  0  0
   -2.2919    1.8158    0.8560 N   0  0  0  0  0  0  0  0  0  0  0  0
   -0.9860    1.6823    0.5854 C   0  0  0  0  0  0  0  0  0  0  0  0
   -0.2362    2.8744    0.5913 N   0  0  0  0  0  0  0  0  0  0  0  0
   -0.3849    0.4507    0.3064 C   0  0  0  0  0  0  0  0  0  0  0  0
    1.0473    0.3343    0.0038 C   0  0  0  0  0  0  0  0  0  0  0  0
    1.5152    0.4672   -1.3139 C   0  0  0  0  0  0  0  0  0  0  0  0
    2.8792    0.3649   -1.6005 C   0  0  0  0  0  0  0  0  0  0  0  0
    3.7873    0.1313   -0.5707 C   0  0  0  0  0  0  0  0  0  0  0  0
    5.4659    0.0055   -0.9229 Cl  0  0  0  0  0  0  0  0  0  0  0  0
    3.3437   -0.0004    0.7429 C   0  0  0  0  0  0  0  0  0  0  0  0
    1.9795    0.1016    1.0289 C   0  0  0  0  0  0  0  0  0  0  0  0
   -0.6863   -3.4619   -1.5725 H   0  0  0  0  0  0  0  0  0  0  0  0
   -2.0546   -2.3423   -1.6864 H   0  0  0  0  0  0  0  0  0  0  0  0
   -0.4202   -1.7816   -2.0645 H   0  0  0  0  0  0  0  0  0  0  0  0
    0.2483   -2.2077    0.3490 H   0  0  0  0  0  0  0  0  0  0  0  0
   -1.3795   -2.7414    0.6885 H   0  0  0  0  0  0  0  0  0  0  0  0
   -4.7254   -0.0216    1.5248 H   0  0  0  0  0  0  0  0  0  0  0  0
   -4.5224    1.6894    1.6627 H   0  0  0  0  0  0  0  0  0  0  0  0
    0.5263    2.7915    1.2574 H   0  0  0  0  0  0  0  0  0  0  0  0
    0.1795    3.0129   -0.3254 H   0  0  0  0  0  0  0  0  0  0  0  0
    0.8158    0.6473   -2.1293 H   0  0  0  0  0  0  0  0  0  0  0  0
    3.2242    0.4666   -2.6265 H   0  0  0  0  0  0  0  0  0  0  0  0
    4.0517   -0.1838    1.5473 H   0  0  0  0  0  0  0  0  0  0  0  0
    1.6461   -0.0062    2.0601 H   0  0  0  0  0  0  0  0  0  0  0  0
  1  2  1  0
  2  3  1  0
  3  4  2  0
  4  5  1  0
  5  6  1  0
  5  7  2  0
  7  8  1  0
  8  9  1  0
  8 10  2  0
 10 11  1  0
 11 12  2  0
 12 13  1  0
 13 14  2  0
 14 15  1  0
 14 16  1  0
 16 17  2  0
 10  3  1  0
 17 11  1  0
  1 18  1  0
  1 19  1  0
  1 20  1  0
  2 21  1  0
  2 22  1  0
  6 23  1  0
  6 24  1  0
  9 25  1  0
  9 26  1  0
 12 27  1  0
 13 28  1  0
 16 29  1  0
 17 30  1  0
M  END
$$$$
