
     RDKit          3D

 36 39  0  0  0  0  0  0  0  0999 V2000
    4.2922   -2.6663    5.8263 C   0  0  0  0  0  0  0  0  0  0  0  0
    4.3366   -1.4381    5.1111 O   0  0  0  0  0  0  0  0  0  0  0  0
    3.4694   -1.3003    4.0635 C   0  0  0  0  0  0  0  0  0  0  0  0
    3.5433   -0.0740    3.4012 C   0  0  0  0  0  0  0  0  0  0  0  0
    2.7122    0.2020    2.3105 C   0  0  0  0  0  0  0  0  0  0  0  0
    1.7860   -0.7481    1.8622 C   0  0  0  0  0  0  0  0  0  0  0  0
    0.9109   -0.4898    0.7112 C   0  0  0  0  0  0  0  0  0  0  0  0
    0.5996   -1.3340   -0.3421 C   0  0  0  0  0  0  0  0  0  0  0  0
   -0.3034   -0.7405   -1.2640 C   0  0  0  0  0  0  0  0  0  0  0  0
   -0.8133   -1.2731   -2.4024 N   0  0  0  0  0  0  0  0  0  0  0  0
   -1.6475   -0.5080   -3.0986 N   0  0  0  0  0  0  0  0  0  0  0  0
   -1.9685    0.7482   -2.6809 C   0  0  0  0  0  0  0  0  0  0  0  0
   -2.9061    1.5228   -3.5244 C   0  0  0  0  0  0  0  0  0  0  0  0
   -3.3022    2.8296   -3.1744 C   0  0  0  0  0  0  0  0  0  0  0  0
   -4.1881    3.5653   -3.9687 C   0  0  0  0  0  0  0  0  0  0  0  0
   -4.7016    3.0108   -5.1365 C   0  0  0  0  0  0  0  0  0  0  0  0
   -4.3303    1.7232   -5.5099 C   0  0  0  0  0  0  0  0  0  0  0  0
   -3.4441    0.9900   -4.7133 C   0  0  0  0  0  0  0  0  0  0  0  0
   -1.5029    1.3431   -1.5628 N   0  0  0  0  0  0  0  0  0  0  0  0
   -0.6633    0.5386   -0.8870 C   0  0  0  0  0  0  0  0  0  0  0  0
    0.0807    1.0126    0.5640 S   0  0  0  0  0  0  0  0  0  0  0  0
    1.7219   -1.9801    2.5293 C   0  0  0  0  0  0  0  0  0  0  0  0
    2.5545   -2.2545    3.6227 C   0  0  0  0  0  0  0  0  0  0  0  0
    4.5583   -3.5091    5.1798 H   0  0  0  0  0  0  0  0  0  0  0  0
    3.3122   -2.8176    6.2909 H   0  0  0  0  0  0  0  0  0  0  0  0
    5.0357   -2.6138    6.6274 H   0  0  0  0  0  0  0  0  0  0  0  0
    4.2568    0.6756    3.7356 H   0  0  0  0  0  0  0  0  0  0  0  0
    2.8099    1.1650    1.8145 H   0  0  0  0  0  0  0  0  0  0  0  0
    1.0061   -2.3308   -0.4562 H   0  0  0  0  0  0  0  0  0  0  0  0
   -2.9181    3.2925   -2.2660 H   0  0  0  0  0  0  0  0  0  0  0  0
   -4.4743    4.5710   -3.6713 H   0  0  0  0  0  0  0  0  0  0  0  0
   -5.3899    3.5812   -5.7546 H   0  0  0  0  0  0  0  0  0  0  0  0
   -4.7283    1.2847   -6.4216 H   0  0  0  0  0  0  0  0  0  0  0  0
   -3.1752   -0.0151   -5.0364 H   0  0  0  0  0  0  0  0  0  0  0  0
    1.0114   -2.7413    2.2136 H   0  0  0  0  0  0  0  0  0  0  0  0
    2.4593   -3.2215    4.1051 H   0  0  0  0  0  0  0  0  0  0  0  0
  1  2  1  0
  2  3  1  0
  3  4  2  0
  4  5  1  0
  5  6  2  0
  6  7  1  0
  7  8  2  0
  8  9  1  0
  9 10  2  0
 10 11  1  0
 11 12  2  0
 12 13  1  0
 13 14  2  0
 14 15  1  0
 15 16  2  0
 16 17  1  0
 17 18  2  0
 12 19  1  0
 19 20  2  0
 20 21  1  0
  6 22  1  0
 22 23  2  0
 23  3  1  0
 21  7  1  0
 20  9  1  0
 18 13  1  0
  1 24  1  0
  1 25  1  0
  1 26  1  0
  4 27  1  0
  5 28  1  0
  8 29  1  0
 14 30  1  0
 15 31  1  0
 16 32  1  0
 17 33  1  0
 18 34  1  0
 22 35  1  0
 23 36  1  0
M  END
$$$$
