
     RDKit          3D

 25 26  0  0  0  0  0  0  0  0999 V2000
   -1.3283   -0.7944    1.5605 N   0  0  0  0  0  0  0  0  0  0  0  0
   -1.8220   -1.0699    0.3364 C   0  0  0  0  0  0  0  0  0  0  0  0
   -2.4695   -2.1948    0.0426 N   0  0  0  0  0  0  0  0  0  0  0  0
   -2.8760   -2.0557   -1.2741 O   0  0  0  0  0  0  0  0  0  0  0  0
   -2.4888   -0.8277   -1.7932 N   0  0  0  0  0  0  0  0  0  0  0  0
   -1.7929   -0.2351   -0.8090 C   0  0  0  0  0  0  0  0  0  0  0  0
   -1.2231    1.0885   -1.0215 C   0  0  0  0  0  0  0  0  0  0  0  0
   -0.0198    1.4875   -0.7063 N   0  0  0  0  0  0  0  0  0  0  0  0
    0.9554    0.6152   -0.2090 C   0  0  0  0  0  0  0  0  0  0  0  0
    1.4486   -0.4502   -0.9749 C   0  0  0  0  0  0  0  0  0  0  0  0
    2.4456   -1.2856   -0.4671 C   0  0  0  0  0  0  0  0  0  0  0  0
    2.9666   -1.0412    0.7990 C   0  0  0  0  0  0  0  0  0  0  0  0
    3.9231   -1.8542    1.2706 F   0  0  0  0  0  0  0  0  0  0  0  0
    2.5102    0.0361    1.5546 C   0  0  0  0  0  0  0  0  0  0  0  0
    3.1627    0.3540    3.1160 Cl  0  0  0  0  0  0  0  0  0  0  0  0
    1.5150    0.8715    1.0463 C   0  0  0  0  0  0  0  0  0  0  0  0
   -2.1293    1.9444   -1.6290 N   0  0  0  0  0  0  0  0  0  0  0  0
   -1.5173    3.0226   -2.2906 O   0  0  0  0  0  0  0  0  0  0  0  0
   -1.6175   -1.3975    2.3255 H   0  0  0  0  0  0  0  0  0  0  0  0
   -1.1527    0.1621    1.8498 H   0  0  0  0  0  0  0  0  0  0  0  0
    1.0594   -0.6318   -1.9741 H   0  0  0  0  0  0  0  0  0  0  0  0
    2.8215   -2.1196   -1.0519 H   0  0  0  0  0  0  0  0  0  0  0  0
    1.1692    1.7248    1.6228 H   0  0  0  0  0  0  0  0  0  0  0  0
   -2.8475    1.4840   -2.1920 H   0  0  0  0  0  0  0  0  0  0  0  0
   -0.6925    3.1668   -1.7760 H   0  0  0  0  0  0  0  0  0  0  0  0
  1  2  1  0
  2  3  2  0
  3  4  1  0
  4  5  1  0
  5  6  2  0
  6  7  1  0
  7  8  2  0
  8  9  1  0
  9 10  2  0
 10 11  1  0
 11 12  2  0
 12 13  1  0
 12 14  1  0
 14 15  1  0
 14 16  2  0
  7 17  1  0
 17 18  1  0
  6  2  1  0
 16  9  1  0
  1 19  1  0
  1 20  1  0
 10 21  1  0
 11 22  1  0
 16 23  1  0
 17 24  1  0
 18 25  1  0
M  END
$$$$
