
     RDKit          3D

 46 48  0  0  0  0  0  0  0  0999 V2000
   -4.4532    2.3182   -1.8191 C   0  0  0  0  0  0  0  0  0  0  0  0
   -3.4810    2.3954   -0.6491 C   0  0  0  0  0  0  0  0  0  0  0  0
   -2.4710    1.2325   -0.6230 C   0  0  0  0  0  0  0  0  0  0  0  0
   -1.3878    1.4788    0.4402 C   0  0  0  0  0  0  0  0  0  0  0  0
   -1.4526    2.3694    1.2829 O   0  0  0  0  0  0  0  0  0  0  0  0
   -0.3087    0.6156    0.3526 N   0  0  0  0  0  0  0  0  0  0  0  0
    0.6980    0.5992    1.4045 C   0  0  0  0  0  0  0  0  0  0  0  0
    1.6061    1.8203    1.4292 C   0  0  0  0  0  0  0  0  0  0  0  0
    2.7462    1.4384    0.5083 C   0  0  0  0  0  0  0  0  0  0  0  0
    2.8757    0.0068    0.6556 N   0  0  0  0  0  0  0  0  0  0  0  0
    4.0103   -0.7144    0.1931 C   0  0  0  0  0  0  0  0  0  0  0  0
    4.1513   -2.0916    0.4207 C   0  0  0  0  0  0  0  0  0  0  0  0
    5.2762   -2.7909   -0.0328 C   0  0  0  0  0  0  0  0  0  0  0  0
    6.2751   -2.1157   -0.7165 C   0  0  0  0  0  0  0  0  0  0  0  0
    7.3539   -2.7821   -1.1480 F   0  0  0  0  0  0  0  0  0  0  0  0
    6.1690   -0.7546   -0.9547 C   0  0  0  0  0  0  0  0  0  0  0  0
    5.0429   -0.0581   -0.5011 C   0  0  0  0  0  0  0  0  0  0  0  0
    1.6744   -0.5480    1.1320 C   0  0  0  0  0  0  0  0  0  0  0  0
    1.3525   -1.7268    1.2120 O   0  0  0  0  0  0  0  0  0  0  0  0
   -3.1409   -0.1174   -0.4162 C   0  0  0  0  0  0  0  0  0  0  0  0
   -3.0878   -1.0914   -1.4259 C   0  0  0  0  0  0  0  0  0  0  0  0
   -3.6905   -2.3371   -1.2399 C   0  0  0  0  0  0  0  0  0  0  0  0
   -4.3533   -2.6225   -0.0470 C   0  0  0  0  0  0  0  0  0  0  0  0
   -4.4145   -1.6631    0.9606 C   0  0  0  0  0  0  0  0  0  0  0  0
   -3.8114   -0.4175    0.7790 C   0  0  0  0  0  0  0  0  0  0  0  0
   -3.9180    2.2640   -2.7727 H   0  0  0  0  0  0  0  0  0  0  0  0
   -5.0889    3.2100   -1.8367 H   0  0  0  0  0  0  0  0  0  0  0  0
   -5.1091    1.4469   -1.7404 H   0  0  0  0  0  0  0  0  0  0  0  0
   -4.0496    2.4451    0.2877 H   0  0  0  0  0  0  0  0  0  0  0  0
   -2.9331    3.3454   -0.7238 H   0  0  0  0  0  0  0  0  0  0  0  0
   -1.9463    1.2305   -1.5889 H   0  0  0  0  0  0  0  0  0  0  0  0
   -0.5083   -0.2880   -0.0689 H   0  0  0  0  0  0  0  0  0  0  0  0
    0.2035    0.4545    2.3711 H   0  0  0  0  0  0  0  0  0  0  0  0
    1.1310    2.7582    1.1285 H   0  0  0  0  0  0  0  0  0  0  0  0
    1.9958    1.9542    2.4469 H   0  0  0  0  0  0  0  0  0  0  0  0
    3.6617    1.9603    0.8024 H   0  0  0  0  0  0  0  0  0  0  0  0
    2.5037    1.6635   -0.5367 H   0  0  0  0  0  0  0  0  0  0  0  0
    3.4031   -2.6587    0.9669 H   0  0  0  0  0  0  0  0  0  0  0  0
    5.3726   -3.8561    0.1513 H   0  0  0  0  0  0  0  0  0  0  0  0
    6.9583   -0.2408   -1.4942 H   0  0  0  0  0  0  0  0  0  0  0  0
    4.9938    1.0040   -0.7228 H   0  0  0  0  0  0  0  0  0  0  0  0
   -2.5816   -0.8874   -2.3677 H   0  0  0  0  0  0  0  0  0  0  0  0
   -3.6446   -3.0865   -2.0272 H   0  0  0  0  0  0  0  0  0  0  0  0
   -4.8234   -3.5926    0.0978 H   0  0  0  0  0  0  0  0  0  0  0  0
   -4.9308   -1.8858    1.8906 H   0  0  0  0  0  0  0  0  0  0  0  0
   -3.8687    0.3159    1.5826 H   0  0  0  0  0  0  0  0  0  0  0  0
  1  2  1  0
  2  3  1  0
  3  4  1  0
  4  5  2  0
  4  6  1  0
  6  7  1  0
  7  8  1  0
  8  9  1  0
  9 10  1  0
 10 11  1  0
 11 12  2  0
 12 13  1  0
 13 14  2  0
 14 15  1  0
 14 16  1  0
 16 17  2  0
 10 18  1  0
 18 19  2  0
  3 20  1  0
 20 21  2  0
 21 22  1  0
 22 23  2  0
 23 24  1  0
 24 25  2  0
 18  7  1  0
 25 20  1  0
 17 11  1  0
  1 26  1  0
  1 27  1  0
  1 28  1  0
  2 29  1  0
  2 30  1  0
  3 31  1  0
  6 32  1  0
  7 33  1  0
  8 34  1  0
  8 35  1  0
  9 36  1  0
  9 37  1  0
 12 38  1  0
 13 39  1  0
 16 40  1  0
 17 41  1  0
 21 42  1  0
 22 43  1  0
 23 44  1  0
 24 45  1  0
 25 46  1  0
M  END
$$$$
