
     RDKit          3D

 45 45  0  0  0  0  0  0  0  0999 V2000
    1.1024   -1.9871    1.6747 C   0  0  0  0  0  0  0  0  0  0  0  0
    0.2787   -1.2058    0.6968 C   0  0  0  0  0  0  0  0  0  0  0  0
   -1.0231   -0.8635    0.9965 C   0  0  0  0  0  0  0  0  0  0  0  0
   -1.7848   -0.1477    0.1042 C   0  0  0  0  0  0  0  0  0  0  0  0
   -3.1876    0.2437    0.3814 C   0  0  0  0  0  0  0  0  0  0  0  0
   -3.3531    1.7464    0.3582 C   0  0  0  0  0  0  0  0  0  0  0  0
   -4.0578   -0.3326   -0.7055 C   0  0  0  0  0  0  0  0  0  0  0  0
   -3.6630   -0.2987    1.7087 C   0  0  0  0  0  0  0  0  0  0  0  0
   -1.1984    0.2063   -1.0827 C   0  0  0  0  0  0  0  0  0  0  0  0
   -1.9501    0.9364   -2.0127 O   0  0  0  0  0  0  0  0  0  0  0  0
    0.1221   -0.1227   -1.4237 C   0  0  0  0  0  0  0  0  0  0  0  0
    0.5660    0.3641   -2.7496 C   0  0  0  0  0  0  0  0  0  0  0  0
    0.8723   -0.8372   -0.5260 C   0  0  0  0  0  0  0  0  0  0  0  0
    2.2540   -1.1970   -0.8340 C   0  0  0  0  0  0  0  0  0  0  0  0
    3.2446   -0.3283   -0.1431 C   0  0  0  0  0  0  0  0  0  0  0  0
    4.1323   -0.7982    0.6603 N   0  0  0  0  0  0  0  0  0  0  0  0
    4.9384    0.2890    1.1662 C   0  0  0  0  0  0  0  0  0  0  0  0
    4.1828    1.5581    0.8353 C   0  0  0  0  0  0  0  0  0  0  0  0
    3.3485    1.0694   -0.2660 N   0  0  0  0  0  0  0  0  0  0  0  0
    0.6848    0.0000    0.0000 Cl  0  0  0  0  0  0  0  0  0  0  0  0
    1.8506   -1.3388    2.1803 H   0  0  0  0  0  0  0  0  0  0  0  0
    0.4161   -2.3233    2.4800 H   0  0  0  0  0  0  0  0  0  0  0  0
    1.5263   -2.9025    1.2397 H   0  0  0  0  0  0  0  0  0  0  0  0
   -1.4224   -1.1768    1.9540 H   0  0  0  0  0  0  0  0  0  0  0  0
   -3.7516    2.1059   -0.6189 H   0  0  0  0  0  0  0  0  0  0  0  0
   -4.0746    2.0668    1.1357 H   0  0  0  0  0  0  0  0  0  0  0  0
   -2.4062    2.2769    0.5753 H   0  0  0  0  0  0  0  0  0  0  0  0
   -4.1705    0.3904   -1.5367 H   0  0  0  0  0  0  0  0  0  0  0  0
   -5.0602   -0.5214   -0.2512 H   0  0  0  0  0  0  0  0  0  0  0  0
   -3.5918   -1.2900   -1.0188 H   0  0  0  0  0  0  0  0  0  0  0  0
   -3.4831   -1.3912    1.7626 H   0  0  0  0  0  0  0  0  0  0  0  0
   -4.7641   -0.1578    1.7333 H   0  0  0  0  0  0  0  0  0  0  0  0
   -3.2257    0.2543    2.5565 H   0  0  0  0  0  0  0  0  0  0  0  0
   -1.6179    1.2409   -2.9027 H   0  0  0  0  0  0  0  0  0  0  0  0
   -0.1807   -0.0791   -3.4795 H   0  0  0  0  0  0  0  0  0  0  0  0
    1.5319    0.0604   -3.0987 H   0  0  0  0  0  0  0  0  0  0  0  0
    0.4003    1.4650   -2.8299 H   0  0  0  0  0  0  0  0  0  0  0  0
    2.4389   -1.1088   -1.9148 H   0  0  0  0  0  0  0  0  0  0  0  0
    2.3804   -2.2599   -0.4900 H   0  0  0  0  0  0  0  0  0  0  0  0
    5.9156    0.3305    0.6366 H   0  0  0  0  0  0  0  0  0  0  0  0
    5.0970    0.1282    2.2359 H   0  0  0  0  0  0  0  0  0  0  0  0
    3.5886    1.8352    1.7140 H   0  0  0  0  0  0  0  0  0  0  0  0
    4.8375    2.3889    0.5290 H   0  0  0  0  0  0  0  0  0  0  0  0
    2.9412    1.7114   -0.9755 H   0  0  0  0  0  0  0  0  0  0  0  0
   -0.6848    0.0000    0.0000 H   0  0  0  0  0  0  0  0  0  0  0  0
  1  2  1  0
  2  3  2  0
  3  4  1  0
  4  5  1  0
  5  6  1  0
  5  7  1  0
  5  8  1  0
  4  9  2  0
  9 10  1  0
  9 11  1  0
 11 12  1  0
 11 13  2  0
 13 14  1  0
 14 15  1  0
 15 16  2  0
 16 17  1  0
 17 18  1  0
 18 19  1  0
 13  2  1  0
 19 15  1  0
  1 21  1  0
  1 22  1  0
  1 23  1  0
  3 24  1  0
  6 25  1  0
  6 26  1  0
  6 27  1  0
  7 28  1  0
  7 29  1  0
  7 30  1  0
  8 31  1  0
  8 32  1  0
  8 33  1  0
 10 34  1  0
 12 35  1  0
 12 36  1  0
 12 37  1  0
 14 38  1  0
 14 39  1  0
 17 40  1  0
 17 41  1  0
 18 42  1  0
 18 43  1  0
 19 44  1  0
 20 45  1  0
M  END
$$$$
