
     RDKit          3D

 51 54  0  0  0  0  0  0  0  0999 V2000
    0.1317    1.5597   -0.3133 C   0  0  0  0  0  0  0  0  0  0  0  0
    0.8524    0.8131    0.7509 C   0  0  0  0  0  0  0  0  0  0  0  0
    2.2222    0.6396    0.6182 N   0  0  0  0  0  0  0  0  0  0  0  0
    2.6914    0.0549    1.6915 C   0  0  0  0  0  0  0  0  0  0  0  0
    4.0930   -0.2623    1.8138 N   0  0  0  0  0  0  0  0  0  0  0  0
    5.0605    1.0982    2.0241 S   0  0  0  0  0  6  0  0  0  0  0  0
    6.0311    0.7149    3.0303 O   0  0  0  0  0  0  0  0  0  0  0  0
    4.2723    2.3004    2.1883 O   0  0  0  0  0  0  0  0  0  0  0  0
    5.9050    1.1828    0.4667 C   0  0  0  0  0  0  0  0  0  0  0  0
    5.2577    1.7605   -0.6302 C   0  0  0  0  0  0  0  0  0  0  0  0
    5.9194    1.8378   -1.8572 C   0  0  0  0  0  0  0  0  0  0  0  0
    7.2225    1.3503   -1.9801 C   0  0  0  0  0  0  0  0  0  0  0  0
    7.8702    0.7884   -0.8771 C   0  0  0  0  0  0  0  0  0  0  0  0
    7.2151    0.7066    0.3526 C   0  0  0  0  0  0  0  0  0  0  0  0
    1.5503   -0.4377    2.8563 S   0  0  0  0  0  0  0  0  0  0  0  0
    0.3099    0.2361    1.8873 C   0  0  0  0  0  0  0  0  0  0  0  0
   -1.0597    0.1974    2.3366 C   0  0  0  0  0  0  0  0  0  0  0  0
   -1.4467    0.8930    3.2742 O   0  0  0  0  0  0  0  0  0  0  0  0
   -1.9378   -0.6415    1.6524 N   0  0  0  0  0  0  0  0  0  0  0  0
   -3.3562   -0.6115    2.0372 C   0  0  0  0  0  0  0  0  0  0  0  0
   -4.1570   -1.8009    1.4846 C   0  0  0  0  0  0  0  0  0  0  0  0
   -3.9967   -1.9563    0.0218 N   0  0  0  0  0  0  0  0  0  0  0  0
   -4.9861   -1.2954   -0.7354 C   0  0  0  0  0  0  0  0  0  0  0  0
   -5.1333   -1.6009   -2.0902 C   0  0  0  0  0  0  0  0  0  0  0  0
   -6.1032   -0.9499   -2.8511 C   0  0  0  0  0  0  0  0  0  0  0  0
   -6.9136   -0.0025   -2.2441 C   0  0  0  0  0  0  0  0  0  0  0  0
   -6.7140    0.2476   -0.9005 C   0  0  0  0  0  0  0  0  0  0  0  0
   -5.7783   -0.3735   -0.1464 N   0  0  0  0  0  0  0  0  0  0  0  0
   -2.6352   -1.6900   -0.5001 C   0  0  0  0  0  0  0  0  0  0  0  0
   -1.5755   -1.6225    0.6153 C   0  0  0  0  0  0  0  0  0  0  0  0
   -0.0432    0.9051   -1.1776 H   0  0  0  0  0  0  0  0  0  0  0  0
   -0.8384    1.9347    0.0395 H   0  0  0  0  0  0  0  0  0  0  0  0
    0.7271    2.4208   -0.6416 H   0  0  0  0  0  0  0  0  0  0  0  0
    4.2991   -0.9296    2.5517 H   0  0  0  0  0  0  0  0  0  0  0  0
    4.2423    2.1428   -0.5377 H   0  0  0  0  0  0  0  0  0  0  0  0
    5.4201    2.2793   -2.7173 H   0  0  0  0  0  0  0  0  0  0  0  0
    7.7368    1.4115   -2.9370 H   0  0  0  0  0  0  0  0  0  0  0  0
    8.8874    0.4176   -0.9776 H   0  0  0  0  0  0  0  0  0  0  0  0
    7.7302    0.2750    1.2074 H   0  0  0  0  0  0  0  0  0  0  0  0
   -3.4315   -0.5941    3.1297 H   0  0  0  0  0  0  0  0  0  0  0  0
   -3.7628    0.3351    1.6636 H   0  0  0  0  0  0  0  0  0  0  0  0
   -3.7780   -2.7232    1.9449 H   0  0  0  0  0  0  0  0  0  0  0  0
   -5.2086   -1.7432    1.7927 H   0  0  0  0  0  0  0  0  0  0  0  0
   -4.5112   -2.3614   -2.5511 H   0  0  0  0  0  0  0  0  0  0  0  0
   -6.2285   -1.1957   -3.9015 H   0  0  0  0  0  0  0  0  0  0  0  0
   -7.6814    0.5231   -2.8008 H   0  0  0  0  0  0  0  0  0  0  0  0
   -7.3175    0.9797   -0.3746 H   0  0  0  0  0  0  0  0  0  0  0  0
   -2.6028   -0.7334   -1.0402 H   0  0  0  0  0  0  0  0  0  0  0  0
   -2.3620   -2.4814   -1.2083 H   0  0  0  0  0  0  0  0  0  0  0  0
   -0.5998   -1.4065    0.1759 H   0  0  0  0  0  0  0  0  0  0  0  0
   -1.4886   -2.5928    1.1195 H   0  0  0  0  0  0  0  0  0  0  0  0
  1  2  1  0
  2  3  1  0
  3  4  2  0
  4  5  1  0
  5  6  1  0
  6  7  2  0
  6  8  2  0
  6  9  1  0
  9 10  2  0
 10 11  1  0
 11 12  2  0
 12 13  1  0
 13 14  2  0
  4 15  1  0
 15 16  1  0
 16 17  1  0
 17 18  2  0
 17 19  1  0
 19 20  1  0
 20 21  1  0
 21 22  1  0
 22 23  1  0
 23 24  2  0
 24 25  1  0
 25 26  2  0
 26 27  1  0
 27 28  2  0
 22 29  1  0
 29 30  1  0
 16  2  2  0
 30 19  1  0
 14  9  1  0
 28 23  1  0
  1 31  1  0
  1 32  1  0
  1 33  1  0
  5 34  1  0
 10 35  1  0
 11 36  1  0
 12 37  1  0
 13 38  1  0
 14 39  1  0
 20 40  1  0
 20 41  1  0
 21 42  1  0
 21 43  1  0
 24 44  1  0
 25 45  1  0
 26 46  1  0
 27 47  1  0
 29 48  1  0
 29 49  1  0
 30 50  1  0
 30 51  1  0
M  END
$$$$
