
     RDKit          3D

 48 52  0  0  0  0  0  0  0  0999 V2000
    3.6849    3.6657    0.5327 N   0  0  0  0  0  0  0  0  0  0  0  0
    3.7916    2.5091    0.4972 C   0  0  0  0  0  0  0  0  0  0  0  0
    3.9575    1.0420    0.4264 C   0  0  2  0  0  0  0  0  0  0  0  0
    5.1820    0.6691   -0.4453 C   0  0  0  0  0  0  0  0  0  0  0  0
    4.6142    0.2424   -1.7765 C   0  0  1  0  0  0  0  0  0  0  0  0
    3.9742   -1.1071   -1.9584 C   0  0  0  0  0  0  0  0  0  0  0  0
    3.1277    0.0747   -1.5972 C   0  0  1  0  0  0  0  0  0  0  0  0
    2.8068    0.4110   -0.2415 N   0  0  0  0  0  0  0  0  0  0  0  0
    1.6518    0.1072    0.4530 C   0  0  0  0  0  0  0  0  0  0  0  0
    1.5532    0.3724    1.6526 O   0  0  0  0  0  0  0  0  0  0  0  0
    0.5350   -0.6425   -0.3331 C   0  0  1  0  0  0  0  0  0  0  0  0
    0.8689   -2.0841   -0.3003 N   0  0  0  0  0  0  0  0  0  0  0  0
   -0.9245   -0.3249    0.1427 C   0  0  1  0  0  0  0  0  0  0  0  0
   -1.1613    1.2153    0.1451 C   0  0  0  0  0  0  0  0  0  0  0  0
   -2.6062    1.5602    0.5439 C   0  0  2  0  0  0  0  0  0  0  0  0
   -2.8906    0.9985    1.9461 C   0  0  0  0  0  0  0  0  0  0  0  0
   -2.7159   -0.5287    1.9496 C   0  0  1  0  0  0  0  0  0  0  0  0
   -3.6847   -1.1515    0.9355 C   0  0  0  0  0  0  0  0  0  0  0  0
   -3.3955   -0.5962   -0.4672 C   0  0  1  0  0  0  0  0  0  0  0  0
   -4.2774   -1.1857   -1.4121 O   0  0  0  0  0  0  0  0  0  0  0  0
   -3.5732    0.9286   -0.4649 C   0  0  0  0  0  0  0  0  0  0  0  0
   -1.9492   -0.9414   -0.8592 C   0  0  0  0  0  0  0  0  0  0  0  0
   -1.2685   -0.8799    1.5537 C   0  0  0  0  0  0  0  0  0  0  0  0
    4.0725    0.6368    1.4381 H   0  0  0  0  0  0  0  0  0  0  0  0
    5.8966    1.4919   -0.5554 H   0  0  0  0  0  0  0  0  0  0  0  0
    5.7147   -0.1787    0.0019 H   0  0  0  0  0  0  0  0  0  0  0  0
    4.9798    0.7932   -2.6307 H   0  0  0  0  0  0  0  0  0  0  0  0
    3.8857   -1.4987   -2.9657 H   0  0  0  0  0  0  0  0  0  0  0  0
    4.1266   -1.8738   -1.2071 H   0  0  0  0  0  0  0  0  0  0  0  0
    2.4891    0.5189   -2.3539 H   0  0  0  0  0  0  0  0  0  0  0  0
    0.5975   -0.3214   -1.3789 H   0  0  0  0  0  0  0  0  0  0  0  0
    0.8591   -2.4012    0.6700 H   0  0  0  0  0  0  0  0  0  0  0  0
    0.1521   -2.6209   -0.7833 H   0  0  0  0  0  0  0  0  0  0  0  0
   -0.4809    1.7140    0.8448 H   0  0  0  0  0  0  0  0  0  0  0  0
   -0.9465    1.6291   -0.8489 H   0  0  0  0  0  0  0  0  0  0  0  0
   -2.7372    2.6481    0.5486 H   0  0  0  0  0  0  0  0  0  0  0  0
   -2.2126    1.4549    2.6778 H   0  0  0  0  0  0  0  0  0  0  0  0
   -3.9112    1.2585    2.2526 H   0  0  0  0  0  0  0  0  0  0  0  0
   -2.9281   -0.9216    2.9504 H   0  0  0  0  0  0  0  0  0  0  0  0
   -4.7240   -0.9414    1.2197 H   0  0  0  0  0  0  0  0  0  0  0  0
   -3.5932   -2.2454    0.9365 H   0  0  0  0  0  0  0  0  0  0  0  0
   -5.1873   -0.9552   -1.1566 H   0  0  0  0  0  0  0  0  0  0  0  0
   -4.6101    1.1896   -0.2165 H   0  0  0  0  0  0  0  0  0  0  0  0
   -3.3993    1.3320   -1.4708 H   0  0  0  0  0  0  0  0  0  0  0  0
   -1.8503   -2.0331   -0.9072 H   0  0  0  0  0  0  0  0  0  0  0  0
   -1.7498   -0.5857   -1.8794 H   0  0  0  0  0  0  0  0  0  0  0  0
   -0.5933   -0.4741    2.3133 H   0  0  0  0  0  0  0  0  0  0  0  0
   -1.1507   -1.9700    1.5782 H   0  0  0  0  0  0  0  0  0  0  0  0
  1  2  3  0
  2  3  1  0
  3  4  1  0
  4  5  1  0
  5  6  1  0
  6  7  1  0
  7  8  1  0
  8  9  1  0
  9 10  2  0
  9 11  1  0
 11 12  1  0
 11 13  1  0
 13 14  1  1
 14 15  1  0
 15 16  1  0
 16 17  1  0
 17 18  1  0
 18 19  1  0
 19 20  1  6
 19 21  1  0
 19 22  1  0
 17 23  1  0
  8  3  1  0
 22 13  1  0
  7  5  1  0
 23 13  1  0
 21 15  1  0
  3 24  1  1
  4 25  1  0
  4 26  1  0
  5 27  1  6
  6 28  1  0
  6 29  1  0
  7 30  1  6
 11 31  1  6
 12 32  1  0
 12 33  1  0
 14 34  1  0
 14 35  1  0
 15 36  1  1
 16 37  1  0
 16 38  1  0
 17 39  1  1
 18 40  1  0
 18 41  1  0
 20 42  1  0
 21 43  1  0
 21 44  1  0
 22 45  1  0
 22 46  1  0
 23 47  1  0
 23 48  1  0
M  END
$$$$
