
     RDKit          3D

 45 45  0  0  0  0  0  0  0  0999 V2000
    4.9345    2.8476    0.8285 C   0  0  0  0  0  0  0  0  0  0  0  0
    3.8747    1.8209    0.7393 C   0  0  0  0  0  0  0  0  0  0  0  0
    2.8098    2.0479    1.3650 O   0  0  0  0  0  0  0  0  0  0  0  0
    4.0127    0.5963   -0.0210 C   0  0  0  0  0  0  0  0  0  0  0  0
    5.1606    0.3186   -0.7171 C   0  0  0  0  0  0  0  0  0  0  0  0
    5.3314   -0.8325   -1.4511 C   0  0  0  0  0  0  0  0  0  0  0  0
    4.2924   -1.7273   -1.4721 C   0  0  0  0  0  0  0  0  0  0  0  0
    3.1129   -1.4677   -0.7707 C   0  0  0  0  0  0  0  0  0  0  0  0
    2.9375   -0.3101   -0.0319 C   0  0  0  0  0  0  0  0  0  0  0  0
    1.8565    0.0365    0.6759 O   0  0  0  0  0  0  0  0  0  0  0  0
    0.6220   -0.4458    0.9533 C   0  0  0  0  0  0  0  0  0  0  0  0
   -0.3776   -0.5695   -0.1662 C   0  0  0  0  0  0  0  0  0  0  0  0
   -0.0614   -1.3740   -1.2041 O   0  0  0  0  0  0  0  0  0  0  0  0
   -1.7048   -0.9512    0.4949 C   0  0  0  0  0  0  0  0  0  0  0  0
   -2.8004   -0.8670   -0.4676 N   0  0  0  0  0  0  0  0  0  0  0  0
   -3.0210    0.5089   -0.8238 C   0  0  0  0  0  0  0  0  0  0  0  0
   -4.4999    0.7417   -1.1426 C   0  0  0  0  0  0  0  0  0  0  0  0
   -5.3266    0.7015    0.1307 C   0  0  0  0  0  0  0  0  0  0  0  0
   -4.5549   -0.1882    1.1034 C   0  0  0  0  0  0  0  0  0  0  0  0
   -3.9880   -1.3265    0.2635 C   0  0  0  0  0  0  0  0  0  0  0  0
    0.6879    0.0000    0.0000 Cl  0  0  0  0  0  0  0  0  0  0  0  0
    5.9187    2.3126    0.8421 H   0  0  0  0  0  0  0  0  0  0  0  0
    4.8677    3.6096    0.0298 H   0  0  0  0  0  0  0  0  0  0  0  0
    4.8011    3.4009    1.7869 H   0  0  0  0  0  0  0  0  0  0  0  0
    5.9967    1.0183   -0.7136 H   0  0  0  0  0  0  0  0  0  0  0  0
    6.2681   -1.0166   -1.9942 H   0  0  0  0  0  0  0  0  0  0  0  0
    4.3819   -2.6327   -2.0290 H   0  0  0  0  0  0  0  0  0  0  0  0
    2.3167   -2.2087   -0.7847 H   0  0  0  0  0  0  0  0  0  0  0  0
    0.1816    0.1799    1.7908 H   0  0  0  0  0  0  0  0  0  0  0  0
    0.6456   -1.4788    1.4395 H   0  0  0  0  0  0  0  0  0  0  0  0
   -0.5702    0.4664   -0.5957 H   0  0  0  0  0  0  0  0  0  0  0  0
   -0.1120   -2.3491   -0.9747 H   0  0  0  0  0  0  0  0  0  0  0  0
   -1.6293   -1.9903    0.8712 H   0  0  0  0  0  0  0  0  0  0  0  0
   -1.8405   -0.2539    1.3456 H   0  0  0  0  0  0  0  0  0  0  0  0
   -2.6913    1.1347    0.0309 H   0  0  0  0  0  0  0  0  0  0  0  0
   -2.4263    0.8088   -1.6958 H   0  0  0  0  0  0  0  0  0  0  0  0
   -4.6500    1.6769   -1.6981 H   0  0  0  0  0  0  0  0  0  0  0  0
   -4.8132   -0.1154   -1.7815 H   0  0  0  0  0  0  0  0  0  0  0  0
   -5.4870    1.7131    0.5468 H   0  0  0  0  0  0  0  0  0  0  0  0
   -6.3042    0.1963   -0.0367 H   0  0  0  0  0  0  0  0  0  0  0  0
   -3.7586    0.3847    1.6122 H   0  0  0  0  0  0  0  0  0  0  0  0
   -5.2223   -0.5866    1.8718 H   0  0  0  0  0  0  0  0  0  0  0  0
   -3.6845   -2.1909    0.8815 H   0  0  0  0  0  0  0  0  0  0  0  0
   -4.7993   -1.6391   -0.4266 H   0  0  0  0  0  0  0  0  0  0  0  0
   -0.6879    0.0000    0.0000 H   0  0  0  0  0  0  0  0  0  0  0  0
  1  2  1  0
  2  3  2  0
  2  4  1  0
  4  5  2  0
  5  6  1  0
  6  7  2  0
  7  8  1  0
  8  9  2  0
  9 10  1  0
 10 11  1  0
 11 12  1  0
 12 13  1  0
 12 14  1  0
 14 15  1  0
 15 16  1  0
 16 17  1  0
 17 18  1  0
 18 19  1  0
 19 20  1  0
  9  4  1  0
 20 15  1  0
  1 22  1  0
  1 23  1  0
  1 24  1  0
  5 25  1  0
  6 26  1  0
  7 27  1  0
  8 28  1  0
 11 29  1  0
 11 30  1  0
 12 31  1  0
 13 32  1  0
 14 33  1  0
 14 34  1  0
 16 35  1  0
 16 36  1  0
 17 37  1  0
 17 38  1  0
 18 39  1  0
 18 40  1  0
 19 41  1  0
 19 42  1  0
 20 43  1  0
 20 44  1  0
 21 45  1  0
M  END
$$$$
