
     RDKit          3D

 78 83  0  0  0  0  0  0  0  0999 V2000
   -3.1524    0.4578   -0.1307 C   0  0  0  0  0  0  0  0  0  0  0  0
   -1.6804    0.1966    0.0047 C   0  0  0  0  0  0  0  0  0  0  0  0
   -0.9961   -0.5077   -0.9956 C   0  0  0  0  0  0  0  0  0  0  0  0
    0.3774   -0.7319   -0.8886 C   0  0  0  0  0  0  0  0  0  0  0  0
    1.0678   -0.2451    0.2228 C   0  0  0  0  0  0  0  0  0  0  0  0
    2.8126   -0.5091    0.3468 S   0  0  0  0  0  6  0  0  0  0  0  0
    3.3922    0.6045    1.0677 O   0  0  0  0  0  0  0  0  0  0  0  0
    3.0246   -1.8784    0.7544 O   0  0  0  0  0  0  0  0  0  0  0  0
    3.3627   -0.3508   -1.1626 O   0  0  0  0  0  0  0  0  0  0  0  0
    0.4051    0.4756    1.2176 C   0  0  0  0  0  0  0  0  0  0  0  0
   -0.9685    0.6968    1.1041 C   0  0  0  0  0  0  0  0  0  0  0  0
   -2.7299   -5.9866   -0.9100 C   0  0  0  0  0  0  0  0  0  0  0  0
   -2.0968   -4.7211   -0.6684 N   0  0  0  0  0  0  0  0  0  0  0  0
   -2.6982   -3.6138   -0.0377 C   0  0  0  0  0  0  0  0  0  0  0  0
   -3.8347   -3.5850    0.4127 O   0  0  0  0  0  0  0  0  0  0  0  0
   -1.7395   -2.5496   -0.1096 N   0  0  0  0  0  0  0  0  0  0  0  0
   -2.1147   -1.1984    0.0490 C   0  0  0  0  0  0  0  0  0  0  0  0
   -1.7940   -0.2215   -0.8978 C   0  0  0  0  0  0  0  0  0  0  0  0
   -2.2394    1.0986   -0.7475 C   0  0  0  0  0  0  0  0  0  0  0  0
   -3.0247    1.4898    0.3542 C   0  0  0  0  0  0  0  0  0  0  0  0
   -3.5448    2.9364    0.4661 C   0  0  0  0  0  0  0  0  0  0  0  0
   -4.0409    3.3092    1.8810 C   0  0  0  0  0  0  0  0  0  0  0  0
   -4.7263    3.0973   -0.5133 C   0  0  0  0  0  0  0  0  0  0  0  0
   -2.4917    3.9243    0.1023 C   0  0  0  0  0  0  0  0  0  0  0  0
   -1.6859    4.7009   -0.2058 N   0  0  0  0  0  0  0  0  0  0  0  0
   -3.3606    0.4948    1.2850 C   0  0  0  0  0  0  0  0  0  0  0  0
   -2.9199   -0.8265    1.1285 C   0  0  0  0  0  0  0  0  0  0  0  0
   -0.5717   -3.0315   -0.7600 C   0  0  0  0  0  0  0  0  0  0  0  0
    0.6997   -2.4749   -0.9849 C   0  0  0  0  0  0  0  0  0  0  0  0
    1.1825   -1.2454   -0.4594 C   0  0  0  0  0  0  0  0  0  0  0  0
    2.4686   -0.7579   -0.7445 C   0  0  0  0  0  0  0  0  0  0  0  0
    2.9472    0.5186   -0.1909 C   0  0  0  0  0  0  0  0  0  0  0  0
    2.1736    1.6762   -0.2159 C   0  0  0  0  0  0  0  0  0  0  0  0
    2.5572    2.8807    0.2737 N   0  0  0  0  0  0  0  0  0  0  0  0
    3.7762    2.9786    0.8254 C   0  0  0  0  0  0  0  0  0  0  0  0
    4.2017    4.1983    1.3337 C   0  0  0  0  0  0  0  0  0  0  0  0
    5.4624    4.3515    1.9182 C   0  0  0  0  0  0  0  0  0  0  0  0
    6.3228    3.2633    2.0013 C   0  0  0  0  0  0  0  0  0  0  0  0
    5.9198    2.0274    1.4987 C   0  0  0  0  0  0  0  0  0  0  0  0
    4.6511    1.8776    0.9098 C   0  0  0  0  0  0  0  0  0  0  0  0
    4.2133    0.6469    0.3931 C   0  0  0  0  0  0  0  0  0  0  0  0
    3.2826   -1.5434   -1.5659 C   0  0  0  0  0  0  0  0  0  0  0  0
    2.8397   -2.7808   -2.0442 C   0  0  0  0  0  0  0  0  0  0  0  0
    1.5798   -3.2755   -1.7511 C   0  0  0  0  0  0  0  0  0  0  0  0
    1.2766   -4.5154   -2.1940 N   0  0  0  0  0  0  0  0  0  0  0  0
    0.0868   -5.0550   -1.8554 C   0  0  0  0  0  0  0  0  0  0  0  0
   -0.8355   -4.3475   -1.1360 C   0  0  0  0  0  0  0  0  0  0  0  0
   -3.3189    1.3461   -0.7479 H   0  0  0  0  0  0  0  0  0  0  0  0
   -3.6559   -0.3982   -0.5919 H   0  0  0  0  0  0  0  0  0  0  0  0
   -3.6154    0.6165    0.8486 H   0  0  0  0  0  0  0  0  0  0  0  0
   -1.5319   -0.8877   -1.8631 H   0  0  0  0  0  0  0  0  0  0  0  0
    0.8968   -1.2863   -1.6665 H   0  0  0  0  0  0  0  0  0  0  0  0
    4.1168    0.2750   -1.1327 H   0  0  0  0  0  0  0  0  0  0  0  0
    0.9451    0.8653    2.0773 H   0  0  0  0  0  0  0  0  0  0  0  0
   -1.4818    1.2609    1.8808 H   0  0  0  0  0  0  0  0  0  0  0  0
   -2.0843   -6.7916   -0.5476 H   0  0  0  0  0  0  0  0  0  0  0  0
   -3.6914   -6.0381   -0.3920 H   0  0  0  0  0  0  0  0  0  0  0  0
   -2.9000   -6.1030   -1.9843 H   0  0  0  0  0  0  0  0  0  0  0  0
   -1.2367   -0.4746   -1.7960 H   0  0  0  0  0  0  0  0  0  0  0  0
   -1.9763    1.8147   -1.5258 H   0  0  0  0  0  0  0  0  0  0  0  0
   -4.9211    2.7244    2.1730 H   0  0  0  0  0  0  0  0  0  0  0  0
   -3.2604    3.1473    2.6346 H   0  0  0  0  0  0  0  0  0  0  0  0
   -4.3277    4.3669    1.9364 H   0  0  0  0  0  0  0  0  0  0  0  0
   -5.1533    4.1064   -0.4594 H   0  0  0  0  0  0  0  0  0  0  0  0
   -5.5291    2.3820   -0.2935 H   0  0  0  0  0  0  0  0  0  0  0  0
   -4.4167    2.9370   -1.5534 H   0  0  0  0  0  0  0  0  0  0  0  0
   -3.9898    0.7064    2.1455 H   0  0  0  0  0  0  0  0  0  0  0  0
   -3.2184   -1.5647    1.8709 H   0  0  0  0  0  0  0  0  0  0  0  0
    0.5586   -0.6793    0.2294 H   0  0  0  0  0  0  0  0  0  0  0  0
    1.1802    1.6813   -0.6584 H   0  0  0  0  0  0  0  0  0  0  0  0
    3.5305    5.0516    1.2716 H   0  0  0  0  0  0  0  0  0  0  0  0
    5.7633    5.3206    2.3063 H   0  0  0  0  0  0  0  0  0  0  0  0
    7.3039    3.3765    2.4552 H   0  0  0  0  0  0  0  0  0  0  0  0
    6.5984    1.1806    1.5692 H   0  0  0  0  0  0  0  0  0  0  0  0
    4.8661   -0.2205    0.4605 H   0  0  0  0  0  0  0  0  0  0  0  0
    4.2832   -1.2105   -1.8371 H   0  0  0  0  0  0  0  0  0  0  0  0
    3.5115   -3.3835   -2.6529 H   0  0  0  0  0  0  0  0  0  0  0  0
   -0.0830   -6.0704   -2.1928 H   0  0  0  0  0  0  0  0  0  0  0  0
  1  2  1  0
  2  3  2  0
  3  4  1  0
  4  5  2  0
  5  6  1  0
  6  7  2  0
  6  8  2  0
  6  9  1  0
  5 10  1  0
 10 11  2  0
 12 13  1  0
 13 14  1  0
 14 15  2  0
 14 16  1  0
 16 17  1  0
 17 18  2  0
 18 19  1  0
 19 20  2  0
 20 21  1  0
 21 22  1  0
 21 23  1  0
 21 24  1  0
 24 25  3  0
 20 26  1  0
 26 27  2  0
 16 28  1  0
 28 29  2  0
 29 30  1  0
 30 31  2  0
 31 32  1  0
 32 33  2  0
 33 34  1  0
 34 35  2  0
 35 36  1  0
 36 37  2  0
 37 38  1  0
 38 39  2  0
 39 40  1  0
 40 41  2  0
 31 42  1  0
 42 43  2  0
 43 44  1  0
 44 45  2  0
 45 46  1  0
 46 47  2  0
 11  2  1  0
 47 13  1  0
 27 17  1  0
 47 28  1  0
 44 29  1  0
 41 32  1  0
 40 35  1  0
  1 48  1  0
  1 49  1  0
  1 50  1  0
  3 51  1  0
  4 52  1  0
  9 53  1  0
 10 54  1  0
 11 55  1  0
 12 56  1  0
 12 57  1  0
 12 58  1  0
 18 59  1  0
 19 60  1  0
 22 61  1  0
 22 62  1  0
 22 63  1  0
 23 64  1  0
 23 65  1  0
 23 66  1  0
 26 67  1  0
 27 68  1  0
 30 69  1  0
 33 70  1  0
 36 71  1  0
 37 72  1  0
 38 73  1  0
 39 74  1  0
 41 75  1  0
 42 76  1  0
 43 77  1  0
 46 78  1  0
M  END
$$$$
