
     RDKit          3D

 41 43  0  0  0  0  0  0  0  0999 V2000
   -1.0632   -3.8380    0.9477 C   0  0  0  0  0  0  0  0  0  0  0  0
   -1.2486   -2.4874    0.3621 C   0  0  0  0  0  0  0  0  0  0  0  0
   -2.4138   -1.8585    0.4921 N   0  0  0  0  0  0  0  0  0  0  0  0
   -2.2298   -0.6236   -0.0453 N   0  0  0  0  0  0  0  0  0  0  0  0
   -3.2553    0.3573    0.1271 C   0  0  0  0  0  0  0  0  0  0  0  0
   -4.5292   -0.0638    0.5406 C   0  0  0  0  0  0  0  0  0  0  0  0
   -5.5613    0.8562    0.7250 C   0  0  0  0  0  0  0  0  0  0  0  0
   -5.3313    2.2085    0.5141 C   0  0  0  0  0  0  0  0  0  0  0  0
   -4.0677    2.6419    0.1295 C   0  0  0  0  0  0  0  0  0  0  0  0
   -3.0316    1.7231   -0.0591 C   0  0  0  0  0  0  0  0  0  0  0  0
   -1.0009   -0.5555   -0.7014 C   0  0  0  0  0  0  0  0  0  0  0  0
   -0.5573    0.5551   -1.5825 C   0  0  0  0  0  0  0  0  0  0  0  0
   -0.3234   -1.7278   -0.3884 C   0  0  0  0  0  0  0  0  0  0  0  0
    1.0602   -2.1364   -0.7772 C   0  0  0  0  0  0  0  0  0  0  0  0
    2.1095   -1.4079    0.0504 C   0  0  0  0  0  0  0  0  0  0  0  0
    2.3045   -1.6935    1.2304 O   0  0  0  0  0  0  0  0  0  0  0  0
    2.7719   -0.4397   -0.6641 N   0  0  0  0  0  0  0  0  0  0  0  0
    3.7308    0.4698   -0.2168 C   0  0  0  0  0  0  0  0  0  0  0  0
    4.1473    0.5843    1.1024 C   0  0  0  0  0  0  0  0  0  0  0  0
    5.1034    1.5423    1.4232 C   0  0  0  0  0  0  0  0  0  0  0  0
    5.6169    2.3565    0.4186 C   0  0  0  0  0  0  0  0  0  0  0  0
    5.1450    2.1755   -0.8699 C   0  0  0  0  0  0  0  0  0  0  0  0
    4.2139    1.2561   -1.2057 N   0  0  0  0  0  0  0  0  0  0  0  0
   -0.2690   -3.8187    1.6928 H   0  0  0  0  0  0  0  0  0  0  0  0
   -1.9736   -4.1957    1.4272 H   0  0  0  0  0  0  0  0  0  0  0  0
   -0.7920   -4.5548    0.1711 H   0  0  0  0  0  0  0  0  0  0  0  0
   -4.7374   -1.1161    0.7129 H   0  0  0  0  0  0  0  0  0  0  0  0
   -6.5416    0.5101    1.0364 H   0  0  0  0  0  0  0  0  0  0  0  0
   -6.1312    2.9255    0.6615 H   0  0  0  0  0  0  0  0  0  0  0  0
   -3.8810    3.7005   -0.0108 H   0  0  0  0  0  0  0  0  0  0  0  0
   -2.0585    2.1242   -0.3027 H   0  0  0  0  0  0  0  0  0  0  0  0
    0.2003    0.2079   -2.2892 H   0  0  0  0  0  0  0  0  0  0  0  0
   -1.3790    0.9509   -2.1867 H   0  0  0  0  0  0  0  0  0  0  0  0
   -0.1082    1.3586   -0.9923 H   0  0  0  0  0  0  0  0  0  0  0  0
    1.2120   -3.2097   -0.6183 H   0  0  0  0  0  0  0  0  0  0  0  0
    1.2190   -1.9665   -1.8457 H   0  0  0  0  0  0  0  0  0  0  0  0
    2.5866   -0.3241   -1.6525 H   0  0  0  0  0  0  0  0  0  0  0  0
    3.7462   -0.0371    1.8929 H   0  0  0  0  0  0  0  0  0  0  0  0
    5.4414    1.6510    2.4516 H   0  0  0  0  0  0  0  0  0  0  0  0
    6.3616    3.1146    0.6353 H   0  0  0  0  0  0  0  0  0  0  0  0
    5.5142    2.7848   -1.6947 H   0  0  0  0  0  0  0  0  0  0  0  0
  1  2  1  0
  2  3  2  0
  3  4  1  0
  4  5  1  0
  5  6  2  0
  6  7  1  0
  7  8  2  0
  8  9  1  0
  9 10  2  0
  4 11  1  0
 11 12  1  0
 11 13  2  0
 13 14  1  0
 14 15  1  0
 15 16  2  0
 15 17  1  0
 17 18  1  0
 18 19  2  0
 19 20  1  0
 20 21  2  0
 21 22  1  0
 22 23  2  0
 13  2  1  0
 23 18  1  0
 10  5  1  0
  1 24  1  0
  1 25  1  0
  1 26  1  0
  6 27  1  0
  7 28  1  0
  8 29  1  0
  9 30  1  0
 10 31  1  0
 12 32  1  0
 12 33  1  0
 12 34  1  0
 14 35  1  0
 14 36  1  0
 17 37  1  0
 19 38  1  0
 20 39  1  0
 21 40  1  0
 22 41  1  0
M  END
$$$$
