
     RDKit          3D

 58 59  0  0  0  0  0  0  0  0999 V2000
   -4.0607   -0.2329    1.9190 C   0  0  0  0  0  0  0  0  0  0  0  0
   -3.9049   -0.6417    0.4457 C   0  0  0  0  0  0  0  0  0  0  0  0
   -3.4391   -2.1023    0.3807 C   0  0  0  0  0  0  0  0  0  0  0  0
   -2.9555    0.3445   -0.3717 N   0  0  0  0  0  4  0  0  0  0  0  0
   -3.0581   -0.0111   -1.8710 C   0  0  0  0  0  0  0  0  0  0  0  0
   -1.4742    0.2292    0.1546 C   0  0  0  0  0  0  0  0  0  0  0  0
   -0.5425   -0.6883   -0.6482 C   0  0  0  0  0  0  0  0  0  0  0  0
    0.7149   -0.7421    0.0406 O   0  0  0  0  0  0  0  0  0  0  0  0
    1.6485   -1.5494   -0.5504 C   0  0  0  0  0  0  0  0  0  0  0  0
    1.3898   -2.2395   -1.5332 O   0  0  0  0  0  0  0  0  0  0  0  0
    3.0135   -1.5095    0.1551 C   0  0  0  0  0  0  0  0  0  0  0  0
    4.1068   -1.2114   -0.8477 C   0  0  0  0  0  0  0  0  0  0  0  0
    4.6124   -2.2025   -1.7033 C   0  0  0  0  0  0  0  0  0  0  0  0
    5.5798   -1.8788   -2.6565 C   0  0  0  0  0  0  0  0  0  0  0  0
    6.0410   -0.5666   -2.7694 C   0  0  0  0  0  0  0  0  0  0  0  0
    5.5430    0.4252   -1.9223 C   0  0  0  0  0  0  0  0  0  0  0  0
    4.5875    0.0992   -0.9593 C   0  0  0  0  0  0  0  0  0  0  0  0
    4.1558    1.1202   -0.1399 O   0  0  0  0  0  0  0  0  0  0  0  0
    3.6020    0.7583    1.0678 C   0  0  0  0  0  0  0  0  0  0  0  0
    3.5935    1.7255    2.0740 C   0  0  0  0  0  0  0  0  0  0  0  0
    3.0739    1.4161    3.3321 C   0  0  0  0  0  0  0  0  0  0  0  0
    2.5634    0.1416    3.5822 C   0  0  0  0  0  0  0  0  0  0  0  0
    2.5579   -0.8236    2.5719 C   0  0  0  0  0  0  0  0  0  0  0  0
    3.0705   -0.5159    1.3008 C   0  0  0  0  0  0  0  0  0  0  0  0
   -3.4237    1.8649   -0.1835 C   0  0  0  0  0  0  0  0  0  0  0  0
   -2.6621    2.8316   -1.1095 C   0  0  0  0  0  0  0  0  0  0  0  0
   -4.9293    2.0578   -0.4233 C   0  0  0  0  0  0  0  0  0  0  0  0
    0.0000    0.0000    0.0000 Br  0  0  0  0  0 15  0  0  0  0  0  0
   -3.1267   -0.3130    2.4801 H   0  0  0  0  0  0  0  0  0  0  0  0
   -4.4462    0.7799    2.0501 H   0  0  0  0  0  0  0  0  0  0  0  0
   -4.7792   -0.8980    2.4120 H   0  0  0  0  0  0  0  0  0  0  0  0
   -4.8805   -0.5856   -0.0502 H   0  0  0  0  0  0  0  0  0  0  0  0
   -4.1641   -2.7426    0.8976 H   0  0  0  0  0  0  0  0  0  0  0  0
   -2.4776   -2.2529    0.8798 H   0  0  0  0  0  0  0  0  0  0  0  0
   -3.3713   -2.4825   -0.6414 H   0  0  0  0  0  0  0  0  0  0  0  0
   -2.3958    0.6443   -2.4419 H   0  0  0  0  0  0  0  0  0  0  0  0
   -4.0959    0.1067   -2.1902 H   0  0  0  0  0  0  0  0  0  0  0  0
   -2.7509   -1.0468   -2.0254 H   0  0  0  0  0  0  0  0  0  0  0  0
   -1.0366    1.2330    0.1928 H   0  0  0  0  0  0  0  0  0  0  0  0
   -1.5095   -0.0950    1.2000 H   0  0  0  0  0  0  0  0  0  0  0  0
   -0.9498   -1.7013   -0.7273 H   0  0  0  0  0  0  0  0  0  0  0  0
   -0.3719   -0.2737   -1.6495 H   0  0  0  0  0  0  0  0  0  0  0  0
    3.1862   -2.5084    0.5809 H   0  0  0  0  0  0  0  0  0  0  0  0
    4.2504   -3.2273   -1.6440 H   0  0  0  0  0  0  0  0  0  0  0  0
    5.9707   -2.6505   -3.3180 H   0  0  0  0  0  0  0  0  0  0  0  0
    6.7939   -0.3177   -3.5142 H   0  0  0  0  0  0  0  0  0  0  0  0
    5.9101    1.4452   -2.0051 H   0  0  0  0  0  0  0  0  0  0  0  0
    4.0111    2.7117    1.8859 H   0  0  0  0  0  0  0  0  0  0  0  0
    3.0854    2.1634    4.1240 H   0  0  0  0  0  0  0  0  0  0  0  0
    2.1756   -0.0997    4.5713 H   0  0  0  0  0  0  0  0  0  0  0  0
    2.1534   -1.8119    2.7841 H   0  0  0  0  0  0  0  0  0  0  0  0
   -3.1775    2.1147    0.8555 H   0  0  0  0  0  0  0  0  0  0  0  0
   -1.5834    2.6707   -1.1269 H   0  0  0  0  0  0  0  0  0  0  0  0
   -3.0235    2.7820   -2.1444 H   0  0  0  0  0  0  0  0  0  0  0  0
   -2.8254    3.8630   -0.7722 H   0  0  0  0  0  0  0  0  0  0  0  0
   -5.5561    1.4577    0.2396 H   0  0  0  0  0  0  0  0  0  0  0  0
   -5.2018    3.1036   -0.2360 H   0  0  0  0  0  0  0  0  0  0  0  0
   -5.2169    1.8326   -1.4552 H   0  0  0  0  0  0  0  0  0  0  0  0
  1  2  1  0
  2  3  1  0
  2  4  1  0
  4  5  1  0
  4  6  1  0
  6  7  1  0
  7  8  1  0
  8  9  1  0
  9 10  2  0
  9 11  1  0
 11 12  1  0
 12 13  2  0
 13 14  1  0
 14 15  2  0
 15 16  1  0
 16 17  2  0
 17 18  1  0
 18 19  1  0
 19 20  2  0
 20 21  1  0
 21 22  2  0
 22 23  1  0
 23 24  2  0
  4 25  1  0
 25 26  1  0
 25 27  1  0
 24 11  1  0
 17 12  1  0
 24 19  1  0
  1 29  1  0
  1 30  1  0
  1 31  1  0
  2 32  1  0
  3 33  1  0
  3 34  1  0
  3 35  1  0
  5 36  1  0
  5 37  1  0
  5 38  1  0
  6 39  1  0
  6 40  1  0
  7 41  1  0
  7 42  1  0
 11 43  1  0
 13 44  1  0
 14 45  1  0
 15 46  1  0
 16 47  1  0
 20 48  1  0
 21 49  1  0
 22 50  1  0
 23 51  1  0
 25 52  1  0
 26 53  1  0
 26 54  1  0
 26 55  1  0
 27 56  1  0
 27 57  1  0
 27 58  1  0
M  CHG  2   4   1  28  -1
M  END
$$$$
