
     RDKit          3D

 16 16  0  0  0  0  0  0  0  0999 V2000
    2.8130   -0.9820   -0.3458 O   0  0  0  0  0  0  0  0  0  0  0  0
    1.9869    0.0443    0.2616 B   0  0  0  0  0  0  0  0  0  0  0  0
    2.6489    1.0299    1.1463 O   0  0  0  0  0  0  0  0  0  0  0  0
    0.4312    0.0145    0.1240 C   0  0  0  0  0  0  0  0  0  0  0  0
   -0.1852   -1.1736   -0.1546 C   0  0  0  0  0  0  0  0  0  0  0  0
   -1.5602   -1.1681   -0.2701 C   0  0  0  0  0  0  0  0  0  0  0  0
   -2.3177   -0.0233   -0.1161 C   0  0  0  0  0  0  0  0  0  0  0  0
   -1.6875    1.1775    0.1661 C   0  0  0  0  0  0  0  0  0  0  0  0
   -0.3121    1.1562    0.2786 C   0  0  0  0  0  0  0  0  0  0  0  0
    2.3999   -1.8599   -0.1849 H   0  0  0  0  0  0  0  0  0  0  0  0
    2.9568    1.8047    0.6100 H   0  0  0  0  0  0  0  0  0  0  0  0
    0.3762   -2.0977   -0.2832 H   0  0  0  0  0  0  0  0  0  0  0  0
   -2.0740   -2.0950   -0.4903 H   0  0  0  0  0  0  0  0  0  0  0  0
   -3.3934   -0.0141   -0.2056 H   0  0  0  0  0  0  0  0  0  0  0  0
   -2.2603    2.0807    0.2897 H   0  0  0  0  0  0  0  0  0  0  0  0
    0.1776    2.1058    0.5011 H   0  0  0  0  0  0  0  0  0  0  0  0
  1  2  1  0
  2  3  1  0
  2  4  1  0
  4  5  2  0
  5  6  1  0
  6  7  2  0
  7  8  1  0
  8  9  2  0
  9  4  1  0
  1 10  1  0
  3 11  1  0
  5 12  1  0
  6 13  1  0
  7 14  1  0
  8 15  1  0
  9 16  1  0
M  END
$$$$
