
     RDKit          3D

 56 59  0  0  0  0  0  0  0  0999 V2000
    0.8812    1.2943    2.0601 O   0  0  0  0  0  0  0  0  0  0  0  0
    0.6739    1.0260    0.8824 C   0  0  0  0  0  0  0  0  0  0  0  0
    1.7997    1.0063   -0.1421 C   0  0  0  0  0  0  0  0  0  0  0  0
    3.1920    1.1125    0.4894 C   0  0  0  0  0  0  0  0  0  0  0  0
    3.5907   -0.1380    1.2911 C   0  0  2  0  0  0  0  0  0  0  0  0
    4.7335    0.0890    2.1527 N   0  0  0  0  0  0  0  0  0  0  0  0
    5.9796    0.4985    1.7912 C   0  0  0  0  0  0  0  0  0  0  0  0
    6.6840    1.0355    2.6443 O   0  0  0  0  0  0  0  0  0  0  0  0
    6.4984    0.2893    0.4171 C   0  0  0  0  0  0  0  0  0  0  0  0
    7.6384    1.0555    0.0891 C   0  0  0  0  0  0  0  0  0  0  0  0
    8.3188    0.8735   -1.1139 C   0  0  0  0  0  0  0  0  0  0  0  0
    7.8821   -0.0953   -2.0037 C   0  0  0  0  0  0  0  0  0  0  0  0
    6.7575   -0.8614   -1.6936 C   0  0  0  0  0  0  0  0  0  0  0  0
    6.0361   -0.6663   -0.4984 C   0  0  0  0  0  0  0  0  0  0  0  0
    4.9073   -1.4902   -0.3660 N   0  0  0  0  0  0  0  0  0  0  0  0
    3.7930   -1.3595    0.4032 C   0  0  0  0  0  0  0  0  0  0  0  0
    2.8764   -2.1694    0.2246 O   0  0  0  0  0  0  0  0  0  0  0  0
   -0.5471    0.7285    0.3037 N   0  0  0  0  0  0  0  0  0  0  0  0
   -1.8107    0.6906    0.9306 C   0  0  0  0  0  0  0  0  0  0  0  0
   -2.0283    1.0136    2.2710 C   0  0  0  0  0  0  0  0  0  0  0  0
   -3.3134    0.9448    2.8173 C   0  0  0  0  0  0  0  0  0  0  0  0
   -4.3924    0.5604    2.0241 C   0  0  0  0  0  0  0  0  0  0  0  0
   -4.1947    0.2667    0.6758 C   0  0  0  0  0  0  0  0  0  0  0  0
   -5.3189   -0.2235   -0.0788 N   0  0  0  0  0  0  0  0  0  0  0  0
   -5.5387   -1.6922    0.0054 C   0  0  0  0  0  0  0  0  0  0  0  0
   -6.7124   -2.1538   -0.8640 C   0  0  0  0  0  0  0  0  0  0  0  0
   -7.7799   -1.0750   -1.0150 C   0  0  0  0  0  0  0  0  0  0  0  0
   -7.2958    0.0959   -1.8643 C   0  0  0  0  0  0  0  0  0  0  0  0
   -5.5709    0.4895   -1.6005 S   0  0  0  0  0  6  0  0  0  0  0  0
   -4.7775   -0.2445   -2.5670 O   0  0  0  0  0  0  0  0  0  0  0  0
   -5.4513    1.9267   -1.4779 O   0  0  0  0  0  0  0  0  0  0  0  0
   -2.9019    0.3030    0.1408 C   0  0  0  0  0  0  0  0  0  0  0  0
    1.6478    1.8692   -0.8022 H   0  0  0  0  0  0  0  0  0  0  0  0
    1.7217    0.1028   -0.7560 H   0  0  0  0  0  0  0  0  0  0  0  0
    3.9117    1.3001   -0.3152 H   0  0  0  0  0  0  0  0  0  0  0  0
    3.2282    1.9929    1.1441 H   0  0  0  0  0  0  0  0  0  0  0  0
    2.7882   -0.4059    1.9886 H   0  0  0  0  0  0  0  0  0  0  0  0
    4.5194    0.3668    3.1045 H   0  0  0  0  0  0  0  0  0  0  0  0
    8.0196    1.7945    0.7942 H   0  0  0  0  0  0  0  0  0  0  0  0
    9.1972    1.4733   -1.3392 H   0  0  0  0  0  0  0  0  0  0  0  0
    8.4134   -0.2577   -2.9383 H   0  0  0  0  0  0  0  0  0  0  0  0
    6.4365   -1.6073   -2.4188 H   0  0  0  0  0  0  0  0  0  0  0  0
    4.8122   -2.2606   -1.0181 H   0  0  0  0  0  0  0  0  0  0  0  0
   -0.5396    0.4960   -0.6826 H   0  0  0  0  0  0  0  0  0  0  0  0
   -1.2177    1.3242    2.9229 H   0  0  0  0  0  0  0  0  0  0  0  0
   -3.4675    1.1929    3.8645 H   0  0  0  0  0  0  0  0  0  0  0  0
   -5.3868    0.5043    2.4576 H   0  0  0  0  0  0  0  0  0  0  0  0
   -5.7718   -1.9386    1.0492 H   0  0  0  0  0  0  0  0  0  0  0  0
   -4.6305   -2.2417   -0.2675 H   0  0  0  0  0  0  0  0  0  0  0  0
   -7.1503   -3.0559   -0.4208 H   0  0  0  0  0  0  0  0  0  0  0  0
   -6.3473   -2.4483   -1.8559 H   0  0  0  0  0  0  0  0  0  0  0  0
   -8.0754   -0.7144   -0.0217 H   0  0  0  0  0  0  0  0  0  0  0  0
   -8.6812   -1.4989   -1.4723 H   0  0  0  0  0  0  0  0  0  0  0  0
   -7.8870    0.9894   -1.6423 H   0  0  0  0  0  0  0  0  0  0  0  0
   -7.4027   -0.1326   -2.9298 H   0  0  0  0  0  0  0  0  0  0  0  0
   -2.7465    0.0243   -0.8976 H   0  0  0  0  0  0  0  0  0  0  0  0
  1  2  2  0
  2  3  1  0
  3  4  1  0
  4  5  1  0
  5  6  1  0
  6  7  1  0
  7  8  2  0
  7  9  1  0
  9 10  2  0
 10 11  1  0
 11 12  2  0
 12 13  1  0
 13 14  2  0
 14 15  1  0
 15 16  1  0
 16 17  2  0
  2 18  1  0
 18 19  1  0
 19 20  2  0
 20 21  1  0
 21 22  2  0
 22 23  1  0
 23 24  1  0
 24 25  1  0
 25 26  1  0
 26 27  1  0
 27 28  1  0
 28 29  1  0
 29 30  2  0
 29 31  2  0
 23 32  2  0
 16  5  1  0
 32 19  1  0
 14  9  1  0
 29 24  1  0
  3 33  1  0
  3 34  1  0
  4 35  1  0
  4 36  1  0
  5 37  1  1
  6 38  1  0
 10 39  1  0
 11 40  1  0
 12 41  1  0
 13 42  1  0
 15 43  1  0
 18 44  1  0
 20 45  1  0
 21 46  1  0
 22 47  1  0
 25 48  1  0
 25 49  1  0
 26 50  1  0
 26 51  1  0
 27 52  1  0
 27 53  1  0
 28 54  1  0
 28 55  1  0
 32 56  1  0
M  END
$$$$
