
     RDKit          3D

 41 45  0  0  0  0  0  0  0  0999 V2000
   -1.0561    2.4667   -0.0740 C   0  0  0  0  0  0  0  0  0  0  0  0
   -0.2277    1.2426   -0.2202 C   0  0  0  0  0  0  0  0  0  0  0  0
    1.0812    1.3019    0.0577 N   0  0  0  0  0  0  0  0  0  0  0  0
    1.5806    0.0776   -0.2532 N   0  0  0  0  0  0  0  0  0  0  0  0
    2.9584   -0.2550   -0.1588 C   0  0  0  0  0  0  0  0  0  0  0  0
    3.3684   -1.5190   -0.5322 N   0  0  0  0  0  0  0  0  0  0  0  0
    4.6792   -1.8234   -0.4413 C   0  0  0  0  0  0  0  0  0  0  0  0
    5.6798   -1.0333   -0.0219 N   0  0  0  0  0  0  0  0  0  0  0  0
    5.2277    0.1793    0.3264 C   0  0  0  0  0  0  0  0  0  0  0  0
    5.9862    1.2136    0.7929 N   0  0  0  0  0  0  0  0  0  0  0  0
    5.1472    2.2635    1.0299 C   0  0  0  0  0  0  0  0  0  0  0  0
    3.9006    1.9610    0.7429 N   0  0  0  0  0  0  0  0  0  0  0  0
    3.9230    0.6543    0.2958 C   0  0  0  0  0  0  0  0  0  0  0  0
    0.5613   -0.7582   -0.6771 C   0  0  0  0  0  0  0  0  0  0  0  0
   -0.6144   -0.0513   -0.6432 C   0  0  0  0  0  0  0  0  0  0  0  0
   -1.8849   -0.6678   -1.1285 C   0  0  0  0  0  0  0  0  0  0  0  0
   -3.0231   -0.1772   -0.2438 C   0  0  0  0  0  0  0  0  0  0  0  0
   -2.9834   -0.3970    1.1532 C   0  0  0  0  0  0  0  0  0  0  0  0
   -4.0209    0.0301    1.9827 C   0  0  0  0  0  0  0  0  0  0  0  0
   -5.1163    0.6739    1.4285 C   0  0  0  0  0  0  0  0  0  0  0  0
   -6.1125    1.0840    2.2236 F   0  0  0  0  0  0  0  0  0  0  0  0
   -5.1968    0.8967    0.0620 C   0  0  0  0  0  0  0  0  0  0  0  0
   -4.1590    0.4706   -0.7721 C   0  0  0  0  0  0  0  0  0  0  0  0
   -4.3475    0.7766   -2.4629 Cl  0  0  0  0  0  0  0  0  0  0  0  0
   -1.7926   -2.2056   -1.1270 C   0  0  0  0  0  0  0  0  0  0  0  0
   -0.4256   -2.7624   -1.5120 C   0  0  0  0  0  0  0  0  0  0  0  0
   -0.3099   -3.8611   -2.0539 O   0  0  0  0  0  0  0  0  0  0  0  0
    0.6827   -2.0531   -1.1233 N   0  0  0  0  0  0  0  0  0  0  0  0
   -0.4339    3.3678   -0.0508 H   0  0  0  0  0  0  0  0  0  0  0  0
   -1.7499    2.5688   -0.9140 H   0  0  0  0  0  0  0  0  0  0  0  0
   -1.6318    2.4313    0.8557 H   0  0  0  0  0  0  0  0  0  0  0  0
    4.9593   -2.8287   -0.7442 H   0  0  0  0  0  0  0  0  0  0  0  0
    6.9851    1.1886    0.9312 H   0  0  0  0  0  0  0  0  0  0  0  0
    5.4963    3.2156    1.4081 H   0  0  0  0  0  0  0  0  0  0  0  0
   -2.0008   -0.3408   -2.1673 H   0  0  0  0  0  0  0  0  0  0  0  0
   -2.1299   -0.8980    1.6097 H   0  0  0  0  0  0  0  0  0  0  0  0
   -3.9786   -0.1355    3.0550 H   0  0  0  0  0  0  0  0  0  0  0  0
   -6.0714    1.3989   -0.3402 H   0  0  0  0  0  0  0  0  0  0  0  0
   -2.0150   -2.6274   -0.1384 H   0  0  0  0  0  0  0  0  0  0  0  0
   -2.5418   -2.6102   -1.8186 H   0  0  0  0  0  0  0  0  0  0  0  0
    1.6070   -2.4584   -1.2565 H   0  0  0  0  0  0  0  0  0  0  0  0
  1  2  1  0
  2  3  2  0
  3  4  1  0
  4  5  1  0
  5  6  2  0
  6  7  1  0
  7  8  2  0
  8  9  1  0
  9 10  1  0
 10 11  1  0
 11 12  2  0
 12 13  1  0
  4 14  1  0
 14 15  2  0
 15 16  1  0
 16 17  1  0
 17 18  2  0
 18 19  1  0
 19 20  2  0
 20 21  1  0
 20 22  1  0
 22 23  2  0
 23 24  1  0
 16 25  1  0
 25 26  1  0
 26 27  2  0
 26 28  1  0
 15  2  1  0
 23 17  1  0
 13  5  1  0
 28 14  1  0
 13  9  2  0
  1 29  1  0
  1 30  1  0
  1 31  1  0
  7 32  1  0
 10 33  1  0
 11 34  1  0
 16 35  1  0
 18 36  1  0
 19 37  1  0
 22 38  1  0
 25 39  1  0
 25 40  1  0
 28 41  1  0
M  END
$$$$
