
     RDKit          3D

 49 48  0  0  0  0  0  0  0  0999 V2000
   -3.9912   -2.3407   -0.8813 C   0  0  0  0  0  0  0  0  0  0  0  0
   -4.9295   -1.2172   -1.0560 C   0  0  0  0  0  0  0  0  0  0  0  0
   -6.0651   -1.3849   -1.6208 O   0  0  0  0  0  0  0  0  0  0  0  0
   -4.6412    0.1397   -0.6090 C   0  0  0  0  0  0  0  0  0  0  0  0
   -5.5267    1.1686   -0.7824 C   0  0  0  0  0  0  0  0  0  0  0  0
   -5.2588    2.4564   -0.3614 C   0  0  0  0  0  0  0  0  0  0  0  0
   -4.0614    2.7639    0.2649 C   0  0  0  0  0  0  0  0  0  0  0  0
   -3.1666    1.7328    0.4428 C   0  0  0  0  0  0  0  0  0  0  0  0
   -3.4136    0.4338    0.0279 C   0  0  0  0  0  0  0  0  0  0  0  0
   -2.5812   -0.6030    0.1794 O   0  0  0  0  0  0  0  0  0  0  0  0
   -1.3588   -0.8768    0.6603 C   0  0  0  0  0  0  0  0  0  0  0  0
   -0.1502   -0.2792   -0.0041 C   0  0  0  0  0  0  0  0  0  0  0  0
   -0.0687    1.0706   -0.0549 O   0  0  0  0  0  0  0  0  0  0  0  0
    1.0577   -0.9160    0.6926 C   0  0  0  0  0  0  0  0  0  0  0  0
    2.3029   -0.6769    0.0612 N   0  0  0  0  0  0  0  0  0  0  0  0
    2.8090    0.6427    0.0864 C   0  0  0  0  0  0  0  0  0  0  0  0
    4.1345    0.6142   -0.7029 C   0  0  0  0  0  0  0  0  0  0  0  0
    5.0996    0.0191    0.1962 N   0  0  0  0  0  0  0  0  0  0  0  0
    5.7313    1.0987    0.9086 C   0  0  0  0  0  0  0  0  0  0  0  0
    4.5536   -0.9970    1.0439 C   0  0  0  0  0  0  0  0  0  0  0  0
    3.2816   -1.6160    0.5508 C   0  0  0  0  0  0  0  0  0  0  0  0
    0.6867    0.0000    0.0000 Cl  0  0  0  0  0  0  0  0  0  0  0  0
    0.6883    0.0000    0.0000 Cl  0  0  0  0  0  0  0  0  0  0  0  0
   -3.7632   -2.5795    0.1824 H   0  0  0  0  0  0  0  0  0  0  0  0
   -3.0498   -2.1909   -1.4267 H   0  0  0  0  0  0  0  0  0  0  0  0
   -4.4801   -3.2539   -1.3247 H   0  0  0  0  0  0  0  0  0  0  0  0
   -6.4799    0.9340   -1.2799 H   0  0  0  0  0  0  0  0  0  0  0  0
   -5.9753    3.2593   -0.5083 H   0  0  0  0  0  0  0  0  0  0  0  0
   -3.8531    3.7724    0.5937 H   0  0  0  0  0  0  0  0  0  0  0  0
   -2.2561    1.9884    0.9515 H   0  0  0  0  0  0  0  0  0  0  0  0
   -1.1773   -2.0035    0.6168 H   0  0  0  0  0  0  0  0  0  0  0  0
   -1.2480   -0.6454    1.7611 H   0  0  0  0  0  0  0  0  0  0  0  0
   -0.1467   -0.6575   -1.0856 H   0  0  0  0  0  0  0  0  0  0  0  0
   -0.4664    1.4181   -0.8932 H   0  0  0  0  0  0  0  0  0  0  0  0
    0.8222   -2.0099    0.7398 H   0  0  0  0  0  0  0  0  0  0  0  0
    1.0139   -0.5006    1.7441 H   0  0  0  0  0  0  0  0  0  0  0  0
    2.1479    1.3913   -0.3366 H   0  0  0  0  0  0  0  0  0  0  0  0
    3.0840    0.9924    1.1156 H   0  0  0  0  0  0  0  0  0  0  0  0
    3.9972   -0.0778   -1.5540 H   0  0  0  0  0  0  0  0  0  0  0  0
    4.4096    1.6363   -1.0047 H   0  0  0  0  0  0  0  0  0  0  0  0
    5.0686    1.3991    1.7493 H   0  0  0  0  0  0  0  0  0  0  0  0
    6.7174    0.8756    1.3121 H   0  0  0  0  0  0  0  0  0  0  0  0
    5.8145    1.9551    0.1785 H   0  0  0  0  0  0  0  0  0  0  0  0
    4.4030   -0.5880    2.0666 H   0  0  0  0  0  0  0  0  0  0  0  0
    5.2960   -1.8264    1.1220 H   0  0  0  0  0  0  0  0  0  0  0  0
    3.4963   -2.3288   -0.2524 H   0  0  0  0  0  0  0  0  0  0  0  0
    2.8683   -2.1931    1.4323 H   0  0  0  0  0  0  0  0  0  0  0  0
   -0.6867    0.0000    0.0000 H   0  0  0  0  0  0  0  0  0  0  0  0
   -0.6883    0.0000    0.0000 H   0  0  0  0  0  0  0  0  0  0  0  0
  1  2  1  0
  2  3  2  0
  2  4  1  0
  4  5  2  0
  5  6  1  0
  6  7  2  0
  7  8  1  0
  8  9  2  0
  9 10  1  0
 10 11  1  0
 11 12  1  0
 12 13  1  0
 12 14  1  0
 14 15  1  0
 15 16  1  0
 16 17  1  0
 17 18  1  0
 18 19  1  0
 18 20  1  0
 20 21  1  0
  9  4  1  0
 21 15  1  0
  1 24  1  0
  1 25  1  0
  1 26  1  0
  5 27  1  0
  6 28  1  0
  7 29  1  0
  8 30  1  0
 11 31  1  0
 11 32  1  0
 12 33  1  0
 13 34  1  0
 14 35  1  0
 14 36  1  0
 16 37  1  0
 16 38  1  0
 17 39  1  0
 17 40  1  0
 19 41  1  0
 19 42  1  0
 19 43  1  0
 20 44  1  0
 20 45  1  0
 21 46  1  0
 21 47  1  0
 22 48  1  0
 23 49  1  0
M  END
$$$$
