
     RDKit          3D

 28 29  0  0  0  0  0  0  0  0999 V2000
   -3.0689   -2.5937    0.8367 C   0  0  0  0  0  0  0  0  0  0  0  0
   -2.4153   -1.3051    0.4384 C   0  0  0  0  0  0  0  0  0  0  0  0
   -1.0421   -1.2133    0.3723 C   0  0  0  0  0  0  0  0  0  0  0  0
   -0.5273    0.0137   -0.0053 C   0  0  0  0  0  0  0  0  0  0  0  0
    0.8968    0.1624   -0.0914 N   0  0  0  0  0  0  0  0  0  0  0  0
    1.7189   -0.8957    0.1770 N   0  0  0  0  0  0  0  0  0  0  0  0
    2.9586   -0.4325    0.0043 C   0  0  0  0  0  0  0  0  0  0  0  0
    4.1236   -1.3246    0.2151 C   0  0  0  0  0  0  0  0  0  0  0  0
    2.9612    0.9206   -0.3753 C   0  0  0  0  0  0  0  0  0  0  0  0
    1.6339    1.2915   -0.4321 C   0  0  0  0  0  0  0  0  0  0  0  0
    1.0482    2.6120   -0.7750 C   0  0  0  0  0  0  0  0  0  0  0  0
   -1.3196    1.0710   -0.2966 N   0  0  0  0  0  0  0  0  0  0  0  0
   -2.6342    0.8865   -0.1860 C   0  0  0  0  0  0  0  0  0  0  0  0
   -3.4554    1.9499   -0.4943 N   0  0  0  0  0  0  0  0  0  0  0  0
   -3.2204   -0.2626    0.1542 N   0  0  0  0  0  0  0  0  0  0  0  0
   -4.1592   -2.4939    0.8378 H   0  0  0  0  0  0  0  0  0  0  0  0
   -2.7525   -2.8831    1.8437 H   0  0  0  0  0  0  0  0  0  0  0  0
   -2.8004   -3.3876    0.1329 H   0  0  0  0  0  0  0  0  0  0  0  0
   -0.4116   -2.0629    0.6064 H   0  0  0  0  0  0  0  0  0  0  0  0
    4.1397   -1.6985    1.2439 H   0  0  0  0  0  0  0  0  0  0  0  0
    4.0793   -2.1813   -0.4650 H   0  0  0  0  0  0  0  0  0  0  0  0
    5.0645   -0.7956    0.0324 H   0  0  0  0  0  0  0  0  0  0  0  0
    3.8165    1.5501   -0.5797 H   0  0  0  0  0  0  0  0  0  0  0  0
    1.8392    3.3379   -0.9937 H   0  0  0  0  0  0  0  0  0  0  0  0
    0.4161    2.5435   -1.6656 H   0  0  0  0  0  0  0  0  0  0  0  0
    0.4628    3.0123    0.0585 H   0  0  0  0  0  0  0  0  0  0  0  0
   -2.9868    2.5750   -1.1334 H   0  0  0  0  0  0  0  0  0  0  0  0
   -4.3655    1.6039   -0.7647 H   0  0  0  0  0  0  0  0  0  0  0  0
  1  2  1  0
  2  3  2  0
  3  4  1  0
  4  5  1  0
  5  6  1  0
  6  7  2  0
  7  8  1  0
  7  9  1  0
  9 10  2  0
 10 11  1  0
  4 12  2  0
 12 13  1  0
 13 14  1  0
 13 15  2  0
 15  2  1  0
 10  5  1  0
  1 16  1  0
  1 17  1  0
  1 18  1  0
  3 19  1  0
  8 20  1  0
  8 21  1  0
  8 22  1  0
  9 23  1  0
 11 24  1  0
 11 25  1  0
 11 26  1  0
 14 27  1  0
 14 28  1  0
M  END
$$$$
