
     RDKit          3D

 46 49  0  0  0  0  0  0  0  0999 V2000
    4.9290   -2.5705    3.3480 C   0  0  0  0  0  0  0  0  0  0  0  0
    3.9440   -1.6183    3.7265 O   0  0  0  0  0  0  0  0  0  0  0  0
    2.9477   -1.3664    2.8223 C   0  0  0  0  0  0  0  0  0  0  0  0
    1.9554   -0.4925    3.2749 C   0  0  0  0  0  0  0  0  0  0  0  0
    0.8798   -0.1486    2.4506 C   0  0  0  0  0  0  0  0  0  0  0  0
    0.7915   -0.6696    1.1610 C   0  0  0  0  0  0  0  0  0  0  0  0
   -0.2905   -0.3486    0.3300 N   0  0  0  0  0  0  0  0  0  0  0  0
   -0.2147    0.7353   -0.3879 C   0  0  0  0  0  0  0  0  0  0  0  0
    0.9085    1.5523   -0.3172 O   0  0  0  0  0  0  0  0  0  0  0  0
    1.0155    2.7329   -1.0702 C   0  0  0  0  0  0  0  0  0  0  0  0
    2.1813    3.4831   -0.9284 C   0  0  0  0  0  0  0  0  0  0  0  0
    2.3111    4.6468   -1.6757 C   0  0  0  0  0  0  0  0  0  0  0  0
    3.4265    5.4265   -1.5917 O   0  0  0  0  0  0  0  0  0  0  0  0
    1.2985    5.0574   -2.5381 C   0  0  0  0  0  0  0  0  0  0  0  0
    0.1327    4.2935   -2.6609 C   0  0  0  0  0  0  0  0  0  0  0  0
   -0.0117    3.1192   -1.9230 C   0  0  0  0  0  0  0  0  0  0  0  0
   -1.1953    2.2823   -2.0190 C   0  0  0  0  0  0  0  0  0  0  0  0
   -1.3075    1.1460   -1.3064 C   0  0  0  0  0  0  0  0  0  0  0  0
   -2.5732    0.3475   -1.5099 C   0  0  0  0  0  0  0  0  0  0  0  0
   -3.4631    0.7957   -2.2270 O   0  0  0  0  0  0  0  0  0  0  0  0
   -2.6107   -0.8372   -0.8147 N   0  0  0  0  0  0  0  0  0  0  0  0
   -3.6067   -1.8137   -0.8957 C   0  0  0  0  0  0  0  0  0  0  0  0
   -3.5010   -2.8933   -0.0171 C   0  0  0  0  0  0  0  0  0  0  0  0
   -4.4485   -3.9159   -0.0711 C   0  0  0  0  0  0  0  0  0  0  0  0
   -5.4677   -3.8399   -1.0084 C   0  0  0  0  0  0  0  0  0  0  0  0
   -5.4971   -2.7343   -1.8438 C   0  0  0  0  0  0  0  0  0  0  0  0
   -4.5919   -1.7319   -1.8026 N   0  0  0  0  0  0  0  0  0  0  0  0
    1.7762   -1.5515    0.7129 C   0  0  0  0  0  0  0  0  0  0  0  0
    2.8535   -1.8974    1.5376 C   0  0  0  0  0  0  0  0  0  0  0  0
    4.4787   -3.5535    3.1640 H   0  0  0  0  0  0  0  0  0  0  0  0
    5.4973   -2.2259    2.4786 H   0  0  0  0  0  0  0  0  0  0  0  0
    5.6292   -2.6758    4.1831 H   0  0  0  0  0  0  0  0  0  0  0  0
    2.0178   -0.0891    4.2843 H   0  0  0  0  0  0  0  0  0  0  0  0
    0.1167    0.5304    2.8169 H   0  0  0  0  0  0  0  0  0  0  0  0
    2.9555    3.1523   -0.2409 H   0  0  0  0  0  0  0  0  0  0  0  0
    4.0728    4.9915   -1.0095 H   0  0  0  0  0  0  0  0  0  0  0  0
    1.4175    5.9714   -3.1133 H   0  0  0  0  0  0  0  0  0  0  0  0
   -0.6497    4.6250   -3.3378 H   0  0  0  0  0  0  0  0  0  0  0  0
   -1.9797    2.6046   -2.7019 H   0  0  0  0  0  0  0  0  0  0  0  0
   -1.8492   -1.0205   -0.1647 H   0  0  0  0  0  0  0  0  0  0  0  0
   -2.6974   -2.9473    0.7110 H   0  0  0  0  0  0  0  0  0  0  0  0
   -4.3860   -4.7630    0.6053 H   0  0  0  0  0  0  0  0  0  0  0  0
   -6.2213   -4.6168   -1.0842 H   0  0  0  0  0  0  0  0  0  0  0  0
   -6.2737   -2.6180   -2.5959 H   0  0  0  0  0  0  0  0  0  0  0  0
    1.7064   -1.9746   -0.2878 H   0  0  0  0  0  0  0  0  0  0  0  0
    3.5935   -2.5797    1.1438 H   0  0  0  0  0  0  0  0  0  0  0  0
  1  2  1  0
  2  3  1  0
  3  4  2  0
  4  5  1  0
  5  6  2  0
  6  7  1  0
  7  8  2  0
  8  9  1  0
  9 10  1  0
 10 11  2  0
 11 12  1  0
 12 13  1  0
 12 14  2  0
 14 15  1  0
 15 16  2  0
 16 17  1  0
 17 18  2  0
 18 19  1  0
 19 20  2  0
 19 21  1  0
 21 22  1  0
 22 23  2  0
 23 24  1  0
 24 25  2  0
 25 26  1  0
 26 27  2  0
  6 28  1  0
 28 29  2  0
 29  3  1  0
 18  8  1  0
 27 22  1  0
 16 10  1  0
  1 30  1  0
  1 31  1  0
  1 32  1  0
  4 33  1  0
  5 34  1  0
 11 35  1  0
 13 36  1  0
 14 37  1  0
 15 38  1  0
 17 39  1  0
 21 40  1  0
 23 41  1  0
 24 42  1  0
 25 43  1  0
 26 44  1  0
 28 45  1  0
 29 46  1  0
M  END
$$$$
