
     RDKit          3D

 46 49  0  0  0  0  0  0  0  0999 V2000
    6.9394    2.5687    1.0335 C   0  0  0  0  0  0  0  0  0  0  0  0
    5.5470    2.2241    0.8944 N   0  0  0  0  0  0  0  0  0  0  0  0
    5.1662    0.9152    0.6854 C   0  0  0  0  0  0  0  0  0  0  0  0
    5.9643   -0.0160    0.6803 O   0  0  0  0  0  0  0  0  0  0  0  0
    3.7461    0.7124    0.4517 C   0  0  0  0  0  0  0  0  0  0  0  0
    2.6484    1.5918    0.5619 C   0  0  0  0  0  0  0  0  0  0  0  0
    1.4785    1.0240    0.2585 N   0  0  0  0  0  0  0  0  0  0  0  0
    1.8071   -0.2717   -0.0432 N   0  0  0  0  0  0  0  0  0  0  0  0
    0.8131   -1.2412   -0.4144 C   0  0  0  0  0  0  0  0  0  0  0  0
    1.2483   -2.5003   -0.6926 N   0  0  0  0  0  0  0  0  0  0  0  0
    0.3489   -3.4370   -1.0685 C   0  0  0  0  0  0  0  0  0  0  0  0
    0.8124   -4.7132   -1.3546 N   0  0  0  0  0  0  0  0  0  0  0  0
   -1.0072   -3.0806   -1.1355 C   0  0  0  0  0  0  0  0  0  0  0  0
   -2.1443   -3.7977   -1.4433 N   0  0  0  0  0  0  0  0  0  0  0  0
   -3.1264   -2.9260   -1.3411 C   0  0  0  0  0  0  0  0  0  0  0  0
   -2.6764   -1.6825   -0.9757 N   0  0  0  0  0  0  0  0  0  0  0  0
   -3.5160   -0.5184   -0.7792 C   0  0  2  0  0  0  0  0  0  0  0  0
   -2.9744    0.6008   -1.5067 O   0  0  0  0  0  0  0  0  0  0  0  0
   -3.2124    1.7998   -0.7203 C   0  0  2  0  0  0  0  0  0  0  0  0
   -1.8697    2.4387   -0.3465 C   0  0  0  0  0  0  0  0  0  0  0  0
   -1.2809    1.8010    0.7832 O   0  0  0  0  0  0  0  0  0  0  0  0
   -4.0416    1.3754    0.4929 C   0  0  1  0  0  0  0  0  0  0  0  0
   -5.4425    1.4521    0.1684 O   0  0  0  0  0  0  0  0  0  0  0  0
   -3.6564   -0.0840    0.6780 C   0  0  1  0  0  0  0  0  0  0  0  0
   -4.6805   -0.7933    1.3830 O   0  0  0  0  0  0  0  0  0  0  0  0
   -1.3204   -1.7695   -0.8224 C   0  0  0  0  0  0  0  0  0  0  0  0
   -0.4697   -0.8056   -0.4472 N   0  0  0  0  0  0  0  0  0  0  0  0
    3.1638   -0.4798    0.0658 C   0  0  0  0  0  0  0  0  0  0  0  0
    7.4467    1.8485    1.6812 H   0  0  0  0  0  0  0  0  0  0  0  0
    7.0084    3.5701    1.4647 H   0  0  0  0  0  0  0  0  0  0  0  0
    7.4035    2.5588    0.0437 H   0  0  0  0  0  0  0  0  0  0  0  0
    4.8965    2.9683    0.6926 H   0  0  0  0  0  0  0  0  0  0  0  0
    2.6442    2.6330    0.8584 H   0  0  0  0  0  0  0  0  0  0  0  0
    0.0929   -5.4273   -1.3185 H   0  0  0  0  0  0  0  0  0  0  0  0
    1.7052   -4.9174   -0.9271 H   0  0  0  0  0  0  0  0  0  0  0  0
   -4.1737   -3.1384   -1.5184 H   0  0  0  0  0  0  0  0  0  0  0  0
   -4.4960   -0.7521   -1.2149 H   0  0  0  0  0  0  0  0  0  0  0  0
   -3.7643    2.4860   -1.3721 H   0  0  0  0  0  0  0  0  0  0  0  0
   -1.1672    2.3989   -1.1860 H   0  0  0  0  0  0  0  0  0  0  0  0
   -2.0249    3.4862   -0.0705 H   0  0  0  0  0  0  0  0  0  0  0  0
   -0.4233    1.4207    0.4804 H   0  0  0  0  0  0  0  0  0  0  0  0
   -3.8893    1.9879    1.3858 H   0  0  0  0  0  0  0  0  0  0  0  0
   -5.8853    0.7735    0.7166 H   0  0  0  0  0  0  0  0  0  0  0  0
   -2.7148   -0.1917    1.2255 H   0  0  0  0  0  0  0  0  0  0  0  0
   -4.5202   -0.6413    2.3336 H   0  0  0  0  0  0  0  0  0  0  0  0
    3.5967   -1.4506   -0.1382 H   0  0  0  0  0  0  0  0  0  0  0  0
  1  2  1  0
  2  3  1  0
  3  4  2  0
  3  5  1  0
  5  6  1  0
  6  7  2  0
  7  8  1  0
  8  9  1  0
  9 10  2  0
 10 11  1  0
 11 12  1  0
 11 13  2  0
 13 14  1  0
 14 15  2  0
 15 16  1  0
 16 17  1  0
 17 18  1  0
 18 19  1  0
 19 20  1  0
 20 21  1  0
 19 22  1  0
 22 23  1  0
 22 24  1  0
 24 25  1  0
 16 26  1  0
 26 27  2  0
  8 28  1  0
 28  5  2  0
 27  9  1  0
 26 13  1  0
 24 17  1  0
  1 29  1  0
  1 30  1  0
  1 31  1  0
  2 32  1  0
  6 33  1  0
 12 34  1  0
 12 35  1  0
 15 36  1  0
 17 37  1  6
 19 38  1  6
 20 39  1  0
 20 40  1  0
 21 41  1  0
 22 42  1  1
 23 43  1  0
 24 44  1  1
 25 45  1  0
 28 46  1  0
M  END
$$$$
