
     RDKit          3D

 50 52  0  0  0  0  0  0  0  0999 V2000
   -5.0185    2.1521    1.7203 C   0  0  0  0  0  0  0  0  0  0  0  0
   -4.6149    1.0239    0.8162 C   0  0  0  0  0  0  0  0  0  0  0  0
   -4.3438    1.2645   -0.5378 C   0  0  0  0  0  0  0  0  0  0  0  0
   -3.9382    0.2235   -1.3742 C   0  0  0  0  0  0  0  0  0  0  0  0
   -3.7836   -1.0608   -0.8468 C   0  0  0  0  0  0  0  0  0  0  0  0
   -3.2503   -2.3959   -1.8959 S   0  0  0  0  0  6  0  0  0  0  0  0
   -3.2566   -1.9245   -3.2650 O   0  0  0  0  0  0  0  0  0  0  0  0
   -3.9961   -3.5718   -1.5016 O   0  0  0  0  0  0  0  0  0  0  0  0
   -1.6381   -2.6767   -1.4371 N   0  0  0  0  0  0  0  0  0  0  0  0
   -0.8570   -1.5098   -1.2057 C   0  0  0  0  0  0  0  0  0  0  0  0
   -0.4725   -0.7699   -2.2468 C   0  0  0  0  0  0  0  0  0  0  0  0
    0.3269    0.4068   -2.0178 C   0  0  0  0  0  0  0  0  0  0  0  0
    0.7047    0.7719   -0.7779 C   0  0  0  0  0  0  0  0  0  0  0  0
    1.5308    2.0153   -0.5762 C   0  0  0  0  0  0  0  0  0  0  0  0
    0.3358   -0.0138    0.3268 N   0  0  0  0  0  0  0  0  0  0  0  0
    0.7442    0.3440    1.6933 C   0  0  0  0  0  0  0  0  0  0  0  0
    2.1729   -0.0754    2.0614 C   0  0  0  0  0  0  0  0  0  0  0  0
    2.7333    0.3703    3.0612 O   0  0  0  0  0  0  0  0  0  0  0  0
    2.7472   -1.0157    1.2373 N   0  0  0  0  0  0  0  0  0  0  0  0
    4.1408   -1.3755    1.3417 C   0  0  0  0  0  0  0  0  0  0  0  0
    4.9157   -0.4862    0.4205 C   0  0  0  0  0  0  0  0  0  0  0  0
    5.5412    0.7094    0.7174 C   0  0  0  0  0  0  0  0  0  0  0  0
    6.1749    1.2874   -0.4196 C   0  0  0  0  0  0  0  0  0  0  0  0
    6.0107    0.5159   -1.5480 C   0  0  0  0  0  0  0  0  0  0  0  0
    5.0942   -0.8934   -1.2354 S   0  0  0  0  0  0  0  0  0  0  0  0
   -0.4192   -1.1841    0.1846 C   0  0  0  0  0  0  0  0  0  0  0  0
   -0.7302   -1.9451    1.0995 O   0  0  0  0  0  0  0  0  0  0  0  0
   -4.0552   -1.3175    0.4994 C   0  0  0  0  0  0  0  0  0  0  0  0
   -4.4586   -0.2710    1.3296 C   0  0  0  0  0  0  0  0  0  0  0  0
   -5.6670    1.7937    2.5266 H   0  0  0  0  0  0  0  0  0  0  0  0
   -4.1295    2.6149    2.1596 H   0  0  0  0  0  0  0  0  0  0  0  0
   -5.5786    2.9141    1.1681 H   0  0  0  0  0  0  0  0  0  0  0  0
   -4.4535    2.2660   -0.9494 H   0  0  0  0  0  0  0  0  0  0  0  0
   -3.7422    0.4239   -2.4251 H   0  0  0  0  0  0  0  0  0  0  0  0
   -1.6485   -3.3009   -0.6223 H   0  0  0  0  0  0  0  0  0  0  0  0
   -0.7441   -1.0167   -3.2686 H   0  0  0  0  0  0  0  0  0  0  0  0
    0.6025    0.9919   -2.8917 H   0  0  0  0  0  0  0  0  0  0  0  0
    0.9810    2.7532    0.0165 H   0  0  0  0  0  0  0  0  0  0  0  0
    2.4748    1.7851   -0.0744 H   0  0  0  0  0  0  0  0  0  0  0  0
    1.7851    2.4937   -1.5288 H   0  0  0  0  0  0  0  0  0  0  0  0
    0.0750   -0.1304    2.4201 H   0  0  0  0  0  0  0  0  0  0  0  0
    0.6471    1.4257    1.8296 H   0  0  0  0  0  0  0  0  0  0  0  0
    2.2871   -1.2078    0.3575 H   0  0  0  0  0  0  0  0  0  0  0  0
    4.4883   -1.2651    2.3743 H   0  0  0  0  0  0  0  0  0  0  0  0
    4.2358   -2.4290    1.0592 H   0  0  0  0  0  0  0  0  0  0  0  0
    5.5366    1.1491    1.7090 H   0  0  0  0  0  0  0  0  0  0  0  0
    6.7239    2.2211   -0.4092 H   0  0  0  0  0  0  0  0  0  0  0  0
    6.3855    0.7109   -2.5435 H   0  0  0  0  0  0  0  0  0  0  0  0
   -3.9456   -2.3186    0.9108 H   0  0  0  0  0  0  0  0  0  0  0  0
   -4.6541   -0.4725    2.3812 H   0  0  0  0  0  0  0  0  0  0  0  0
  1  2  1  0
  2  3  2  0
  3  4  1  0
  4  5  2  0
  5  6  1  0
  6  7  2  0
  6  8  2  0
  6  9  1  0
  9 10  1  0
 10 11  2  0
 11 12  1  0
 12 13  2  0
 13 14  1  0
 13 15  1  0
 15 16  1  0
 16 17  1  0
 17 18  2  0
 17 19  1  0
 19 20  1  0
 20 21  1  0
 21 22  2  0
 22 23  1  0
 23 24  2  0
 24 25  1  0
 15 26  1  0
 26 27  2  0
  5 28  1  0
 28 29  2  0
 29  2  1  0
 26 10  1  0
 25 21  1  0
  1 30  1  0
  1 31  1  0
  1 32  1  0
  3 33  1  0
  4 34  1  0
  9 35  1  0
 11 36  1  0
 12 37  1  0
 14 38  1  0
 14 39  1  0
 14 40  1  0
 16 41  1  0
 16 42  1  0
 19 43  1  0
 20 44  1  0
 20 45  1  0
 22 46  1  0
 23 47  1  0
 24 48  1  0
 28 49  1  0
 29 50  1  0
M  END
$$$$
