
     RDKit          3D

 39 41  0  0  0  0  0  0  0  0999 V2000
    3.5069   -1.4598   -1.3191 O   0  0  0  0  0  0  0  0  0  0  0  0
    3.7892   -0.5489   -0.5488 C   0  0  0  0  0  0  0  0  0  0  0  0
    2.8920    0.0765    0.2973 N   0  0  0  0  0  0  0  0  0  0  0  0
    1.5205   -0.2040    0.4376 C   0  0  0  0  0  0  0  0  0  0  0  0
    0.7602    0.5200    1.3300 C   0  0  0  0  0  0  0  0  0  0  0  0
   -0.5601    0.3312    1.5391 N   0  0  0  0  0  0  0  0  0  0  0  0
   -1.1748   -0.6287    0.8280 C   0  0  0  0  0  0  0  0  0  0  0  0
   -2.5208   -0.8503    1.0253 N   0  0  0  0  0  0  0  0  0  0  0  0
   -3.2877    0.0631    1.8563 C   0  0  0  0  0  0  0  0  0  0  0  0
   -3.7369    1.3088    1.0961 C   0  0  0  0  0  0  0  0  0  0  0  0
   -4.5612    1.0179   -0.1623 C   0  0  0  0  0  0  0  0  0  0  0  0
   -3.7228    0.4616   -1.3124 C   0  0  0  0  0  0  0  0  0  0  0  0
   -3.4567   -1.0456   -1.2795 C   0  0  0  0  0  0  0  0  0  0  0  0
   -3.2461   -1.6924    0.0895 C   0  0  0  0  0  0  0  0  0  0  0  0
   -0.5152   -1.3873   -0.0633 N   0  0  0  0  0  0  0  0  0  0  0  0
    0.8082   -1.1640   -0.2424 C   0  0  0  0  0  0  0  0  0  0  0  0
    5.1330   -0.0125   -0.4395 C   0  0  0  0  0  0  0  0  0  0  0  0
    6.3037   -0.3479   -1.0929 C   0  0  0  0  0  0  0  0  0  0  0  0
    7.3123    0.5084   -0.5878 C   0  0  0  0  0  0  0  0  0  0  0  0
    6.7001    1.3154    0.3428 C   0  0  0  0  0  0  0  0  0  0  0  0
    7.5615    2.6731    1.3582 Br  0  0  0  0  0  0  0  0  0  0  0  0
    5.3784    1.0095    0.4419 O   0  0  0  0  0  0  0  0  0  0  0  0
    3.2837    0.8160    0.8725 H   0  0  0  0  0  0  0  0  0  0  0  0
    1.1933    1.3097    1.9364 H   0  0  0  0  0  0  0  0  0  0  0  0
   -4.1757   -0.4570    2.2385 H   0  0  0  0  0  0  0  0  0  0  0  0
   -2.7283    0.3564    2.7536 H   0  0  0  0  0  0  0  0  0  0  0  0
   -4.3481    1.9164    1.7751 H   0  0  0  0  0  0  0  0  0  0  0  0
   -2.8684    1.9243    0.8318 H   0  0  0  0  0  0  0  0  0  0  0  0
   -4.9934    1.9702   -0.4951 H   0  0  0  0  0  0  0  0  0  0  0  0
   -5.4043    0.3557    0.0652 H   0  0  0  0  0  0  0  0  0  0  0  0
   -4.2329    0.6857   -2.2581 H   0  0  0  0  0  0  0  0  0  0  0  0
   -2.7663    0.9973   -1.3609 H   0  0  0  0  0  0  0  0  0  0  0  0
   -4.2941   -1.5624   -1.7663 H   0  0  0  0  0  0  0  0  0  0  0  0
   -2.5859   -1.2468   -1.9163 H   0  0  0  0  0  0  0  0  0  0  0  0
   -4.2302   -1.9342    0.5124 H   0  0  0  0  0  0  0  0  0  0  0  0
   -2.7521   -2.6655   -0.0304 H   0  0  0  0  0  0  0  0  0  0  0  0
    1.2593   -1.8199   -0.9786 H   0  0  0  0  0  0  0  0  0  0  0  0
    6.4041   -1.1215   -1.8433 H   0  0  0  0  0  0  0  0  0  0  0  0
    8.3559    0.5317   -0.8695 H   0  0  0  0  0  0  0  0  0  0  0  0
  1  2  2  0
  2  3  1  0
  3  4  1  0
  4  5  2  0
  5  6  1  0
  6  7  2  0
  7  8  1  0
  8  9  1  0
  9 10  1  0
 10 11  1  0
 11 12  1  0
 12 13  1  0
 13 14  1  0
  7 15  1  0
 15 16  2  0
  2 17  1  0
 17 18  2  0
 18 19  1  0
 19 20  2  0
 20 21  1  0
 20 22  1  0
 16  4  1  0
 22 17  1  0
 14  8  1  0
  3 23  1  0
  5 24  1  0
  9 25  1  0
  9 26  1  0
 10 27  1  0
 10 28  1  0
 11 29  1  0
 11 30  1  0
 12 31  1  0
 12 32  1  0
 13 33  1  0
 13 34  1  0
 14 35  1  0
 14 36  1  0
 16 37  1  0
 18 38  1  0
 19 39  1  0
M  END
$$$$
