
     RDKit          3D

 65 69  0  0  0  0  0  0  0  0999 V2000
    9.7107   -2.2412    1.7398 C   0  0  0  0  0  0  0  0  0  0  0  0
    8.2494   -2.2566    1.8217 N   0  0  0  0  0  0  0  0  0  0  0  0
    7.6708   -0.9104    1.7910 C   0  0  0  0  0  0  0  0  0  0  0  0
    7.4941   -0.3439    0.3817 C   0  0  0  0  0  0  0  0  0  0  0  0
    6.7336   -1.3008   -0.5566 C   0  0  0  0  0  0  0  0  0  0  0  0
    5.4637   -0.6609   -1.1363 C   0  0  0  0  0  0  0  0  0  0  0  0
    4.5569   -0.3442   -0.0787 O   0  0  0  0  0  0  0  0  0  0  0  0
    3.3449    0.1497   -0.4424 C   0  0  0  0  0  0  0  0  0  0  0  0
    2.8835    0.4301   -1.7090 C   0  0  0  0  0  0  0  0  0  0  0  0
    1.6509    0.9185   -1.9768 N   0  0  0  0  0  0  0  0  0  0  0  0
    0.8408    1.1355   -0.9194 C   0  0  0  0  0  0  0  0  0  0  0  0
   -0.5087    1.6802   -1.1767 C   0  0  0  0  0  0  0  0  0  0  0  0
   -0.9319    2.0095   -2.4787 C   0  0  0  0  0  0  0  0  0  0  0  0
   -2.2071    2.5246   -2.7275 C   0  0  0  0  0  0  0  0  0  0  0  0
   -3.0919    2.7341   -1.6732 C   0  0  0  0  0  0  0  0  0  0  0  0
   -2.7087    2.4335   -0.3615 C   0  0  0  0  0  0  0  0  0  0  0  0
   -3.6630    2.6573    0.7895 C   0  0  0  0  0  0  0  0  0  0  0  0
   -4.5111    1.4987    1.0454 N   0  0  0  0  0  0  0  0  0  0  0  0
   -5.6747    1.4121    0.3042 N   0  0  0  0  0  0  0  0  0  0  0  0
   -6.4483    0.3911    0.5072 C   0  0  0  0  0  0  0  0  0  0  0  0
   -7.7130    0.2802   -0.2734 C   0  0  0  0  0  0  0  0  0  0  0  0
   -7.7299    0.7611   -1.5896 C   0  0  0  0  0  0  0  0  0  0  0  0
   -8.8969    0.6904   -2.3519 C   0  0  0  0  0  0  0  0  0  0  0  0
  -10.0571    0.1462   -1.8018 C   0  0  0  0  0  0  0  0  0  0  0  0
  -10.0537   -0.3246   -0.4843 C   0  0  0  0  0  0  0  0  0  0  0  0
  -11.2510   -0.8737    0.0824 C   0  0  0  0  0  0  0  0  0  0  0  0
  -12.2153   -1.3262    0.5429 N   0  0  0  0  0  0  0  0  0  0  0  0
   -8.8825   -0.2552    0.2825 C   0  0  0  0  0  0  0  0  0  0  0  0
   -6.1489   -0.7009    1.4605 C   0  0  0  0  0  0  0  0  0  0  0  0
   -5.0208   -0.5958    2.1626 C   0  0  0  0  0  0  0  0  0  0  0  0
   -4.1200    0.5629    1.9905 C   0  0  0  0  0  0  0  0  0  0  0  0
   -3.1069    0.6279    2.6810 O   0  0  0  0  0  0  0  0  0  0  0  0
   -1.4278    1.8988   -0.1301 C   0  0  0  0  0  0  0  0  0  0  0  0
    1.1955    0.8975    0.3581 N   0  0  0  0  0  0  0  0  0  0  0  0
    2.4386    0.4100    0.5616 C   0  0  0  0  0  0  0  0  0  0  0  0
    6.4191   -2.6349    0.1387 C   0  0  0  0  0  0  0  0  0  0  0  0
    7.6673   -3.1789    0.8357 C   0  0  0  0  0  0  0  0  0  0  0  0
   10.0688   -1.8611    0.7753 H   0  0  0  0  0  0  0  0  0  0  0  0
   10.1396   -1.6214    2.5352 H   0  0  0  0  0  0  0  0  0  0  0  0
   10.1122   -3.2507    1.8841 H   0  0  0  0  0  0  0  0  0  0  0  0
    6.6912   -0.9455    2.2866 H   0  0  0  0  0  0  0  0  0  0  0  0
    8.2662   -0.2174    2.3980 H   0  0  0  0  0  0  0  0  0  0  0  0
    8.4830   -0.1394   -0.0500 H   0  0  0  0  0  0  0  0  0  0  0  0
    6.9927    0.6310    0.4515 H   0  0  0  0  0  0  0  0  0  0  0  0
    7.3947   -1.5174   -1.4070 H   0  0  0  0  0  0  0  0  0  0  0  0
    4.9982   -1.3675   -1.8354 H   0  0  0  0  0  0  0  0  0  0  0  0
    5.7337    0.2553   -1.6765 H   0  0  0  0  0  0  0  0  0  0  0  0
    3.4880    0.2729   -2.5959 H   0  0  0  0  0  0  0  0  0  0  0  0
   -0.2591    1.8626   -3.3228 H   0  0  0  0  0  0  0  0  0  0  0  0
   -2.5027    2.7577   -3.7455 H   0  0  0  0  0  0  0  0  0  0  0  0
   -4.0861    3.1284   -1.8741 H   0  0  0  0  0  0  0  0  0  0  0  0
   -4.3051    3.5225    0.5816 H   0  0  0  0  0  0  0  0  0  0  0  0
   -3.0996    2.9102    1.6961 H   0  0  0  0  0  0  0  0  0  0  0  0
   -6.8298    1.1910   -2.0278 H   0  0  0  0  0  0  0  0  0  0  0  0
   -8.9010    1.0656   -3.3739 H   0  0  0  0  0  0  0  0  0  0  0  0
  -10.9617    0.0997   -2.4053 H   0  0  0  0  0  0  0  0  0  0  0  0
   -8.9026   -0.5957    1.3153 H   0  0  0  0  0  0  0  0  0  0  0  0
   -6.7983   -1.5597    1.5589 H   0  0  0  0  0  0  0  0  0  0  0  0
   -4.7069   -1.3476    2.8769 H   0  0  0  0  0  0  0  0  0  0  0  0
   -1.1431    1.6467    0.8930 H   0  0  0  0  0  0  0  0  0  0  0  0
    2.6923    0.2217    1.6016 H   0  0  0  0  0  0  0  0  0  0  0  0
    6.0689   -3.3627   -0.6051 H   0  0  0  0  0  0  0  0  0  0  0  0
    5.6069   -2.5229    0.8688 H   0  0  0  0  0  0  0  0  0  0  0  0
    8.3971   -3.4433    0.0549 H   0  0  0  0  0  0  0  0  0  0  0  0
    7.4119   -4.1146    1.3485 H   0  0  0  0  0  0  0  0  0  0  0  0
  1  2  1  0
  2  3  1  0
  3  4  1  0
  4  5  1  0
  5  6  1  0
  6  7  1  0
  7  8  1  0
  8  9  2  0
  9 10  1  0
 10 11  2  0
 11 12  1  0
 12 13  2  0
 13 14  1  0
 14 15  2  0
 15 16  1  0
 16 17  1  0
 17 18  1  0
 18 19  1  0
 19 20  2  0
 20 21  1  0
 21 22  2  0
 22 23  1  0
 23 24  2  0
 24 25  1  0
 25 26  1  0
 26 27  3  0
 25 28  2  0
 20 29  1  0
 29 30  2  0
 30 31  1  0
 31 32  2  0
 16 33  2  0
 11 34  1  0
 34 35  2  0
  5 36  1  0
 36 37  1  0
 37  2  1  0
 35  8  1  0
 33 12  1  0
 31 18  1  0
 28 21  1  0
  1 38  1  0
  1 39  1  0
  1 40  1  0
  3 41  1  0
  3 42  1  0
  4 43  1  0
  4 44  1  0
  5 45  1  0
  6 46  1  0
  6 47  1  0
  9 48  1  0
 13 49  1  0
 14 50  1  0
 15 51  1  0
 17 52  1  0
 17 53  1  0
 22 54  1  0
 23 55  1  0
 24 56  1  0
 28 57  1  0
 29 58  1  0
 30 59  1  0
 33 60  1  0
 35 61  1  0
 36 62  1  0
 36 63  1  0
 37 64  1  0
 37 65  1  0
M  END
$$$$
