
     RDKit          3D

 51 53  0  0  0  0  0  0  0  0999 V2000
   -3.5101    4.3815   -1.3346 C   0  0  0  0  0  0  0  0  0  0  0  0
   -2.7879    4.2799   -0.1148 O   0  0  0  0  0  0  0  0  0  0  0  0
   -1.8977    3.1729   -0.0904 C   0  0  0  0  0  0  0  0  0  0  0  0
   -2.5188    1.7650    0.0590 C   0  0  0  0  0  0  0  0  0  0  0  0
   -3.7411    1.6258    0.1481 O   0  0  0  0  0  0  0  0  0  0  0  0
   -1.6482    0.6619    0.0773 N   0  0  0  0  0  0  0  0  0  0  0  0
   -2.2339   -0.6985    0.1854 C   0  0  0  0  0  0  0  0  0  0  0  0
   -3.1186   -1.0712   -1.0101 C   0  0  0  0  0  0  0  0  0  0  0  0
   -3.6038   -2.5149   -0.8896 C   0  0  0  0  0  0  0  0  0  0  0  0
   -3.6546   -2.9859    0.4582 O   0  0  0  0  0  0  0  0  0  0  0  0
   -4.0651   -1.9746    1.3741 C   0  0  0  0  0  0  0  0  0  0  0  0
   -2.9565   -0.9405    1.5224 C   0  0  0  0  0  0  0  0  0  0  0  0
   -0.1797    0.7859    0.0152 C   0  0  0  0  0  0  0  0  0  0  0  0
    0.4570    0.1285   -1.2167 C   0  0  0  0  0  0  0  0  0  0  0  0
    1.9277    0.0405   -0.8262 C   0  0  0  0  0  0  0  0  0  0  0  0
    1.9170   -0.1238    0.6216 N   0  0  0  0  0  0  0  0  0  0  0  0
    2.9288   -0.6020    1.4297 C   0  0  0  0  0  0  0  0  0  0  0  0
    2.7704   -0.8521    2.6218 O   0  0  0  0  0  0  0  0  0  0  0  0
    4.2484   -0.8812    0.8373 C   0  0  0  0  0  0  0  0  0  0  0  0
    4.7819   -2.1701    0.9674 C   0  0  0  0  0  0  0  0  0  0  0  0
    6.0434   -2.4509    0.4397 C   0  0  0  0  0  0  0  0  0  0  0  0
    6.7628   -1.4415   -0.1956 C   0  0  0  0  0  0  0  0  0  0  0  0
    7.9724   -1.7148   -0.7004 F   0  0  0  0  0  0  0  0  0  0  0  0
    6.2515   -0.1542   -0.3084 C   0  0  0  0  0  0  0  0  0  0  0  0
    4.9943    0.1222    0.2184 C   0  0  0  0  0  0  0  0  0  0  0  0
    4.5230    1.3739    0.1267 F   0  0  0  0  0  0  0  0  0  0  0  0
    0.6021    0.1576    1.1798 C   0  0  0  0  0  0  0  0  0  0  0  0
   -4.1509    5.2657   -1.2785 H   0  0  0  0  0  0  0  0  0  0  0  0
   -2.8225    4.5069   -2.1767 H   0  0  0  0  0  0  0  0  0  0  0  0
   -4.1454    3.5074   -1.4978 H   0  0  0  0  0  0  0  0  0  0  0  0
   -1.2756    3.1985   -0.9923 H   0  0  0  0  0  0  0  0  0  0  0  0
   -1.2551    3.3312    0.7823 H   0  0  0  0  0  0  0  0  0  0  0  0
   -1.4001   -1.4108    0.1596 H   0  0  0  0  0  0  0  0  0  0  0  0
   -2.5903   -0.9296   -1.9602 H   0  0  0  0  0  0  0  0  0  0  0  0
   -3.9987   -0.4210   -1.0606 H   0  0  0  0  0  0  0  0  0  0  0  0
   -4.5951   -2.6262   -1.3429 H   0  0  0  0  0  0  0  0  0  0  0  0
   -2.9255   -3.1822   -1.4319 H   0  0  0  0  0  0  0  0  0  0  0  0
   -4.2688   -2.4465    2.3407 H   0  0  0  0  0  0  0  0  0  0  0  0
   -5.0008   -1.5184    1.0287 H   0  0  0  0  0  0  0  0  0  0  0  0
   -2.2145   -1.3075    2.2435 H   0  0  0  0  0  0  0  0  0  0  0  0
   -3.3689   -0.0299    1.9679 H   0  0  0  0  0  0  0  0  0  0  0  0
    0.1060    1.8407   -0.0139 H   0  0  0  0  0  0  0  0  0  0  0  0
    0.3006    0.7073   -2.1321 H   0  0  0  0  0  0  0  0  0  0  0  0
    0.0639   -0.8789   -1.3908 H   0  0  0  0  0  0  0  0  0  0  0  0
    2.4450   -0.7884   -1.3172 H   0  0  0  0  0  0  0  0  0  0  0  0
    2.4409    0.9787   -1.0588 H   0  0  0  0  0  0  0  0  0  0  0  0
    4.2191   -2.9458    1.4829 H   0  0  0  0  0  0  0  0  0  0  0  0
    6.4731   -3.4446    0.5278 H   0  0  0  0  0  0  0  0  0  0  0  0
    6.8300    0.6252   -0.7910 H   0  0  0  0  0  0  0  0  0  0  0  0
    0.1813   -0.7871    1.5362 H   0  0  0  0  0  0  0  0  0  0  0  0
    0.6879    0.8361    2.0351 H   0  0  0  0  0  0  0  0  0  0  0  0
  1  2  1  0
  2  3  1  0
  3  4  1  0
  4  5  2  0
  4  6  1  0
  6  7  1  0
  7  8  1  0
  8  9  1  0
  9 10  1  0
 10 11  1  0
 11 12  1  0
  6 13  1  0
 13 14  1  0
 14 15  1  0
 15 16  1  0
 16 17  1  0
 17 18  2  0
 17 19  1  0
 19 20  2  0
 20 21  1  0
 21 22  2  0
 22 23  1  0
 22 24  1  0
 24 25  2  0
 25 26  1  0
 16 27  1  0
 12  7  1  0
 27 13  1  0
 25 19  1  0
  1 28  1  0
  1 29  1  0
  1 30  1  0
  3 31  1  0
  3 32  1  0
  7 33  1  0
  8 34  1  0
  8 35  1  0
  9 36  1  0
  9 37  1  0
 11 38  1  0
 11 39  1  0
 12 40  1  0
 12 41  1  0
 13 42  1  0
 14 43  1  0
 14 44  1  0
 15 45  1  0
 15 46  1  0
 20 47  1  0
 21 48  1  0
 24 49  1  0
 27 50  1  0
 27 51  1  0
M  END
$$$$
