
     RDKit          3D

 53 58  0  0  0  0  0  0  0  0999 V2000
   -6.5553   -2.2101   -0.7137 C   0  0  0  0  0  0  0  0  0  0  0  0
   -5.4223   -1.4861   -1.0604 C   0  0  0  0  0  0  0  0  0  0  0  0
   -5.2866   -0.1508   -0.6548 C   0  0  0  0  0  0  0  0  0  0  0  0
   -4.1047    0.5755   -1.0874 C   0  0  0  0  0  0  0  0  0  0  0  0
   -3.9872    1.7087   -1.9156 C   0  0  0  0  0  0  0  0  0  0  0  0
   -2.7240    2.0965   -2.0927 N   0  0  0  0  0  0  0  0  0  0  0  0
   -1.9947    1.1950   -1.3884 N   0  0  0  0  0  0  0  0  0  0  0  0
   -0.6118    1.1566   -1.2512 C   0  0  0  0  0  0  0  0  0  0  0  0
   -0.0192    0.1967   -0.5206 C   0  0  0  0  0  0  0  0  0  0  0  0
    1.4315    0.1114   -0.3214 C   0  0  0  0  0  0  0  0  0  0  0  0
    2.3163    0.1900   -1.4007 C   0  0  0  0  0  0  0  0  0  0  0  0
    3.7021    0.0997   -1.2020 C   0  0  0  0  0  0  0  0  0  0  0  0
    4.2529   -0.0851    0.0733 C   0  0  0  0  0  0  0  0  0  0  0  0
    5.6316   -0.1680    0.3174 N   0  0  0  0  0  0  0  0  0  0  0  0
    6.0573   -1.4038    1.0180 C   0  0  0  0  0  0  0  0  0  0  0  0
    7.5338   -1.3029    1.4689 C   0  0  0  0  0  0  0  0  0  0  0  0
    8.4696   -0.9588    0.3792 N   0  0  0  0  0  0  0  0  0  0  0  0
    8.0126    0.3035   -0.2373 C   0  0  0  0  0  0  0  0  0  0  0  0
    6.5587    0.2404   -0.7584 C   0  0  0  0  0  0  0  0  0  0  0  0
    3.3495   -0.1471    1.1466 C   0  0  0  0  0  0  0  0  0  0  0  0
    1.9638   -0.0566    0.9583 C   0  0  0  0  0  0  0  0  0  0  0  0
   -0.9754   -0.7799    0.0983 C   0  0  0  0  0  0  0  0  0  0  0  0
   -2.2712   -0.7726   -0.0078 N   0  0  0  0  0  0  0  0  0  0  0  0
   -2.8044    0.2380   -0.7643 C   0  0  0  0  0  0  0  0  0  0  0  0
   -6.3055    0.4628    0.1301 C   0  0  0  0  0  0  0  0  0  0  0  0
   -6.2536    1.7865    0.6253 C   0  0  0  0  0  0  0  0  0  0  0  0
   -7.2976    2.3062    1.3819 C   0  0  0  0  0  0  0  0  0  0  0  0
   -8.3772    1.4881    1.6350 C   0  0  0  0  0  0  0  0  0  0  0  0
   -8.4716    0.2162    1.1960 N   0  0  0  0  0  0  0  0  0  0  0  0
   -7.4574   -0.2850    0.4684 C   0  0  0  0  0  0  0  0  0  0  0  0
   -7.5577   -1.6002    0.0389 C   0  0  0  0  0  0  0  0  0  0  0  0
   -6.6618   -3.2451   -1.0265 H   0  0  0  0  0  0  0  0  0  0  0  0
   -4.6430   -1.9658   -1.6494 H   0  0  0  0  0  0  0  0  0  0  0  0
   -4.7786    2.2702   -2.3964 H   0  0  0  0  0  0  0  0  0  0  0  0
   -0.0764    1.9488   -1.7579 H   0  0  0  0  0  0  0  0  0  0  0  0
    1.9447    0.3141   -2.4160 H   0  0  0  0  0  0  0  0  0  0  0  0
    4.3352    0.1611   -2.0820 H   0  0  0  0  0  0  0  0  0  0  0  0
    5.9387   -2.2629    0.3446 H   0  0  0  0  0  0  0  0  0  0  0  0
    5.4536   -1.5968    1.9113 H   0  0  0  0  0  0  0  0  0  0  0  0
    7.6247   -0.5537    2.2654 H   0  0  0  0  0  0  0  0  0  0  0  0
    7.8421   -2.2606    1.9027 H   0  0  0  0  0  0  0  0  0  0  0  0
    8.4165   -1.6933   -0.3266 H   0  0  0  0  0  0  0  0  0  0  0  0
    8.6822    0.5471   -1.0695 H   0  0  0  0  0  0  0  0  0  0  0  0
    8.1102    1.1155    0.4941 H   0  0  0  0  0  0  0  0  0  0  0  0
    6.2908    1.2351   -1.1350 H   0  0  0  0  0  0  0  0  0  0  0  0
    6.5102   -0.4731   -1.5912 H   0  0  0  0  0  0  0  0  0  0  0  0
    3.7233   -0.2322    2.1644 H   0  0  0  0  0  0  0  0  0  0  0  0
    1.3179   -0.0957    1.8329 H   0  0  0  0  0  0  0  0  0  0  0  0
   -0.5115   -1.5848    0.6935 H   0  0  0  0  0  0  0  0  0  0  0  0
   -5.3907    2.4202    0.4386 H   0  0  0  0  0  0  0  0  0  0  0  0
   -7.2633    3.3192    1.7655 H   0  0  0  0  0  0  0  0  0  0  0  0
   -9.2224    1.8390    2.2200 H   0  0  0  0  0  0  0  0  0  0  0  0
   -8.4444   -2.1710    0.3064 H   0  0  0  0  0  0  0  0  0  0  0  0
  1  2  2  0
  2  3  1  0
  3  4  1  0
  4  5  1  0
  5  6  2  0
  6  7  1  0
  7  8  1  0
  8  9  2  0
  9 10  1  0
 10 11  2  0
 11 12  1  0
 12 13  2  0
 13 14  1  0
 14 15  1  0
 15 16  1  0
 16 17  1  0
 17 18  1  0
 18 19  1  0
 13 20  1  0
 20 21  2  0
  9 22  1  0
 22 23  2  0
 23 24  1  0
  3 25  2  0
 25 26  1  0
 26 27  2  0
 27 28  1  0
 28 29  2  0
 29 30  1  0
 30 31  2  0
 31  1  1  0
 24  4  2  0
 30 25  1  0
 24  7  1  0
 21 10  1  0
 19 14  1  0
  1 32  1  0
  2 33  1  0
  5 34  1  0
  8 35  1  0
 11 36  1  0
 12 37  1  0
 15 38  1  0
 15 39  1  0
 16 40  1  0
 16 41  1  0
 17 42  1  0
 18 43  1  0
 18 44  1  0
 19 45  1  0
 19 46  1  0
 20 47  1  0
 21 48  1  0
 22 49  1  0
 26 50  1  0
 27 51  1  0
 28 52  1  0
 31 53  1  0
M  END
$$$$
