
     RDKit          3D

 68 71  0  0  0  0  0  0  0  0999 V2000
   -9.0378   -1.5587   -0.9586 C   0  0  0  0  0  0  0  0  0  0  0  0
   -8.7332   -1.5950    0.3454 C   0  0  0  0  0  0  0  0  0  0  0  0
   -7.7390   -0.6569    0.9180 C   0  0  0  0  0  0  0  0  0  0  0  0
   -8.1352    0.1848    1.7219 O   0  0  0  0  0  0  0  0  0  0  0  0
   -6.4231   -0.7797    0.5035 N   0  0  0  0  0  0  0  0  0  0  0  0
   -5.4346    0.1152    1.1059 C   0  0  0  0  0  0  0  0  0  0  0  0
   -4.2548    0.3991    0.1565 C   0  0  0  0  0  0  0  0  0  0  0  0
   -3.6337   -0.8388   -0.3747 N   0  0  0  0  0  0  0  0  0  0  0  0
   -2.5461   -0.5414   -1.3231 C   0  0  0  0  0  0  0  0  0  0  0  0
   -1.2863   -0.0185   -0.6262 C   0  0  0  0  0  0  0  0  0  0  0  0
   -0.1698    0.2341   -1.6446 C   0  0  0  0  0  0  0  0  0  0  0  0
    1.0486    0.7313   -1.0103 N   0  0  0  0  0  0  0  0  0  0  0  0
    2.0206   -0.1749   -0.6114 C   0  0  0  0  0  0  0  0  0  0  0  0
    1.9294   -1.3894   -0.7870 O   0  0  0  0  0  0  0  0  0  0  0  0
    3.2429    0.3809    0.0606 C   0  0  0  0  0  0  0  0  0  0  0  0
    4.3445   -0.5291    0.4439 C   0  0  0  0  0  0  0  0  0  0  0  0
    4.3975   -1.1000    1.7308 C   0  0  0  0  0  0  0  0  0  0  0  0
    3.1616   -0.7310    2.9033 Cl  0  0  0  0  0  0  0  0  0  0  0  0
    5.4495   -1.9632    2.0956 C   0  0  0  0  0  0  0  0  0  0  0  0
    5.4262   -2.4521    3.3783 O   0  0  0  0  0  0  0  0  0  0  0  0
    6.3933   -3.4298    3.7423 C   0  0  0  0  0  0  0  0  0  0  0  0
    6.4532   -2.2571    1.1645 C   0  0  0  0  0  0  0  0  0  0  0  0
    6.4176   -1.7077   -0.1226 C   0  0  0  0  0  0  0  0  0  0  0  0
    7.3717   -1.9386   -1.0821 O   0  0  0  0  0  0  0  0  0  0  0  0
    8.3625   -2.9247   -0.8192 C   0  0  0  0  0  0  0  0  0  0  0  0
    5.3638   -0.8432   -0.4772 C   0  0  0  0  0  0  0  0  0  0  0  0
    5.3461   -0.1423   -2.0743 Cl  0  0  0  0  0  0  0  0  0  0  0  0
    3.3515    1.6958    0.3069 C   0  0  0  0  0  0  0  0  0  0  0  0
    2.2750    2.5877   -0.0860 C   0  0  0  0  0  0  0  0  0  0  0  0
    2.2960    3.9420    0.1531 C   0  0  0  0  0  0  0  0  0  0  0  0
    1.3063    4.7786   -0.2092 N   0  0  0  0  0  0  0  0  0  0  0  0
    0.2511    4.2382   -0.8312 C   0  0  0  0  0  0  0  0  0  0  0  0
   -0.8178    5.0295   -1.2204 N   0  0  0  0  0  0  0  0  0  0  0  0
   -0.4817    6.3950   -1.5560 C   0  0  0  0  0  0  0  0  0  0  0  0
    0.1418    2.9361   -1.1186 N   0  0  0  0  0  0  0  0  0  0  0  0
    1.1489    2.1220   -0.7370 C   0  0  0  0  0  0  0  0  0  0  0  0
   -4.6774   -1.6563   -1.0338 C   0  0  0  0  0  0  0  0  0  0  0  0
   -5.8440   -1.9910   -0.0872 C   0  0  0  0  0  0  0  0  0  0  0  0
   -8.5326   -0.8831   -1.6416 H   0  0  0  0  0  0  0  0  0  0  0  0
   -9.8185   -2.1957   -1.3595 H   0  0  0  0  0  0  0  0  0  0  0  0
   -9.2861   -2.2002    1.0539 H   0  0  0  0  0  0  0  0  0  0  0  0
   -5.0746   -0.3657    2.0239 H   0  0  0  0  0  0  0  0  0  0  0  0
   -5.9028    1.0622    1.3944 H   0  0  0  0  0  0  0  0  0  0  0  0
   -4.6150    1.0218   -0.6741 H   0  0  0  0  0  0  0  0  0  0  0  0
   -3.5196    0.9894    0.7142 H   0  0  0  0  0  0  0  0  0  0  0  0
   -2.2675   -1.4660   -1.8447 H   0  0  0  0  0  0  0  0  0  0  0  0
   -2.8814    0.1665   -2.0915 H   0  0  0  0  0  0  0  0  0  0  0  0
   -0.9453   -0.7462    0.1220 H   0  0  0  0  0  0  0  0  0  0  0  0
   -1.4987    0.9102   -0.0863 H   0  0  0  0  0  0  0  0  0  0  0  0
   -0.4957    0.9370   -2.4217 H   0  0  0  0  0  0  0  0  0  0  0  0
    0.0615   -0.7028   -2.1671 H   0  0  0  0  0  0  0  0  0  0  0  0
    7.4007   -2.9999    3.7443 H   0  0  0  0  0  0  0  0  0  0  0  0
    6.3360   -4.3081    3.0889 H   0  0  0  0  0  0  0  0  0  0  0  0
    6.1677   -3.7579    4.7620 H   0  0  0  0  0  0  0  0  0  0  0  0
    7.2732   -2.9048    1.4479 H   0  0  0  0  0  0  0  0  0  0  0  0
    8.9702   -3.0343   -1.7216 H   0  0  0  0  0  0  0  0  0  0  0  0
    9.0270   -2.6057   -0.0085 H   0  0  0  0  0  0  0  0  0  0  0  0
    7.9094   -3.8977   -0.6013 H   0  0  0  0  0  0  0  0  0  0  0  0
    4.2255    2.1203    0.7905 H   0  0  0  0  0  0  0  0  0  0  0  0
    3.1297    4.4196    0.6599 H   0  0  0  0  0  0  0  0  0  0  0  0
   -1.3219    4.5134   -1.9322 H   0  0  0  0  0  0  0  0  0  0  0  0
   -1.3871    6.9151   -1.8890 H   0  0  0  0  0  0  0  0  0  0  0  0
    0.2482    6.4410   -2.3732 H   0  0  0  0  0  0  0  0  0  0  0  0
   -0.0946    6.9413   -0.6884 H   0  0  0  0  0  0  0  0  0  0  0  0
   -4.2438   -2.5996   -1.3850 H   0  0  0  0  0  0  0  0  0  0  0  0
   -5.0706   -1.1268   -1.9112 H   0  0  0  0  0  0  0  0  0  0  0  0
   -6.5900   -2.5824   -0.6239 H   0  0  0  0  0  0  0  0  0  0  0  0
   -5.4885   -2.6118    0.7456 H   0  0  0  0  0  0  0  0  0  0  0  0
  1  2  2  3
  2  3  1  0
  3  4  2  0
  3  5  1  0
  5  6  1  0
  6  7  1  0
  7  8  1  0
  8  9  1  0
  9 10  1  0
 10 11  1  0
 11 12  1  0
 12 13  1  0
 13 14  2  0
 13 15  1  0
 15 16  1  0
 16 17  2  0
 17 18  1  0
 17 19  1  0
 19 20  1  0
 20 21  1  0
 19 22  2  0
 22 23  1  0
 23 24  1  0
 24 25  1  0
 23 26  2  0
 26 27  1  0
 15 28  2  0
 28 29  1  0
 29 30  2  0
 30 31  1  0
 31 32  2  0
 32 33  1  0
 33 34  1  0
 32 35  1  0
 35 36  2  0
  8 37  1  0
 37 38  1  0
 38  5  1  0
 36 12  1  0
 26 16  1  0
 36 29  1  0
  1 39  1  0
  1 40  1  0
  2 41  1  0
  6 42  1  0
  6 43  1  0
  7 44  1  0
  7 45  1  0
  9 46  1  0
  9 47  1  0
 10 48  1  0
 10 49  1  0
 11 50  1  0
 11 51  1  0
 21 52  1  0
 21 53  1  0
 21 54  1  0
 22 55  1  0
 25 56  1  0
 25 57  1  0
 25 58  1  0
 28 59  1  0
 30 60  1  0
 33 61  1  0
 34 62  1  0
 34 63  1  0
 34 64  1  0
 37 65  1  0
 37 66  1  0
 38 67  1  0
 38 68  1  0
M  END
$$$$
