
     RDKit          3D

 45 47  0  0  0  0  0  0  0  0999 V2000
   -4.1945    2.9472    3.5881 C   0  0  0  0  0  0  0  0  0  0  0  0
   -4.0047    1.8118    2.5964 C   0  0  0  0  0  0  0  0  0  0  0  0
   -2.7011    1.0592    2.8119 C   0  0  0  0  0  0  0  0  0  0  0  0
   -2.0051    1.2525    3.8076 O   0  0  0  0  0  0  0  0  0  0  0  0
   -2.3352    0.1416    1.8334 N   0  0  0  0  0  0  0  0  0  0  0  0
   -3.2680   -0.4074    0.8286 C   0  0  0  0  0  0  0  0  0  0  0  0
   -2.6053   -0.5825   -0.5472 C   0  0  0  0  0  0  0  0  0  0  0  0
   -1.2673   -1.2171   -0.3669 C   0  0  0  0  0  0  0  0  0  0  0  0
   -0.4256   -1.9638   -1.6377 S   0  0  0  0  0  0  0  0  0  0  0  0
    0.8783   -2.3751   -0.6118 C   0  0  0  0  0  0  0  0  0  0  0  0
    2.2576   -3.2467   -1.3420 S   0  0  0  0  0  6  0  0  0  0  0  0
    2.6508   -4.1890   -0.3125 O   0  0  0  0  0  0  0  0  0  0  0  0
    1.8498   -3.6916   -2.6582 O   0  0  0  0  0  0  0  0  0  0  0  0
    3.5424   -2.1456   -1.4838 N   0  0  0  0  0  0  0  0  0  0  0  0
    3.2594   -0.9442   -2.2144 C   0  0  0  0  0  0  0  0  0  0  0  0
    3.1133   -0.9820   -3.5997 C   0  0  0  0  0  0  0  0  0  0  0  0
    2.8025    0.1873   -4.2931 C   0  0  0  0  0  0  0  0  0  0  0  0
    2.6351    1.3853   -3.5981 C   0  0  0  0  0  0  0  0  0  0  0  0
    2.7760    1.4242   -2.2075 C   0  0  0  0  0  0  0  0  0  0  0  0
    3.0880    0.2587   -1.5043 C   0  0  0  0  0  0  0  0  0  0  0  0
    3.2464    0.1619   -0.1444 O   0  0  0  0  0  0  0  0  0  0  0  0
    3.1055    1.3620    0.6063 C   0  0  0  0  0  0  0  0  0  0  0  0
    0.6637   -1.9285    0.6824 C   0  0  0  0  0  0  0  0  0  0  0  0
   -0.5813   -1.2432    0.8324 C   0  0  0  0  0  0  0  0  0  0  0  0
   -1.1150   -0.6354    2.0972 C   0  0  0  0  0  0  0  0  0  0  0  0
   -4.1982    2.5783    4.6200 H   0  0  0  0  0  0  0  0  0  0  0  0
   -5.1472    3.4571    3.4030 H   0  0  0  0  0  0  0  0  0  0  0  0
   -3.3887    3.6852    3.4992 H   0  0  0  0  0  0  0  0  0  0  0  0
   -4.8339    1.1035    2.7078 H   0  0  0  0  0  0  0  0  0  0  0  0
   -4.0160    2.2286    1.5813 H   0  0  0  0  0  0  0  0  0  0  0  0
   -3.6061   -1.3774    1.2177 H   0  0  0  0  0  0  0  0  0  0  0  0
   -4.1601    0.2141    0.7155 H   0  0  0  0  0  0  0  0  0  0  0  0
   -2.4765    0.3985   -1.0226 H   0  0  0  0  0  0  0  0  0  0  0  0
   -3.2547   -1.1894   -1.1916 H   0  0  0  0  0  0  0  0  0  0  0  0
    3.8932   -1.9347   -0.5493 H   0  0  0  0  0  0  0  0  0  0  0  0
    3.2358   -1.9166   -4.1453 H   0  0  0  0  0  0  0  0  0  0  0  0
    2.6870    0.1623   -5.3725 H   0  0  0  0  0  0  0  0  0  0  0  0
    2.3907    2.2950   -4.1429 H   0  0  0  0  0  0  0  0  0  0  0  0
    2.6288    2.3750   -1.7094 H   0  0  0  0  0  0  0  0  0  0  0  0
    2.0897    1.7657    0.5188 H   0  0  0  0  0  0  0  0  0  0  0  0
    3.8572    2.1025    0.3097 H   0  0  0  0  0  0  0  0  0  0  0  0
    3.2760    1.1141    1.6572 H   0  0  0  0  0  0  0  0  0  0  0  0
    1.3801   -2.0880    1.4788 H   0  0  0  0  0  0  0  0  0  0  0  0
   -0.3530    0.0115    2.5494 H   0  0  0  0  0  0  0  0  0  0  0  0
   -1.3697   -1.4250    2.8155 H   0  0  0  0  0  0  0  0  0  0  0  0
  1  2  1  0
  2  3  1  0
  3  4  2  0
  3  5  1  0
  5  6  1  0
  6  7  1  0
  7  8  1  0
  8  9  1  0
  9 10  1  0
 10 11  1  0
 11 12  2  0
 11 13  2  0
 11 14  1  0
 14 15  1  0
 15 16  2  0
 16 17  1  0
 17 18  2  0
 18 19  1  0
 19 20  2  0
 20 21  1  0
 21 22  1  0
 10 23  2  0
 23 24  1  0
 24 25  1  0
 25  5  1  0
 24  8  2  0
 20 15  1  0
  1 26  1  0
  1 27  1  0
  1 28  1  0
  2 29  1  0
  2 30  1  0
  6 31  1  0
  6 32  1  0
  7 33  1  0
  7 34  1  0
 14 35  1  0
 16 36  1  0
 17 37  1  0
 18 38  1  0
 19 39  1  0
 22 40  1  0
 22 41  1  0
 22 42  1  0
 23 43  1  0
 25 44  1  0
 25 45  1  0
M  END
$$$$
