
     RDKit          3D

 52 53  0  0  0  0  0  0  0  0999 V2000
    0.6906    0.0000    0.0000 Cl  0  0  0  0  0  0  0  0  0  0  0  0
    0.6898    0.0000    0.0000 Cl  0  0  0  0  0  0  0  0  0  0  0  0
    4.8289   -6.3320   -0.2056 N   0  0  0  0  0  0  0  0  0  0  0  0
    4.3043   -5.1604   -0.2250 C   0  0  0  0  0  0  0  0  0  0  0  0
    3.7328   -3.9402   -0.2510 C   0  0  0  0  0  0  0  0  0  0  0  0
    2.4738   -3.6285   -0.7309 C   0  0  0  0  0  0  0  0  0  0  0  0
    1.9324   -2.3782   -0.7235 C   0  0  0  0  0  0  0  0  0  0  0  0
    2.6168   -1.3009   -0.2260 C   0  0  0  0  0  0  0  0  0  0  0  0
    2.1480   -0.0173   -0.1718 O   0  0  0  0  0  0  0  0  0  0  0  0
    0.8993    0.4212   -0.5940 C   0  0  2  0  0  0  0  0  0  0  0  0
    0.9823    1.7626   -1.2018 C   0  0  0  0  0  0  0  0  0  0  0  0
    1.4377    2.1788   -2.4744 C   0  0  0  0  0  0  0  0  0  0  0  0
    1.4015    3.5016   -2.8652 C   0  0  0  0  0  0  0  0  0  0  0  0
    0.9217    4.4571   -2.0208 C   0  0  0  0  0  0  0  0  0  0  0  0
    0.4697    4.0870   -0.7740 C   0  0  0  0  0  0  0  0  0  0  0  0
    0.5074    2.7499   -0.3873 C   0  0  0  0  0  0  0  0  0  0  0  0
    0.0908    2.1238    0.9064 C   0  0  0  0  0  0  0  0  0  0  0  0
   -0.0530    0.6789    0.6047 C   0  0  1  0  0  0  0  0  0  0  0  0
   -1.3505    0.1766    0.4018 N   0  0  0  0  0  0  0  0  0  0  0  0
   -1.4927   -1.2092    0.2453 C   0  0  0  0  0  0  0  0  0  0  0  0
   -2.6892   -1.6844    1.0842 C   0  0  0  0  0  0  0  0  0  0  0  0
   -3.9140   -1.0790    0.4752 C   0  0  0  0  0  0  0  0  0  0  0  0
   -3.7758    0.4076    0.2525 C   0  0  1  0  0  0  0  0  0  0  0  0
   -4.9017    1.0642    0.9260 N   0  0  0  0  0  0  0  0  0  0  0  0
   -2.4609    0.9382    0.7564 C   0  0  0  0  0  0  0  0  0  0  0  0
    3.8823   -1.5566    0.2620 C   0  0  0  0  0  0  0  0  0  0  0  0
    4.8910   -0.2570    0.9237 Cl  0  0  0  0  0  0  0  0  0  0  0  0
    4.4402   -2.7914    0.2667 C   0  0  0  0  0  0  0  0  0  0  0  0
   -0.6906    0.0000    0.0000 H   0  0  0  0  0  0  0  0  0  0  0  0
   -0.6898    0.0000    0.0000 H   0  0  0  0  0  0  0  0  0  0  0  0
    1.9110   -4.4986   -1.1347 H   0  0  0  0  0  0  0  0  0  0  0  0
    0.9301   -2.2629   -1.1391 H   0  0  0  0  0  0  0  0  0  0  0  0
    0.3863   -0.3404   -1.2349 H   0  0  0  0  0  0  0  0  0  0  0  0
    1.8129    1.3840   -3.1066 H   0  0  0  0  0  0  0  0  0  0  0  0
    1.7564    3.7835   -3.8427 H   0  0  0  0  0  0  0  0  0  0  0  0
    0.8841    5.5213   -2.3125 H   0  0  0  0  0  0  0  0  0  0  0  0
    0.0747    4.8375   -0.0665 H   0  0  0  0  0  0  0  0  0  0  0  0
   -0.7519    2.6455    1.3582 H   0  0  0  0  0  0  0  0  0  0  0  0
    0.9580    2.3501    1.5875 H   0  0  0  0  0  0  0  0  0  0  0  0
    0.4172    0.1064    1.4376 H   0  0  0  0  0  0  0  0  0  0  0  0
   -0.5616   -1.6963    0.6045 H   0  0  0  0  0  0  0  0  0  0  0  0
   -1.7339   -1.4271   -0.8090 H   0  0  0  0  0  0  0  0  0  0  0  0
   -2.7654   -2.8041    1.0040 H   0  0  0  0  0  0  0  0  0  0  0  0
   -2.5744   -1.3163    2.1177 H   0  0  0  0  0  0  0  0  0  0  0  0
   -4.7733   -1.2915    1.1522 H   0  0  0  0  0  0  0  0  0  0  0  0
   -4.1353   -1.6445   -0.4653 H   0  0  0  0  0  0  0  0  0  0  0  0
   -3.9082    0.5706   -0.8317 H   0  0  0  0  0  0  0  0  0  0  0  0
   -4.8195    2.1096    0.8861 H   0  0  0  0  0  0  0  0  0  0  0  0
   -4.9195    0.8046    1.9346 H   0  0  0  0  0  0  0  0  0  0  0  0
   -2.5636    1.0039    1.8620 H   0  0  0  0  0  0  0  0  0  0  0  0
   -2.3661    1.9802    0.4124 H   0  0  0  0  0  0  0  0  0  0  0  0
    5.4193   -3.0280    0.6440 H   0  0  0  0  0  0  0  0  0  0  0  0
  3  4  3  0
  4  5  1  0
  5  6  2  0
  6  7  1  0
  7  8  2  0
  8  9  1  0
  9 10  1  0
 10 11  1  0
 11 12  2  0
 12 13  1  0
 13 14  2  0
 14 15  1  0
 15 16  2  0
 16 17  1  0
 17 18  1  0
 18 19  1  0
 19 20  1  0
 20 21  1  0
 21 22  1  0
 22 23  1  0
 23 24  1  0
 23 25  1  0
  8 26  1  0
 26 27  1  0
 26 28  2  0
 28  5  1  0
 18 10  1  0
 25 19  1  0
 16 11  1  0
  1 29  1  0
  2 30  1  0
  6 31  1  0
  7 32  1  0
 10 33  1  6
 12 34  1  0
 13 35  1  0
 14 36  1  0
 15 37  1  0
 17 38  1  0
 17 39  1  0
 18 40  1  1
 20 41  1  0
 20 42  1  0
 21 43  1  0
 21 44  1  0
 22 45  1  0
 22 46  1  0
 23 47  1  6
 24 48  1  0
 24 49  1  0
 25 50  1  0
 25 51  1  0
 28 52  1  0
M  END
$$$$
