
     RDKit          3D

 41 45  0  0  0  0  0  0  0  0999 V2000
    2.9273    1.5625   -2.1224 O   0  0  0  0  0  0  0  0  0  0  0  0
    1.8835    1.8563   -1.5609 C   0  0  0  0  0  0  0  0  0  0  0  0
    1.0537    2.7517   -2.1468 O   0  0  0  0  0  0  0  0  0  0  0  0
    1.3877    1.3787   -0.1862 C   0  0  0  0  0  0  0  0  0  0  0  0
    2.2848    0.3634    0.5003 C   0  0  0  0  0  0  0  0  0  0  0  0
    3.7496    0.6655    0.7883 C   0  0  0  0  0  0  0  0  0  0  0  0
    4.2611   -0.7392    0.9597 C   0  0  0  0  0  0  0  0  0  0  0  0
    3.4338   -1.6358    0.3963 C   0  0  0  0  0  0  0  0  0  0  0  0
    2.2993   -0.9391   -0.2974 C   0  0  0  0  0  0  0  0  0  0  0  0
    0.9042   -1.5009   -0.2951 C   0  0  0  0  0  0  0  0  0  0  0  0
    0.6805   -2.8852   -0.3611 C   0  0  0  0  0  0  0  0  0  0  0  0
   -0.6157   -3.3832   -0.4389 C   0  0  0  0  0  0  0  0  0  0  0  0
   -0.8730   -5.0833   -0.5247 Cl  0  0  0  0  0  0  0  0  0  0  0  0
   -1.7044   -2.5193   -0.4698 C   0  0  0  0  0  0  0  0  0  0  0  0
   -1.5034   -1.1329   -0.4069 C   0  0  0  0  0  0  0  0  0  0  0  0
   -0.1884   -0.5933   -0.3333 C   0  0  0  0  0  0  0  0  0  0  0  0
    0.0162    0.7964   -0.2699 N   0  0  0  0  0  0  0  0  0  0  0  0
   -1.1219    1.7333   -0.2817 C   0  0  0  0  0  0  0  0  0  0  0  0
   -2.3232    1.0518    0.3318 C   0  0  0  0  0  0  0  0  0  0  0  0
   -3.6408    1.8058    0.4293 C   0  0  0  0  0  0  0  0  0  0  0  0
   -4.5918    0.6405    0.4747 C   0  0  0  0  0  0  0  0  0  0  0  0
   -4.0228   -0.4740   -0.0156 C   0  0  0  0  0  0  0  0  0  0  0  0
   -2.6484   -0.1672   -0.5285 C   0  0  0  0  0  0  0  0  0  0  0  0
    1.4850    2.9344   -3.0076 H   0  0  0  0  0  0  0  0  0  0  0  0
    1.3633    2.2739    0.4495 H   0  0  0  0  0  0  0  0  0  0  0  0
    1.8229    0.1727    1.4884 H   0  0  0  0  0  0  0  0  0  0  0  0
    4.2775    1.1707   -0.0240 H   0  0  0  0  0  0  0  0  0  0  0  0
    3.8592    1.2487    1.7073 H   0  0  0  0  0  0  0  0  0  0  0  0
    5.1878   -0.9831    1.4609 H   0  0  0  0  0  0  0  0  0  0  0  0
    3.6190   -2.6998    0.3672 H   0  0  0  0  0  0  0  0  0  0  0  0
    2.5908   -0.8023   -1.3465 H   0  0  0  0  0  0  0  0  0  0  0  0
    1.5171   -3.5780   -0.3663 H   0  0  0  0  0  0  0  0  0  0  0  0
   -2.7068   -2.9279   -0.5569 H   0  0  0  0  0  0  0  0  0  0  0  0
   -0.8805    2.6349    0.2929 H   0  0  0  0  0  0  0  0  0  0  0  0
   -1.3317    2.0463   -1.3112 H   0  0  0  0  0  0  0  0  0  0  0  0
   -2.0489    0.7375    1.3550 H   0  0  0  0  0  0  0  0  0  0  0  0
   -3.8418    2.4417   -0.4386 H   0  0  0  0  0  0  0  0  0  0  0  0
   -3.6891    2.4060    1.3422 H   0  0  0  0  0  0  0  0  0  0  0  0
   -5.6048    0.7056    0.8476 H   0  0  0  0  0  0  0  0  0  0  0  0
   -4.5252   -1.4255   -0.1106 H   0  0  0  0  0  0  0  0  0  0  0  0
   -2.7417    0.0919   -1.5938 H   0  0  0  0  0  0  0  0  0  0  0  0
  1  2  2  0
  2  3  1  0
  2  4  1  0
  4  5  1  0
  5  6  1  0
  6  7  1  0
  7  8  2  0
  8  9  1  0
  9 10  1  0
 10 11  2  0
 11 12  1  0
 12 13  1  0
 12 14  2  0
 14 15  1  0
 15 16  2  0
 16 17  1  0
 17 18  1  0
 18 19  1  0
 19 20  1  0
 20 21  1  0
 21 22  2  0
 22 23  1  0
 17  4  1  0
 23 19  1  0
  9  5  1  0
 16 10  1  0
 23 15  1  0
  3 24  1  0
  4 25  1  0
  5 26  1  0
  6 27  1  0
  6 28  1  0
  7 29  1  0
  8 30  1  0
  9 31  1  0
 11 32  1  0
 14 33  1  0
 18 34  1  0
 18 35  1  0
 19 36  1  0
 20 37  1  0
 20 38  1  0
 21 39  1  0
 22 40  1  0
 23 41  1  0
M  END
$$$$
