
     RDKit          3D

 59 63  0  0  0  0  0  0  0  0999 V2000
   -7.1506    4.3374   -1.0338 C   0  0  0  0  0  0  0  0  0  0  0  0
   -5.8577    3.9482   -1.4789 O   0  0  0  0  0  0  0  0  0  0  0  0
   -5.3982    2.7327   -1.0541 C   0  0  0  0  0  0  0  0  0  0  0  0
   -4.1190    2.4005   -1.5037 C   0  0  0  0  0  0  0  0  0  0  0  0
   -3.5207    1.1856   -1.1474 C   0  0  0  0  0  0  0  0  0  0  0  0
   -4.1943    0.2902   -0.3153 C   0  0  0  0  0  0  0  0  0  0  0  0
   -3.6408   -0.9732    0.0487 N   0  0  0  0  0  0  0  0  0  0  0  0
   -4.5139   -1.9898    0.3333 N   0  0  0  0  0  0  0  0  0  0  0  0
   -3.7786   -3.1152    0.3005 C   0  0  0  0  0  0  0  0  0  0  0  0
   -4.3986   -4.4425    0.4241 C   0  0  0  0  0  0  0  0  0  0  0  0
   -5.7586   -4.4154    0.5539 N   0  0  0  0  0  0  0  0  0  0  0  0
   -3.7734   -5.4972    0.4104 O   0  0  0  0  0  0  0  0  0  0  0  0
   -2.4127   -2.8001    0.1714 C   0  0  0  0  0  0  0  0  0  0  0  0
   -2.3307   -1.4193    0.1260 C   0  0  0  0  0  0  0  0  0  0  0  0
   -1.0836   -0.6742    0.1790 C   0  0  0  0  0  0  0  0  0  0  0  0
   -1.0515    0.5480    0.0972 O   0  0  0  0  0  0  0  0  0  0  0  0
    0.0832   -1.4847    0.3022 N   0  0  0  0  0  0  0  0  0  0  0  0
    1.4088   -0.9251    0.3159 C   0  0  0  0  0  0  0  0  0  0  0  0
    1.6768    0.3845    0.7118 C   0  0  0  0  0  0  0  0  0  0  0  0
    2.9868    0.9006    0.7140 C   0  0  0  0  0  0  0  0  0  0  0  0
    4.0964    0.1340    0.3234 C   0  0  0  0  0  0  0  0  0  0  0  0
    5.4420    0.6921    0.3218 N   0  0  0  0  0  0  0  0  0  0  0  0
    5.5455    2.1517    0.5067 C   0  0  0  0  0  0  0  0  0  0  0  0
    6.9462    2.7416    0.5345 C   0  0  0  0  0  0  0  0  0  0  0  0
    7.8065    2.0539   -0.4952 C   0  0  0  0  0  0  0  0  0  0  0  0
    7.9109    0.6011   -0.0963 C   0  0  0  0  0  0  0  0  0  0  0  0
    6.5765   -0.1004    0.0871 C   0  0  0  0  0  0  0  0  0  0  0  0
    6.5978   -1.3337    0.0725 O   0  0  0  0  0  0  0  0  0  0  0  0
    3.8128   -1.1707   -0.0943 C   0  0  0  0  0  0  0  0  0  0  0  0
    2.5040   -1.6894   -0.0957 C   0  0  0  0  0  0  0  0  0  0  0  0
   -0.0568   -2.8785    0.7978 C   0  0  0  0  0  0  0  0  0  0  0  0
   -1.2056   -3.6527    0.1460 C   0  0  0  0  0  0  0  0  0  0  0  0
   -5.4941    0.6124    0.1108 C   0  0  0  0  0  0  0  0  0  0  0  0
   -6.0874    1.8296   -0.2482 C   0  0  0  0  0  0  0  0  0  0  0  0
   -7.9187    3.6508   -1.4051 H   0  0  0  0  0  0  0  0  0  0  0  0
   -7.1858    4.4178    0.0576 H   0  0  0  0  0  0  0  0  0  0  0  0
   -7.3623    5.3280   -1.4474 H   0  0  0  0  0  0  0  0  0  0  0  0
   -3.5806    3.0909   -2.1492 H   0  0  0  0  0  0  0  0  0  0  0  0
   -2.5496    0.9610   -1.5766 H   0  0  0  0  0  0  0  0  0  0  0  0
   -6.2750   -5.2784    0.6158 H   0  0  0  0  0  0  0  0  0  0  0  0
   -6.2318   -3.5193    0.5311 H   0  0  0  0  0  0  0  0  0  0  0  0
    0.8911    1.0434    1.0704 H   0  0  0  0  0  0  0  0  0  0  0  0
    3.0833    1.9278    1.0502 H   0  0  0  0  0  0  0  0  0  0  0  0
    5.0703    2.4217    1.4564 H   0  0  0  0  0  0  0  0  0  0  0  0
    4.9872    2.6204   -0.3139 H   0  0  0  0  0  0  0  0  0  0  0  0
    6.9003    3.8201    0.3472 H   0  0  0  0  0  0  0  0  0  0  0  0
    7.3835    2.6119    1.5327 H   0  0  0  0  0  0  0  0  0  0  0  0
    8.8025    2.5082   -0.5264 H   0  0  0  0  0  0  0  0  0  0  0  0
    7.3649    2.1524   -1.4939 H   0  0  0  0  0  0  0  0  0  0  0  0
    8.4662    0.5005    0.8440 H   0  0  0  0  0  0  0  0  0  0  0  0
    8.4699    0.0630   -0.8708 H   0  0  0  0  0  0  0  0  0  0  0  0
    4.5822   -1.8356   -0.4719 H   0  0  0  0  0  0  0  0  0  0  0  0
    2.3782   -2.6952   -0.4866 H   0  0  0  0  0  0  0  0  0  0  0  0
    0.8607   -3.4599    0.6854 H   0  0  0  0  0  0  0  0  0  0  0  0
   -0.2470   -2.7924    1.8769 H   0  0  0  0  0  0  0  0  0  0  0  0
   -0.9539   -3.8891   -0.8944 H   0  0  0  0  0  0  0  0  0  0  0  0
   -1.3580   -4.5952    0.6800 H   0  0  0  0  0  0  0  0  0  0  0  0
   -6.0579   -0.0709    0.7437 H   0  0  0  0  0  0  0  0  0  0  0  0
   -7.0871    2.0360    0.1189 H   0  0  0  0  0  0  0  0  0  0  0  0
  1  2  1  0
  2  3  1  0
  3  4  2  0
  4  5  1  0
  5  6  2  0
  6  7  1  0
  7  8  1  0
  8  9  2  0
  9 10  1  0
 10 11  1  0
 10 12  2  0
  9 13  1  0
 13 14  2  0
 14 15  1  0
 15 16  2  0
 15 17  1  0
 17 18  1  0
 18 19  2  0
 19 20  1  0
 20 21  2  0
 21 22  1  0
 22 23  1  0
 23 24  1  0
 24 25  1  0
 25 26  1  0
 26 27  1  0
 27 28  2  0
 21 29  1  0
 29 30  2  0
 17 31  1  0
 31 32  1  0
  6 33  1  0
 33 34  2  0
 34  3  1  0
 14  7  1  0
 30 18  1  0
 32 13  1  0
 27 22  1  0
  1 35  1  0
  1 36  1  0
  1 37  1  0
  4 38  1  0
  5 39  1  0
 11 40  1  0
 11 41  1  0
 19 42  1  0
 20 43  1  0
 23 44  1  0
 23 45  1  0
 24 46  1  0
 24 47  1  0
 25 48  1  0
 25 49  1  0
 26 50  1  0
 26 51  1  0
 29 52  1  0
 30 53  1  0
 31 54  1  0
 31 55  1  0
 32 56  1  0
 32 57  1  0
 33 58  1  0
 34 59  1  0
M  END
$$$$
