
     RDKit          3D

 74 77  0  0  0  0  0  0  0  0999 V2000
   -2.0534   -4.1710   -1.5132 C   0  0  0  0  0  0  0  0  0  0  0  0
   -2.2703   -2.9947   -0.5579 C   0  0  0  0  0  0  0  0  0  0  0  0
   -3.7299   -2.9608   -0.1070 C   0  0  0  0  0  0  0  0  0  0  0  0
   -1.8115   -1.6862   -1.2348 C   0  0  0  0  0  0  0  0  0  0  0  0
   -1.9393   -0.4408   -0.3433 C   0  0  2  0  0  0  0  0  0  0  0  0
   -3.2611    0.1699   -0.4919 N   0  0  0  0  0  0  0  0  0  0  0  0
   -3.8514    0.8197    0.5808 C   0  0  0  0  0  0  0  0  0  0  0  0
   -3.3657    0.7386    1.7079 O   0  0  0  0  0  0  0  0  0  0  0  0
   -5.0537    1.5748    0.2534 C   0  0  0  0  0  0  0  0  0  0  0  0
   -5.8122    1.5830   -0.9019 C   0  0  0  0  0  0  0  0  0  0  0  0
   -6.9477    2.4596   -0.8346 C   0  0  0  0  0  0  0  0  0  0  0  0
   -7.9521    2.7399   -1.7924 C   0  0  0  0  0  0  0  0  0  0  0  0
   -8.9816    3.6386   -1.4953 C   0  0  0  0  0  0  0  0  0  0  0  0
   -9.0294    4.2647   -0.2570 C   0  0  0  0  0  0  0  0  0  0  0  0
   -8.0523    4.0061    0.7070 C   0  0  0  0  0  0  0  0  0  0  0  0
   -7.0176    3.0995    0.4030 C   0  0  0  0  0  0  0  0  0  0  0  0
   -5.7218    2.6237    1.4278 S   0  0  0  0  0  0  0  0  0  0  0  0
   -0.8978    0.6199   -0.7737 C   0  0  0  0  0  0  0  0  0  0  0  0
   -1.2231    1.4974   -1.5820 O   0  0  0  0  0  0  0  0  0  0  0  0
    0.3978    0.5315   -0.2751 N   0  0  0  0  0  0  0  0  0  0  0  0
    0.9403   -0.6141    0.4639 C   0  0  0  0  0  0  0  0  0  0  0  0
    1.9684   -0.1878    1.5218 C   0  0  0  0  0  0  0  0  0  0  0  0
    2.9975    0.7000    0.9614 N   0  0  0  0  0  0  0  0  0  0  0  0
    4.3021    0.7832    1.4301 C   0  0  0  0  0  0  0  0  0  0  0  0
    5.0224    1.7560    1.1874 O   0  0  0  0  0  0  0  0  0  0  0  0
    4.8801   -0.3984    2.2071 C   0  0  2  0  0  0  0  0  0  0  0  0
    4.6759   -0.1869    3.7081 C   0  0  0  0  0  0  0  0  0  0  0  0
    4.5901   -1.4530    4.3691 O   0  0  0  0  0  0  0  0  0  0  0  0
    6.3413   -0.5140    1.9234 N   0  0  0  0  0  0  0  0  0  0  0  0
    6.8261   -1.6281    0.7600 S   0  0  0  0  0  6  0  0  0  0  0  0
    8.2541   -1.5173    0.5911 O   0  0  0  0  0  0  0  0  0  0  0  0
    6.2191   -2.8892    1.1336 O   0  0  0  0  0  0  0  0  0  0  0  0
    6.0307   -1.0678   -0.7230 C   0  0  0  0  0  0  0  0  0  0  0  0
    4.9927   -1.8516   -1.2529 C   0  0  0  0  0  0  0  0  0  0  0  0
    4.3097   -1.4301   -2.3940 C   0  0  0  0  0  0  0  0  0  0  0  0
    4.6671   -0.2326   -3.0078 C   0  0  0  0  0  0  0  0  0  0  0  0
    3.8029    0.3021   -4.3933 Cl  0  0  0  0  0  0  0  0  0  0  0  0
    5.7087    0.5398   -2.4978 C   0  0  0  0  0  0  0  0  0  0  0  0
    6.4023    0.1220   -1.3551 C   0  0  0  0  0  0  0  0  0  0  0  0
    7.6592    1.1622   -0.7913 Cl  0  0  0  0  0  0  0  0  0  0  0  0
    2.4568    1.8558    0.2338 C   0  0  0  0  0  0  0  0  0  0  0  0
    1.4059    1.4545   -0.8101 C   0  0  0  0  0  0  0  0  0  0  0  0
   -2.6765   -4.0742   -2.4088 H   0  0  0  0  0  0  0  0  0  0  0  0
   -2.3069   -5.1183   -1.0262 H   0  0  0  0  0  0  0  0  0  0  0  0
   -1.0088   -4.2299   -1.8329 H   0  0  0  0  0  0  0  0  0  0  0  0
   -1.6446   -3.1638    0.3266 H   0  0  0  0  0  0  0  0  0  0  0  0
   -3.8810   -2.2391    0.7007 H   0  0  0  0  0  0  0  0  0  0  0  0
   -4.3956   -2.6996   -0.9363 H   0  0  0  0  0  0  0  0  0  0  0  0
   -4.0402   -3.9382    0.2764 H   0  0  0  0  0  0  0  0  0  0  0  0
   -2.3724   -1.5380   -2.1680 H   0  0  0  0  0  0  0  0  0  0  0  0
   -0.7645   -1.8176   -1.5383 H   0  0  0  0  0  0  0  0  0  0  0  0
   -1.7865   -0.6892    0.7094 H   0  0  0  0  0  0  0  0  0  0  0  0
   -3.4297    0.5930   -1.3974 H   0  0  0  0  0  0  0  0  0  0  0  0
   -5.5905    0.9766   -1.7712 H   0  0  0  0  0  0  0  0  0  0  0  0
   -7.9254    2.2554   -2.7651 H   0  0  0  0  0  0  0  0  0  0  0  0
   -9.7462    3.8474   -2.2400 H   0  0  0  0  0  0  0  0  0  0  0  0
   -9.8334    4.9622   -0.0323 H   0  0  0  0  0  0  0  0  0  0  0  0
   -8.0921    4.4940    1.6767 H   0  0  0  0  0  0  0  0  0  0  0  0
    1.4204   -1.2636   -0.2783 H   0  0  0  0  0  0  0  0  0  0  0  0
    0.1547   -1.1975    0.9455 H   0  0  0  0  0  0  0  0  0  0  0  0
    2.4021   -1.0769    1.9795 H   0  0  0  0  0  0  0  0  0  0  0  0
    1.4702    0.3758    2.3204 H   0  0  0  0  0  0  0  0  0  0  0  0
    4.3999   -1.3298    1.8975 H   0  0  0  0  0  0  0  0  0  0  0  0
    3.7457    0.3496    3.9216 H   0  0  0  0  0  0  0  0  0  0  0  0
    5.5013    0.3733    4.1640 H   0  0  0  0  0  0  0  0  0  0  0  0
    5.4233   -1.9285    4.1776 H   0  0  0  0  0  0  0  0  0  0  0  0
    6.8109    0.3923    1.8090 H   0  0  0  0  0  0  0  0  0  0  0  0
    4.7069   -2.7921   -0.7841 H   0  0  0  0  0  0  0  0  0  0  0  0
    3.5045   -2.0381   -2.7994 H   0  0  0  0  0  0  0  0  0  0  0  0
    5.9775    1.4739   -2.9863 H   0  0  0  0  0  0  0  0  0  0  0  0
    3.2609    2.4112   -0.2597 H   0  0  0  0  0  0  0  0  0  0  0  0
    2.0085    2.5197    0.9829 H   0  0  0  0  0  0  0  0  0  0  0  0
    0.9369    2.3582   -1.2151 H   0  0  0  0  0  0  0  0  0  0  0  0
    1.8913    0.9340   -1.6452 H   0  0  0  0  0  0  0  0  0  0  0  0
  1  2  1  0
  2  3  1  0
  2  4  1  0
  4  5  1  0
  5  6  1  0
  6  7  1  0
  7  8  2  0
  7  9  1  0
  9 10  2  0
 10 11  1  0
 11 12  2  0
 12 13  1  0
 13 14  2  0
 14 15  1  0
 15 16  2  0
 16 17  1  0
  5 18  1  0
 18 19  2  0
 18 20  1  0
 20 21  1  0
 21 22  1  0
 22 23  1  0
 23 24  1  0
 24 25  2  0
 24 26  1  0
 26 27  1  0
 27 28  1  0
 26 29  1  0
 29 30  1  0
 30 31  2  0
 30 32  2  0
 30 33  1  0
 33 34  2  0
 34 35  1  0
 35 36  2  0
 36 37  1  0
 36 38  1  0
 38 39  2  0
 39 40  1  0
 23 41  1  0
 41 42  1  0
 17  9  1  0
 42 20  1  0
 16 11  1  0
 39 33  1  0
  1 43  1  0
  1 44  1  0
  1 45  1  0
  2 46  1  0
  3 47  1  0
  3 48  1  0
  3 49  1  0
  4 50  1  0
  4 51  1  0
  5 52  1  1
  6 53  1  0
 10 54  1  0
 12 55  1  0
 13 56  1  0
 14 57  1  0
 15 58  1  0
 21 59  1  0
 21 60  1  0
 22 61  1  0
 22 62  1  0
 26 63  1  6
 27 64  1  0
 27 65  1  0
 28 66  1  0
 29 67  1  0
 34 68  1  0
 35 69  1  0
 38 70  1  0
 41 71  1  0
 41 72  1  0
 42 73  1  0
 42 74  1  0
M  END
$$$$
