
     RDKit          3D

 55 58  0  0  0  0  0  0  0  0999 V2000
    1.9166   -1.9656   -1.2333 O   0  0  0  0  0  0  0  0  0  0  0  0
    2.1484   -0.9702   -0.5469 C   0  0  0  0  0  0  0  0  0  0  0  0
    3.5508   -0.6194   -0.0324 C   0  0  0  0  0  0  0  0  0  0  0  0
    4.5260   -1.5234   -0.5329 O   0  0  0  0  0  0  0  0  0  0  0  0
    5.8202   -1.3282   -0.1385 C   0  0  0  0  0  0  0  0  0  0  0  0
    6.2819   -0.3136    0.7016 C   0  0  0  0  0  0  0  0  0  0  0  0
    7.6408   -0.2333    1.0233 C   0  0  0  0  0  0  0  0  0  0  0  0
    8.5415   -1.1642    0.5081 C   0  0  0  0  0  0  0  0  0  0  0  0
    8.0857   -2.1778   -0.3309 C   0  0  0  0  0  0  0  0  0  0  0  0
    6.7298   -2.2568   -0.6516 C   0  0  0  0  0  0  0  0  0  0  0  0
    1.1373   -0.0966   -0.1918 N   0  0  0  0  0  0  0  0  0  0  0  0
    1.2562    1.1143    0.6041 C   0  0  0  0  0  0  0  0  0  0  0  0
   -0.1802    1.5262    0.8970 C   0  0  0  0  0  0  0  0  0  0  0  0
   -0.9357    1.0285   -0.3448 C   0  0  0  0  0  0  0  0  0  0  0  0
   -2.4029    1.1084   -0.2156 N   0  0  0  0  0  0  0  0  0  0  0  0
   -2.9407    2.3907   -0.4359 C   0  0  0  0  0  0  0  0  0  0  0  0
   -2.2498    3.3794   -0.6620 O   0  0  0  0  0  0  0  0  0  0  0  0
   -4.4201    2.5613   -0.3851 C   0  0  0  0  0  0  0  0  0  0  0  0
   -5.0966    3.5159   -1.3467 C   0  0  0  0  0  0  0  0  0  0  0  0
   -5.2953    2.0404   -1.5036 C   0  0  0  0  0  0  0  0  0  0  0  0
   -3.2364   -0.0284    0.2485 C   0  0  0  0  0  0  0  0  0  0  0  0
   -2.8345   -0.6007    1.6125 C   0  0  0  0  0  0  0  0  0  0  0  0
   -3.7678   -1.7429    1.9926 C   0  0  0  0  0  0  0  0  0  0  0  0
   -3.7955   -2.7310    0.9651 O   0  0  0  0  0  0  0  0  0  0  0  0
   -4.3143   -2.2288   -0.2650 C   0  0  0  0  0  0  0  0  0  0  0  0
   -3.4237   -1.1206   -0.8109 C   0  0  0  0  0  0  0  0  0  0  0  0
   -0.2316   -0.3006   -0.6484 C   0  0  0  0  0  0  0  0  0  0  0  0
    3.5205   -0.6769    1.0620 H   0  0  0  0  0  0  0  0  0  0  0  0
    3.7842    0.3977   -0.3683 H   0  0  0  0  0  0  0  0  0  0  0  0
    5.6161    0.4310    1.1232 H   0  0  0  0  0  0  0  0  0  0  0  0
    7.9972    0.5583    1.6777 H   0  0  0  0  0  0  0  0  0  0  0  0
    9.5968   -1.0995    0.7598 H   0  0  0  0  0  0  0  0  0  0  0  0
    8.7816   -2.9070   -0.7365 H   0  0  0  0  0  0  0  0  0  0  0  0
    6.3757   -3.0495   -1.3069 H   0  0  0  0  0  0  0  0  0  0  0  0
    1.8344    0.9325    1.5139 H   0  0  0  0  0  0  0  0  0  0  0  0
    1.7708    1.8665   -0.0034 H   0  0  0  0  0  0  0  0  0  0  0  0
   -0.2727    2.6042    1.0583 H   0  0  0  0  0  0  0  0  0  0  0  0
   -0.5377    1.0234    1.8018 H   0  0  0  0  0  0  0  0  0  0  0  0
   -0.6595    1.7027   -1.1700 H   0  0  0  0  0  0  0  0  0  0  0  0
   -4.8231    2.5719    0.6228 H   0  0  0  0  0  0  0  0  0  0  0  0
   -4.4800    4.0302   -2.0767 H   0  0  0  0  0  0  0  0  0  0  0  0
   -5.9221    4.1095   -0.9719 H   0  0  0  0  0  0  0  0  0  0  0  0
   -4.8222    1.5636   -2.3550 H   0  0  0  0  0  0  0  0  0  0  0  0
   -6.2624    1.6278   -1.2418 H   0  0  0  0  0  0  0  0  0  0  0  0
   -4.2434    0.3641    0.4199 H   0  0  0  0  0  0  0  0  0  0  0  0
   -1.8133   -0.9874    1.5916 H   0  0  0  0  0  0  0  0  0  0  0  0
   -2.8660    0.1808    2.3803 H   0  0  0  0  0  0  0  0  0  0  0  0
   -4.7858   -1.3823    2.1817 H   0  0  0  0  0  0  0  0  0  0  0  0
   -3.4134   -2.2230    2.9104 H   0  0  0  0  0  0  0  0  0  0  0  0
   -4.3530   -3.0598   -0.9766 H   0  0  0  0  0  0  0  0  0  0  0  0
   -5.3417   -1.8776   -0.1127 H   0  0  0  0  0  0  0  0  0  0  0  0
   -2.4653   -1.5605   -1.0942 H   0  0  0  0  0  0  0  0  0  0  0  0
   -3.8604   -0.7032   -1.7247 H   0  0  0  0  0  0  0  0  0  0  0  0
   -0.6146   -1.1556   -0.0910 H   0  0  0  0  0  0  0  0  0  0  0  0
   -0.2506   -0.5451   -1.7155 H   0  0  0  0  0  0  0  0  0  0  0  0
  1  2  2  0
  2  3  1  0
  3  4  1  0
  4  5  1  0
  5  6  2  0
  6  7  1  0
  7  8  2  0
  8  9  1  0
  9 10  2  0
  2 11  1  0
 11 12  1  0
 12 13  1  0
 13 14  1  0
 14 15  1  0
 15 16  1  0
 16 17  2  0
 16 18  1  0
 18 19  1  0
 19 20  1  0
 15 21  1  0
 21 22  1  0
 22 23  1  0
 23 24  1  0
 24 25  1  0
 25 26  1  0
 14 27  1  0
 10  5  1  0
 27 11  1  0
 20 18  1  0
 26 21  1  0
  3 28  1  0
  3 29  1  0
  6 30  1  0
  7 31  1  0
  8 32  1  0
  9 33  1  0
 10 34  1  0
 12 35  1  0
 12 36  1  0
 13 37  1  0
 13 38  1  0
 14 39  1  0
 18 40  1  0
 19 41  1  0
 19 42  1  0
 20 43  1  0
 20 44  1  0
 21 45  1  0
 22 46  1  0
 22 47  1  0
 23 48  1  0
 23 49  1  0
 25 50  1  0
 25 51  1  0
 26 52  1  0
 26 53  1  0
 27 54  1  0
 27 55  1  0
M  END
$$$$
