
     RDKit          3D

 55 58  0  0  0  0  0  0  0  0999 V2000
    8.3270    0.7459    1.5155 C   0  0  0  0  0  0  0  0  0  0  0  0
    7.2473    0.4608    0.5139 C   0  0  0  0  0  0  0  0  0  0  0  0
    6.6062    1.5159   -0.1458 C   0  0  0  0  0  0  0  0  0  0  0  0
    5.5838    1.2616   -1.0616 C   0  0  0  0  0  0  0  0  0  0  0  0
    5.1840   -0.0532   -1.3344 C   0  0  0  0  0  0  0  0  0  0  0  0
    4.0580   -0.3212   -2.2984 C   0  0  0  0  0  0  0  0  0  0  0  0
    2.7844   -0.2641   -1.6168 N   0  0  0  0  0  0  0  0  0  0  0  0
    2.0023    0.8640   -1.6540 C   0  0  0  0  0  0  0  0  0  0  0  0
    2.2499    1.8510   -2.3379 O   0  0  0  0  0  0  0  0  0  0  0  0
    0.8246    0.8480   -0.7318 C   0  0  0  0  0  0  0  0  0  0  0  0
    0.3962    2.0843   -0.0800 C   0  0  0  0  0  0  0  0  0  0  0  0
   -0.6585    2.1187    0.7528 C   0  0  0  0  0  0  0  0  0  0  0  0
   -1.3943    0.8592    0.9824 C   0  0  0  0  0  0  0  0  0  0  0  0
   -2.4111    0.6635    1.7624 N   0  0  0  0  0  0  0  0  0  0  0  0
   -2.7252   -0.6713    1.5576 N   0  0  0  0  0  0  0  0  0  0  0  0
   -3.6712   -1.3866    2.3777 C   0  0  0  0  0  0  0  0  0  0  0  0
   -4.7192   -2.2116    1.6119 C   0  0  0  0  0  0  0  0  0  0  0  0
   -5.2040   -3.2057    2.1703 O   0  0  0  0  0  0  0  0  0  0  0  0
   -5.1178   -1.8306    0.3299 N   0  0  0  0  0  0  0  0  0  0  0  0
   -5.7178   -2.8584   -0.5177 C   0  0  0  0  0  0  0  0  0  0  0  0
   -5.2095   -0.4813   -0.1342 C   0  0  0  0  0  0  0  0  0  0  0  0
   -5.5299    0.5680    0.7373 C   0  0  0  0  0  0  0  0  0  0  0  0
   -5.6363    1.8825    0.2708 C   0  0  0  0  0  0  0  0  0  0  0  0
   -5.4363    2.1651   -1.0776 C   0  0  0  0  0  0  0  0  0  0  0  0
   -5.1403    1.1320   -1.9618 C   0  0  0  0  0  0  0  0  0  0  0  0
   -5.0376   -0.1826   -1.4949 C   0  0  0  0  0  0  0  0  0  0  0  0
   -1.7815   -1.2716    0.7108 C   0  0  0  0  0  0  0  0  0  0  0  0
   -1.6936   -2.4536    0.4156 O   0  0  0  0  0  0  0  0  0  0  0  0
   -0.9627   -0.2422    0.3145 N   0  0  0  0  0  0  0  0  0  0  0  0
    0.1159   -0.2780   -0.5273 C   0  0  0  0  0  0  0  0  0  0  0  0
    5.8133   -1.1070   -0.6587 C   0  0  0  0  0  0  0  0  0  0  0  0
    6.8347   -0.8513    0.2587 C   0  0  0  0  0  0  0  0  0  0  0  0
    8.9189   -0.1505    1.7270 H   0  0  0  0  0  0  0  0  0  0  0  0
    9.0128    1.5095    1.1321 H   0  0  0  0  0  0  0  0  0  0  0  0
    7.8850    1.0986    2.4534 H   0  0  0  0  0  0  0  0  0  0  0  0
    6.8978    2.5441    0.0517 H   0  0  0  0  0  0  0  0  0  0  0  0
    5.0944    2.0964   -1.5609 H   0  0  0  0  0  0  0  0  0  0  0  0
    4.1553   -1.3259   -2.7243 H   0  0  0  0  0  0  0  0  0  0  0  0
    4.0875    0.3878   -3.1329 H   0  0  0  0  0  0  0  0  0  0  0  0
    2.6415   -0.9379   -0.8776 H   0  0  0  0  0  0  0  0  0  0  0  0
    0.9627    2.9878   -0.2932 H   0  0  0  0  0  0  0  0  0  0  0  0
   -1.0009    3.0143    1.2523 H   0  0  0  0  0  0  0  0  0  0  0  0
   -3.0900   -2.0899    2.9860 H   0  0  0  0  0  0  0  0  0  0  0  0
   -4.1819   -0.6904    3.0494 H   0  0  0  0  0  0  0  0  0  0  0  0
   -6.7376   -2.5613   -0.7874 H   0  0  0  0  0  0  0  0  0  0  0  0
   -5.7658   -3.8270   -0.0111 H   0  0  0  0  0  0  0  0  0  0  0  0
   -5.1101   -2.9941   -1.4175 H   0  0  0  0  0  0  0  0  0  0  0  0
   -5.7364    0.3848    1.7873 H   0  0  0  0  0  0  0  0  0  0  0  0
   -5.8822    2.6832    0.9640 H   0  0  0  0  0  0  0  0  0  0  0  0
   -5.5178    3.1870   -1.4395 H   0  0  0  0  0  0  0  0  0  0  0  0
   -4.9856    1.3477   -3.0167 H   0  0  0  0  0  0  0  0  0  0  0  0
   -4.7839   -0.9578   -2.2120 H   0  0  0  0  0  0  0  0  0  0  0  0
    0.3326   -1.2345   -0.9914 H   0  0  0  0  0  0  0  0  0  0  0  0
    5.5118   -2.1364   -0.8402 H   0  0  0  0  0  0  0  0  0  0  0  0
    7.3111   -1.6860    0.7696 H   0  0  0  0  0  0  0  0  0  0  0  0
  1  2  1  0
  2  3  2  0
  3  4  1  0
  4  5  2  0
  5  6  1  0
  6  7  1  0
  7  8  1  0
  8  9  2  0
  8 10  1  0
 10 11  1  0
 11 12  2  0
 12 13  1  0
 13 14  2  0
 14 15  1  0
 15 16  1  0
 16 17  1  0
 17 18  2  0
 17 19  1  0
 19 20  1  0
 19 21  1  0
 21 22  2  0
 22 23  1  0
 23 24  2  0
 24 25  1  0
 25 26  2  0
 15 27  1  0
 27 28  2  0
 27 29  1  0
 29 30  1  0
  5 31  1  0
 31 32  2  0
 32  2  1  0
 30 10  2  0
 29 13  1  0
 26 21  1  0
  1 33  1  0
  1 34  1  0
  1 35  1  0
  3 36  1  0
  4 37  1  0
  6 38  1  0
  6 39  1  0
  7 40  1  0
 11 41  1  0
 12 42  1  0
 16 43  1  0
 16 44  1  0
 20 45  1  0
 20 46  1  0
 20 47  1  0
 22 48  1  0
 23 49  1  0
 24 50  1  0
 25 51  1  0
 26 52  1  0
 30 53  1  0
 31 54  1  0
 32 55  1  0
M  END
$$$$
