
     RDKit          3D

 26 27  0  0  0  0  0  0  0  0999 V2000
    4.5028    0.6845   -0.2823 C   0  0  0  0  0  0  0  0  0  0  0  0
    3.3826    0.3259    0.5433 N   0  0  0  0  0  0  0  0  0  0  0  0
    2.2251   -0.1773    0.0147 C   0  0  0  0  0  0  0  0  0  0  0  0
    2.0686   -0.4623   -1.1643 O   0  0  0  0  0  0  0  0  0  0  0  0
    1.2828   -0.2934    1.0229 O   0  0  0  0  0  0  0  0  0  0  0  0
    0.0456   -0.7924    0.5864 C   0  0  0  0  0  0  0  0  0  0  0  0
   -0.0872   -2.1740    0.4285 C   0  0  0  0  0  0  0  0  0  0  0  0
   -1.3145   -2.6994    0.0417 C   0  0  0  0  0  0  0  0  0  0  0  0
   -2.4017   -1.8478   -0.1686 C   0  0  0  0  0  0  0  0  0  0  0  0
   -2.2817   -0.4575    0.0089 C   0  0  0  0  0  0  0  0  0  0  0  0
   -3.3810    0.3935   -0.1927 C   0  0  0  0  0  0  0  0  0  0  0  0
   -3.2638    1.7719   -0.0094 C   0  0  0  0  0  0  0  0  0  0  0  0
   -2.0460    2.3193    0.3783 C   0  0  0  0  0  0  0  0  0  0  0  0
   -0.9430    1.4885    0.5815 C   0  0  0  0  0  0  0  0  0  0  0  0
   -1.0383    0.0923    0.3995 C   0  0  0  0  0  0  0  0  0  0  0  0
    4.3224    1.6774   -0.7024 H   0  0  0  0  0  0  0  0  0  0  0  0
    4.6267   -0.0366   -1.0947 H   0  0  0  0  0  0  0  0  0  0  0  0
    5.4009    0.7046    0.3392 H   0  0  0  0  0  0  0  0  0  0  0  0
    3.3383    0.6325    1.5048 H   0  0  0  0  0  0  0  0  0  0  0  0
    0.7605   -2.8314    0.5951 H   0  0  0  0  0  0  0  0  0  0  0  0
   -1.4284   -3.7710   -0.0985 H   0  0  0  0  0  0  0  0  0  0  0  0
   -3.3528   -2.2806   -0.4725 H   0  0  0  0  0  0  0  0  0  0  0  0
   -4.3428   -0.0146   -0.4959 H   0  0  0  0  0  0  0  0  0  0  0  0
   -4.1241    2.4161   -0.1708 H   0  0  0  0  0  0  0  0  0  0  0  0
   -1.9512    3.3925    0.5203 H   0  0  0  0  0  0  0  0  0  0  0  0
    0.0000    1.9390    0.8813 H   0  0  0  0  0  0  0  0  0  0  0  0
  1  2  1  0
  2  3  1  0
  3  4  2  0
  3  5  1  0
  5  6  1  0
  6  7  2  0
  7  8  1  0
  8  9  2  0
  9 10  1  0
 10 11  2  0
 11 12  1  0
 12 13  2  0
 13 14  1  0
 14 15  2  0
 15  6  1  0
 15 10  1  0
  1 16  1  0
  1 17  1  0
  1 18  1  0
  2 19  1  0
  7 20  1  0
  8 21  1  0
  9 22  1  0
 11 23  1  0
 12 24  1  0
 13 25  1  0
 14 26  1  0
M  END
$$$$
