
     RDKit          3D

 46 48  0  0  0  0  0  0  0  0999 V2000
    6.1310   -1.8299    0.0825 C   0  0  0  0  0  0  0  0  0  0  0  0
    5.4982   -0.9446    0.9970 O   0  0  0  0  0  0  0  0  0  0  0  0
    4.2383   -0.5141    0.6820 C   0  0  0  0  0  0  0  0  0  0  0  0
    3.6721    0.3507    1.6199 C   0  0  0  0  0  0  0  0  0  0  0  0
    2.3911    0.8744    1.4313 C   0  0  0  0  0  0  0  0  0  0  0  0
    1.6613    0.5337    0.2948 C   0  0  0  0  0  0  0  0  0  0  0  0
    0.3609    1.0117    0.0267 N   0  0  0  0  0  0  0  0  0  0  0  0
   -0.4262    1.8231    0.8093 C   0  0  0  0  0  0  0  0  0  0  0  0
   -0.1305    2.3539    1.8734 O   0  0  0  0  0  0  0  0  0  0  0  0
   -1.7809    2.0831    0.2148 C   0  0  0  0  0  0  0  0  0  0  0  0
   -2.6288    1.0516    0.0529 C   0  0  0  0  0  0  0  0  0  0  0  0
   -2.4261   -0.3493    0.4367 C   0  0  0  0  0  0  0  0  0  0  0  0
   -2.4062   -0.7029    1.7936 C   0  0  0  0  0  0  0  0  0  0  0  0
   -2.1635   -2.0230    2.1774 C   0  0  0  0  0  0  0  0  0  0  0  0
   -1.9345   -3.0003    1.2114 C   0  0  0  0  0  0  0  0  0  0  0  0
   -1.9466   -2.6600   -0.1395 C   0  0  0  0  0  0  0  0  0  0  0  0
   -2.1872   -1.3403   -0.5265 C   0  0  0  0  0  0  0  0  0  0  0  0
   -4.2002    1.2994   -0.6102 S   0  0  0  0  0  6  0  0  0  0  0  0
   -5.1903    1.2075    0.4481 O   0  0  0  0  0  0  0  0  0  0  0  0
   -4.3553    0.5229   -1.8285 O   0  0  0  0  0  0  0  0  0  0  0  0
   -4.1619    2.9919   -1.1166 C   0  0  0  0  0  0  0  0  0  0  0  0
   -3.4302    3.7719   -0.0620 C   0  0  0  0  0  0  0  0  0  0  0  0
   -2.0505    3.4107   -0.0579 O   0  0  0  0  0  0  0  0  0  0  0  0
    2.2242   -0.3449   -0.6560 C   0  0  0  0  0  0  0  0  0  0  0  0
    1.4216   -0.6215   -1.7421 O   0  0  0  0  0  0  0  0  0  0  0  0
    1.8770   -1.6205   -2.6463 C   0  0  0  0  0  0  0  0  0  0  0  0
    3.5117   -0.8612   -0.4592 C   0  0  0  0  0  0  0  0  0  0  0  0
    6.2759   -1.3527   -0.8923 H   0  0  0  0  0  0  0  0  0  0  0  0
    7.1194   -2.0747    0.4833 H   0  0  0  0  0  0  0  0  0  0  0  0
    5.5698   -2.7652   -0.0139 H   0  0  0  0  0  0  0  0  0  0  0  0
    4.2339    0.6239    2.5105 H   0  0  0  0  0  0  0  0  0  0  0  0
    1.9953    1.5442    2.1877 H   0  0  0  0  0  0  0  0  0  0  0  0
   -0.0192    0.6604   -0.8460 H   0  0  0  0  0  0  0  0  0  0  0  0
   -2.5759    0.0451    2.5667 H   0  0  0  0  0  0  0  0  0  0  0  0
   -2.1508   -2.2869    3.2321 H   0  0  0  0  0  0  0  0  0  0  0  0
   -1.7469   -4.0278    1.5125 H   0  0  0  0  0  0  0  0  0  0  0  0
   -1.7704   -3.4232   -0.8931 H   0  0  0  0  0  0  0  0  0  0  0  0
   -2.1906   -1.1004   -1.5882 H   0  0  0  0  0  0  0  0  0  0  0  0
   -5.1938    3.3315   -1.2383 H   0  0  0  0  0  0  0  0  0  0  0  0
   -3.6446    3.0380   -2.0804 H   0  0  0  0  0  0  0  0  0  0  0  0
   -3.8515    3.6397    0.9423 H   0  0  0  0  0  0  0  0  0  0  0  0
   -3.4791    4.8405   -0.2958 H   0  0  0  0  0  0  0  0  0  0  0  0
    1.0957   -1.7704   -3.3977 H   0  0  0  0  0  0  0  0  0  0  0  0
    2.0347   -2.5764   -2.1359 H   0  0  0  0  0  0  0  0  0  0  0  0
    2.7819   -1.2936   -3.1685 H   0  0  0  0  0  0  0  0  0  0  0  0
    3.9477   -1.5262   -1.1920 H   0  0  0  0  0  0  0  0  0  0  0  0
  1  2  1  0
  2  3  1  0
  3  4  2  0
  4  5  1  0
  5  6  2  0
  6  7  1  0
  7  8  1  0
  8  9  2  0
  8 10  1  0
 10 11  2  0
 11 12  1  0
 12 13  2  0
 13 14  1  0
 14 15  2  0
 15 16  1  0
 16 17  2  0
 11 18  1  0
 18 19  2  0
 18 20  2  0
 18 21  1  0
 21 22  1  0
 22 23  1  0
  6 24  1  0
 24 25  1  0
 25 26  1  0
 24 27  2  0
 27  3  1  0
 23 10  1  0
 17 12  1  0
  1 28  1  0
  1 29  1  0
  1 30  1  0
  4 31  1  0
  5 32  1  0
  7 33  1  0
 13 34  1  0
 14 35  1  0
 15 36  1  0
 16 37  1  0
 17 38  1  0
 21 39  1  0
 21 40  1  0
 22 41  1  0
 22 42  1  0
 26 43  1  0
 26 44  1  0
 26 45  1  0
 27 46  1  0
M  END
$$$$
