
     RDKit          3D

 69 72  0  0  0  0  0  0  0  0999 V2000
   -4.0149   -0.0582   -2.6767 C   0  0  0  0  0  0  0  0  0  0  0  0
   -3.0914   -0.3969   -1.6475 O   0  0  0  0  0  0  0  0  0  0  0  0
   -3.1576    0.3620   -0.5051 C   0  0  0  0  0  0  0  0  0  0  0  0
   -3.6127    1.6830   -0.4863 C   0  0  0  0  0  0  0  0  0  0  0  0
   -3.6438    2.3981    0.7108 C   0  0  0  0  0  0  0  0  0  0  0  0
   -4.1204    3.6502    0.6750 F   0  0  0  0  0  0  0  0  0  0  0  0
   -3.2070    1.8396    1.9127 C   0  0  0  0  0  0  0  0  0  0  0  0
   -3.2154    2.5854    3.2298 C   0  0  0  0  0  0  0  0  0  0  0  0
   -4.5969    2.5366    3.8840 C   0  0  0  0  0  0  0  0  0  0  0  0
   -2.7045    4.0240    3.1347 C   0  0  0  0  0  0  0  0  0  0  0  0
   -2.7494    0.5121    1.8827 C   0  0  0  0  0  0  0  0  0  0  0  0
   -2.6949   -0.2357    0.6872 C   0  0  0  0  0  0  0  0  0  0  0  0
   -2.1986   -1.6291    0.7423 C   0  0  0  0  0  0  0  0  0  0  0  0
   -3.1041   -2.6760    0.4795 C   0  0  0  0  0  0  0  0  0  0  0  0
   -2.7295   -4.0159    0.5951 C   0  0  0  0  0  0  0  0  0  0  0  0
   -1.4432   -4.3553    1.0113 C   0  0  0  0  0  0  0  0  0  0  0  0
   -1.0221   -5.7968    1.1702 C   0  0  0  0  0  0  0  0  0  0  0  0
   -2.0642   -6.6717    1.1232 F   0  0  0  0  0  0  0  0  0  0  0  0
   -0.3883   -6.0364    2.3484 F   0  0  0  0  0  0  0  0  0  0  0  0
   -0.1550   -6.1902    0.1956 F   0  0  0  0  0  0  0  0  0  0  0  0
   -0.5263   -3.3229    1.2639 C   0  0  0  0  0  0  0  0  0  0  0  0
   -0.8718   -1.9625    1.1021 C   0  0  0  0  0  0  0  0  0  0  0  0
    0.1959   -0.9056    1.3392 C   0  0  0  0  0  0  0  0  0  0  0  0
    1.4178   -1.1257    0.5742 N   0  0  0  0  0  0  0  0  0  0  0  0
    2.5293   -1.7322    1.1086 C   0  0  0  0  0  0  0  0  0  0  0  0
    2.7160   -2.0015    2.2863 O   0  0  0  0  0  0  0  0  0  0  0  0
    3.4317   -2.0230    0.1200 O   0  0  0  0  0  0  0  0  0  0  0  0
    2.9571   -1.4693   -1.1248 C   0  0  2  0  0  0  0  0  0  0  0  0
    3.8109   -0.2854   -1.5505 C   0  0  0  0  0  0  0  0  0  0  0  0
    3.8952    0.0355   -2.9182 C   0  0  0  0  0  0  0  0  0  0  0  0
    4.6286    1.1458   -3.3681 C   0  0  0  0  0  0  0  0  0  0  0  0
    4.6575    1.4711   -4.8416 C   0  0  0  0  0  0  0  0  0  0  0  0
    5.1648    0.4503   -5.5870 F   0  0  0  0  0  0  0  0  0  0  0  0
    5.3979    2.5675   -5.1549 F   0  0  0  0  0  0  0  0  0  0  0  0
    3.4090    1.7106   -5.3314 F   0  0  0  0  0  0  0  0  0  0  0  0
    5.3083    1.9335   -2.4287 C   0  0  0  0  0  0  0  0  0  0  0  0
    5.2724    1.6138   -1.0598 C   0  0  0  0  0  0  0  0  0  0  0  0
    6.0415    2.4396   -0.0497 C   0  0  0  0  0  0  0  0  0  0  0  0
    7.1244    3.0675   -0.5885 F   0  0  0  0  0  0  0  0  0  0  0  0
    6.5210    1.6936    0.9827 F   0  0  0  0  0  0  0  0  0  0  0  0
    5.2805    3.4214    0.5102 F   0  0  0  0  0  0  0  0  0  0  0  0
    4.5057    0.5166   -0.6314 C   0  0  0  0  0  0  0  0  0  0  0  0
    1.4645   -1.2017   -0.8645 C   0  0  2  0  0  0  0  0  0  0  0  0
    0.8448   -0.0118   -1.5823 C   0  0  0  0  0  0  0  0  0  0  0  0
   -5.0199    0.1254   -2.2736 H   0  0  0  0  0  0  0  0  0  0  0  0
   -4.0768   -0.9073   -3.3659 H   0  0  0  0  0  0  0  0  0  0  0  0
   -3.6516    0.8045   -3.2438 H   0  0  0  0  0  0  0  0  0  0  0  0
   -3.9477    2.1928   -1.3875 H   0  0  0  0  0  0  0  0  0  0  0  0
   -2.5161    2.0696    3.9072 H   0  0  0  0  0  0  0  0  0  0  0  0
   -4.5739    3.0426    4.8557 H   0  0  0  0  0  0  0  0  0  0  0  0
   -4.9055    1.4973    4.0513 H   0  0  0  0  0  0  0  0  0  0  0  0
   -5.3678    3.0139    3.2638 H   0  0  0  0  0  0  0  0  0  0  0  0
   -1.7391    4.0629    2.6170 H   0  0  0  0  0  0  0  0  0  0  0  0
   -2.5604    4.4395    4.1382 H   0  0  0  0  0  0  0  0  0  0  0  0
   -3.4055    4.6839    2.6083 H   0  0  0  0  0  0  0  0  0  0  0  0
   -2.4266    0.0392    2.8097 H   0  0  0  0  0  0  0  0  0  0  0  0
   -4.1244   -2.4438    0.1839 H   0  0  0  0  0  0  0  0  0  0  0  0
   -3.4602   -4.7945    0.3882 H   0  0  0  0  0  0  0  0  0  0  0  0
    0.4742   -3.5871    1.6031 H   0  0  0  0  0  0  0  0  0  0  0  0
    0.4333   -0.8938    2.4098 H   0  0  0  0  0  0  0  0  0  0  0  0
   -0.1401    0.0973    1.0737 H   0  0  0  0  0  0  0  0  0  0  0  0
    3.0687   -2.2589   -1.8799 H   0  0  0  0  0  0  0  0  0  0  0  0
    3.3792   -0.5860   -3.6500 H   0  0  0  0  0  0  0  0  0  0  0  0
    5.8887    2.7931   -2.7643 H   0  0  0  0  0  0  0  0  0  0  0  0
    4.4757    0.2810    0.4353 H   0  0  0  0  0  0  0  0  0  0  0  0
    0.9093   -2.1068   -1.1457 H   0  0  0  0  0  0  0  0  0  0  0  0
   -0.2378    0.0267   -1.4155 H   0  0  0  0  0  0  0  0  0  0  0  0
    1.2616    0.9353   -1.2274 H   0  0  0  0  0  0  0  0  0  0  0  0
    1.0003   -0.0806   -2.6646 H   0  0  0  0  0  0  0  0  0  0  0  0
  1  2  1  0
  2  3  1  0
  3  4  2  0
  4  5  1  0
  5  6  1  0
  5  7  2  0
  7  8  1  0
  8  9  1  0
  8 10  1  0
  7 11  1  0
 11 12  2  0
 12 13  1  0
 13 14  2  0
 14 15  1  0
 15 16  2  0
 16 17  1  0
 17 18  1  0
 17 19  1  0
 17 20  1  0
 16 21  1  0
 21 22  2  0
 22 23  1  0
 23 24  1  0
 24 25  1  0
 25 26  2  0
 25 27  1  0
 27 28  1  0
 28 29  1  0
 29 30  2  0
 30 31  1  0
 31 32  1  0
 32 33  1  0
 32 34  1  0
 32 35  1  0
 31 36  2  0
 36 37  1  0
 37 38  1  0
 38 39  1  0
 38 40  1  0
 38 41  1  0
 37 42  2  0
 28 43  1  0
 43 44  1  0
 12  3  1  0
 22 13  1  0
 43 24  1  0
 42 29  1  0
  1 45  1  0
  1 46  1  0
  1 47  1  0
  4 48  1  0
  8 49  1  0
  9 50  1  0
  9 51  1  0
  9 52  1  0
 10 53  1  0
 10 54  1  0
 10 55  1  0
 11 56  1  0
 14 57  1  0
 15 58  1  0
 21 59  1  0
 23 60  1  0
 23 61  1  0
 28 62  1  6
 30 63  1  0
 36 64  1  0
 42 65  1  0
 43 66  1  6
 44 67  1  0
 44 68  1  0
 44 69  1  0
M  END
$$$$
