
     RDKit          3D

 27 29  0  0  0  0  0  0  0  0999 V2000
    5.3399    2.2958   -1.4451 N   0  0  0  0  0  0  0  0  0  0  0  0
    4.3660    1.7399   -1.1473 C   0  0  0  0  0  0  0  0  0  0  0  0
    3.1673    1.0475   -0.7764 C   0  0  0  0  0  0  0  0  0  0  0  0
    2.9541   -0.2674   -1.1999 C   0  0  0  0  0  0  0  0  0  0  0  0
    1.7844   -0.9438   -0.8363 C   0  0  0  0  0  0  0  0  0  0  0  0
    0.8087   -0.3198   -0.0384 C   0  0  0  0  0  0  0  0  0  0  0  0
   -0.4521   -1.0740    0.3121 C   0  0  1  0  0  0  0  0  0  0  0  0
   -1.0379   -0.8736    1.7394 C   0  0  0  0  0  0  0  0  0  0  0  0
   -2.3051    0.0163    1.5944 C   0  0  0  0  0  0  0  0  0  0  0  0
   -2.5976   -0.0896    0.1585 C   0  0  0  0  0  0  0  0  0  0  0  0
   -3.5494    0.1765   -0.7843 C   0  0  0  0  0  0  0  0  0  0  0  0
   -3.1013   -0.2507   -2.0235 N   0  0  0  0  0  0  0  0  0  0  0  0
   -1.8978   -0.7583   -1.8256 C   0  0  0  0  0  0  0  0  0  0  0  0
   -1.5675   -0.6559   -0.5265 N   0  0  0  0  0  0  0  0  0  0  0  0
    1.0440    0.9988    0.3668 C   0  0  0  0  0  0  0  0  0  0  0  0
    0.1473    1.6459    1.1212 F   0  0  0  0  0  0  0  0  0  0  0  0
    2.2056    1.6811    0.0099 C   0  0  0  0  0  0  0  0  0  0  0  0
    3.6943   -0.7740   -1.8183 H   0  0  0  0  0  0  0  0  0  0  0  0
    1.6418   -1.9654   -1.1871 H   0  0  0  0  0  0  0  0  0  0  0  0
   -0.3107   -2.1485    0.1386 H   0  0  0  0  0  0  0  0  0  0  0  0
   -1.3525   -1.8526    2.1270 H   0  0  0  0  0  0  0  0  0  0  0  0
   -0.3252   -0.4671    2.4642 H   0  0  0  0  0  0  0  0  0  0  0  0
   -2.0915    1.0518    1.8753 H   0  0  0  0  0  0  0  0  0  0  0  0
   -3.1212   -0.3581    2.2188 H   0  0  0  0  0  0  0  0  0  0  0  0
   -4.5224    0.6341   -0.6642 H   0  0  0  0  0  0  0  0  0  0  0  0
   -1.2626   -1.1934   -2.5851 H   0  0  0  0  0  0  0  0  0  0  0  0
    2.3413    2.7046    0.3505 H   0  0  0  0  0  0  0  0  0  0  0  0
  1  2  3  0
  2  3  1  0
  3  4  2  0
  4  5  1  0
  5  6  2  0
  6  7  1  0
  7  8  1  0
  8  9  1  0
  9 10  1  0
 10 11  2  0
 11 12  1  0
 12 13  2  0
 13 14  1  0
  6 15  1  0
 15 16  1  0
 15 17  2  0
 17  3  1  0
 14  7  1  0
 14 10  1  0
  4 18  1  0
  5 19  1  0
  7 20  1  6
  8 21  1  0
  8 22  1  0
  9 23  1  0
  9 24  1  0
 11 25  1  0
 13 26  1  0
 17 27  1  0
M  END
$$$$
