
     RDKit          3D

 34 37  0  0  0  0  0  0  0  0999 V2000
    4.9057    2.0375    1.8802 N   0  0  0  0  0  0  0  0  0  0  0  0
    3.5866    1.8002    1.5158 C   0  0  0  0  0  0  0  0  0  0  0  0
    2.7904    2.8643    1.2672 N   0  0  0  0  0  0  0  0  0  0  0  0
    1.5057    2.6360    0.9223 C   0  0  0  0  0  0  0  0  0  0  0  0
    0.8760    1.4519    0.7726 N   0  0  0  0  0  0  0  0  0  0  0  0
    1.7125    0.4282    1.0080 C   0  0  0  0  0  0  0  0  0  0  0  0
    3.0471    0.5105    1.3747 C   0  0  0  0  0  0  0  0  0  0  0  0
    3.5948   -0.7466    1.5227 N   0  0  0  0  0  0  0  0  0  0  0  0
    2.6080   -1.5744    1.2532 C   0  0  0  0  0  0  0  0  0  0  0  0
    1.4452   -0.9114    0.9482 N   0  0  0  0  0  0  0  0  0  0  0  0
    0.1964   -1.5591    0.6149 C   0  0  2  0  0  0  0  0  0  0  0  0
    0.0833   -1.6035   -0.8408 O   0  0  0  0  0  0  0  0  0  0  0  0
   -1.2888   -1.3357   -1.1175 C   0  0  2  0  0  0  0  0  0  0  0  0
   -1.6062   -0.7993   -2.5048 C   0  0  0  0  0  0  0  0  0  0  0  0
   -3.0105   -0.5581   -2.5907 O   0  0  0  0  0  0  0  0  0  0  0  0
   -3.6389    0.4369   -1.4905 P   0  0  0  0  0  5  0  0  0  0  0  0
   -3.3845    1.8860   -1.7246 O   0  0  0  0  0  0  0  0  0  0  0  0
   -5.1865    0.0444   -1.4854 O   0  0  0  0  0  0  0  0  0  0  0  0
   -3.0986   -0.1413   -0.0816 O   0  0  0  0  0  0  0  0  0  0  0  0
   -1.6948   -0.3047   -0.0812 C   0  0  1  0  0  0  0  0  0  0  0  0
   -1.0984   -0.9125    1.1712 C   0  0  1  0  0  0  0  0  0  0  0  0
   -1.9790   -1.9281    1.6827 O   0  0  0  0  0  0  0  0  0  0  0  0
    5.2259    2.9491    1.5820 H   0  0  0  0  0  0  0  0  0  0  0  0
    5.5167    1.2448    1.7173 H   0  0  0  0  0  0  0  0  0  0  0  0
    0.9024    3.5218    0.7420 H   0  0  0  0  0  0  0  0  0  0  0  0
    2.6784   -2.6555    1.2612 H   0  0  0  0  0  0  0  0  0  0  0  0
    0.2692   -2.5988    0.9584 H   0  0  0  0  0  0  0  0  0  0  0  0
   -1.8627   -2.2633   -0.9784 H   0  0  0  0  0  0  0  0  0  0  0  0
   -1.0573    0.1234   -2.7233 H   0  0  0  0  0  0  0  0  0  0  0  0
   -1.3271   -1.5295   -3.2708 H   0  0  0  0  0  0  0  0  0  0  0  0
   -5.6756    0.5496   -2.1596 H   0  0  0  0  0  0  0  0  0  0  0  0
   -1.2216    0.6608   -0.2880 H   0  0  0  0  0  0  0  0  0  0  0  0
   -0.9421   -0.1946    1.9804 H   0  0  0  0  0  0  0  0  0  0  0  0
   -2.8721   -1.5287    1.7069 H   0  0  0  0  0  0  0  0  0  0  0  0
  1  2  1  0
  2  3  2  0
  3  4  1  0
  4  5  2  0
  5  6  1  0
  6  7  2  0
  7  8  1  0
  8  9  2  0
  9 10  1  0
 10 11  1  0
 11 12  1  0
 12 13  1  0
 13 14  1  0
 14 15  1  0
 15 16  1  0
 16 17  2  0
 16 18  1  0
 16 19  1  0
 19 20  1  0
 20 21  1  0
 21 22  1  0
  7  2  1  0
 21 11  1  0
 10  6  1  0
 20 13  1  0
  1 23  1  0
  1 24  1  0
  4 25  1  0
  9 26  1  0
 11 27  1  1
 13 28  1  1
 14 29  1  0
 14 30  1  0
 18 31  1  0
 20 32  1  6
 21 33  1  1
 22 34  1  0
M  END
$$$$
