
     RDKit          3D

 31 33  0  0  0  0  0  0  0  0999 V2000
   -1.0824    1.7756   -0.5711 C   0  0  0  0  0  0  0  0  0  0  0  0
   -1.7559    0.4455   -0.4301 C   0  0  0  0  0  0  0  0  0  0  0  0
   -1.1778   -0.7938   -0.6915 C   0  0  0  0  0  0  0  0  0  0  0  0
    0.1882   -1.1344   -1.0753 C   0  0  0  0  0  0  0  0  0  0  0  0
    0.4517   -1.9283   -1.9738 O   0  0  0  0  0  0  0  0  0  0  0  0
    1.1429   -0.4908   -0.3045 N   0  0  0  0  0  0  0  0  0  0  0  0
    2.5062   -0.6237   -0.4778 C   0  0  0  0  0  0  0  0  0  0  0  0
    3.2687   -1.3511   -1.4178 C   0  0  0  0  0  0  0  0  0  0  0  0
    4.5846   -1.1973   -1.2327 N   0  0  0  0  0  0  0  0  0  0  0  0
    4.6605   -0.3768   -0.1712 N   0  0  0  0  0  0  0  0  0  0  0  0
    5.9558    0.0137    0.3295 C   0  0  0  0  0  0  0  0  0  0  0  0
    3.4413   -0.0014    0.3164 C   0  0  0  0  0  0  0  0  0  0  0  0
   -2.3022   -2.0789   -0.5320 S   0  0  0  0  0  0  0  0  0  0  0  0
   -3.5444   -1.0320   -0.0339 C   0  0  0  0  0  0  0  0  0  0  0  0
   -4.7797   -1.4993    0.2893 N   0  0  0  0  0  0  0  0  0  0  0  0
   -5.6222   -0.5812    0.6315 C   0  0  0  0  0  0  0  0  0  0  0  0
   -5.3414    0.7612    0.6869 N   0  0  0  0  0  0  0  0  0  0  0  0
   -4.1015    1.2804    0.3920 C   0  0  0  0  0  0  0  0  0  0  0  0
   -3.8635    2.4794    0.4894 O   0  0  0  0  0  0  0  0  0  0  0  0
   -3.1273    0.2828   -0.0164 C   0  0  0  0  0  0  0  0  0  0  0  0
   -0.1972    1.7169   -1.2114 H   0  0  0  0  0  0  0  0  0  0  0  0
   -0.7771    2.1500    0.4109 H   0  0  0  0  0  0  0  0  0  0  0  0
   -1.7542    2.5064   -1.0322 H   0  0  0  0  0  0  0  0  0  0  0  0
    0.8349    0.0816    0.4688 H   0  0  0  0  0  0  0  0  0  0  0  0
    2.9270   -1.9833   -2.2278 H   0  0  0  0  0  0  0  0  0  0  0  0
    6.4952   -0.8878    0.6307 H   0  0  0  0  0  0  0  0  0  0  0  0
    5.8289    0.6770    1.1886 H   0  0  0  0  0  0  0  0  0  0  0  0
    6.4911    0.5347   -0.4682 H   0  0  0  0  0  0  0  0  0  0  0  0
    3.3516    0.6587    1.1667 H   0  0  0  0  0  0  0  0  0  0  0  0
   -6.6580   -0.8294    0.9126 H   0  0  0  0  0  0  0  0  0  0  0  0
   -6.0438    1.4254    0.9756 H   0  0  0  0  0  0  0  0  0  0  0  0
  1  2  1  0
  2  3  2  0
  3  4  1  0
  4  5  2  0
  4  6  1  0
  6  7  1  0
  7  8  1  0
  8  9  2  0
  9 10  1  0
 10 11  1  0
 10 12  1  0
  3 13  1  0
 13 14  1  0
 14 15  1  0
 15 16  2  0
 16 17  1  0
 17 18  1  0
 18 19  2  0
 18 20  1  0
 20  2  1  0
 12  7  2  0
 20 14  2  0
  1 21  1  0
  1 22  1  0
  1 23  1  0
  6 24  1  0
  8 25  1  0
 11 26  1  0
 11 27  1  0
 11 28  1  0
 12 29  1  0
 16 30  1  0
 17 31  1  0
M  END
$$$$
