
     RDKit          3D

 35 37  0  0  0  0  0  0  0  0999 V2000
    6.1556   -0.6360    1.0846 C   0  0  0  0  0  0  0  0  0  0  0  0
    4.7741   -0.4019    0.5519 C   0  0  0  0  0  0  0  0  0  0  0  0
    4.4437   -0.7589   -0.7541 C   0  0  0  0  0  0  0  0  0  0  0  0
    3.1594   -0.5098   -1.2584 C   0  0  0  0  0  0  0  0  0  0  0  0
    2.1646    0.1134   -0.4817 C   0  0  0  0  0  0  0  0  0  0  0  0
    0.8561    0.3622   -1.0046 N   0  0  0  0  0  0  0  0  0  0  0  0
    0.4058   -0.0906   -2.5974 S   0  0  0  0  0  0  0  0  0  0  0  0
   -1.2145    0.5373   -2.4046 C   0  0  0  0  0  0  0  0  0  0  0  0
   -2.0565    0.5058   -3.2877 O   0  0  0  0  0  0  0  0  0  0  0  0
   -1.3377    1.0496   -1.1489 N   0  0  0  0  0  0  0  0  0  0  0  0
   -2.5858    1.6157   -0.6873 C   0  0  0  0  0  0  0  0  0  0  0  0
   -3.4781    0.5652   -0.0631 C   0  0  0  0  0  0  0  0  0  0  0  0
   -3.3764    0.2684    1.3060 C   0  0  0  0  0  0  0  0  0  0  0  0
   -4.1825   -0.7179    1.8762 C   0  0  0  0  0  0  0  0  0  0  0  0
   -5.0849   -1.4116    1.0794 C   0  0  0  0  0  0  0  0  0  0  0  0
   -5.8570   -2.3589    1.6277 F   0  0  0  0  0  0  0  0  0  0  0  0
   -5.1949   -1.1403   -0.2789 C   0  0  0  0  0  0  0  0  0  0  0  0
   -4.3902   -0.1547   -0.8523 C   0  0  0  0  0  0  0  0  0  0  0  0
   -0.2159    0.9830   -0.3323 C   0  0  0  0  0  0  0  0  0  0  0  0
   -0.2181    1.4311    0.8105 O   0  0  0  0  0  0  0  0  0  0  0  0
    2.5235    0.4776    0.8244 C   0  0  0  0  0  0  0  0  0  0  0  0
    3.8073    0.2301    1.3329 C   0  0  0  0  0  0  0  0  0  0  0  0
    6.1342   -0.8008    2.1670 H   0  0  0  0  0  0  0  0  0  0  0  0
    6.7909    0.2290    0.8709 H   0  0  0  0  0  0  0  0  0  0  0  0
    6.6041   -1.5256    0.6299 H   0  0  0  0  0  0  0  0  0  0  0  0
    5.1807   -1.2370   -1.3961 H   0  0  0  0  0  0  0  0  0  0  0  0
    2.9728   -0.8209   -2.2825 H   0  0  0  0  0  0  0  0  0  0  0  0
   -3.1079    2.0857   -1.5299 H   0  0  0  0  0  0  0  0  0  0  0  0
   -2.3871    2.4108    0.0413 H   0  0  0  0  0  0  0  0  0  0  0  0
   -2.6642    0.8012    1.9348 H   0  0  0  0  0  0  0  0  0  0  0  0
   -4.1092   -0.9511    2.9336 H   0  0  0  0  0  0  0  0  0  0  0  0
   -5.9024   -1.6994   -0.8830 H   0  0  0  0  0  0  0  0  0  0  0  0
   -4.4759    0.0449   -1.9197 H   0  0  0  0  0  0  0  0  0  0  0  0
    1.8278    0.9665    1.4984 H   0  0  0  0  0  0  0  0  0  0  0  0
    4.0386    0.5381    2.3508 H   0  0  0  0  0  0  0  0  0  0  0  0
  1  2  1  0
  2  3  2  0
  3  4  1  0
  4  5  2  0
  5  6  1  0
  6  7  1  0
  7  8  1  0
  8  9  2  0
  8 10  1  0
 10 11  1  0
 11 12  1  0
 12 13  2  0
 13 14  1  0
 14 15  2  0
 15 16  1  0
 15 17  1  0
 17 18  2  0
 10 19  1  0
 19 20  2  0
  5 21  1  0
 21 22  2  0
 22  2  1  0
 19  6  1  0
 18 12  1  0
  1 23  1  0
  1 24  1  0
  1 25  1  0
  3 26  1  0
  4 27  1  0
 11 28  1  0
 11 29  1  0
 13 30  1  0
 14 31  1  0
 17 32  1  0
 18 33  1  0
 21 34  1  0
 22 35  1  0
M  END
$$$$
