
     RDKit          3D

 53 55  0  0  0  0  0  0  0  0999 V2000
   -3.5828    1.4747   -1.0918 C   0  0  0  0  0  0  0  0  0  0  0  0
   -4.4321    0.2293   -1.0676 C   0  0  0  0  0  0  0  0  0  0  0  0
   -5.2220   -0.0517   -2.1969 C   0  0  0  0  0  0  0  0  0  0  0  0
   -6.0161   -1.1905   -2.2309 C   0  0  0  0  0  0  0  0  0  0  0  0
   -6.7649   -1.4385   -3.3155 F   0  0  0  0  0  0  0  0  0  0  0  0
   -6.0398   -2.0727   -1.1595 C   0  0  0  0  0  0  0  0  0  0  0  0
   -5.2477   -1.8151   -0.0399 C   0  0  0  0  0  0  0  0  0  0  0  0
   -4.4365   -0.6720    0.0220 C   0  0  0  0  0  0  0  0  0  0  0  0
   -3.6336   -0.3823    1.1460 N   0  0  0  0  0  0  0  0  0  0  0  0
   -3.3701   -1.1893    2.2473 C   0  0  0  0  0  0  0  0  0  0  0  0
   -3.7391   -2.3491    2.4168 O   0  0  0  0  0  0  0  0  0  0  0  0
   -2.4675   -0.5021    3.2773 C   0  0  0  0  0  0  0  0  0  0  0  0
   -1.0717   -0.5578    2.8431 N   0  0  0  0  0  0  0  0  0  0  0  0
   -0.2460   -1.5516    3.3337 C   0  0  0  0  0  0  0  0  0  0  0  0
    1.0286   -1.6419    2.9391 C   0  0  0  0  0  0  0  0  0  0  0  0
    1.5465   -0.7176    1.9599 C   0  0  0  0  0  0  0  0  0  0  0  0
    0.7649    0.2420    1.4376 C   0  0  0  0  0  0  0  0  0  0  0  0
    1.3108    1.3145    0.1995 S   0  0  0  0  0  6  0  0  0  0  0  0
    1.5034    2.6283    0.7821 O   0  0  0  0  0  0  0  0  0  0  0  0
    0.4550    1.1474   -0.9601 O   0  0  0  0  0  0  0  0  0  0  0  0
    2.8556    0.8132   -0.3234 N   0  0  0  0  0  0  0  0  0  0  0  0
    4.0454    1.2001    0.4475 C   0  0  0  0  0  0  0  0  0  0  0  0
    4.9888    2.0406   -0.4108 C   0  0  0  0  0  0  0  0  0  0  0  0
    5.0174    1.7044   -1.9031 C   0  0  0  0  0  0  0  0  0  0  0  0
    5.2718    0.2369   -2.2428 C   0  0  0  0  0  0  0  0  0  0  0  0
    4.3642   -0.7932   -1.5644 C   0  0  0  0  0  0  0  0  0  0  0  0
    2.9376   -0.3264   -1.2676 C   0  0  0  0  0  0  0  0  0  0  0  0
   -0.6363    0.3888    1.9055 C   0  0  0  0  0  0  0  0  0  0  0  0
   -1.3869    1.2649    1.4795 O   0  0  0  0  0  0  0  0  0  0  0  0
   -2.5214    1.2095   -1.1513 H   0  0  0  0  0  0  0  0  0  0  0  0
   -3.7680    2.0851   -0.1995 H   0  0  0  0  0  0  0  0  0  0  0  0
   -3.8187    2.1046   -1.9585 H   0  0  0  0  0  0  0  0  0  0  0  0
   -5.2254    0.6114   -3.0564 H   0  0  0  0  0  0  0  0  0  0  0  0
   -6.6686   -2.9548   -1.1996 H   0  0  0  0  0  0  0  0  0  0  0  0
   -5.2916   -2.5305    0.7761 H   0  0  0  0  0  0  0  0  0  0  0  0
   -3.1007    0.4874    1.1111 H   0  0  0  0  0  0  0  0  0  0  0  0
   -2.7832    0.5360    3.4045 H   0  0  0  0  0  0  0  0  0  0  0  0
   -2.5868   -0.9981    4.2437 H   0  0  0  0  0  0  0  0  0  0  0  0
   -0.6693   -2.2524    4.0494 H   0  0  0  0  0  0  0  0  0  0  0  0
    1.6791   -2.4213    3.3252 H   0  0  0  0  0  0  0  0  0  0  0  0
    2.5736   -0.8699    1.6543 H   0  0  0  0  0  0  0  0  0  0  0  0
    3.7756    1.7762    1.3404 H   0  0  0  0  0  0  0  0  0  0  0  0
    4.5566    0.3146    0.8398 H   0  0  0  0  0  0  0  0  0  0  0  0
    6.0001    1.9699    0.0060 H   0  0  0  0  0  0  0  0  0  0  0  0
    4.6956    3.0962   -0.3195 H   0  0  0  0  0  0  0  0  0  0  0  0
    5.7950    2.3123   -2.3830 H   0  0  0  0  0  0  0  0  0  0  0  0
    4.0740    2.0253   -2.3653 H   0  0  0  0  0  0  0  0  0  0  0  0
    6.3157   -0.0152   -2.0086 H   0  0  0  0  0  0  0  0  0  0  0  0
    5.1737    0.1252   -3.3329 H   0  0  0  0  0  0  0  0  0  0  0  0
    4.8444   -1.1515   -0.6448 H   0  0  0  0  0  0  0  0  0  0  0  0
    4.3152   -1.6777   -2.2136 H   0  0  0  0  0  0  0  0  0  0  0  0
    2.4556   -0.0419   -2.2097 H   0  0  0  0  0  0  0  0  0  0  0  0
    2.3827   -1.1736   -0.8516 H   0  0  0  0  0  0  0  0  0  0  0  0
  1  2  1  0
  2  3  2  0
  3  4  1  0
  4  5  1  0
  4  6  2  0
  6  7  1  0
  7  8  2  0
  8  9  1  0
  9 10  1  0
 10 11  2  0
 10 12  1  0
 12 13  1  0
 13 14  1  0
 14 15  2  0
 15 16  1  0
 16 17  2  0
 17 18  1  0
 18 19  2  0
 18 20  2  0
 18 21  1  0
 21 22  1  0
 22 23  1  0
 23 24  1  0
 24 25  1  0
 25 26  1  0
 26 27  1  0
 17 28  1  0
 28 29  2  0
  8  2  1  0
 28 13  1  0
 27 21  1  0
  1 30  1  0
  1 31  1  0
  1 32  1  0
  3 33  1  0
  6 34  1  0
  7 35  1  0
  9 36  1  0
 12 37  1  0
 12 38  1  0
 14 39  1  0
 15 40  1  0
 16 41  1  0
 22 42  1  0
 22 43  1  0
 23 44  1  0
 23 45  1  0
 24 46  1  0
 24 47  1  0
 25 48  1  0
 25 49  1  0
 26 50  1  0
 26 51  1  0
 27 52  1  0
 27 53  1  0
M  END
$$$$
