
     RDKit          3D

113119  0  0  0  0  0  0  0  0999 V2000
   -3.0894   -6.9468    2.4047 C   0  0  0  0  0  0  0  0  0  0  0  0
   -2.8188   -5.9587    1.3150 C   0  0  0  0  0  0  0  0  0  0  0  0
   -3.0359   -6.1664    0.1319 O   0  0  0  0  0  0  0  0  0  0  0  0
   -2.2997   -4.8168    1.8378 O   0  0  0  0  0  0  0  0  0  0  0  0
   -2.1980   -3.7338    0.9112 C   0  0  1  0  0  0  0  0  0  0  0  0
   -3.5479   -3.0001    0.7208 C   0  0  0  0  0  0  0  0  0  0  0  0
   -4.5294   -3.3927    1.3709 O   0  0  0  0  0  0  0  0  0  0  0  0
   -3.6888   -1.8169   -0.3130 C   0  0  2  0  0  0  0  0  0  0  0  0
   -5.1382   -1.2910   -0.1141 C   0  0  0  0  0  0  0  0  0  0  0  0
   -3.5250   -2.4607   -1.7204 C   0  0  1  0  0  0  0  0  0  0  0  0
   -4.3281   -3.6316   -1.8167 O   0  0  0  0  0  0  0  0  0  0  0  0
   -3.9054   -1.5371   -2.8654 C   0  0  0  0  0  0  0  0  0  0  0  0
   -3.3281   -0.1424   -2.7148 C   0  0  1  0  0  0  0  0  0  0  0  0
   -4.4115    0.8134   -2.5740 O   0  0  0  0  0  0  0  0  0  0  0  0
   -3.8207    1.4074   -1.4024 C   0  0  0  0  0  0  0  0  0  0  0  0
   -2.6637    0.3709   -1.3909 C   0  0  2  0  0  0  0  0  0  0  0  0
   -1.3035    0.8985   -1.5300 O   0  0  0  0  0  0  0  0  0  0  0  0
   -1.0342    1.8568   -2.4588 C   0  0  0  0  0  0  0  0  0  0  0  0
    0.3788    2.3149   -2.3063 C   0  0  0  0  0  0  0  0  0  0  0  0
   -1.7897    2.2724   -3.3199 O   0  0  0  0  0  0  0  0  0  0  0  0
   -2.6001   -0.6635   -0.1976 C   0  0  1  0  0  0  0  0  0  0  0  0
   -2.4575    0.0532    1.2084 C   0  0  2  0  0  0  0  0  0  0  0  0
   -2.2813    1.4838    0.9969 O   0  0  0  0  0  0  0  0  0  0  0  0
   -2.8627    2.3063    1.9090 C   0  0  0  0  0  0  0  0  0  0  0  0
   -3.5188    1.9456    2.8764 O   0  0  0  0  0  0  0  0  0  0  0  0
   -2.6507    3.7233    1.5381 C   0  0  0  0  0  0  0  0  0  0  0  0
   -3.5926    4.6717    1.9616 C   0  0  0  0  0  0  0  0  0  0  0  0
   -3.4445    6.0123    1.6090 C   0  0  0  0  0  0  0  0  0  0  0  0
   -2.3484    6.4081    0.8390 C   0  0  0  0  0  0  0  0  0  0  0  0
   -1.3963    5.4721    0.4282 C   0  0  0  0  0  0  0  0  0  0  0  0
   -1.5434    4.1315    0.7872 C   0  0  0  0  0  0  0  0  0  0  0  0
   -1.2618   -0.4281    2.1845 C   0  0  2  0  0  0  0  0  0  0  0  0
   -1.2629    0.4213    3.3597 O   0  0  0  0  0  0  0  0  0  0  0  0
    0.1340   -0.1801    1.5283 C   0  0  0  0  0  0  0  0  0  0  0  0
    0.9470   -1.4375    1.1581 C   0  0  2  0  0  0  0  0  0  0  0  0
    1.8272   -1.1108    0.0539 O   0  0  0  0  0  0  0  0  0  0  0  0
    3.1599   -1.2034    0.3227 C   0  0  0  0  0  0  0  0  0  0  0  0
    3.6533   -1.4552    1.4223 O   0  0  0  0  0  0  0  0  0  0  0  0
    4.0215   -1.1411   -0.9353 C   0  0  2  0  0  0  0  0  0  0  0  0
    5.3816   -1.4768   -0.5583 O   0  0  0  0  0  0  0  0  0  0  0  0
    3.9644    0.2454   -1.6188 C   0  0  1  0  0  0  0  0  0  0  0  0
    4.6846    1.2497   -0.8461 N   0  0  0  0  0  0  0  0  0  0  0  0
    4.0538    2.1033    0.0263 C   0  0  0  0  0  0  0  0  0  0  0  0
    2.8377    2.2055    0.1168 O   0  0  0  0  0  0  0  0  0  0  0  0
    4.9537    2.9489    0.8530 C   0  0  0  0  0  0  0  0  0  0  0  0
    6.1498    2.4508    1.3756 C   0  0  0  0  0  0  0  0  0  0  0  0
    6.9814    3.2826    2.1249 C   0  0  0  0  0  0  0  0  0  0  0  0
    6.6101    4.6068    2.3727 C   0  0  0  0  0  0  0  0  0  0  0  0
    5.4075    5.1010    1.8688 C   0  0  0  0  0  0  0  0  0  0  0  0
    4.5752    4.2707    1.1166 C   0  0  0  0  0  0  0  0  0  0  0  0
    4.5114    0.2249   -3.0449 C   0  0  0  0  0  0  0  0  0  0  0  0
    5.8022   -0.2459   -3.3454 C   0  0  0  0  0  0  0  0  0  0  0  0
    6.2833   -0.2489   -4.6589 C   0  0  0  0  0  0  0  0  0  0  0  0
    5.4835    0.2259   -5.6934 C   0  0  0  0  0  0  0  0  0  0  0  0
    4.2111    0.7173   -5.4166 C   0  0  0  0  0  0  0  0  0  0  0  0
    3.7298    0.7162   -4.1044 C   0  0  0  0  0  0  0  0  0  0  0  0
    0.0517   -2.6123    0.7862 C   0  0  0  0  0  0  0  0  0  0  0  0
    0.5669   -3.5049   -0.3144 C   0  0  0  0  0  0  0  0  0  0  0  0
   -1.1304   -2.7962    1.4437 C   0  0  0  0  0  0  0  0  0  0  0  0
   -1.4287   -1.9092    2.6833 C   0  0  0  0  0  0  0  0  0  0  0  0
   -2.7940   -2.0857    3.4137 C   0  0  0  0  0  0  0  0  0  0  0  0
   -0.4365   -2.2774    3.8345 C   0  0  0  0  0  0  0  0  0  0  0  0
   -3.8448   -6.5465    3.0834 H   0  0  0  0  0  0  0  0  0  0  0  0
   -2.1641   -7.1667    2.9383 H   0  0  0  0  0  0  0  0  0  0  0  0
   -3.4663   -7.8718    1.9687 H   0  0  0  0  0  0  0  0  0  0  0  0
   -1.9277   -4.1130   -0.0770 H   0  0  0  0  0  0  0  0  0  0  0  0
   -5.2494   -0.8038    0.8594 H   0  0  0  0  0  0  0  0  0  0  0  0
   -5.4691   -0.5882   -0.8768 H   0  0  0  0  0  0  0  0  0  0  0  0
   -5.8772   -2.1037   -0.1399 H   0  0  0  0  0  0  0  0  0  0  0  0
   -2.4832   -2.7783   -1.8491 H   0  0  0  0  0  0  0  0  0  0  0  0
   -4.1970   -4.0506   -2.6869 H   0  0  0  0  0  0  0  0  0  0  0  0
   -4.9964   -1.5098   -2.9828 H   0  0  0  0  0  0  0  0  0  0  0  0
   -3.5463   -1.9802   -3.8022 H   0  0  0  0  0  0  0  0  0  0  0  0
   -2.7526    0.0848   -3.6221 H   0  0  0  0  0  0  0  0  0  0  0  0
   -3.5472    2.4506   -1.5845 H   0  0  0  0  0  0  0  0  0  0  0  0
   -4.5030    1.3892   -0.5470 H   0  0  0  0  0  0  0  0  0  0  0  0
    0.5907    3.0859   -3.0512 H   0  0  0  0  0  0  0  0  0  0  0  0
    1.0473    1.4674   -2.4621 H   0  0  0  0  0  0  0  0  0  0  0  0
    0.5245    2.7399   -1.3139 H   0  0  0  0  0  0  0  0  0  0  0  0
   -1.6495   -1.1682   -0.3848 H   0  0  0  0  0  0  0  0  0  0  0  0
   -3.4072   -0.0618    1.7288 H   0  0  0  0  0  0  0  0  0  0  0  0
   -4.4441    4.3636    2.5633 H   0  0  0  0  0  0  0  0  0  0  0  0
   -4.1817    6.7482    1.9305 H   0  0  0  0  0  0  0  0  0  0  0  0
   -2.2299    7.4542    0.5644 H   0  0  0  0  0  0  0  0  0  0  0  0
   -0.5424    5.7932   -0.1607 H   0  0  0  0  0  0  0  0  0  0  0  0
   -0.7778    3.4183    0.4907 H   0  0  0  0  0  0  0  0  0  0  0  0
   -2.1849    0.6455    3.5871 H   0  0  0  0  0  0  0  0  0  0  0  0
    0.0274    0.4498    0.6369 H   0  0  0  0  0  0  0  0  0  0  0  0
    0.7620    0.4239    2.1981 H   0  0  0  0  0  0  0  0  0  0  0  0
    1.5505   -1.7581    2.0089 H   0  0  0  0  0  0  0  0  0  0  0  0
    3.6702   -1.9360   -1.6062 H   0  0  0  0  0  0  0  0  0  0  0  0
    5.3300   -1.9178    0.3164 H   0  0  0  0  0  0  0  0  0  0  0  0
    2.9123    0.5448   -1.6765 H   0  0  0  0  0  0  0  0  0  0  0  0
    5.6932    1.2115   -0.8874 H   0  0  0  0  0  0  0  0  0  0  0  0
    6.4411    1.4154    1.2247 H   0  0  0  0  0  0  0  0  0  0  0  0
    7.9135    2.8971    2.5317 H   0  0  0  0  0  0  0  0  0  0  0  0
    7.2600    5.2528    2.9598 H   0  0  0  0  0  0  0  0  0  0  0  0
    5.1211    6.1336    2.0633 H   0  0  0  0  0  0  0  0  0  0  0  0
    3.6304    4.6550    0.7275 H   0  0  0  0  0  0  0  0  0  0  0  0
    6.4614   -0.6145   -2.5602 H   0  0  0  0  0  0  0  0  0  0  0  0
    7.2861   -0.6178   -4.8684 H   0  0  0  0  0  0  0  0  0  0  0  0
    5.8507    0.2153   -6.7146 H   0  0  0  0  0  0  0  0  0  0  0  0
    3.5930    1.1029   -6.2215 H   0  0  0  0  0  0  0  0  0  0  0  0
    2.7352    1.1150   -3.9165 H   0  0  0  0  0  0  0  0  0  0  0  0
    1.6389   -3.6934   -0.1804 H   0  0  0  0  0  0  0  0  0  0  0  0
    0.0964   -4.4933   -0.3277 H   0  0  0  0  0  0  0  0  0  0  0  0
    0.4123   -3.0285   -1.2857 H   0  0  0  0  0  0  0  0  0  0  0  0
   -2.9610   -3.1280    3.7109 H   0  0  0  0  0  0  0  0  0  0  0  0
   -3.6580   -1.7519    2.8436 H   0  0  0  0  0  0  0  0  0  0  0  0
   -2.8362   -1.4899    4.3373 H   0  0  0  0  0  0  0  0  0  0  0  0
   -0.4333   -3.3562    4.0210 H   0  0  0  0  0  0  0  0  0  0  0  0
   -0.7103   -1.7878    4.7769 H   0  0  0  0  0  0  0  0  0  0  0  0
    0.5973   -1.9830    3.6669 H   0  0  0  0  0  0  0  0  0  0  0  0
  1  2  1  0
  2  3  2  0
  2  4  1  0
  4  5  1  0
  5  6  1  0
  6  7  2  0
  6  8  1  0
  8  9  1  6
  8 10  1  0
 10 11  1  0
 10 12  1  0
 12 13  1  0
 13 14  1  0
 14 15  1  0
 15 16  1  0
 16 17  1  6
 17 18  1  0
 18 19  1  0
 18 20  2  0
 16 21  1  0
 21 22  1  0
 22 23  1  0
 23 24  1  0
 24 25  2  0
 24 26  1  0
 26 27  2  0
 27 28  1  0
 28 29  2  0
 29 30  1  0
 30 31  2  0
 22 32  1  0
 32 33  1  1
 32 34  1  0
 34 35  1  0
 35 36  1  0
 36 37  1  0
 37 38  2  0
 37 39  1  0
 39 40  1  0
 39 41  1  0
 41 42  1  0
 42 43  1  0
 43 44  2  0
 43 45  1  0
 45 46  2  0
 46 47  1  0
 47 48  2  0
 48 49  1  0
 49 50  2  0
 41 51  1  0
 51 52  2  0
 52 53  1  0
 53 54  2  0
 54 55  1  0
 55 56  2  0
 35 57  1  0
 57 58  1  0
 57 59  2  0
 59 60  1  0
 60 61  1  0
 60 62  1  0
 59  5  1  0
 21  8  1  0
 31 26  1  0
 60 32  1  0
 16 13  1  0
 50 45  1  0
 56 51  1  0
  1 63  1  0
  1 64  1  0
  1 65  1  0
  5 66  1  6
  9 67  1  0
  9 68  1  0
  9 69  1  0
 10 70  1  6
 11 71  1  0
 12 72  1  0
 12 73  1  0
 13 74  1  6
 15 75  1  0
 15 76  1  0
 19 77  1  0
 19 78  1  0
 19 79  1  0
 21 80  1  6
 22 81  1  1
 27 82  1  0
 28 83  1  0
 29 84  1  0
 30 85  1  0
 31 86  1  0
 33 87  1  0
 34 88  1  0
 34 89  1  0
 35 90  1  1
 39 91  1  6
 40 92  1  0
 41 93  1  6
 42 94  1  0
 46 95  1  0
 47 96  1  0
 48 97  1  0
 49 98  1  0
 50 99  1  0
 52100  1  0
 53101  1  0
 54102  1  0
 55103  1  0
 56104  1  0
 58105  1  0
 58106  1  0
 58107  1  0
 61108  1  0
 61109  1  0
 61110  1  0
 62111  1  0
 62112  1  0
 62113  1  0
M  END
$$$$
