
     RDKit          3D

 59 62  0  0  0  0  0  0  0  0999 V2000
    3.4023    1.5054   -1.1306 C   0  0  0  0  0  0  0  0  0  0  0  0
    3.7931    0.0906   -0.9309 C   0  0  0  0  0  0  0  0  0  0  0  0
    4.5760   -0.5655   -1.8349 N   0  0  0  0  0  0  0  0  0  0  0  0
    4.8511   -1.8303   -1.4951 N   0  0  0  0  0  0  0  0  0  0  0  0
    4.2416   -2.0046   -0.3054 C   0  0  0  0  0  0  0  0  0  0  0  0
    4.3538   -3.2948    0.4755 C   0  0  0  0  0  0  0  0  0  0  0  0
    4.7668   -3.0676    1.7547 F   0  0  0  0  0  0  0  0  0  0  0  0
    5.2331   -4.1832   -0.0606 F   0  0  0  0  0  0  0  0  0  0  0  0
    3.1592   -3.9423    0.5704 F   0  0  0  0  0  0  0  0  0  0  0  0
    3.5241   -0.8200    0.0781 C   0  0  0  0  0  0  0  0  0  0  0  0
    2.7163   -0.6064    1.3251 C   0  0  0  0  0  0  0  0  0  0  0  0
    1.2217   -0.6655    1.1002 C   0  0  0  0  0  0  0  0  0  0  0  0
    0.4927   -2.1335    0.6004 S   0  0  0  0  0  0  0  0  0  0  0  0
   -1.0675   -1.4980    0.7229 C   0  0  0  0  0  0  0  0  0  0  0  0
   -1.0678   -0.1926    1.1333 C   0  0  0  0  0  0  0  0  0  0  0  0
    0.2672    0.3306    1.2887 C   0  0  0  0  0  0  0  0  0  0  0  0
    0.6288    1.6870    1.7055 C   0  0  0  0  0  0  0  0  0  0  0  0
    1.1213    1.8698    2.8144 O   0  0  0  0  0  0  0  0  0  0  0  0
    0.4747    2.6640    0.7522 N   0  0  0  0  0  0  0  0  0  0  0  0
   -0.2265    2.6719   -0.5225 C   0  0  0  0  0  0  0  0  0  0  0  0
    0.0664    4.0365   -1.1139 C   0  0  2  0  0  0  0  0  0  0  0  0
   -1.0401    4.5712   -2.0101 C   0  0  0  0  0  0  0  0  0  0  0  0
    1.2871    4.0020   -1.8669 O   0  0  0  0  0  0  0  0  0  0  0  0
    0.2550    4.8696    0.1484 C   0  0  0  0  0  0  0  0  0  0  0  0
    0.8193    3.9875    1.1327 O   0  0  0  0  0  0  0  0  0  0  0  0
   -2.3289    0.4685    1.3678 C   0  0  0  0  0  0  0  0  0  0  0  0
   -2.3846    1.6519    1.6879 O   0  0  0  0  0  0  0  0  0  0  0  0
   -3.4473   -0.3346    1.1716 N   0  0  0  0  0  0  0  0  0  0  0  0
   -4.7481    0.2623    1.4118 C   0  0  0  0  0  0  0  0  0  0  0  0
   -3.4451   -1.6324    0.6469 C   0  0  0  0  0  0  0  0  0  0  0  0
   -4.5115   -2.1898    0.3733 O   0  0  0  0  0  0  0  0  0  0  0  0
   -2.2022   -2.2559    0.4429 N   0  0  0  0  0  0  0  0  0  0  0  0
   -2.1756   -3.6494   -0.0747 C   0  0  0  0  0  0  0  0  0  0  0  0
   -2.7511   -3.7542   -1.4917 C   0  0  0  0  0  0  0  0  0  0  0  0
   -2.8407   -4.6442    0.8819 C   0  0  0  0  0  0  0  0  0  0  0  0
    2.4759    1.5534   -1.7124 H   0  0  0  0  0  0  0  0  0  0  0  0
    4.1753    2.0602   -1.6732 H   0  0  0  0  0  0  0  0  0  0  0  0
    3.2449    2.0097   -0.1733 H   0  0  0  0  0  0  0  0  0  0  0  0
    4.9661   -0.2059   -2.7005 H   0  0  0  0  0  0  0  0  0  0  0  0
    2.9999    0.3625    1.7546 H   0  0  0  0  0  0  0  0  0  0  0  0
    2.9862   -1.3497    2.0867 H   0  0  0  0  0  0  0  0  0  0  0  0
   -1.2922    2.5434   -0.3241 H   0  0  0  0  0  0  0  0  0  0  0  0
    0.1227    1.8359   -1.1355 H   0  0  0  0  0  0  0  0  0  0  0  0
   -1.1855    3.9188   -2.8796 H   0  0  0  0  0  0  0  0  0  0  0  0
   -1.9936    4.6487   -1.4774 H   0  0  0  0  0  0  0  0  0  0  0  0
   -0.7774    5.5622   -2.3991 H   0  0  0  0  0  0  0  0  0  0  0  0
    1.1191    3.5384   -2.7038 H   0  0  0  0  0  0  0  0  0  0  0  0
    0.9440    5.7056    0.0003 H   0  0  0  0  0  0  0  0  0  0  0  0
   -0.6927    5.2444    0.5493 H   0  0  0  0  0  0  0  0  0  0  0  0
   -5.4019   -0.4565    1.9158 H   0  0  0  0  0  0  0  0  0  0  0  0
   -4.6815    1.1626    2.0283 H   0  0  0  0  0  0  0  0  0  0  0  0
   -5.1930    0.5235    0.4465 H   0  0  0  0  0  0  0  0  0  0  0  0
   -1.1372   -3.9804   -0.1598 H   0  0  0  0  0  0  0  0  0  0  0  0
   -2.2776   -3.0231   -2.1570 H   0  0  0  0  0  0  0  0  0  0  0  0
   -3.8300   -3.5823   -1.5196 H   0  0  0  0  0  0  0  0  0  0  0  0
   -2.5698   -4.7541   -1.9034 H   0  0  0  0  0  0  0  0  0  0  0  0
   -2.4161   -4.5551    1.8881 H   0  0  0  0  0  0  0  0  0  0  0  0
   -3.9211   -4.4941    0.9623 H   0  0  0  0  0  0  0  0  0  0  0  0
   -2.6792   -5.6720    0.5374 H   0  0  0  0  0  0  0  0  0  0  0  0
  1  2  1  0
  2  3  1  0
  3  4  1  0
  4  5  2  0
  5  6  1  0
  6  7  1  0
  6  8  1  0
  6  9  1  0
  5 10  1  0
 10 11  1  0
 11 12  1  0
 12 13  1  0
 13 14  1  0
 14 15  2  0
 15 16  1  0
 16 17  1  0
 17 18  2  0
 17 19  1  0
 19 20  1  0
 20 21  1  0
 21 22  1  0
 21 23  1  6
 21 24  1  0
 24 25  1  0
 15 26  1  0
 26 27  2  0
 26 28  1  0
 28 29  1  0
 28 30  1  0
 30 31  2  0
 30 32  1  0
 32 33  1  0
 33 34  1  0
 33 35  1  0
 10  2  2  0
 16 12  2  0
 25 19  1  0
 32 14  1  0
  1 36  1  0
  1 37  1  0
  1 38  1  0
  3 39  1  0
 11 40  1  0
 11 41  1  0
 20 42  1  0
 20 43  1  0
 22 44  1  0
 22 45  1  0
 22 46  1  0
 23 47  1  0
 24 48  1  0
 24 49  1  0
 29 50  1  0
 29 51  1  0
 29 52  1  0
 33 53  1  0
 34 54  1  0
 34 55  1  0
 34 56  1  0
 35 57  1  0
 35 58  1  0
 35 59  1  0
M  END
$$$$
