
     RDKit          3D

 62 65  0  0  0  0  0  0  0  0999 V2000
   10.4693   -0.3838   -1.1094 C   0  0  0  0  0  0  0  0  0  0  0  0
    9.1861    0.0759   -1.5826 N   0  0  0  0  0  0  0  0  0  0  0  0
    8.0688   -0.1099   -0.7866 C   0  0  0  0  0  0  0  0  0  0  0  0
    8.1150   -0.6982    0.2846 O   0  0  0  0  0  0  0  0  0  0  0  0
    6.9565    0.4385   -1.3875 N   0  0  0  0  0  0  0  0  0  0  0  0
    5.6515    0.5297   -0.8632 C   0  0  0  0  0  0  0  0  0  0  0  0
    4.6436    0.9941   -1.7339 C   0  0  0  0  0  0  0  0  0  0  0  0
    3.3168    1.1253   -1.3088 C   0  0  0  0  0  0  0  0  0  0  0  0
    3.0110    0.7950    0.0003 C   0  0  0  0  0  0  0  0  0  0  0  0
    4.0089    0.3499    0.8742 C   0  0  0  0  0  0  0  0  0  0  0  0
    5.3247    0.2053    0.4564 C   0  0  0  0  0  0  0  0  0  0  0  0
    3.4400    0.0341    2.2248 C   0  0  0  0  0  0  0  0  0  0  0  0
    2.1029    0.7912    2.1795 C   0  0  0  0  0  0  0  0  0  0  0  0
    1.6841    0.8247    0.7020 C   0  0  1  0  0  0  0  0  0  0  0  0
    0.9366    2.0008    0.4003 O   0  0  0  0  0  0  0  0  0  0  0  0
   -0.2877    1.6212   -0.0613 C   0  0  0  0  0  0  0  0  0  0  0  0
   -1.1679    2.4123   -0.3652 O   0  0  0  0  0  0  0  0  0  0  0  0
   -0.3737    0.2774   -0.1403 N   0  0  0  0  0  0  0  0  0  0  0  0
   -1.5864   -0.4301   -0.4787 C   0  0  0  0  0  0  0  0  0  0  0  0
   -2.4585   -0.5519    0.7813 C   0  0  0  0  0  0  0  0  0  0  0  0
   -2.0162   -0.2247    1.8868 O   0  0  0  0  0  0  0  0  0  0  0  0
   -3.7468   -1.0716    0.6429 N   0  0  0  0  0  0  0  0  0  0  0  0
   -4.3772   -1.3375   -0.6581 C   0  0  0  0  0  0  0  0  0  0  0  0
   -5.3441   -0.2653   -1.1078 C   0  0  0  0  0  0  0  0  0  0  0  0
   -6.6174   -0.6338   -1.5766 C   0  0  0  0  0  0  0  0  0  0  0  0
   -7.5208    0.3330   -2.0225 C   0  0  0  0  0  0  0  0  0  0  0  0
   -7.1534    1.6717   -2.0110 C   0  0  0  0  0  0  0  0  0  0  0  0
   -8.0203    2.5983   -2.4390 F   0  0  0  0  0  0  0  0  0  0  0  0
   -5.8987    2.0614   -1.5628 C   0  0  0  0  0  0  0  0  0  0  0  0
   -4.9933    1.0962   -1.1157 C   0  0  0  0  0  0  0  0  0  0  0  0
   -4.5576   -1.2331    1.8958 C   0  0  1  0  0  0  0  0  0  0  0  0
   -5.2793    0.0648    2.2703 C   0  0  0  0  0  0  0  0  0  0  0  0
   -5.5334   -2.4237    1.9385 C   0  0  0  0  0  0  0  0  0  0  0  0
   -4.9105   -3.5745    1.5904 F   0  0  0  0  0  0  0  0  0  0  0  0
   -6.0392   -2.6003    3.1802 F   0  0  0  0  0  0  0  0  0  0  0  0
   -6.5778   -2.2617    1.0960 F   0  0  0  0  0  0  0  0  0  0  0  0
    0.7528   -0.3052    0.3374 C   0  0  0  0  0  0  0  0  0  0  0  0
    0.9537   -1.5044    0.4531 O   0  0  0  0  0  0  0  0  0  0  0  0
   10.7795    0.2352   -0.2631 H   0  0  0  0  0  0  0  0  0  0  0  0
   11.1924   -0.2906   -1.9227 H   0  0  0  0  0  0  0  0  0  0  0  0
   10.3980   -1.4275   -0.7911 H   0  0  0  0  0  0  0  0  0  0  0  0
    9.1916    0.9414   -2.1009 H   0  0  0  0  0  0  0  0  0  0  0  0
    7.0687    0.6641   -2.3637 H   0  0  0  0  0  0  0  0  0  0  0  0
    4.8839    1.2571   -2.7613 H   0  0  0  0  0  0  0  0  0  0  0  0
    2.5552    1.4839   -1.9943 H   0  0  0  0  0  0  0  0  0  0  0  0
    6.0664   -0.1512    1.1630 H   0  0  0  0  0  0  0  0  0  0  0  0
    4.0735    0.3968    3.0391 H   0  0  0  0  0  0  0  0  0  0  0  0
    3.2834   -1.0449    2.3243 H   0  0  0  0  0  0  0  0  0  0  0  0
    1.3558    0.3236    2.8306 H   0  0  0  0  0  0  0  0  0  0  0  0
    2.2469    1.8154    2.5513 H   0  0  0  0  0  0  0  0  0  0  0  0
   -2.1092    0.1374   -1.2516 H   0  0  0  0  0  0  0  0  0  0  0  0
   -1.3374   -1.4346   -0.8342 H   0  0  0  0  0  0  0  0  0  0  0  0
   -4.8702   -2.3130   -0.5992 H   0  0  0  0  0  0  0  0  0  0  0  0
   -3.6201   -1.4505   -1.4391 H   0  0  0  0  0  0  0  0  0  0  0  0
   -6.9219   -1.6792   -1.5897 H   0  0  0  0  0  0  0  0  0  0  0  0
   -8.5070    0.0501   -2.3769 H   0  0  0  0  0  0  0  0  0  0  0  0
   -5.6309    3.1137   -1.5614 H   0  0  0  0  0  0  0  0  0  0  0  0
   -4.0209    1.4319   -0.7629 H   0  0  0  0  0  0  0  0  0  0  0  0
   -3.8381   -1.4278    2.7015 H   0  0  0  0  0  0  0  0  0  0  0  0
   -6.1016    0.2832    1.5830 H   0  0  0  0  0  0  0  0  0  0  0  0
   -5.7049   -0.0087    3.2769 H   0  0  0  0  0  0  0  0  0  0  0  0
   -4.5950    0.9194    2.2585 H   0  0  0  0  0  0  0  0  0  0  0  0
  1  2  1  0
  2  3  1  0
  3  4  2  0
  3  5  1  0
  5  6  1  0
  6  7  2  0
  7  8  1  0
  8  9  2  0
  9 10  1  0
 10 11  2  0
 10 12  1  0
 12 13  1  0
 13 14  1  0
 14 15  1  1
 15 16  1  0
 16 17  2  0
 16 18  1  0
 18 19  1  0
 19 20  1  0
 20 21  2  0
 20 22  1  0
 22 23  1  0
 23 24  1  0
 24 25  2  0
 25 26  1  0
 26 27  2  0
 27 28  1  0
 27 29  1  0
 29 30  2  0
 22 31  1  0
 31 32  1  0
 31 33  1  0
 33 34  1  0
 33 35  1  0
 33 36  1  0
 18 37  1  0
 37 38  2  0
 11  6  1  0
 37 14  1  0
 14  9  1  0
 30 24  1  0
  1 39  1  0
  1 40  1  0
  1 41  1  0
  2 42  1  0
  5 43  1  0
  7 44  1  0
  8 45  1  0
 11 46  1  0
 12 47  1  0
 12 48  1  0
 13 49  1  0
 13 50  1  0
 19 51  1  0
 19 52  1  0
 23 53  1  0
 23 54  1  0
 25 55  1  0
 26 56  1  0
 29 57  1  0
 30 58  1  0
 31 59  1  1
 32 60  1  0
 32 61  1  0
 32 62  1  0
M  END
$$$$
