
     RDKit          3D

 17 17  0  0  0  0  0  0  0  0999 V2000
    3.2861    0.2550   -0.8583 O   0  0  0  0  0  0  0  0  0  0  0  0
    2.4825    0.4678    0.0306 C   0  0  0  0  0  0  0  0  0  0  0  0
    2.8566    1.0401    1.1879 O   0  0  0  0  0  0  0  0  0  0  0  0
    1.0355    0.1482   -0.0138 C   0  0  0  0  0  0  0  0  0  0  0  0
    0.5234   -0.4469   -1.1793 C   0  0  0  0  0  0  0  0  0  0  0  0
   -0.8321   -0.7746   -1.2677 C   0  0  0  0  0  0  0  0  0  0  0  0
   -1.6642   -0.5062   -0.1906 C   0  0  0  0  0  0  0  0  0  0  0  0
   -2.9725   -0.8870   -0.2579 O   0  0  0  0  0  0  0  0  0  0  0  0
   -1.1667    0.1145    0.9526 C   0  0  0  0  0  0  0  0  0  0  0  0
   -2.0051    0.4494    1.9767 O   0  0  0  0  0  0  0  0  0  0  0  0
    0.1814    0.4300    1.0601 C   0  0  0  0  0  0  0  0  0  0  0  0
    3.8186    1.1913    1.0768 H   0  0  0  0  0  0  0  0  0  0  0  0
    1.1822   -0.6632   -2.0186 H   0  0  0  0  0  0  0  0  0  0  0  0
   -1.2260   -1.2496   -2.1615 H   0  0  0  0  0  0  0  0  0  0  0  0
   -3.2093   -1.2044    0.6333 H   0  0  0  0  0  0  0  0  0  0  0  0
   -2.8419    0.7310    1.5625 H   0  0  0  0  0  0  0  0  0  0  0  0
    0.5517    0.9044    1.9642 H   0  0  0  0  0  0  0  0  0  0  0  0
  1  2  2  0
  2  3  1  0
  2  4  1  0
  4  5  2  0
  5  6  1  0
  6  7  2  0
  7  8  1  0
  7  9  1  0
  9 10  1  0
  9 11  2  0
 11  4  1  0
  3 12  1  0
  5 13  1  0
  6 14  1  0
  8 15  1  0
 10 16  1  0
 11 17  1  0
M  END
$$$$
