
     RDKit          3D

 60 63  0  0  0  0  0  0  0  0999 V2000
    7.0082   -3.9919    1.6966 C   0  0  0  0  0  0  0  0  0  0  0  0
    6.2148   -2.8602    1.1157 C   0  0  0  0  0  0  0  0  0  0  0  0
    6.6791   -2.1607    0.0005 C   0  0  0  0  0  0  0  0  0  0  0  0
    5.9193   -1.1243   -0.5624 C   0  0  0  0  0  0  0  0  0  0  0  0
    4.6714   -0.7682   -0.0383 C   0  0  0  0  0  0  0  0  0  0  0  0
    3.8896    0.2765   -0.6133 N   0  0  0  0  0  0  0  0  0  0  0  0
    4.3350    1.2069   -1.5607 C   0  0  0  0  0  0  0  0  0  0  0  0
    5.3855    1.2951   -2.1706 O   0  0  0  0  0  0  0  0  0  0  0  0
    3.2719    2.1963   -1.7379 C   0  0  0  0  0  0  0  0  0  0  0  0
    3.2188    3.3198   -2.5404 C   0  0  0  0  0  0  0  0  0  0  0  0
    2.0465    4.0762   -2.4957 C   0  0  0  0  0  0  0  0  0  0  0  0
    1.0046    3.6595   -1.6618 C   0  0  0  0  0  0  0  0  0  0  0  0
    1.0483    2.5509   -0.8773 N   0  0  0  0  0  0  0  0  0  0  0  0
    2.2041    1.8552   -0.9338 C   0  0  0  0  0  0  0  0  0  0  0  0
    2.5125    0.5741   -0.1794 C   0  0  0  0  0  0  0  0  0  0  0  0
    1.5022   -0.4985   -0.6046 C   0  0  0  0  0  0  0  0  0  0  0  0
    0.2582   -0.3828    0.2446 C   0  0  0  0  0  0  0  0  0  0  0  0
    0.3116   -0.2942    1.4679 O   0  0  0  0  0  0  0  0  0  0  0  0
   -0.9212   -0.4540   -0.4630 N   0  0  0  0  0  0  0  0  0  0  0  0
   -2.2097   -0.3375    0.1938 C   0  0  0  0  0  0  0  0  0  0  0  0
   -2.5875    1.1177    0.4503 C   0  0  0  0  0  0  0  0  0  0  0  0
   -3.8085    1.3032    1.3639 C   0  0  0  0  0  0  0  0  0  0  0  0
   -5.1024    0.7952    0.9183 N   0  0  0  0  0  0  0  0  0  0  0  0
   -5.4030   -0.5941    1.2438 C   0  0  0  0  0  0  0  0  0  0  0  0
   -6.8111   -0.9741    0.7811 C   0  0  0  0  0  0  0  0  0  0  0  0
   -6.9973   -0.7883   -0.7261 C   0  0  0  0  0  0  0  0  0  0  0  0
   -5.9913    0.1911   -1.3303 C   0  0  0  0  0  0  0  0  0  0  0  0
   -5.6143    1.3028   -0.3513 C   0  0  0  0  0  0  0  0  0  0  0  0
    4.2144   -1.4834    1.0814 C   0  0  0  0  0  0  0  0  0  0  0  0
    4.9707   -2.5190    1.6467 C   0  0  0  0  0  0  0  0  0  0  0  0
    6.8768   -4.0418    2.7829 H   0  0  0  0  0  0  0  0  0  0  0  0
    8.0793   -3.8599    1.5045 H   0  0  0  0  0  0  0  0  0  0  0  0
    6.6853   -4.9394    1.2551 H   0  0  0  0  0  0  0  0  0  0  0  0
    7.6386   -2.4114   -0.4468 H   0  0  0  0  0  0  0  0  0  0  0  0
    6.3356   -0.6241   -1.4324 H   0  0  0  0  0  0  0  0  0  0  0  0
    4.0555    3.5986   -3.1723 H   0  0  0  0  0  0  0  0  0  0  0  0
    1.9418    4.9756   -3.0972 H   0  0  0  0  0  0  0  0  0  0  0  0
    0.0777    4.2290   -1.6065 H   0  0  0  0  0  0  0  0  0  0  0  0
    2.5194    0.7989    0.8941 H   0  0  0  0  0  0  0  0  0  0  0  0
    1.2609   -0.4288   -1.6745 H   0  0  0  0  0  0  0  0  0  0  0  0
    1.8866   -1.5139   -0.4435 H   0  0  0  0  0  0  0  0  0  0  0  0
   -0.8954   -0.3626   -1.4705 H   0  0  0  0  0  0  0  0  0  0  0  0
   -2.9357   -0.8144   -0.4744 H   0  0  0  0  0  0  0  0  0  0  0  0
   -2.1740   -0.9015    1.1332 H   0  0  0  0  0  0  0  0  0  0  0  0
   -2.7344    1.6332   -0.5072 H   0  0  0  0  0  0  0  0  0  0  0  0
   -1.7417    1.6321    0.9293 H   0  0  0  0  0  0  0  0  0  0  0  0
   -3.5743    0.8932    2.3578 H   0  0  0  0  0  0  0  0  0  0  0  0
   -3.9240    2.3849    1.5318 H   0  0  0  0  0  0  0  0  0  0  0  0
   -4.6870   -1.2844    0.7867 H   0  0  0  0  0  0  0  0  0  0  0  0
   -5.3413   -0.7403    2.3294 H   0  0  0  0  0  0  0  0  0  0  0  0
   -7.0305   -2.0136    1.0542 H   0  0  0  0  0  0  0  0  0  0  0  0
   -7.5447   -0.3542    1.3152 H   0  0  0  0  0  0  0  0  0  0  0  0
   -8.0209   -0.4393   -0.9171 H   0  0  0  0  0  0  0  0  0  0  0  0
   -6.9043   -1.7542   -1.2365 H   0  0  0  0  0  0  0  0  0  0  0  0
   -5.0861   -0.3552   -1.6228 H   0  0  0  0  0  0  0  0  0  0  0  0
   -6.4047    0.6209   -2.2507 H   0  0  0  0  0  0  0  0  0  0  0  0
   -4.9126    1.9897   -0.8374 H   0  0  0  0  0  0  0  0  0  0  0  0
   -6.5098    1.9014   -0.1383 H   0  0  0  0  0  0  0  0  0  0  0  0
    3.2667   -1.2548    1.5600 H   0  0  0  0  0  0  0  0  0  0  0  0
    4.5770   -3.0529    2.5100 H   0  0  0  0  0  0  0  0  0  0  0  0
  1  2  1  0
  2  3  2  0
  3  4  1  0
  4  5  2  0
  5  6  1  0
  6  7  1  0
  7  8  2  0
  7  9  1  0
  9 10  2  0
 10 11  1  0
 11 12  2  0
 12 13  1  0
 13 14  2  0
 14 15  1  0
 15 16  1  0
 16 17  1  0
 17 18  2  0
 17 19  1  0
 19 20  1  0
 20 21  1  0
 21 22  1  0
 22 23  1  0
 23 24  1  0
 24 25  1  0
 25 26  1  0
 26 27  1  0
 27 28  1  0
  5 29  1  0
 29 30  2  0
 30  2  1  0
 15  6  1  0
 28 23  1  0
 14  9  1  0
  1 31  1  0
  1 32  1  0
  1 33  1  0
  3 34  1  0
  4 35  1  0
 10 36  1  0
 11 37  1  0
 12 38  1  0
 15 39  1  0
 16 40  1  0
 16 41  1  0
 19 42  1  0
 20 43  1  0
 20 44  1  0
 21 45  1  0
 21 46  1  0
 22 47  1  0
 22 48  1  0
 24 49  1  0
 24 50  1  0
 25 51  1  0
 25 52  1  0
 26 53  1  0
 26 54  1  0
 27 55  1  0
 27 56  1  0
 28 57  1  0
 28 58  1  0
 29 59  1  0
 30 60  1  0
M  END
$$$$
