
     RDKit          3D

 34 36  0  0  0  0  0  0  0  0999 V2000
   -2.8006   -2.5259   -2.9755 C   0  0  0  0  0  0  0  0  0  0  0  0
   -2.4155   -1.6502   -1.8783 N   0  0  0  0  0  0  0  0  0  0  0  0
   -1.1132   -1.1240   -1.8608 C   0  0  0  0  0  0  0  0  0  0  0  0
   -0.2774   -1.4358   -2.7089 O   0  0  0  0  0  0  0  0  0  0  0  0
   -0.7366   -0.1929   -0.7320 C   0  0  0  0  0  0  0  0  0  0  0  0
    0.5792    0.5190   -0.7862 C   0  0  0  0  0  0  0  0  0  0  0  0
    0.9701    1.0037   -1.8425 O   0  0  0  0  0  0  0  0  0  0  0  0
    1.2469    0.5756    0.4245 N   0  0  0  0  0  0  0  0  0  0  0  0
    2.5208    1.1220    0.6809 C   0  0  0  0  0  0  0  0  0  0  0  0
    3.3851    1.5873   -0.3122 C   0  0  0  0  0  0  0  0  0  0  0  0
    4.6384    2.1107    0.0219 C   0  0  0  0  0  0  0  0  0  0  0  0
    5.0410    2.1712    1.3544 C   0  0  0  0  0  0  0  0  0  0  0  0
    4.1884    1.7043    2.3566 C   0  0  0  0  0  0  0  0  0  0  0  0
    4.5931    1.7605    3.7303 C   0  0  0  0  0  0  0  0  0  0  0  0
    4.9117    1.8020    4.8456 N   0  0  0  0  0  0  0  0  0  0  0  0
    2.9338    1.1797    2.0183 C   0  0  0  0  0  0  0  0  0  0  0  0
   -1.5982    0.0326    0.2788 C   0  0  0  0  0  0  0  0  0  0  0  0
   -1.3244    0.8462    1.3599 O   0  0  0  0  0  0  0  0  0  0  0  0
   -2.8708   -0.5883    0.2267 C   0  0  0  0  0  0  0  0  0  0  0  0
   -4.0808   -0.4221    1.4224 S   0  0  0  0  0  0  0  0  0  0  0  0
   -5.1617   -1.4242    0.5549 C   0  0  0  0  0  0  0  0  0  0  0  0
   -4.6106   -1.8783   -0.6240 C   0  0  0  0  0  0  0  0  0  0  0  0
   -3.2840   -1.3939   -0.8117 C   0  0  0  0  0  0  0  0  0  0  0  0
   -2.9149   -3.5441   -2.5909 H   0  0  0  0  0  0  0  0  0  0  0  0
   -2.0554   -2.5357   -3.7753 H   0  0  0  0  0  0  0  0  0  0  0  0
   -3.7494   -2.1806   -3.3980 H   0  0  0  0  0  0  0  0  0  0  0  0
    0.7186    0.2687    1.2342 H   0  0  0  0  0  0  0  0  0  0  0  0
    3.1169    1.5504   -1.3645 H   0  0  0  0  0  0  0  0  0  0  0  0
    5.2978    2.4686   -0.7658 H   0  0  0  0  0  0  0  0  0  0  0  0
    6.0185    2.5809    1.6010 H   0  0  0  0  0  0  0  0  0  0  0  0
    2.2785    0.8201    2.8092 H   0  0  0  0  0  0  0  0  0  0  0  0
   -2.1541    0.9532    1.8653 H   0  0  0  0  0  0  0  0  0  0  0  0
   -6.1475   -1.6333    0.9488 H   0  0  0  0  0  0  0  0  0  0  0  0
   -5.1441   -2.5274   -1.3070 H   0  0  0  0  0  0  0  0  0  0  0  0
  1  2  1  0
  2  3  1  0
  3  4  2  0
  3  5  1  0
  5  6  1  0
  6  7  2  0
  6  8  1  0
  8  9  1  0
  9 10  2  0
 10 11  1  0
 11 12  2  0
 12 13  1  0
 13 14  1  0
 14 15  3  0
 13 16  2  0
  5 17  2  0
 17 18  1  0
 17 19  1  0
 19 20  1  0
 20 21  1  0
 21 22  2  0
 22 23  1  0
 23  2  1  0
 16  9  1  0
 23 19  2  0
  1 24  1  0
  1 25  1  0
  1 26  1  0
  8 27  1  0
 10 28  1  0
 11 29  1  0
 12 30  1  0
 16 31  1  0
 18 32  1  0
 21 33  1  0
 22 34  1  0
M  END
$$$$
