
     RDKit          3D

 22 22  0  0  0  0  0  0  0  0999 V2000
   -3.8522    0.2586   -1.2785 C   0  0  0  0  0  0  0  0  0  0  0  0
   -2.9026    0.2801   -0.1113 C   0  0  0  0  0  0  0  0  0  0  0  0
   -3.1819   -0.2578    0.9544 O   0  0  0  0  0  0  0  0  0  0  0  0
   -1.7706    1.0006   -0.3475 N   0  0  0  0  0  0  0  0  0  0  0  0
   -0.6203    0.4797   -0.1255 C   0  0  0  0  0  0  0  0  0  0  0  0
    0.7428    1.5701   -0.4454 S   0  0  0  0  0  0  0  0  0  0  0  0
    1.8211    0.2822    0.0707 C   0  0  0  0  0  0  0  0  0  0  0  0
    3.5862    0.4918    0.1277 S   0  0  0  0  0  6  0  0  0  0  0  0
    4.0433    1.4453   -1.1997 N   0  0  0  0  0  0  0  0  0  0  0  0
    4.2143   -0.7899   -0.1085 O   0  0  0  0  0  0  0  0  0  0  0  0
    3.8893    1.2984    1.2900 O   0  0  0  0  0  0  0  0  0  0  0  0
    1.2663   -0.8435    0.4200 N   0  0  0  0  0  0  0  0  0  0  0  0
   -0.1026   -0.7349    0.2857 N   0  0  0  0  0  0  0  0  0  0  0  0
   -0.8615   -1.8872    0.7329 C   0  0  0  0  0  0  0  0  0  0  0  0
   -4.2705    1.2570   -1.4297 H   0  0  0  0  0  0  0  0  0  0  0  0
   -4.6648   -0.4454   -1.0786 H   0  0  0  0  0  0  0  0  0  0  0  0
   -3.3251   -0.0662   -2.1798 H   0  0  0  0  0  0  0  0  0  0  0  0
    4.7502    0.9377   -1.7371 H   0  0  0  0  0  0  0  0  0  0  0  0
    4.3989    2.3406   -0.8560 H   0  0  0  0  0  0  0  0  0  0  0  0
   -1.2859   -1.7073    1.7248 H   0  0  0  0  0  0  0  0  0  0  0  0
   -0.2196   -2.7728    0.8084 H   0  0  0  0  0  0  0  0  0  0  0  0
   -1.6550   -2.1370    0.0228 H   0  0  0  0  0  0  0  0  0  0  0  0
  1  2  1  0
  2  3  2  0
  2  4  1  0
  4  5  2  0
  5  6  1  0
  6  7  1  0
  7  8  1  0
  8  9  1  0
  8 10  2  0
  8 11  2  0
  7 12  2  0
 12 13  1  0
 13 14  1  0
 13  5  1  0
  1 15  1  0
  1 16  1  0
  1 17  1  0
  9 18  1  0
  9 19  1  0
 14 20  1  0
 14 21  1  0
 14 22  1  0
M  END
$$$$
