
     RDKit          3D

 31 33  0  0  0  0  0  0  0  0999 V2000
   -0.5583    3.5456    2.2700 O   0  0  0  0  0  0  0  0  0  0  0  0
   -0.3630    2.7974    1.3293 C   0  0  0  0  0  0  0  0  0  0  0  0
   -0.3250    3.1497    0.0291 N   0  0  0  0  0  0  0  0  0  0  0  0
   -0.2197    2.0463   -0.7621 C   0  0  0  0  0  0  0  0  0  0  0  0
   -0.2482    2.0900   -1.9863 O   0  0  0  0  0  0  0  0  0  0  0  0
   -0.0848    0.7786    0.1416 C   0  0  0  0  0  0  0  0  0  0  0  0
    1.2833    0.1226   -0.0952 C   0  0  0  0  0  0  0  0  0  0  0  0
    2.3170    0.1607    0.8587 C   0  0  0  0  0  0  0  0  0  0  0  0
    3.5491   -0.4490    0.6071 C   0  0  0  0  0  0  0  0  0  0  0  0
    3.7728   -1.1047   -0.6004 C   0  0  0  0  0  0  0  0  0  0  0  0
    2.7667   -1.1503   -1.5606 C   0  0  0  0  0  0  0  0  0  0  0  0
    1.5348   -0.5419   -1.3118 C   0  0  0  0  0  0  0  0  0  0  0  0
   -1.2527   -0.2140    0.0427 C   0  0  0  0  0  0  0  0  0  0  0  0
   -1.2570   -1.3604    0.8661 C   0  0  0  0  0  0  0  0  0  0  0  0
   -2.3048   -2.2822    0.8194 C   0  0  0  0  0  0  0  0  0  0  0  0
   -3.3722   -2.0778   -0.0486 C   0  0  0  0  0  0  0  0  0  0  0  0
   -3.3907   -0.9542   -0.8698 C   0  0  0  0  0  0  0  0  0  0  0  0
   -2.3426   -0.0297   -0.8254 C   0  0  0  0  0  0  0  0  0  0  0  0
   -0.1699    1.4477    1.4316 N   0  0  0  0  0  0  0  0  0  0  0  0
   -0.4725    4.0847   -0.3082 H   0  0  0  0  0  0  0  0  0  0  0  0
    2.1855    0.6691    1.8112 H   0  0  0  0  0  0  0  0  0  0  0  0
    4.3372   -0.4083    1.3551 H   0  0  0  0  0  0  0  0  0  0  0  0
    4.7324   -1.5764   -0.7950 H   0  0  0  0  0  0  0  0  0  0  0  0
    2.9393   -1.6568   -2.5069 H   0  0  0  0  0  0  0  0  0  0  0  0
    0.7665   -0.5874   -2.0836 H   0  0  0  0  0  0  0  0  0  0  0  0
   -0.4307   -1.5502    1.5494 H   0  0  0  0  0  0  0  0  0  0  0  0
   -2.2848   -3.1611    1.4589 H   0  0  0  0  0  0  0  0  0  0  0  0
   -4.1882   -2.7947   -0.0879 H   0  0  0  0  0  0  0  0  0  0  0  0
   -4.2233   -0.7951   -1.5511 H   0  0  0  0  0  0  0  0  0  0  0  0
   -2.4030    0.8288   -1.4910 H   0  0  0  0  0  0  0  0  0  0  0  0
   -0.2930    0.9731    2.3137 H   0  0  0  0  0  0  0  0  0  0  0  0
  1  2  2  0
  2  3  1  0
  3  4  1  0
  4  5  2  0
  4  6  1  0
  6  7  1  0
  7  8  2  0
  8  9  1  0
  9 10  2  0
 10 11  1  0
 11 12  2  0
  6 13  1  0
 13 14  2  0
 14 15  1  0
 15 16  2  0
 16 17  1  0
 17 18  2  0
  6 19  1  0
 19  2  1  0
 12  7  1  0
 18 13  1  0
  3 20  1  0
  8 21  1  0
  9 22  1  0
 10 23  1  0
 11 24  1  0
 12 25  1  0
 14 26  1  0
 15 27  1  0
 16 28  1  0
 17 29  1  0
 18 30  1  0
 19 31  1  0
M  END
$$$$
