
     RDKit          3D

 30 32  0  0  0  0  0  0  0  0999 V2000
   -3.7710   -2.8473    0.0492 O   0  0  0  0  0  0  0  0  0  0  0  0
   -3.0096   -1.8881    0.0061 C   0  0  0  0  0  0  0  0  0  0  0  0
   -1.6486   -2.0264   -0.0140 N   0  0  0  0  0  0  0  0  0  0  0  0
   -0.9002   -0.9778   -0.0596 C   0  0  0  0  0  0  0  0  0  0  0  0
    0.5779   -1.0809   -0.0829 C   0  0  0  0  0  0  0  0  0  0  0  0
    1.4111   -0.0288   -0.1302 C   0  0  0  0  0  0  0  0  0  0  0  0
    2.8859   -0.0895   -0.1547 C   0  0  0  0  0  0  0  0  0  0  0  0
    3.6170   -1.2862   -0.1312 C   0  0  0  0  0  0  0  0  0  0  0  0
    5.0168   -1.2743   -0.1566 C   0  0  0  0  0  0  0  0  0  0  0  0
    5.6995   -0.0628   -0.2059 C   0  0  0  0  0  0  0  0  0  0  0  0
    7.5886   -0.0472   -0.2402 Br  0  0  0  0  0  0  0  0  0  0  0  0
    4.9960    1.1367   -0.2300 C   0  0  0  0  0  0  0  0  0  0  0  0
    3.5974    1.1208   -0.2045 C   0  0  0  0  0  0  0  0  0  0  0  0
   -1.3204    0.3353   -0.0925 O   0  0  0  0  0  0  0  0  0  0  0  0
   -2.6988    0.5318   -0.0739 C   0  0  0  0  0  0  0  0  0  0  0  0
   -3.1676    1.8436   -0.1058 C   0  0  0  0  0  0  0  0  0  0  0  0
   -4.5435    2.0789   -0.0884 C   0  0  0  0  0  0  0  0  0  0  0  0
   -5.4386    1.0067   -0.0394 C   0  0  0  0  0  0  0  0  0  0  0  0
   -4.9589   -0.3044   -0.0077 C   0  0  0  0  0  0  0  0  0  0  0  0
   -3.5803   -0.5342   -0.0253 C   0  0  0  0  0  0  0  0  0  0  0  0
    0.9329   -2.1048   -0.0576 H   0  0  0  0  0  0  0  0  0  0  0  0
    0.9992    0.9782   -0.1539 H   0  0  0  0  0  0  0  0  0  0  0  0
    3.1222   -2.2525   -0.0928 H   0  0  0  0  0  0  0  0  0  0  0  0
    5.5597   -2.2159   -0.1375 H   0  0  0  0  0  0  0  0  0  0  0  0
    5.5209    2.0876   -0.2686 H   0  0  0  0  0  0  0  0  0  0  0  0
    3.0709    2.0731   -0.2243 H   0  0  0  0  0  0  0  0  0  0  0  0
   -2.4717    2.6768   -0.1438 H   0  0  0  0  0  0  0  0  0  0  0  0
   -4.9209    3.0988   -0.1130 H   0  0  0  0  0  0  0  0  0  0  0  0
   -6.5104    1.1925   -0.0259 H   0  0  0  0  0  0  0  0  0  0  0  0
   -5.6552   -1.1396    0.0304 H   0  0  0  0  0  0  0  0  0  0  0  0
  1  2  2  0
  2  3  1  0
  3  4  2  0
  4  5  1  0
  5  6  2  0
  6  7  1  0
  7  8  2  0
  8  9  1  0
  9 10  2  0
 10 11  1  0
 10 12  1  0
 12 13  2  0
  4 14  1  0
 14 15  1  0
 15 16  2  0
 16 17  1  0
 17 18  2  0
 18 19  1  0
 19 20  2  0
 20  2  1  0
 13  7  1  0
 20 15  1  0
  5 21  1  0
  6 22  1  0
  8 23  1  0
  9 24  1  0
 12 25  1  0
 13 26  1  0
 16 27  1  0
 17 28  1  0
 18 29  1  0
 19 30  1  0
M  END
$$$$
