
     RDKit          3D

  6  4  0  0  0  0  0  0  0  0999 V2000
   -0.1488    1.1466   -0.4344 O   0  0  0  0  0  0  0  0  0  0  0  0
   -0.3775   -0.0381   -0.0907 C   0  0  0  0  0  0  0  0  0  0  0  0
   -1.4185   -0.7305   -0.1391 O   0  0  0  0  0  1  0  0  0  0  0  0
    0.7166   -0.6003    0.4029 O   0  0  0  0  0  0  0  0  0  0  0  0
    0.0000    0.0000    0.0000 Na  0  0  0  0  0 15  0  0  0  0  0  0
    1.2282    0.2222    0.2613 H   0  0  0  0  0  0  0  0  0  0  0  0
  1  2  2  0
  2  3  1  0
  2  4  1  0
  4  6  1  0
M  CHG  2   3  -1   5   1
M  END
$$$$
