
     RDKit          3D

 43 45  0  0  0  0  0  0  0  0999 V2000
    0.7437    4.6468   -0.6793 C   0  0  0  0  0  0  0  0  0  0  0  0
   -0.0178    3.4287   -0.4244 N   0  0  0  0  0  0  0  0  0  0  0  0
   -1.3849    3.4441   -0.6818 C   0  0  0  0  0  0  0  0  0  0  0  0
   -1.9986    4.4191   -1.1105 O   0  0  0  0  0  0  0  0  0  0  0  0
   -2.1045    2.1738   -0.4151 C   0  0  0  0  0  0  0  0  0  0  0  0
   -3.4370    2.2216   -0.6295 F   0  0  0  0  0  0  0  0  0  0  0  0
   -1.4894    1.0596    0.0219 C   0  0  0  0  0  0  0  0  0  0  0  0
   -2.1279   -0.1514    0.2744 N   0  0  0  0  0  0  0  0  0  0  0  0
   -3.0922   -0.8485   -0.4917 C   0  0  0  0  0  0  0  0  0  0  0  0
   -3.5573   -0.4357   -1.7442 C   0  0  0  0  0  0  0  0  0  0  0  0
   -4.5512   -1.1590   -2.4185 C   0  0  0  0  0  0  0  0  0  0  0  0
   -5.0987   -2.3036   -1.8404 C   0  0  0  0  0  0  0  0  0  0  0  0
   -6.5708   -3.3690   -2.8456 I   0  0  0  0  0  0  0  0  0  0  0  0
   -4.6614   -2.7336   -0.5936 C   0  0  0  0  0  0  0  0  0  0  0  0
   -3.6736   -2.0043    0.0636 C   0  0  0  0  0  0  0  0  0  0  0  0
   -3.2606   -2.4324    1.2679 F   0  0  0  0  0  0  0  0  0  0  0  0
   -0.0546    1.1776    0.3300 C   0  0  0  0  0  0  0  0  0  0  0  0
    0.7209    0.0467    0.9248 C   0  0  0  0  0  0  0  0  0  0  0  0
    0.1845   -1.0364    1.1648 O   0  0  0  0  0  0  0  0  0  0  0  0
    2.0501    0.2831    1.1941 N   0  0  0  0  0  0  0  0  0  0  0  0
    2.8709   -0.7956    1.7432 C   0  0  0  0  0  0  0  0  0  0  0  0
    3.4323   -1.6976    0.6346 C   0  0  1  0  0  0  0  0  0  0  0  0
    4.4364   -0.9894   -0.1157 O   0  0  0  0  0  0  0  0  0  0  0  0
    4.0602   -2.9717    1.2082 C   0  0  0  0  0  0  0  0  0  0  0  0
    4.5958   -3.7697    0.1549 O   0  0  0  0  0  0  0  0  0  0  0  0
    2.6163    1.4740    0.8448 C   0  0  0  0  0  0  0  0  0  0  0  0
    1.9774    2.4645    0.3290 N   0  0  0  0  0  0  0  0  0  0  0  0
    0.6347    2.3126    0.0927 C   0  0  0  0  0  0  0  0  0  0  0  0
    1.1611    5.0160    0.2633 H   0  0  0  0  0  0  0  0  0  0  0  0
    0.1208    5.4372   -1.1072 H   0  0  0  0  0  0  0  0  0  0  0  0
    1.5494    4.4309   -1.3886 H   0  0  0  0  0  0  0  0  0  0  0  0
   -1.5723   -0.8155    0.8316 H   0  0  0  0  0  0  0  0  0  0  0  0
   -3.1500    0.4425   -2.2354 H   0  0  0  0  0  0  0  0  0  0  0  0
   -4.8855   -0.8104   -3.3932 H   0  0  0  0  0  0  0  0  0  0  0  0
   -5.0683   -3.6183   -0.1156 H   0  0  0  0  0  0  0  0  0  0  0  0
    3.6944   -0.3437    2.3091 H   0  0  0  0  0  0  0  0  0  0  0  0
    2.2600   -1.3831    2.4379 H   0  0  0  0  0  0  0  0  0  0  0  0
    2.6508   -1.9698   -0.0835 H   0  0  0  0  0  0  0  0  0  0  0  0
    5.2453   -0.9303    0.4244 H   0  0  0  0  0  0  0  0  0  0  0  0
    3.3243   -3.5694    1.7540 H   0  0  0  0  0  0  0  0  0  0  0  0
    4.8882   -2.7297    1.8824 H   0  0  0  0  0  0  0  0  0  0  0  0
    4.8421   -3.1660   -0.5725 H   0  0  0  0  0  0  0  0  0  0  0  0
    3.6968    1.5552    1.0440 H   0  0  0  0  0  0  0  0  0  0  0  0
  1  2  1  0
  2  3  1  0
  3  4  2  0
  3  5  1  0
  5  6  1  0
  5  7  2  0
  7  8  1  0
  8  9  1  0
  9 10  2  0
 10 11  1  0
 11 12  2  0
 12 13  1  0
 12 14  1  0
 14 15  2  0
 15 16  1  0
  7 17  1  0
 17 18  1  0
 18 19  2  0
 18 20  1  0
 20 21  1  0
 21 22  1  0
 22 23  1  0
 22 24  1  0
 24 25  1  0
 20 26  1  0
 26 27  2  0
 27 28  1  0
 28  2  1  0
 15  9  1  0
 28 17  2  0
  1 29  1  0
  1 30  1  0
  1 31  1  0
  8 32  1  0
 10 33  1  0
 11 34  1  0
 14 35  1  0
 21 36  1  0
 21 37  1  0
 22 38  1  6
 23 39  1  0
 24 40  1  0
 24 41  1  0
 25 42  1  0
 26 43  1  0
M  END
$$$$
