
     RDKit          3D

 61 64  0  0  0  0  0  0  0  0999 V2000
    2.3037    2.8803   -0.8800 C   0  0  0  0  0  0  0  0  0  0  0  0
    3.3073    1.7691   -1.1580 C   0  0  0  0  0  0  0  0  0  0  0  0
    3.1631    0.7003   -0.1427 N   0  0  0  0  0  0  0  0  0  0  0  0
    4.4281    0.5036    0.4874 C   0  0  0  0  0  0  0  0  0  0  0  0
    4.8754    1.4061    1.4604 C   0  0  0  0  0  0  0  0  0  0  0  0
    6.1272    1.2397    2.0604 C   0  0  0  0  0  0  0  0  0  0  0  0
    6.9502    0.1750    1.6890 C   0  0  0  0  0  0  0  0  0  0  0  0
    6.5232   -0.7296    0.7179 C   0  0  0  0  0  0  0  0  0  0  0  0
    5.2677   -0.5612    0.1279 C   0  0  0  0  0  0  0  0  0  0  0  0
    4.7936   -1.4888   -0.9159 C   0  0  0  0  0  0  0  0  0  0  0  0
    5.5046   -2.3651   -1.3910 O   0  0  0  0  0  0  0  0  0  0  0  0
    3.4988   -1.3163   -1.3326 N   0  0  0  0  0  0  0  0  0  0  0  0
    2.5257   -0.5925   -0.5335 C   0  0  0  0  0  0  0  0  0  0  0  0
    1.2417   -0.3865   -1.3785 C   0  0  0  0  0  0  0  0  0  0  0  0
    0.0051   -0.2288   -0.5044 C   0  0  0  0  0  0  0  0  0  0  0  0
   -0.2369   -1.4437    0.2743 N   0  0  0  0  0  0  0  0  0  0  0  0
   -1.4971   -1.9852    0.5228 C   0  0  0  0  0  0  0  0  0  0  0  0
   -1.6745   -3.1394    0.9027 O   0  0  0  0  0  0  0  0  0  0  0  0
   -2.6902   -1.1360    0.3122 C   0  0  0  0  0  0  0  0  0  0  0  0
   -3.7197   -1.6163   -0.5118 C   0  0  0  0  0  0  0  0  0  0  0  0
   -4.8572   -0.8369   -0.7354 C   0  0  0  0  0  0  0  0  0  0  0  0
   -5.9100   -1.1973   -1.5346 O   0  0  0  0  0  0  0  0  0  0  0  0
   -5.7832   -2.3998   -2.2810 C   0  0  0  0  0  0  0  0  0  0  0  0
   -4.9585    0.4135   -0.0999 C   0  0  0  0  0  0  0  0  0  0  0  0
   -6.0517    1.2174   -0.3203 O   0  0  0  0  0  0  0  0  0  0  0  0
   -7.0847    0.8925    0.6081 C   0  0  0  0  0  0  0  0  0  0  0  0
   -3.9187    0.8886    0.7123 C   0  0  0  0  0  0  0  0  0  0  0  0
   -4.0026    2.0953    1.3576 O   0  0  0  0  0  0  0  0  0  0  0  0
   -3.6733    3.1596    0.4600 C   0  0  0  0  0  0  0  0  0  0  0  0
   -2.7968    0.1023    0.9495 C   0  0  0  0  0  0  0  0  0  0  0  0
    0.9318   -2.2472    0.6140 C   0  0  0  0  0  0  0  0  0  0  0  0
    2.1722   -1.3788    0.7726 C   0  0  0  0  0  0  0  0  0  0  0  0
    1.2732    2.5151   -0.9017 H   0  0  0  0  0  0  0  0  0  0  0  0
    2.4772    3.3257    0.1054 H   0  0  0  0  0  0  0  0  0  0  0  0
    2.3978    3.6712   -1.6302 H   0  0  0  0  0  0  0  0  0  0  0  0
    3.1808    1.3805   -2.1741 H   0  0  0  0  0  0  0  0  0  0  0  0
    4.3094    2.2206   -1.1533 H   0  0  0  0  0  0  0  0  0  0  0  0
    4.2423    2.2375    1.7593 H   0  0  0  0  0  0  0  0  0  0  0  0
    6.4611    1.9438    2.8191 H   0  0  0  0  0  0  0  0  0  0  0  0
    7.9253    0.0523    2.1551 H   0  0  0  0  0  0  0  0  0  0  0  0
    7.1630   -1.5568    0.4187 H   0  0  0  0  0  0  0  0  0  0  0  0
    3.1813   -2.0653   -1.9323 H   0  0  0  0  0  0  0  0  0  0  0  0
    1.0847   -1.2633   -2.0246 H   0  0  0  0  0  0  0  0  0  0  0  0
    1.3083    0.4572   -2.0689 H   0  0  0  0  0  0  0  0  0  0  0  0
    0.1259    0.6026    0.1985 H   0  0  0  0  0  0  0  0  0  0  0  0
   -0.8569   -0.0125   -1.1421 H   0  0  0  0  0  0  0  0  0  0  0  0
   -3.6018   -2.5998   -0.9574 H   0  0  0  0  0  0  0  0  0  0  0  0
   -6.6742   -2.4989   -2.9091 H   0  0  0  0  0  0  0  0  0  0  0  0
   -5.7458   -3.2721   -1.6221 H   0  0  0  0  0  0  0  0  0  0  0  0
   -4.9121   -2.3668   -2.9442 H   0  0  0  0  0  0  0  0  0  0  0  0
   -7.8868    1.6263    0.4856 H   0  0  0  0  0  0  0  0  0  0  0  0
   -6.7331    0.9510    1.6442 H   0  0  0  0  0  0  0  0  0  0  0  0
   -7.4992   -0.0995    0.4035 H   0  0  0  0  0  0  0  0  0  0  0  0
   -3.8248    4.1027    0.9928 H   0  0  0  0  0  0  0  0  0  0  0  0
   -4.3151    3.1702   -0.4281 H   0  0  0  0  0  0  0  0  0  0  0  0
   -2.6164    3.1024    0.1686 H   0  0  0  0  0  0  0  0  0  0  0  0
   -2.0200    0.4514    1.6238 H   0  0  0  0  0  0  0  0  0  0  0  0
    1.0736   -2.9928   -0.1785 H   0  0  0  0  0  0  0  0  0  0  0  0
    0.7347   -2.7948    1.5430 H   0  0  0  0  0  0  0  0  0  0  0  0
    1.9804   -0.6689    1.5906 H   0  0  0  0  0  0  0  0  0  0  0  0
    3.0030   -2.0131    1.1044 H   0  0  0  0  0  0  0  0  0  0  0  0
  1  2  1  0
  2  3  1  0
  3  4  1  0
  4  5  2  0
  5  6  1  0
  6  7  2  0
  7  8  1  0
  8  9  2  0
  9 10  1  0
 10 11  2  0
 10 12  1  0
 12 13  1  0
 13 14  1  0
 14 15  1  0
 15 16  1  0
 16 17  1  0
 17 18  2  0
 17 19  1  0
 19 20  2  0
 20 21  1  0
 21 22  1  0
 22 23  1  0
 21 24  2  0
 24 25  1  0
 25 26  1  0
 24 27  1  0
 27 28  1  0
 28 29  1  0
 27 30  2  0
 16 31  1  0
 31 32  1  0
 13  3  1  0
 30 19  1  0
  9  4  1  0
 32 13  1  0
  1 33  1  0
  1 34  1  0
  1 35  1  0
  2 36  1  0
  2 37  1  0
  5 38  1  0
  6 39  1  0
  7 40  1  0
  8 41  1  0
 12 42  1  0
 14 43  1  0
 14 44  1  0
 15 45  1  0
 15 46  1  0
 20 47  1  0
 23 48  1  0
 23 49  1  0
 23 50  1  0
 26 51  1  0
 26 52  1  0
 26 53  1  0
 29 54  1  0
 29 55  1  0
 29 56  1  0
 30 57  1  0
 31 58  1  0
 31 59  1  0
 32 60  1  0
 32 61  1  0
M  END
$$$$
