
     RDKit          3D

 39 40  0  0  0  0  0  0  0  0999 V2000
    1.2771   -1.3439   -2.0868 O   0  0  0  0  0  0  0  0  0  0  0  0
    1.1412   -0.6920   -1.0581 C   0  0  0  0  0  0  0  0  0  0  0  0
   -0.1857   -0.6031   -0.3291 C   0  0  0  0  0  0  0  0  0  0  0  0
   -1.3225   -1.1616   -1.1754 C   0  0  0  0  0  0  0  0  0  0  0  0
   -2.5919   -1.1666   -0.4674 N   0  0  0  0  0  0  0  0  0  0  0  0
   -3.2958   -0.0081   -0.2247 C   0  0  0  0  0  0  0  0  0  0  0  0
   -2.8314    1.1058   -0.4497 O   0  0  0  0  0  0  0  0  0  0  0  0
   -4.6484   -0.1331    0.3924 C   0  0  0  0  0  0  0  0  0  0  0  0
   -5.0540    0.9432    1.2043 C   0  0  0  0  0  0  0  0  0  0  0  0
   -6.2958    0.9359    1.8425 C   0  0  0  0  0  0  0  0  0  0  0  0
   -7.1543   -0.1449    1.6732 C   0  0  0  0  0  0  0  0  0  0  0  0
   -6.7733   -1.2125    0.8601 C   0  0  0  0  0  0  0  0  0  0  0  0
   -5.5278   -1.2111    0.2152 C   0  0  0  0  0  0  0  0  0  0  0  0
   -5.1957   -2.5671   -0.8058 Cl  0  0  0  0  0  0  0  0  0  0  0  0
    2.1348    0.0122   -0.3939 N   0  0  0  0  0  0  0  0  0  0  0  0
    3.4895    0.1394   -0.7612 C   0  0  0  0  0  0  0  0  0  0  0  0
    4.0556   -0.4636   -1.8821 C   0  0  0  0  0  0  0  0  0  0  0  0
    5.4120   -0.2853   -2.1726 C   0  0  0  0  0  0  0  0  0  0  0  0
    6.2186    0.4981   -1.3449 C   0  0  0  0  0  0  0  0  0  0  0  0
    7.8812    0.6658   -1.7742 Cl  0  0  0  0  0  0  0  0  0  0  0  0
    5.6761    1.1143   -0.2139 C   0  0  0  0  0  0  0  0  0  0  0  0
    6.5173    1.9640    0.6985 C   0  0  0  0  0  0  0  0  0  0  0  0
    7.0629    3.0432    0.0746 F   0  0  0  0  0  0  0  0  0  0  0  0
    5.8076    2.4771    1.7472 F   0  0  0  0  0  0  0  0  0  0  0  0
    7.5481    1.2807    1.2666 F   0  0  0  0  0  0  0  0  0  0  0  0
    4.3056    0.9245    0.0648 C   0  0  0  0  0  0  0  0  0  0  0  0
   -0.3774    0.4441   -0.0708 H   0  0  0  0  0  0  0  0  0  0  0  0
   -0.1007   -1.1683    0.6067 H   0  0  0  0  0  0  0  0  0  0  0  0
   -1.4427   -0.5757   -2.0942 H   0  0  0  0  0  0  0  0  0  0  0  0
   -1.1190   -2.1987   -1.4640 H   0  0  0  0  0  0  0  0  0  0  0  0
   -3.0690   -2.0557   -0.3692 H   0  0  0  0  0  0  0  0  0  0  0  0
   -4.3943    1.7990    1.3444 H   0  0  0  0  0  0  0  0  0  0  0  0
   -6.5903    1.7762    2.4673 H   0  0  0  0  0  0  0  0  0  0  0  0
   -8.1241   -0.1535    2.1655 H   0  0  0  0  0  0  0  0  0  0  0  0
   -7.4614   -2.0445    0.7241 H   0  0  0  0  0  0  0  0  0  0  0  0
    1.8475    0.5104    0.4406 H   0  0  0  0  0  0  0  0  0  0  0  0
    3.4721   -1.0819   -2.5577 H   0  0  0  0  0  0  0  0  0  0  0  0
    5.8301   -0.7664   -3.0546 H   0  0  0  0  0  0  0  0  0  0  0  0
    3.8781    1.4040    0.9451 H   0  0  0  0  0  0  0  0  0  0  0  0
  1  2  2  0
  2  3  1  0
  3  4  1  0
  4  5  1  0
  5  6  1  0
  6  7  2  0
  6  8  1  0
  8  9  2  0
  9 10  1  0
 10 11  2  0
 11 12  1  0
 12 13  2  0
 13 14  1  0
  2 15  1  0
 15 16  1  0
 16 17  2  0
 17 18  1  0
 18 19  2  0
 19 20  1  0
 19 21  1  0
 21 22  1  0
 22 23  1  0
 22 24  1  0
 22 25  1  0
 21 26  2  0
 13  8  1  0
 26 16  1  0
  3 27  1  0
  3 28  1  0
  4 29  1  0
  4 30  1  0
  5 31  1  0
  9 32  1  0
 10 33  1  0
 11 34  1  0
 12 35  1  0
 15 36  1  0
 17 37  1  0
 18 38  1  0
 26 39  1  0
M  END
$$$$
