
     RDKit          3D

 57 56  0  0  0  0  0  0  0  0999 V2000
   -5.6393   -4.0585   -1.4451 C   0  0  0  0  0  0  0  0  0  0  0  0
   -4.8370   -3.5679   -0.3567 N   0  0  0  0  0  0  0  0  0  0  0  0
   -5.1029   -3.9772    0.9995 C   0  0  0  0  0  0  0  0  0  0  0  0
   -3.7776   -2.6773   -0.6107 C   0  0  0  0  0  0  0  0  0  0  0  0
   -3.5408   -2.3172   -1.7891 O   0  0  0  0  0  0  0  0  0  0  0  0
   -2.9789   -2.1801    0.4123 O   0  0  0  0  0  0  0  0  0  0  0  0
   -1.9446   -1.3048    0.1247 C   0  0  0  0  0  0  0  0  0  0  0  0
   -2.1556    0.0546    0.1062 C   0  0  0  0  0  0  0  0  0  0  0  0
   -1.1105    0.9048   -0.1828 C   0  0  0  0  0  0  0  0  0  0  0  0
   -1.2051    2.2718   -0.2289 O   0  0  0  0  0  0  0  0  0  0  0  0
   -1.0053    3.1145    0.8386 C   0  0  0  0  0  0  0  0  0  0  0  0
   -0.7142    2.6117    1.9456 O   0  0  0  0  0  0  0  0  0  0  0  0
   -1.1382    4.5077    0.6348 N   0  0  0  0  0  0  0  0  0  0  0  0
   -0.9261    5.3853    1.7657 C   0  0  0  0  0  0  0  0  0  0  0  0
   -1.4732    5.0964   -0.6406 C   0  0  0  0  0  0  0  0  0  0  0  0
    0.1414    0.3522   -0.4501 C   0  0  0  0  0  0  0  0  0  0  0  0
    0.3940   -0.9826   -0.4426 C   0  0  0  0  0  0  0  0  0  0  0  0
    1.6834   -1.6457   -0.7130 C   0  0  0  0  0  0  0  0  0  0  0  0
    1.3385   -2.7205   -1.5900 O   0  0  0  0  0  0  0  0  0  0  0  0
    2.6730   -0.8342   -1.4607 C   0  0  0  0  0  0  0  0  0  0  0  0
    3.2213    0.3055   -0.8542 N   0  0  0  0  0  0  0  0  0  0  0  0
    4.0953    0.2067    0.2321 C   0  0  0  0  0  0  0  0  0  0  0  0
    5.3859   -0.5276   -0.0320 C   0  0  0  0  0  0  0  0  0  0  0  0
    3.4381   -0.3265    1.4810 C   0  0  0  0  0  0  0  0  0  0  0  0
    4.5349    1.6485    0.5830 C   0  0  0  0  0  0  0  0  0  0  0  0
   -0.6948   -1.8162   -0.1442 C   0  0  0  0  0  0  0  0  0  0  0  0
    0.6859    0.0000    0.0000 Cl  0  0  0  0  0  0  0  0  0  0  0  0
   -6.4325   -4.7556   -1.0896 H   0  0  0  0  0  0  0  0  0  0  0  0
   -4.9772   -4.5458   -2.2117 H   0  0  0  0  0  0  0  0  0  0  0  0
   -6.1216   -3.1763   -1.9313 H   0  0  0  0  0  0  0  0  0  0  0  0
   -5.2484   -3.0416    1.6017 H   0  0  0  0  0  0  0  0  0  0  0  0
   -4.1999   -4.4817    1.4068 H   0  0  0  0  0  0  0  0  0  0  0  0
   -6.0114   -4.6129    1.0814 H   0  0  0  0  0  0  0  0  0  0  0  0
   -3.1467    0.4889    0.3179 H   0  0  0  0  0  0  0  0  0  0  0  0
   -1.3183    4.9479    2.7092 H   0  0  0  0  0  0  0  0  0  0  0  0
   -1.4559    6.3588    1.6339 H   0  0  0  0  0  0  0  0  0  0  0  0
    0.1707    5.5421    1.8564 H   0  0  0  0  0  0  0  0  0  0  0  0
   -2.5675    5.1449   -0.7902 H   0  0  0  0  0  0  0  0  0  0  0  0
   -1.0616    6.1179   -0.7647 H   0  0  0  0  0  0  0  0  0  0  0  0
   -1.0611    4.4926   -1.4833 H   0  0  0  0  0  0  0  0  0  0  0  0
    0.9883    1.0178   -0.6844 H   0  0  0  0  0  0  0  0  0  0  0  0
    2.0294   -2.1213    0.2078 H   0  0  0  0  0  0  0  0  0  0  0  0
    1.9526   -3.4786   -1.4599 H   0  0  0  0  0  0  0  0  0  0  0  0
    2.1508   -0.4778   -2.4046 H   0  0  0  0  0  0  0  0  0  0  0  0
    3.4965   -1.4765   -1.9025 H   0  0  0  0  0  0  0  0  0  0  0  0
    3.5843    0.9536   -1.5904 H   0  0  0  0  0  0  0  0  0  0  0  0
    6.1317   -0.1928    0.7198 H   0  0  0  0  0  0  0  0  0  0  0  0
    5.8102   -0.3181   -1.0195 H   0  0  0  0  0  0  0  0  0  0  0  0
    5.2643   -1.6303    0.1543 H   0  0  0  0  0  0  0  0  0  0  0  0
    3.7207   -1.3841    1.6991 H   0  0  0  0  0  0  0  0  0  0  0  0
    2.3459   -0.1423    1.5022 H   0  0  0  0  0  0  0  0  0  0  0  0
    3.8131    0.2258    2.3982 H   0  0  0  0  0  0  0  0  0  0  0  0
    5.4865    1.5765    1.1645 H   0  0  0  0  0  0  0  0  0  0  0  0
    3.7493    2.1460    1.1694 H   0  0  0  0  0  0  0  0  0  0  0  0
    4.8041    2.2005   -0.3519 H   0  0  0  0  0  0  0  0  0  0  0  0
   -0.5582   -2.9011   -0.1219 H   0  0  0  0  0  0  0  0  0  0  0  0
   -0.6859    0.0000    0.0000 H   0  0  0  0  0  0  0  0  0  0  0  0
  1  2  1  0
  2  3  1  0
  2  4  1  0
  4  5  2  0
  4  6  1  0
  6  7  1  0
  7  8  2  0
  8  9  1  0
  9 10  1  0
 10 11  1  0
 11 12  2  0
 11 13  1  0
 13 14  1  0
 13 15  1  0
  9 16  2  0
 16 17  1  0
 17 18  1  0
 18 19  1  0
 18 20  1  0
 20 21  1  0
 21 22  1  0
 22 23  1  0
 22 24  1  0
 22 25  1  0
 17 26  2  0
 26  7  1  0
  1 28  1  0
  1 29  1  0
  1 30  1  0
  3 31  1  0
  3 32  1  0
  3 33  1  0
  8 34  1  0
 14 35  1  0
 14 36  1  0
 14 37  1  0
 15 38  1  0
 15 39  1  0
 15 40  1  0
 16 41  1  0
 18 42  1  0
 19 43  1  0
 20 44  1  0
 20 45  1  0
 21 46  1  0
 23 47  1  0
 23 48  1  0
 23 49  1  0
 24 50  1  0
 24 51  1  0
 24 52  1  0
 25 53  1  0
 25 54  1  0
 25 55  1  0
 26 56  1  0
 27 57  1  0
M  END
$$$$
