
     RDKit          3D

 49 52  0  0  0  0  0  0  0  0999 V2000
   -4.9717   -0.7826   -0.4547 C   0  0  0  0  0  0  0  0  0  0  0  0
   -3.4840   -0.4908   -0.2314 C   0  0  0  0  0  0  0  0  0  0  0  0
   -3.2037   -0.4261    1.2714 C   0  0  0  0  0  0  0  0  0  0  0  0
   -1.6820   -0.3360    1.5654 C   0  0  0  0  0  0  0  0  0  0  0  0
   -1.0952   -1.7664    1.4617 C   0  0  0  0  0  0  0  0  0  0  0  0
   -1.5485    0.1523    3.0259 C   0  0  0  0  0  0  0  0  0  0  0  0
   -0.9714    0.5870    0.6226 N   0  0  0  0  0  0  0  0  0  0  0  0
    0.4356    0.6450    0.6691 C   0  0  0  0  0  0  0  0  0  0  0  0
    1.0812    0.3755    1.6869 O   0  0  0  0  0  0  0  0  0  0  0  0
    1.1681    0.9425   -0.6533 C   0  0  0  0  0  0  0  0  0  0  0  0
    2.4523    0.2700   -0.6321 N   0  0  0  0  0  0  0  0  0  0  0  0
    3.6222    0.8619   -0.2479 C   0  0  0  0  0  0  0  0  0  0  0  0
    3.8379    2.0232    0.0418 O   0  0  0  0  0  0  0  0  0  0  0  0
    4.6407   -0.1870   -0.2740 C   0  0  0  0  0  0  0  0  0  0  0  0
    5.9890   -0.1335    0.0198 C   0  0  0  0  0  0  0  0  0  0  0  0
    6.7163   -1.3221   -0.1014 C   0  0  0  0  0  0  0  0  0  0  0  0
    6.0871   -2.5180   -0.5074 C   0  0  0  0  0  0  0  0  0  0  0  0
    4.7195   -2.5462   -0.7994 C   0  0  0  0  0  0  0  0  0  0  0  0
    4.0238   -1.3600   -0.6730 C   0  0  0  0  0  0  0  0  0  0  0  0
    2.6105   -1.0610   -0.8974 C   0  0  0  0  0  0  0  0  0  0  0  0
    1.7785   -1.8757   -1.2486 O   0  0  0  0  0  0  0  0  0  0  0  0
   -1.7498    1.3284   -0.3273 C   0  0  0  0  0  0  0  0  0  0  0  0
   -1.3331    2.5961   -0.7636 C   0  0  0  0  0  0  0  0  0  0  0  0
   -2.0539    3.3023   -1.7269 C   0  0  0  0  0  0  0  0  0  0  0  0
   -3.2149    2.7569   -2.2560 C   0  0  0  0  0  0  0  0  0  0  0  0
   -3.6765    1.5262   -1.7919 C   0  0  0  0  0  0  0  0  0  0  0  0
   -2.9740    0.8160   -0.8023 C   0  0  0  0  0  0  0  0  0  0  0  0
   -5.6050    0.0270   -0.0752 H   0  0  0  0  0  0  0  0  0  0  0  0
   -5.1939   -0.9202   -1.5183 H   0  0  0  0  0  0  0  0  0  0  0  0
   -5.2648   -1.7070    0.0552 H   0  0  0  0  0  0  0  0  0  0  0  0
   -2.9179   -1.3071   -0.6962 H   0  0  0  0  0  0  0  0  0  0  0  0
   -3.6349   -1.2977    1.7815 H   0  0  0  0  0  0  0  0  0  0  0  0
   -3.7165    0.4515    1.6939 H   0  0  0  0  0  0  0  0  0  0  0  0
   -1.6719   -2.4773    2.0645 H   0  0  0  0  0  0  0  0  0  0  0  0
   -1.0931   -2.1241    0.4266 H   0  0  0  0  0  0  0  0  0  0  0  0
   -0.0623   -1.8181    1.8200 H   0  0  0  0  0  0  0  0  0  0  0  0
   -2.1715   -0.4482    3.6992 H   0  0  0  0  0  0  0  0  0  0  0  0
   -1.8642    1.1979    3.1178 H   0  0  0  0  0  0  0  0  0  0  0  0
   -0.5248    0.0860    3.4038 H   0  0  0  0  0  0  0  0  0  0  0  0
    0.5980    0.5571   -1.5035 H   0  0  0  0  0  0  0  0  0  0  0  0
    1.3447    2.0158   -0.7458 H   0  0  0  0  0  0  0  0  0  0  0  0
    6.4586    0.7930    0.3337 H   0  0  0  0  0  0  0  0  0  0  0  0
    7.7817   -1.3269    0.1226 H   0  0  0  0  0  0  0  0  0  0  0  0
    6.6751   -3.4303   -0.5915 H   0  0  0  0  0  0  0  0  0  0  0  0
    4.2217   -3.4590   -1.1097 H   0  0  0  0  0  0  0  0  0  0  0  0
   -0.4688    3.0864   -0.3242 H   0  0  0  0  0  0  0  0  0  0  0  0
   -1.7131    4.2816   -2.0532 H   0  0  0  0  0  0  0  0  0  0  0  0
   -3.7778    3.2993   -3.0115 H   0  0  0  0  0  0  0  0  0  0  0  0
   -4.6035    1.1424   -2.2095 H   0  0  0  0  0  0  0  0  0  0  0  0
  1  2  1  0
  2  3  1  0
  3  4  1  0
  4  5  1  0
  4  6  1  0
  4  7  1  0
  7  8  1  0
  8  9  2  0
  8 10  1  0
 10 11  1  0
 11 12  1  0
 12 13  2  0
 12 14  1  0
 14 15  2  0
 15 16  1  0
 16 17  2  0
 17 18  1  0
 18 19  2  0
 19 20  1  0
 20 21  2  0
  7 22  1  0
 22 23  2  0
 23 24  1  0
 24 25  2  0
 25 26  1  0
 26 27  2  0
 27  2  1  0
 20 11  1  0
 27 22  1  0
 19 14  1  0
  1 28  1  0
  1 29  1  0
  1 30  1  0
  2 31  1  0
  3 32  1  0
  3 33  1  0
  5 34  1  0
  5 35  1  0
  5 36  1  0
  6 37  1  0
  6 38  1  0
  6 39  1  0
 10 40  1  0
 10 41  1  0
 15 42  1  0
 16 43  1  0
 17 44  1  0
 18 45  1  0
 23 46  1  0
 24 47  1  0
 25 48  1  0
 26 49  1  0
M  END
$$$$
