
     RDKit          3D

 30 32  0  0  0  0  0  0  0  0999 V2000
   -2.3617    2.7966    0.4825 N   0  0  0  0  0  0  0  0  0  0  0  0
   -2.3201    1.4442    0.0924 C   0  0  0  0  0  0  0  0  0  0  0  0
   -3.5273    0.7433    0.0388 C   0  0  0  0  0  0  0  0  0  0  0  0
   -3.5447   -0.6281   -0.2077 C   0  0  0  0  0  0  0  0  0  0  0  0
   -2.3542   -1.3520   -0.3201 C   0  0  0  0  0  0  0  0  0  0  0  0
   -2.4446   -2.6982   -0.7118 N   0  0  0  0  0  0  0  0  0  0  0  0
   -1.1252   -0.6581   -0.2389 C   0  0  0  0  0  0  0  0  0  0  0  0
   -1.1077    0.7266   -0.0291 C   0  0  0  0  0  0  0  0  0  0  0  0
    0.1903    1.4505   -0.0194 C   0  0  0  0  0  0  0  0  0  0  0  0
    0.1914    2.6691   -0.1671 O   0  0  0  0  0  0  0  0  0  0  0  0
    1.4580    0.6913    0.1001 C   0  0  0  0  0  0  0  0  0  0  0  0
    2.6864    1.3268    0.3610 C   0  0  0  0  0  0  0  0  0  0  0  0
    2.7453    2.6715    0.5939 O   0  0  0  0  0  0  0  0  0  0  0  0
    3.8760    0.5963    0.4174 C   0  0  0  0  0  0  0  0  0  0  0  0
    3.8515   -0.7796    0.2174 C   0  0  0  0  0  0  0  0  0  0  0  0
    2.6404   -1.4186   -0.0259 C   0  0  0  0  0  0  0  0  0  0  0  0
    2.7108   -2.7754   -0.1993 O   0  0  0  0  0  0  0  0  0  0  0  0
    1.4374   -0.6923   -0.0800 C   0  0  0  0  0  0  0  0  0  0  0  0
    0.1598   -1.3953   -0.3053 C   0  0  0  0  0  0  0  0  0  0  0  0
    0.1915   -2.6115   -0.4931 O   0  0  0  0  0  0  0  0  0  0  0  0
   -1.4765    3.2755    0.2623 H   0  0  0  0  0  0  0  0  0  0  0  0
   -3.1632    3.3122    0.1357 H   0  0  0  0  0  0  0  0  0  0  0  0
   -4.4704    1.2671    0.1767 H   0  0  0  0  0  0  0  0  0  0  0  0
   -4.5035   -1.1325   -0.3057 H   0  0  0  0  0  0  0  0  0  0  0  0
   -1.5624   -3.2077   -0.5927 H   0  0  0  0  0  0  0  0  0  0  0  0
   -3.2449   -3.2040   -0.3483 H   0  0  0  0  0  0  0  0  0  0  0  0
    3.6671    2.9660    0.6664 H   0  0  0  0  0  0  0  0  0  0  0  0
    4.8269    1.0809    0.6214 H   0  0  0  0  0  0  0  0  0  0  0  0
    4.7715   -1.3577    0.2586 H   0  0  0  0  0  0  0  0  0  0  0  0
    1.8019   -3.1072   -0.3800 H   0  0  0  0  0  0  0  0  0  0  0  0
  1  2  1  0
  2  3  2  0
  3  4  1  0
  4  5  2  0
  5  6  1  0
  5  7  1  0
  7  8  2  0
  8  9  1  0
  9 10  2  0
  9 11  1  0
 11 12  2  0
 12 13  1  0
 12 14  1  0
 14 15  2  0
 15 16  1  0
 16 17  1  0
 16 18  2  0
 18 19  1  0
 19 20  2  0
  8  2  1  0
 18 11  1  0
 19  7  1  0
  1 21  1  0
  1 22  1  0
  3 23  1  0
  4 24  1  0
  6 25  1  0
  6 26  1  0
 13 27  1  0
 14 28  1  0
 15 29  1  0
 17 30  1  0
M  END
$$$$
