
     RDKit          3D

 61 65  0  0  0  0  0  0  0  0999 V2000
   -2.8264    4.2627    1.4725 C   0  0  0  0  0  0  0  0  0  0  0  0
   -1.7065    3.9018    0.5299 C   0  0  0  0  0  0  0  0  0  0  0  0
   -1.3560    4.6011   -0.4178 O   0  0  0  0  0  0  0  0  0  0  0  0
   -0.9416    2.3520    0.8661 S   0  0  0  0  0  0  0  0  0  0  0  0
   -0.9744    1.6290   -0.8224 C   0  0  0  0  0  0  0  0  0  0  0  0
   -2.4319    1.3209   -1.2340 C   0  0  0  0  0  0  0  0  0  0  0  0
   -3.0394    0.1551   -0.4732 C   0  0  0  0  0  0  0  0  0  0  0  0
   -4.2097    0.3130    0.1709 C   0  0  0  0  0  0  0  0  0  0  0  0
   -4.8818   -0.8182    0.8541 C   0  0  0  0  0  0  0  0  0  0  0  0
   -5.8812   -0.6055    1.5341 O   0  0  0  0  0  0  0  0  0  0  0  0
   -4.3316   -2.1995    0.6268 C   0  0  0  0  0  0  0  0  0  0  0  0
   -2.8108   -2.1454    0.5924 C   0  0  0  0  0  0  0  0  0  0  0  0
   -2.2420   -1.1593   -0.4793 C   0  0  0  0  0  0  0  0  0  0  0  0
   -2.3866   -1.8121   -1.8740 C   0  0  0  0  0  0  0  0  0  0  0  0
   -0.7354   -0.8490   -0.1175 C   0  0  0  0  0  0  0  0  0  0  0  0
    0.2057   -2.0691   -0.1771 C   0  0  0  0  0  0  0  0  0  0  0  0
    1.6565   -1.8086    0.2938 C   0  0  0  0  0  0  0  0  0  0  0  0
    2.0926   -0.3252    0.3144 C   0  0  0  0  0  0  0  0  0  0  0  0
    1.7866    0.2775    1.7053 C   0  0  0  0  0  0  0  0  0  0  0  0
    1.3968    0.3992   -0.8671 C   0  0  0  0  0  0  0  0  0  0  0  0
    2.1317    1.7269   -1.0176 C   0  0  0  0  0  0  0  0  0  0  0  0
    3.5582    1.4538   -0.5022 C   0  0  0  0  0  0  0  0  0  0  0  0
    3.5925   -0.0249   -0.0575 C   0  0  0  0  0  0  0  0  0  0  0  0
    4.6840   -0.2992    0.9626 C   0  0  0  0  0  0  0  0  0  0  0  0
    5.0752   -1.7293    0.6829 C   0  0  0  0  0  0  0  0  0  0  0  0
    4.8253   -1.8295   -0.7871 C   0  0  0  0  0  0  0  0  0  0  0  0
    5.2439   -2.7092   -1.5201 O   0  0  0  0  0  0  0  0  0  0  0  0
    4.0059   -0.8132   -1.1927 O   0  0  0  0  0  0  0  0  0  0  0  0
   -0.1454    0.3256   -0.9564 C   0  0  0  0  0  0  0  0  0  0  0  0
   -2.9186    5.3538    1.5039 H   0  0  0  0  0  0  0  0  0  0  0  0
   -2.6119    3.9125    2.5014 H   0  0  0  0  0  0  0  0  0  0  0  0
   -3.7741    3.8210    1.1199 H   0  0  0  0  0  0  0  0  0  0  0  0
   -0.5688    2.3692   -1.5186 H   0  0  0  0  0  0  0  0  0  0  0  0
   -3.0583    2.2153   -1.1489 H   0  0  0  0  0  0  0  0  0  0  0  0
   -2.4552    1.0789   -2.3040 H   0  0  0  0  0  0  0  0  0  0  0  0
   -4.7489    1.2514    0.1959 H   0  0  0  0  0  0  0  0  0  0  0  0
   -4.6554   -2.8421    1.4551 H   0  0  0  0  0  0  0  0  0  0  0  0
   -4.7532   -2.5988   -0.3027 H   0  0  0  0  0  0  0  0  0  0  0  0
   -2.4642   -1.8447    1.5922 H   0  0  0  0  0  0  0  0  0  0  0  0
   -2.4292   -3.1615    0.4261 H   0  0  0  0  0  0  0  0  0  0  0  0
   -1.9641   -2.8219   -1.8881 H   0  0  0  0  0  0  0  0  0  0  0  0
   -1.8845   -1.2415   -2.6630 H   0  0  0  0  0  0  0  0  0  0  0  0
   -3.4379   -1.8951   -2.1709 H   0  0  0  0  0  0  0  0  0  0  0  0
   -0.7590   -0.5336    0.9291 H   0  0  0  0  0  0  0  0  0  0  0  0
   -0.1943   -2.8964    0.4187 H   0  0  0  0  0  0  0  0  0  0  0  0
    0.2497   -2.4326   -1.2118 H   0  0  0  0  0  0  0  0  0  0  0  0
    1.8003   -2.2538    1.2858 H   0  0  0  0  0  0  0  0  0  0  0  0
    2.2953   -2.3904   -0.3737 H   0  0  0  0  0  0  0  0  0  0  0  0
    2.3261   -0.2647    2.4909 H   0  0  0  0  0  0  0  0  0  0  0  0
    2.0737    1.3325    1.7814 H   0  0  0  0  0  0  0  0  0  0  0  0
    0.7355    0.2100    1.9835 H   0  0  0  0  0  0  0  0  0  0  0  0
    1.7088   -0.1694   -1.7617 H   0  0  0  0  0  0  0  0  0  0  0  0
    1.6895    2.5353   -0.4315 H   0  0  0  0  0  0  0  0  0  0  0  0
    2.1562    2.0616   -2.0592 H   0  0  0  0  0  0  0  0  0  0  0  0
    3.7646    2.1212    0.3425 H   0  0  0  0  0  0  0  0  0  0  0  0
    4.2948    1.6585   -1.2868 H   0  0  0  0  0  0  0  0  0  0  0  0
    4.4112   -0.1283    2.0052 H   0  0  0  0  0  0  0  0  0  0  0  0
    5.5532    0.3372    0.7546 H   0  0  0  0  0  0  0  0  0  0  0  0
    4.4398   -2.4378    1.2146 H   0  0  0  0  0  0  0  0  0  0  0  0
    6.1241   -1.9122    0.9182 H   0  0  0  0  0  0  0  0  0  0  0  0
   -0.2994    0.0450   -2.0117 H   0  0  0  0  0  0  0  0  0  0  0  0
  1  2  1  0
  2  3  2  0
  2  4  1  0
  4  5  1  0
  5  6  1  0
  6  7  1  0
  7  8  2  0
  8  9  1  0
  9 10  2  0
  9 11  1  0
 11 12  1  0
 12 13  1  0
 13 14  1  0
 13 15  1  0
 15 16  1  0
 16 17  1  0
 17 18  1  0
 18 19  1  0
 18 20  1  0
 20 21  1  0
 21 22  1  0
 22 23  1  0
 23 24  1  0
 24 25  1  0
 25 26  1  0
 26 27  2  0
 26 28  1  0
 20 29  1  0
 29  5  1  0
 13  7  1  0
 29 15  1  0
 23 18  1  0
 28 23  1  0
  1 30  1  0
  1 31  1  0
  1 32  1  0
  5 33  1  0
  6 34  1  0
  6 35  1  0
  8 36  1  0
 11 37  1  0
 11 38  1  0
 12 39  1  0
 12 40  1  0
 14 41  1  0
 14 42  1  0
 14 43  1  0
 15 44  1  0
 16 45  1  0
 16 46  1  0
 17 47  1  0
 17 48  1  0
 19 49  1  0
 19 50  1  0
 19 51  1  0
 20 52  1  0
 21 53  1  0
 21 54  1  0
 22 55  1  0
 22 56  1  0
 24 57  1  0
 24 58  1  0
 25 59  1  0
 25 60  1  0
 29 61  1  0
M  END
$$$$
