
     RDKit          3D

 20 21  0  0  0  0  0  0  0  0999 V2000
    3.6496    0.6567    0.3155 C   0  0  0  0  0  0  0  0  0  0  0  0
    2.4209    1.3109    0.0269 O   0  0  0  0  0  0  0  0  0  0  0  0
    1.2863    0.5427    0.0391 C   0  0  0  0  0  0  0  0  0  0  0  0
    1.2328   -0.8290    0.3108 C   0  0  0  0  0  0  0  0  0  0  0  0
    0.0189   -1.5330    0.2998 C   0  0  0  0  0  0  0  0  0  0  0  0
   -1.1294   -0.7986    0.0052 C   0  0  0  0  0  0  0  0  0  0  0  0
   -2.4534   -1.1444   -0.0924 N   0  0  0  0  0  0  0  0  0  0  0  0
   -3.1494   -0.0176   -0.4094 C   0  0  0  0  0  0  0  0  0  0  0  0
   -4.8547   -0.0676   -0.6154 S   0  0  0  0  0  0  0  0  0  0  0  0
   -2.3809    1.0350   -0.5257 N   0  0  0  0  0  0  0  0  0  0  0  0
   -1.1125    0.5666   -0.2698 C   0  0  0  0  0  0  0  0  0  0  0  0
    0.1111    1.2498   -0.2535 C   0  0  0  0  0  0  0  0  0  0  0  0
    3.6473    0.2414    1.3286 H   0  0  0  0  0  0  0  0  0  0  0  0
    3.8701   -0.1155   -0.4290 H   0  0  0  0  0  0  0  0  0  0  0  0
    4.4466    1.4047    0.2646 H   0  0  0  0  0  0  0  0  0  0  0  0
    2.1325   -1.3929    0.5393 H   0  0  0  0  0  0  0  0  0  0  0  0
   -0.0153   -2.5963    0.5114 H   0  0  0  0  0  0  0  0  0  0  0  0
   -2.8531   -2.0603    0.0429 H   0  0  0  0  0  0  0  0  0  0  0  0
   -5.0074    1.2343   -0.8991 H   0  0  0  0  0  0  0  0  0  0  0  0
    0.1399    2.3129   -0.4656 H   0  0  0  0  0  0  0  0  0  0  0  0
  1  2  1  0
  2  3  1  0
  3  4  2  0
  4  5  1  0
  5  6  2  0
  6  7  1  0
  7  8  1  0
  8  9  1  0
  8 10  2  0
 10 11  1  0
 11 12  2  0
 12  3  1  0
 11  6  1  0
  1 13  1  0
  1 14  1  0
  1 15  1  0
  4 16  1  0
  5 17  1  0
  7 18  1  0
  9 19  1  0
 12 20  1  0
M  END
$$$$
