
     RDKit          3D

 77 78  0  0  0  0  0  0  0  0999 V2000
   -7.3307   -2.3687    2.1813 C   0  0  0  0  0  0  0  0  0  0  0  0
   -5.8110   -2.4373    2.0485 C   0  0  0  0  0  0  0  0  0  0  0  0
   -5.4039   -3.5395    1.0715 C   0  0  0  0  0  0  0  0  0  0  0  0
   -5.1607   -1.0752    1.7253 C   0  0  0  0  0  0  0  0  0  0  0  0
   -5.2931   -0.5400    0.2890 C   0  0  2  0  0  0  0  0  0  0  0  0
   -4.3650    0.5794    0.0881 N   0  0  0  0  0  0  0  0  0  0  0  0
   -3.0267    0.3893   -0.1558 C   0  0  0  0  0  0  0  0  0  0  0  0
   -2.5288   -0.7307   -0.2835 O   0  0  0  0  0  0  0  0  0  0  0  0
   -2.1809    1.6740   -0.2501 C   0  0  2  0  0  0  0  0  0  0  0  0
   -2.3544    2.3679   -1.6091 C   0  0  0  0  0  0  0  0  0  0  0  0
   -3.6600    3.1147   -1.7483 C   0  0  0  0  0  0  0  0  0  0  0  0
   -4.6581    2.6505   -2.6147 C   0  0  0  0  0  0  0  0  0  0  0  0
   -5.8692    3.3369   -2.7291 C   0  0  0  0  0  0  0  0  0  0  0  0
   -6.0916    4.4920   -1.9820 C   0  0  0  0  0  0  0  0  0  0  0  0
   -5.1021    4.9656   -1.1230 C   0  0  0  0  0  0  0  0  0  0  0  0
   -3.8896    4.2833   -1.0084 C   0  0  0  0  0  0  0  0  0  0  0  0
   -0.7921    1.2743   -0.0318 N   0  0  0  0  0  0  0  0  0  0  0  0
    0.1633    2.1487    0.4277 C   0  0  0  0  0  0  0  0  0  0  0  0
   -0.0563    3.3460    0.5842 O   0  0  0  0  0  0  0  0  0  0  0  0
    1.4890    1.4945    0.8242 C   0  0  0  0  0  0  0  0  0  0  0  0
    1.6629    0.1728    0.2315 N   0  0  0  0  0  0  0  0  0  0  0  0
    2.0854   -0.9069    0.9782 C   0  0  0  0  0  0  0  0  0  0  0  0
    2.2802   -0.8641    2.1915 O   0  0  0  0  0  0  0  0  0  0  0  0
    2.4477   -2.1337    0.1413 C   0  0  0  0  0  0  0  0  0  0  0  0
    3.8857   -2.1225   -0.0536 N   0  0  0  0  0  0  0  0  0  0  0  0
    4.4508   -1.2857   -0.9940 C   0  0  0  0  0  0  0  0  0  0  0  0
    3.7703   -0.6321   -1.7834 O   0  0  0  0  0  0  0  0  0  0  0  0
    5.9917   -1.2235   -0.9515 C   0  0  1  0  0  0  0  0  0  0  0  0
    6.4979   -0.6867   -2.2366 N   0  0  0  0  0  0  0  0  0  0  0  0
    6.4285   -0.3465    0.2379 C   0  0  0  0  0  0  0  0  0  0  0  0
    7.8147   -0.6742    0.7412 C   0  0  0  0  0  0  0  0  0  0  0  0
    8.9242    0.0538    0.2903 C   0  0  0  0  0  0  0  0  0  0  0  0
   10.2048   -0.2471    0.7603 C   0  0  0  0  0  0  0  0  0  0  0  0
   10.3802   -1.2767    1.6776 C   0  0  0  0  0  0  0  0  0  0  0  0
   11.6454   -1.5299    2.1165 O   0  0  0  0  0  0  0  0  0  0  0  0
    9.2940   -2.0183    2.1296 C   0  0  0  0  0  0  0  0  0  0  0  0
    8.0124   -1.7172    1.6606 C   0  0  0  0  0  0  0  0  0  0  0  0
   -6.6855    0.0189    0.0190 C   0  0  0  0  0  0  0  0  0  0  0  0
   -7.1291    1.0752    0.4457 O   0  0  0  0  0  0  0  0  0  0  0  0
   -7.4336   -0.7555   -0.7876 O   0  0  0  0  0  0  0  0  0  0  0  0
   -7.8243   -2.2536    1.2153 H   0  0  0  0  0  0  0  0  0  0  0  0
   -7.7158   -3.2916    2.6290 H   0  0  0  0  0  0  0  0  0  0  0  0
   -7.6324   -1.5380    2.8276 H   0  0  0  0  0  0  0  0  0  0  0  0
   -5.4275   -2.7275    3.0358 H   0  0  0  0  0  0  0  0  0  0  0  0
   -5.7286   -4.5180    1.4406 H   0  0  0  0  0  0  0  0  0  0  0  0
   -4.3163   -3.5749    0.9514 H   0  0  0  0  0  0  0  0  0  0  0  0
   -5.8560   -3.3982    0.0842 H   0  0  0  0  0  0  0  0  0  0  0  0
   -5.5380   -0.3247    2.4336 H   0  0  0  0  0  0  0  0  0  0  0  0
   -4.0917   -1.1760    1.9614 H   0  0  0  0  0  0  0  0  0  0  0  0
   -5.0481   -1.3024   -0.4564 H   0  0  0  0  0  0  0  0  0  0  0  0
   -4.7296    1.5211    0.2260 H   0  0  0  0  0  0  0  0  0  0  0  0
   -2.4619    2.3326    0.5804 H   0  0  0  0  0  0  0  0  0  0  0  0
   -2.2629    1.6302   -2.4168 H   0  0  0  0  0  0  0  0  0  0  0  0
   -1.5431    3.0878   -1.7793 H   0  0  0  0  0  0  0  0  0  0  0  0
   -4.5027    1.7534   -3.2086 H   0  0  0  0  0  0  0  0  0  0  0  0
   -6.6394    2.9711   -3.4030 H   0  0  0  0  0  0  0  0  0  0  0  0
   -7.0354    5.0251   -2.0720 H   0  0  0  0  0  0  0  0  0  0  0  0
   -5.2714    5.8706   -0.5449 H   0  0  0  0  0  0  0  0  0  0  0  0
   -3.1206    4.6748   -0.3433 H   0  0  0  0  0  0  0  0  0  0  0  0
   -0.5884    0.2771    0.0013 H   0  0  0  0  0  0  0  0  0  0  0  0
    1.5264    1.4382    1.9169 H   0  0  0  0  0  0  0  0  0  0  0  0
    2.3124    2.1199    0.4653 H   0  0  0  0  0  0  0  0  0  0  0  0
    1.8807    0.1432   -0.7652 H   0  0  0  0  0  0  0  0  0  0  0  0
    2.1701   -3.0380    0.6865 H   0  0  0  0  0  0  0  0  0  0  0  0
    1.9299   -2.1231   -0.8224 H   0  0  0  0  0  0  0  0  0  0  0  0
    4.4543   -2.4397    0.7244 H   0  0  0  0  0  0  0  0  0  0  0  0
    6.3623   -2.2503   -0.8439 H   0  0  0  0  0  0  0  0  0  0  0  0
    6.0894    0.2425   -2.3772 H   0  0  0  0  0  0  0  0  0  0  0  0
    6.0979   -1.2450   -2.9969 H   0  0  0  0  0  0  0  0  0  0  0  0
    6.3786    0.7154   -0.0393 H   0  0  0  0  0  0  0  0  0  0  0  0
    5.7311   -0.4364    1.0800 H   0  0  0  0  0  0  0  0  0  0  0  0
    8.7970    0.8576   -0.4337 H   0  0  0  0  0  0  0  0  0  0  0  0
   11.0614    0.3259    0.4131 H   0  0  0  0  0  0  0  0  0  0  0  0
   11.6184   -2.3033    2.7052 H   0  0  0  0  0  0  0  0  0  0  0  0
    9.4202   -2.8166    2.8516 H   0  0  0  0  0  0  0  0  0  0  0  0
    7.1713   -2.2961    2.0290 H   0  0  0  0  0  0  0  0  0  0  0  0
   -8.2741   -0.2583   -0.8732 H   0  0  0  0  0  0  0  0  0  0  0  0
  1  2  1  0
  2  3  1  0
  2  4  1  0
  4  5  1  0
  5  6  1  0
  6  7  1  0
  7  8  2  0
  7  9  1  0
  9 10  1  0
 10 11  1  0
 11 12  2  0
 12 13  1  0
 13 14  2  0
 14 15  1  0
 15 16  2  0
  9 17  1  0
 17 18  1  0
 18 19  2  0
 18 20  1  0
 20 21  1  0
 21 22  1  0
 22 23  2  0
 22 24  1  0
 24 25  1  0
 25 26  1  0
 26 27  2  0
 26 28  1  0
 28 29  1  0
 28 30  1  0
 30 31  1  0
 31 32  2  0
 32 33  1  0
 33 34  2  0
 34 35  1  0
 34 36  1  0
 36 37  2  0
  5 38  1  0
 38 39  2  0
 38 40  1  0
 16 11  1  0
 37 31  1  0
  1 41  1  0
  1 42  1  0
  1 43  1  0
  2 44  1  0
  3 45  1  0
  3 46  1  0
  3 47  1  0
  4 48  1  0
  4 49  1  0
  5 50  1  6
  6 51  1  0
  9 52  1  1
 10 53  1  0
 10 54  1  0
 12 55  1  0
 13 56  1  0
 14 57  1  0
 15 58  1  0
 16 59  1  0
 17 60  1  0
 20 61  1  0
 20 62  1  0
 21 63  1  0
 24 64  1  0
 24 65  1  0
 25 66  1  0
 28 67  1  1
 29 68  1  0
 29 69  1  0
 30 70  1  0
 30 71  1  0
 32 72  1  0
 33 73  1  0
 35 74  1  0
 36 75  1  0
 37 76  1  0
 40 77  1  0
M  END
$$$$
