
     RDKit          3D

 25 26  0  0  0  0  0  0  0  0999 V2000
    1.3418   -2.1471    0.3686 O   0  0  0  0  0  0  0  0  0  0  0  0
    1.8865   -0.9138    0.1080 C   0  0  0  0  0  0  0  0  0  0  0  0
    2.9007   -0.7790   -0.8484 C   0  0  0  0  0  0  0  0  0  0  0  0
    3.4711   -2.1597   -1.7134 Cl  0  0  0  0  0  0  0  0  0  0  0  0
    3.4625    0.4669   -1.1158 C   0  0  0  0  0  0  0  0  0  0  0  0
    3.0055    1.5815   -0.4182 C   0  0  0  0  0  0  0  0  0  0  0  0
    3.6916    3.1261   -0.7423 Cl  0  0  0  0  0  0  0  0  0  0  0  0
    1.9975    1.4607    0.5383 C   0  0  0  0  0  0  0  0  0  0  0  0
    1.4236    0.2111    0.8052 C   0  0  0  0  0  0  0  0  0  0  0  0
    0.1393    0.1185    2.0473 S   0  0  0  0  0  0  0  0  0  0  0  0
   -1.2955   -0.1021    1.0016 C   0  0  0  0  0  0  0  0  0  0  0  0
   -1.8902   -1.3695    0.9524 C   0  0  0  0  0  0  0  0  0  0  0  0
   -3.0135   -1.5884    0.1552 C   0  0  0  0  0  0  0  0  0  0  0  0
   -3.7248   -3.1543    0.0970 Cl  0  0  0  0  0  0  0  0  0  0  0  0
   -3.5659   -0.5549   -0.5963 C   0  0  0  0  0  0  0  0  0  0  0  0
   -2.9831    0.7089   -0.5446 C   0  0  0  0  0  0  0  0  0  0  0  0
   -3.6717    1.9890   -1.4757 Cl  0  0  0  0  0  0  0  0  0  0  0  0
   -1.8537    0.9417    0.2502 C   0  0  0  0  0  0  0  0  0  0  0  0
   -1.2887    2.1924    0.2988 O   0  0  0  0  0  0  0  0  0  0  0  0
    1.8069   -2.8002   -0.1871 H   0  0  0  0  0  0  0  0  0  0  0  0
    4.2485    0.5693   -1.8588 H   0  0  0  0  0  0  0  0  0  0  0  0
    1.6486    2.3437    1.0703 H   0  0  0  0  0  0  0  0  0  0  0  0
   -1.4683   -2.1904    1.5291 H   0  0  0  0  0  0  0  0  0  0  0  0
   -4.4415   -0.7334   -1.2142 H   0  0  0  0  0  0  0  0  0  0  0  0
   -1.8271    2.7830   -0.2605 H   0  0  0  0  0  0  0  0  0  0  0  0
  1  2  1  0
  2  3  2  0
  3  4  1  0
  3  5  1  0
  5  6  2  0
  6  7  1  0
  6  8  1  0
  8  9  2  0
  9 10  1  0
 10 11  1  0
 11 12  2  0
 12 13  1  0
 13 14  1  0
 13 15  2  0
 15 16  1  0
 16 17  1  0
 16 18  2  0
 18 19  1  0
  9  2  1  0
 18 11  1  0
  1 20  1  0
  5 21  1  0
  8 22  1  0
 12 23  1  0
 15 24  1  0
 19 25  1  0
M  END
$$$$
