
     RDKit          3D

 46 48  0  0  0  0  0  0  0  0999 V2000
    0.6928    0.0000    0.0000 Cl  0  0  0  0  0  0  0  0  0  0  0  0
    6.6191   -3.3303    1.3743 O   0  0  0  0  0  0  0  0  0  0  0  0
    6.1801   -2.4683    0.5751 C   0  0  0  0  0  0  0  0  0  0  0  0
    5.0733   -2.4925   -0.3094 N   0  0  0  0  0  0  0  0  0  0  0  0
    4.6395   -1.2674   -0.7893 C   0  0  0  0  0  0  0  0  0  0  0  0
    3.6516   -1.1364   -1.5996 O   0  0  0  0  0  0  0  0  0  0  0  0
    5.3679   -0.1036   -0.3288 C   0  0  0  0  0  0  0  0  0  0  0  0
    5.1039    1.1652   -0.3097 C   0  0  0  0  0  0  0  0  0  0  0  0
    3.8521    1.6547   -0.8209 C   0  0  0  0  0  0  0  0  0  0  0  0
    3.8652    2.6964   -1.7434 C   0  0  0  0  0  0  0  0  0  0  0  0
    2.7134    3.1962   -2.2147 N   0  0  0  0  0  0  0  0  0  0  0  0
    1.5255    2.6957   -1.8010 C   0  0  0  0  0  0  0  0  0  0  0  0
    0.4472    3.1677   -2.2463 O   0  0  0  0  0  0  0  0  0  0  0  0
    1.4482    1.6662   -0.8904 C   0  0  0  0  0  0  0  0  0  0  0  0
    0.1938    1.1090   -0.4258 C   0  0  0  0  0  0  0  0  0  0  0  0
   -0.8784    1.8932   -0.0592 C   0  0  0  0  0  0  0  0  0  0  0  0
   -2.0831    1.3694    0.3837 C   0  0  0  0  0  0  0  0  0  0  0  0
   -2.2170    0.0008    0.4612 C   0  0  0  0  0  0  0  0  0  0  0  0
   -3.4252   -0.6043    0.8926 N   0  0  0  0  0  0  0  0  0  0  0  0
   -4.6354    0.1480    1.0729 C   0  0  0  0  0  0  0  0  0  0  0  0
   -5.7737   -0.6446    0.4389 C   0  0  0  0  0  0  0  0  0  0  0  0
   -5.8984   -1.9762    0.9376 N   0  0  0  0  0  0  0  0  0  0  0  0
   -4.7966   -2.3933    1.7755 C   0  0  0  0  0  0  0  0  0  0  0  0
   -3.4580   -2.0267    1.1728 C   0  0  0  0  0  0  0  0  0  0  0  0
   -1.1572   -0.7812    0.0993 N   0  0  0  0  0  0  0  0  0  0  0  0
   -0.0028   -0.2511   -0.3254 C   0  0  0  0  0  0  0  0  0  0  0  0
    2.6307    1.1534   -0.4060 C   0  0  0  0  0  0  0  0  0  0  0  0
    6.9071   -0.8217    0.3176 S   0  0  0  0  0  0  0  0  0  0  0  0
   -0.6928    0.0000    0.0000 H   0  0  0  0  0  0  0  0  0  0  0  0
    4.6273   -3.4338   -0.5658 H   0  0  0  0  0  0  0  0  0  0  0  0
    5.8125    1.9035    0.0898 H   0  0  0  0  0  0  0  0  0  0  0  0
    4.8245    3.0848   -2.0636 H   0  0  0  0  0  0  0  0  0  0  0  0
    2.7851    3.9774   -2.9045 H   0  0  0  0  0  0  0  0  0  0  0  0
   -0.7846    2.9729   -0.1156 H   0  0  0  0  0  0  0  0  0  0  0  0
   -2.9044    2.0528    0.6675 H   0  0  0  0  0  0  0  0  0  0  0  0
   -4.6596    1.1311    0.5924 H   0  0  0  0  0  0  0  0  0  0  0  0
   -4.8098    0.2065    2.1765 H   0  0  0  0  0  0  0  0  0  0  0  0
   -6.6980   -0.0597    0.6663 H   0  0  0  0  0  0  0  0  0  0  0  0
   -5.6595   -0.5944   -0.6626 H   0  0  0  0  0  0  0  0  0  0  0  0
   -6.1534   -2.6791    0.2030 H   0  0  0  0  0  0  0  0  0  0  0  0
   -4.9030   -1.8981    2.7633 H   0  0  0  0  0  0  0  0  0  0  0  0
   -4.8796   -3.4703    1.9250 H   0  0  0  0  0  0  0  0  0  0  0  0
   -2.6966   -2.2494    1.9663 H   0  0  0  0  0  0  0  0  0  0  0  0
   -3.2218   -2.6485    0.3007 H   0  0  0  0  0  0  0  0  0  0  0  0
    0.7930   -0.9488   -0.5948 H   0  0  0  0  0  0  0  0  0  0  0  0
    2.6349    0.3595    0.3246 H   0  0  0  0  0  0  0  0  0  0  0  0
  2  3  2  0
  3  4  1  0
  4  5  1  0
  5  6  2  0
  5  7  1  0
  7  8  2  0
  8  9  1  0
  9 10  2  0
 10 11  1  0
 11 12  1  0
 12 13  2  0
 12 14  1  0
 14 15  1  0
 15 16  2  0
 16 17  1  0
 17 18  2  0
 18 19  1  0
 19 20  1  0
 20 21  1  0
 21 22  1  0
 22 23  1  0
 23 24  1  0
 18 25  1  0
 25 26  2  0
 14 27  2  0
  7 28  1  0
 28  3  1  0
 27  9  1  0
 26 15  1  0
 24 19  1  0
  1 29  1  0
  4 30  1  0
  8 31  1  0
 10 32  1  0
 11 33  1  0
 16 34  1  0
 17 35  1  0
 20 36  1  0
 20 37  1  0
 21 38  1  0
 21 39  1  0
 22 40  1  0
 23 41  1  0
 23 42  1  0
 24 43  1  0
 24 44  1  0
 26 45  1  0
 27 46  1  0
M  END
$$$$
