
     RDKit          3D

 43 45  0  0  0  0  0  0  0  0999 V2000
    2.5656   -1.9238   -1.7210 O   0  0  0  0  0  0  0  0  0  0  0  0
    2.0147   -1.2355   -0.8703 C   0  0  0  0  0  0  0  0  0  0  0  0
    0.6838   -0.8969   -0.8187 N   0  0  0  0  0  0  0  0  0  0  0  0
   -0.3437   -1.2080   -1.7326 C   0  0  0  0  0  0  0  0  0  0  0  0
   -0.1610   -1.9442   -2.9017 C   0  0  0  0  0  0  0  0  0  0  0  0
   -1.2534   -2.2188   -3.7268 C   0  0  0  0  0  0  0  0  0  0  0  0
   -2.5249   -1.7577   -3.3879 C   0  0  0  0  0  0  0  0  0  0  0  0
   -2.7136   -1.0133   -2.2217 C   0  0  0  0  0  0  0  0  0  0  0  0
   -1.6302   -0.7259   -1.3809 C   0  0  0  0  0  0  0  0  0  0  0  0
   -1.7566    0.0577   -0.2009 N   0  0  0  0  0  0  0  0  0  0  0  0
   -2.8563   -0.3449    0.6817 C   0  0  0  0  0  0  0  0  0  0  0  0
   -2.6176    0.2739    2.0628 C   0  0  0  0  0  0  0  0  0  0  0  0
   -2.0082    1.6787    1.9938 C   0  0  0  0  0  0  0  0  0  0  0  0
   -2.2720    2.3405    0.6464 C   0  0  0  0  0  0  0  0  0  0  0  0
   -1.7281    1.5031   -0.5182 C   0  0  0  0  0  0  0  0  0  0  0  0
    2.8397   -0.7098    0.2577 C   0  0  0  0  0  0  0  0  0  0  0  0
    3.9586   -1.4499    0.6673 C   0  0  0  0  0  0  0  0  0  0  0  0
    4.7638   -0.9996    1.7164 C   0  0  0  0  0  0  0  0  0  0  0  0
    4.4624    0.1999    2.3616 C   0  0  0  0  0  0  0  0  0  0  0  0
    3.3544    0.9488    1.9424 C   0  0  0  0  0  0  0  0  0  0  0  0
    3.0379    2.2162    2.6129 N   0  0  0  0  0  4  0  0  0  0  0  0
    1.9997    2.8019    2.2726 O   0  0  0  0  0  0  0  0  0  0  0  0
    3.8226    2.6220    3.4812 O   0  0  0  0  0  1  0  0  0  0  0  0
    2.5426    0.5052    0.8887 C   0  0  0  0  0  0  0  0  0  0  0  0
    0.3082   -0.4114   -0.0081 H   0  0  0  0  0  0  0  0  0  0  0  0
    0.8155   -2.3200   -3.1892 H   0  0  0  0  0  0  0  0  0  0  0  0
   -1.1081   -2.7963   -4.6364 H   0  0  0  0  0  0  0  0  0  0  0  0
   -3.3698   -1.9735   -4.0368 H   0  0  0  0  0  0  0  0  0  0  0  0
   -3.7085   -0.6472   -1.9888 H   0  0  0  0  0  0  0  0  0  0  0  0
   -3.8223   -0.0065    0.2852 H   0  0  0  0  0  0  0  0  0  0  0  0
   -2.9046   -1.4358    0.7883 H   0  0  0  0  0  0  0  0  0  0  0  0
   -1.9479   -0.3683    2.6483 H   0  0  0  0  0  0  0  0  0  0  0  0
   -3.5691    0.3026    2.6070 H   0  0  0  0  0  0  0  0  0  0  0  0
   -2.4035    2.2961    2.8082 H   0  0  0  0  0  0  0  0  0  0  0  0
   -0.9243    1.6096    2.1516 H   0  0  0  0  0  0  0  0  0  0  0  0
   -1.8314    3.3434    0.6178 H   0  0  0  0  0  0  0  0  0  0  0  0
   -3.3544    2.4735    0.5217 H   0  0  0  0  0  0  0  0  0  0  0  0
   -2.3078    1.7398   -1.4198 H   0  0  0  0  0  0  0  0  0  0  0  0
   -0.6886    1.7959   -0.7109 H   0  0  0  0  0  0  0  0  0  0  0  0
    4.2035   -2.3861    0.1660 H   0  0  0  0  0  0  0  0  0  0  0  0
    5.6267   -1.5855    2.0265 H   0  0  0  0  0  0  0  0  0  0  0  0
    5.0990    0.5376    3.1775 H   0  0  0  0  0  0  0  0  0  0  0  0
    1.7073    1.1123    0.5485 H   0  0  0  0  0  0  0  0  0  0  0  0
  1  2  2  0
  2  3  1  0
  3  4  1  0
  4  5  2  0
  5  6  1  0
  6  7  2  0
  7  8  1  0
  8  9  2  0
  9 10  1  0
 10 11  1  0
 11 12  1  0
 12 13  1  0
 13 14  1  0
 14 15  1  0
  2 16  1  0
 16 17  2  0
 17 18  1  0
 18 19  2  0
 19 20  1  0
 20 21  1  0
 21 22  2  0
 21 23  1  0
 20 24  2  0
  9  4  1  0
 15 10  1  0
 24 16  1  0
  3 25  1  0
  5 26  1  0
  6 27  1  0
  7 28  1  0
  8 29  1  0
 11 30  1  0
 11 31  1  0
 12 32  1  0
 12 33  1  0
 13 34  1  0
 13 35  1  0
 14 36  1  0
 14 37  1  0
 15 38  1  0
 15 39  1  0
 17 40  1  0
 18 41  1  0
 19 42  1  0
 24 43  1  0
M  CHG  2  21   1  23  -1
M  END
$$$$
