
     RDKit          3D

 65 67  0  0  0  0  0  0  0  0999 V2000
    5.9817   -0.5816    4.4312 C   0  0  0  0  0  0  0  0  0  0  0  0
    5.2632    0.4854    3.8051 O   0  0  0  0  0  0  0  0  0  0  0  0
    4.7036    0.0423    2.6350 C   0  0  0  0  0  0  0  0  0  0  0  0
    3.4698   -0.6130    2.7174 C   0  0  0  0  0  0  0  0  0  0  0  0
    2.8675   -1.1302    1.5681 C   0  0  0  0  0  0  0  0  0  0  0  0
    3.4974   -0.9986    0.3254 C   0  0  0  0  0  0  0  0  0  0  0  0
    2.8799   -1.5833   -0.9204 C   0  0  0  0  0  0  0  0  0  0  0  0
    2.1675   -0.5405   -1.7607 C   0  0  0  0  0  0  0  0  0  0  0  0
    2.7173    0.0515   -2.6851 O   0  0  0  0  0  0  0  0  0  0  0  0
    0.8629   -0.3248   -1.3977 N   0  0  0  0  0  0  0  0  0  0  0  0
    0.0437    0.6975   -1.9697 C   0  0  0  0  0  0  0  0  0  0  0  0
   -1.2888    0.1433   -2.1481 N   0  0  0  0  0  0  0  0  0  0  0  0
   -2.0080   -0.6554   -1.2863 C   0  0  0  0  0  0  0  0  0  0  0  0
   -1.4849   -1.0796   -0.1835 N   0  0  0  0  0  0  0  0  0  0  0  0
   -2.1921   -1.7994    0.6904 C   0  0  0  0  0  0  0  0  0  0  0  0
   -2.7431   -2.4165    1.5042 N   0  0  0  0  0  0  0  0  0  0  0  0
   -3.2427   -0.8265   -1.8722 N   0  0  0  0  0  0  0  0  0  0  0  0
   -4.3311   -1.5907   -1.3961 C   0  0  0  0  0  0  0  0  0  0  0  0
   -4.2800   -2.9839   -1.5250 C   0  0  0  0  0  0  0  0  0  0  0  0
   -5.3482   -3.7669   -1.1056 C   0  0  0  0  0  0  0  0  0  0  0  0
   -6.4700   -3.1585   -0.5457 C   0  0  0  0  0  0  0  0  0  0  0  0
   -6.5523   -1.7837   -0.3781 C   0  0  0  0  0  0  0  0  0  0  0  0
   -7.6671   -1.2733    0.1746 N   0  0  0  0  0  0  0  0  0  0  0  0
   -7.7417    0.0627    0.3540 C   0  0  0  0  0  0  0  0  0  0  0  0
   -6.7378    0.9395    0.0023 C   0  0  0  0  0  0  0  0  0  0  0  0
   -5.5895    0.4106   -0.5772 C   0  0  0  0  0  0  0  0  0  0  0  0
   -5.4680   -0.9788   -0.7975 C   0  0  0  0  0  0  0  0  0  0  0  0
    0.0333    2.0517   -1.1834 C   0  0  0  0  0  0  0  0  0  0  0  0
   -1.0036    3.0136   -1.8062 C   0  0  0  0  0  0  0  0  0  0  0  0
    1.4198    2.7241   -1.2866 C   0  0  0  0  0  0  0  0  0  0  0  0
   -0.3021    1.8873    0.3090 C   0  0  0  0  0  0  0  0  0  0  0  0
    4.7142   -0.2988    0.2512 C   0  0  0  0  0  0  0  0  0  0  0  0
    5.3124    0.2479    1.3931 C   0  0  0  0  0  0  0  0  0  0  0  0
    6.4864    0.9070    1.1444 O   0  0  0  0  0  0  0  0  0  0  0  0
    6.8238    1.9600    2.0383 C   0  0  0  0  0  0  0  0  0  0  0  0
    6.7745   -0.9641    3.7780 H   0  0  0  0  0  0  0  0  0  0  0  0
    6.4498   -0.1828    5.3354 H   0  0  0  0  0  0  0  0  0  0  0  0
    5.3117   -1.3941    4.7309 H   0  0  0  0  0  0  0  0  0  0  0  0
    2.9849   -0.7353    3.6839 H   0  0  0  0  0  0  0  0  0  0  0  0
    1.9148   -1.6487    1.6587 H   0  0  0  0  0  0  0  0  0  0  0  0
    3.6530   -2.0592   -1.5367 H   0  0  0  0  0  0  0  0  0  0  0  0
    2.1771   -2.3823   -0.6580 H   0  0  0  0  0  0  0  0  0  0  0  0
    0.4772   -0.7880   -0.5851 H   0  0  0  0  0  0  0  0  0  0  0  0
    0.4299    0.9124   -2.9743 H   0  0  0  0  0  0  0  0  0  0  0  0
   -1.4539   -0.0888   -3.1213 H   0  0  0  0  0  0  0  0  0  0  0  0
   -3.5589    0.0019   -2.3652 H   0  0  0  0  0  0  0  0  0  0  0  0
   -3.4095   -3.4610   -1.9688 H   0  0  0  0  0  0  0  0  0  0  0  0
   -5.3130   -4.8463   -1.2162 H   0  0  0  0  0  0  0  0  0  0  0  0
   -7.3043   -3.7761   -0.2190 H   0  0  0  0  0  0  0  0  0  0  0  0
   -8.6625    0.4186    0.8068 H   0  0  0  0  0  0  0  0  0  0  0  0
   -6.8449    2.0059    0.1706 H   0  0  0  0  0  0  0  0  0  0  0  0
   -4.7875    1.0932   -0.8403 H   0  0  0  0  0  0  0  0  0  0  0  0
   -0.9382    4.0136   -1.3602 H   0  0  0  0  0  0  0  0  0  0  0  0
   -2.0301    2.6585   -1.6494 H   0  0  0  0  0  0  0  0  0  0  0  0
   -0.8512    3.1207   -2.8886 H   0  0  0  0  0  0  0  0  0  0  0  0
    1.4162    3.7120   -0.8131 H   0  0  0  0  0  0  0  0  0  0  0  0
    1.7134    2.8629   -2.3354 H   0  0  0  0  0  0  0  0  0  0  0  0
    2.1935    2.1308   -0.7872 H   0  0  0  0  0  0  0  0  0  0  0  0
   -0.2873    2.8577    0.8209 H   0  0  0  0  0  0  0  0  0  0  0  0
   -1.2995    1.4690    0.4646 H   0  0  0  0  0  0  0  0  0  0  0  0
    0.4321    1.2466    0.8136 H   0  0  0  0  0  0  0  0  0  0  0  0
    5.2021   -0.1661   -0.7128 H   0  0  0  0  0  0  0  0  0  0  0  0
    7.3886    1.5678    2.8892 H   0  0  0  0  0  0  0  0  0  0  0  0
    5.9512    2.5256    2.3739 H   0  0  0  0  0  0  0  0  0  0  0  0
    7.4776    2.6552    1.5047 H   0  0  0  0  0  0  0  0  0  0  0  0
  1  2  1  0
  2  3  1  0
  3  4  2  0
  4  5  1  0
  5  6  2  0
  6  7  1  0
  7  8  1  0
  8  9  2  0
  8 10  1  0
 10 11  1  0
 11 12  1  0
 12 13  1  0
 13 14  2  0
 14 15  1  0
 15 16  3  0
 13 17  1  0
 17 18  1  0
 18 19  2  0
 19 20  1  0
 20 21  2  0
 21 22  1  0
 22 23  2  0
 23 24  1  0
 24 25  2  0
 25 26  1  0
 26 27  2  0
 11 28  1  0
 28 29  1  0
 28 30  1  0
 28 31  1  0
  6 32  1  0
 32 33  2  0
 33 34  1  0
 34 35  1  0
 33  3  1  0
 27 18  1  0
 27 22  1  0
  1 36  1  0
  1 37  1  0
  1 38  1  0
  4 39  1  0
  5 40  1  0
  7 41  1  0
  7 42  1  0
 10 43  1  0
 11 44  1  0
 12 45  1  0
 17 46  1  0
 19 47  1  0
 20 48  1  0
 21 49  1  0
 24 50  1  0
 25 51  1  0
 26 52  1  0
 29 53  1  0
 29 54  1  0
 29 55  1  0
 30 56  1  0
 30 57  1  0
 30 58  1  0
 31 59  1  0
 31 60  1  0
 31 61  1  0
 32 62  1  0
 35 63  1  0
 35 64  1  0
 35 65  1  0
M  END
$$$$
