
     RDKit          3D

 51 53  0  0  0  0  0  0  0  0999 V2000
   -4.0770    2.1849    2.0931 C   0  0  0  0  0  0  0  0  0  0  0  0
   -3.7640    1.6729    0.6668 C   0  0  0  0  0  0  0  0  0  0  0  0
   -4.0420    2.8185   -0.3315 C   0  0  0  0  0  0  0  0  0  0  0  0
   -4.7318    0.4983    0.4029 C   0  0  0  0  0  0  0  0  0  0  0  0
   -4.3432   -0.2909   -0.8357 C   0  0  0  0  0  0  0  0  0  0  0  0
   -2.9512   -0.9458   -0.6923 C   0  0  0  0  0  0  0  0  0  0  0  0
   -2.5514   -1.4318   -2.1063 C   0  0  0  0  0  0  0  0  0  0  0  0
   -3.0438   -2.1766    0.2367 C   0  0  0  0  0  0  0  0  0  0  0  0
   -1.9213    0.0345   -0.1103 C   0  0  0  0  0  0  0  0  0  0  0  0
   -0.5449   -0.2993   -0.1764 C   0  0  0  0  0  0  0  0  0  0  0  0
    0.4504    0.5425    0.3192 C   0  0  0  0  0  0  0  0  0  0  0  0
    1.8309    0.2528    0.2745 N   0  0  0  0  0  0  0  0  0  0  0  0
    2.4441   -0.8293   -0.3300 C   0  0  0  0  0  0  0  0  0  0  0  0
    1.9101   -1.7032   -1.0016 O   0  0  0  0  0  0  0  0  0  0  0  0
    3.9243   -0.8845   -0.1598 C   0  0  0  0  0  0  0  0  0  0  0  0
    4.7008   -1.3748   -1.2179 C   0  0  0  0  0  0  0  0  0  0  0  0
    6.0921   -1.4464   -1.0980 C   0  0  0  0  0  0  0  0  0  0  0  0
    6.7153   -1.0376    0.0874 C   0  0  0  0  0  0  0  0  0  0  0  0
    8.1868   -1.0949    0.2648 C   0  0  0  0  0  0  0  0  0  0  0  0
    8.7953   -0.7537    1.2619 O   0  0  0  0  0  0  0  0  0  0  0  0
    8.8250   -1.5736   -0.8168 O   0  0  0  0  0  0  0  0  0  0  0  0
    5.9368   -0.5646    1.1529 C   0  0  0  0  0  0  0  0  0  0  0  0
    4.5449   -0.4920    1.0336 C   0  0  0  0  0  0  0  0  0  0  0  0
    0.0697    1.7442    0.9082 C   0  0  0  0  0  0  0  0  0  0  0  0
   -1.2801    2.0875    1.0060 C   0  0  0  0  0  0  0  0  0  0  0  0
   -2.2986    1.2409    0.5236 C   0  0  0  0  0  0  0  0  0  0  0  0
   -3.7951    1.4441    2.8506 H   0  0  0  0  0  0  0  0  0  0  0  0
   -3.5510    3.1157    2.3298 H   0  0  0  0  0  0  0  0  0  0  0  0
   -5.1479    2.3907    2.2089 H   0  0  0  0  0  0  0  0  0  0  0  0
   -3.7924    2.5363   -1.3601 H   0  0  0  0  0  0  0  0  0  0  0  0
   -5.0974    3.1135   -0.3108 H   0  0  0  0  0  0  0  0  0  0  0  0
   -3.4509    3.7111   -0.0946 H   0  0  0  0  0  0  0  0  0  0  0  0
   -4.7579   -0.1760    1.2682 H   0  0  0  0  0  0  0  0  0  0  0  0
   -5.7572    0.8723    0.2856 H   0  0  0  0  0  0  0  0  0  0  0  0
   -4.3639    0.3733   -1.7089 H   0  0  0  0  0  0  0  0  0  0  0  0
   -5.1042   -1.0584   -1.0278 H   0  0  0  0  0  0  0  0  0  0  0  0
   -1.6493   -2.0522   -2.0987 H   0  0  0  0  0  0  0  0  0  0  0  0
   -2.3649   -0.5853   -2.7777 H   0  0  0  0  0  0  0  0  0  0  0  0
   -3.3476   -2.0415   -2.5501 H   0  0  0  0  0  0  0  0  0  0  0  0
   -2.0988   -2.7320    0.2654 H   0  0  0  0  0  0  0  0  0  0  0  0
   -3.2778   -1.8946    1.2691 H   0  0  0  0  0  0  0  0  0  0  0  0
   -3.8183   -2.8725   -0.1052 H   0  0  0  0  0  0  0  0  0  0  0  0
   -0.2646   -1.2499   -0.6184 H   0  0  0  0  0  0  0  0  0  0  0  0
    2.4339    0.9593    0.6739 H   0  0  0  0  0  0  0  0  0  0  0  0
    4.2219   -1.7023   -2.1395 H   0  0  0  0  0  0  0  0  0  0  0  0
    6.6769   -1.8267   -1.9326 H   0  0  0  0  0  0  0  0  0  0  0  0
    9.7712   -1.5592   -0.5609 H   0  0  0  0  0  0  0  0  0  0  0  0
    6.4128   -0.2624    2.0847 H   0  0  0  0  0  0  0  0  0  0  0  0
    3.9615   -0.1593    1.8883 H   0  0  0  0  0  0  0  0  0  0  0  0
    0.8095    2.4356    1.3014 H   0  0  0  0  0  0  0  0  0  0  0  0
   -1.5256    3.0423    1.4650 H   0  0  0  0  0  0  0  0  0  0  0  0
  1  2  1  0
  2  3  1  0
  2  4  1  0
  4  5  1  0
  5  6  1  0
  6  7  1  0
  6  8  1  0
  6  9  1  0
  9 10  2  0
 10 11  1  0
 11 12  1  0
 12 13  1  0
 13 14  2  0
 13 15  1  0
 15 16  2  0
 16 17  1  0
 17 18  2  0
 18 19  1  0
 19 20  2  0
 19 21  1  0
 18 22  1  0
 22 23  2  0
 11 24  2  0
 24 25  1  0
 25 26  2  0
 26  2  1  0
 26  9  1  0
 23 15  1  0
  1 27  1  0
  1 28  1  0
  1 29  1  0
  3 30  1  0
  3 31  1  0
  3 32  1  0
  4 33  1  0
  4 34  1  0
  5 35  1  0
  5 36  1  0
  7 37  1  0
  7 38  1  0
  7 39  1  0
  8 40  1  0
  8 41  1  0
  8 42  1  0
 10 43  1  0
 12 44  1  0
 16 45  1  0
 17 46  1  0
 21 47  1  0
 22 48  1  0
 23 49  1  0
 24 50  1  0
 25 51  1  0
M  END
$$$$
