
     RDKit          3D

 62 66  0  0  0  0  0  0  0  0999 V2000
    0.0342   -1.6617   -1.7482 C   0  0  0  0  0  0  0  0  0  0  0  0
   -0.5065   -1.9356   -0.3549 C   0  0  0  0  0  0  0  0  0  0  0  0
   -0.7751   -0.7102    0.4719 C   0  0  0  0  0  0  0  0  0  0  0  0
   -1.5532    0.4138    0.2206 C   0  0  0  0  0  0  0  0  0  0  0  0
   -2.1880    0.6967   -1.0506 C   0  0  0  0  0  0  0  0  0  0  0  0
   -1.4778    1.3698   -2.0524 C   0  0  0  0  0  0  0  0  0  0  0  0
   -2.0939    1.6638   -3.2697 C   0  0  0  0  0  0  0  0  0  0  0  0
   -3.4201    1.2907   -3.4871 C   0  0  0  0  0  0  0  0  0  0  0  0
   -4.1325    0.6249   -2.4892 C   0  0  0  0  0  0  0  0  0  0  0  0
   -3.5191    0.3290   -1.2708 C   0  0  0  0  0  0  0  0  0  0  0  0
   -1.7398    1.0467    1.4857 C   0  0  0  0  0  0  0  0  0  0  0  0
   -2.5533    2.2183    1.8307 C   0  0  0  0  0  0  0  0  0  0  0  0
   -2.6690    3.3133    0.9641 C   0  0  0  0  0  0  0  0  0  0  0  0
   -3.4531    4.4177    1.3115 C   0  0  0  0  0  0  0  0  0  0  0  0
   -4.1248    4.4433    2.5318 C   0  0  0  0  0  0  0  0  0  0  0  0
   -4.0104    3.3677    3.4090 C   0  0  0  0  0  0  0  0  0  0  0  0
   -3.2275    2.2640    3.0612 C   0  0  0  0  0  0  0  0  0  0  0  0
   -1.0919    0.3714    2.4436 N   0  0  0  0  0  0  0  0  0  0  0  0
   -0.3787   -0.5808    1.7982 N   0  0  0  0  0  0  0  0  0  0  0  0
    0.5420   -1.3602    2.5511 C   0  0  0  0  0  0  0  0  0  0  0  0
    0.0979   -1.8282    3.8039 C   0  0  0  0  0  0  0  0  0  0  0  0
    0.9139   -2.6425    4.5852 C   0  0  0  0  0  0  0  0  0  0  0  0
    2.1850   -2.9760    4.1355 C   0  0  0  0  0  0  0  0  0  0  0  0
    2.6502   -2.4700    2.9184 C   0  0  0  0  0  0  0  0  0  0  0  0
    1.8537   -1.6358    2.1034 C   0  0  0  0  0  0  0  0  0  0  0  0
    2.4890   -1.0077    0.9262 C   0  0  0  0  0  0  0  0  0  0  0  0
    2.5290    0.3882    0.7847 C   0  0  0  0  0  0  0  0  0  0  0  0
    3.1574    0.9802   -0.3121 C   0  0  0  0  0  0  0  0  0  0  0  0
    3.7640    0.1885   -1.2885 C   0  0  0  0  0  0  0  0  0  0  0  0
    3.7425   -1.2000   -1.1702 C   0  0  0  0  0  0  0  0  0  0  0  0
    4.2852   -2.0944   -2.0513 O   0  0  0  0  0  0  0  0  0  0  0  0
    4.6779   -1.6113   -3.3264 C   0  0  0  0  0  0  0  0  0  0  0  0
    3.5457   -1.1659   -4.2380 C   0  0  0  0  0  0  0  0  0  0  0  0
    3.5172   -0.1327   -4.8898 O   0  0  0  0  0  0  0  0  0  0  0  0
    2.5305   -2.0499   -4.3112 O   0  0  0  0  0  0  0  0  0  0  0  0
    3.1205   -1.7849   -0.0606 C   0  0  0  0  0  0  0  0  0  0  0  0
    0.7912   -0.8742   -1.7539 H   0  0  0  0  0  0  0  0  0  0  0  0
   -0.7667   -1.3668   -2.4321 H   0  0  0  0  0  0  0  0  0  0  0  0
    0.4789   -2.5727   -2.1624 H   0  0  0  0  0  0  0  0  0  0  0  0
   -1.4469   -2.4940   -0.4499 H   0  0  0  0  0  0  0  0  0  0  0  0
    0.1779   -2.6180    0.1561 H   0  0  0  0  0  0  0  0  0  0  0  0
   -0.4434    1.6636   -1.8885 H   0  0  0  0  0  0  0  0  0  0  0  0
   -1.5403    2.1844   -4.0467 H   0  0  0  0  0  0  0  0  0  0  0  0
   -3.9010    1.5214   -4.4344 H   0  0  0  0  0  0  0  0  0  0  0  0
   -5.1676    0.3391   -2.6579 H   0  0  0  0  0  0  0  0  0  0  0  0
   -4.0836   -0.1843   -0.4957 H   0  0  0  0  0  0  0  0  0  0  0  0
   -2.1424    3.3314    0.0147 H   0  0  0  0  0  0  0  0  0  0  0  0
   -3.5340    5.2595    0.6287 H   0  0  0  0  0  0  0  0  0  0  0  0
   -4.7320    5.3033    2.8017 H   0  0  0  0  0  0  0  0  0  0  0  0
   -4.5261    3.3852    4.3652 H   0  0  0  0  0  0  0  0  0  0  0  0
   -3.1437    1.4323    3.7581 H   0  0  0  0  0  0  0  0  0  0  0  0
   -0.9000   -1.5803    4.1633 H   0  0  0  0  0  0  0  0  0  0  0  0
    0.5564   -3.0132    5.5421 H   0  0  0  0  0  0  0  0  0  0  0  0
    2.8302   -3.6055    4.7431 H   0  0  0  0  0  0  0  0  0  0  0  0
    3.6741   -2.6998    2.6249 H   0  0  0  0  0  0  0  0  0  0  0  0
    2.0789    1.0309    1.5405 H   0  0  0  0  0  0  0  0  0  0  0  0
    3.1788    2.0638   -0.4005 H   0  0  0  0  0  0  0  0  0  0  0  0
    4.2463    0.6942   -2.1185 H   0  0  0  0  0  0  0  0  0  0  0  0
    5.1880   -2.4331   -3.8422 H   0  0  0  0  0  0  0  0  0  0  0  0
    5.4209   -0.8110   -3.2317 H   0  0  0  0  0  0  0  0  0  0  0  0
    1.8736   -1.6255   -4.9007 H   0  0  0  0  0  0  0  0  0  0  0  0
    3.1115   -2.8707    0.0184 H   0  0  0  0  0  0  0  0  0  0  0  0
  1  2  1  0
  2  3  1  0
  3  4  2  0
  4  5  1  0
  5  6  2  0
  6  7  1  0
  7  8  2  0
  8  9  1  0
  9 10  2  0
  4 11  1  0
 11 12  1  0
 12 13  2  0
 13 14  1  0
 14 15  2  0
 15 16  1  0
 16 17  2  0
 11 18  2  0
 18 19  1  0
 19 20  1  0
 20 21  2  0
 21 22  1  0
 22 23  2  0
 23 24  1  0
 24 25  2  0
 25 26  1  0
 26 27  2  0
 27 28  1  0
 28 29  2  0
 29 30  1  0
 30 31  1  0
 31 32  1  0
 32 33  1  0
 33 34  2  0
 33 35  1  0
 30 36  2  0
 19  3  1  0
 25 20  1  0
 36 26  1  0
 10  5  1  0
 17 12  1  0
  1 37  1  0
  1 38  1  0
  1 39  1  0
  2 40  1  0
  2 41  1  0
  6 42  1  0
  7 43  1  0
  8 44  1  0
  9 45  1  0
 10 46  1  0
 13 47  1  0
 14 48  1  0
 15 49  1  0
 16 50  1  0
 17 51  1  0
 21 52  1  0
 22 53  1  0
 23 54  1  0
 24 55  1  0
 27 56  1  0
 28 57  1  0
 29 58  1  0
 32 59  1  0
 32 60  1  0
 35 61  1  0
 36 62  1  0
M  END
$$$$
