
     RDKit          3D

 42 45  0  0  0  0  0  0  0  0999 V2000
    0.0096   -4.9876    1.0670 C   0  0  0  0  0  0  0  0  0  0  0  0
    0.4707   -3.6614    0.5725 C   0  0  0  0  0  0  0  0  0  0  0  0
   -0.0704   -2.4187    0.8110 C   0  0  0  0  0  0  0  0  0  0  0  0
    0.6362   -1.3465    0.1486 C   0  0  0  0  0  0  0  0  0  0  0  0
    1.7481   -1.8359   -0.5055 C   0  0  0  0  0  0  0  0  0  0  0  0
    1.8357   -3.5495   -0.4390 S   0  0  0  0  0  0  0  0  0  0  0  0
    2.7217   -1.1619   -1.1635 N   0  0  0  0  0  0  0  0  0  0  0  0
    3.2213    0.0752   -0.6883 C   0  0  0  0  0  0  0  0  0  0  0  0
    4.6008    0.3218   -0.8701 C   0  0  0  0  0  0  0  0  0  0  0  0
    5.2035    1.4904   -0.4043 C   0  0  0  0  0  0  0  0  0  0  0  0
    4.4343    2.4451    0.2423 C   0  0  0  0  0  0  0  0  0  0  0  0
    3.0657    2.2291    0.4026 C   0  0  0  0  0  0  0  0  0  0  0  0
    2.4336    1.0581   -0.0555 C   0  0  0  0  0  0  0  0  0  0  0  0
    1.0379    1.0730    0.0774 N   0  0  0  0  0  0  0  0  0  0  0  0
    0.2363    0.0578    0.1508 C   0  0  0  0  0  0  0  0  0  0  0  0
   -1.1395    0.2403    0.2756 N   0  0  0  0  0  0  0  0  0  0  0  0
   -1.6162    1.5489    0.7665 C   0  0  0  0  0  0  0  0  0  0  0  0
   -3.1534    1.5734    0.8867 C   0  0  0  0  0  0  0  0  0  0  0  0
   -3.8789    1.3030   -0.3743 N   0  0  0  0  0  0  0  0  0  0  0  0
   -4.4163    2.5268   -0.9639 C   0  0  0  0  0  0  0  0  0  0  0  0
   -3.0150    0.5983   -1.3465 C   0  0  0  0  0  0  0  0  0  0  0  0
   -2.0555   -0.4149   -0.6875 C   0  0  0  0  0  0  0  0  0  0  0  0
   -0.8738   -4.8815    1.7054 H   0  0  0  0  0  0  0  0  0  0  0  0
    0.7919   -5.4761    1.6573 H   0  0  0  0  0  0  0  0  0  0  0  0
   -0.2584   -5.6424    0.2313 H   0  0  0  0  0  0  0  0  0  0  0  0
   -0.9506   -2.2642    1.4241 H   0  0  0  0  0  0  0  0  0  0  0  0
    3.4550   -1.7483   -1.5484 H   0  0  0  0  0  0  0  0  0  0  0  0
    5.2262   -0.4146   -1.3690 H   0  0  0  0  0  0  0  0  0  0  0  0
    6.2686    1.6502   -0.5474 H   0  0  0  0  0  0  0  0  0  0  0  0
    4.8865    3.3627    0.6073 H   0  0  0  0  0  0  0  0  0  0  0  0
    2.4605    2.9971    0.8798 H   0  0  0  0  0  0  0  0  0  0  0  0
   -1.2895    2.3521    0.0938 H   0  0  0  0  0  0  0  0  0  0  0  0
   -1.1814    1.7414    1.7545 H   0  0  0  0  0  0  0  0  0  0  0  0
   -3.4524    0.7932    1.5989 H   0  0  0  0  0  0  0  0  0  0  0  0
   -3.4717    2.5225    1.3354 H   0  0  0  0  0  0  0  0  0  0  0  0
   -4.9635    2.3018   -1.8861 H   0  0  0  0  0  0  0  0  0  0  0  0
   -3.6303    3.2545   -1.1961 H   0  0  0  0  0  0  0  0  0  0  0  0
   -5.1322    2.9983   -0.2817 H   0  0  0  0  0  0  0  0  0  0  0  0
   -3.6532    0.0700   -2.0645 H   0  0  0  0  0  0  0  0  0  0  0  0
   -2.4105    1.3164   -1.9178 H   0  0  0  0  0  0  0  0  0  0  0  0
   -1.4950   -0.9186   -1.4842 H   0  0  0  0  0  0  0  0  0  0  0  0
   -2.6365   -1.1796   -0.1584 H   0  0  0  0  0  0  0  0  0  0  0  0
  1  2  1  0
  2  3  2  0
  3  4  1  0
  4  5  2  0
  5  6  1  0
  5  7  1  0
  7  8  1  0
  8  9  2  0
  9 10  1  0
 10 11  2  0
 11 12  1  0
 12 13  2  0
 13 14  1  0
 14 15  2  0
 15 16  1  0
 16 17  1  0
 17 18  1  0
 18 19  1  0
 19 20  1  0
 19 21  1  0
 21 22  1  0
  6  2  1  0
 13  8  1  0
 22 16  1  0
 15  4  1  0
  1 23  1  0
  1 24  1  0
  1 25  1  0
  3 26  1  0
  7 27  1  0
  9 28  1  0
 10 29  1  0
 11 30  1  0
 12 31  1  0
 17 32  1  0
 17 33  1  0
 18 34  1  0
 18 35  1  0
 20 36  1  0
 20 37  1  0
 20 38  1  0
 21 39  1  0
 21 40  1  0
 22 41  1  0
 22 42  1  0
M  END
$$$$
