
     RDKit          3D

 82 86  0  0  0  0  0  0  0  0999 V2000
    0.3138    2.2625    0.0476 C   0  0  0  0  0  0  0  0  0  0  0  0
    0.1279    1.0029    0.7050 O   0  0  0  0  0  0  0  0  0  0  0  0
   -0.4153    0.0800   -0.1714 C   0  0  0  0  0  0  0  0  0  0  0  0
    0.4681   -0.6346   -1.0144 C   0  0  0  0  0  0  0  0  0  0  0  0
    1.8441   -0.3844   -0.9316 N   0  0  0  0  0  0  0  0  0  0  0  0
    2.9606   -0.8375   -1.6171 C   0  0  0  0  0  0  0  0  0  0  0  0
    2.8678   -1.5855   -2.7234 N   0  0  0  0  0  0  0  0  0  0  0  0
    4.0211   -1.9150   -3.3357 C   0  0  0  0  0  0  0  0  0  0  0  0
    5.2588   -1.5303   -2.8791 C   0  0  0  0  0  0  0  0  0  0  0  0
    6.6849   -1.9814   -3.7271 Cl  0  0  0  0  0  0  0  0  0  0  0  0
    5.2805   -0.7896   -1.7039 C   0  0  0  0  0  0  0  0  0  0  0  0
    6.4870   -0.2667   -1.2178 N   0  0  0  0  0  0  0  0  0  0  0  0
    6.6741    0.1134    0.1944 C   0  0  1  0  0  0  0  0  0  0  0  0
    6.0852    1.4384    0.7603 C   0  0  1  0  0  0  0  0  0  0  0  0
    4.9822    2.1254   -0.0200 C   0  0  0  0  0  0  0  0  0  0  0  0
    5.3307    2.5051   -1.2871 N   0  0  0  0  0  0  0  0  0  0  0  0
    3.8825    2.4210    0.4385 O   0  0  0  0  0  0  0  0  0  0  0  0
    5.6078    0.9930    2.1756 C   0  0  2  0  0  0  0  0  0  0  0  0
    6.8046    0.5132    2.9783 C   0  0  0  0  0  0  0  0  0  0  0  0
    7.1925   -0.6639    2.4581 C   0  0  0  0  0  0  0  0  0  0  0  0
    6.2845   -0.9432    1.2700 C   0  0  1  0  0  0  0  0  0  0  0  0
    4.9987   -0.3811    1.8848 C   0  0  0  0  0  0  0  0  0  0  0  0
    4.1377   -0.4395   -1.1030 N   0  0  0  0  0  0  0  0  0  0  0  0
   -0.0946   -1.5451   -1.9008 C   0  0  0  0  0  0  0  0  0  0  0  0
   -1.4685   -1.7980   -1.8875 C   0  0  0  0  0  0  0  0  0  0  0  0
   -2.3344   -1.1566   -0.9808 C   0  0  0  0  0  0  0  0  0  0  0  0
   -1.8118   -0.1671   -0.1236 C   0  0  0  0  0  0  0  0  0  0  0  0
   -2.6512    0.5893    0.8905 C   0  0  0  0  0  0  0  0  0  0  0  0
   -4.1037    0.8681    0.4934 C   0  0  0  0  0  0  0  0  0  0  0  0
   -5.0716   -0.2986    0.7989 C   0  0  1  0  0  0  0  0  0  0  0  0
   -6.4134   -0.1159    0.1882 N   0  0  0  0  0  0  0  0  0  0  0  0
   -7.4367   -1.0472    0.7286 C   0  0  0  0  0  0  0  0  0  0  0  0
   -8.5535   -0.3639    1.5358 C   0  0  0  0  0  0  0  0  0  0  0  0
   -9.2527    0.6435    0.7995 O   0  0  0  0  0  0  0  0  0  0  0  0
   -8.4208    1.3179   -0.1517 C   0  0  0  0  0  0  0  0  0  0  0  0
   -6.9275    1.2683    0.2095 C   0  0  0  0  0  0  0  0  0  0  0  0
   -4.4552   -1.6458    0.3586 C   0  0  0  0  0  0  0  0  0  0  0  0
   -3.7862   -1.5875   -1.0131 C   0  0  0  0  0  0  0  0  0  0  0  0
   -1.0833   -0.2758    0.1667 C   0  0  0  0  0  0  0  0  0  0  0  0
    0.4476    0.5608   -0.1754 S   0  0  0  0  0  6  0  0  0  0  0  0
    0.3307    1.3032   -1.4075 O   0  0  0  0  0  0  0  0  0  0  0  0
    0.9620    1.1446    1.0419 O   0  0  0  0  0  0  0  0  0  0  0  0
    1.3576   -0.7424   -0.4566 O   0  0  0  0  0  0  0  0  0  0  0  0
    0.5387    3.0064    0.8178 H   0  0  0  0  0  0  0  0  0  0  0  0
    1.1605    2.2283   -0.6453 H   0  0  0  0  0  0  0  0  0  0  0  0
   -0.5902    2.5842   -0.4823 H   0  0  0  0  0  0  0  0  0  0  0  0
    2.1223    0.1916   -0.1438 H   0  0  0  0  0  0  0  0  0  0  0  0
    3.9082   -2.5115   -4.2357 H   0  0  0  0  0  0  0  0  0  0  0  0
    7.2342   -0.9066   -1.4998 H   0  0  0  0  0  0  0  0  0  0  0  0
    7.7676    0.2395    0.2486 H   0  0  0  0  0  0  0  0  0  0  0  0
    6.8873    2.1831    0.8658 H   0  0  0  0  0  0  0  0  0  0  0  0
    4.5476    2.8311   -1.8399 H   0  0  0  0  0  0  0  0  0  0  0  0
    5.9584    1.8716   -1.7738 H   0  0  0  0  0  0  0  0  0  0  0  0
    4.9459    1.6737    2.7127 H   0  0  0  0  0  0  0  0  0  0  0  0
    7.2577    1.0381    3.8059 H   0  0  0  0  0  0  0  0  0  0  0  0
    8.0268   -1.2705    2.7757 H   0  0  0  0  0  0  0  0  0  0  0  0
    6.2453   -1.9880    0.9603 H   0  0  0  0  0  0  0  0  0  0  0  0
    4.6823   -0.9168    2.7909 H   0  0  0  0  0  0  0  0  0  0  0  0
    4.1396   -0.3354    1.2203 H   0  0  0  0  0  0  0  0  0  0  0  0
    0.5213   -2.1042   -2.5972 H   0  0  0  0  0  0  0  0  0  0  0  0
   -1.8574   -2.5414   -2.5827 H   0  0  0  0  0  0  0  0  0  0  0  0
   -2.2027    1.5770    1.0534 H   0  0  0  0  0  0  0  0  0  0  0  0
   -2.6046    0.0675    1.8550 H   0  0  0  0  0  0  0  0  0  0  0  0
   -4.1478    1.1592   -0.5637 H   0  0  0  0  0  0  0  0  0  0  0  0
   -4.4353    1.7433    1.0678 H   0  0  0  0  0  0  0  0  0  0  0  0
   -5.2005   -0.3310    1.8903 H   0  0  0  0  0  0  0  0  0  0  0  0
   -7.0005   -1.8327    1.3539 H   0  0  0  0  0  0  0  0  0  0  0  0
   -7.8900   -1.5474   -0.1355 H   0  0  0  0  0  0  0  0  0  0  0  0
   -9.2912   -1.1067    1.8549 H   0  0  0  0  0  0  0  0  0  0  0  0
   -8.1476    0.0940    2.4442 H   0  0  0  0  0  0  0  0  0  0  0  0
   -8.5966    0.8694   -1.1365 H   0  0  0  0  0  0  0  0  0  0  0  0
   -8.7603    2.3579   -0.2032 H   0  0  0  0  0  0  0  0  0  0  0  0
   -6.3811    1.8798   -0.5170 H   0  0  0  0  0  0  0  0  0  0  0  0
   -6.7936    1.7078    1.2061 H   0  0  0  0  0  0  0  0  0  0  0  0
   -5.2247   -2.4256    0.3238 H   0  0  0  0  0  0  0  0  0  0  0  0
   -3.7430   -1.9933    1.1189 H   0  0  0  0  0  0  0  0  0  0  0  0
   -4.3426   -0.9517   -1.7115 H   0  0  0  0  0  0  0  0  0  0  0  0
   -3.8321   -2.6046   -1.4253 H   0  0  0  0  0  0  0  0  0  0  0  0
   -1.3830   -0.8367   -0.7204 H   0  0  0  0  0  0  0  0  0  0  0  0
   -0.9400   -0.9419    1.0194 H   0  0  0  0  0  0  0  0  0  0  0  0
   -1.8353    0.4800    0.4032 H   0  0  0  0  0  0  0  0  0  0  0  0
    2.1437   -0.6917    0.1288 H   0  0  0  0  0  0  0  0  0  0  0  0
  1  2  1  0
  2  3  1  0
  3  4  2  0
  4  5  1  0
  5  6  1  0
  6  7  2  0
  7  8  1  0
  8  9  2  0
  9 10  1  0
  9 11  1  0
 11 12  1  0
 12 13  1  0
 13 14  1  0
 14 15  1  0
 15 16  1  0
 15 17  2  0
 14 18  1  0
 18 19  1  0
 19 20  2  0
 20 21  1  0
 21 22  1  0
 11 23  2  0
  4 24  1  0
 24 25  2  0
 25 26  1  0
 26 27  2  0
 27 28  1  0
 28 29  1  0
 29 30  1  0
 30 31  1  0
 31 32  1  0
 32 33  1  0
 33 34  1  0
 34 35  1  0
 35 36  1  0
 30 37  1  0
 37 38  1  0
 39 40  1  0
 40 41  2  0
 40 42  2  0
 40 43  1  0
 27  3  1  0
 36 31  1  0
 23  6  1  0
 38 26  1  0
 21 13  1  0
 22 18  1  0
  1 44  1  0
  1 45  1  0
  1 46  1  0
  5 47  1  0
  8 48  1  0
 12 49  1  0
 13 50  1  6
 14 51  1  1
 16 52  1  0
 16 53  1  0
 18 54  1  1
 19 55  1  0
 20 56  1  0
 21 57  1  6
 22 58  1  0
 22 59  1  0
 24 60  1  0
 25 61  1  0
 28 62  1  0
 28 63  1  0
 29 64  1  0
 29 65  1  0
 30 66  1  1
 32 67  1  0
 32 68  1  0
 33 69  1  0
 33 70  1  0
 35 71  1  0
 35 72  1  0
 36 73  1  0
 36 74  1  0
 37 75  1  0
 37 76  1  0
 38 77  1  0
 38 78  1  0
 39 79  1  0
 39 80  1  0
 39 81  1  0
 43 82  1  0
M  END
$$$$
