
     RDKit          3D

 35 36  0  0  0  0  0  0  0  0999 V2000
    2.8329   -1.4636   -1.3791 C   0  0  0  0  0  0  0  0  0  0  0  0
    2.2634   -0.6684   -0.2086 C   0  0  0  0  0  0  0  0  0  0  0  0
    3.3817   -0.0675    0.6403 C   0  0  0  0  0  0  0  0  0  0  0  0
    1.3689    0.4556   -0.7245 C   0  0  0  0  0  0  0  0  0  0  0  0
    1.8217    1.2955   -1.5045 O   0  0  0  0  0  0  0  0  0  0  0  0
    0.0027    0.5640   -0.2237 C   0  0  0  0  0  0  0  0  0  0  0  0
   -0.9959   -0.4249    0.0108 C   0  0  0  0  0  0  0  0  0  0  0  0
   -0.9589   -1.9065   -0.2668 C   0  0  0  0  0  0  0  0  0  0  0  0
   -2.1070   -2.3472   -1.1814 C   0  0  0  0  0  0  0  0  0  0  0  0
   -0.9654   -2.7235    1.0274 C   0  0  0  0  0  0  0  0  0  0  0  0
   -2.1153    0.1048    0.5212 N   0  0  0  0  0  0  0  0  0  0  0  0
   -1.8973    1.4389    0.5707 N   0  0  0  0  0  0  0  0  0  0  0  0
   -2.7888    2.4170    1.0164 C   0  0  0  0  0  0  0  0  0  0  0  0
   -2.4303    3.7109    1.0110 C   0  0  0  0  0  0  0  0  0  0  0  0
   -1.1067    4.0655    0.5308 C   0  0  0  0  0  0  0  0  0  0  0  0
   -0.2394    3.1296    0.1005 C   0  0  0  0  0  0  0  0  0  0  0  0
   -0.6199    1.7530    0.1124 C   0  0  0  0  0  0  0  0  0  0  0  0
    2.0318   -1.8569   -2.0135 H   0  0  0  0  0  0  0  0  0  0  0  0
    3.4288   -2.3091   -1.0202 H   0  0  0  0  0  0  0  0  0  0  0  0
    3.4754   -0.8417   -2.0123 H   0  0  0  0  0  0  0  0  0  0  0  0
    1.6894   -1.3418    0.4327 H   0  0  0  0  0  0  0  0  0  0  0  0
    2.9678    0.5112    1.4734 H   0  0  0  0  0  0  0  0  0  0  0  0
    4.0143    0.6076    0.0533 H   0  0  0  0  0  0  0  0  0  0  0  0
    4.0193   -0.8541    1.0569 H   0  0  0  0  0  0  0  0  0  0  0  0
   -0.0347   -2.1413   -0.8041 H   0  0  0  0  0  0  0  0  0  0  0  0
   -2.0119   -3.4081   -1.4371 H   0  0  0  0  0  0  0  0  0  0  0  0
   -2.1036   -1.7747   -2.1157 H   0  0  0  0  0  0  0  0  0  0  0  0
   -3.0837   -2.2041   -0.7059 H   0  0  0  0  0  0  0  0  0  0  0  0
   -1.8956   -2.5812    1.5889 H   0  0  0  0  0  0  0  0  0  0  0  0
   -0.8635   -3.7924    0.8114 H   0  0  0  0  0  0  0  0  0  0  0  0
   -0.1366   -2.4324    1.6819 H   0  0  0  0  0  0  0  0  0  0  0  0
   -3.7533    2.0625    1.3529 H   0  0  0  0  0  0  0  0  0  0  0  0
   -3.0992    4.4941    1.3492 H   0  0  0  0  0  0  0  0  0  0  0  0
   -0.8348    5.1170    0.5215 H   0  0  0  0  0  0  0  0  0  0  0  0
    0.7438    3.4121   -0.2661 H   0  0  0  0  0  0  0  0  0  0  0  0
  1  2  1  0
  2  3  1  0
  2  4  1  0
  4  5  2  0
  4  6  1  0
  6  7  1  0
  7  8  1  0
  8  9  1  0
  8 10  1  0
  7 11  2  0
 11 12  1  0
 12 13  1  0
 13 14  2  0
 14 15  1  0
 15 16  2  0
 16 17  1  0
 17  6  2  0
 17 12  1  0
  1 18  1  0
  1 19  1  0
  1 20  1  0
  2 21  1  0
  3 22  1  0
  3 23  1  0
  3 24  1  0
  8 25  1  0
  9 26  1  0
  9 27  1  0
  9 28  1  0
 10 29  1  0
 10 30  1  0
 10 31  1  0
 13 32  1  0
 14 33  1  0
 15 34  1  0
 16 35  1  0
M  END
$$$$
