
     RDKit          3D

 33 34  0  0  0  0  0  0  0  0999 V2000
    0.6882    0.0000    0.0000 Cl  0  0  0  0  0  0  0  0  0  0  0  0
   -3.2522    1.8125    0.0650 C   0  0  0  0  0  0  0  0  0  0  0  0
   -2.1341    2.3920    0.5914 C   0  0  0  0  0  0  0  0  0  0  0  0
   -0.9746    1.6267    0.7614 C   0  0  0  0  0  0  0  0  0  0  0  0
   -0.9213    0.3029    0.4147 C   0  0  0  0  0  0  0  0  0  0  0  0
   -2.0616   -0.2601   -0.1144 C   0  0  0  0  0  0  0  0  0  0  0  0
   -3.2271    0.4946   -0.2893 C   0  0  0  0  0  0  0  0  0  0  0  0
   -2.1736   -1.6812   -0.5411 C   0  0  0  0  0  0  0  0  0  0  0  0
   -1.0427   -2.4957    0.0625 C   0  0  0  0  0  0  0  0  0  0  0  0
    0.2319   -1.7579   -0.2763 C   0  0  0  0  0  0  0  0  0  0  0  0
    0.2732   -0.5150    0.5819 C   0  0  0  0  0  0  0  0  0  0  0  0
    1.5447    0.1965    0.3189 C   0  0  0  0  0  0  0  0  0  0  0  0
    1.7584    1.4048   -0.0461 N   0  0  0  0  0  0  0  0  0  0  0  0
    3.1420    1.7130   -0.1943 C   0  0  0  0  0  0  0  0  0  0  0  0
    3.8043    0.3585   -0.1886 C   0  0  0  0  0  0  0  0  0  0  0  0
    2.7993   -0.4609    0.4597 N   0  0  0  0  0  0  0  0  0  0  0  0
   -0.6882    0.0000    0.0000 H   0  0  0  0  0  0  0  0  0  0  0  0
   -4.1533    2.4027   -0.0684 H   0  0  0  0  0  0  0  0  0  0  0  0
   -2.1662    3.4419    0.8697 H   0  0  0  0  0  0  0  0  0  0  0  0
   -0.1421    2.1388    1.1762 H   0  0  0  0  0  0  0  0  0  0  0  0
   -4.1307    0.0676   -0.7033 H   0  0  0  0  0  0  0  0  0  0  0  0
   -3.1134   -2.1296   -0.1637 H   0  0  0  0  0  0  0  0  0  0  0  0
   -2.1293   -1.8192   -1.6228 H   0  0  0  0  0  0  0  0  0  0  0  0
   -1.0221   -3.5003   -0.3782 H   0  0  0  0  0  0  0  0  0  0  0  0
   -1.1309   -2.5390    1.1674 H   0  0  0  0  0  0  0  0  0  0  0  0
    0.1453   -1.4489   -1.3452 H   0  0  0  0  0  0  0  0  0  0  0  0
    1.1323   -2.3564   -0.1068 H   0  0  0  0  0  0  0  0  0  0  0  0
    0.3195   -0.8671    1.6365 H   0  0  0  0  0  0  0  0  0  0  0  0
    3.5661    2.2797    0.6640 H   0  0  0  0  0  0  0  0  0  0  0  0
    3.3672    2.2741   -1.1392 H   0  0  0  0  0  0  0  0  0  0  0  0
    3.9297   -0.0499   -1.2263 H   0  0  0  0  0  0  0  0  0  0  0  0
    4.7640    0.3551    0.3625 H   0  0  0  0  0  0  0  0  0  0  0  0
    2.9971   -1.3801    0.9430 H   0  0  0  0  0  0  0  0  0  0  0  0
  2  3  2  0
  3  4  1  0
  4  5  2  0
  5  6  1  0
  6  7  2  0
  6  8  1  0
  8  9  1  0
  9 10  1  0
 10 11  1  0
 11 12  1  0
 12 13  2  0
 13 14  1  0
 14 15  1  0
 15 16  1  0
  7  2  1  0
 16 12  1  0
 11  5  1  0
  1 17  1  0
  2 18  1  0
  3 19  1  0
  4 20  1  0
  7 21  1  0
  8 22  1  0
  8 23  1  0
  9 24  1  0
  9 25  1  0
 10 26  1  0
 10 27  1  0
 11 28  1  0
 14 29  1  0
 14 30  1  0
 15 31  1  0
 15 32  1  0
 16 33  1  0
M  END
$$$$
