
     RDKit          3D

 36 38  0  0  0  0  0  0  0  0999 V2000
    1.9865    2.9722   -0.4262 C   0  0  0  0  0  0  0  0  0  0  0  0
    1.7880    2.1556   -1.6087 N   0  0  0  0  0  0  0  0  0  0  0  0
    2.0568    2.5559   -2.8992 C   0  0  0  0  0  0  0  0  0  0  0  0
    2.6197    3.8090   -3.2767 C   0  0  0  0  0  0  0  0  0  0  0  0
    3.0795    4.8357   -3.5587 N   0  0  0  0  0  0  0  0  0  0  0  0
    1.6831    1.5330   -3.7450 C   0  0  0  0  0  0  0  0  0  0  0  0
    1.1917    0.4781   -2.9426 C   0  0  0  0  0  0  0  0  0  0  0  0
    1.2852    0.8653   -1.6159 C   0  0  0  0  0  0  0  0  0  0  0  0
    0.9205    0.1065   -0.4220 C   0  0  0  0  0  0  0  0  0  0  0  0
    1.8959   -0.2815    0.5006 C   0  0  0  0  0  0  0  0  0  0  0  0
    1.5381   -1.0159    1.6314 C   0  0  0  0  0  0  0  0  0  0  0  0
    0.2019   -1.3602    1.8400 C   0  0  0  0  0  0  0  0  0  0  0  0
   -0.7896   -0.9923    0.9359 C   0  0  0  0  0  0  0  0  0  0  0  0
   -0.4142   -0.2612   -0.2055 C   0  0  0  0  0  0  0  0  0  0  0  0
   -2.2161   -1.4377    1.1838 C   0  0  0  0  0  0  0  0  0  0  0  0
   -3.1991   -0.2616    1.0921 C   0  0  0  0  0  0  0  0  0  0  0  0
   -2.6102   -2.5303    0.1803 C   0  0  0  0  0  0  0  0  0  0  0  0
   -2.4375   -2.0049    2.5029 O   0  0  0  0  0  0  0  0  0  0  0  0
   -1.4283   -2.3999    3.3021 C   0  0  0  0  0  0  0  0  0  0  0  0
   -1.8255   -3.2189    4.6873 S   0  0  0  0  0  0  0  0  0  0  0  0
   -0.1476   -2.0911    2.9680 N   0  0  0  0  0  0  0  0  0  0  0  0
    2.9749    2.7440   -0.0199 H   0  0  0  0  0  0  0  0  0  0  0  0
    1.9193    4.0298   -0.6915 H   0  0  0  0  0  0  0  0  0  0  0  0
    1.2057    2.7498    0.3052 H   0  0  0  0  0  0  0  0  0  0  0  0
    1.7612    1.5406   -4.8255 H   0  0  0  0  0  0  0  0  0  0  0  0
    0.8248   -0.4796   -3.2917 H   0  0  0  0  0  0  0  0  0  0  0  0
    2.9409   -0.0289    0.3370 H   0  0  0  0  0  0  0  0  0  0  0  0
    2.3087   -1.3143    2.3367 H   0  0  0  0  0  0  0  0  0  0  0  0
   -1.1635    0.0243   -0.9415 H   0  0  0  0  0  0  0  0  0  0  0  0
   -4.2149   -0.5822    1.3528 H   0  0  0  0  0  0  0  0  0  0  0  0
   -3.2334    0.1837    0.0928 H   0  0  0  0  0  0  0  0  0  0  0  0
   -2.9298    0.5253    1.8069 H   0  0  0  0  0  0  0  0  0  0  0  0
   -3.6254   -2.8937    0.3779 H   0  0  0  0  0  0  0  0  0  0  0  0
   -1.9476   -3.3997    0.2691 H   0  0  0  0  0  0  0  0  0  0  0  0
   -2.5680   -2.1766   -0.8555 H   0  0  0  0  0  0  0  0  0  0  0  0
    0.5682   -2.3785    3.6236 H   0  0  0  0  0  0  0  0  0  0  0  0
  1  2  1  0
  2  3  1  0
  3  4  1  0
  4  5  3  0
  3  6  2  0
  6  7  1  0
  7  8  2  0
  8  9  1  0
  9 10  2  0
 10 11  1  0
 11 12  2  0
 12 13  1  0
 13 14  2  0
 13 15  1  0
 15 16  1  0
 15 17  1  0
 15 18  1  0
 18 19  1  0
 19 20  2  0
 19 21  1  0
  8  2  1  0
 14  9  1  0
 21 12  1  0
  1 22  1  0
  1 23  1  0
  1 24  1  0
  6 25  1  0
  7 26  1  0
 10 27  1  0
 11 28  1  0
 14 29  1  0
 16 30  1  0
 16 31  1  0
 16 32  1  0
 17 33  1  0
 17 34  1  0
 17 35  1  0
 21 36  1  0
M  END
$$$$
