
     RDKit          3D

 29 30  0  0  0  0  0  0  0  0999 V2000
    0.6917    0.0000    0.0000 Cl  0  0  0  0  0  0  0  0  0  0  0  0
   -2.6082   -0.0183    2.8467 O   0  0  0  0  0  0  0  0  0  0  0  0
   -2.5982   -0.0249    1.5889 C   0  0  0  0  0  0  0  0  0  0  0  0
   -3.8263   -0.0103    0.8731 N   0  0  0  0  0  0  0  0  0  0  0  0
   -3.7947    0.5655   -0.4592 C   0  0  0  0  0  0  0  0  0  0  0  0
   -2.6992   -0.0385   -1.2978 C   0  0  0  0  0  0  0  0  0  0  0  0
   -1.4112   -0.0539   -0.5619 C   0  0  0  0  0  0  0  0  0  0  0  0
   -0.1257   -0.0753   -1.0040 N   0  0  0  0  0  0  0  0  0  0  0  0
    0.7297   -0.0828    0.0070 C   0  0  0  0  0  0  0  0  0  0  0  0
    2.1883   -0.1047   -0.0249 C   0  0  0  0  0  0  0  0  0  0  0  0
    2.9165   -0.1094    1.1401 C   0  0  0  0  0  0  0  0  0  0  0  0
    4.3058   -0.1304    1.0964 C   0  0  0  0  0  0  0  0  0  0  0  0
    4.9389   -0.1461   -0.1032 N   0  0  0  0  0  0  0  0  0  0  0  0
    4.2614   -0.1421   -1.2672 C   0  0  0  0  0  0  0  0  0  0  0  0
    2.8721   -0.1211   -1.2109 C   0  0  0  0  0  0  0  0  0  0  0  0
   -0.0418   -0.0652    1.1581 C   0  0  0  0  0  0  0  0  0  0  0  0
   -1.3670   -0.0473    0.8128 C   0  0  0  0  0  0  0  0  0  0  0  0
   -0.6917    0.0000    0.0000 H   0  0  0  0  0  0  0  0  0  0  0  0
   -4.7091   -0.3986    1.2934 H   0  0  0  0  0  0  0  0  0  0  0  0
   -3.5946    1.6582   -0.3615 H   0  0  0  0  0  0  0  0  0  0  0  0
   -4.7616    0.4263   -0.9829 H   0  0  0  0  0  0  0  0  0  0  0  0
   -2.9813   -1.0482   -1.6815 H   0  0  0  0  0  0  0  0  0  0  0  0
   -2.5902    0.6213   -2.2013 H   0  0  0  0  0  0  0  0  0  0  0  0
    0.1691   -0.0850   -2.0140 H   0  0  0  0  0  0  0  0  0  0  0  0
    2.4266   -0.0971    2.1079 H   0  0  0  0  0  0  0  0  0  0  0  0
    4.8820   -0.1342    2.0241 H   0  0  0  0  0  0  0  0  0  0  0  0
    4.7686   -0.1547   -2.2222 H   0  0  0  0  0  0  0  0  0  0  0  0
    2.3405   -0.1180   -2.1357 H   0  0  0  0  0  0  0  0  0  0  0  0
    0.3094   -0.0651    2.1829 H   0  0  0  0  0  0  0  0  0  0  0  0
  2  3  2  0
  3  4  1  0
  4  5  1  0
  5  6  1  0
  6  7  1  0
  7  8  1  0
  8  9  1  0
  9 10  1  0
 10 11  2  0
 11 12  1  0
 12 13  2  0
 13 14  1  0
 14 15  2  0
  9 16  2  0
 16 17  1  0
 17  3  1  0
 17  7  2  0
 15 10  1  0
  1 18  1  0
  4 19  1  0
  5 20  1  0
  5 21  1  0
  6 22  1  0
  6 23  1  0
  8 24  1  0
 11 25  1  0
 12 26  1  0
 14 27  1  0
 15 28  1  0
 16 29  1  0
M  END
$$$$
