
     RDKit          3D

 87 91  0  0  0  0  0  0  0  0999 V2000
   -1.4023    2.7729    0.0187 C   0  0  0  0  0  0  0  0  0  0  0  0
   -0.1422    2.0569    0.1745 N   0  0  0  0  0  0  0  0  0  0  0  0
    0.6002    1.7632   -1.0587 C   0  0  0  0  0  0  0  0  0  0  0  0
   -0.0950    0.8266   -2.0777 C   0  0  0  0  0  0  0  0  0  0  0  0
   -0.2485   -0.5849   -1.6662 N   0  0  0  0  0  0  0  0  0  0  0  0
   -0.5222   -1.4539   -2.8237 C   0  0  0  0  0  0  0  0  0  0  0  0
   -2.0064   -1.7090   -3.0560 C   0  0  0  0  0  0  0  0  0  0  0  0
   -2.6543   -2.3852   -1.8422 C   0  0  0  0  0  0  0  0  0  0  0  0
   -3.9704   -1.8083   -1.6951 O   0  0  0  0  0  0  0  0  0  0  0  0
   -4.9074   -2.5658   -1.0638 C   0  0  0  0  0  0  0  0  0  0  0  0
   -4.7326   -3.7242   -0.7179 O   0  0  0  0  0  0  0  0  0  0  0  0
   -6.0103   -1.7842   -0.8850 N   0  0  0  0  0  0  0  0  0  0  0  0
   -7.2345   -2.0919   -0.2554 C   0  0  0  0  0  0  0  0  0  0  0  0
   -7.5321   -3.3761    0.2138 C   0  0  0  0  0  0  0  0  0  0  0  0
   -8.7590   -3.6498    0.8238 C   0  0  0  0  0  0  0  0  0  0  0  0
   -9.7036   -2.6424    0.9754 C   0  0  0  0  0  0  0  0  0  0  0  0
   -9.4222   -1.3581    0.5168 C   0  0  0  0  0  0  0  0  0  0  0  0
   -8.1920   -1.0597   -0.0979 C   0  0  0  0  0  0  0  0  0  0  0  0
   -7.9439    0.3206   -0.5426 C   0  0  0  0  0  0  0  0  0  0  0  0
   -8.3615    0.7530   -1.8107 C   0  0  0  0  0  0  0  0  0  0  0  0
   -8.1082    2.0567   -2.2391 C   0  0  0  0  0  0  0  0  0  0  0  0
   -7.4363    2.9480   -1.3994 C   0  0  0  0  0  0  0  0  0  0  0  0
   -7.0154    2.5352   -0.1354 C   0  0  0  0  0  0  0  0  0  0  0  0
   -7.2698    1.2298    0.2894 C   0  0  0  0  0  0  0  0  0  0  0  0
   -1.8543   -2.1396   -0.5587 C   0  0  0  0  0  0  0  0  0  0  0  0
   -1.2449   -0.7402   -0.5904 C   0  0  0  0  0  0  0  0  0  0  0  0
    0.4847    2.2114    1.4218 C   0  0  0  0  0  0  0  0  0  0  0  0
   -0.0255    2.8520    2.3422 O   0  0  0  0  0  0  0  0  0  0  0  0
    1.8207    1.6187    1.6837 C   0  0  0  0  0  0  0  0  0  0  0  0
    2.1131    0.2821    1.3982 C   0  0  0  0  0  0  0  0  0  0  0  0
    3.3759   -0.2364    1.7033 C   0  0  0  0  0  0  0  0  0  0  0  0
    4.3430    0.5608    2.3288 C   0  0  0  0  0  0  0  0  0  0  0  0
    5.6963   -0.0194    2.6878 C   0  0  0  0  0  0  0  0  0  0  0  0
    6.6509   -0.0190    1.5668 N   0  0  0  0  0  0  0  0  0  0  0  0
    7.8067   -0.8665    1.8672 C   0  0  0  0  0  0  0  0  0  0  0  0
    8.6909   -1.0300    0.6283 C   0  0  0  0  0  0  0  0  0  0  0  0
    8.9510    0.2923   -0.1091 C   0  0  0  0  0  0  0  0  0  0  0  0
   10.4175    0.4313   -0.4887 C   0  0  0  0  0  0  0  0  0  0  0  0
   10.8672   -0.4753   -1.4056 N   0  0  0  0  0  0  0  0  0  0  0  0
   11.1803    1.2759   -0.0262 O   0  0  0  0  0  0  0  0  0  0  0  0
    8.5068    1.4865    0.7333 C   0  0  0  0  0  0  0  0  0  0  0  0
    7.0518    1.3490    1.1913 C   0  0  0  0  0  0  0  0  0  0  0  0
    4.0311    1.8925    2.6371 C   0  0  0  0  0  0  0  0  0  0  0  0
    2.7766    2.4174    2.3206 C   0  0  0  0  0  0  0  0  0  0  0  0
   -1.9718    2.7774    0.9547 H   0  0  0  0  0  0  0  0  0  0  0  0
   -1.1830    3.8065   -0.2716 H   0  0  0  0  0  0  0  0  0  0  0  0
   -2.0207    2.3035   -0.7481 H   0  0  0  0  0  0  0  0  0  0  0  0
    0.7743    2.7322   -1.5442 H   0  0  0  0  0  0  0  0  0  0  0  0
    1.5955    1.3702   -0.8464 H   0  0  0  0  0  0  0  0  0  0  0  0
    0.5502    0.8554   -2.9654 H   0  0  0  0  0  0  0  0  0  0  0  0
   -1.0585    1.2370   -2.3997 H   0  0  0  0  0  0  0  0  0  0  0  0
   -0.0680   -1.0605   -3.7430 H   0  0  0  0  0  0  0  0  0  0  0  0
   -0.0210   -2.4145   -2.6473 H   0  0  0  0  0  0  0  0  0  0  0  0
   -2.5124   -0.7641   -3.2928 H   0  0  0  0  0  0  0  0  0  0  0  0
   -2.1420   -2.3507   -3.9363 H   0  0  0  0  0  0  0  0  0  0  0  0
   -2.7344   -3.4640   -2.0313 H   0  0  0  0  0  0  0  0  0  0  0  0
   -5.8803   -0.8374   -1.2186 H   0  0  0  0  0  0  0  0  0  0  0  0
   -6.8246   -4.1939    0.1190 H   0  0  0  0  0  0  0  0  0  0  0  0
   -8.9729   -4.6528    1.1824 H   0  0  0  0  0  0  0  0  0  0  0  0
  -10.6575   -2.8531    1.4530 H   0  0  0  0  0  0  0  0  0  0  0  0
  -10.1659   -0.5756    0.6474 H   0  0  0  0  0  0  0  0  0  0  0  0
   -8.8801    0.0651   -2.4757 H   0  0  0  0  0  0  0  0  0  0  0  0
   -8.4333    2.3829   -3.2230 H   0  0  0  0  0  0  0  0  0  0  0  0
   -7.2393    3.9625   -1.7316 H   0  0  0  0  0  0  0  0  0  0  0  0
   -6.4919    3.2293    0.5210 H   0  0  0  0  0  0  0  0  0  0  0  0
   -6.9392    0.9187    1.2789 H   0  0  0  0  0  0  0  0  0  0  0  0
   -1.0597   -2.8880   -0.4621 H   0  0  0  0  0  0  0  0  0  0  0  0
   -2.4930   -2.2362    0.3254 H   0  0  0  0  0  0  0  0  0  0  0  0
   -2.0645   -0.0216   -0.7005 H   0  0  0  0  0  0  0  0  0  0  0  0
   -0.7755   -0.5523    0.3798 H   0  0  0  0  0  0  0  0  0  0  0  0
    1.3744   -0.3648    0.9376 H   0  0  0  0  0  0  0  0  0  0  0  0
    3.6040   -1.2717    1.4526 H   0  0  0  0  0  0  0  0  0  0  0  0
    5.5182   -1.0513    3.0214 H   0  0  0  0  0  0  0  0  0  0  0  0
    6.1078    0.4989    3.5635 H   0  0  0  0  0  0  0  0  0  0  0  0
    7.4782   -1.8669    2.1717 H   0  0  0  0  0  0  0  0  0  0  0  0
    8.3910   -0.4573    2.7036 H   0  0  0  0  0  0  0  0  0  0  0  0
    9.6259   -1.5149    0.9324 H   0  0  0  0  0  0  0  0  0  0  0  0
    8.2062   -1.7272   -0.0694 H   0  0  0  0  0  0  0  0  0  0  0  0
    8.3735    0.3006   -1.0433 H   0  0  0  0  0  0  0  0  0  0  0  0
   10.2193   -0.9554   -2.0173 H   0  0  0  0  0  0  0  0  0  0  0  0
   11.8009   -0.2943   -1.7641 H   0  0  0  0  0  0  0  0  0  0  0  0
    8.6290    2.4174    0.1641 H   0  0  0  0  0  0  0  0  0  0  0  0
    9.1556    1.5813    1.6142 H   0  0  0  0  0  0  0  0  0  0  0  0
    6.9208    2.0558    2.0201 H   0  0  0  0  0  0  0  0  0  0  0  0
    6.3925    1.6847    0.3798 H   0  0  0  0  0  0  0  0  0  0  0  0
    4.7599    2.5290    3.1320 H   0  0  0  0  0  0  0  0  0  0  0  0
    2.5425    3.4474    2.5798 H   0  0  0  0  0  0  0  0  0  0  0  0
  1  2  1  0
  2  3  1  0
  3  4  1  0
  4  5  1  0
  5  6  1  0
  6  7  1  0
  7  8  1  0
  8  9  1  0
  9 10  1  0
 10 11  2  0
 10 12  1  0
 12 13  1  0
 13 14  2  0
 14 15  1  0
 15 16  2  0
 16 17  1  0
 17 18  2  0
 18 19  1  0
 19 20  2  0
 20 21  1  0
 21 22  2  0
 22 23  1  0
 23 24  2  0
  8 25  1  0
 25 26  1  0
  2 27  1  0
 27 28  2  0
 27 29  1  0
 29 30  2  0
 30 31  1  0
 31 32  2  0
 32 33  1  0
 33 34  1  0
 34 35  1  0
 35 36  1  0
 36 37  1  0
 37 38  1  0
 38 39  1  0
 38 40  2  0
 37 41  1  0
 41 42  1  0
 32 43  1  0
 43 44  2  0
 26  5  1  0
 44 29  1  0
 18 13  1  0
 24 19  1  0
 42 34  1  0
  1 45  1  0
  1 46  1  0
  1 47  1  0
  3 48  1  0
  3 49  1  0
  4 50  1  0
  4 51  1  0
  6 52  1  0
  6 53  1  0
  7 54  1  0
  7 55  1  0
  8 56  1  0
 12 57  1  0
 14 58  1  0
 15 59  1  0
 16 60  1  0
 17 61  1  0
 20 62  1  0
 21 63  1  0
 22 64  1  0
 23 65  1  0
 24 66  1  0
 25 67  1  0
 25 68  1  0
 26 69  1  0
 26 70  1  0
 30 71  1  0
 31 72  1  0
 33 73  1  0
 33 74  1  0
 35 75  1  0
 35 76  1  0
 36 77  1  0
 36 78  1  0
 37 79  1  0
 39 80  1  0
 39 81  1  0
 41 82  1  0
 41 83  1  0
 42 84  1  0
 42 85  1  0
 43 86  1  0
 44 87  1  0
M  END
$$$$
