
     RDKit          3D

 40 42  0  0  0  0  0  0  0  0999 V2000
    4.3979    0.7037    3.6637 C   0  0  0  0  0  0  0  0  0  0  0  0
    3.9657    0.8984    2.2352 C   0  0  0  0  0  0  0  0  0  0  0  0
    2.9252    0.0965    1.7241 C   0  0  0  0  0  0  0  0  0  0  0  0
    2.4883    0.2288    0.4023 C   0  0  0  0  0  0  0  0  0  0  0  0
    1.4588   -0.5445   -0.1693 N   0  0  0  0  0  0  0  0  0  0  0  0
    0.6712   -1.4979    0.4497 C   0  0  0  0  0  0  0  0  0  0  0  0
    0.6972   -1.8289    1.6314 O   0  0  0  0  0  0  0  0  0  0  0  0
   -0.2944   -2.1560   -0.5051 C   0  0  0  0  0  0  0  0  0  0  0  0
   -1.3429   -1.1936   -1.0136 C   0  0  0  0  0  0  0  0  0  0  0  0
   -1.0834   -0.6013   -2.1417 N   0  0  0  0  0  0  0  0  0  0  0  0
   -2.0128    0.2549   -2.6770 N   0  0  0  0  0  0  0  0  0  0  0  0
   -1.6640    0.8354   -3.9623 C   0  0  0  0  0  0  0  0  0  0  0  0
   -3.2423    0.5450   -2.0909 C   0  0  0  0  0  0  0  0  0  0  0  0
   -4.0836    1.2943   -2.5824 O   0  0  0  0  0  0  0  0  0  0  0  0
   -3.5164   -0.0954   -0.7900 C   0  0  0  0  0  0  0  0  0  0  0  0
   -4.7132    0.1763   -0.1116 C   0  0  0  0  0  0  0  0  0  0  0  0
   -4.9581   -0.4068    1.1306 C   0  0  0  0  0  0  0  0  0  0  0  0
   -4.0052   -1.2489    1.6997 C   0  0  0  0  0  0  0  0  0  0  0  0
   -2.8108   -1.5202    1.0253 C   0  0  0  0  0  0  0  0  0  0  0  0
   -2.5720   -0.9514   -0.2317 C   0  0  0  0  0  0  0  0  0  0  0  0
    3.1091    1.1714   -0.4227 C   0  0  0  0  0  0  0  0  0  0  0  0
    4.1510    1.9650    0.0641 C   0  0  0  0  0  0  0  0  0  0  0  0
    4.5785    1.8296    1.3862 C   0  0  0  0  0  0  0  0  0  0  0  0
    6.0132    2.9343    1.9605 Br  0  0  0  0  0  0  0  0  0  0  0  0
    5.4193    0.3095    3.7011 H   0  0  0  0  0  0  0  0  0  0  0  0
    4.3448    1.6476    4.2144 H   0  0  0  0  0  0  0  0  0  0  0  0
    3.7479   -0.0078    4.1878 H   0  0  0  0  0  0  0  0  0  0  0  0
    2.4701   -0.6337    2.3851 H   0  0  0  0  0  0  0  0  0  0  0  0
    1.2296   -0.3326   -1.1366 H   0  0  0  0  0  0  0  0  0  0  0  0
    0.2740   -2.5555   -1.3548 H   0  0  0  0  0  0  0  0  0  0  0  0
   -0.7585   -3.0232   -0.0258 H   0  0  0  0  0  0  0  0  0  0  0  0
   -2.5348    1.2723   -4.4565 H   0  0  0  0  0  0  0  0  0  0  0  0
   -0.9144    1.6154   -3.7991 H   0  0  0  0  0  0  0  0  0  0  0  0
   -1.2455    0.0529   -4.6012 H   0  0  0  0  0  0  0  0  0  0  0  0
   -5.4527    0.8449   -0.5483 H   0  0  0  0  0  0  0  0  0  0  0  0
   -5.8876   -0.1981    1.6563 H   0  0  0  0  0  0  0  0  0  0  0  0
   -4.1891   -1.6931    2.6776 H   0  0  0  0  0  0  0  0  0  0  0  0
   -2.0863   -2.1672    1.5151 H   0  0  0  0  0  0  0  0  0  0  0  0
    2.7987    1.2991   -1.4575 H   0  0  0  0  0  0  0  0  0  0  0  0
    4.6278    2.6807   -0.6015 H   0  0  0  0  0  0  0  0  0  0  0  0
  1  2  1  0
  2  3  2  0
  3  4  1  0
  4  5  1  0
  5  6  1  0
  6  7  2  0
  6  8  1  0
  8  9  1  0
  9 10  2  0
 10 11  1  0
 11 12  1  0
 11 13  1  0
 13 14  2  0
 13 15  1  0
 15 16  2  0
 16 17  1  0
 17 18  2  0
 18 19  1  0
 19 20  2  0
  4 21  2  0
 21 22  1  0
 22 23  2  0
 23 24  1  0
 23  2  1  0
 20  9  1  0
 20 15  1  0
  1 25  1  0
  1 26  1  0
  1 27  1  0
  3 28  1  0
  5 29  1  0
  8 30  1  0
  8 31  1  0
 12 32  1  0
 12 33  1  0
 12 34  1  0
 16 35  1  0
 17 36  1  0
 18 37  1  0
 19 38  1  0
 21 39  1  0
 22 40  1  0
M  END
$$$$
