
     RDKit          3D

 49 51  0  0  0  0  0  0  0  0999 V2000
   -7.5441    1.5975   -1.8016 C   0  0  0  0  0  0  0  0  0  0  0  0
   -6.6245    0.6397   -1.2409 N   0  0  0  0  0  0  0  0  0  0  0  0
   -5.4298    1.0584   -0.6917 C   0  0  0  0  0  0  0  0  0  0  0  0
   -5.1100    2.2354   -0.5712 O   0  0  0  0  0  0  0  0  0  0  0  0
   -4.4909   -0.0139   -0.2685 C   0  0  0  0  0  0  0  0  0  0  0  0
   -4.9439   -1.2513    0.1957 C   0  0  0  0  0  0  0  0  0  0  0  0
   -4.0241   -2.2260    0.5885 C   0  0  0  0  0  0  0  0  0  0  0  0
   -2.6417   -1.9766    0.5406 C   0  0  0  0  0  0  0  0  0  0  0  0
   -1.7033   -3.0637    0.9896 C   0  0  0  0  0  0  0  0  0  0  0  0
   -2.1887   -0.7279    0.0665 C   0  0  0  0  0  0  0  0  0  0  0  0
   -0.7915   -0.4264   -0.0431 N   0  0  0  0  0  0  0  0  0  0  0  0
   -0.1901    0.5876    0.7181 C   0  0  0  0  0  0  0  0  0  0  0  0
   -0.9856    1.3230    1.7672 C   0  0  0  0  0  0  0  0  0  0  0  0
    1.1137    0.8632    0.5560 C   0  0  0  0  0  0  0  0  0  0  0  0
    1.9192    0.1323   -0.3839 C   0  0  0  0  0  0  0  0  0  0  0  0
    3.2336    0.5453   -0.4713 O   0  0  0  0  0  0  0  0  0  0  0  0
    4.0595   -0.1125    0.5019 C   0  0  0  0  0  0  0  0  0  0  0  0
    5.5047    0.2425    0.2630 C   0  0  0  0  0  0  0  0  0  0  0  0
    6.0278    0.3769   -1.0331 C   0  0  0  0  0  0  0  0  0  0  0  0
    7.3803    0.6709   -1.2200 C   0  0  0  0  0  0  0  0  0  0  0  0
    8.2123    0.8181   -0.1151 C   0  0  0  0  0  0  0  0  0  0  0  0
    9.5089    1.0979   -0.2997 F   0  0  0  0  0  0  0  0  0  0  0  0
    7.7219    0.6730    1.1741 C   0  0  0  0  0  0  0  0  0  0  0  0
    6.3746    0.3810    1.3510 C   0  0  0  0  0  0  0  0  0  0  0  0
    5.9082    0.2262    2.5986 F   0  0  0  0  0  0  0  0  0  0  0  0
    1.3866   -0.8089   -1.1788 C   0  0  0  0  0  0  0  0  0  0  0  0
    2.3768   -1.7321   -2.4721 Br  0  0  0  0  0  0  0  0  0  0  0  0
   -0.0719   -1.1472   -1.0272 C   0  0  0  0  0  0  0  0  0  0  0  0
   -0.5760   -2.0053   -1.7553 O   0  0  0  0  0  0  0  0  0  0  0  0
   -3.1184    0.2473   -0.3243 C   0  0  0  0  0  0  0  0  0  0  0  0
   -8.5148    1.1133   -1.9301 H   0  0  0  0  0  0  0  0  0  0  0  0
   -7.1613    1.9249   -2.7718 H   0  0  0  0  0  0  0  0  0  0  0  0
   -7.6424    2.4614   -1.1386 H   0  0  0  0  0  0  0  0  0  0  0  0
   -6.6984   -0.3194   -1.5529 H   0  0  0  0  0  0  0  0  0  0  0  0
   -6.0058   -1.4645    0.2804 H   0  0  0  0  0  0  0  0  0  0  0  0
   -4.3927   -3.1859    0.9466 H   0  0  0  0  0  0  0  0  0  0  0  0
   -0.8024   -2.6499    1.4531 H   0  0  0  0  0  0  0  0  0  0  0  0
   -2.1782   -3.6978    1.7465 H   0  0  0  0  0  0  0  0  0  0  0  0
   -1.4191   -3.6948    0.1426 H   0  0  0  0  0  0  0  0  0  0  0  0
   -1.7032    2.0098    1.3094 H   0  0  0  0  0  0  0  0  0  0  0  0
   -0.3385    1.9248    2.4159 H   0  0  0  0  0  0  0  0  0  0  0  0
   -1.5190    0.6241    2.4200 H   0  0  0  0  0  0  0  0  0  0  0  0
    1.5991    1.6446    1.1344 H   0  0  0  0  0  0  0  0  0  0  0  0
    3.9531   -1.2023    0.4291 H   0  0  0  0  0  0  0  0  0  0  0  0
    3.7526    0.2125    1.5034 H   0  0  0  0  0  0  0  0  0  0  0  0
    5.3840    0.2568   -1.9028 H   0  0  0  0  0  0  0  0  0  0  0  0
    7.7892    0.7833   -2.2197 H   0  0  0  0  0  0  0  0  0  0  0  0
    8.3794    0.7816    2.0282 H   0  0  0  0  0  0  0  0  0  0  0  0
   -2.7750    1.2066   -0.7068 H   0  0  0  0  0  0  0  0  0  0  0  0
  1  2  1  0
  2  3  1  0
  3  4  2  0
  3  5  1  0
  5  6  2  0
  6  7  1  0
  7  8  2  0
  8  9  1  0
  8 10  1  0
 10 11  1  0
 11 12  1  0
 12 13  1  0
 12 14  2  0
 14 15  1  0
 15 16  1  0
 16 17  1  0
 17 18  1  0
 18 19  2  0
 19 20  1  0
 20 21  2  0
 21 22  1  0
 21 23  1  0
 23 24  2  0
 24 25  1  0
 15 26  2  0
 26 27  1  0
 26 28  1  0
 28 29  2  0
 10 30  2  0
 30  5  1  0
 28 11  1  0
 24 18  1  0
  1 31  1  0
  1 32  1  0
  1 33  1  0
  2 34  1  0
  6 35  1  0
  7 36  1  0
  9 37  1  0
  9 38  1  0
  9 39  1  0
 13 40  1  0
 13 41  1  0
 13 42  1  0
 14 43  1  0
 17 44  1  0
 17 45  1  0
 19 46  1  0
 20 47  1  0
 23 48  1  0
 30 49  1  0
M  END
$$$$
