
     RDKit          3D

 53 53  0  0  0  0  0  0  0  0999 V2000
   -6.0963    0.9817   -1.6553 C   0  0  0  0  0  0  0  0  0  0  0  0
   -6.3891    0.6428   -0.2068 C   0  0  0  0  0  0  0  0  0  0  0  0
   -7.8758    0.4070   -0.0026 C   0  0  0  0  0  0  0  0  0  0  0  0
   -5.6728   -0.5740    0.1053 N   0  0  0  0  0  0  0  0  0  0  0  0
   -4.2540   -0.3625   -0.0206 C   0  0  0  0  0  0  0  0  0  0  0  0
   -3.7823    0.5538    1.0597 C   0  0  0  0  0  0  0  0  0  0  0  0
   -4.0629    0.0048    2.3226 O   0  0  0  0  0  0  0  0  0  0  0  0
   -2.2669    0.6316    0.9652 C   0  0  0  0  0  0  0  0  0  0  0  0
   -1.6969   -0.6671    1.0870 O   0  0  0  0  0  0  0  0  0  0  0  0
   -0.3156   -0.7642    1.0329 C   0  0  0  0  0  0  0  0  0  0  0  0
    0.5119    0.3272    0.8725 C   0  0  0  0  0  0  0  0  0  0  0  0
    1.8901    0.2134    0.8204 C   0  0  0  0  0  0  0  0  0  0  0  0
    2.4867   -1.0222    0.9296 C   0  0  0  0  0  0  0  0  0  0  0  0
    3.9528   -1.1931    0.8824 C   0  0  0  0  0  0  0  0  0  0  0  0
    4.4511   -1.3970   -0.5288 C   0  0  0  0  0  0  0  0  0  0  0  0
    5.8246   -1.5680   -0.5835 O   0  0  0  0  0  0  0  0  0  0  0  0
    6.5100   -0.4957   -0.0849 C   0  0  0  0  0  0  0  0  0  0  0  0
    6.2536    0.8106   -0.7847 C   0  0  0  0  0  0  0  0  0  0  0  0
    6.5523    0.9660   -2.2255 C   0  0  0  0  0  0  0  0  0  0  0  0
    7.4465    1.6611   -1.1914 C   0  0  0  0  0  0  0  0  0  0  0  0
    1.6913   -2.1355    1.0907 C   0  0  0  0  0  0  0  0  0  0  0  0
    0.3173   -2.0055    1.1411 C   0  0  0  0  0  0  0  0  0  0  0  0
    0.6860    0.0000    0.0000 Cl  0  0  0  0  0  0  0  0  0  0  0  0
   -6.9546    1.5087   -2.1356 H   0  0  0  0  0  0  0  0  0  0  0  0
   -5.1722    1.5873   -1.6996 H   0  0  0  0  0  0  0  0  0  0  0  0
   -5.9295    0.0826   -2.2809 H   0  0  0  0  0  0  0  0  0  0  0  0
   -6.0972    1.4941    0.4352 H   0  0  0  0  0  0  0  0  0  0  0  0
   -8.0202   -0.1049    0.9671 H   0  0  0  0  0  0  0  0  0  0  0  0
   -8.2537   -0.2836   -0.7924 H   0  0  0  0  0  0  0  0  0  0  0  0
   -8.4593    1.3384   -0.0350 H   0  0  0  0  0  0  0  0  0  0  0  0
   -5.9448   -1.3546   -0.5302 H   0  0  0  0  0  0  0  0  0  0  0  0
   -3.7101   -1.3308    0.0851 H   0  0  0  0  0  0  0  0  0  0  0  0
   -3.9998    0.0676   -1.0111 H   0  0  0  0  0  0  0  0  0  0  0  0
   -4.1540    1.5871    0.9756 H   0  0  0  0  0  0  0  0  0  0  0  0
   -4.2947    0.7684    2.9137 H   0  0  0  0  0  0  0  0  0  0  0  0
   -1.9331    1.2030    1.8553 H   0  0  0  0  0  0  0  0  0  0  0  0
   -1.9070    1.0874    0.0433 H   0  0  0  0  0  0  0  0  0  0  0  0
    0.0586    1.2938    0.7852 H   0  0  0  0  0  0  0  0  0  0  0  0
    2.5364    1.0691    0.6944 H   0  0  0  0  0  0  0  0  0  0  0  0
    4.3852   -0.2322    1.2388 H   0  0  0  0  0  0  0  0  0  0  0  0
    4.2212   -2.0241    1.5495 H   0  0  0  0  0  0  0  0  0  0  0  0
    4.1014   -0.5819   -1.1838 H   0  0  0  0  0  0  0  0  0  0  0  0
    3.9977   -2.3478   -0.9292 H   0  0  0  0  0  0  0  0  0  0  0  0
    7.6135   -0.7206   -0.2128 H   0  0  0  0  0  0  0  0  0  0  0  0
    6.3878   -0.3714    1.0222 H   0  0  0  0  0  0  0  0  0  0  0  0
    5.3884    1.4456   -0.4338 H   0  0  0  0  0  0  0  0  0  0  0  0
    5.9316    1.6222   -2.8772 H   0  0  0  0  0  0  0  0  0  0  0  0
    7.1172    0.1888   -2.7995 H   0  0  0  0  0  0  0  0  0  0  0  0
    8.4183    1.2075   -0.9406 H   0  0  0  0  0  0  0  0  0  0  0  0
    7.3746    2.7624   -1.1406 H   0  0  0  0  0  0  0  0  0  0  0  0
    2.1360   -3.1140    1.1778 H   0  0  0  0  0  0  0  0  0  0  0  0
   -0.3128   -2.8635    1.2648 H   0  0  0  0  0  0  0  0  0  0  0  0
   -0.6860    0.0000    0.0000 H   0  0  0  0  0  0  0  0  0  0  0  0
  1  2  1  0
  2  3  1  0
  2  4  1  0
  4  5  1  0
  5  6  1  0
  6  7  1  0
  6  8  1  0
  8  9  1  0
  9 10  1  0
 10 11  2  0
 11 12  1  0
 12 13  2  0
 13 14  1  0
 14 15  1  0
 15 16  1  0
 16 17  1  0
 17 18  1  0
 18 19  1  0
 19 20  1  0
 13 21  1  0
 21 22  2  0
 22 10  1  0
 20 18  1  0
  1 24  1  0
  1 25  1  0
  1 26  1  0
  2 27  1  0
  3 28  1  0
  3 29  1  0
  3 30  1  0
  4 31  1  0
  5 32  1  0
  5 33  1  0
  6 34  1  0
  7 35  1  0
  8 36  1  0
  8 37  1  0
 11 38  1  0
 12 39  1  0
 14 40  1  0
 14 41  1  0
 15 42  1  0
 15 43  1  0
 17 44  1  0
 17 45  1  0
 18 46  1  0
 19 47  1  0
 19 48  1  0
 20 49  1  0
 20 50  1  0
 21 51  1  0
 22 52  1  0
 23 53  1  0
M  END
$$$$
