
     RDKit          3D

 33 34  0  0  0  0  0  0  0  0999 V2000
   -0.1214    2.1880   -0.2156 O   0  0  0  0  0  0  0  0  0  0  0  0
   -0.1513    0.9688   -0.1496 C   0  0  0  0  0  0  0  0  0  0  0  0
    0.9068    0.1360    0.1386 N   0  0  0  0  0  0  0  0  0  0  0  0
    2.1496    0.6125    0.5074 C   0  0  0  0  0  0  0  0  0  0  0  0
    2.3641    1.6262    1.1607 O   0  0  0  0  0  0  0  0  0  0  0  0
    3.3024   -0.2575    0.1455 C   0  0  0  0  0  0  0  0  0  0  0  0
    4.5106    0.3602   -0.2017 C   0  0  0  0  0  0  0  0  0  0  0  0
    5.6173   -0.4145   -0.5542 C   0  0  0  0  0  0  0  0  0  0  0  0
    5.5235   -1.8066   -0.5505 C   0  0  0  0  0  0  0  0  0  0  0  0
    4.3278   -2.4276   -0.1861 C   0  0  0  0  0  0  0  0  0  0  0  0
    3.2164   -1.6570    0.1662 C   0  0  0  0  0  0  0  0  0  0  0  0
   -1.2892    0.2236   -0.4178 N   0  0  0  0  0  0  0  0  0  0  0  0
   -2.5444    0.9053   -0.7032 C   0  0  0  0  0  0  0  0  0  0  0  0
   -3.2118    1.4407    0.5731 C   0  0  0  0  0  0  0  0  0  0  0  0
   -4.3565    0.4771    0.8519 C   0  0  0  0  0  0  0  0  0  0  0  0
   -4.8481    0.1221   -0.5391 C   0  0  0  0  0  0  0  0  0  0  0  0
   -3.5605   -0.0573   -1.3368 C   0  0  0  0  0  0  0  0  0  0  0  0
    0.8828   -0.6995   -0.4209 H   0  0  0  0  0  0  0  0  0  0  0  0
    4.5895    1.4468   -0.1983 H   0  0  0  0  0  0  0  0  0  0  0  0
    6.5529    0.0692   -0.8261 H   0  0  0  0  0  0  0  0  0  0  0  0
    6.3887   -2.4087   -0.8203 H   0  0  0  0  0  0  0  0  0  0  0  0
    4.2681   -3.5140   -0.1649 H   0  0  0  0  0  0  0  0  0  0  0  0
    2.3101   -2.1638    0.4851 H   0  0  0  0  0  0  0  0  0  0  0  0
   -1.3654   -0.6182    0.1358 H   0  0  0  0  0  0  0  0  0  0  0  0
   -2.3306    1.7377   -1.3845 H   0  0  0  0  0  0  0  0  0  0  0  0
   -2.5348    1.5278    1.4269 H   0  0  0  0  0  0  0  0  0  0  0  0
   -3.6235    2.4360    0.3741 H   0  0  0  0  0  0  0  0  0  0  0  0
   -5.1398    0.9316    1.4653 H   0  0  0  0  0  0  0  0  0  0  0  0
   -3.9857   -0.4172    1.3665 H   0  0  0  0  0  0  0  0  0  0  0  0
   -5.4377    0.9489   -0.9543 H   0  0  0  0  0  0  0  0  0  0  0  0
   -5.4708   -0.7775   -0.5450 H   0  0  0  0  0  0  0  0  0  0  0  0
   -3.2230   -1.1008   -1.2647 H   0  0  0  0  0  0  0  0  0  0  0  0
   -3.7162    0.1614   -2.4003 H   0  0  0  0  0  0  0  0  0  0  0  0
  1  2  2  0
  2  3  1  0
  3  4  1  0
  4  5  2  0
  4  6  1  0
  6  7  2  0
  7  8  1  0
  8  9  2  0
  9 10  1  0
 10 11  2  0
  2 12  1  0
 12 13  1  0
 13 14  1  0
 14 15  1  0
 15 16  1  0
 16 17  1  0
 11  6  1  0
 17 13  1  0
  3 18  1  0
  7 19  1  0
  8 20  1  0
  9 21  1  0
 10 22  1  0
 11 23  1  0
 12 24  1  0
 13 25  1  0
 14 26  1  0
 14 27  1  0
 15 28  1  0
 15 29  1  0
 16 30  1  0
 16 31  1  0
 17 32  1  0
 17 33  1  0
M  END
$$$$
