
     RDKit          3D

 42 43  0  0  0  0  0  0  0  0999 V2000
   -5.5175   -2.8205    0.0611 C   0  0  0  0  0  0  0  0  0  0  0  0
   -5.3398   -1.4109    0.1068 O   0  0  0  0  0  0  0  0  0  0  0  0
   -4.1532   -0.9072   -0.3547 C   0  0  0  0  0  0  0  0  0  0  0  0
   -3.0461   -1.6873   -0.7082 C   0  0  0  0  0  0  0  0  0  0  0  0
   -1.8810   -1.0880   -1.1988 C   0  0  0  0  0  0  0  0  0  0  0  0
   -1.8214    0.2990   -1.3361 C   0  0  0  0  0  0  0  0  0  0  0  0
   -0.3573    1.0676   -1.9691 S   0  0  0  0  0  6  0  0  0  0  0  0
    0.5718    0.0391   -2.3792 O   0  0  0  0  0  0  0  0  0  0  0  0
   -0.7630    2.1275   -2.8632 O   0  0  0  0  0  0  0  0  0  0  0  0
    0.2678    1.8131   -0.6122 N   0  0  0  0  0  0  0  0  0  0  0  0
    0.9547    1.0435    0.4248 C   0  0  0  0  0  0  0  0  0  0  0  0
    2.4374    0.8457    0.1069 C   0  0  0  0  0  0  0  0  0  0  0  0
    3.0695    0.3204    1.2771 O   0  0  0  0  0  0  0  0  0  0  0  0
    4.4153    0.0854    1.2015 C   0  0  0  0  0  0  0  0  0  0  0  0
    5.0024   -0.3360    2.3972 C   0  0  0  0  0  0  0  0  0  0  0  0
    6.3693   -0.6117    2.4605 C   0  0  0  0  0  0  0  0  0  0  0  0
    7.1590   -0.4677    1.3227 C   0  0  0  0  0  0  0  0  0  0  0  0
    6.5800   -0.0509    0.1260 C   0  0  0  0  0  0  0  0  0  0  0  0
    5.2104    0.2250    0.0634 C   0  0  0  0  0  0  0  0  0  0  0  0
   -2.9154    1.0939   -0.9965 C   0  0  0  0  0  0  0  0  0  0  0  0
   -4.0647    0.4909   -0.4826 C   0  0  0  0  0  0  0  0  0  0  0  0
   -5.1056    1.3384   -0.1944 O   0  0  0  0  0  0  0  0  0  0  0  0
   -5.4051    1.3544    1.2004 C   0  0  0  0  0  0  0  0  0  0  0  0
   -4.8363   -3.3239    0.7549 H   0  0  0  0  0  0  0  0  0  0  0  0
   -5.4018   -3.2037   -0.9580 H   0  0  0  0  0  0  0  0  0  0  0  0
   -6.5396   -3.0391    0.3844 H   0  0  0  0  0  0  0  0  0  0  0  0
   -3.0582   -2.7696   -0.6199 H   0  0  0  0  0  0  0  0  0  0  0  0
   -1.0338   -1.7119   -1.4777 H   0  0  0  0  0  0  0  0  0  0  0  0
    0.4118    2.8183   -0.6891 H   0  0  0  0  0  0  0  0  0  0  0  0
    0.8500    1.5839    1.3731 H   0  0  0  0  0  0  0  0  0  0  0  0
    0.4694    0.0750    0.5858 H   0  0  0  0  0  0  0  0  0  0  0  0
    2.5480    0.1440   -0.7273 H   0  0  0  0  0  0  0  0  0  0  0  0
    2.8880    1.8102   -0.1602 H   0  0  0  0  0  0  0  0  0  0  0  0
    4.3900   -0.4495    3.2877 H   0  0  0  0  0  0  0  0  0  0  0  0
    6.8142   -0.9387    3.3959 H   0  0  0  0  0  0  0  0  0  0  0  0
    8.2233   -0.6827    1.3673 H   0  0  0  0  0  0  0  0  0  0  0  0
    7.1945    0.0583   -0.7637 H   0  0  0  0  0  0  0  0  0  0  0  0
    4.7995    0.5408   -0.8891 H   0  0  0  0  0  0  0  0  0  0  0  0
   -2.8816    2.1730   -1.1229 H   0  0  0  0  0  0  0  0  0  0  0  0
   -6.0722    0.5291    1.4687 H   0  0  0  0  0  0  0  0  0  0  0  0
   -4.4988    1.3335    1.8184 H   0  0  0  0  0  0  0  0  0  0  0  0
   -5.9340    2.2889    1.4133 H   0  0  0  0  0  0  0  0  0  0  0  0
  1  2  1  0
  2  3  1  0
  3  4  2  0
  4  5  1  0
  5  6  2  0
  6  7  1  0
  7  8  2  0
  7  9  2  0
  7 10  1  0
 10 11  1  0
 11 12  1  0
 12 13  1  0
 13 14  1  0
 14 15  2  0
 15 16  1  0
 16 17  2  0
 17 18  1  0
 18 19  2  0
  6 20  1  0
 20 21  2  0
 21 22  1  0
 22 23  1  0
 21  3  1  0
 19 14  1  0
  1 24  1  0
  1 25  1  0
  1 26  1  0
  4 27  1  0
  5 28  1  0
 10 29  1  0
 11 30  1  0
 11 31  1  0
 12 32  1  0
 12 33  1  0
 15 34  1  0
 16 35  1  0
 17 36  1  0
 18 37  1  0
 19 38  1  0
 20 39  1  0
 23 40  1  0
 23 41  1  0
 23 42  1  0
M  END
$$$$
