
     RDKit          3D

 51 54  0  0  0  0  0  0  0  0999 V2000
   -2.2462    2.5035    1.0496 C   0  0  0  0  0  0  0  0  0  0  0  0
   -3.0954    1.3480    0.5961 C   0  0  0  0  0  0  0  0  0  0  0  0
   -4.1473    1.6022   -0.3035 C   0  0  0  0  0  0  0  0  0  0  0  0
   -4.9864    0.5710   -0.7319 C   0  0  0  0  0  0  0  0  0  0  0  0
   -4.7967   -0.7297   -0.2695 C   0  0  0  0  0  0  0  0  0  0  0  0
   -3.7619   -1.0035    0.6205 C   0  0  0  0  0  0  0  0  0  0  0  0
   -2.9122    0.0266    1.0524 C   0  0  0  0  0  0  0  0  0  0  0  0
   -1.6183   -0.4006    2.2061 S   0  0  0  0  0  6  0  0  0  0  0  0
   -1.6426    0.5673    3.2809 O   0  0  0  0  0  0  0  0  0  0  0  0
   -1.6894   -1.8198    2.4859 O   0  0  0  0  0  0  0  0  0  0  0  0
   -0.1946   -0.1567    1.2957 N   0  0  0  0  0  0  0  0  0  0  0  0
   -0.0309   -1.0532    0.0964 C   0  0  0  0  0  0  0  0  0  0  0  0
    1.2047   -1.9542    0.2007 C   0  0  0  0  0  0  0  0  0  0  0  0
    2.4249   -1.1627    0.3834 N   0  0  0  0  0  0  0  0  0  0  0  0
    3.4400   -1.2764   -0.5624 C   0  0  0  0  0  0  0  0  0  0  0  0
    3.3811   -2.0078   -1.5462 O   0  0  0  0  0  0  0  0  0  0  0  0
    4.6621   -0.4616   -0.3924 C   0  0  0  0  0  0  0  0  0  0  0  0
    5.0180    0.4402   -1.3997 C   0  0  0  0  0  0  0  0  0  0  0  0
    6.1867    1.1954   -1.2720 C   0  0  0  0  0  0  0  0  0  0  0  0
    7.0060    1.0371   -0.1468 C   0  0  0  0  0  0  0  0  0  0  0  0
    8.2061    1.8115   -0.0172 C   0  0  0  0  0  0  0  0  0  0  0  0
    9.1739    2.4420    0.0934 N   0  0  0  0  0  0  0  0  0  0  0  0
    6.6558    0.1141    0.8474 C   0  0  0  0  0  0  0  0  0  0  0  0
    5.4875   -0.6424    0.7222 C   0  0  0  0  0  0  0  0  0  0  0  0
    2.3099   -0.0316    1.3141 C   0  0  0  0  0  0  0  0  0  0  0  0
    1.0292   -0.0764    2.1584 C   0  0  0  0  0  0  0  0  0  0  0  0
   -5.5490   -1.7978   -0.6672 O   0  0  0  0  0  0  0  0  0  0  0  0
   -6.7385   -1.4691   -1.3689 C   0  0  0  0  0  0  0  0  0  0  0  0
   -6.8863   -0.1093   -2.0501 C   0  0  0  0  0  0  0  0  0  0  0  0
   -7.7631    0.1386   -2.8741 O   0  0  0  0  0  0  0  0  0  0  0  0
   -6.0034    0.8500   -1.6421 N   0  0  0  0  0  0  0  0  0  0  0  0
   -2.4483    3.4014    0.4546 H   0  0  0  0  0  0  0  0  0  0  0  0
   -2.4628    2.7492    2.0932 H   0  0  0  0  0  0  0  0  0  0  0  0
   -1.1819    2.2870    0.9295 H   0  0  0  0  0  0  0  0  0  0  0  0
   -4.3118    2.6151   -0.6662 H   0  0  0  0  0  0  0  0  0  0  0  0
   -3.6270   -2.0244    0.9728 H   0  0  0  0  0  0  0  0  0  0  0  0
    0.0557   -0.3988   -0.7797 H   0  0  0  0  0  0  0  0  0  0  0  0
   -0.9139   -1.6794   -0.0605 H   0  0  0  0  0  0  0  0  0  0  0  0
    1.2742   -2.5923   -0.6856 H   0  0  0  0  0  0  0  0  0  0  0  0
    1.1194   -2.6164    1.0704 H   0  0  0  0  0  0  0  0  0  0  0  0
    4.3925    0.5463   -2.2837 H   0  0  0  0  0  0  0  0  0  0  0  0
    6.4585    1.8966   -2.0597 H   0  0  0  0  0  0  0  0  0  0  0  0
    7.2960   -0.0300    1.7163 H   0  0  0  0  0  0  0  0  0  0  0  0
    5.2331   -1.3791    1.4807 H   0  0  0  0  0  0  0  0  0  0  0  0
    3.1800   -0.0209    1.9759 H   0  0  0  0  0  0  0  0  0  0  0  0
    2.3293    0.8871    0.7152 H   0  0  0  0  0  0  0  0  0  0  0  0
    1.0637   -0.9416    2.8317 H   0  0  0  0  0  0  0  0  0  0  0  0
    0.9785    0.8335    2.7663 H   0  0  0  0  0  0  0  0  0  0  0  0
   -6.8644   -2.2301   -2.1471 H   0  0  0  0  0  0  0  0  0  0  0  0
   -7.5758   -1.5716   -0.6687 H   0  0  0  0  0  0  0  0  0  0  0  0
   -6.1190    1.7737   -2.0375 H   0  0  0  0  0  0  0  0  0  0  0  0
  1  2  1  0
  2  3  2  0
  3  4  1  0
  4  5  2  0
  5  6  1  0
  6  7  2  0
  7  8  1  0
  8  9  2  0
  8 10  2  0
  8 11  1  0
 11 12  1  0
 12 13  1  0
 13 14  1  0
 14 15  1  0
 15 16  2  0
 15 17  1  0
 17 18  2  0
 18 19  1  0
 19 20  2  0
 20 21  1  0
 21 22  3  0
 20 23  1  0
 23 24  2  0
 14 25  1  0
 25 26  1  0
  5 27  1  0
 27 28  1  0
 28 29  1  0
 29 30  2  0
 29 31  1  0
  7  2  1  0
 26 11  1  0
 31  4  1  0
 24 17  1  0
  1 32  1  0
  1 33  1  0
  1 34  1  0
  3 35  1  0
  6 36  1  0
 12 37  1  0
 12 38  1  0
 13 39  1  0
 13 40  1  0
 18 41  1  0
 19 42  1  0
 23 43  1  0
 24 44  1  0
 25 45  1  0
 25 46  1  0
 26 47  1  0
 26 48  1  0
 28 49  1  0
 28 50  1  0
 31 51  1  0
M  END
$$$$
