
     RDKit          3D

 64 66  0  0  0  0  0  0  0  0999 V2000
   -3.5087   -3.4925    2.8960 C   0  0  0  0  0  0  0  0  0  0  0  0
   -2.4686   -2.5284    2.3835 C   0  0  0  0  0  0  0  0  0  0  0  0
   -1.5688   -2.1357    3.1255 O   0  0  0  0  0  0  0  0  0  0  0  0
   -2.5794   -2.1232    1.0613 N   0  0  0  0  0  0  0  0  0  0  0  0
   -3.5669   -2.6472    0.1167 C   0  0  0  0  0  0  0  0  0  0  0  0
   -3.0421   -2.6313   -1.3147 C   0  0  0  0  0  0  0  0  0  0  0  0
   -2.6041   -1.2379   -1.7762 C   0  0  0  0  0  0  0  0  0  0  0  0
   -2.2455   -0.2915   -0.6057 C   0  0  0  0  0  0  0  0  0  0  0  0
   -1.4677    0.8436   -1.1534 N   0  0  0  0  0  0  0  0  0  0  0  0
   -0.0158    0.5913   -1.2188 C   0  0  0  0  0  0  0  0  0  0  0  0
    0.6753    1.3505   -2.3712 C   0  0  0  0  0  0  0  0  0  0  0  0
    2.0975    1.0598   -2.4300 N   0  0  0  0  0  0  0  0  0  0  0  0
    2.9884    1.7364   -1.6199 C   0  0  0  0  0  0  0  0  0  0  0  0
    2.6607    2.6706   -0.8924 O   0  0  0  0  0  0  0  0  0  0  0  0
    4.4120    1.2155   -1.6938 C   0  0  0  0  0  0  0  0  0  0  0  0
    4.7106    0.2196   -0.6025 C   0  0  0  0  0  0  0  0  0  0  0  0
    4.9867    0.6643    0.6976 C   0  0  0  0  0  0  0  0  0  0  0  0
    5.2513   -0.2497    1.7199 C   0  0  0  0  0  0  0  0  0  0  0  0
    5.2278   -1.6248    1.4644 C   0  0  0  0  0  0  0  0  0  0  0  0
    5.5404   -2.6086    2.5532 C   0  0  0  0  0  0  0  0  0  0  0  0
    4.9543   -2.0710    0.1651 C   0  0  0  0  0  0  0  0  0  0  0  0
    4.6915   -1.1575   -0.8593 C   0  0  0  0  0  0  0  0  0  0  0  0
   -1.7864    2.1697   -0.5691 C   0  0  0  0  0  0  0  0  0  0  0  0
   -3.1285    2.6963   -1.1109 C   0  0  0  0  0  0  0  0  0  0  0  0
   -3.4155    4.0815   -0.5434 C   0  0  0  0  0  0  0  0  0  0  0  0
   -3.4033    4.0580    0.8830 O   0  0  0  0  0  0  0  0  0  0  0  0
   -2.1297    3.6782    1.4050 C   0  0  0  0  0  0  0  0  0  0  0  0
   -1.7705    2.2638    0.9650 C   0  0  0  0  0  0  0  0  0  0  0  0
   -1.6385   -1.1126    0.5605 C   0  0  0  0  0  0  0  0  0  0  0  0
   -3.4210   -3.5734    3.9845 H   0  0  0  0  0  0  0  0  0  0  0  0
   -3.3481   -4.4830    2.4611 H   0  0  0  0  0  0  0  0  0  0  0  0
   -4.5153   -3.1306    2.6668 H   0  0  0  0  0  0  0  0  0  0  0  0
   -4.4655   -2.0249    0.2051 H   0  0  0  0  0  0  0  0  0  0  0  0
   -3.8451   -3.6697    0.3870 H   0  0  0  0  0  0  0  0  0  0  0  0
   -3.7984   -3.0268   -2.0023 H   0  0  0  0  0  0  0  0  0  0  0  0
   -2.1788   -3.3072   -1.3788 H   0  0  0  0  0  0  0  0  0  0  0  0
   -3.4109   -0.7795   -2.3653 H   0  0  0  0  0  0  0  0  0  0  0  0
   -1.7599   -1.3606   -2.4682 H   0  0  0  0  0  0  0  0  0  0  0  0
   -3.2109    0.0866   -0.2449 H   0  0  0  0  0  0  0  0  0  0  0  0
    0.1730   -0.4725   -1.4161 H   0  0  0  0  0  0  0  0  0  0  0  0
    0.4693    0.8088   -0.2587 H   0  0  0  0  0  0  0  0  0  0  0  0
    0.5506    2.4339   -2.2746 H   0  0  0  0  0  0  0  0  0  0  0  0
    0.2481    1.0453   -3.3334 H   0  0  0  0  0  0  0  0  0  0  0  0
    2.3756    0.1575   -2.7915 H   0  0  0  0  0  0  0  0  0  0  0  0
    4.5943    0.7712   -2.6805 H   0  0  0  0  0  0  0  0  0  0  0  0
    5.0967    2.0702   -1.6238 H   0  0  0  0  0  0  0  0  0  0  0  0
    4.9913    1.7297    0.9239 H   0  0  0  0  0  0  0  0  0  0  0  0
    5.4696    0.1214    2.7190 H   0  0  0  0  0  0  0  0  0  0  0  0
    6.5921   -2.9078    2.4950 H   0  0  0  0  0  0  0  0  0  0  0  0
    5.3518   -2.1775    3.5421 H   0  0  0  0  0  0  0  0  0  0  0  0
    4.9101   -3.4995    2.4617 H   0  0  0  0  0  0  0  0  0  0  0  0
    4.9422   -3.1370   -0.0557 H   0  0  0  0  0  0  0  0  0  0  0  0
    4.4761   -1.5359   -1.8571 H   0  0  0  0  0  0  0  0  0  0  0  0
   -1.0381    2.8859   -0.9309 H   0  0  0  0  0  0  0  0  0  0  0  0
   -3.1117    2.7418   -2.2063 H   0  0  0  0  0  0  0  0  0  0  0  0
   -3.9486    2.0300   -0.8205 H   0  0  0  0  0  0  0  0  0  0  0  0
   -2.6889    4.8197   -0.9029 H   0  0  0  0  0  0  0  0  0  0  0  0
   -4.4080    4.4152   -0.8628 H   0  0  0  0  0  0  0  0  0  0  0  0
   -2.1905    3.7231    2.4972 H   0  0  0  0  0  0  0  0  0  0  0  0
   -1.3718    4.4035    1.0866 H   0  0  0  0  0  0  0  0  0  0  0  0
   -2.5130    1.5809    1.3930 H   0  0  0  0  0  0  0  0  0  0  0  0
   -0.7889    1.9926    1.3674 H   0  0  0  0  0  0  0  0  0  0  0  0
   -1.3400   -0.4580    1.3849 H   0  0  0  0  0  0  0  0  0  0  0  0
   -0.7437   -1.6604    0.2416 H   0  0  0  0  0  0  0  0  0  0  0  0
  1  2  1  0
  2  3  2  0
  2  4  1  0
  4  5  1  0
  5  6  1  0
  6  7  1  0
  7  8  1  0
  8  9  1  0
  9 10  1  0
 10 11  1  0
 11 12  1  0
 12 13  1  0
 13 14  2  0
 13 15  1  0
 15 16  1  0
 16 17  2  0
 17 18  1  0
 18 19  2  0
 19 20  1  0
 19 21  1  0
 21 22  2  0
  9 23  1  0
 23 24  1  0
 24 25  1  0
 25 26  1  0
 26 27  1  0
 27 28  1  0
  8 29  1  0
 29  4  1  0
 22 16  1  0
 28 23  1  0
  1 30  1  0
  1 31  1  0
  1 32  1  0
  5 33  1  0
  5 34  1  0
  6 35  1  0
  6 36  1  0
  7 37  1  0
  7 38  1  0
  8 39  1  0
 10 40  1  0
 10 41  1  0
 11 42  1  0
 11 43  1  0
 12 44  1  0
 15 45  1  0
 15 46  1  0
 17 47  1  0
 18 48  1  0
 20 49  1  0
 20 50  1  0
 20 51  1  0
 21 52  1  0
 22 53  1  0
 23 54  1  0
 24 55  1  0
 24 56  1  0
 25 57  1  0
 25 58  1  0
 27 59  1  0
 27 60  1  0
 28 61  1  0
 28 62  1  0
 29 63  1  0
 29 64  1  0
M  END
$$$$
