
     RDKit          3D

 44 46  0  0  0  0  0  0  0  0999 V2000
   -4.4986    1.2000    0.9786 C   0  0  0  0  0  0  0  0  0  0  0  0
   -3.7071    0.5343   -0.0391 N   0  0  0  0  0  0  0  0  0  0  0  0
   -2.4565    1.1950   -0.4207 C   0  0  0  0  0  0  0  0  0  0  0  0
   -1.9430    0.2014   -1.4695 C   0  0  0  0  0  0  0  0  0  0  0  0
   -2.4992   -1.1501   -1.0201 C   0  0  0  0  0  0  0  0  0  0  0  0
   -3.2901   -0.8365    0.2575 C   0  0  1  0  0  0  0  0  0  0  0  0
   -2.4167   -0.9209    1.5190 C   0  0  0  0  0  0  0  0  0  0  0  0
   -1.2011    0.0145    1.4868 C   0  0  1  0  0  0  0  0  0  0  0  0
   -0.1257   -0.6839    0.8194 O   0  0  0  0  0  0  0  0  0  0  0  0
    1.1448   -0.3777    1.2049 C   0  0  0  0  0  0  0  0  0  0  0  0
    1.4338    0.4046    2.1025 O   0  0  0  0  0  0  0  0  0  0  0  0
    2.1481   -1.1000    0.3185 C   0  0  2  0  0  0  0  0  0  0  0  0
    3.1867   -1.8038    1.1996 C   0  0  0  0  0  0  0  0  0  0  0  0
    2.6220   -2.9703    1.7834 O   0  0  0  0  0  0  0  0  0  0  0  0
    2.7853   -0.1321   -0.6683 C   0  0  0  0  0  0  0  0  0  0  0  0
    2.4867   -0.2182   -2.0362 C   0  0  0  0  0  0  0  0  0  0  0  0
    3.0684    0.6696   -2.9484 C   0  0  0  0  0  0  0  0  0  0  0  0
    3.9518    1.6491   -2.5036 C   0  0  0  0  0  0  0  0  0  0  0  0
    4.2471    1.7525   -1.1473 C   0  0  0  0  0  0  0  0  0  0  0  0
    3.6652    0.8692   -0.2341 C   0  0  0  0  0  0  0  0  0  0  0  0
   -1.4785    1.3387    0.7592 C   0  0  0  0  0  0  0  0  0  0  0  0
   -3.9838    1.3410    1.9269 H   0  0  0  0  0  0  0  0  0  0  0  0
   -5.4110    0.6356    1.1797 H   0  0  0  0  0  0  0  0  0  0  0  0
   -4.8138    2.1831    0.6251 H   0  0  0  0  0  0  0  0  0  0  0  0
   -2.6392    2.1712   -0.8782 H   0  0  0  0  0  0  0  0  0  0  0  0
   -2.3412    0.4472   -2.4575 H   0  0  0  0  0  0  0  0  0  0  0  0
   -0.8542    0.1925   -1.5554 H   0  0  0  0  0  0  0  0  0  0  0  0
   -1.7104   -1.8946   -0.8682 H   0  0  0  0  0  0  0  0  0  0  0  0
   -3.1696   -1.5394   -1.7946 H   0  0  0  0  0  0  0  0  0  0  0  0
   -4.1460   -1.5095    0.3508 H   0  0  0  0  0  0  0  0  0  0  0  0
   -3.0337   -0.6778    2.3920 H   0  0  0  0  0  0  0  0  0  0  0  0
   -2.0777   -1.9563    1.6518 H   0  0  0  0  0  0  0  0  0  0  0  0
   -0.9007    0.2141    2.5196 H   0  0  0  0  0  0  0  0  0  0  0  0
    1.6064   -1.8764   -0.2353 H   0  0  0  0  0  0  0  0  0  0  0  0
    3.5584   -1.1595    2.0068 H   0  0  0  0  0  0  0  0  0  0  0  0
    4.0448   -2.1251    0.5971 H   0  0  0  0  0  0  0  0  0  0  0  0
    3.3105   -3.3688    2.3403 H   0  0  0  0  0  0  0  0  0  0  0  0
    1.7973   -0.9779   -2.4068 H   0  0  0  0  0  0  0  0  0  0  0  0
    2.8343    0.5948   -4.0065 H   0  0  0  0  0  0  0  0  0  0  0  0
    4.4090    2.3361   -3.2132 H   0  0  0  0  0  0  0  0  0  0  0  0
    4.9293    2.5233   -0.7947 H   0  0  0  0  0  0  0  0  0  0  0  0
    3.8970    0.9816    0.8209 H   0  0  0  0  0  0  0  0  0  0  0  0
   -1.8875    2.0619    1.4768 H   0  0  0  0  0  0  0  0  0  0  0  0
   -0.5414    1.7676    0.3806 H   0  0  0  0  0  0  0  0  0  0  0  0
  1  2  1  0
  2  3  1  0
  3  4  1  0
  4  5  1  0
  5  6  1  0
  6  7  1  0
  7  8  1  0
  8  9  1  0
  9 10  1  0
 10 11  2  0
 10 12  1  0
 12 13  1  0
 13 14  1  0
 12 15  1  0
 15 16  2  0
 16 17  1  0
 17 18  2  0
 18 19  1  0
 19 20  2  0
  8 21  1  0
  6  2  1  0
 20 15  1  0
 21  3  1  0
  1 22  1  0
  1 23  1  0
  1 24  1  0
  3 25  1  0
  4 26  1  0
  4 27  1  0
  5 28  1  0
  5 29  1  0
  6 30  1  1
  7 31  1  0
  7 32  1  0
  8 33  1  1
 12 34  1  6
 13 35  1  0
 13 36  1  0
 14 37  1  0
 16 38  1  0
 17 39  1  0
 18 40  1  0
 19 41  1  0
 20 42  1  0
 21 43  1  0
 21 44  1  0
M  END
$$$$
