
     RDKit          3D

 92 97  0  0  0  0  0  0  0  0999 V2000
   -3.5508    4.4337   -1.2378 C   0  0  0  0  0  0  0  0  0  0  0  0
   -4.2479    3.3495   -0.4078 C   0  0  0  0  0  0  0  0  0  0  0  0
   -4.4468    3.8528    1.0230 C   0  0  0  0  0  0  0  0  0  0  0  0
   -3.4235    2.0465   -0.4682 C   0  0  0  0  0  0  0  0  0  0  0  0
   -4.0310    0.8251    0.2504 C   0  0  1  0  0  0  0  0  0  0  0  0
   -5.2102    0.2117   -0.5727 C   0  0  0  0  0  0  0  0  0  0  0  0
   -6.1700    0.8922   -0.9378 O   0  0  0  0  0  0  0  0  0  0  0  0
   -5.1419   -1.1358   -0.8663 N   0  0  0  0  0  0  0  0  0  0  0  0
   -6.0232   -1.7791   -1.8186 C   0  0  0  0  0  0  0  0  0  0  0  0
   -5.5370   -3.2242   -1.8670 C   0  0  0  0  0  0  0  0  0  0  0  0
   -4.0478   -3.1032   -1.5396 C   0  0  0  0  0  0  0  0  0  0  0  0
   -4.0410   -2.0153   -0.4651 C   0  0  1  0  0  0  0  0  0  0  0  0
   -2.7155   -1.2584   -0.2639 C   0  0  2  0  0  0  0  0  0  0  0  0
   -2.1919   -0.8011   -1.4849 O   0  0  0  0  0  0  0  0  0  0  0  0
   -1.7491   -2.0730    0.3878 O   0  0  0  0  0  0  0  0  0  0  0  0
   -1.3902   -1.4580    1.6359 C   0  0  2  0  0  0  0  0  0  0  0  0
    0.0396   -1.1984    1.6585 N   0  0  0  0  0  0  0  0  0  0  0  0
    0.6759   -0.4865    0.6576 C   0  0  0  0  0  0  0  0  0  0  0  0
    0.0974   -0.0870   -0.3493 O   0  0  0  0  0  0  0  0  0  0  0  0
    2.1676   -0.2474    0.9365 C   0  0  2  0  0  0  0  0  0  0  0  0
    2.7371    0.8283    0.0527 C   0  0  0  0  0  0  0  0  0  0  0  0
    3.9665    0.7151   -0.4825 C   0  0  0  0  0  0  0  0  0  0  0  0
    4.5021    1.7605   -1.3843 C   0  0  0  0  0  0  0  0  0  0  0  0
    3.7985    2.6642   -2.1881 C   0  0  0  0  0  0  0  0  0  0  0  0
    4.4832    3.5898   -2.9893 C   0  0  0  0  0  0  0  0  0  0  0  0
    5.8858    3.6505   -3.0180 C   0  0  0  0  0  0  0  0  0  0  0  0
    6.5721    2.7377   -2.2146 C   0  0  0  0  0  0  0  0  0  0  0  0
    7.9147    2.5145   -2.0016 N   0  0  0  0  0  0  0  0  0  0  0  0
    8.0865    1.4863   -1.1080 C   0  0  0  0  0  0  0  0  0  0  0  0
    9.7691    0.8410   -0.5135 Br  0  0  0  0  0  0  0  0  0  0  0  0
    6.8490    1.0301   -0.7314 C   0  0  0  0  0  0  0  0  0  0  0  0
    5.9009    1.8186   -1.4230 C   0  0  0  0  0  0  0  0  0  0  0  0
    6.3737   -0.0331    0.1988 C   0  0  0  0  0  0  0  0  0  0  0  0
    4.9083   -0.4893   -0.1672 C   0  0  1  0  0  0  0  0  0  0  0  0
    4.3784   -1.3903    0.9042 N   0  0  0  0  0  0  0  0  0  0  0  0
    5.0416   -2.6979    0.8849 C   0  0  0  0  0  0  0  0  0  0  0  0
    2.9226   -1.5759    0.7604 C   0  0  0  0  0  0  0  0  0  0  0  0
   -1.8306   -2.4391    2.7618 C   0  0  0  0  0  0  0  0  0  0  0  0
   -1.2173   -3.8359    2.5753 C   0  0  0  0  0  0  0  0  0  0  0  0
   -1.5345   -1.9502    4.1848 C   0  0  0  0  0  0  0  0  0  0  0  0
   -2.2023   -0.1540    1.6945 C   0  0  0  0  0  0  0  0  0  0  0  0
   -2.1668    0.6987    2.5674 O   0  0  0  0  0  0  0  0  0  0  0  0
   -2.9670   -0.1345    0.5631 N   0  0  0  0  0  0  0  0  0  0  0  0
   -1.0966   -0.2532    0.0490 C   0  0  0  0  0  0  0  0  0  0  0  0
    0.4880    0.5503    0.1042 S   0  0  0  0  0  6  0  0  0  0  0  0
    0.7572    1.1735   -1.1714 O   0  0  0  0  0  0  0  0  0  0  0  0
    0.6370    1.2458    1.3602 O   0  0  0  0  0  0  0  0  0  0  0  0
    1.4090   -0.7744    0.1481 O   0  0  0  0  0  0  0  0  0  0  0  0
   -4.1378    5.3584   -1.2413 H   0  0  0  0  0  0  0  0  0  0  0  0
   -2.5572    4.6637   -0.8386 H   0  0  0  0  0  0  0  0  0  0  0  0
   -3.4325    4.1110   -2.2778 H   0  0  0  0  0  0  0  0  0  0  0  0
   -5.2338    3.1836   -0.8534 H   0  0  0  0  0  0  0  0  0  0  0  0
   -3.4894    3.9579    1.5444 H   0  0  0  0  0  0  0  0  0  0  0  0
   -5.0793    3.1737    1.6016 H   0  0  0  0  0  0  0  0  0  0  0  0
   -4.9410    4.8305    1.0256 H   0  0  0  0  0  0  0  0  0  0  0  0
   -3.2543    1.7863   -1.5218 H   0  0  0  0  0  0  0  0  0  0  0  0
   -2.4301    2.2547   -0.0467 H   0  0  0  0  0  0  0  0  0  0  0  0
   -4.4509    1.1220    1.2172 H   0  0  0  0  0  0  0  0  0  0  0  0
   -7.0651   -1.6855   -1.5012 H   0  0  0  0  0  0  0  0  0  0  0  0
   -5.8990   -1.2827   -2.7874 H   0  0  0  0  0  0  0  0  0  0  0  0
   -5.7243   -3.6972   -2.8349 H   0  0  0  0  0  0  0  0  0  0  0  0
   -6.0394   -3.8161   -1.0916 H   0  0  0  0  0  0  0  0  0  0  0  0
   -3.6165   -4.0451   -1.1886 H   0  0  0  0  0  0  0  0  0  0  0  0
   -3.5043   -2.7858   -2.4369 H   0  0  0  0  0  0  0  0  0  0  0  0
   -4.3519   -2.4643    0.4894 H   0  0  0  0  0  0  0  0  0  0  0  0
   -1.3658   -0.3430   -1.2220 H   0  0  0  0  0  0  0  0  0  0  0  0
    0.4543   -1.1067    2.5745 H   0  0  0  0  0  0  0  0  0  0  0  0
    2.2589    0.1021    1.9739 H   0  0  0  0  0  0  0  0  0  0  0  0
    2.1137    1.6983   -0.1332 H   0  0  0  0  0  0  0  0  0  0  0  0
    2.7129    2.6487   -2.2123 H   0  0  0  0  0  0  0  0  0  0  0  0
    3.9107    4.2778   -3.6083 H   0  0  0  0  0  0  0  0  0  0  0  0
    6.4039    4.3718   -3.6410 H   0  0  0  0  0  0  0  0  0  0  0  0
    8.6668    3.0327   -2.4323 H   0  0  0  0  0  0  0  0  0  0  0  0
    6.3965    0.3599    1.2235 H   0  0  0  0  0  0  0  0  0  0  0  0
    7.0583   -0.8866    0.1523 H   0  0  0  0  0  0  0  0  0  0  0  0
    4.9601   -1.0622   -1.1070 H   0  0  0  0  0  0  0  0  0  0  0  0
    6.1093   -2.6105    1.1052 H   0  0  0  0  0  0  0  0  0  0  0  0
    4.6295   -3.3472    1.6660 H   0  0  0  0  0  0  0  0  0  0  0  0
    4.9231   -3.2080   -0.0776 H   0  0  0  0  0  0  0  0  0  0  0  0
    2.6821   -2.0322   -0.2106 H   0  0  0  0  0  0  0  0  0  0  0  0
    2.5698   -2.2757    1.5292 H   0  0  0  0  0  0  0  0  0  0  0  0
   -2.9197   -2.5670    2.6861 H   0  0  0  0  0  0  0  0  0  0  0  0
   -1.4881   -4.2668    1.6057 H   0  0  0  0  0  0  0  0  0  0  0  0
   -0.1247   -3.8060    2.6440 H   0  0  0  0  0  0  0  0  0  0  0  0
   -1.5815   -4.5219    3.3482 H   0  0  0  0  0  0  0  0  0  0  0  0
   -2.0293   -0.9992    4.3985 H   0  0  0  0  0  0  0  0  0  0  0  0
   -1.9064   -2.6735    4.9191 H   0  0  0  0  0  0  0  0  0  0  0  0
   -0.4617   -1.8290    4.3633 H   0  0  0  0  0  0  0  0  0  0  0  0
   -1.2196   -0.8530    0.9529 H   0  0  0  0  0  0  0  0  0  0  0  0
   -1.8657    0.5210    0.0062 H   0  0  0  0  0  0  0  0  0  0  0  0
   -1.1449   -0.8792   -0.8444 H   0  0  0  0  0  0  0  0  0  0  0  0
    2.0357   -0.7309   -0.6048 H   0  0  0  0  0  0  0  0  0  0  0  0
  1  2  1  0
  2  3  1  0
  2  4  1  0
  4  5  1  0
  5  6  1  0
  6  7  2  0
  6  8  1  0
  8  9  1  0
  9 10  1  0
 10 11  1  0
 11 12  1  0
 12 13  1  0
 13 14  1  6
 13 15  1  0
 15 16  1  0
 16 17  1  6
 17 18  1  0
 18 19  2  0
 18 20  1  0
 20 21  1  0
 21 22  2  0
 22 23  1  0
 23 24  2  0
 24 25  1  0
 25 26  2  0
 26 27  1  0
 27 28  1  0
 28 29  1  0
 29 30  1  0
 29 31  2  0
 31 32  1  0
 31 33  1  0
 33 34  1  0
 34 35  1  0
 35 36  1  0
 35 37  1  0
 16 38  1  0
 38 39  1  0
 38 40  1  0
 16 41  1  0
 41 42  2  0
 41 43  1  0
 44 45  1  0
 45 46  2  0
 45 47  2  0
 45 48  1  0
 43  5  1  0
 12  8  1  0
 43 13  1  0
 37 20  1  0
 34 22  1  0
 32 23  1  0
 32 27  2  0
  1 49  1  0
  1 50  1  0
  1 51  1  0
  2 52  1  0
  3 53  1  0
  3 54  1  0
  3 55  1  0
  4 56  1  0
  4 57  1  0
  5 58  1  1
  9 59  1  0
  9 60  1  0
 10 61  1  0
 10 62  1  0
 11 63  1  0
 11 64  1  0
 12 65  1  1
 14 66  1  0
 17 67  1  0
 20 68  1  1
 21 69  1  0
 24 70  1  0
 25 71  1  0
 26 72  1  0
 28 73  1  0
 33 74  1  0
 33 75  1  0
 34 76  1  6
 36 77  1  0
 36 78  1  0
 36 79  1  0
 37 80  1  0
 37 81  1  0
 38 82  1  0
 39 83  1  0
 39 84  1  0
 39 85  1  0
 40 86  1  0
 40 87  1  0
 40 88  1  0
 44 89  1  0
 44 90  1  0
 44 91  1  0
 48 92  1  0
M  END
$$$$
