
     RDKit          3D

 25 27  0  0  0  0  0  0  0  0999 V2000
   -0.3442   -1.6521   -1.3300 O   0  0  0  0  0  0  0  0  0  0  0  0
   -0.5731   -0.7132   -0.5803 C   0  0  0  0  0  0  0  0  0  0  0  0
   -1.9739   -0.3572   -0.2812 C   0  0  0  0  0  0  0  0  0  0  0  0
   -3.0983   -1.0033   -0.7824 C   0  0  0  0  0  0  0  0  0  0  0  0
   -4.3565   -0.5373   -0.3973 C   0  0  0  0  0  0  0  0  0  0  0  0
   -4.4703    0.5562    0.4739 C   0  0  0  0  0  0  0  0  0  0  0  0
   -3.3278    1.1940    0.9684 C   0  0  0  0  0  0  0  0  0  0  0  0
   -2.0820    0.7243    0.5805 C   0  0  0  0  0  0  0  0  0  0  0  0
   -0.5023    1.3395    1.0520 S   0  0  0  0  0  0  0  0  0  0  0  0
    0.3130    0.1443    0.0918 N   0  0  0  0  0  0  0  0  0  0  0  0
    1.7444    0.0863    0.0294 C   0  0  0  0  0  0  0  0  0  0  0  0
    2.4108   -0.8771   -0.7447 C   0  0  0  0  0  0  0  0  0  0  0  0
    3.8099   -0.9341   -0.8060 C   0  0  0  0  0  0  0  0  0  0  0  0
    4.5805   -0.0256   -0.0920 C   0  0  0  0  0  0  0  0  0  0  0  0
    3.9514    0.9396    0.6831 C   0  0  0  0  0  0  0  0  0  0  0  0
    2.5526    0.9936    0.7420 C   0  0  0  0  0  0  0  0  0  0  0  0
   -2.9967   -1.8491   -1.4565 H   0  0  0  0  0  0  0  0  0  0  0  0
   -5.2532   -1.0245   -0.7747 H   0  0  0  0  0  0  0  0  0  0  0  0
   -5.4566    0.9104    0.7670 H   0  0  0  0  0  0  0  0  0  0  0  0
   -3.4211    2.0402    1.6427 H   0  0  0  0  0  0  0  0  0  0  0  0
    1.8714   -1.6171   -1.3273 H   0  0  0  0  0  0  0  0  0  0  0  0
    4.2901   -1.6949   -1.4167 H   0  0  0  0  0  0  0  0  0  0  0  0
    5.6650   -0.0704   -0.1399 H   0  0  0  0  0  0  0  0  0  0  0  0
    4.5442    1.6559    1.2464 H   0  0  0  0  0  0  0  0  0  0  0  0
    2.1226    1.7716    1.3659 H   0  0  0  0  0  0  0  0  0  0  0  0
  1  2  2  0
  2  3  1  0
  3  4  2  0
  4  5  1  0
  5  6  2  0
  6  7  1  0
  7  8  2  0
  8  9  1  0
  9 10  1  0
 10 11  1  0
 11 12  2  0
 12 13  1  0
 13 14  2  0
 14 15  1  0
 15 16  2  0
 10  2  1  0
 16 11  1  0
  8  3  1  0
  4 17  1  0
  5 18  1  0
  6 19  1  0
  7 20  1  0
 12 21  1  0
 13 22  1  0
 14 23  1  0
 15 24  1  0
 16 25  1  0
M  END
$$$$
