
     RDKit          3D

 18 19  0  0  0  0  0  0  0  0999 V2000
   -1.1442   -2.6013   -0.5103 O   0  0  0  0  0  0  0  0  0  0  0  0
   -1.1255   -1.2518   -0.2286 C   0  0  0  0  0  0  0  0  0  0  0  0
   -2.3191   -0.5563   -0.0480 C   0  0  0  0  0  0  0  0  0  0  0  0
   -4.0025   -1.4157   -0.1781 Br  0  0  0  0  0  0  0  0  0  0  0  0
   -2.2841    0.8036    0.2354 C   0  0  0  0  0  0  0  0  0  0  0  0
   -1.0517    1.4552    0.3353 C   0  0  0  0  0  0  0  0  0  0  0  0
   -1.1024    3.3186    0.7264 Br  0  0  0  0  0  0  0  0  0  0  0  0
    0.1691    0.7539    0.1527 C   0  0  0  0  0  0  0  0  0  0  0  0
    1.4591    1.3256    0.2342 C   0  0  0  0  0  0  0  0  0  0  0  0
    2.5957    0.5479    0.0381 C   0  0  0  0  0  0  0  0  0  0  0  0
    2.4234   -0.7920   -0.2370 C   0  0  0  0  0  0  0  0  0  0  0  0
    1.2154   -1.3875   -0.3260 N   0  0  0  0  0  0  0  0  0  0  0  0
    0.1158   -0.6268   -0.1345 C   0  0  0  0  0  0  0  0  0  0  0  0
   -0.1967   -2.8457   -0.5892 H   0  0  0  0  0  0  0  0  0  0  0  0
   -3.2110    1.3539    0.3778 H   0  0  0  0  0  0  0  0  0  0  0  0
    1.5935    2.3823    0.4512 H   0  0  0  0  0  0  0  0  0  0  0  0
    3.5882    0.9807    0.0993 H   0  0  0  0  0  0  0  0  0  0  0  0
    3.2771   -1.4447   -0.3987 H   0  0  0  0  0  0  0  0  0  0  0  0
  1  2  1  0
  2  3  2  0
  3  4  1  0
  3  5  1  0
  5  6  2  0
  6  7  1  0
  6  8  1  0
  8  9  2  0
  9 10  1  0
 10 11  2  0
 11 12  1  0
 12 13  2  0
 13  2  1  0
 13  8  1  0
  1 14  1  0
  5 15  1  0
  9 16  1  0
 10 17  1  0
 11 18  1  0
M  END
$$$$
