
     RDKit          3D

 21 22  0  0  0  0  0  0  0  0999 V2000
    4.3816   -0.5781    0.4074 Cl  0  0  0  0  0  0  0  0  0  0  0  0
    2.7192   -0.1462    0.1932 C   0  0  0  0  0  0  0  0  0  0  0  0
    2.4452    1.1830   -0.1345 C   0  0  0  0  0  0  0  0  0  0  0  0
    1.1291    1.6027   -0.3090 C   0  0  0  0  0  0  0  0  0  0  0  0
    0.0720    0.6960   -0.1587 C   0  0  0  0  0  0  0  0  0  0  0  0
    0.3345   -0.6608    0.1405 C   0  0  0  0  0  0  0  0  0  0  0  0
    1.6715   -1.0704    0.3383 C   0  0  0  0  0  0  0  0  0  0  0  0
    2.0162   -2.7161    0.7765 Cl  0  0  0  0  0  0  0  0  0  0  0  0
   -0.8192   -1.6301    0.3150 C   0  0  0  0  0  0  0  0  0  0  0  0
   -2.0887   -1.1732   -0.2700 N   0  0  0  0  0  0  0  0  0  0  0  0
   -2.3809    0.1902    0.1739 C   0  0  0  0  0  0  0  0  0  0  0  0
   -1.3450    1.1772   -0.3680 C   0  0  0  0  0  0  0  0  0  0  0  0
    3.2550    1.8994   -0.2504 H   0  0  0  0  0  0  0  0  0  0  0  0
    0.9304    2.6431   -0.5604 H   0  0  0  0  0  0  0  0  0  0  0  0
   -0.9639   -1.8218    1.3852 H   0  0  0  0  0  0  0  0  0  0  0  0
   -0.5840   -2.5858   -0.1654 H   0  0  0  0  0  0  0  0  0  0  0  0
   -1.9929   -1.1821   -1.2854 H   0  0  0  0  0  0  0  0  0  0  0  0
   -3.3771    0.4792   -0.1788 H   0  0  0  0  0  0  0  0  0  0  0  0
   -2.4151    0.2274    1.2703 H   0  0  0  0  0  0  0  0  0  0  0  0
   -1.4868    2.1462    0.1249 H   0  0  0  0  0  0  0  0  0  0  0  0
   -1.5010    1.3202   -1.4447 H   0  0  0  0  0  0  0  0  0  0  0  0
  1  2  1  0
  2  3  2  0
  3  4  1  0
  4  5  2  0
  5  6  1  0
  6  7  2  0
  7  8  1  0
  6  9  1  0
  9 10  1  0
 10 11  1  0
 11 12  1  0
  7  2  1  0
 12  5  1  0
  3 13  1  0
  4 14  1  0
  9 15  1  0
  9 16  1  0
 10 17  1  0
 11 18  1  0
 11 19  1  0
 12 20  1  0
 12 21  1  0
M  END
$$$$
