
     RDKit          3D

 44 47  0  0  0  0  0  0  0  0999 V2000
    4.9280    1.2999    0.4097 C   0  0  0  0  0  0  0  0  0  0  0  0
    5.0603    0.1663   -0.5092 N   0  0  0  0  0  0  0  0  0  0  0  0
    6.4732   -0.0540   -0.8237 C   0  0  0  0  0  0  0  0  0  0  0  0
    4.4769   -1.0607    0.0642 C   0  0  0  0  0  0  0  0  0  0  0  0
    2.9657   -1.0149    0.1613 C   0  0  0  0  0  0  0  0  0  0  0  0
    2.3223   -1.1851    1.3937 C   0  0  0  0  0  0  0  0  0  0  0  0
    0.9270   -1.1550    1.4739 C   0  0  0  0  0  0  0  0  0  0  0  0
    0.1498   -0.9456    0.3286 C   0  0  0  0  0  0  0  0  0  0  0  0
   -1.3096   -0.9091    0.4451 C   0  0  0  0  0  0  0  0  0  0  0  0
   -2.0270   -1.8098    1.0890 N   0  0  0  0  0  0  0  0  0  0  0  0
   -3.3363   -1.4504    0.9186 C   0  0  0  0  0  0  0  0  0  0  0  0
   -4.4904   -2.1101    1.3670 C   0  0  0  0  0  0  0  0  0  0  0  0
   -5.7400   -1.5688    1.0616 C   0  0  0  0  0  0  0  0  0  0  0  0
   -5.8335   -0.3875    0.3266 C   0  0  0  0  0  0  0  0  0  0  0  0
   -4.6883    0.3028   -0.1202 C   0  0  0  0  0  0  0  0  0  0  0  0
   -3.4437   -0.2666    0.1932 C   0  0  0  0  0  0  0  0  0  0  0  0
   -2.1350    0.0818   -0.0549 N   0  0  0  0  0  0  0  0  0  0  0  0
   -1.6994    1.3202   -0.6692 C   0  0  0  0  0  0  0  0  0  0  0  0
   -2.6132    2.4947   -0.3538 C   0  0  0  0  0  0  0  0  0  0  0  0
   -3.8625    2.4400   -1.0811 N   0  0  0  0  0  0  0  0  0  0  0  0
   -4.8809    1.5393   -0.9123 C   0  0  0  0  0  0  0  0  0  0  0  0
   -5.9709    1.7816   -1.4251 O   0  0  0  0  0  0  0  0  0  0  0  0
    0.7910   -0.8044   -0.9083 C   0  0  0  0  0  0  0  0  0  0  0  0
    2.1858   -0.8330   -0.9898 C   0  0  0  0  0  0  0  0  0  0  0  0
    5.4186    1.1123    1.3717 H   0  0  0  0  0  0  0  0  0  0  0  0
    5.3705    2.2014   -0.0293 H   0  0  0  0  0  0  0  0  0  0  0  0
    3.8762    1.5394    0.5982 H   0  0  0  0  0  0  0  0  0  0  0  0
    6.5835   -0.8607   -1.5571 H   0  0  0  0  0  0  0  0  0  0  0  0
    7.0607   -0.3113    0.0650 H   0  0  0  0  0  0  0  0  0  0  0  0
    6.9107    0.8417   -1.2789 H   0  0  0  0  0  0  0  0  0  0  0  0
    4.9184   -1.2759    1.0467 H   0  0  0  0  0  0  0  0  0  0  0  0
    4.7174   -1.9217   -0.5745 H   0  0  0  0  0  0  0  0  0  0  0  0
    2.8997   -1.3473    2.3008 H   0  0  0  0  0  0  0  0  0  0  0  0
    0.4420   -1.3003    2.4378 H   0  0  0  0  0  0  0  0  0  0  0  0
   -4.4012   -3.0322    1.9314 H   0  0  0  0  0  0  0  0  0  0  0  0
   -6.6436   -2.0747    1.3930 H   0  0  0  0  0  0  0  0  0  0  0  0
   -6.8221    0.0081    0.0932 H   0  0  0  0  0  0  0  0  0  0  0  0
   -0.7025    1.5555   -0.2835 H   0  0  0  0  0  0  0  0  0  0  0  0
   -1.6318    1.1383   -1.7473 H   0  0  0  0  0  0  0  0  0  0  0  0
   -2.8374    2.5607    0.7169 H   0  0  0  0  0  0  0  0  0  0  0  0
   -2.1231    3.4265   -0.6557 H   0  0  0  0  0  0  0  0  0  0  0  0
   -4.1715    3.2736   -1.5698 H   0  0  0  0  0  0  0  0  0  0  0  0
    0.2151   -0.6893   -1.8227 H   0  0  0  0  0  0  0  0  0  0  0  0
    2.6711   -0.7158   -1.9573 H   0  0  0  0  0  0  0  0  0  0  0  0
  1  2  1  0
  2  3  1  0
  2  4  1  0
  4  5  1  0
  5  6  2  0
  6  7  1  0
  7  8  2  0
  8  9  1  0
  9 10  2  0
 10 11  1  0
 11 12  2  0
 12 13  1  0
 13 14  2  0
 14 15  1  0
 15 16  2  0
 16 17  1  0
 17 18  1  0
 18 19  1  0
 19 20  1  0
 20 21  1  0
 21 22  2  0
  8 23  1  0
 23 24  2  0
 24  5  1  0
 17  9  1  0
 16 11  1  0
 21 15  1  0
  1 25  1  0
  1 26  1  0
  1 27  1  0
  3 28  1  0
  3 29  1  0
  3 30  1  0
  4 31  1  0
  4 32  1  0
  6 33  1  0
  7 34  1  0
 12 35  1  0
 13 36  1  0
 14 37  1  0
 18 38  1  0
 18 39  1  0
 19 40  1  0
 19 41  1  0
 20 42  1  0
 23 43  1  0
 24 44  1  0
M  END
$$$$
