
     RDKit          3D

 63 65  0  0  0  0  0  0  0  0999 V2000
   -8.1329   -1.0122    1.9676 C   0  0  0  0  0  0  0  0  0  0  0  0
   -7.9743   -0.4597    0.5596 C   0  0  0  0  0  0  0  0  0  0  0  0
   -6.6462    0.1056    0.3487 N   0  0  0  0  0  0  0  0  0  0  0  0
   -5.5742   -0.7599   -0.1068 C   0  0  0  0  0  0  0  0  0  0  0  0
   -4.2379   -0.2792    0.4355 C   0  0  0  0  0  0  0  0  0  0  0  0
   -3.9932    1.1000    0.0338 N   0  0  0  0  0  0  0  0  0  0  0  0
   -2.7423    1.5134   -0.3926 C   0  0  0  0  0  0  0  0  0  0  0  0
   -2.5563    2.4072   -1.2129 O   0  0  0  0  0  0  0  0  0  0  0  0
   -1.7040    0.7477    0.0823 N   0  0  0  0  0  0  0  0  0  0  0  0
   -0.3226    1.0202   -0.3156 C   0  0  1  0  0  0  0  0  0  0  0  0
    0.5730    0.7235    0.9123 C   0  0  0  0  0  0  0  0  0  0  0  0
    0.0988    0.2723    1.9586 O   0  0  0  0  0  0  0  0  0  0  0  0
    1.9086    1.0221    0.7644 N   0  0  0  0  0  0  0  0  0  0  0  0
    2.9083    0.6723    1.8225 C   0  0  2  0  0  0  0  0  0  0  0  0
    4.2557    1.4442    1.7762 C   0  0  0  0  0  0  0  0  0  0  0  0
    4.5945    2.5984    1.6287 O   0  0  0  0  0  0  0  0  0  0  0  0
    4.9569    0.2807    1.8575 N   0  0  0  0  0  0  0  0  0  0  0  0
    6.1871   -0.0178    1.1034 C   0  0  1  0  0  0  0  0  0  0  0  0
    7.0443   -1.1423    1.7540 C   0  0  0  0  0  0  0  0  0  0  0  0
    8.2956   -0.9783    1.6457 O   0  0  0  0  0  0  0  0  0  0  0  0
    6.4020   -2.0970    2.2913 O   0  0  0  0  0  1  0  0  0  0  0  0
    5.7518   -0.4004   -0.3351 C   0  0  0  0  0  0  0  0  0  0  0  0
    5.7249    0.8442   -1.2450 C   0  0  0  0  0  0  0  0  0  0  0  0
    6.6001   -1.4763   -1.0324 C   0  0  0  0  0  0  0  0  0  0  0  0
    3.9957   -1.0334   -0.2310 S   0  0  0  0  0  0  0  0  0  0  0  0
    3.8019   -0.5712    1.5503 C   0  0  2  0  0  0  0  0  0  0  0  0
    0.0284    0.1955   -1.5412 C   0  0  0  0  0  0  0  0  0  0  0  0
   -0.0925    0.7680   -2.8163 C   0  0  0  0  0  0  0  0  0  0  0  0
    0.2072    0.0295   -3.9624 C   0  0  0  0  0  0  0  0  0  0  0  0
    0.6224   -1.2950   -3.8474 C   0  0  0  0  0  0  0  0  0  0  0  0
    0.7254   -1.8849   -2.5918 C   0  0  0  0  0  0  0  0  0  0  0  0
    0.4177   -1.1505   -1.4450 C   0  0  0  0  0  0  0  0  0  0  0  0
   -5.0247    2.0356    0.1507 C   0  0  0  0  0  0  0  0  0  0  0  0
   -4.9095    3.2517    0.0231 O   0  0  0  0  0  0  0  0  0  0  0  0
   -6.4300    1.4767    0.5207 C   0  0  0  0  0  0  0  0  0  0  0  0
   -7.2951    2.2365    0.9483 O   0  0  0  0  0  0  0  0  0  0  0  0
    0.0000    0.0000    0.0000 Na  0  0  0  0  0 15  0  0  0  0  0  0
   -8.0065   -0.2222    2.7172 H   0  0  0  0  0  0  0  0  0  0  0  0
   -9.1287   -1.4512    2.0911 H   0  0  0  0  0  0  0  0  0  0  0  0
   -7.3871   -1.7882    2.1755 H   0  0  0  0  0  0  0  0  0  0  0  0
   -8.7326    0.3133    0.3909 H   0  0  0  0  0  0  0  0  0  0  0  0
   -8.1396   -1.2458   -0.1881 H   0  0  0  0  0  0  0  0  0  0  0  0
   -5.5844   -0.7532   -1.2034 H   0  0  0  0  0  0  0  0  0  0  0  0
   -5.7655   -1.7824    0.2374 H   0  0  0  0  0  0  0  0  0  0  0  0
   -3.4482   -0.9457    0.0705 H   0  0  0  0  0  0  0  0  0  0  0  0
   -4.2357   -0.3060    1.5322 H   0  0  0  0  0  0  0  0  0  0  0  0
   -1.7811    0.4477    1.0488 H   0  0  0  0  0  0  0  0  0  0  0  0
   -0.2097    2.0910   -0.5291 H   0  0  0  0  0  0  0  0  0  0  0  0
    2.2605    1.1583   -0.1808 H   0  0  0  0  0  0  0  0  0  0  0  0
    2.4667    0.7017    2.8290 H   0  0  0  0  0  0  0  0  0  0  0  0
    6.7928    0.8986    1.0888 H   0  0  0  0  0  0  0  0  0  0  0  0
    5.3641    0.6034   -2.2527 H   0  0  0  0  0  0  0  0  0  0  0  0
    5.0908    1.6447   -0.8529 H   0  0  0  0  0  0  0  0  0  0  0  0
    6.7332    1.2573   -1.3587 H   0  0  0  0  0  0  0  0  0  0  0  0
    7.6486   -1.1589   -1.1011 H   0  0  0  0  0  0  0  0  0  0  0  0
    6.2578   -1.6586   -2.0602 H   0  0  0  0  0  0  0  0  0  0  0  0
    6.5708   -2.4409   -0.5089 H   0  0  0  0  0  0  0  0  0  0  0  0
    3.6715   -1.4086    2.2426 H   0  0  0  0  0  0  0  0  0  0  0  0
   -0.4331    1.7977   -2.9241 H   0  0  0  0  0  0  0  0  0  0  0  0
    0.1195    0.4906   -4.9439 H   0  0  0  0  0  0  0  0  0  0  0  0
    0.8660   -1.8676   -4.7373 H   0  0  0  0  0  0  0  0  0  0  0  0
    1.0503   -2.9192   -2.5017 H   0  0  0  0  0  0  0  0  0  0  0  0
    0.4949   -1.6431   -0.4757 H   0  0  0  0  0  0  0  0  0  0  0  0
  1  2  1  0
  2  3  1  0
  3  4  1  0
  4  5  1  0
  5  6  1  0
  6  7  1  0
  7  8  2  0
  7  9  1  0
  9 10  1  0
 10 11  1  0
 11 12  2  0
 11 13  1  0
 13 14  1  0
 14 15  1  0
 15 16  2  0
 15 17  1  0
 17 18  1  0
 18 19  1  0
 19 20  2  0
 19 21  1  0
 18 22  1  0
 22 23  1  0
 22 24  1  0
 22 25  1  0
 25 26  1  0
 10 27  1  0
 27 28  2  0
 28 29  1  0
 29 30  2  0
 30 31  1  0
 31 32  2  0
  6 33  1  0
 33 34  2  0
 33 35  1  0
 35 36  2  0
 35  3  1  0
 26 14  1  0
 32 27  1  0
 26 17  1  0
  1 38  1  0
  1 39  1  0
  1 40  1  0
  2 41  1  0
  2 42  1  0
  4 43  1  0
  4 44  1  0
  5 45  1  0
  5 46  1  0
  9 47  1  0
 10 48  1  6
 13 49  1  0
 14 50  1  1
 18 51  1  6
 23 52  1  0
 23 53  1  0
 23 54  1  0
 24 55  1  0
 24 56  1  0
 24 57  1  0
 26 58  1  1
 28 59  1  0
 29 60  1  0
 30 61  1  0
 31 62  1  0
 32 63  1  0
M  CHG  2  21  -1  37   1
M  END
$$$$
