
     RDKit          3D

 49 52  0  0  0  0  0  0  0  0999 V2000
   -3.0309   -4.2750    1.9720 C   0  0  0  0  0  0  0  0  0  0  0  0
   -3.0652   -3.0335    1.2811 O   0  0  0  0  0  0  0  0  0  0  0  0
   -2.9729   -3.2160   -0.1260 C   0  0  0  0  0  0  0  0  0  0  0  0
   -3.0883   -1.9166   -0.9358 C   0  0  0  0  0  0  0  0  0  0  0  0
   -3.8299   -1.8530   -1.9191 O   0  0  0  0  0  0  0  0  0  0  0  0
   -2.2904   -0.8527   -0.5654 N   0  0  0  0  0  0  0  0  0  0  0  0
   -2.3270    0.4011   -1.3051 C   0  0  0  0  0  0  0  0  0  0  0  0
   -1.5583    1.3830   -0.4297 C   0  0  0  0  0  0  0  0  0  0  0  0
   -1.0355    2.5550   -1.1609 C   0  0  0  0  0  0  0  0  0  0  0  0
   -1.0541    3.8211   -0.8064 N   0  0  0  0  0  0  0  0  0  0  0  0
   -0.4370    4.4264   -1.8703 C   0  0  0  0  0  0  0  0  0  0  0  0
   -0.2153    5.8825   -1.9279 C   0  0  0  0  0  0  0  0  0  0  0  0
   -0.0676    3.5989   -2.8556 N   0  0  0  0  0  0  0  0  0  0  0  0
   -0.4642    2.3475   -2.3843 O   0  0  0  0  0  0  0  0  0  0  0  0
   -0.5560    0.4506    0.2590 C   0  0  0  0  0  0  0  0  0  0  0  0
    0.8467    0.1926   -0.3837 C   0  0  0  0  0  0  0  0  0  0  0  0
    1.3614    1.2583    0.4917 N   0  0  0  0  0  0  0  0  0  0  0  0
    2.7120    1.0682    1.0297 C   0  0  0  0  0  0  0  0  0  0  0  0
    3.1419   -0.3020    1.4737 C   0  0  0  0  0  0  0  0  0  0  0  0
    2.9445   -0.8179    3.1042 S   0  0  0  0  0  0  0  0  0  0  0  0
    3.6789   -2.3109    2.7125 C   0  0  0  0  0  0  0  0  0  0  0  0
    4.0875   -2.4449    1.4723 N   0  0  0  0  0  0  0  0  0  0  0  0
    3.8128   -1.2881    0.7593 C   0  0  0  0  0  0  0  0  0  0  0  0
    4.2586   -1.2201   -0.6592 C   0  0  0  0  0  0  0  0  0  0  0  0
    0.2672    1.0235    1.4480 C   0  0  0  0  0  0  0  0  0  0  0  0
   -1.3440   -0.8272    0.5408 C   0  0  0  0  0  0  0  0  0  0  0  0
   -2.0946   -4.8025    1.7657 H   0  0  0  0  0  0  0  0  0  0  0  0
   -3.0881   -4.0730    3.0451 H   0  0  0  0  0  0  0  0  0  0  0  0
   -3.8856   -4.8964    1.6876 H   0  0  0  0  0  0  0  0  0  0  0  0
   -2.0156   -3.6852   -0.3817 H   0  0  0  0  0  0  0  0  0  0  0  0
   -3.7846   -3.8764   -0.4546 H   0  0  0  0  0  0  0  0  0  0  0  0
   -1.8470    0.2169   -2.2735 H   0  0  0  0  0  0  0  0  0  0  0  0
   -3.3602    0.7152   -1.4882 H   0  0  0  0  0  0  0  0  0  0  0  0
   -2.2518    1.7563    0.3384 H   0  0  0  0  0  0  0  0  0  0  0  0
    0.5151    6.1474   -2.6989 H   0  0  0  0  0  0  0  0  0  0  0  0
   -1.1536    6.3993   -2.1518 H   0  0  0  0  0  0  0  0  0  0  0  0
    0.1592    6.2502   -0.9675 H   0  0  0  0  0  0  0  0  0  0  0  0
    0.9411    0.3907   -1.4547 H   0  0  0  0  0  0  0  0  0  0  0  0
    1.2209   -0.8201   -0.2024 H   0  0  0  0  0  0  0  0  0  0  0  0
    2.8590    1.7816    1.8517 H   0  0  0  0  0  0  0  0  0  0  0  0
    3.4114    1.4005    0.2514 H   0  0  0  0  0  0  0  0  0  0  0  0
    3.8048   -3.0935    3.4492 H   0  0  0  0  0  0  0  0  0  0  0  0
    3.4049   -1.0912   -1.3305 H   0  0  0  0  0  0  0  0  0  0  0  0
    4.9468   -0.3814   -0.8035 H   0  0  0  0  0  0  0  0  0  0  0  0
    4.7797   -2.1379   -0.9494 H   0  0  0  0  0  0  0  0  0  0  0  0
    0.4501    0.2929    2.2409 H   0  0  0  0  0  0  0  0  0  0  0  0
   -0.1334    1.9321    1.9084 H   0  0  0  0  0  0  0  0  0  0  0  0
   -0.7373   -1.7366    0.5639 H   0  0  0  0  0  0  0  0  0  0  0  0
   -1.9161   -0.7395    1.4705 H   0  0  0  0  0  0  0  0  0  0  0  0
  1  2  1  0
  2  3  1  0
  3  4  1  0
  4  5  2  0
  4  6  1  0
  6  7  1  0
  7  8  1  0
  8  9  1  0
  9 10  2  0
 10 11  1  0
 11 12  1  0
 11 13  2  0
 13 14  1  0
  8 15  1  0
 15 16  1  0
 16 17  1  0
 17 18  1  0
 18 19  1  0
 19 20  1  0
 20 21  1  0
 21 22  2  0
 22 23  1  0
 23 24  1  0
 17 25  1  0
 15 26  1  0
 26  6  1  0
 14  9  1  0
 25 15  1  0
 23 19  2  0
  1 27  1  0
  1 28  1  0
  1 29  1  0
  3 30  1  0
  3 31  1  0
  7 32  1  0
  7 33  1  0
  8 34  1  0
 12 35  1  0
 12 36  1  0
 12 37  1  0
 16 38  1  0
 16 39  1  0
 18 40  1  0
 18 41  1  0
 21 42  1  0
 24 43  1  0
 24 44  1  0
 24 45  1  0
 25 46  1  0
 25 47  1  0
 26 48  1  0
 26 49  1  0
M  END
$$$$
