
     RDKit          3D

 56 60  0  0  0  0  0  0  0  0999 V2000
   -0.0959    5.2250    1.4390 C   0  0  0  0  0  0  0  0  0  0  0  0
   -0.6140    3.9872    0.8286 C   0  0  0  0  0  0  0  0  0  0  0  0
   -1.3468    3.9916   -0.2922 N   0  0  0  0  0  0  0  0  0  0  0  0
   -1.6016    2.6388   -0.5121 O   0  0  0  0  0  0  0  0  0  0  0  0
   -1.0014    1.9600    0.5097 C   0  0  0  0  0  0  0  0  0  0  0  0
   -1.0753    0.4844    0.4930 C   0  0  0  0  0  0  0  0  0  0  0  0
   -2.4754   -0.0471    0.1678 C   0  0  0  0  0  0  0  0  0  0  0  0
   -2.1978   -1.4278   -0.2594 N   0  0  0  0  0  0  0  0  0  0  0  0
   -3.3518   -2.0744   -0.8954 C   0  0  0  0  0  0  0  0  0  0  0  0
   -4.4753   -2.3516    0.0795 C   0  0  0  0  0  0  0  0  0  0  0  0
   -5.7120   -1.7037   -0.0486 C   0  0  0  0  0  0  0  0  0  0  0  0
   -6.7445   -1.9645    0.8547 C   0  0  0  0  0  0  0  0  0  0  0  0
   -6.5515   -2.8731    1.8940 C   0  0  0  0  0  0  0  0  0  0  0  0
   -5.3258   -3.5210    2.0334 C   0  0  0  0  0  0  0  0  0  0  0  0
   -4.2929   -3.2619    1.1315 C   0  0  0  0  0  0  0  0  0  0  0  0
   -1.0640   -1.2921   -1.1829 C   0  0  0  0  0  0  0  0  0  0  0  0
   -0.1817   -0.2043   -0.5463 C   0  0  0  0  0  0  0  0  0  0  0  0
    1.1630   -0.7188    0.0339 C   0  0  0  0  0  0  0  0  0  0  0  0
    1.7497   -0.3484   -1.2423 N   0  0  0  0  0  0  0  0  0  0  0  0
    3.0566   -0.2720   -1.6444 C   0  0  0  0  0  0  0  0  0  0  0  0
    3.4033    0.3847   -2.6233 O   0  0  0  0  0  0  0  0  0  0  0  0
    4.0261   -1.1167   -0.8438 C   0  0  0  0  0  0  0  0  0  0  0  0
    5.4773   -0.7509   -1.1352 C   0  0  0  0  0  0  0  0  0  0  0  0
    5.8963    0.4504   -0.4371 N   0  0  0  0  0  0  0  0  0  0  0  0
    6.4061    0.5072    0.8306 C   0  0  0  0  0  0  0  0  0  0  0  0
    6.6593    1.8411    1.0498 C   0  0  0  0  0  0  0  0  0  0  0  0
    6.3203    2.5873   -0.0484 N   0  0  0  0  0  0  0  0  0  0  0  0
    5.8689    1.7231   -0.9306 C   0  0  0  0  0  0  0  0  0  0  0  0
    0.6806    0.5847   -1.5743 C   0  0  0  0  0  0  0  0  0  0  0  0
   -0.3772    2.7445    1.3582 N   0  0  0  0  0  0  0  0  0  0  0  0
    0.5372    5.7688    0.7306 H   0  0  0  0  0  0  0  0  0  0  0  0
   -0.9199    5.8792    1.7411 H   0  0  0  0  0  0  0  0  0  0  0  0
    0.5036    5.0011    2.3268 H   0  0  0  0  0  0  0  0  0  0  0  0
   -0.8086    0.1182    1.4952 H   0  0  0  0  0  0  0  0  0  0  0  0
   -2.9554    0.5237   -0.6381 H   0  0  0  0  0  0  0  0  0  0  0  0
   -3.1228   -0.0061    1.0508 H   0  0  0  0  0  0  0  0  0  0  0  0
   -3.0439   -3.0414   -1.3158 H   0  0  0  0  0  0  0  0  0  0  0  0
   -3.7217   -1.4796   -1.7413 H   0  0  0  0  0  0  0  0  0  0  0  0
   -5.8792   -0.9890   -0.8511 H   0  0  0  0  0  0  0  0  0  0  0  0
   -7.6996   -1.4572    0.7485 H   0  0  0  0  0  0  0  0  0  0  0  0
   -7.3554   -3.0745    2.5966 H   0  0  0  0  0  0  0  0  0  0  0  0
   -5.1725   -4.2262    2.8458 H   0  0  0  0  0  0  0  0  0  0  0  0
   -3.3365   -3.7661    1.2524 H   0  0  0  0  0  0  0  0  0  0  0  0
   -0.5398   -2.2457   -1.3055 H   0  0  0  0  0  0  0  0  0  0  0  0
   -1.4093   -0.9611   -2.1713 H   0  0  0  0  0  0  0  0  0  0  0  0
    1.5764   -0.1417    0.8679 H   0  0  0  0  0  0  0  0  0  0  0  0
    1.2148   -1.7872    0.2579 H   0  0  0  0  0  0  0  0  0  0  0  0
    3.8528   -2.1597   -1.1345 H   0  0  0  0  0  0  0  0  0  0  0  0
    3.8160   -1.0208    0.2268 H   0  0  0  0  0  0  0  0  0  0  0  0
    5.6729   -0.6062   -2.2037 H   0  0  0  0  0  0  0  0  0  0  0  0
    6.1366   -1.5572   -0.7916 H   0  0  0  0  0  0  0  0  0  0  0  0
    6.5441   -0.3672    1.4501 H   0  0  0  0  0  0  0  0  0  0  0  0
    7.0685    2.3044    1.9383 H   0  0  0  0  0  0  0  0  0  0  0  0
    5.5095    1.9637   -1.9240 H   0  0  0  0  0  0  0  0  0  0  0  0
    0.9491    1.6146   -1.3212 H   0  0  0  0  0  0  0  0  0  0  0  0
    0.3606    0.5318   -2.6181 H   0  0  0  0  0  0  0  0  0  0  0  0
  1  2  1  0
  2  3  2  0
  3  4  1  0
  4  5  1  0
  5  6  1  0
  6  7  1  0
  7  8  1  0
  8  9  1  0
  9 10  1  0
 10 11  2  0
 11 12  1  0
 12 13  2  0
 13 14  1  0
 14 15  2  0
  8 16  1  0
 16 17  1  0
 17 18  1  0
 18 19  1  0
 19 20  1  0
 20 21  2  0
 20 22  1  0
 22 23  1  0
 23 24  1  0
 24 25  1  0
 25 26  2  0
 26 27  1  0
 27 28  2  0
 19 29  1  0
  5 30  2  0
 30  2  1  0
 17  6  1  0
 28 24  1  0
 15 10  1  0
 29 17  1  0
  1 31  1  0
  1 32  1  0
  1 33  1  0
  6 34  1  0
  7 35  1  0
  7 36  1  0
  9 37  1  0
  9 38  1  0
 11 39  1  0
 12 40  1  0
 13 41  1  0
 14 42  1  0
 15 43  1  0
 16 44  1  0
 16 45  1  0
 18 46  1  0
 18 47  1  0
 22 48  1  0
 22 49  1  0
 23 50  1  0
 23 51  1  0
 25 52  1  0
 26 53  1  0
 28 54  1  0
 29 55  1  0
 29 56  1  0
M  END
$$$$
