
     RDKit          3D

 28 30  0  0  0  0  0  0  0  0999 V2000
    3.9137   -2.3524   -0.8605 C   0  0  0  0  0  0  0  0  0  0  0  0
    3.9057   -0.8622   -1.0802 C   0  0  0  0  0  0  0  0  0  0  0  0
    4.9052   -0.2765   -1.4913 O   0  0  0  0  0  0  0  0  0  0  0  0
    2.6583   -0.0927   -0.7927 C   0  0  0  0  0  0  0  0  0  0  0  0
    2.6745    1.2927   -0.9758 C   0  0  0  0  0  0  0  0  0  0  0  0
    1.5337    2.0504   -0.7059 C   0  0  0  0  0  0  0  0  0  0  0  0
    0.3574    1.4354   -0.2560 C   0  0  0  0  0  0  0  0  0  0  0  0
    0.3205    0.0401   -0.0907 C   0  0  0  0  0  0  0  0  0  0  0  0
    1.4835   -0.7104   -0.3448 C   0  0  0  0  0  0  0  0  0  0  0  0
   -0.8177   -0.6255    0.4009 N   0  0  0  0  0  0  0  0  0  0  0  0
   -2.0746   -0.0521    0.6695 C   0  0  0  0  0  0  0  0  0  0  0  0
   -3.1167   -0.8839    1.1116 C   0  0  0  0  0  0  0  0  0  0  0  0
   -4.3701   -0.3592    1.4323 C   0  0  0  0  0  0  0  0  0  0  0  0
   -4.5952    1.0090    1.3294 C   0  0  0  0  0  0  0  0  0  0  0  0
   -3.5644    1.8510    0.9121 C   0  0  0  0  0  0  0  0  0  0  0  0
   -2.3014    1.3320    0.5882 C   0  0  0  0  0  0  0  0  0  0  0  0
   -1.0433    2.4889    0.0759 S   0  0  0  0  0  0  0  0  0  0  0  0
    4.9055   -2.7461   -1.1045 H   0  0  0  0  0  0  0  0  0  0  0  0
    3.1863   -2.8360   -1.5175 H   0  0  0  0  0  0  0  0  0  0  0  0
    3.7082   -2.5825    0.1881 H   0  0  0  0  0  0  0  0  0  0  0  0
    3.5770    1.7936   -1.3228 H   0  0  0  0  0  0  0  0  0  0  0  0
    1.5730    3.1289   -0.8464 H   0  0  0  0  0  0  0  0  0  0  0  0
    1.4525   -1.7835   -0.1837 H   0  0  0  0  0  0  0  0  0  0  0  0
   -0.8255   -1.6304    0.2848 H   0  0  0  0  0  0  0  0  0  0  0  0
   -2.9586   -1.9545    1.2127 H   0  0  0  0  0  0  0  0  0  0  0  0
   -5.1668   -1.0184    1.7673 H   0  0  0  0  0  0  0  0  0  0  0  0
   -5.5683    1.4238    1.5795 H   0  0  0  0  0  0  0  0  0  0  0  0
   -3.7521    2.9205    0.8447 H   0  0  0  0  0  0  0  0  0  0  0  0
  1  2  1  0
  2  3  2  0
  2  4  1  0
  4  5  2  0
  5  6  1  0
  6  7  2  0
  7  8  1  0
  8  9  2  0
  8 10  1  0
 10 11  1  0
 11 12  2  0
 12 13  1  0
 13 14  2  0
 14 15  1  0
 15 16  2  0
 16 17  1  0
  9  4  1  0
 16 11  1  0
 17  7  1  0
  1 18  1  0
  1 19  1  0
  1 20  1  0
  5 21  1  0
  6 22  1  0
  9 23  1  0
 10 24  1  0
 12 25  1  0
 13 26  1  0
 14 27  1  0
 15 28  1  0
M  END
$$$$
