
     RDKit          3D

 53 56  0  0  0  0  0  0  0  0999 V2000
   -4.8719   -2.2640   -2.1623 C   0  0  0  0  0  0  0  0  0  0  0  0
   -5.0190   -1.8857   -0.7989 O   0  0  0  0  0  0  0  0  0  0  0  0
   -4.4337   -2.8375    0.0821 C   0  0  0  0  0  0  0  0  0  0  0  0
   -2.8958   -2.8359    0.1166 C   0  0  0  0  0  0  0  0  0  0  0  0
   -2.2718   -3.8683   -0.1383 O   0  0  0  0  0  0  0  0  0  0  0  0
   -2.2543   -1.6390    0.4327 N   0  0  0  0  0  0  0  0  0  0  0  0
   -2.9680   -0.4081    0.7790 C   0  0  0  0  0  0  0  0  0  0  0  0
   -2.0774    0.5991    1.5033 C   0  0  0  0  0  0  0  0  0  0  0  0
   -0.7838    0.9183    0.7127 C   0  0  1  0  0  0  0  0  0  0  0  0
   -0.9848    2.1652   -0.1189 C   0  0  0  0  0  0  0  0  0  0  0  0
   -0.5066    3.3703    0.1091 N   0  0  0  0  0  0  0  0  0  0  0  0
   -1.0108    4.1266   -0.9131 C   0  0  0  0  0  0  0  0  0  0  0  0
   -0.7158    5.5653   -1.0580 C   0  0  0  0  0  0  0  0  0  0  0  0
   -1.7861    3.4533   -1.7701 N   0  0  0  0  0  0  0  0  0  0  0  0
   -1.7627    2.2214   -1.2448 N   0  0  0  0  0  0  0  0  0  0  0  0
    0.4092    1.0861    1.6904 C   0  0  0  0  0  0  0  0  0  0  0  0
    1.5674    0.5086    1.0248 N   0  0  0  0  0  0  0  0  0  0  0  0
    2.8023    0.4742    1.6659 C   0  0  0  0  0  0  0  0  0  0  0  0
    2.9055    0.8679    2.8289 O   0  0  0  0  0  0  0  0  0  0  0  0
    3.9295   -0.0560    0.9146 C   0  0  0  0  0  0  0  0  0  0  0  0
    4.3486    0.2309   -0.3710 C   0  0  0  0  0  0  0  0  0  0  0  0
    5.5026   -0.5164   -0.7464 C   0  0  0  0  0  0  0  0  0  0  0  0
    5.9458   -1.3354    0.2708 C   0  0  0  0  0  0  0  0  0  0  0  0
    7.1194   -2.2542    0.2754 C   0  0  0  0  0  0  0  0  0  0  0  0
    4.9754   -1.1811    1.6710 S   0  0  0  0  0  0  0  0  0  0  0  0
    1.2035   -0.1523   -0.2110 C   0  0  0  0  0  0  0  0  0  0  0  0
   -0.3185   -0.2679   -0.1738 C   0  0  1  0  0  0  0  0  0  0  0  0
   -0.7918   -1.5969    0.4114 C   0  0  0  0  0  0  0  0  0  0  0  0
   -5.3731   -3.2171   -2.3531 H   0  0  0  0  0  0  0  0  0  0  0  0
   -5.3388   -1.4936   -2.7812 H   0  0  0  0  0  0  0  0  0  0  0  0
   -3.8146   -2.3305   -2.4351 H   0  0  0  0  0  0  0  0  0  0  0  0
   -4.7819   -3.8460   -0.1723 H   0  0  0  0  0  0  0  0  0  0  0  0
   -4.7949   -2.6361    1.0956 H   0  0  0  0  0  0  0  0  0  0  0  0
   -3.3490    0.0215   -0.1528 H   0  0  0  0  0  0  0  0  0  0  0  0
   -3.8291   -0.6479    1.4095 H   0  0  0  0  0  0  0  0  0  0  0  0
   -2.6493    1.5110    1.7169 H   0  0  0  0  0  0  0  0  0  0  0  0
   -1.8313    0.1655    2.4817 H   0  0  0  0  0  0  0  0  0  0  0  0
   -0.3762    5.9891   -0.1084 H   0  0  0  0  0  0  0  0  0  0  0  0
    0.0712    5.7184   -1.8028 H   0  0  0  0  0  0  0  0  0  0  0  0
   -1.6059    6.1178   -1.3753 H   0  0  0  0  0  0  0  0  0  0  0  0
   -2.2846    1.4846   -1.7021 H   0  0  0  0  0  0  0  0  0  0  0  0
    0.2692    0.5147    2.6157 H   0  0  0  0  0  0  0  0  0  0  0  0
    0.6271    2.1205    1.9757 H   0  0  0  0  0  0  0  0  0  0  0  0
    3.8583    0.9534   -1.0115 H   0  0  0  0  0  0  0  0  0  0  0  0
    5.9896   -0.4448   -1.7117 H   0  0  0  0  0  0  0  0  0  0  0  0
    7.9525   -1.8051    0.8256 H   0  0  0  0  0  0  0  0  0  0  0  0
    6.8724   -3.2156    0.7360 H   0  0  0  0  0  0  0  0  0  0  0  0
    7.4588   -2.4542   -0.7462 H   0  0  0  0  0  0  0  0  0  0  0  0
    1.7072   -1.1179   -0.3133 H   0  0  0  0  0  0  0  0  0  0  0  0
    1.5095    0.5008   -1.0355 H   0  0  0  0  0  0  0  0  0  0  0  0
   -0.7046   -0.2093   -1.1997 H   0  0  0  0  0  0  0  0  0  0  0  0
   -0.4447   -1.7386    1.4420 H   0  0  0  0  0  0  0  0  0  0  0  0
   -0.3938   -2.4289   -0.1796 H   0  0  0  0  0  0  0  0  0  0  0  0
  1  2  1  0
  2  3  1  0
  3  4  1  0
  4  5  2  0
  4  6  1  0
  6  7  1  0
  7  8  1  0
  8  9  1  0
  9 10  1  6
 10 11  2  0
 11 12  1  0
 12 13  1  0
 12 14  2  0
 14 15  1  0
  9 16  1  0
 16 17  1  0
 17 18  1  0
 18 19  2  0
 18 20  1  0
 20 21  2  0
 21 22  1  0
 22 23  2  0
 23 24  1  0
 23 25  1  0
 17 26  1  0
 26 27  1  0
 27 28  1  0
 28  6  1  0
 27  9  1  0
 15 10  1  0
 25 20  1  0
  1 29  1  0
  1 30  1  0
  1 31  1  0
  3 32  1  0
  3 33  1  0
  7 34  1  0
  7 35  1  0
  8 36  1  0
  8 37  1  0
 13 38  1  0
 13 39  1  0
 13 40  1  0
 15 41  1  0
 16 42  1  0
 16 43  1  0
 21 44  1  0
 22 45  1  0
 24 46  1  0
 24 47  1  0
 24 48  1  0
 26 49  1  0
 26 50  1  0
 27 51  1  6
 28 52  1  0
 28 53  1  0
M  END
$$$$
