
     RDKit          3D

 63 68  0  0  0  0  0  0  0  0999 V2000
    7.9680    0.9288   -0.7244 C   0  0  0  0  0  0  0  0  0  0  0  0
    6.4804    1.1794   -0.7228 C   0  0  0  0  0  0  0  0  0  0  0  0
    6.0229    2.3517   -1.1919 C   0  0  0  0  0  0  0  0  0  0  0  0
    4.6335    2.6963   -1.1152 C   0  0  0  0  0  0  0  0  0  0  0  0
    3.7397    1.8827   -0.5323 C   0  0  0  0  0  0  0  0  0  0  0  0
    2.3104    2.3483   -0.4853 C   0  0  0  0  0  0  0  0  0  0  0  0
    2.0088    3.4456   -0.9489 O   0  0  0  0  0  0  0  0  0  0  0  0
    1.4321    1.4612    0.0995 N   0  0  0  0  0  0  0  0  0  0  0  0
    0.0436    1.6068    0.2929 C   0  0  0  0  0  0  0  0  0  0  0  0
   -0.6911    2.7284   -0.0965 C   0  0  0  0  0  0  0  0  0  0  0  0
   -2.0712    2.7907    0.1353 C   0  0  0  0  0  0  0  0  0  0  0  0
   -2.7368    1.7257    0.7439 C   0  0  0  0  0  0  0  0  0  0  0  0
   -4.0920    1.8933    0.9337 O   0  0  0  0  0  0  0  0  0  0  0  0
   -4.8892    0.7729    0.8138 C   0  0  0  0  0  0  0  0  0  0  0  0
   -5.4924    0.3188    1.9976 C   0  0  0  0  0  0  0  0  0  0  0  0
   -6.3168   -0.8162    1.9434 C   0  0  0  0  0  0  0  0  0  0  0  0
   -7.0622   -1.5731    2.8732 C   0  0  0  0  0  0  0  0  0  0  0  0
   -7.7043   -2.5982    2.3084 N   0  0  0  0  0  0  0  0  0  0  0  0
   -7.3686   -2.5007    1.0068 N   0  0  0  0  0  0  0  0  0  0  0  0
   -7.8880   -3.4624    0.0641 C   0  0  0  0  0  0  0  0  0  0  0  0
   -6.5325   -1.4476    0.7223 C   0  0  0  0  0  0  0  0  0  0  0  0
   -5.9621   -0.9895   -0.4757 C   0  0  0  0  0  0  0  0  0  0  0  0
   -5.1393    0.1507   -0.4221 C   0  0  0  0  0  0  0  0  0  0  0  0
   -4.6063    0.6773   -1.6632 C   0  0  0  0  0  0  0  0  0  0  0  0
   -4.7037    1.9643   -2.2352 C   0  0  0  0  0  0  0  0  0  0  0  0
   -4.0555    2.0567   -3.3998 N   0  0  0  0  0  0  0  0  0  0  0  0
   -3.5271    0.8323   -3.5636 N   0  0  0  0  0  0  0  0  0  0  0  0
   -3.8414   -0.0371   -2.5591 C   0  0  0  0  0  0  0  0  0  0  0  0
   -1.9976    0.6155    1.1504 C   0  0  0  0  0  0  0  0  0  0  0  0
   -2.5748   -0.4124    1.7892 F   0  0  0  0  0  0  0  0  0  0  0  0
   -0.6229    0.5505    0.9233 C   0  0  0  0  0  0  0  0  0  0  0  0
    4.2146    0.5706    0.0131 C   0  0  0  0  0  0  0  0  0  0  0  0
    3.3778   -0.1812    0.5239 O   0  0  0  0  0  0  0  0  0  0  0  0
    5.5912    0.2601   -0.1330 N   0  0  0  0  0  0  0  0  0  0  0  0
    6.0138   -1.0353    0.3325 C   0  0  0  0  0  0  0  0  0  0  0  0
    5.6674   -1.4809    1.6189 C   0  0  0  0  0  0  0  0  0  0  0  0
    6.0779   -2.7368    2.0737 C   0  0  0  0  0  0  0  0  0  0  0  0
    6.8273   -3.5556    1.2399 C   0  0  0  0  0  0  0  0  0  0  0  0
    7.2199   -4.7600    1.6741 F   0  0  0  0  0  0  0  0  0  0  0  0
    7.1690   -3.1453   -0.0420 C   0  0  0  0  0  0  0  0  0  0  0  0
    6.7600   -1.8885   -0.4963 C   0  0  0  0  0  0  0  0  0  0  0  0
    8.2533    0.2372   -1.5216 H   0  0  0  0  0  0  0  0  0  0  0  0
    8.5307    1.8545   -0.8947 H   0  0  0  0  0  0  0  0  0  0  0  0
    8.3088    0.5380    0.2400 H   0  0  0  0  0  0  0  0  0  0  0  0
    6.6919    3.0941   -1.6200 H   0  0  0  0  0  0  0  0  0  0  0  0
    4.3406    3.6573   -1.5326 H   0  0  0  0  0  0  0  0  0  0  0  0
    1.8372    0.5854    0.4366 H   0  0  0  0  0  0  0  0  0  0  0  0
   -0.2246    3.5775   -0.5867 H   0  0  0  0  0  0  0  0  0  0  0  0
   -2.6264    3.6710   -0.1800 H   0  0  0  0  0  0  0  0  0  0  0  0
   -5.3028    0.8256    2.9386 H   0  0  0  0  0  0  0  0  0  0  0  0
   -7.1613   -1.4158    3.9392 H   0  0  0  0  0  0  0  0  0  0  0  0
   -8.4292   -2.9237   -0.7177 H   0  0  0  0  0  0  0  0  0  0  0  0
   -7.0471   -4.0167   -0.3599 H   0  0  0  0  0  0  0  0  0  0  0  0
   -8.5662   -4.1495    0.5769 H   0  0  0  0  0  0  0  0  0  0  0  0
   -6.1709   -1.4856   -1.4187 H   0  0  0  0  0  0  0  0  0  0  0  0
   -5.2200    2.8340   -1.8494 H   0  0  0  0  0  0  0  0  0  0  0  0
   -2.9610    0.6606   -4.3878 H   0  0  0  0  0  0  0  0  0  0  0  0
   -3.4804   -1.0554   -2.5626 H   0  0  0  0  0  0  0  0  0  0  0  0
   -0.0896   -0.3357    1.2548 H   0  0  0  0  0  0  0  0  0  0  0  0
    5.0886   -0.8480    2.2877 H   0  0  0  0  0  0  0  0  0  0  0  0
    5.8147   -3.0780    3.0698 H   0  0  0  0  0  0  0  0  0  0  0  0
    7.7391   -3.8093   -0.6840 H   0  0  0  0  0  0  0  0  0  0  0  0
    6.9923   -1.6055   -1.5191 H   0  0  0  0  0  0  0  0  0  0  0  0
  1  2  1  0
  2  3  2  0
  3  4  1  0
  4  5  2  0
  5  6  1  0
  6  7  2  0
  6  8  1  0
  8  9  1  0
  9 10  2  0
 10 11  1  0
 11 12  2  0
 12 13  1  0
 13 14  1  0
 14 15  2  0
 15 16  1  0
 16 17  1  0
 17 18  2  0
 18 19  1  0
 19 20  1  0
 19 21  1  0
 21 22  1  0
 22 23  2  0
 23 24  1  0
 24 25  1  0
 25 26  2  0
 26 27  1  0
 27 28  1  0
 12 29  1  0
 29 30  1  0
 29 31  2  0
  5 32  1  0
 32 33  2  0
 32 34  1  0
 34 35  1  0
 35 36  2  0
 36 37  1  0
 37 38  2  0
 38 39  1  0
 38 40  1  0
 40 41  2  0
 34  2  1  0
 41 35  1  0
 31  9  1  0
 23 14  1  0
 28 24  2  0
 21 16  2  0
  1 42  1  0
  1 43  1  0
  1 44  1  0
  3 45  1  0
  4 46  1  0
  8 47  1  0
 10 48  1  0
 11 49  1  0
 15 50  1  0
 17 51  1  0
 20 52  1  0
 20 53  1  0
 20 54  1  0
 22 55  1  0
 25 56  1  0
 27 57  1  0
 28 58  1  0
 31 59  1  0
 36 60  1  0
 37 61  1  0
 40 62  1  0
 41 63  1  0
M  END
$$$$
