
     RDKit          3D

 57 60  0  0  0  0  0  0  0  0999 V2000
    3.3106   -2.3021   -1.7328 C   0  0  0  0  0  0  0  0  0  0  0  0
    2.8341   -1.5256   -0.6353 O   0  0  0  0  0  0  0  0  0  0  0  0
    3.7706   -1.2078    0.3154 C   0  0  0  0  0  0  0  0  0  0  0  0
    4.8632   -2.0405    0.6026 C   0  0  0  0  0  0  0  0  0  0  0  0
    5.8082   -1.6749    1.5644 C   0  0  0  0  0  0  0  0  0  0  0  0
    5.6711   -0.4770    2.2557 C   0  0  0  0  0  0  0  0  0  0  0  0
    4.5777    0.3479    1.9962 C   0  0  0  0  0  0  0  0  0  0  0  0
    3.6099   -0.0137    1.0405 C   0  0  0  0  0  0  0  0  0  0  0  0
    2.4655    0.9357    0.8673 C   0  0  0  0  0  0  0  0  0  0  0  0
    2.6625    2.1240    1.1063 O   0  0  0  0  0  0  0  0  0  0  0  0
    1.2600    0.3747    0.5060 N   0  0  0  0  0  0  0  0  0  0  0  0
   -0.0147    0.9882    0.4584 C   0  0  0  0  0  0  0  0  0  0  0  0
   -0.2235    2.3352    0.7801 C   0  0  0  0  0  0  0  0  0  0  0  0
   -1.5230    2.7958    0.7804 C   0  0  0  0  0  0  0  0  0  0  0  0
   -2.6018    1.9670    0.4795 C   0  0  0  0  0  0  0  0  0  0  0  0
   -2.4297    0.6397    0.1533 C   0  0  0  0  0  0  0  0  0  0  0  0
   -1.1176    0.1322    0.1223 C   0  0  0  0  0  0  0  0  0  0  0  0
   -0.8717   -1.1968   -0.2524 N   0  0  0  0  0  0  0  0  0  0  0  0
   -1.5865   -2.2665    0.4718 C   0  0  0  0  0  0  0  0  0  0  0  0
   -2.4070   -3.1678   -0.4743 C   0  0  0  0  0  0  0  0  0  0  0  0
   -1.6631   -3.7564   -1.6068 N   0  0  0  0  0  0  0  0  0  0  0  0
   -0.4414   -2.9878   -1.9122 C   0  0  0  0  0  0  0  0  0  0  0  0
   -0.5331   -1.4528   -1.6777 C   0  0  1  0  0  0  0  0  0  0  0  0
   -1.5112   -0.8107   -2.6683 C   0  0  0  0  0  0  0  0  0  0  0  0
   -3.7723    2.7311    0.5714 N   0  0  0  0  0  0  0  0  0  0  0  0
   -5.1003    2.2486    0.3318 C   0  0  0  0  0  0  0  0  0  0  0  0
   -3.4322    4.0530    0.9352 C   0  0  0  0  0  0  0  0  0  0  0  0
   -4.2008    4.9864    1.1047 O   0  0  0  0  0  0  0  0  0  0  0  0
   -2.0272    4.0728    1.0614 N   0  0  0  0  0  0  0  0  0  0  0  0
   -1.2336    5.2123    1.4206 C   0  0  0  0  0  0  0  0  0  0  0  0
    3.3763   -3.3587   -1.4555 H   0  0  0  0  0  0  0  0  0  0  0  0
    2.5825   -2.2168   -2.5448 H   0  0  0  0  0  0  0  0  0  0  0  0
    4.2700   -1.9312   -2.1104 H   0  0  0  0  0  0  0  0  0  0  0  0
    4.9996   -2.9913    0.0963 H   0  0  0  0  0  0  0  0  0  0  0  0
    6.6521   -2.3283    1.7732 H   0  0  0  0  0  0  0  0  0  0  0  0
    6.4068   -0.1858    3.0014 H   0  0  0  0  0  0  0  0  0  0  0  0
    4.4732    1.2793    2.5511 H   0  0  0  0  0  0  0  0  0  0  0  0
    1.2372   -0.6233    0.3060 H   0  0  0  0  0  0  0  0  0  0  0  0
    0.5870    3.0032    1.0355 H   0  0  0  0  0  0  0  0  0  0  0  0
   -3.2762    0.0147   -0.0991 H   0  0  0  0  0  0  0  0  0  0  0  0
   -0.8343   -2.8795    0.9843 H   0  0  0  0  0  0  0  0  0  0  0  0
   -2.2414   -1.8689    1.2567 H   0  0  0  0  0  0  0  0  0  0  0  0
   -2.8527   -3.9856    0.1025 H   0  0  0  0  0  0  0  0  0  0  0  0
   -3.2432   -2.5821   -0.8747 H   0  0  0  0  0  0  0  0  0  0  0  0
   -2.2748   -3.7626   -2.4226 H   0  0  0  0  0  0  0  0  0  0  0  0
   -0.1478   -3.1921   -2.9485 H   0  0  0  0  0  0  0  0  0  0  0  0
    0.3645   -3.3901   -1.2851 H   0  0  0  0  0  0  0  0  0  0  0  0
    0.4581   -1.0312   -1.8796 H   0  0  0  0  0  0  0  0  0  0  0  0
   -1.2708   -1.1111   -3.6940 H   0  0  0  0  0  0  0  0  0  0  0  0
   -1.4468    0.2820   -2.6334 H   0  0  0  0  0  0  0  0  0  0  0  0
   -2.5510   -1.0865   -2.4725 H   0  0  0  0  0  0  0  0  0  0  0  0
   -5.8296    3.0505    0.4755 H   0  0  0  0  0  0  0  0  0  0  0  0
   -5.1719    1.8823   -0.6965 H   0  0  0  0  0  0  0  0  0  0  0  0
   -5.3219    1.4362    1.0300 H   0  0  0  0  0  0  0  0  0  0  0  0
   -0.5300    5.4332    0.6127 H   0  0  0  0  0  0  0  0  0  0  0  0
   -0.6847    4.9955    2.3416 H   0  0  0  0  0  0  0  0  0  0  0  0
   -1.8730    6.0842    1.5842 H   0  0  0  0  0  0  0  0  0  0  0  0
  1  2  1  0
  2  3  1  0
  3  4  2  0
  4  5  1  0
  5  6  2  0
  6  7  1  0
  7  8  2  0
  8  9  1  0
  9 10  2  0
  9 11  1  0
 11 12  1  0
 12 13  2  0
 13 14  1  0
 14 15  2  0
 15 16  1  0
 16 17  2  0
 17 18  1  0
 18 19  1  0
 19 20  1  0
 20 21  1  0
 21 22  1  0
 22 23  1  0
 23 24  1  0
 15 25  1  0
 25 26  1  0
 25 27  1  0
 27 28  2  0
 27 29  1  0
 29 30  1  0
  8  3  1  0
 17 12  1  0
 23 18  1  0
 29 14  1  0
  1 31  1  0
  1 32  1  0
  1 33  1  0
  4 34  1  0
  5 35  1  0
  6 36  1  0
  7 37  1  0
 11 38  1  0
 13 39  1  0
 16 40  1  0
 19 41  1  0
 19 42  1  0
 20 43  1  0
 20 44  1  0
 21 45  1  0
 22 46  1  0
 22 47  1  0
 23 48  1  6
 24 49  1  0
 24 50  1  0
 24 51  1  0
 26 52  1  0
 26 53  1  0
 26 54  1  0
 30 55  1  0
 30 56  1  0
 30 57  1  0
M  END
$$$$
