
     RDKit          3D

 31 33  0  0  0  0  0  0  0  0999 V2000
    3.5096    0.8183    1.2543 C   0  0  0  0  0  0  0  0  0  0  0  0
    2.7053   -0.0888    0.4626 N   0  0  0  0  0  0  0  0  0  0  0  0
    2.5307    0.0516   -0.8944 C   0  0  0  0  0  0  0  0  0  0  0  0
    3.0336    0.9059   -1.6133 O   0  0  0  0  0  0  0  0  0  0  0  0
    1.5951   -1.0569   -1.3788 C   0  0  0  0  0  0  0  0  0  0  0  0
    0.3433   -0.5142   -2.0662 C   0  0  0  0  0  0  0  0  0  0  0  0
   -0.5078    0.3778   -1.2107 C   0  0  0  0  0  0  0  0  0  0  0  0
   -0.3731    1.7466   -1.0773 C   0  0  0  0  0  0  0  0  0  0  0  0
   -1.3233    2.1904   -0.1991 N   0  0  0  0  0  0  0  0  0  0  0  0
   -2.0890    1.1383    0.2444 C   0  0  0  0  0  0  0  0  0  0  0  0
   -3.1629    1.1223    1.1425 C   0  0  0  0  0  0  0  0  0  0  0  0
   -3.7644   -0.1101    1.4118 C   0  0  0  0  0  0  0  0  0  0  0  0
   -3.3101   -1.2773    0.8038 C   0  0  0  0  0  0  0  0  0  0  0  0
   -2.2356   -1.2428   -0.0926 C   0  0  0  0  0  0  0  0  0  0  0  0
   -1.6069   -0.0131   -0.3789 C   0  0  0  0  0  0  0  0  0  0  0  0
    1.3560   -1.7613   -0.1413 N   0  0  0  0  0  0  0  0  0  0  0  0
    1.9900   -1.1591    0.9239 C   0  0  0  0  0  0  0  0  0  0  0  0
    1.8476   -1.7350    2.4710 S   0  0  0  0  0  0  0  0  0  0  0  0
    4.2762    0.2468    1.7856 H   0  0  0  0  0  0  0  0  0  0  0  0
    2.8671    1.3126    1.9891 H   0  0  0  0  0  0  0  0  0  0  0  0
    3.9881    1.5728    0.6248 H   0  0  0  0  0  0  0  0  0  0  0  0
    2.1516   -1.7273   -2.0418 H   0  0  0  0  0  0  0  0  0  0  0  0
    0.6368    0.0394   -2.9676 H   0  0  0  0  0  0  0  0  0  0  0  0
   -0.2678   -1.3583   -2.4102 H   0  0  0  0  0  0  0  0  0  0  0  0
    0.3257    2.4399   -1.5287 H   0  0  0  0  0  0  0  0  0  0  0  0
   -1.4504    3.1513    0.0864 H   0  0  0  0  0  0  0  0  0  0  0  0
   -3.5199    2.0301    1.6175 H   0  0  0  0  0  0  0  0  0  0  0  0
   -4.5996   -0.1566    2.1069 H   0  0  0  0  0  0  0  0  0  0  0  0
   -3.7931   -2.2253    1.0272 H   0  0  0  0  0  0  0  0  0  0  0  0
   -1.8949   -2.1605   -0.5606 H   0  0  0  0  0  0  0  0  0  0  0  0
    0.7423   -2.5574   -0.0203 H   0  0  0  0  0  0  0  0  0  0  0  0
  1  2  1  0
  2  3  1  0
  3  4  2  0
  3  5  1  0
  5  6  1  0
  6  7  1  0
  7  8  2  0
  8  9  1  0
  9 10  1  0
 10 11  2  0
 11 12  1  0
 12 13  2  0
 13 14  1  0
 14 15  2  0
  5 16  1  0
 16 17  1  0
 17 18  2  0
 17  2  1  0
 15  7  1  0
 15 10  1  0
  1 19  1  0
  1 20  1  0
  1 21  1  0
  5 22  1  0
  6 23  1  0
  6 24  1  0
  8 25  1  0
  9 26  1  0
 11 27  1  0
 12 28  1  0
 13 29  1  0
 14 30  1  0
 16 31  1  0
M  END
$$$$
