
     RDKit          3D

 71 71  0  0  0  0  0  0  0  0999 V2000
   -0.2584   -3.9192    0.4021 C   0  0  0  0  0  0  0  0  0  0  0  0
   -0.0732   -2.4143    0.6097 C   0  0  0  0  0  0  0  0  0  0  0  0
   -1.0236   -1.9196    1.6989 C   0  0  0  0  0  0  0  0  0  0  0  0
   -0.2800   -1.6637   -0.7258 C   0  0  0  0  0  0  0  0  0  0  0  0
    0.2342   -0.2080   -0.6792 C   0  0  2  0  0  0  0  0  0  0  0  0
   -0.9006    0.7097   -1.0242 N   0  0  0  0  0  0  0  0  0  0  0  0
   -1.3280    1.9134    0.1428 P   0  0  0  0  0  5  0  0  0  0  0  0
   -0.3689    1.8703    1.2908 O   0  0  0  0  0  0  0  0  0  0  0  0
   -1.5603    3.1435   -0.6909 O   0  0  0  0  0  1  0  0  0  0  0  0
   -2.7513    1.3386    0.6471 O   0  0  0  0  0  0  0  0  0  0  0  0
   -3.8087    1.3705   -0.2788 C   0  0  2  0  0  0  0  0  0  0  0  0
   -4.9409    2.0864    0.2558 O   0  0  0  0  0  0  0  0  0  0  0  0
   -5.4763    1.4657    1.4250 C   0  0  1  0  0  0  0  0  0  0  0  0
   -6.5345    2.4027    1.9975 C   0  0  0  0  0  0  0  0  0  0  0  0
   -6.0632    0.0926    1.0650 C   0  0  2  0  0  0  0  0  0  0  0  0
   -6.6231   -0.5402    2.2266 O   0  0  0  0  0  0  0  0  0  0  0  0
   -4.9662   -0.7905    0.4545 C   0  0  1  0  0  0  0  0  0  0  0  0
   -5.5713   -1.9864   -0.0936 O   0  0  0  0  0  0  0  0  0  0  0  0
   -4.2171   -0.0650   -0.6764 C   0  0  1  0  0  0  0  0  0  0  0  0
   -5.0891   -0.0685   -1.8394 O   0  0  0  0  0  0  0  0  0  0  0  0
    1.3714   -0.0030   -1.7162 C   0  0  0  0  0  0  0  0  0  0  0  0
    1.2787    0.7835   -2.6612 O   0  0  0  0  0  0  0  0  0  0  0  0
    2.4944   -0.7749   -1.4969 N   0  0  0  0  0  0  0  0  0  0  0  0
    3.5770   -0.9537   -2.4878 C   0  0  1  0  0  0  0  0  0  0  0  0
    4.6589    0.1293   -2.3808 C   0  0  0  0  0  0  0  0  0  0  0  0
    5.3428    0.2262   -1.0404 C   0  0  0  0  0  0  0  0  0  0  0  0
    6.0976   -0.7672   -0.4364 C   0  0  0  0  0  0  0  0  0  0  0  0
    6.5010   -0.3182    0.7870 N   0  0  0  0  0  0  0  0  0  0  0  0
    6.0907    0.9813    0.9815 C   0  0  0  0  0  0  0  0  0  0  0  0
    6.3051    1.8401    2.0686 C   0  0  0  0  0  0  0  0  0  0  0  0
    5.7357    3.1194    2.0046 C   0  0  0  0  0  0  0  0  0  0  0  0
    4.9734    3.5148    0.9022 C   0  0  0  0  0  0  0  0  0  0  0  0
    4.7658    2.6378   -0.1713 C   0  0  0  0  0  0  0  0  0  0  0  0
    5.3433    1.3472   -0.1420 C   0  0  0  0  0  0  0  0  0  0  0  0
    4.1910   -2.3926   -2.4508 C   0  0  0  0  0  0  0  0  0  0  0  0
    5.1065   -2.6384   -3.2878 O   0  0  0  0  0  0  0  0  0  0  0  0
    3.6775   -3.1666   -1.5827 O   0  0  0  0  0  1  0  0  0  0  0  0
    0.0000    0.0000    0.0000 Na  0  0  0  0  0 15  0  0  0  0  0  0
    0.0000    0.0000    0.0000 Na  0  0  0  0  0 15  0  0  0  0  0  0
    0.5198   -4.3089   -0.2639 H   0  0  0  0  0  0  0  0  0  0  0  0
   -1.2329   -4.1514   -0.0517 H   0  0  0  0  0  0  0  0  0  0  0  0
   -0.1829   -4.4596    1.3527 H   0  0  0  0  0  0  0  0  0  0  0  0
    0.9587   -2.2561    0.9495 H   0  0  0  0  0  0  0  0  0  0  0  0
   -0.8009   -2.4142    2.6532 H   0  0  0  0  0  0  0  0  0  0  0  0
   -2.0685   -2.1354    1.4531 H   0  0  0  0  0  0  0  0  0  0  0  0
   -0.9308   -0.8400    1.8620 H   0  0  0  0  0  0  0  0  0  0  0  0
    0.2464   -2.2217   -1.5181 H   0  0  0  0  0  0  0  0  0  0  0  0
   -1.3448   -1.6988   -0.9934 H   0  0  0  0  0  0  0  0  0  0  0  0
    0.6589    0.0366    0.2995 H   0  0  0  0  0  0  0  0  0  0  0  0
   -0.6418    1.2766   -1.8470 H   0  0  0  0  0  0  0  0  0  0  0  0
   -3.5369    1.9121   -1.1920 H   0  0  0  0  0  0  0  0  0  0  0  0
   -4.6981    1.3599    2.1906 H   0  0  0  0  0  0  0  0  0  0  0  0
   -7.3234    2.6009    1.2658 H   0  0  0  0  0  0  0  0  0  0  0  0
   -6.9939    1.9996    2.9051 H   0  0  0  0  0  0  0  0  0  0  0  0
   -6.0786    3.3690    2.2442 H   0  0  0  0  0  0  0  0  0  0  0  0
   -6.8703    0.2039    0.3299 H   0  0  0  0  0  0  0  0  0  0  0  0
   -7.5620   -0.2916    2.2553 H   0  0  0  0  0  0  0  0  0  0  0  0
   -4.2735   -1.1132    1.2373 H   0  0  0  0  0  0  0  0  0  0  0  0
   -5.7972   -1.7293   -1.0125 H   0  0  0  0  0  0  0  0  0  0  0  0
   -3.3486   -0.6768   -0.9550 H   0  0  0  0  0  0  0  0  0  0  0  0
   -4.5563    0.3569   -2.5390 H   0  0  0  0  0  0  0  0  0  0  0  0
    2.4683   -1.5420   -0.8288 H   0  0  0  0  0  0  0  0  0  0  0  0
    3.1122   -0.8676   -3.4771 H   0  0  0  0  0  0  0  0  0  0  0  0
    4.1910    1.0992   -2.6019 H   0  0  0  0  0  0  0  0  0  0  0  0
    5.4269   -0.0186   -3.1523 H   0  0  0  0  0  0  0  0  0  0  0  0
    6.3394   -1.7735   -0.7629 H   0  0  0  0  0  0  0  0  0  0  0  0
    7.0188   -0.8723    1.4553 H   0  0  0  0  0  0  0  0  0  0  0  0
    6.8727    1.5200    2.9386 H   0  0  0  0  0  0  0  0  0  0  0  0
    5.8581    3.8049    2.8380 H   0  0  0  0  0  0  0  0  0  0  0  0
    4.5167    4.5043    0.8798 H   0  0  0  0  0  0  0  0  0  0  0  0
    4.1430    2.9444   -1.0115 H   0  0  0  0  0  0  0  0  0  0  0  0
  1  2  1  0
  2  3  1  0
  2  4  1  0
  4  5  1  0
  5  6  1  0
  6  7  1  0
  7  8  2  0
  7  9  1  0
  7 10  1  0
 10 11  1  0
 11 12  1  0
 12 13  1  0
 13 14  1  0
 13 15  1  0
 15 16  1  0
 15 17  1  0
 17 18  1  0
 17 19  1  0
 19 20  1  0
  5 21  1  0
 21 22  2  0
 21 23  1  0
 23 24  1  0
 24 25  1  0
 25 26  1  0
 26 27  2  0
 27 28  1  0
 28 29  1  0
 29 30  2  0
 30 31  1  0
 31 32  2  0
 32 33  1  0
 33 34  2  0
 24 35  1  0
 35 36  2  0
 35 37  1  0
 19 11  1  0
 34 26  1  0
 34 29  1  0
  1 40  1  0
  1 41  1  0
  1 42  1  0
  2 43  1  0
  3 44  1  0
  3 45  1  0
  3 46  1  0
  4 47  1  0
  4 48  1  0
  5 49  1  1
  6 50  1  0
 11 51  1  6
 13 52  1  1
 14 53  1  0
 14 54  1  0
 14 55  1  0
 15 56  1  6
 16 57  1  0
 17 58  1  1
 18 59  1  0
 19 60  1  6
 20 61  1  0
 23 62  1  0
 24 63  1  6
 25 64  1  0
 25 65  1  0
 27 66  1  0
 28 67  1  0
 30 68  1  0
 31 69  1  0
 32 70  1  0
 33 71  1  0
M  CHG  4   9  -1  37  -1  38   1  39   1
M  END
$$$$
