
     RDKit          3D

 56 58  0  0  0  0  0  0  0  0999 V2000
    9.4058   -0.1575    1.1257 C   0  0  0  0  0  0  0  0  0  0  0  0
    8.8347    0.2269   -0.2306 C   0  0  0  0  0  0  0  0  0  0  0  0
    7.3280    0.1759   -0.2391 C   0  0  0  0  0  0  0  0  0  0  0  0
    6.5768    1.3019    0.1218 C   0  0  0  0  0  0  0  0  0  0  0  0
    5.1811    1.2492    0.1249 C   0  0  0  0  0  0  0  0  0  0  0  0
    4.5223    0.0768   -0.2467 C   0  0  0  0  0  0  0  0  0  0  0  0
    3.0834    0.0589   -0.1511 N   0  0  0  0  0  0  0  0  0  0  0  0
    2.5819   -0.6087    1.0753 C   0  0  0  0  0  0  0  0  0  0  0  0
    2.2944   -0.4046   -1.6044 S   0  0  0  0  0  6  0  0  0  0  0  0
    2.8491    0.3437   -2.7137 O   0  0  0  0  0  0  0  0  0  0  0  0
    2.2129   -1.8507   -1.6414 O   0  0  0  0  0  0  0  0  0  0  0  0
    0.6495    0.2291   -1.3472 C   0  0  0  0  0  0  0  0  0  0  0  0
    0.4266    1.6041   -1.4874 C   0  0  0  0  0  0  0  0  0  0  0  0
   -0.8589    2.1221   -1.3084 C   0  0  0  0  0  0  0  0  0  0  0  0
   -1.9267    1.2699   -1.0103 C   0  0  0  0  0  0  0  0  0  0  0  0
   -3.2105    1.7871   -0.7701 N   0  0  0  0  0  0  0  0  0  0  0  0
   -4.2669    0.9354   -0.5594 C   0  0  0  0  0  0  0  0  0  0  0  0
   -4.1595   -0.3933   -0.4025 C   0  0  0  0  0  0  0  0  0  0  0  0
   -5.3868   -1.1868   -0.2100 C   0  0  0  0  0  0  0  0  0  0  0  0
   -5.8575   -1.8757   -1.1063 O   0  0  0  0  0  0  0  0  0  0  0  0
   -5.9697   -1.0129    1.0242 N   0  0  0  0  0  0  0  0  0  0  0  0
   -7.3021   -1.5179    1.3008 C   0  0  0  0  0  0  0  0  0  0  0  0
   -8.3817   -0.5499    0.8048 C   0  0  0  0  0  0  0  0  0  0  0  0
   -8.2711    0.7291    1.4462 O   0  0  0  0  0  0  0  0  0  0  0  0
   -8.9255    0.7725    2.7078 C   0  0  0  0  0  0  0  0  0  0  0  0
   -2.8113   -1.0051   -0.4887 C   0  0  0  0  0  0  0  0  0  0  0  0
   -2.6095   -2.1876   -0.2372 O   0  0  0  0  0  0  0  0  0  0  0  0
   -1.6809   -0.1097   -0.8579 C   0  0  0  0  0  0  0  0  0  0  0  0
   -0.3994   -0.6392   -1.0411 C   0  0  0  0  0  0  0  0  0  0  0  0
    5.2636   -1.0605   -0.5750 C   0  0  0  0  0  0  0  0  0  0  0  0
    6.6597   -1.0078   -0.5789 C   0  0  0  0  0  0  0  0  0  0  0  0
   10.4992   -0.1116    1.1027 H   0  0  0  0  0  0  0  0  0  0  0  0
    9.0542    0.5199    1.9113 H   0  0  0  0  0  0  0  0  0  0  0  0
    9.1145   -1.1757    1.4053 H   0  0  0  0  0  0  0  0  0  0  0  0
    9.2310   -0.4433   -1.0032 H   0  0  0  0  0  0  0  0  0  0  0  0
    9.1709    1.2349   -0.5024 H   0  0  0  0  0  0  0  0  0  0  0  0
    7.0745    2.2272    0.4032 H   0  0  0  0  0  0  0  0  0  0  0  0
    4.6103    2.1284    0.4094 H   0  0  0  0  0  0  0  0  0  0  0  0
    1.5257   -0.3782    1.2360 H   0  0  0  0  0  0  0  0  0  0  0  0
    3.1203   -0.2370    1.9545 H   0  0  0  0  0  0  0  0  0  0  0  0
    2.7155   -1.6937    1.0248 H   0  0  0  0  0  0  0  0  0  0  0  0
    1.2503    2.2721   -1.7352 H   0  0  0  0  0  0  0  0  0  0  0  0
   -1.0168    3.1933   -1.4064 H   0  0  0  0  0  0  0  0  0  0  0  0
   -3.4204    2.7152   -1.1258 H   0  0  0  0  0  0  0  0  0  0  0  0
   -5.2340    1.4343   -0.5400 H   0  0  0  0  0  0  0  0  0  0  0  0
   -5.5979   -0.3121    1.6523 H   0  0  0  0  0  0  0  0  0  0  0  0
   -7.4260   -2.4925    0.8173 H   0  0  0  0  0  0  0  0  0  0  0  0
   -7.3630   -1.6565    2.3839 H   0  0  0  0  0  0  0  0  0  0  0  0
   -8.2582   -0.3750   -0.2694 H   0  0  0  0  0  0  0  0  0  0  0  0
   -9.3831   -0.9687    0.9568 H   0  0  0  0  0  0  0  0  0  0  0  0
   -8.4807    0.0586    3.4059 H   0  0  0  0  0  0  0  0  0  0  0  0
   -8.8055    1.7782    3.1199 H   0  0  0  0  0  0  0  0  0  0  0  0
   -9.9947    0.5713    2.5916 H   0  0  0  0  0  0  0  0  0  0  0  0
   -0.2306   -1.7098   -0.9407 H   0  0  0  0  0  0  0  0  0  0  0  0
    4.7704   -1.9946   -0.8310 H   0  0  0  0  0  0  0  0  0  0  0  0
    7.2226   -1.8992   -0.8475 H   0  0  0  0  0  0  0  0  0  0  0  0
  1  2  1  0
  2  3  1  0
  3  4  2  0
  4  5  1  0
  5  6  2  0
  6  7  1  0
  7  8  1  0
  7  9  1  0
  9 10  2  0
  9 11  2  0
  9 12  1  0
 12 13  2  0
 13 14  1  0
 14 15  2  0
 15 16  1  0
 16 17  1  0
 17 18  2  0
 18 19  1  0
 19 20  2  0
 19 21  1  0
 21 22  1  0
 22 23  1  0
 23 24  1  0
 24 25  1  0
 18 26  1  0
 26 27  2  0
 26 28  1  0
 28 29  2  0
  6 30  1  0
 30 31  2  0
 31  3  1  0
 29 12  1  0
 28 15  1  0
  1 32  1  0
  1 33  1  0
  1 34  1  0
  2 35  1  0
  2 36  1  0
  4 37  1  0
  5 38  1  0
  8 39  1  0
  8 40  1  0
  8 41  1  0
 13 42  1  0
 14 43  1  0
 16 44  1  0
 17 45  1  0
 21 46  1  0
 22 47  1  0
 22 48  1  0
 23 49  1  0
 23 50  1  0
 25 51  1  0
 25 52  1  0
 25 53  1  0
 29 54  1  0
 30 55  1  0
 31 56  1  0
M  END
$$$$
