
     RDKit          3D

 50 52  0  0  0  0  0  0  0  0999 V2000
    5.8136    0.7484   -1.9038 C   0  0  0  0  0  0  0  0  0  0  0  0
    4.4666    0.1492   -1.6240 C   0  0  0  0  0  0  0  0  0  0  0  0
    3.5994   -0.1673   -2.6770 C   0  0  0  0  0  0  0  0  0  0  0  0
    2.3291   -0.6820   -2.4169 C   0  0  0  0  0  0  0  0  0  0  0  0
    1.9159   -0.8839   -1.1012 C   0  0  0  0  0  0  0  0  0  0  0  0
    2.7742   -0.5814   -0.0421 C   0  0  0  0  0  0  0  0  0  0  0  0
    2.2674   -0.7626    1.2941 N   0  0  0  0  0  0  0  0  0  0  0  0
    1.8531    0.4965    1.9756 C   0  0  0  0  0  0  0  0  0  0  0  0
    0.4444    0.8994    1.5932 C   0  0  0  0  0  0  0  0  0  0  0  0
   -0.6525    0.2375    2.1680 C   0  0  0  0  0  0  0  0  0  0  0  0
   -1.9558    0.5852    1.8091 C   0  0  0  0  0  0  0  0  0  0  0  0
   -2.1691    1.5824    0.8529 C   0  0  0  0  0  0  0  0  0  0  0  0
   -3.5385    1.9852    0.4601 C   0  0  0  0  0  0  0  0  0  0  0  0
   -3.8387    3.1744    0.5281 O   0  0  0  0  0  0  0  0  0  0  0  0
   -4.4124    1.0102    0.0160 N   0  0  0  0  0  0  0  0  0  0  0  0
   -5.7626    1.3632   -0.3850 C   0  0  0  0  0  0  0  0  0  0  0  0
   -6.4130    0.0338   -0.7350 C   0  0  0  0  0  0  0  0  0  0  0  0
   -5.2416   -0.7800   -1.2706 C   0  0  0  0  0  0  0  0  0  0  0  0
   -4.0918   -0.3595   -0.3636 C   0  0  0  0  0  0  0  0  0  0  0  0
   -1.0847    2.2583    0.2857 C   0  0  0  0  0  0  0  0  0  0  0  0
    0.2181    1.9110    0.6480 C   0  0  0  0  0  0  0  0  0  0  0  0
    3.1201   -1.8330    2.3032 S   0  0  0  0  0  6  0  0  0  0  0  0
    3.1465   -3.3364    1.3447 C   0  0  0  0  0  0  0  0  0  0  0  0
    4.4771   -1.3536    2.4657 O   0  0  0  0  0  0  0  0  0  0  0  0
    2.2904   -2.0792    3.4670 O   0  0  0  0  0  0  0  0  0  0  0  0
    4.0368   -0.0418   -0.3037 C   0  0  0  0  0  0  0  0  0  0  0  0
    5.7304    1.8372   -1.9766 H   0  0  0  0  0  0  0  0  0  0  0  0
    6.5258    0.5009   -1.1099 H   0  0  0  0  0  0  0  0  0  0  0  0
    6.2253    0.3603   -2.8414 H   0  0  0  0  0  0  0  0  0  0  0  0
    3.9068   -0.0058   -3.7087 H   0  0  0  0  0  0  0  0  0  0  0  0
    1.6582   -0.9155   -3.2398 H   0  0  0  0  0  0  0  0  0  0  0  0
    0.9189   -1.2678   -0.9025 H   0  0  0  0  0  0  0  0  0  0  0  0
    1.8787    0.3908    3.0669 H   0  0  0  0  0  0  0  0  0  0  0  0
    2.5556    1.3090    1.7506 H   0  0  0  0  0  0  0  0  0  0  0  0
   -0.4898   -0.5480    2.9050 H   0  0  0  0  0  0  0  0  0  0  0  0
   -2.7962    0.0900    2.2873 H   0  0  0  0  0  0  0  0  0  0  0  0
   -6.2787    1.8945    0.4202 H   0  0  0  0  0  0  0  0  0  0  0  0
   -5.6984    2.0188   -1.2609 H   0  0  0  0  0  0  0  0  0  0  0  0
   -6.8114   -0.4421    0.1689 H   0  0  0  0  0  0  0  0  0  0  0  0
   -7.2278    0.1388   -1.4565 H   0  0  0  0  0  0  0  0  0  0  0  0
   -5.0295   -0.4874   -2.3063 H   0  0  0  0  0  0  0  0  0  0  0  0
   -5.4231   -1.8580   -1.2486 H   0  0  0  0  0  0  0  0  0  0  0  0
   -4.0781   -0.9684    0.5462 H   0  0  0  0  0  0  0  0  0  0  0  0
   -3.1201   -0.4222   -0.8620 H   0  0  0  0  0  0  0  0  0  0  0  0
   -1.2565    3.0530   -0.4372 H   0  0  0  0  0  0  0  0  0  0  0  0
    1.0543    2.4330    0.1874 H   0  0  0  0  0  0  0  0  0  0  0  0
    3.5896   -4.1174    1.9663 H   0  0  0  0  0  0  0  0  0  0  0  0
    2.1222   -3.6104    1.0869 H   0  0  0  0  0  0  0  0  0  0  0  0
    3.7575   -3.1934    0.4526 H   0  0  0  0  0  0  0  0  0  0  0  0
    4.6944    0.2361    0.5169 H   0  0  0  0  0  0  0  0  0  0  0  0
  1  2  1  0
  2  3  2  0
  3  4  1  0
  4  5  2  0
  5  6  1  0
  6  7  1  0
  7  8  1  0
  8  9  1  0
  9 10  2  0
 10 11  1  0
 11 12  2  0
 12 13  1  0
 13 14  2  0
 13 15  1  0
 15 16  1  0
 16 17  1  0
 17 18  1  0
 18 19  1  0
 12 20  1  0
 20 21  2  0
  7 22  1  0
 22 23  1  0
 22 24  2  0
 22 25  2  0
  6 26  2  0
 26  2  1  0
 21  9  1  0
 19 15  1  0
  1 27  1  0
  1 28  1  0
  1 29  1  0
  3 30  1  0
  4 31  1  0
  5 32  1  0
  8 33  1  0
  8 34  1  0
 10 35  1  0
 11 36  1  0
 16 37  1  0
 16 38  1  0
 17 39  1  0
 17 40  1  0
 18 41  1  0
 18 42  1  0
 19 43  1  0
 19 44  1  0
 20 45  1  0
 21 46  1  0
 23 47  1  0
 23 48  1  0
 23 49  1  0
 26 50  1  0
M  END
$$$$
