
     RDKit          3D

 84 88  0  0  0  0  0  0  0  0999 V2000
    1.8318   -5.0096   -0.3955 C   0  0  0  0  0  0  0  0  0  0  0  0
    2.5528   -3.8141   -0.1335 O   0  0  0  0  0  0  0  0  0  0  0  0
    1.8481   -2.6385   -0.0976 C   0  0  0  0  0  0  0  0  0  0  0  0
    0.4565   -2.5450   -0.1632 C   0  0  0  0  0  0  0  0  0  0  0  0
   -0.1973   -1.2865   -0.1120 C   0  0  0  0  0  0  0  0  0  0  0  0
   -1.5918   -1.0965   -0.1603 C   0  0  0  0  0  0  0  0  0  0  0  0
   -2.4373   -2.2183   -0.2226 N   0  0  0  0  0  0  0  0  0  0  0  0
   -3.8993   -2.0721   -0.3289 C   0  0  0  0  0  0  0  0  0  0  0  0
   -4.3631   -1.3958   -1.6174 C   0  0  0  0  0  0  0  0  0  0  0  0
   -5.8933   -1.3797   -1.6827 C   0  0  0  0  0  0  0  0  0  0  0  0
   -6.4724   -0.7369   -0.4944 N   0  0  0  0  0  0  0  0  0  0  0  0
   -7.9309   -0.5126   -0.5603 C   0  0  0  0  0  0  0  0  0  0  0  0
   -8.7746   -1.7608   -0.8445 C   0  0  0  0  0  0  0  0  0  0  0  0
   -8.2653    0.5906   -1.5735 C   0  0  0  0  0  0  0  0  0  0  0  0
   -6.0726   -1.4259    0.7414 C   0  0  0  0  0  0  0  0  0  0  0  0
   -4.5508   -1.4490    0.9039 C   0  0  0  0  0  0  0  0  0  0  0  0
   -2.1292    0.1296   -0.1618 N   0  0  0  0  0  0  0  0  0  0  0  0
   -1.3063    1.1839   -0.0776 C   0  0  0  0  0  0  0  0  0  0  0  0
   -1.9420    2.5553   -0.0737 C   0  0  0  0  0  0  0  0  0  0  0  0
   -1.5122    3.3808   -1.3020 C   0  0  0  0  0  0  0  0  0  0  0  0
   -1.5713    4.8932   -1.0678 C   0  0  0  0  0  0  0  0  0  0  0  0
   -2.6548    5.2730   -0.0680 C   0  0  0  0  0  0  0  0  0  0  0  0
   -2.4204    4.6295    1.3005 C   0  0  0  0  0  0  0  0  0  0  0  0
   -1.6580    3.3030    1.2333 C   0  0  0  0  0  0  0  0  0  0  0  0
    0.0294    1.0988    0.0151 N   0  0  0  0  0  0  0  0  0  0  0  0
    0.5689   -0.1212   -0.0131 C   0  0  0  0  0  0  0  0  0  0  0  0
    1.9515   -0.2268    0.0582 C   0  0  0  0  0  0  0  0  0  0  0  0
    2.6054   -1.4632    0.0221 C   0  0  0  0  0  0  0  0  0  0  0  0
    3.9674   -1.6248    0.0899 O   0  0  0  0  0  0  0  0  0  0  0  0
    4.7744   -0.4516    0.1796 C   0  0  0  0  0  0  0  0  0  0  0  0
    6.2391   -0.8823    0.2206 C   0  0  0  0  0  0  0  0  0  0  0  0
    7.1621    0.3321    0.3460 C   0  0  0  0  0  0  0  0  0  0  0  0
    8.5797   -0.0304    0.2850 N   0  0  0  0  0  0  0  0  0  0  0  0
    9.0356   -0.8296    1.4244 C   0  0  0  0  0  0  0  0  0  0  0  0
   10.5521   -0.7051    1.3627 C   0  0  0  0  0  0  0  0  0  0  0  0
   10.8198    0.5661    0.5661 C   0  0  0  0  0  0  0  0  0  0  0  0
    9.4458    1.1506    0.2848 C   0  0  0  0  0  0  0  0  0  0  0  0
    1.3107   -4.9568   -1.3573 H   0  0  0  0  0  0  0  0  0  0  0  0
    1.1374   -5.2357    0.4203 H   0  0  0  0  0  0  0  0  0  0  0  0
    2.5537   -5.8302   -0.4536 H   0  0  0  0  0  0  0  0  0  0  0  0
   -0.1519   -3.4367   -0.2684 H   0  0  0  0  0  0  0  0  0  0  0  0
   -2.1965   -2.8332    0.5507 H   0  0  0  0  0  0  0  0  0  0  0  0
   -4.2679   -3.1069   -0.3804 H   0  0  0  0  0  0  0  0  0  0  0  0
   -3.9631   -1.9293   -2.4884 H   0  0  0  0  0  0  0  0  0  0  0  0
   -3.9996   -0.3650   -1.6898 H   0  0  0  0  0  0  0  0  0  0  0  0
   -6.1751   -0.8402   -2.5928 H   0  0  0  0  0  0  0  0  0  0  0  0
   -6.2583   -2.4092   -1.7898 H   0  0  0  0  0  0  0  0  0  0  0  0
   -8.2501   -0.1174    0.4137 H   0  0  0  0  0  0  0  0  0  0  0  0
   -9.8417   -1.5172   -0.7884 H   0  0  0  0  0  0  0  0  0  0  0  0
   -8.5842   -2.5515   -0.1121 H   0  0  0  0  0  0  0  0  0  0  0  0
   -8.5852   -2.1651   -1.8441 H   0  0  0  0  0  0  0  0  0  0  0  0
   -7.6575    1.4849   -1.3951 H   0  0  0  0  0  0  0  0  0  0  0  0
   -8.1074    0.2678   -2.6073 H   0  0  0  0  0  0  0  0  0  0  0  0
   -9.3162    0.8862   -1.4797 H   0  0  0  0  0  0  0  0  0  0  0  0
   -6.4908   -0.9078    1.6129 H   0  0  0  0  0  0  0  0  0  0  0  0
   -6.4550   -2.4542    0.7613 H   0  0  0  0  0  0  0  0  0  0  0  0
   -4.2004   -0.4251    1.0733 H   0  0  0  0  0  0  0  0  0  0  0  0
   -4.2854   -2.0209    1.8015 H   0  0  0  0  0  0  0  0  0  0  0  0
   -3.0310    2.4112   -0.1370 H   0  0  0  0  0  0  0  0  0  0  0  0
   -0.4962    3.1274   -1.6301 H   0  0  0  0  0  0  0  0  0  0  0  0
   -2.1672    3.1154   -2.1426 H   0  0  0  0  0  0  0  0  0  0  0  0
   -0.6000    5.2403   -0.6925 H   0  0  0  0  0  0  0  0  0  0  0  0
   -1.7387    5.4053   -2.0220 H   0  0  0  0  0  0  0  0  0  0  0  0
   -3.6303    4.9538   -0.4571 H   0  0  0  0  0  0  0  0  0  0  0  0
   -2.7063    6.3620    0.0424 H   0  0  0  0  0  0  0  0  0  0  0  0
   -1.8656    5.3208    1.9472 H   0  0  0  0  0  0  0  0  0  0  0  0
   -3.3932    4.4738    1.7838 H   0  0  0  0  0  0  0  0  0  0  0  0
   -0.5815    3.5044    1.3200 H   0  0  0  0  0  0  0  0  0  0  0  0
   -1.9234    2.6885    2.1028 H   0  0  0  0  0  0  0  0  0  0  0  0
    2.5079    0.7014    0.1400 H   0  0  0  0  0  0  0  0  0  0  0  0
    4.6081    0.1863   -0.6967 H   0  0  0  0  0  0  0  0  0  0  0  0
    4.5321    0.0975    1.0972 H   0  0  0  0  0  0  0  0  0  0  0  0
    6.4749   -1.4533   -0.6868 H   0  0  0  0  0  0  0  0  0  0  0  0
    6.3812   -1.5731    1.0606 H   0  0  0  0  0  0  0  0  0  0  0  0
    6.9412    1.0149   -0.4848 H   0  0  0  0  0  0  0  0  0  0  0  0
    6.9360    0.8756    1.2729 H   0  0  0  0  0  0  0  0  0  0  0  0
    8.7256   -1.8764    1.3506 H   0  0  0  0  0  0  0  0  0  0  0  0
    8.6703   -0.4221    2.3759 H   0  0  0  0  0  0  0  0  0  0  0  0
   10.9875   -0.6511    2.3659 H   0  0  0  0  0  0  0  0  0  0  0  0
   10.9965   -1.5660    0.8502 H   0  0  0  0  0  0  0  0  0  0  0  0
   11.3317    0.3154   -0.3703 H   0  0  0  0  0  0  0  0  0  0  0  0
   11.4538    1.2674    1.1172 H   0  0  0  0  0  0  0  0  0  0  0  0
    9.1708    1.8541    1.0808 H   0  0  0  0  0  0  0  0  0  0  0  0
    9.4229    1.6799   -0.6729 H   0  0  0  0  0  0  0  0  0  0  0  0
  1  2  1  0
  2  3  1  0
  3  4  2  0
  4  5  1  0
  5  6  2  0
  6  7  1  0
  7  8  1  0
  8  9  1  0
  9 10  1  0
 10 11  1  0
 11 12  1  0
 12 13  1  0
 12 14  1  0
 11 15  1  0
 15 16  1  0
  6 17  1  0
 17 18  2  0
 18 19  1  0
 19 20  1  0
 20 21  1  0
 21 22  1  0
 22 23  1  0
 23 24  1  0
 18 25  1  0
 25 26  2  0
 26 27  1  0
 27 28  2  0
 28 29  1  0
 29 30  1  0
 30 31  1  0
 31 32  1  0
 32 33  1  0
 33 34  1  0
 34 35  1  0
 35 36  1  0
 36 37  1  0
 28  3  1  0
 37 33  1  0
 26  5  1  0
 16  8  1  0
 24 19  1  0
  1 38  1  0
  1 39  1  0
  1 40  1  0
  4 41  1  0
  7 42  1  0
  8 43  1  0
  9 44  1  0
  9 45  1  0
 10 46  1  0
 10 47  1  0
 12 48  1  0
 13 49  1  0
 13 50  1  0
 13 51  1  0
 14 52  1  0
 14 53  1  0
 14 54  1  0
 15 55  1  0
 15 56  1  0
 16 57  1  0
 16 58  1  0
 19 59  1  0
 20 60  1  0
 20 61  1  0
 21 62  1  0
 21 63  1  0
 22 64  1  0
 22 65  1  0
 23 66  1  0
 23 67  1  0
 24 68  1  0
 24 69  1  0
 27 70  1  0
 30 71  1  0
 30 72  1  0
 31 73  1  0
 31 74  1  0
 32 75  1  0
 32 76  1  0
 34 77  1  0
 34 78  1  0
 35 79  1  0
 35 80  1  0
 36 81  1  0
 36 82  1  0
 37 83  1  0
 37 84  1  0
M  END
$$$$
