
     RDKit          3D

 76 79  0  0  0  0  0  0  0  0999 V2000
   -2.1539    5.2465   -0.2766 C   0  0  0  0  0  0  0  0  0  0  0  0
   -1.6582    3.8712    0.2055 C   0  0  0  0  0  0  0  0  0  0  0  0
   -2.2573    3.5905    1.5874 C   0  0  0  0  0  0  0  0  0  0  0  0
   -0.1271    3.9036    0.2909 C   0  0  0  0  0  0  0  0  0  0  0  0
   -2.2417    2.6574   -1.0519 S   0  0  0  0  0  0  0  0  0  0  0  0
   -1.6429    1.1154   -0.4732 C   0  0  0  0  0  0  0  0  0  0  0  0
   -2.2995    0.2051    0.3403 C   0  0  0  0  0  0  0  0  0  0  0  0
   -3.6872    0.2542    0.9546 C   0  0  0  0  0  0  0  0  0  0  0  0
   -4.8890   -0.0532    0.0295 C   0  0  0  0  0  0  0  0  0  0  0  0
   -4.6227   -1.1107   -1.0430 C   0  0  0  0  0  0  0  0  0  0  0  0
   -5.4649    1.1981   -0.6489 C   0  0  0  0  0  0  0  0  0  0  0  0
   -5.9647   -0.5155    1.0595 C   0  0  0  0  0  0  0  0  0  0  0  0
   -6.2690   -1.7422    1.0404 O   0  0  0  0  0  0  0  0  0  0  0  0
   -6.3907    0.3798    1.8483 O   0  0  0  0  0  1  0  0  0  0  0  0
   -1.3869   -0.8154    0.6025 N   0  0  0  0  0  0  0  0  0  0  0  0
   -1.5397   -1.8814    1.5985 C   0  0  0  0  0  0  0  0  0  0  0  0
   -2.2074   -3.1300    1.0762 C   0  0  0  0  0  0  0  0  0  0  0  0
   -1.5959   -3.9463    0.1119 C   0  0  0  0  0  0  0  0  0  0  0  0
   -2.2241   -5.1099   -0.3431 C   0  0  0  0  0  0  0  0  0  0  0  0
   -3.4730   -5.4671    0.1586 C   0  0  0  0  0  0  0  0  0  0  0  0
   -4.2407   -6.9004   -0.4071 Cl  0  0  0  0  0  0  0  0  0  0  0  0
   -4.0971   -4.6703    1.1111 C   0  0  0  0  0  0  0  0  0  0  0  0
   -3.4627   -3.5135    1.5737 C   0  0  0  0  0  0  0  0  0  0  0  0
   -0.2068   -0.5953   -0.1013 C   0  0  0  0  0  0  0  0  0  0  0  0
    0.9962   -1.3227   -0.1558 C   0  0  0  0  0  0  0  0  0  0  0  0
    2.0299   -0.8630   -0.9827 C   0  0  0  0  0  0  0  0  0  0  0  0
    1.8806    0.2939   -1.7381 C   0  0  0  0  0  0  0  0  0  0  0  0
    2.8174    0.8430   -2.5720 O   0  0  0  0  0  0  0  0  0  0  0  0
    4.0110    0.0992   -2.8345 C   0  0  0  0  0  0  0  0  0  0  0  0
    5.0704    0.2616   -1.7646 C   0  0  0  0  0  0  0  0  0  0  0  0
    5.2809    1.4932   -1.1542 C   0  0  0  0  0  0  0  0  0  0  0  0
    6.2729    1.5995   -0.1859 C   0  0  0  0  0  0  0  0  0  0  0  0
    7.0406    0.4788    0.1485 C   0  0  0  0  0  0  0  0  0  0  0  0
    8.0513    0.5384    1.1244 C   0  0  0  0  0  0  0  0  0  0  0  0
    8.7975   -0.5964    1.4347 C   0  0  0  0  0  0  0  0  0  0  0  0
    8.5381   -1.7908    0.7723 C   0  0  0  0  0  0  0  0  0  0  0  0
    7.5324   -1.8447   -0.1978 C   0  0  0  0  0  0  0  0  0  0  0  0
    6.7723   -0.7301   -0.5258 C   0  0  0  0  0  0  0  0  0  0  0  0
    5.8147   -0.8357   -1.4647 N   0  0  0  0  0  0  0  0  0  0  0  0
    0.6886    1.0218   -1.6539 C   0  0  0  0  0  0  0  0  0  0  0  0
   -0.3688    0.5868   -0.8213 C   0  0  0  0  0  0  0  0  0  0  0  0
    0.0000    0.0000    0.0000 Na  0  0  0  0  0 15  0  0  0  0  0  0
   -1.7398    5.5083   -1.2579 H   0  0  0  0  0  0  0  0  0  0  0  0
   -1.8496    6.0365    0.4207 H   0  0  0  0  0  0  0  0  0  0  0  0
   -3.2479    5.2842   -0.3463 H   0  0  0  0  0  0  0  0  0  0  0  0
   -1.8941    2.6478    2.0096 H   0  0  0  0  0  0  0  0  0  0  0  0
   -1.9775    4.3787    2.2971 H   0  0  0  0  0  0  0  0  0  0  0  0
   -3.3524    3.5622    1.5565 H   0  0  0  0  0  0  0  0  0  0  0  0
    0.2814    2.9783    0.7094 H   0  0  0  0  0  0  0  0  0  0  0  0
    0.2054    4.7159    0.9487 H   0  0  0  0  0  0  0  0  0  0  0  0
    0.3324    4.0759   -0.6890 H   0  0  0  0  0  0  0  0  0  0  0  0
   -3.7112   -0.4124    1.8225 H   0  0  0  0  0  0  0  0  0  0  0  0
   -3.8175    1.2491    1.3976 H   0  0  0  0  0  0  0  0  0  0  0  0
   -3.8941   -0.7616   -1.7827 H   0  0  0  0  0  0  0  0  0  0  0  0
   -4.2467   -2.0430   -0.6214 H   0  0  0  0  0  0  0  0  0  0  0  0
   -5.5427   -1.3564   -1.5866 H   0  0  0  0  0  0  0  0  0  0  0  0
   -5.4981    2.0606    0.0262 H   0  0  0  0  0  0  0  0  0  0  0  0
   -6.4897    1.0203   -0.9978 H   0  0  0  0  0  0  0  0  0  0  0  0
   -4.8780    1.4830   -1.5263 H   0  0  0  0  0  0  0  0  0  0  0  0
   -2.0654   -1.4643    2.4634 H   0  0  0  0  0  0  0  0  0  0  0  0
   -0.5442   -2.1390    1.9787 H   0  0  0  0  0  0  0  0  0  0  0  0
   -0.6316   -3.6801   -0.3095 H   0  0  0  0  0  0  0  0  0  0  0  0
   -1.7399   -5.7227   -1.0976 H   0  0  0  0  0  0  0  0  0  0  0  0
   -5.0916   -4.9092    1.4800 H   0  0  0  0  0  0  0  0  0  0  0  0
   -3.9966   -2.8874    2.2896 H   0  0  0  0  0  0  0  0  0  0  0  0
    1.1405   -2.2279    0.4248 H   0  0  0  0  0  0  0  0  0  0  0  0
    2.9475   -1.4435   -0.9975 H   0  0  0  0  0  0  0  0  0  0  0  0
    4.4288    0.5008   -3.7655 H   0  0  0  0  0  0  0  0  0  0  0  0
    3.7895   -0.9564   -3.0351 H   0  0  0  0  0  0  0  0  0  0  0  0
    4.6729    2.3540   -1.4160 H   0  0  0  0  0  0  0  0  0  0  0  0
    6.4358    2.5549    0.3058 H   0  0  0  0  0  0  0  0  0  0  0  0
    8.2577    1.4690    1.6474 H   0  0  0  0  0  0  0  0  0  0  0  0
    9.5756   -0.5481    2.1918 H   0  0  0  0  0  0  0  0  0  0  0  0
    9.1112   -2.6835    1.0070 H   0  0  0  0  0  0  0  0  0  0  0  0
    7.3330   -2.7827   -0.7104 H   0  0  0  0  0  0  0  0  0  0  0  0
    0.5737    1.9351   -2.2307 H   0  0  0  0  0  0  0  0  0  0  0  0
  1  2  1  0
  2  3  1  0
  2  4  1  0
  2  5  1  0
  5  6  1  0
  6  7  2  0
  7  8  1  0
  8  9  1  0
  9 10  1  0
  9 11  1  0
  9 12  1  0
 12 13  2  0
 12 14  1  0
  7 15  1  0
 15 16  1  0
 16 17  1  0
 17 18  2  0
 18 19  1  0
 19 20  2  0
 20 21  1  0
 20 22  1  0
 22 23  2  0
 15 24  1  0
 24 25  2  0
 25 26  1  0
 26 27  2  0
 27 28  1  0
 28 29  1  0
 29 30  1  0
 30 31  2  0
 31 32  1  0
 32 33  2  0
 33 34  1  0
 34 35  2  0
 35 36  1  0
 36 37  2  0
 37 38  1  0
 38 39  2  0
 27 40  1  0
 40 41  2  0
 41  6  1  0
 23 17  1  0
 41 24  1  0
 39 30  1  0
 38 33  1  0
  1 43  1  0
  1 44  1  0
  1 45  1  0
  3 46  1  0
  3 47  1  0
  3 48  1  0
  4 49  1  0
  4 50  1  0
  4 51  1  0
  8 52  1  0
  8 53  1  0
 10 54  1  0
 10 55  1  0
 10 56  1  0
 11 57  1  0
 11 58  1  0
 11 59  1  0
 16 60  1  0
 16 61  1  0
 18 62  1  0
 19 63  1  0
 22 64  1  0
 23 65  1  0
 25 66  1  0
 26 67  1  0
 29 68  1  0
 29 69  1  0
 31 70  1  0
 32 71  1  0
 34 72  1  0
 35 73  1  0
 36 74  1  0
 37 75  1  0
 40 76  1  0
M  CHG  2  14  -1  42   1
M  END
$$$$
