
     RDKit          3D

 57 60  0  0  0  0  0  0  0  0999 V2000
   -7.2718    2.9173    0.3686 C   0  0  0  0  0  0  0  0  0  0  0  0
   -7.3098    1.9930   -0.5993 C   0  0  0  0  0  0  0  0  0  0  0  0
   -6.0876    1.3196   -1.1022 C   0  0  0  0  0  0  0  0  0  0  0  0
   -5.8499    1.3691   -2.3061 O   0  0  0  0  0  0  0  0  0  0  0  0
   -5.2890    0.6447   -0.1938 N   0  0  0  0  0  0  0  0  0  0  0  0
   -5.7180    0.2555    1.1525 C   0  0  0  0  0  0  0  0  0  0  0  0
   -5.0871   -1.0622    1.5905 C   0  0  0  0  0  0  0  0  0  0  0  0
   -3.5609   -0.9885    1.5929 C   0  0  0  0  0  0  0  0  0  0  0  0
   -3.0035   -0.1383    0.4356 C   0  0  1  0  0  0  0  0  0  0  0  0
   -1.7287   -0.6270   -0.0744 N   0  0  0  0  0  0  0  0  0  0  0  0
   -0.6549    0.1795    0.0377 N   0  0  0  0  0  0  0  0  0  0  0  0
    0.3462   -0.5028   -0.5371 C   0  0  0  0  0  0  0  0  0  0  0  0
    1.6592    0.1208   -0.6624 C   0  0  0  0  0  0  0  0  0  0  0  0
    2.2617    0.2648   -1.9194 C   0  0  0  0  0  0  0  0  0  0  0  0
    3.5323    0.8344   -2.0285 C   0  0  0  0  0  0  0  0  0  0  0  0
    4.2080    1.2494   -0.8818 C   0  0  0  0  0  0  0  0  0  0  0  0
    5.4501    1.8166   -1.0521 O   0  0  0  0  0  0  0  0  0  0  0  0
    6.4649    1.3415   -0.2507 C   0  0  0  0  0  0  0  0  0  0  0  0
    6.7208   -0.0223   -0.0887 C   0  0  0  0  0  0  0  0  0  0  0  0
    7.7826   -0.4376    0.7162 C   0  0  0  0  0  0  0  0  0  0  0  0
    8.5961    0.5077    1.3414 C   0  0  0  0  0  0  0  0  0  0  0  0
    8.3566    1.8693    1.1549 C   0  0  0  0  0  0  0  0  0  0  0  0
    7.2930    2.2869    0.3534 C   0  0  0  0  0  0  0  0  0  0  0  0
    3.5994    1.1477    0.3710 C   0  0  0  0  0  0  0  0  0  0  0  0
    2.3274    0.5820    0.4797 C   0  0  0  0  0  0  0  0  0  0  0  0
   -0.0770   -1.8027   -0.9550 C   0  0  0  0  0  0  0  0  0  0  0  0
    0.6521   -2.9029   -1.5630 C   0  0  0  0  0  0  0  0  0  0  0  0
    2.0074   -2.9197   -1.3986 N   0  0  0  0  0  0  0  0  0  0  0  0
    0.1072   -3.8250   -2.1676 O   0  0  0  0  0  0  0  0  0  0  0  0
   -1.4327   -1.8336   -0.6618 C   0  0  0  0  0  0  0  0  0  0  0  0
   -2.3296   -2.8309   -0.8563 N   0  0  0  0  0  0  0  0  0  0  0  0
   -4.0206    0.0947   -0.6859 C   0  0  0  0  0  0  0  0  0  0  0  0
   -8.1761    3.4401    0.6635 H   0  0  0  0  0  0  0  0  0  0  0  0
   -6.3459    3.1925    0.8646 H   0  0  0  0  0  0  0  0  0  0  0  0
   -8.2195    1.7767   -1.1461 H   0  0  0  0  0  0  0  0  0  0  0  0
   -6.8087    0.1623    1.1875 H   0  0  0  0  0  0  0  0  0  0  0  0
   -5.4196    1.0595    1.8365 H   0  0  0  0  0  0  0  0  0  0  0  0
   -5.4037   -1.8603    0.9069 H   0  0  0  0  0  0  0  0  0  0  0  0
   -5.4440   -1.3395    2.5889 H   0  0  0  0  0  0  0  0  0  0  0  0
   -3.1598   -2.0086    1.5973 H   0  0  0  0  0  0  0  0  0  0  0  0
   -3.2263   -0.5418    2.5388 H   0  0  0  0  0  0  0  0  0  0  0  0
   -2.7892    0.8527    0.8642 H   0  0  0  0  0  0  0  0  0  0  0  0
    1.7439   -0.0593   -2.8195 H   0  0  0  0  0  0  0  0  0  0  0  0
    3.9948    0.9504   -3.0046 H   0  0  0  0  0  0  0  0  0  0  0  0
    6.1047   -0.7638   -0.5896 H   0  0  0  0  0  0  0  0  0  0  0  0
    7.9801   -1.4986    0.8508 H   0  0  0  0  0  0  0  0  0  0  0  0
    9.4239    0.1831    1.9677 H   0  0  0  0  0  0  0  0  0  0  0  0
    8.9973    2.6039    1.6342 H   0  0  0  0  0  0  0  0  0  0  0  0
    7.1070    3.3470    0.2056 H   0  0  0  0  0  0  0  0  0  0  0  0
    4.1033    1.5129    1.2612 H   0  0  0  0  0  0  0  0  0  0  0  0
    1.8537    0.5069    1.4561 H   0  0  0  0  0  0  0  0  0  0  0  0
    2.4784   -2.3191   -0.7383 H   0  0  0  0  0  0  0  0  0  0  0  0
    2.4877   -3.7524   -1.7140 H   0  0  0  0  0  0  0  0  0  0  0  0
   -2.0270   -3.6096   -1.4530 H   0  0  0  0  0  0  0  0  0  0  0  0
   -3.3282   -2.6769   -0.9331 H   0  0  0  0  0  0  0  0  0  0  0  0
   -3.6014    0.7745   -1.4384 H   0  0  0  0  0  0  0  0  0  0  0  0
   -4.2696   -0.8337   -1.2107 H   0  0  0  0  0  0  0  0  0  0  0  0
  1  2  2  3
  2  3  1  0
  3  4  2  0
  3  5  1  0
  5  6  1  0
  6  7  1  0
  7  8  1  0
  8  9  1  0
  9 10  1  0
 10 11  1  0
 11 12  2  0
 12 13  1  0
 13 14  2  0
 14 15  1  0
 15 16  2  0
 16 17  1  0
 17 18  1  0
 18 19  2  0
 19 20  1  0
 20 21  2  0
 21 22  1  0
 22 23  2  0
 16 24  1  0
 24 25  2  0
 12 26  1  0
 26 27  1  0
 27 28  1  0
 27 29  2  0
 26 30  2  0
 30 31  1  0
  9 32  1  0
 32  5  1  0
 30 10  1  0
 25 13  1  0
 23 18  1  0
  1 33  1  0
  1 34  1  0
  2 35  1  0
  6 36  1  0
  6 37  1  0
  7 38  1  0
  7 39  1  0
  8 40  1  0
  8 41  1  0
  9 42  1  1
 14 43  1  0
 15 44  1  0
 19 45  1  0
 20 46  1  0
 21 47  1  0
 22 48  1  0
 23 49  1  0
 24 50  1  0
 25 51  1  0
 28 52  1  0
 28 53  1  0
 31 54  1  0
 31 55  1  0
 32 56  1  0
 32 57  1  0
M  END
$$$$
