
     RDKit          3D

 40 43  0  0  0  0  0  0  0  0999 V2000
    7.1379   -0.1051    2.0480 C   0  0  0  0  0  0  0  0  0  0  0  0
    5.9322   -0.4957    1.2276 C   0  0  0  0  0  0  0  0  0  0  0  0
    5.8158   -1.6405    0.8049 O   0  0  0  0  0  0  0  0  0  0  0  0
    5.0382    0.5459    1.0651 N   0  0  0  0  0  0  0  0  0  0  0  0
    3.8184    0.5300    0.3567 C   0  0  0  0  0  0  0  0  0  0  0  0
    3.3271   -0.5853   -0.3292 C   0  0  0  0  0  0  0  0  0  0  0  0
    2.1076   -0.5190   -1.0100 C   0  0  0  0  0  0  0  0  0  0  0  0
    1.3767    0.6646   -0.9871 C   0  0  0  0  0  0  0  0  0  0  0  0
    0.1741    0.7457   -1.6931 O   0  0  0  0  0  0  0  0  0  0  0  0
   -0.9446    0.3533   -0.9761 C   0  0  0  0  0  0  0  0  0  0  0  0
   -0.9422   -0.0614    0.2546 N   0  0  0  0  0  0  0  0  0  0  0  0
   -2.1809   -0.4246    0.8315 C   0  0  0  0  0  0  0  0  0  0  0  0
   -2.1676   -0.8775    2.1518 C   0  0  0  0  0  0  0  0  0  0  0  0
   -3.3518   -1.2522    2.7864 C   0  0  0  0  0  0  0  0  0  0  0  0
   -4.5639   -1.1754    2.1025 C   0  0  0  0  0  0  0  0  0  0  0  0
   -4.6041   -0.7259    0.7800 C   0  0  0  0  0  0  0  0  0  0  0  0
   -3.4173   -0.3536    0.1454 C   0  0  0  0  0  0  0  0  0  0  0  0
   -3.3505    0.1079   -1.1874 N   0  0  0  0  0  0  0  0  0  0  0  0
   -4.2727    0.3256   -2.1915 C   0  0  0  0  0  0  0  0  0  0  0  0
   -5.7326    0.1035   -2.1266 C   0  0  0  0  0  0  0  0  0  0  0  0
   -3.6389    0.7750   -3.2617 N   0  0  0  0  0  0  0  0  0  0  0  0
   -2.2993    0.8582   -2.9780 N   0  0  0  0  0  0  0  0  0  0  0  0
   -2.1443    0.4540   -1.7397 C   0  0  0  0  0  0  0  0  0  0  0  0
    1.8534    1.7934   -0.3297 C   0  0  0  0  0  0  0  0  0  0  0  0
    3.0725    1.7200    0.3472 C   0  0  0  0  0  0  0  0  0  0  0  0
    7.0081   -0.4724    3.0699 H   0  0  0  0  0  0  0  0  0  0  0  0
    8.0322   -0.5544    1.6057 H   0  0  0  0  0  0  0  0  0  0  0  0
    7.2814    0.9792    2.0716 H   0  0  0  0  0  0  0  0  0  0  0  0
    5.2737    1.4230    1.5115 H   0  0  0  0  0  0  0  0  0  0  0  0
    3.8694   -1.5241   -0.3570 H   0  0  0  0  0  0  0  0  0  0  0  0
    1.7369   -1.3877   -1.5456 H   0  0  0  0  0  0  0  0  0  0  0  0
   -1.2228   -0.9390    2.6868 H   0  0  0  0  0  0  0  0  0  0  0  0
   -3.3268   -1.6039    3.8146 H   0  0  0  0  0  0  0  0  0  0  0  0
   -5.4840   -1.4687    2.6044 H   0  0  0  0  0  0  0  0  0  0  0  0
   -5.5723   -0.6872    0.2993 H   0  0  0  0  0  0  0  0  0  0  0  0
   -5.9622   -0.9460   -1.9241 H   0  0  0  0  0  0  0  0  0  0  0  0
   -6.1941    0.7387   -1.3648 H   0  0  0  0  0  0  0  0  0  0  0  0
   -6.1967    0.3580   -3.0858 H   0  0  0  0  0  0  0  0  0  0  0  0
    1.2839    2.7173   -0.3386 H   0  0  0  0  0  0  0  0  0  0  0  0
    3.4301    2.6062    0.8646 H   0  0  0  0  0  0  0  0  0  0  0  0
  1  2  1  0
  2  3  2  0
  2  4  1  0
  4  5  1  0
  5  6  2  0
  6  7  1  0
  7  8  2  0
  8  9  1  0
  9 10  1  0
 10 11  2  0
 11 12  1  0
 12 13  2  0
 13 14  1  0
 14 15  2  0
 15 16  1  0
 16 17  2  0
 17 18  1  0
 18 19  1  0
 19 20  1  0
 19 21  2  0
 21 22  1  0
 22 23  2  0
  8 24  1  0
 24 25  2  0
 25  5  1  0
 23 10  1  0
 17 12  1  0
 23 18  1  0
  1 26  1  0
  1 27  1  0
  1 28  1  0
  4 29  1  0
  6 30  1  0
  7 31  1  0
 13 32  1  0
 14 33  1  0
 15 34  1  0
 16 35  1  0
 20 36  1  0
 20 37  1  0
 20 38  1  0
 24 39  1  0
 25 40  1  0
M  END
$$$$
