
     RDKit          3D

 65 69  0  0  0  0  0  0  0  0999 V2000
   -4.3921    2.8072    1.6344 C   0  0  0  0  0  0  0  0  0  0  0  0
   -4.3140    1.8732    0.5634 O   0  0  0  0  0  0  0  0  0  0  0  0
   -5.5763    1.6470   -0.0646 C   0  0  1  0  0  0  0  0  0  0  0  0
   -5.5515    1.3179   -1.5915 C   0  0  0  0  0  0  0  0  0  0  0  0
   -6.5770    1.4723   -2.2685 O   0  0  0  0  0  0  0  0  0  0  0  0
   -4.4044    0.8329   -2.1792 N   0  0  0  0  0  0  0  0  0  0  0  0
   -4.4361    0.4479   -3.6152 C   0  0  0  0  0  0  0  0  0  0  0  0
   -3.0557    0.0064   -3.7604 C   0  0  0  0  0  0  0  0  0  0  0  0
   -2.2816   -0.5090   -4.7299 N   0  0  0  0  0  0  0  0  0  0  0  0
   -1.0212   -0.7205   -4.2881 N   0  0  0  0  0  0  0  0  0  0  0  0
   -1.0143   -0.3187   -3.0066 C   0  0  0  0  0  0  0  0  0  0  0  0
    0.0740   -0.3252   -2.1609 N   0  0  0  0  0  0  0  0  0  0  0  0
    1.3566   -0.6884   -2.5151 C   0  0  0  0  0  0  0  0  0  0  0  0
    1.7683   -1.0651   -3.6041 O   0  0  0  0  0  0  0  0  0  0  0  0
    2.3478   -0.5461   -1.4125 C   0  0  0  0  0  0  0  0  0  0  0  0
    2.0443   -0.9054   -0.0975 C   0  0  0  0  0  0  0  0  0  0  0  0
    3.0002   -0.7239    0.9087 C   0  0  0  0  0  0  0  0  0  0  0  0
    4.2711   -0.1868    0.6360 C   0  0  0  0  0  0  0  0  0  0  0  0
    5.1764   -0.0160    1.6887 N   0  0  0  0  0  0  0  0  0  0  0  0
    5.6006   -1.2992    2.3058 C   0  0  0  0  0  0  0  0  0  0  0  0
    6.8696   -1.1242    3.1722 C   0  0  0  0  0  0  0  0  0  0  0  0
    8.0402   -0.5555    2.4677 N   0  0  0  0  0  0  0  0  0  0  0  0
    8.9430   -1.5955    1.9815 C   0  0  0  0  0  0  0  0  0  0  0  0
    7.6234    0.3311    1.3552 C   0  0  0  0  0  0  0  0  0  0  0  0
    6.2495    0.9962    1.5815 C   0  0  0  0  0  0  0  0  0  0  0  0
    4.5603    0.1409   -0.6956 C   0  0  0  0  0  0  0  0  0  0  0  0
    3.6152   -0.0424   -1.7125 C   0  0  0  0  0  0  0  0  0  0  0  0
   -2.2899    0.1267   -2.6436 C   0  0  0  0  0  0  0  0  0  0  0  0
   -3.0667    0.6807   -1.5308 C   0  0  0  0  0  0  0  0  0  0  0  0
   -6.3539    0.5690    0.6826 C   0  0  0  0  0  0  0  0  0  0  0  0
   -7.7494    0.6787    0.8085 C   0  0  0  0  0  0  0  0  0  0  0  0
   -8.4839   -0.3026    1.4769 C   0  0  0  0  0  0  0  0  0  0  0  0
   -7.8349   -1.4086    2.0234 C   0  0  0  0  0  0  0  0  0  0  0  0
   -6.4524   -1.5372    1.8980 C   0  0  0  0  0  0  0  0  0  0  0  0
   -5.7160   -0.5564    1.2288 C   0  0  0  0  0  0  0  0  0  0  0  0
   -3.4066    2.8703    2.1045 H   0  0  0  0  0  0  0  0  0  0  0  0
   -4.6567    3.7991    1.2538 H   0  0  0  0  0  0  0  0  0  0  0  0
   -5.1170    2.4847    2.3888 H   0  0  0  0  0  0  0  0  0  0  0  0
   -6.1413    2.5892   -0.0117 H   0  0  0  0  0  0  0  0  0  0  0  0
   -4.6796    1.3267   -4.2177 H   0  0  0  0  0  0  0  0  0  0  0  0
   -5.1731   -0.3461   -3.7604 H   0  0  0  0  0  0  0  0  0  0  0  0
   -2.5010   -0.7381   -5.6950 H   0  0  0  0  0  0  0  0  0  0  0  0
   -0.0841    0.0614   -1.2448 H   0  0  0  0  0  0  0  0  0  0  0  0
    1.0843   -1.3432    0.1610 H   0  0  0  0  0  0  0  0  0  0  0  0
    2.7392   -0.9884    1.9313 H   0  0  0  0  0  0  0  0  0  0  0  0
    5.8065   -2.0482    1.5286 H   0  0  0  0  0  0  0  0  0  0  0  0
    4.7964   -1.6870    2.9412 H   0  0  0  0  0  0  0  0  0  0  0  0
    7.1241   -2.0771    3.6528 H   0  0  0  0  0  0  0  0  0  0  0  0
    6.6275   -0.4380    3.9947 H   0  0  0  0  0  0  0  0  0  0  0  0
    9.8082   -1.1479    1.4795 H   0  0  0  0  0  0  0  0  0  0  0  0
    9.3358   -2.1839    2.8169 H   0  0  0  0  0  0  0  0  0  0  0  0
    8.4500   -2.2781    1.2797 H   0  0  0  0  0  0  0  0  0  0  0  0
    7.5774   -0.2285    0.4117 H   0  0  0  0  0  0  0  0  0  0  0  0
    8.3839    1.1100    1.2325 H   0  0  0  0  0  0  0  0  0  0  0  0
    6.0494    1.7416    0.8037 H   0  0  0  0  0  0  0  0  0  0  0  0
    6.2736    1.5620    2.5219 H   0  0  0  0  0  0  0  0  0  0  0  0
    5.5363    0.5225   -0.9794 H   0  0  0  0  0  0  0  0  0  0  0  0
    3.8703    0.2129   -2.7393 H   0  0  0  0  0  0  0  0  0  0  0  0
   -2.6966    1.6638   -1.2289 H   0  0  0  0  0  0  0  0  0  0  0  0
   -3.1422   -0.0075   -0.6865 H   0  0  0  0  0  0  0  0  0  0  0  0
   -8.2754    1.5267    0.3724 H   0  0  0  0  0  0  0  0  0  0  0  0
   -9.5643   -0.2080    1.5632 H   0  0  0  0  0  0  0  0  0  0  0  0
   -8.4082   -2.1737    2.5417 H   0  0  0  0  0  0  0  0  0  0  0  0
   -5.9478   -2.4039    2.3190 H   0  0  0  0  0  0  0  0  0  0  0  0
   -4.6384   -0.6745    1.1409 H   0  0  0  0  0  0  0  0  0  0  0  0
  1  2  1  0
  2  3  1  0
  3  4  1  0
  4  5  2  0
  4  6  1  0
  6  7  1  0
  7  8  1  0
  8  9  1  0
  9 10  1  0
 10 11  2  0
 11 12  1  0
 12 13  1  0
 13 14  2  0
 13 15  1  0
 15 16  2  0
 16 17  1  0
 17 18  2  0
 18 19  1  0
 19 20  1  0
 20 21  1  0
 21 22  1  0
 22 23  1  0
 22 24  1  0
 24 25  1  0
 18 26  1  0
 26 27  2  0
 11 28  1  0
 28 29  1  0
  3 30  1  0
 30 31  2  0
 31 32  1  0
 32 33  2  0
 33 34  1  0
 34 35  2  0
 29  6  1  0
 35 30  1  0
 28  8  2  0
 27 15  1  0
 25 19  1  0
  1 36  1  0
  1 37  1  0
  1 38  1  0
  3 39  1  6
  7 40  1  0
  7 41  1  0
  9 42  1  0
 12 43  1  0
 16 44  1  0
 17 45  1  0
 20 46  1  0
 20 47  1  0
 21 48  1  0
 21 49  1  0
 23 50  1  0
 23 51  1  0
 23 52  1  0
 24 53  1  0
 24 54  1  0
 25 55  1  0
 25 56  1  0
 26 57  1  0
 27 58  1  0
 29 59  1  0
 29 60  1  0
 31 61  1  0
 32 62  1  0
 33 63  1  0
 34 64  1  0
 35 65  1  0
M  END
$$$$
