
     RDKit          3D

 74 76  0  0  0  0  0  0  0  0999 V2000
    0.6862    0.0000    0.0000 Cl  0  0  0  0  0  0  0  0  0  0  0  0
    9.0449    0.6630    0.3674 O   0  0  0  0  0  0  0  0  0  0  0  0
    9.1911   -0.0498   -0.6379 C   0  0  0  0  0  0  0  0  0  0  0  0
   10.3223   -0.8668   -0.7718 O   0  0  0  0  0  0  0  0  0  0  0  0
    8.1896   -0.0616   -1.7221 C   0  0  0  0  0  0  0  0  0  0  0  0
    6.8388   -0.2578   -1.0838 C   0  0  0  0  0  0  0  0  0  0  0  0
    6.7308   -1.1091   -0.0015 C   0  0  0  0  0  0  0  0  0  0  0  0
    5.5339   -1.2841    0.5990 C   0  0  0  0  0  0  0  0  0  0  0  0
    4.4045   -0.5984    0.1287 C   0  0  0  0  0  0  0  0  0  0  0  0
    4.4886    0.2417   -0.9298 C   0  0  0  0  0  0  0  0  0  0  0  0
    3.4429    0.9898   -1.4553 O   0  0  0  0  0  0  0  0  0  0  0  0
    2.2334    1.0861   -1.0086 C   0  0  0  0  0  0  0  0  0  0  0  0
    1.1188    0.0530   -0.9955 C   0  0  0  0  0  0  0  0  0  0  0  0
    0.0892    0.7212   -0.1577 C   0  0  0  0  0  0  0  0  0  0  0  0
   -1.1775    0.4303    0.2676 N   0  0  0  0  0  0  0  0  0  0  0  0
   -1.2623    1.4692    1.3844 C   0  0  0  0  0  0  0  0  0  0  0  0
   -2.0642    2.6364    1.0911 C   0  0  0  0  0  0  0  0  0  0  0  0
   -3.4590    2.6523    0.9568 C   0  0  0  0  0  0  0  0  0  0  0  0
   -4.1626    3.8364    0.9181 C   0  0  0  0  0  0  0  0  0  0  0  0
   -3.4856    5.0652    1.0158 C   0  0  0  0  0  0  0  0  0  0  0  0
   -2.1068    5.1004    1.1462 C   0  0  0  0  0  0  0  0  0  0  0  0
   -1.3160    6.3663    1.1153 C   0  0  0  0  0  0  0  0  0  0  0  0
   -0.4890    6.5574    2.1623 F   0  0  0  0  0  0  0  0  0  0  0  0
   -2.2058    7.4043    0.8727 F   0  0  0  0  0  0  0  0  0  0  0  0
   -0.5401    6.3323   -0.0829 F   0  0  0  0  0  0  0  0  0  0  0  0
   -1.4632    3.8950    1.1775 C   0  0  0  0  0  0  0  0  0  0  0  0
    0.2914    3.9565    1.3245 Cl  0  0  0  0  0  0  0  0  0  0  0  0
   -1.5431   -0.8449    0.7314 C   0  0  0  0  0  0  0  0  0  0  0  0
   -2.9775   -1.2115    0.5810 C   0  0  0  0  0  0  0  0  0  0  0  0
   -3.3703   -2.5225    1.1723 C   0  0  0  0  0  0  0  0  0  0  0  0
   -2.5481   -3.5589    1.4410 C   0  0  0  0  0  0  0  0  0  0  0  0
   -3.0280   -4.7680    1.9576 C   0  0  0  0  0  0  0  0  0  0  0  0
   -4.3610   -4.9061    2.1976 C   0  0  0  0  0  0  0  0  0  0  0  0
   -5.2299   -3.8729    1.9348 C   0  0  0  0  0  0  0  0  0  0  0  0
   -4.7457   -2.6775    1.4214 C   0  0  0  0  0  0  0  0  0  0  0  0
   -3.3432   -1.5092   -0.8768 C   0  0  0  0  0  0  0  0  0  0  0  0
   -2.6567   -2.5361   -1.5003 C   0  0  0  0  0  0  0  0  0  0  0  0
   -2.9996   -3.0018   -2.7869 C   0  0  0  0  0  0  0  0  0  0  0  0
   -4.0717   -2.3723   -3.3961 C   0  0  0  0  0  0  0  0  0  0  0  0
   -4.7686   -1.3469   -2.8003 C   0  0  0  0  0  0  0  0  0  0  0  0
   -4.3854   -0.9275   -1.5362 C   0  0  0  0  0  0  0  0  0  0  0  0
    5.7417    0.3894   -1.5296 C   0  0  0  0  0  0  0  0  0  0  0  0
   -0.6862    0.0000    0.0000 H   0  0  0  0  0  0  0  0  0  0  0  0
   10.6315   -1.4370    0.0247 H   0  0  0  0  0  0  0  0  0  0  0  0
    8.3304   -0.7892   -2.4977 H   0  0  0  0  0  0  0  0  0  0  0  0
    8.1862    0.9880   -2.1773 H   0  0  0  0  0  0  0  0  0  0  0  0
    7.6003   -1.6489    0.3977 H   0  0  0  0  0  0  0  0  0  0  0  0
    5.4319   -1.9307    1.4483 H   0  0  0  0  0  0  0  0  0  0  0  0
    3.4822   -0.7549    0.6353 H   0  0  0  0  0  0  0  0  0  0  0  0
    1.7196    2.0039   -1.5047 H   0  0  0  0  0  0  0  0  0  0  0  0
    2.2670    1.4627    0.1343 H   0  0  0  0  0  0  0  0  0  0  0  0
    0.7809   -0.0587   -2.0682 H   0  0  0  0  0  0  0  0  0  0  0  0
    1.5250   -0.8942   -0.6110 H   0  0  0  0  0  0  0  0  0  0  0  0
    0.0238    1.7877   -0.6947 H   0  0  0  0  0  0  0  0  0  0  0  0
    0.7353    1.0231    0.7894 H   0  0  0  0  0  0  0  0  0  0  0  0
   -0.2700    1.7685    1.7174 H   0  0  0  0  0  0  0  0  0  0  0  0
   -1.7193    0.8930    2.2671 H   0  0  0  0  0  0  0  0  0  0  0  0
   -3.9369    1.6960    0.8980 H   0  0  0  0  0  0  0  0  0  0  0  0
   -5.2408    3.8018    0.8326 H   0  0  0  0  0  0  0  0  0  0  0  0
   -4.0304    5.9875    0.9918 H   0  0  0  0  0  0  0  0  0  0  0  0
   -0.9741   -1.6381    0.1359 H   0  0  0  0  0  0  0  0  0  0  0  0
   -1.1766   -0.9839    1.7833 H   0  0  0  0  0  0  0  0  0  0  0  0
   -3.6385   -0.4591    0.9337 H   0  0  0  0  0  0  0  0  0  0  0  0
   -1.5013   -3.4799    1.2593 H   0  0  0  0  0  0  0  0  0  0  0  0
   -2.3456   -5.5616    2.1588 H   0  0  0  0  0  0  0  0  0  0  0  0
   -4.7424   -5.8596    2.6110 H   0  0  0  0  0  0  0  0  0  0  0  0
   -6.2677   -4.0166    2.1392 H   0  0  0  0  0  0  0  0  0  0  0  0
   -5.4339   -1.8770    1.2172 H   0  0  0  0  0  0  0  0  0  0  0  0
   -1.8287   -3.0405   -1.0583 H   0  0  0  0  0  0  0  0  0  0  0  0
   -2.4704   -3.7915   -3.2541 H   0  0  0  0  0  0  0  0  0  0  0  0
   -4.3332   -2.7569   -4.3929 H   0  0  0  0  0  0  0  0  0  0  0  0
   -5.5885   -0.9298   -3.3502 H   0  0  0  0  0  0  0  0  0  0  0  0
   -4.9327   -0.1243   -1.0591 H   0  0  0  0  0  0  0  0  0  0  0  0
    5.8160    1.0579   -2.3982 H   0  0  0  0  0  0  0  0  0  0  0  0
  2  3  2  0
  3  4  1  0
  3  5  1  0
  5  6  1  0
  6  7  2  0
  7  8  1  0
  8  9  2  0
  9 10  1  0
 10 11  1  0
 11 12  1  0
 12 13  1  0
 13 14  1  0
 14 15  1  0
 15 16  1  0
 16 17  1  0
 17 18  2  0
 18 19  1  0
 19 20  2  0
 20 21  1  0
 21 22  1  0
 22 23  1  0
 22 24  1  0
 22 25  1  0
 21 26  2  0
 26 27  1  0
 15 28  1  0
 28 29  1  0
 29 30  1  0
 30 31  2  0
 31 32  1  0
 32 33  2  0
 33 34  1  0
 34 35  2  0
 29 36  1  0
 36 37  2  0
 37 38  1  0
 38 39  2  0
 39 40  1  0
 40 41  2  0
 10 42  2  0
 42  6  1  0
 26 17  1  0
 35 30  1  0
 41 36  1  0
  1 43  1  0
  4 44  1  0
  5 45  1  0
  5 46  1  0
  7 47  1  0
  8 48  1  0
  9 49  1  0
 12 50  1  0
 12 51  1  0
 13 52  1  0
 13 53  1  0
 14 54  1  0
 14 55  1  0
 16 56  1  0
 16 57  1  0
 18 58  1  0
 19 59  1  0
 20 60  1  0
 28 61  1  0
 28 62  1  0
 29 63  1  0
 31 64  1  0
 32 65  1  0
 33 66  1  0
 34 67  1  0
 35 68  1  0
 37 69  1  0
 38 70  1  0
 39 71  1  0
 40 72  1  0
 41 73  1  0
 42 74  1  0
M  END
$$$$
