
     RDKit          3D

 44 46  0  0  0  0  0  0  0  0999 V2000
    0.1392    0.4400    2.2236 C   0  0  0  0  0  0  0  0  0  0  0  0
   -0.0445   -0.3691    0.9658 C   0  0  0  0  0  0  0  0  0  0  0  0
   -1.1567   -1.2294    0.8856 C   0  0  0  0  0  0  0  0  0  0  0  0
   -1.4069   -2.0267   -0.2495 C   0  0  0  0  0  0  0  0  0  0  0  0
   -2.6381   -2.9326   -0.2852 C   0  0  0  0  0  0  0  0  0  0  0  0
   -2.6514   -3.8835    0.8568 C   0  0  0  0  0  0  0  0  0  0  0  0
   -2.6667   -4.6123    1.7619 N   0  0  0  0  0  0  0  0  0  0  0  0
   -3.9315   -2.1204   -0.4261 C   0  0  0  0  0  0  0  0  0  0  0  0
   -4.3440   -1.7056   -1.7069 C   0  0  0  0  0  0  0  0  0  0  0  0
   -5.5019   -0.9417   -1.8754 C   0  0  0  0  0  0  0  0  0  0  0  0
   -6.2591   -0.5784   -0.7659 C   0  0  0  0  0  0  0  0  0  0  0  0
   -7.6836    0.3633   -0.9722 Cl  0  0  0  0  0  0  0  0  0  0  0  0
   -5.8669   -0.9706    0.5108 C   0  0  0  0  0  0  0  0  0  0  0  0
   -4.7078   -1.7339    0.6819 C   0  0  0  0  0  0  0  0  0  0  0  0
   -0.5046   -1.9295   -1.3175 C   0  0  0  0  0  0  0  0  0  0  0  0
   -0.6977   -2.8414   -2.7756 Cl  0  0  0  0  0  0  0  0  0  0  0  0
    0.6052   -1.0758   -1.2484 C   0  0  0  0  0  0  0  0  0  0  0  0
    0.8514   -0.2907   -0.1182 C   0  0  0  0  0  0  0  0  0  0  0  0
    1.9636    0.5777   -0.0208 N   0  0  0  0  0  0  0  0  0  0  0  0
    2.9539    0.8207   -0.9520 C   0  0  0  0  0  0  0  0  0  0  0  0
    3.0300    0.3059   -2.0631 O   0  0  0  0  0  0  0  0  0  0  0  0
    4.0211    1.8048   -0.5536 C   0  0  0  0  0  0  0  0  0  0  0  0
    5.0355    2.0533   -1.4976 C   0  0  0  0  0  0  0  0  0  0  0  0
    6.0674    2.9498   -1.2173 C   0  0  0  0  0  0  0  0  0  0  0  0
    7.5498    3.2937   -2.6342 I   0  0  0  0  0  0  0  0  0  0  0  0
    6.1133    3.6165    0.0036 C   0  0  0  0  0  0  0  0  0  0  0  0
    5.1143    3.3796    0.9484 C   0  0  0  0  0  0  0  0  0  0  0  0
    5.2205    4.4038    2.7728 I   0  0  0  0  0  0  0  0  0  0  0  0
    4.0701    2.4797    0.6785 C   0  0  0  0  0  0  0  0  0  0  0  0
    3.0951    2.2604    1.6224 O   0  0  0  0  0  0  0  0  0  0  0  0
   -0.6580    0.2479    2.9496 H   0  0  0  0  0  0  0  0  0  0  0  0
    1.0879    0.1827    2.7056 H   0  0  0  0  0  0  0  0  0  0  0  0
    0.1189    1.5101    1.9934 H   0  0  0  0  0  0  0  0  0  0  0  0
   -1.8406   -1.2750    1.7336 H   0  0  0  0  0  0  0  0  0  0  0  0
   -2.5993   -3.5870   -1.1640 H   0  0  0  0  0  0  0  0  0  0  0  0
   -3.7638   -1.9721   -2.5893 H   0  0  0  0  0  0  0  0  0  0  0  0
   -5.8037   -0.6328   -2.8730 H   0  0  0  0  0  0  0  0  0  0  0  0
   -6.4571   -0.6859    1.3782 H   0  0  0  0  0  0  0  0  0  0  0  0
   -4.4280   -2.0192    1.6949 H   0  0  0  0  0  0  0  0  0  0  0  0
    1.2711   -1.0439   -2.1051 H   0  0  0  0  0  0  0  0  0  0  0  0
    2.0592    1.1000    0.8452 H   0  0  0  0  0  0  0  0  0  0  0  0
    5.0134    1.5387   -2.4579 H   0  0  0  0  0  0  0  0  0  0  0  0
    6.9206    4.3138    0.2154 H   0  0  0  0  0  0  0  0  0  0  0  0
    3.3102    2.8150    2.3988 H   0  0  0  0  0  0  0  0  0  0  0  0
  1  2  1  0
  2  3  2  0
  3  4  1  0
  4  5  1  0
  5  6  1  0
  6  7  3  0
  5  8  1  0
  8  9  2  0
  9 10  1  0
 10 11  2  0
 11 12  1  0
 11 13  1  0
 13 14  2  0
  4 15  2  0
 15 16  1  0
 15 17  1  0
 17 18  2  0
 18 19  1  0
 19 20  1  0
 20 21  2  0
 20 22  1  0
 22 23  2  0
 23 24  1  0
 24 25  1  0
 24 26  2  0
 26 27  1  0
 27 28  1  0
 27 29  2  0
 29 30  1  0
 18  2  1  0
 29 22  1  0
 14  8  1  0
  1 31  1  0
  1 32  1  0
  1 33  1  0
  3 34  1  0
  5 35  1  0
  9 36  1  0
 10 37  1  0
 13 38  1  0
 14 39  1  0
 17 40  1  0
 19 41  1  0
 23 42  1  0
 26 43  1  0
 30 44  1  0
M  END
$$$$
