
     RDKit          3D

 37 37  0  0  0  0  0  0  0  0999 V2000
   -1.5669    3.6235   -0.1173 C   0  0  0  0  0  0  0  0  0  0  0  0
   -1.9198    2.1452    0.0344 C   0  0  0  0  0  0  0  0  0  0  0  0
   -0.7238    1.4111    0.0192 N   0  0  0  0  0  0  0  0  0  0  0  0
   -0.7411    0.0187    0.1311 C   0  0  1  0  0  0  0  0  0  0  0  0
   -1.4396   -0.7247   -0.9719 C   0  0  0  0  0  0  0  0  0  0  0  0
   -1.8891   -2.1046   -0.5228 C   0  0  2  0  0  0  0  0  0  0  0  0
   -3.2830   -2.0624    0.0883 C   0  0  0  0  0  0  0  0  0  0  0  0
   -0.7587   -2.7851    0.6752 S   0  0  0  0  0  6  0  0  0  0  0  0
   -1.2666   -2.6311    2.0636 O   0  0  0  0  0  0  0  0  0  0  0  0
   -0.4245   -4.2047    0.3785 O   0  0  0  0  0  0  0  0  0  0  0  0
    0.7187   -1.8511    0.5334 C   0  0  0  0  0  0  0  0  0  0  0  0
    2.4141   -2.1956    0.6477 S   0  0  0  0  0  0  0  0  0  0  0  0
    3.0091   -0.5608    0.3483 C   0  0  0  0  0  0  0  0  0  0  0  0
    4.6964   -0.2063    0.3276 S   0  0  0  0  0  6  0  0  0  0  0  0
    4.9752    1.4521    0.0241 N   0  0  0  0  0  0  0  0  0  0  0  0
    5.4558   -1.0048   -0.6826 O   0  0  0  0  0  0  0  0  0  0  0  0
    5.2690   -0.5448    1.6787 O   0  0  0  0  0  0  0  0  0  0  0  0
    1.8653    0.1362    0.1812 C   0  0  0  0  0  0  0  0  0  0  0  0
    0.6863   -0.4748    0.2662 C   0  0  0  0  0  0  0  0  0  0  0  0
    0.6838    0.0000    0.0000 Cl  0  0  0  0  0  0  0  0  0  0  0  0
   -0.6975    3.6478   -0.8340 H   0  0  0  0  0  0  0  0  0  0  0  0
   -1.2761    4.0827    0.8509 H   0  0  0  0  0  0  0  0  0  0  0  0
   -2.3903    4.1447   -0.6151 H   0  0  0  0  0  0  0  0  0  0  0  0
   -2.3584    2.0761    1.0737 H   0  0  0  0  0  0  0  0  0  0  0  0
   -2.6536    1.9211   -0.7396 H   0  0  0  0  0  0  0  0  0  0  0  0
    0.0502    1.8855    0.4806 H   0  0  0  0  0  0  0  0  0  0  0  0
   -1.2428   -0.2719    1.0851 H   0  0  0  0  0  0  0  0  0  0  0  0
   -2.3496   -0.1962   -1.2838 H   0  0  0  0  0  0  0  0  0  0  0  0
   -0.7213   -0.8809   -1.8012 H   0  0  0  0  0  0  0  0  0  0  0  0
   -1.8960   -2.8256   -1.3843 H   0  0  0  0  0  0  0  0  0  0  0  0
   -4.0293   -2.2339   -0.7084 H   0  0  0  0  0  0  0  0  0  0  0  0
   -3.3784   -2.8381    0.8665 H   0  0  0  0  0  0  0  0  0  0  0  0
   -3.4184   -1.0623    0.5178 H   0  0  0  0  0  0  0  0  0  0  0  0
    4.9308    2.0447    0.8789 H   0  0  0  0  0  0  0  0  0  0  0  0
    4.4223    1.8373   -0.7691 H   0  0  0  0  0  0  0  0  0  0  0  0
    1.9319    1.2328   -0.0294 H   0  0  0  0  0  0  0  0  0  0  0  0
   -0.6838    0.0000    0.0000 H   0  0  0  0  0  0  0  0  0  0  0  0
  1  2  1  0
  2  3  1  0
  3  4  1  0
  4  5  1  0
  5  6  1  0
  6  7  1  0
  6  8  1  0
  8  9  2  0
  8 10  2  0
  8 11  1  0
 11 12  1  0
 12 13  1  0
 13 14  1  0
 14 15  1  0
 14 16  2  0
 14 17  2  0
 13 18  2  0
 18 19  1  0
 19  4  1  0
 19 11  2  0
  1 21  1  0
  1 22  1  0
  1 23  1  0
  2 24  1  0
  2 25  1  0
  3 26  1  0
  4 27  1  1
  5 28  1  0
  5 29  1  0
  6 30  1  6
  7 31  1  0
  7 32  1  0
  7 33  1  0
 15 34  1  0
 15 35  1  0
 18 36  1  0
 20 37  1  0
M  END
$$$$
