
     RDKit          3D

 74 75  0  0  0  0  0  0  0  0999 V2000
    7.9163   -2.6513   -1.4580 C   0  0  0  0  0  0  0  0  0  0  0  0
    6.6539   -1.9178   -1.0126 C   0  0  0  0  0  0  0  0  0  0  0  0
    5.4035   -2.7279   -1.3437 C   0  0  0  0  0  0  0  0  0  0  0  0
    4.2002   -2.0545   -0.8915 N   0  0  0  0  0  0  0  0  0  0  0  0
    4.1973   -1.2175    0.2184 C   0  0  0  0  0  0  0  0  0  0  0  0
    5.3843   -1.0249    0.9574 C   0  0  0  0  0  0  0  0  0  0  0  0
    5.3809   -0.2708    2.1435 C   0  0  0  0  0  0  0  0  0  0  0  0
    4.2062    0.3097    2.6101 C   0  0  0  0  0  0  0  0  0  0  0  0
    3.0252    0.1334    1.8977 C   0  0  0  0  0  0  0  0  0  0  0  0
    3.0207   -0.6281    0.7168 C   0  0  0  0  0  0  0  0  0  0  0  0
    1.4657   -0.8190   -0.1195 S   0  0  0  0  0  6  0  0  0  0  0  0
    1.7136   -1.0407   -1.5287 O   0  0  0  0  0  0  0  0  0  0  0  0
    0.6427   -1.6981    0.6817 O   0  0  0  0  0  0  0  0  0  0  0  0
    0.8148    0.7544   -0.0405 N   0  0  0  0  0  0  0  0  0  0  0  0
   -0.6204    0.8205    0.3792 C   0  0  1  0  0  0  0  0  0  0  0  0
   -0.9514    2.2994    0.6446 C   0  0  0  0  0  0  0  0  0  0  0  0
   -2.3429    2.4928    1.2603 C   0  0  0  0  0  0  0  0  0  0  0  0
   -2.6317    3.9572    1.5955 C   0  0  0  0  0  0  0  0  0  0  0  0
   -2.7218    4.7454    0.3823 N   0  0  0  0  0  0  0  0  0  0  0  0
   -2.8960    6.0845    0.3716 C   0  0  0  0  0  0  0  0  0  0  0  0
   -2.7531    6.9205    1.3290 N   0  0  0  0  0  0  0  0  0  0  0  0
   -3.2513    6.5252   -0.8492 N   0  0  0  0  0  0  0  0  0  0  0  0
   -1.4856    0.2942   -0.7837 C   0  0  0  0  0  0  0  0  0  0  0  0
   -1.2686    0.7185   -1.9262 O   0  0  0  0  0  0  0  0  0  0  0  0
   -2.5230   -0.5908   -0.5301 N   0  0  0  0  0  0  0  0  0  0  0  0
   -2.7958   -1.2224    0.7621 C   0  0  0  0  0  0  0  0  0  0  0  0
   -3.5000   -2.5692    0.6366 C   0  0  0  0  0  0  0  0  0  0  0  0
   -4.7952   -2.5013   -0.1849 C   0  0  1  0  0  0  0  0  0  0  0  0
   -6.0277   -2.4596    0.7215 C   0  0  0  0  0  0  0  0  0  0  0  0
   -4.8131   -1.3126   -1.1599 C   0  0  0  0  0  0  0  0  0  0  0  0
   -3.4197   -0.9192   -1.6556 C   0  0  2  0  0  0  0  0  0  0  0  0
   -2.8273   -1.9960   -2.5725 C   0  0  0  0  0  0  0  0  0  0  0  0
   -1.9911   -2.8391   -2.2919 O   0  0  0  0  0  0  0  0  0  0  0  0
   -3.3756   -1.9815   -3.8080 O   0  0  0  0  0  0  0  0  0  0  0  0
    6.6792   -1.6494    0.4947 C   0  0  0  0  0  0  0  0  0  0  0  0
    0.3171    0.2399    0.0000 O   0  0  0  0  0  0  0  0  0  0  0  0
    7.9059   -2.8208   -2.5398 H   0  0  0  0  0  0  0  0  0  0  0  0
    8.0073   -3.6255   -0.9650 H   0  0  0  0  0  0  0  0  0  0  0  0
    8.8103   -2.0660   -1.2173 H   0  0  0  0  0  0  0  0  0  0  0  0
    6.6075   -0.9565   -1.5440 H   0  0  0  0  0  0  0  0  0  0  0  0
    5.4486   -3.7183   -0.8745 H   0  0  0  0  0  0  0  0  0  0  0  0
    5.3340   -2.8914   -2.4254 H   0  0  0  0  0  0  0  0  0  0  0  0
    3.4769   -1.8842   -1.5971 H   0  0  0  0  0  0  0  0  0  0  0  0
    6.3015   -0.1377    2.7085 H   0  0  0  0  0  0  0  0  0  0  0  0
    4.2109    0.8926    3.5274 H   0  0  0  0  0  0  0  0  0  0  0  0
    2.1070    0.5793    2.2712 H   0  0  0  0  0  0  0  0  0  0  0  0
    0.9112    1.1443   -0.9881 H   0  0  0  0  0  0  0  0  0  0  0  0
   -0.7438    0.2784    1.3160 H   0  0  0  0  0  0  0  0  0  0  0  0
   -0.1994    2.7172    1.3267 H   0  0  0  0  0  0  0  0  0  0  0  0
   -0.8746    2.8732   -0.2880 H   0  0  0  0  0  0  0  0  0  0  0  0
   -2.4124    1.9041    2.1831 H   0  0  0  0  0  0  0  0  0  0  0  0
   -3.1131    2.1156    0.5776 H   0  0  0  0  0  0  0  0  0  0  0  0
   -1.8429    4.3458    2.2493 H   0  0  0  0  0  0  0  0  0  0  0  0
   -3.5814    4.0207    2.1393 H   0  0  0  0  0  0  0  0  0  0  0  0
   -3.2785    4.3038   -0.3434 H   0  0  0  0  0  0  0  0  0  0  0  0
   -2.4651    6.4296    2.1749 H   0  0  0  0  0  0  0  0  0  0  0  0
   -3.2387    7.5415   -0.8450 H   0  0  0  0  0  0  0  0  0  0  0  0
   -2.6376    6.1777   -1.5759 H   0  0  0  0  0  0  0  0  0  0  0  0
   -3.4131   -0.5230    1.3378 H   0  0  0  0  0  0  0  0  0  0  0  0
   -1.8674   -1.3738    1.3144 H   0  0  0  0  0  0  0  0  0  0  0  0
   -2.8140   -3.2737    0.1491 H   0  0  0  0  0  0  0  0  0  0  0  0
   -3.6865   -2.9833    1.6353 H   0  0  0  0  0  0  0  0  0  0  0  0
   -4.8608   -3.4289   -0.7700 H   0  0  0  0  0  0  0  0  0  0  0  0
   -6.9466   -2.4348    0.1269 H   0  0  0  0  0  0  0  0  0  0  0  0
   -6.0694   -3.3472    1.3616 H   0  0  0  0  0  0  0  0  0  0  0  0
   -6.0164   -1.5761    1.3691 H   0  0  0  0  0  0  0  0  0  0  0  0
   -5.4710   -1.5494   -2.0057 H   0  0  0  0  0  0  0  0  0  0  0  0
   -5.2557   -0.4379   -0.6632 H   0  0  0  0  0  0  0  0  0  0  0  0
   -3.5188   -0.0143   -2.2700 H   0  0  0  0  0  0  0  0  0  0  0  0
   -2.8770   -2.6819   -4.2809 H   0  0  0  0  0  0  0  0  0  0  0  0
    6.8324   -2.5821    1.0529 H   0  0  0  0  0  0  0  0  0  0  0  0
    7.5177   -0.9807    0.7257 H   0  0  0  0  0  0  0  0  0  0  0  0
   -0.6191    0.4891    0.0000 H   0  0  0  0  0  0  0  0  0  0  0  0
    0.3020   -0.7290    0.0000 H   0  0  0  0  0  0  0  0  0  0  0  0
  1  2  1  0
  2  3  1  0
  3  4  1  0
  4  5  1  0
  5  6  2  0
  6  7  1  0
  7  8  2  0
  8  9  1  0
  9 10  2  0
 10 11  1  0
 11 12  2  0
 11 13  2  0
 11 14  1  0
 14 15  1  0
 15 16  1  0
 16 17  1  0
 17 18  1  0
 18 19  1  0
 19 20  1  0
 20 21  2  3
 20 22  1  0
 15 23  1  0
 23 24  2  0
 23 25  1  0
 25 26  1  0
 26 27  1  0
 27 28  1  0
 28 29  1  0
 28 30  1  0
 30 31  1  0
 31 32  1  0
 32 33  2  0
 32 34  1  0
  6 35  1  0
 35  2  1  0
 10  5  1  0
 31 25  1  0
  1 37  1  0
  1 38  1  0
  1 39  1  0
  2 40  1  0
  3 41  1  0
  3 42  1  0
  4 43  1  0
  7 44  1  0
  8 45  1  0
  9 46  1  0
 14 47  1  0
 15 48  1  1
 16 49  1  0
 16 50  1  0
 17 51  1  0
 17 52  1  0
 18 53  1  0
 18 54  1  0
 19 55  1  0
 21 56  1  0
 22 57  1  0
 22 58  1  0
 26 59  1  0
 26 60  1  0
 27 61  1  0
 27 62  1  0
 28 63  1  6
 29 64  1  0
 29 65  1  0
 29 66  1  0
 30 67  1  0
 30 68  1  0
 31 69  1  6
 34 70  1  0
 35 71  1  0
 35 72  1  0
 36 73  1  0
 36 74  1  0
M  END
$$$$
