
     RDKit          3D

 55 58  0  0  0  0  0  0  0  0999 V2000
    3.2455   -4.3206   -2.9763 C   0  0  0  0  0  0  0  0  0  0  0  0
    3.1929   -2.8820   -3.4637 C   0  0  0  0  0  0  0  0  0  0  0  0
    2.6013   -1.9896   -2.4693 N   0  0  0  0  0  0  0  0  0  0  0  0
    3.4398   -1.3319   -1.5611 C   0  0  0  0  0  0  0  0  0  0  0  0
    2.9892   -0.5139   -0.5843 C   0  0  0  0  0  0  0  0  0  0  0  0
    3.9783    0.1000    0.3214 C   0  0  0  0  0  0  0  0  0  0  0  0
    4.1888   -0.4328    1.5992 C   0  0  0  0  0  0  0  0  0  0  0  0
    5.1180    0.1474    2.4627 C   0  0  0  0  0  0  0  0  0  0  0  0
    5.8433    1.2681    2.0550 C   0  0  0  0  0  0  0  0  0  0  0  0
    5.6468    1.8203    0.7794 C   0  0  0  0  0  0  0  0  0  0  0  0
    6.4497    3.0126    0.3220 C   0  0  0  0  0  0  0  0  0  0  0  0
    5.7007    3.9225   -0.3563 F   0  0  0  0  0  0  0  0  0  0  0  0
    7.4614    2.6591   -0.5226 F   0  0  0  0  0  0  0  0  0  0  0  0
    7.0337    3.6979    1.3444 F   0  0  0  0  0  0  0  0  0  0  0  0
    4.7117    1.2241   -0.0854 C   0  0  0  0  0  0  0  0  0  0  0  0
    1.5700   -0.3632   -0.5232 C   0  0  0  0  0  0  0  0  0  0  0  0
    0.7521    0.6152    0.6063 S   0  0  0  0  0  0  0  0  0  0  0  0
   -0.7929    0.1838   -0.0073 C   0  0  0  0  0  0  0  0  0  0  0  0
   -2.0121    0.7063    0.6110 C   0  0  0  0  0  0  0  0  0  0  0  0
   -1.9155    1.6068    1.5442 N   0  0  0  0  0  0  0  0  0  0  0  0
   -3.2692    0.2677    0.2463 N   0  0  0  0  0  0  0  0  0  0  0  0
   -4.4492    0.5275    1.0687 C   0  0  0  0  0  0  0  0  0  0  0  0
   -4.8867    2.0018    0.9264 C   0  0  0  0  0  0  0  0  0  0  0  0
   -6.2734    2.2090    0.3337 C   0  0  0  0  0  0  0  0  0  0  0  0
   -7.5201    1.3404    1.2604 S   0  0  0  0  0  6  0  0  0  0  0  0
   -7.6282    1.9782    2.5614 O   0  0  0  0  0  0  0  0  0  0  0  0
   -8.6840    1.1922    0.3986 O   0  0  0  0  0  0  0  0  0  0  0  0
   -6.8058   -0.2784    1.5101 C   0  0  0  0  0  0  0  0  0  0  0  0
   -5.5459   -0.4846    0.6935 C   0  0  0  0  0  0  0  0  0  0  0  0
   -0.6737   -0.6754   -1.0859 C   0  0  0  0  0  0  0  0  0  0  0  0
    0.6877   -0.9984   -1.3786 C   0  0  0  0  0  0  0  0  0  0  0  0
    1.1968   -1.8830   -2.4244 C   0  0  0  0  0  0  0  0  0  0  0  0
    0.4383   -2.4825   -3.1822 O   0  0  0  0  0  0  0  0  0  0  0  0
    3.7953   -4.4018   -2.0335 H   0  0  0  0  0  0  0  0  0  0  0  0
    2.2377   -4.7166   -2.8118 H   0  0  0  0  0  0  0  0  0  0  0  0
    3.7430   -4.9508   -3.7191 H   0  0  0  0  0  0  0  0  0  0  0  0
    2.6009   -2.8285   -4.3839 H   0  0  0  0  0  0  0  0  0  0  0  0
    4.2013   -2.5309   -3.7125 H   0  0  0  0  0  0  0  0  0  0  0  0
    4.5054   -1.5229   -1.6780 H   0  0  0  0  0  0  0  0  0  0  0  0
    3.6312   -1.3078    1.9312 H   0  0  0  0  0  0  0  0  0  0  0  0
    5.2774   -0.2730    3.4540 H   0  0  0  0  0  0  0  0  0  0  0  0
    6.5664    1.7090    2.7398 H   0  0  0  0  0  0  0  0  0  0  0  0
    4.5644    1.6432   -1.0795 H   0  0  0  0  0  0  0  0  0  0  0  0
   -0.9269    1.8313    1.6975 H   0  0  0  0  0  0  0  0  0  0  0  0
   -3.2783   -0.6111   -0.2576 H   0  0  0  0  0  0  0  0  0  0  0  0
   -4.1834    0.3468    2.1211 H   0  0  0  0  0  0  0  0  0  0  0  0
   -4.1703    2.5733    0.3225 H   0  0  0  0  0  0  0  0  0  0  0  0
   -4.8674    2.4608    1.9271 H   0  0  0  0  0  0  0  0  0  0  0  0
   -6.5462    3.2714    0.3623 H   0  0  0  0  0  0  0  0  0  0  0  0
   -6.3246    1.8713   -0.7111 H   0  0  0  0  0  0  0  0  0  0  0  0
   -7.5643   -1.0207    1.2385 H   0  0  0  0  0  0  0  0  0  0  0  0
   -6.5897   -0.3879    2.5772 H   0  0  0  0  0  0  0  0  0  0  0  0
   -5.1743   -1.5045    0.8738 H   0  0  0  0  0  0  0  0  0  0  0  0
   -5.7747   -0.4268   -0.3789 H   0  0  0  0  0  0  0  0  0  0  0  0
   -1.5121   -1.0682   -1.6505 H   0  0  0  0  0  0  0  0  0  0  0  0
  1  2  1  0
  2  3  1  0
  3  4  1  0
  4  5  2  0
  5  6  1  0
  6  7  2  0
  7  8  1  0
  8  9  2  0
  9 10  1  0
 10 11  1  0
 11 12  1  0
 11 13  1  0
 11 14  1  0
 10 15  2  0
  5 16  1  0
 16 17  1  0
 17 18  1  0
 18 19  1  0
 19 20  2  3
 19 21  1  0
 21 22  1  0
 22 23  1  0
 23 24  1  0
 24 25  1  0
 25 26  2  0
 25 27  2  0
 25 28  1  0
 28 29  1  0
 18 30  2  0
 30 31  1  0
 31 32  1  0
 32 33  2  0
 32  3  1  0
 15  6  1  0
 31 16  2  0
 29 22  1  0
  1 34  1  0
  1 35  1  0
  1 36  1  0
  2 37  1  0
  2 38  1  0
  4 39  1  0
  7 40  1  0
  8 41  1  0
  9 42  1  0
 15 43  1  0
 20 44  1  0
 21 45  1  0
 22 46  1  0
 23 47  1  0
 23 48  1  0
 24 49  1  0
 24 50  1  0
 28 51  1  0
 28 52  1  0
 29 53  1  0
 29 54  1  0
 30 55  1  0
M  END
$$$$
