
     RDKit          3D

104109  0  0  0  0  0  0  0  0999 V2000
   -1.6560   -4.8762   -0.7307 C   0  0  0  0  0  0  0  0  0  0  0  0
   -2.5663   -3.7947   -0.8729 O   0  0  0  0  0  0  0  0  0  0  0  0
   -2.0685   -2.5273   -0.7204 C   0  0  0  0  0  0  0  0  0  0  0  0
   -0.8018   -2.2331   -0.2158 C   0  0  0  0  0  0  0  0  0  0  0  0
   -0.3652   -0.8905   -0.0798 C   0  0  0  0  0  0  0  0  0  0  0  0
    0.8771   -0.4944    0.4318 C   0  0  0  0  0  0  0  0  0  0  0  0
    1.7577   -1.4860    0.9223 N   0  0  0  0  0  0  0  0  0  0  0  0
    3.1154   -1.0600    1.2990 C   0  0  0  0  0  0  0  0  0  0  0  0
    3.6664   -2.0458    2.3459 C   0  0  0  0  0  0  0  0  0  0  0  0
    5.1697   -2.2492    2.1827 C   0  0  0  0  0  0  0  0  0  0  0  0
    5.4559   -2.8787    0.8938 N   0  0  0  0  0  0  0  0  0  0  0  0
    6.8880   -3.1078    0.6470 C   0  0  0  0  0  0  0  0  0  0  0  0
    7.1167   -4.2491   -0.3751 C   0  0  0  0  0  0  0  0  0  0  0  0
    7.8540   -3.8019   -1.6327 C   0  0  0  0  0  0  0  0  0  0  0  0
    9.1778   -3.1121   -1.3142 C   0  0  0  0  0  0  0  0  0  0  0  0
    9.1152   -2.1852   -0.1004 C   0  0  0  0  0  0  0  0  0  0  0  0
    7.6867   -1.8340    0.3064 C   0  0  0  0  0  0  0  0  0  0  0  0
    4.6766   -2.3490   -0.2321 C   0  0  0  0  0  0  0  0  0  0  0  0
    4.0163   -0.9998    0.0556 C   0  0  0  0  0  0  0  0  0  0  0  0
    1.2394    0.7968    0.4976 N   0  0  0  0  0  0  0  0  0  0  0  0
    0.3735    1.7409    0.1017 C   0  0  0  0  0  0  0  0  0  0  0  0
    0.6981    3.0897    0.2790 N   0  0  0  0  0  0  0  0  0  0  0  0
    2.0871    3.3516    0.6432 C   0  0  0  0  0  0  0  0  0  0  0  0
    2.2652    4.7208    1.2992 C   0  0  0  0  0  0  0  0  0  0  0  0
    2.1253    5.8928    0.3253 C   0  0  0  0  0  0  0  0  0  0  0  0
    0.7734    6.3758    0.0328 N   0  0  0  0  0  0  0  0  0  0  0  0
    0.4252    7.6205    0.7510 C   0  0  0  0  0  0  0  0  0  0  0  0
    0.2402    7.4598    2.2663 C   0  0  0  0  0  0  0  0  0  0  0  0
   -0.8043    8.3097    0.1421 C   0  0  0  0  0  0  0  0  0  0  0  0
   -0.2849    5.3545    0.0095 C   0  0  0  0  0  0  0  0  0  0  0  0
    0.0652    4.0125   -0.6735 C   0  0  0  0  0  0  0  0  0  0  0  0
   -0.8352    1.4337   -0.3878 N   0  0  0  0  0  0  0  0  0  0  0  0
   -1.1943    0.1511   -0.4797 C   0  0  0  0  0  0  0  0  0  0  0  0
   -2.4552   -0.1530   -0.9773 C   0  0  0  0  0  0  0  0  0  0  0  0
   -2.9159   -1.4703   -1.0879 C   0  0  0  0  0  0  0  0  0  0  0  0
   -4.1608   -1.8298   -1.5365 O   0  0  0  0  0  0  0  0  0  0  0  0
   -5.1186   -0.8258   -1.8759 C   0  0  0  0  0  0  0  0  0  0  0  0
   -5.8117   -0.2401   -0.6422 C   0  0  0  0  0  0  0  0  0  0  0  0
   -6.5799   -1.2854    0.1791 C   0  0  0  0  0  0  0  0  0  0  0  0
   -7.7344   -1.8519   -0.5362 N   0  0  0  0  0  0  0  0  0  0  0  0
   -8.8807   -0.9451   -0.5920 C   0  0  0  0  0  0  0  0  0  0  0  0
   -9.9284   -1.4773   -1.5776 C   0  0  0  0  0  0  0  0  0  0  0  0
  -10.0444   -3.0026   -1.5703 C   0  0  0  0  0  0  0  0  0  0  0  0
   -9.5596   -3.5771   -0.2502 C   0  0  0  0  0  0  0  0  0  0  0  0
   -8.1165   -3.1485    0.0553 C   0  0  0  0  0  0  0  0  0  0  0  0
   -1.3440   -4.9859    0.3118 H   0  0  0  0  0  0  0  0  0  0  0  0
   -2.1750   -5.7940   -1.0211 H   0  0  0  0  0  0  0  0  0  0  0  0
   -0.7927   -4.7621   -1.3929 H   0  0  0  0  0  0  0  0  0  0  0  0
   -0.1238   -3.0272    0.0804 H   0  0  0  0  0  0  0  0  0  0  0  0
    1.2791   -1.9545    1.6894 H   0  0  0  0  0  0  0  0  0  0  0  0
    3.0961   -0.0689    1.7706 H   0  0  0  0  0  0  0  0  0  0  0  0
    3.1635   -3.0206    2.2773 H   0  0  0  0  0  0  0  0  0  0  0  0
    3.4476   -1.6661    3.3511 H   0  0  0  0  0  0  0  0  0  0  0  0
    5.5221   -2.8988    2.9926 H   0  0  0  0  0  0  0  0  0  0  0  0
    5.6838   -1.2871    2.2897 H   0  0  0  0  0  0  0  0  0  0  0  0
    7.3058   -3.4934    1.5891 H   0  0  0  0  0  0  0  0  0  0  0  0
    7.7115   -5.0330    0.1148 H   0  0  0  0  0  0  0  0  0  0  0  0
    6.1745   -4.7308   -0.6587 H   0  0  0  0  0  0  0  0  0  0  0  0
    8.0407   -4.6643   -2.2818 H   0  0  0  0  0  0  0  0  0  0  0  0
    7.2196   -3.1198   -2.2093 H   0  0  0  0  0  0  0  0  0  0  0  0
    9.5039   -2.5459   -2.1955 H   0  0  0  0  0  0  0  0  0  0  0  0
    9.9562   -3.8682   -1.1407 H   0  0  0  0  0  0  0  0  0  0  0  0
    9.6171   -2.6716    0.7453 H   0  0  0  0  0  0  0  0  0  0  0  0
    9.6847   -1.2714   -0.3042 H   0  0  0  0  0  0  0  0  0  0  0  0
    7.2199   -1.2697   -0.5055 H   0  0  0  0  0  0  0  0  0  0  0  0
    7.7167   -1.1612    1.1706 H   0  0  0  0  0  0  0  0  0  0  0  0
    3.8936   -3.0824   -0.4675 H   0  0  0  0  0  0  0  0  0  0  0  0
    5.2740   -2.2604   -1.1460 H   0  0  0  0  0  0  0  0  0  0  0  0
    3.4574   -0.6724   -0.8281 H   0  0  0  0  0  0  0  0  0  0  0  0
    4.8011   -0.2491    0.2146 H   0  0  0  0  0  0  0  0  0  0  0  0
    2.4369    2.6268    1.3908 H   0  0  0  0  0  0  0  0  0  0  0  0
    2.7393    3.2574   -0.2348 H   0  0  0  0  0  0  0  0  0  0  0  0
    1.5896    4.8300    2.1552 H   0  0  0  0  0  0  0  0  0  0  0  0
    3.2821    4.7556    1.7083 H   0  0  0  0  0  0  0  0  0  0  0  0
    2.7453    6.7188    0.6980 H   0  0  0  0  0  0  0  0  0  0  0  0
    2.5909    5.6171   -0.6298 H   0  0  0  0  0  0  0  0  0  0  0  0
    1.2523    8.3305    0.6017 H   0  0  0  0  0  0  0  0  0  0  0  0
    0.0394    8.4322    2.7318 H   0  0  0  0  0  0  0  0  0  0  0  0
   -0.6035    6.8054    2.5133 H   0  0  0  0  0  0  0  0  0  0  0  0
    1.1415    7.0606    2.7408 H   0  0  0  0  0  0  0  0  0  0  0  0
   -0.9301    9.3083    0.5751 H   0  0  0  0  0  0  0  0  0  0  0  0
   -0.6838    8.4369   -0.9399 H   0  0  0  0  0  0  0  0  0  0  0  0
   -1.7282    7.7520    0.3280 H   0  0  0  0  0  0  0  0  0  0  0  0
   -1.1272    5.7682   -0.5577 H   0  0  0  0  0  0  0  0  0  0  0  0
   -0.6559    5.1445    1.0188 H   0  0  0  0  0  0  0  0  0  0  0  0
    0.7049    4.1672   -1.5525 H   0  0  0  0  0  0  0  0  0  0  0  0
   -0.8851    3.6256   -1.0621 H   0  0  0  0  0  0  0  0  0  0  0  0
   -3.0749    0.6882   -1.2714 H   0  0  0  0  0  0  0  0  0  0  0  0
   -5.8649   -1.3088   -2.5188 H   0  0  0  0  0  0  0  0  0  0  0  0
   -4.6672   -0.0419   -2.4959 H   0  0  0  0  0  0  0  0  0  0  0  0
   -5.0676    0.2107    0.0232 H   0  0  0  0  0  0  0  0  0  0  0  0
   -6.4725    0.5737   -0.9544 H   0  0  0  0  0  0  0  0  0  0  0  0
   -6.9045   -0.8352    1.1272 H   0  0  0  0  0  0  0  0  0  0  0  0
   -5.8735   -2.0850    0.4435 H   0  0  0  0  0  0  0  0  0  0  0  0
   -9.3262   -0.8213    0.4032 H   0  0  0  0  0  0  0  0  0  0  0  0
   -8.5948    0.0571   -0.9257 H   0  0  0  0  0  0  0  0  0  0  0  0
   -9.6905   -1.1482   -2.5955 H   0  0  0  0  0  0  0  0  0  0  0  0
  -10.8992   -1.0326   -1.3263 H   0  0  0  0  0  0  0  0  0  0  0  0
  -11.0796   -3.3018   -1.7664 H   0  0  0  0  0  0  0  0  0  0  0  0
   -9.4399   -3.4152   -2.3870 H   0  0  0  0  0  0  0  0  0  0  0  0
   -9.6250   -4.6699   -0.2657 H   0  0  0  0  0  0  0  0  0  0  0  0
  -10.2195   -3.2294    0.5552 H   0  0  0  0  0  0  0  0  0  0  0  0
   -7.4271   -3.9105   -0.3287 H   0  0  0  0  0  0  0  0  0  0  0  0
   -7.9984   -3.1364    1.1472 H   0  0  0  0  0  0  0  0  0  0  0  0
  1  2  1  0
  2  3  1  0
  3  4  2  0
  4  5  1  0
  5  6  2  0
  6  7  1  0
  7  8  1  0
  8  9  1  0
  9 10  1  0
 10 11  1  0
 11 12  1  0
 12 13  1  0
 13 14  1  0
 14 15  1  0
 15 16  1  0
 16 17  1  0
 11 18  1  0
 18 19  1  0
  6 20  1  0
 20 21  2  0
 21 22  1  0
 22 23  1  0
 23 24  1  0
 24 25  1  0
 25 26  1  0
 26 27  1  0
 27 28  1  0
 27 29  1  0
 26 30  1  0
 30 31  1  0
 21 32  1  0
 32 33  2  0
 33 34  1  0
 34 35  2  0
 35 36  1  0
 36 37  1  0
 37 38  1  0
 38 39  1  0
 39 40  1  0
 40 41  1  0
 41 42  1  0
 42 43  1  0
 43 44  1  0
 44 45  1  0
 35  3  1  0
 45 40  1  0
 33  5  1  0
 19  8  1  0
 31 22  1  0
 17 12  1  0
  1 46  1  0
  1 47  1  0
  1 48  1  0
  4 49  1  0
  7 50  1  0
  8 51  1  0
  9 52  1  0
  9 53  1  0
 10 54  1  0
 10 55  1  0
 12 56  1  0
 13 57  1  0
 13 58  1  0
 14 59  1  0
 14 60  1  0
 15 61  1  0
 15 62  1  0
 16 63  1  0
 16 64  1  0
 17 65  1  0
 17 66  1  0
 18 67  1  0
 18 68  1  0
 19 69  1  0
 19 70  1  0
 23 71  1  0
 23 72  1  0
 24 73  1  0
 24 74  1  0
 25 75  1  0
 25 76  1  0
 27 77  1  0
 28 78  1  0
 28 79  1  0
 28 80  1  0
 29 81  1  0
 29 82  1  0
 29 83  1  0
 30 84  1  0
 30 85  1  0
 31 86  1  0
 31 87  1  0
 34 88  1  0
 37 89  1  0
 37 90  1  0
 38 91  1  0
 38 92  1  0
 39 93  1  0
 39 94  1  0
 41 95  1  0
 41 96  1  0
 42 97  1  0
 42 98  1  0
 43 99  1  0
 43100  1  0
 44101  1  0
 44102  1  0
 45103  1  0
 45104  1  0
M  END
$$$$
