
     RDKit          3D

 19 17  0  0  0  0  0  0  0  0999 V2000
   -2.2706   -0.5083    0.3029 C   0  0  0  0  0  0  0  0  0  0  0  0
   -0.8883   -0.3672    0.9250 C   0  0  0  0  0  0  0  0  0  0  0  0
    0.0114    0.4647    0.1176 N   0  0  0  0  0  0  0  0  0  0  0  0
    0.8726   -0.2709   -0.8156 C   0  0  0  0  0  0  0  0  0  0  0  0
    2.2440   -0.5765   -0.2293 C   0  0  0  0  0  0  0  0  0  0  0  0
    0.0449    1.8253    0.2267 C   0  0  0  0  0  0  0  0  0  0  0  0
    1.0280    2.7821   -0.8079 S   0  0  0  0  0  0  0  0  0  0  0  0
   -0.8944    2.6519    1.4043 S   0  0  0  0  0  1  0  0  0  0  0  0
    0.0000    0.0000    0.0000 Na  0  0  0  0  0 15  0  0  0  0  0  0
   -2.2036   -0.9462   -0.6986 H   0  0  0  0  0  0  0  0  0  0  0  0
   -2.8965   -1.1624    0.9179 H   0  0  0  0  0  0  0  0  0  0  0  0
   -2.7784    0.4554    0.2072 H   0  0  0  0  0  0  0  0  0  0  0  0
   -0.9418   -0.0125    1.9588 H   0  0  0  0  0  0  0  0  0  0  0  0
   -0.4446   -1.3681    1.0057 H   0  0  0  0  0  0  0  0  0  0  0  0
    0.3809   -1.2233   -1.0529 H   0  0  0  0  0  0  0  0  0  0  0  0
    0.9474    0.2409   -1.7799 H   0  0  0  0  0  0  0  0  0  0  0  0
    2.8395   -1.1541   -0.9431 H   0  0  0  0  0  0  0  0  0  0  0  0
    2.1517   -1.1646    0.6899 H   0  0  0  0  0  0  0  0  0  0  0  0
    2.7978    0.3337    0.0167 H   0  0  0  0  0  0  0  0  0  0  0  0
  1  2  1  0
  2  3  1  0
  3  4  1  0
  4  5  1  0
  3  6  1  0
  6  7  2  0
  6  8  1  0
  1 10  1  0
  1 11  1  0
  1 12  1  0
  2 13  1  0
  2 14  1  0
  4 15  1  0
  4 16  1  0
  5 17  1  0
  5 18  1  0
  5 19  1  0
M  CHG  2   8  -1   9   1
M  END
$$$$
