
     RDKit          3D

 43 45  0  0  0  0  0  0  0  0999 V2000
   -9.2868    0.3964    0.5536 C   0  0  0  0  0  0  0  0  0  0  0  0
   -8.2083    1.3229    0.6132 O   0  0  0  0  0  0  0  0  0  0  0  0
   -6.9546    0.8251    0.3960 C   0  0  0  0  0  0  0  0  0  0  0  0
   -5.9374    1.7786    0.4005 C   0  0  0  0  0  0  0  0  0  0  0  0
   -4.6060    1.4061    0.1849 C   0  0  0  0  0  0  0  0  0  0  0  0
   -4.2701    0.0672   -0.0315 C   0  0  0  0  0  0  0  0  0  0  0  0
   -2.9077   -0.2223   -0.2438 N   0  0  0  0  0  0  0  0  0  0  0  0
   -2.3089   -1.4603   -0.4368 C   0  0  0  0  0  0  0  0  0  0  0  0
   -2.9071   -2.5361   -0.4317 O   0  0  0  0  0  0  0  0  0  0  0  0
   -0.8691   -1.3436   -0.6452 C   0  0  0  0  0  0  0  0  0  0  0  0
   -0.2418   -0.1805   -0.7068 N   0  0  0  0  0  0  0  0  0  0  0  0
    1.1082   -0.3386   -0.9381 N   0  0  0  0  0  0  0  0  0  0  0  0
    1.4559   -1.6082   -1.0263 C   0  0  0  0  0  0  0  0  0  0  0  0
    2.8499   -2.0935   -1.2675 C   0  0  0  0  0  0  0  0  0  0  0  0
    3.5248   -2.1734   -0.0057 O   0  0  0  0  0  0  0  0  0  0  0  0
    4.1779   -0.9641    0.3625 C   0  0  0  0  0  0  0  0  0  0  0  0
    5.4260   -0.5828   -0.4547 C   0  0  0  0  0  0  0  0  0  0  0  0
    5.8557   -1.2658   -1.3804 O   0  0  0  0  0  0  0  0  0  0  0  0
    6.0045    0.6119   -0.0503 N   0  0  0  0  0  0  0  0  0  0  0  0
    7.1735    1.1524   -0.6795 C   0  0  0  0  0  0  0  0  0  0  0  0
    8.4490    1.3144    0.1034 C   0  0  0  0  0  0  0  0  0  0  0  0
    7.6774    2.5255   -0.3338 C   0  0  0  0  0  0  0  0  0  0  0  0
    0.1437   -2.7113   -0.8310 S   0  0  0  0  0  0  0  0  0  0  0  0
   -5.2915   -0.8899   -0.0281 C   0  0  0  0  0  0  0  0  0  0  0  0
   -6.6263   -0.5125    0.1829 C   0  0  0  0  0  0  0  0  0  0  0  0
   -9.2061   -0.3519    1.3481 H   0  0  0  0  0  0  0  0  0  0  0  0
  -10.2158    0.9515    0.7153 H   0  0  0  0  0  0  0  0  0  0  0  0
   -9.3498   -0.0768   -0.4321 H   0  0  0  0  0  0  0  0  0  0  0  0
   -6.1828    2.8227    0.5712 H   0  0  0  0  0  0  0  0  0  0  0  0
   -3.8420    2.1808    0.1939 H   0  0  0  0  0  0  0  0  0  0  0  0
   -2.2629    0.5652   -0.2442 H   0  0  0  0  0  0  0  0  0  0  0  0
    3.3674   -1.4368   -1.9753 H   0  0  0  0  0  0  0  0  0  0  0  0
    2.8419   -3.0992   -1.7011 H   0  0  0  0  0  0  0  0  0  0  0  0
    3.4702   -0.1302    0.3461 H   0  0  0  0  0  0  0  0  0  0  0  0
    4.5080   -1.0901    1.4013 H   0  0  0  0  0  0  0  0  0  0  0  0
    5.5557    1.1579    0.6761 H   0  0  0  0  0  0  0  0  0  0  0  0
    7.2827    0.8495   -1.7216 H   0  0  0  0  0  0  0  0  0  0  0  0
    8.4509    1.0651    1.1606 H   0  0  0  0  0  0  0  0  0  0  0  0
    9.3848    1.0971   -0.4072 H   0  0  0  0  0  0  0  0  0  0  0  0
    7.1567    3.0964    0.4248 H   0  0  0  0  0  0  0  0  0  0  0  0
    8.0823    3.1219   -1.1390 H   0  0  0  0  0  0  0  0  0  0  0  0
   -5.0905   -1.9454   -0.1901 H   0  0  0  0  0  0  0  0  0  0  0  0
   -7.3816   -1.2955    0.1756 H   0  0  0  0  0  0  0  0  0  0  0  0
  1  2  1  0
  2  3  1  0
  3  4  2  0
  4  5  1  0
  5  6  2  0
  6  7  1  0
  7  8  1  0
  8  9  2  0
  8 10  1  0
 10 11  2  0
 11 12  1  0
 12 13  2  0
 13 14  1  0
 14 15  1  0
 15 16  1  0
 16 17  1  0
 17 18  2  0
 17 19  1  0
 19 20  1  0
 20 21  1  0
 21 22  1  0
 13 23  1  0
  6 24  1  0
 24 25  2  0
 25  3  1  0
 23 10  1  0
 22 20  1  0
  1 26  1  0
  1 27  1  0
  1 28  1  0
  4 29  1  0
  5 30  1  0
  7 31  1  0
 14 32  1  0
 14 33  1  0
 16 34  1  0
 16 35  1  0
 19 36  1  0
 20 37  1  0
 21 38  1  0
 21 39  1  0
 22 40  1  0
 22 41  1  0
 24 42  1  0
 25 43  1  0
M  END
$$$$
