
     RDKit          3D

 65 68  0  0  0  0  0  0  0  0999 V2000
    8.6952    1.7448   -1.6025 C   0  0  0  0  0  0  0  0  0  0  0  0
    8.2206    1.7933   -0.2228 N   0  0  0  0  0  0  0  0  0  0  0  0
    6.8558    2.3514   -0.1229 C   0  0  0  0  0  0  0  0  0  0  0  0
    5.7457    1.2841    0.0104 C   0  0  0  0  0  0  0  0  0  0  0  0
    5.9010    0.4192    1.2035 N   0  0  0  0  0  0  0  0  0  0  0  0
    5.2770   -0.8961    0.9986 C   0  0  0  0  0  0  0  0  0  0  0  0
    3.7719   -0.8333    0.8543 C   0  0  0  0  0  0  0  0  0  0  0  0
    3.1472   -1.1700   -0.3500 C   0  0  0  0  0  0  0  0  0  0  0  0
    1.7511   -1.1434   -0.4551 C   0  0  0  0  0  0  0  0  0  0  0  0
    0.9380   -0.7858    0.6327 C   0  0  0  0  0  0  0  0  0  0  0  0
   -0.4518   -0.8223    0.4714 N   0  0  0  0  0  0  0  0  0  0  0  0
   -1.5251   -0.7189    1.3501 C   0  0  0  0  0  0  0  0  0  0  0  0
   -1.3520   -0.5073    2.6609 N   0  0  0  0  0  0  0  0  0  0  0  0
   -2.4560   -0.4555    3.4300 C   0  0  0  0  0  0  0  0  0  0  0  0
   -3.7296   -0.6038    2.9406 C   0  0  0  0  0  0  0  0  0  0  0  0
   -5.0840   -0.5150    3.9940 Cl  0  0  0  0  0  0  0  0  0  0  0  0
   -3.8354   -0.8102    1.5723 C   0  0  0  0  0  0  0  0  0  0  0  0
   -5.1149   -1.0007    0.9981 N   0  0  0  0  0  0  0  0  0  0  0  0
   -5.4706   -1.4273   -0.2976 C   0  0  0  0  0  0  0  0  0  0  0  0
   -4.7083   -2.4115   -0.9503 C   0  0  0  0  0  0  0  0  0  0  0  0
   -5.0517   -2.8897   -2.2193 C   0  0  0  0  0  0  0  0  0  0  0  0
   -6.1756   -2.3949   -2.8704 C   0  0  0  0  0  0  0  0  0  0  0  0
   -6.9453   -1.4107   -2.2578 C   0  0  0  0  0  0  0  0  0  0  0  0
   -6.5813   -0.9122   -0.9941 C   0  0  0  0  0  0  0  0  0  0  0  0
   -7.6030    0.3770   -0.3028 S   0  0  0  0  0  6  0  0  0  0  0  0
   -7.3363    0.4315    1.1221 O   0  0  0  0  0  0  0  0  0  0  0  0
   -8.9501    0.1822   -0.7949 O   0  0  0  0  0  0  0  0  0  0  0  0
   -6.9733    1.7972   -0.9992 N   0  0  0  0  0  0  0  0  0  0  0  0
   -5.6040    2.1791   -0.6071 C   0  0  0  0  0  0  0  0  0  0  0  0
   -7.2499    2.0284   -2.4261 C   0  0  0  0  0  0  0  0  0  0  0  0
   -2.7359   -0.8710    0.7855 N   0  0  0  0  0  0  0  0  0  0  0  0
    1.5757   -0.4341    1.8256 C   0  0  0  0  0  0  0  0  0  0  0  0
    2.9715   -0.4531    1.9370 C   0  0  0  0  0  0  0  0  0  0  0  0
    7.3240    0.2897    1.5845 C   0  0  0  0  0  0  0  0  0  0  0  0
    8.3062    0.4599    0.4057 C   0  0  0  0  0  0  0  0  0  0  0  0
    9.7111    1.3367   -1.6462 H   0  0  0  0  0  0  0  0  0  0  0  0
    8.0496    1.1317   -2.2410 H   0  0  0  0  0  0  0  0  0  0  0  0
    8.7423    2.7535   -2.0274 H   0  0  0  0  0  0  0  0  0  0  0  0
    6.8246    2.9983    0.7641 H   0  0  0  0  0  0  0  0  0  0  0  0
    6.6337    3.0088   -0.9727 H   0  0  0  0  0  0  0  0  0  0  0  0
    5.7494    0.6858   -0.9116 H   0  0  0  0  0  0  0  0  0  0  0  0
    4.7746    1.7901    0.0647 H   0  0  0  0  0  0  0  0  0  0  0  0
    5.7231   -1.4120    0.1375 H   0  0  0  0  0  0  0  0  0  0  0  0
    5.4736   -1.5391    1.8679 H   0  0  0  0  0  0  0  0  0  0  0  0
    3.7386   -1.4636   -1.2139 H   0  0  0  0  0  0  0  0  0  0  0  0
    1.2998   -1.4232   -1.4039 H   0  0  0  0  0  0  0  0  0  0  0  0
   -0.7980   -1.0381   -0.4510 H   0  0  0  0  0  0  0  0  0  0  0  0
   -2.2697   -0.2840    4.4864 H   0  0  0  0  0  0  0  0  0  0  0  0
   -5.8240   -0.4248    1.4661 H   0  0  0  0  0  0  0  0  0  0  0  0
   -3.8422   -2.8462   -0.4545 H   0  0  0  0  0  0  0  0  0  0  0  0
   -4.4459   -3.6628   -2.6857 H   0  0  0  0  0  0  0  0  0  0  0  0
   -6.4546   -2.7791   -3.8487 H   0  0  0  0  0  0  0  0  0  0  0  0
   -7.8291   -1.0335   -2.7680 H   0  0  0  0  0  0  0  0  0  0  0  0
   -5.4232    3.2254   -0.8770 H   0  0  0  0  0  0  0  0  0  0  0  0
   -4.8612    1.5578   -1.1156 H   0  0  0  0  0  0  0  0  0  0  0  0
   -5.4675    2.1043    0.4747 H   0  0  0  0  0  0  0  0  0  0  0  0
   -6.5806    1.4402   -3.0596 H   0  0  0  0  0  0  0  0  0  0  0  0
   -8.2882    1.7915   -2.6727 H   0  0  0  0  0  0  0  0  0  0  0  0
   -7.1083    3.0894   -2.6582 H   0  0  0  0  0  0  0  0  0  0  0  0
    1.0049   -0.1339    2.6988 H   0  0  0  0  0  0  0  0  0  0  0  0
    3.4334   -0.1709    2.8813 H   0  0  0  0  0  0  0  0  0  0  0  0
    7.5184   -0.6645    2.0885 H   0  0  0  0  0  0  0  0  0  0  0  0
    7.5387    1.0623    2.3344 H   0  0  0  0  0  0  0  0  0  0  0  0
    9.3290    0.3057    0.7645 H   0  0  0  0  0  0  0  0  0  0  0  0
    8.1009   -0.3333   -0.3259 H   0  0  0  0  0  0  0  0  0  0  0  0
  1  2  1  0
  2  3  1  0
  3  4  1  0
  4  5  1  0
  5  6  1  0
  6  7  1  0
  7  8  2  0
  8  9  1  0
  9 10  2  0
 10 11  1  0
 11 12  1  0
 12 13  2  0
 13 14  1  0
 14 15  2  0
 15 16  1  0
 15 17  1  0
 17 18  1  0
 18 19  1  0
 19 20  2  0
 20 21  1  0
 21 22  2  0
 22 23  1  0
 23 24  2  0
 24 25  1  0
 25 26  2  0
 25 27  2  0
 25 28  1  0
 28 29  1  0
 28 30  1  0
 17 31  2  0
 10 32  1  0
 32 33  2  0
  5 34  1  0
 34 35  1  0
 35  2  1  0
 33  7  1  0
 31 12  1  0
 24 19  1  0
  1 36  1  0
  1 37  1  0
  1 38  1  0
  3 39  1  0
  3 40  1  0
  4 41  1  0
  4 42  1  0
  6 43  1  0
  6 44  1  0
  8 45  1  0
  9 46  1  0
 11 47  1  0
 14 48  1  0
 18 49  1  0
 20 50  1  0
 21 51  1  0
 22 52  1  0
 23 53  1  0
 29 54  1  0
 29 55  1  0
 29 56  1  0
 30 57  1  0
 30 58  1  0
 30 59  1  0
 32 60  1  0
 33 61  1  0
 34 62  1  0
 34 63  1  0
 35 64  1  0
 35 65  1  0
M  END
$$$$
