
     RDKit          3D

 52 54  0  0  0  0  0  0  0  0999 V2000
    6.0085   -2.2426    1.8097 C   0  0  0  0  0  0  0  0  0  0  0  0
    5.7852   -1.9767    0.3512 C   0  0  0  0  0  0  0  0  0  0  0  0
    5.9374   -3.0036   -0.5851 C   0  0  0  0  0  0  0  0  0  0  0  0
    5.7409   -2.7549   -1.9441 C   0  0  0  0  0  0  0  0  0  0  0  0
    5.4091   -1.4725   -2.3806 C   0  0  0  0  0  0  0  0  0  0  0  0
    5.2830   -0.4233   -1.4622 C   0  0  0  0  0  0  0  0  0  0  0  0
    4.9045    0.9599   -1.9219 C   0  0  0  0  0  0  0  0  0  0  0  0
    3.4674    1.1038   -1.9764 N   0  0  0  0  0  0  0  0  0  0  0  0
    2.7566    1.6773   -0.9468 C   0  0  0  0  0  0  0  0  0  0  0  0
    3.2702    2.2036    0.0340 O   0  0  0  0  0  0  0  0  0  0  0  0
    1.2630    1.6019   -1.1554 C   0  0  0  0  0  0  0  0  0  0  0  0
    0.5200    2.3088   -0.0311 C   0  0  0  0  0  0  0  0  0  0  0  0
   -0.9082    2.3499   -0.2805 N   0  0  0  0  0  0  0  0  0  0  0  0
   -1.5789    3.4092   -0.8236 C   0  0  0  0  0  0  0  0  0  0  0  0
   -2.8553    3.1437   -0.9841 N   0  0  0  0  0  0  0  0  0  0  0  0
   -3.0211    1.8649   -0.5171 C   0  0  0  0  0  0  0  0  0  0  0  0
   -4.1832    1.0861   -0.4645 C   0  0  0  0  0  0  0  0  0  0  0  0
   -4.0821   -0.2047    0.0688 C   0  0  0  0  0  0  0  0  0  0  0  0
   -5.5479   -1.2025    0.1221 S   0  0  0  0  0  6  0  0  0  0  0  0
   -5.2402   -2.4329    0.8231 O   0  0  0  0  0  0  0  0  0  0  0  0
   -6.0996   -1.2202   -1.2161 O   0  0  0  0  0  0  0  0  0  0  0  0
   -6.5932   -0.2951    1.1261 N   0  0  0  0  0  0  0  0  0  0  0  0
   -6.1675   -0.1764    2.5376 C   0  0  0  0  0  0  0  0  0  0  0  0
   -8.0090   -0.7070    1.0076 C   0  0  0  0  0  0  0  0  0  0  0  0
   -2.8666   -0.7172    0.5362 C   0  0  0  0  0  0  0  0  0  0  0  0
   -1.7002    0.0542    0.4847 C   0  0  0  0  0  0  0  0  0  0  0  0
   -1.8142    1.3417   -0.0528 C   0  0  0  0  0  0  0  0  0  0  0  0
    5.4646   -0.6883   -0.0962 C   0  0  0  0  0  0  0  0  0  0  0  0
    7.0794   -2.2032    2.0423 H   0  0  0  0  0  0  0  0  0  0  0  0
    5.4889   -1.5024    2.4266 H   0  0  0  0  0  0  0  0  0  0  0  0
    5.6227   -3.2255    2.0899 H   0  0  0  0  0  0  0  0  0  0  0  0
    6.2013   -4.0076   -0.2602 H   0  0  0  0  0  0  0  0  0  0  0  0
    5.8459   -3.5638   -2.6628 H   0  0  0  0  0  0  0  0  0  0  0  0
    5.2496   -1.2974   -3.4439 H   0  0  0  0  0  0  0  0  0  0  0  0
    5.3435    1.7192   -1.2661 H   0  0  0  0  0  0  0  0  0  0  0  0
    5.2908    1.1406   -2.9304 H   0  0  0  0  0  0  0  0  0  0  0  0
    2.9747    0.5229   -2.6425 H   0  0  0  0  0  0  0  0  0  0  0  0
    1.0202    2.0592   -2.1231 H   0  0  0  0  0  0  0  0  0  0  0  0
    0.9713    0.5453   -1.1994 H   0  0  0  0  0  0  0  0  0  0  0  0
    0.6775    1.8088    0.9301 H   0  0  0  0  0  0  0  0  0  0  0  0
    0.8646    3.3422    0.0826 H   0  0  0  0  0  0  0  0  0  0  0  0
   -1.0930    4.3397   -1.0884 H   0  0  0  0  0  0  0  0  0  0  0  0
   -5.1251    1.4794   -0.8327 H   0  0  0  0  0  0  0  0  0  0  0  0
   -6.2939   -1.1238    3.0707 H   0  0  0  0  0  0  0  0  0  0  0  0
   -5.1262    0.1474    2.6133 H   0  0  0  0  0  0  0  0  0  0  0  0
   -6.7720    0.5854    3.0374 H   0  0  0  0  0  0  0  0  0  0  0  0
   -8.6273   -0.1640    1.7306 H   0  0  0  0  0  0  0  0  0  0  0  0
   -8.3866   -0.4619    0.0105 H   0  0  0  0  0  0  0  0  0  0  0  0
   -8.1248   -1.7811    1.1904 H   0  0  0  0  0  0  0  0  0  0  0  0
   -2.8151   -1.7264    0.9405 H   0  0  0  0  0  0  0  0  0  0  0  0
   -0.7542   -0.3387    0.8428 H   0  0  0  0  0  0  0  0  0  0  0  0
    5.3446    0.1186    0.6246 H   0  0  0  0  0  0  0  0  0  0  0  0
  1  2  1  0
  2  3  2  0
  3  4  1  0
  4  5  2  0
  5  6  1  0
  6  7  1  0
  7  8  1  0
  8  9  1  0
  9 10  2  0
  9 11  1  0
 11 12  1  0
 12 13  1  0
 13 14  1  0
 14 15  2  0
 15 16  1  0
 16 17  2  0
 17 18  1  0
 18 19  1  0
 19 20  2  0
 19 21  2  0
 19 22  1  0
 22 23  1  0
 22 24  1  0
 18 25  2  0
 25 26  1  0
 26 27  2  0
  6 28  2  0
 28  2  1  0
 27 13  1  0
 27 16  1  0
  1 29  1  0
  1 30  1  0
  1 31  1  0
  3 32  1  0
  4 33  1  0
  5 34  1  0
  7 35  1  0
  7 36  1  0
  8 37  1  0
 11 38  1  0
 11 39  1  0
 12 40  1  0
 12 41  1  0
 14 42  1  0
 17 43  1  0
 23 44  1  0
 23 45  1  0
 23 46  1  0
 24 47  1  0
 24 48  1  0
 24 49  1  0
 25 50  1  0
 26 51  1  0
 28 52  1  0
M  END
$$$$
