
     RDKit          3D

 45 48  0  0  0  0  0  0  0  0999 V2000
    1.1678    2.3397    2.1591 N   0  0  0  0  0  0  0  0  0  0  0  0
    1.1974    1.5685    1.2903 C   0  0  0  0  0  0  0  0  0  0  0  0
    1.1675    0.6208    0.2122 C   0  0  0  0  0  0  0  0  0  0  0  0
    2.3226    0.3787   -0.5385 C   0  0  0  0  0  0  0  0  0  0  0  0
    3.5230    1.0546   -0.3367 N   0  0  0  0  0  0  0  0  0  0  0  0
    3.5336    2.5258   -0.3855 C   0  0  0  0  0  0  0  0  0  0  0  0
    4.8057    2.8885   -1.1535 C   0  0  0  0  0  0  0  0  0  0  0  0
    5.7018    1.6819   -0.9398 C   0  0  0  0  0  0  0  0  0  0  0  0
    4.7054    0.5332   -1.0364 C   0  0  0  0  0  0  0  0  0  0  0  0
    2.3136   -0.5876   -1.4780 N   0  0  0  0  0  0  0  0  0  0  0  0
    1.1937   -1.2829   -1.7505 C   0  0  0  0  0  0  0  0  0  0  0  0
    1.3840   -2.2818   -2.7107 N   0  0  0  0  0  0  0  0  0  0  0  0
   -0.0329   -1.0833   -1.0690 C   0  0  0  0  0  0  0  0  0  0  0  0
   -1.2644   -1.7589   -1.2922 C   0  0  0  0  0  0  0  0  0  0  0  0
   -1.4512   -2.6825   -2.3276 N   0  0  0  0  0  0  0  0  0  0  0  0
   -2.3868   -1.5114   -0.5916 N   0  0  0  0  0  0  0  0  0  0  0  0
   -2.3840   -0.6061    0.3977 C   0  0  0  0  0  0  0  0  0  0  0  0
   -3.5529   -0.3803    1.0868 N   0  0  0  0  0  0  0  0  0  0  0  0
   -3.5928    0.1132    2.4598 C   0  0  0  0  0  0  0  0  0  0  0  0
   -4.8700   -0.4931    3.0440 C   0  0  0  0  0  0  0  0  0  0  0  0
   -5.7382   -0.7492    1.8226 C   0  0  0  0  0  0  0  0  0  0  0  0
   -4.7192   -1.2037    0.7826 C   0  0  0  0  0  0  0  0  0  0  0  0
   -1.2266    0.1096    0.6676 C   0  0  0  0  0  0  0  0  0  0  0  0
   -0.0278   -0.1069   -0.0537 C   0  0  0  0  0  0  0  0  0  0  0  0
    3.5957    2.9229    0.6333 H   0  0  0  0  0  0  0  0  0  0  0  0
    2.6566    2.9530   -0.8854 H   0  0  0  0  0  0  0  0  0  0  0  0
    5.2550    3.8212   -0.8009 H   0  0  0  0  0  0  0  0  0  0  0  0
    4.5781    3.0022   -2.2204 H   0  0  0  0  0  0  0  0  0  0  0  0
    6.1533    1.7160    0.0588 H   0  0  0  0  0  0  0  0  0  0  0  0
    6.5013    1.6091   -1.6820 H   0  0  0  0  0  0  0  0  0  0  0  0
    4.5039    0.3296   -2.0960 H   0  0  0  0  0  0  0  0  0  0  0  0
    5.0902   -0.3737   -0.5589 H   0  0  0  0  0  0  0  0  0  0  0  0
    0.6919   -2.2239   -3.4463 H   0  0  0  0  0  0  0  0  0  0  0  0
    1.3685   -3.1954   -2.2707 H   0  0  0  0  0  0  0  0  0  0  0  0
   -1.4467   -2.2077   -3.2231 H   0  0  0  0  0  0  0  0  0  0  0  0
   -0.7613   -3.4207   -2.2970 H   0  0  0  0  0  0  0  0  0  0  0  0
   -2.7275   -0.1967    3.0564 H   0  0  0  0  0  0  0  0  0  0  0  0
   -3.6510    1.2071    2.4560 H   0  0  0  0  0  0  0  0  0  0  0  0
   -5.3475    0.1640    3.7762 H   0  0  0  0  0  0  0  0  0  0  0  0
   -4.6376   -1.4432    3.5404 H   0  0  0  0  0  0  0  0  0  0  0  0
   -6.2185    0.1831    1.5018 H   0  0  0  0  0  0  0  0  0  0  0  0
   -6.5166   -1.4957    2.0024 H   0  0  0  0  0  0  0  0  0  0  0  0
   -4.4954   -2.2691    0.9192 H   0  0  0  0  0  0  0  0  0  0  0  0
   -5.0929   -1.0372   -0.2332 H   0  0  0  0  0  0  0  0  0  0  0  0
   -1.2688    0.8682    1.4444 H   0  0  0  0  0  0  0  0  0  0  0  0
  1  2  3  0
  2  3  1  0
  3  4  2  0
  4  5  1  0
  5  6  1  0
  6  7  1  0
  7  8  1  0
  8  9  1  0
  4 10  1  0
 10 11  2  0
 11 12  1  0
 11 13  1  0
 13 14  2  0
 14 15  1  0
 14 16  1  0
 16 17  2  0
 17 18  1  0
 18 19  1  0
 19 20  1  0
 20 21  1  0
 21 22  1  0
 17 23  1  0
 23 24  2  0
 24  3  1  0
  9  5  1  0
 24 13  1  0
 22 18  1  0
  6 25  1  0
  6 26  1  0
  7 27  1  0
  7 28  1  0
  8 29  1  0
  8 30  1  0
  9 31  1  0
  9 32  1  0
 12 33  1  0
 12 34  1  0
 15 35  1  0
 15 36  1  0
 19 37  1  0
 19 38  1  0
 20 39  1  0
 20 40  1  0
 21 41  1  0
 21 42  1  0
 22 43  1  0
 22 44  1  0
 23 45  1  0
M  END
$$$$
