
     RDKit          3D

 47 49  0  0  0  0  0  0  0  0999 V2000
    7.8917    1.0096   -0.2637 C   0  0  0  0  0  0  0  0  0  0  0  0
    7.0093    0.9214    0.8509 O   0  0  0  0  0  0  0  0  0  0  0  0
    5.8268    0.2760    0.5516 C   0  0  0  0  0  0  0  0  0  0  0  0
    4.9334    0.1170    1.5992 C   0  0  0  0  0  0  0  0  0  0  0  0
    3.7237   -0.5230    1.3468 C   0  0  0  0  0  0  0  0  0  0  0  0
    3.4401   -0.9868    0.0576 C   0  0  0  0  0  0  0  0  0  0  0  0
    2.1534   -1.7007   -0.2649 C   0  0  0  0  0  0  0  0  0  0  0  0
    1.0046   -0.8804   -0.6432 N   0  0  0  0  0  0  0  0  0  0  0  0
    1.1363   -0.1003   -1.8708 C   0  0  0  0  0  0  0  0  0  0  0  0
   -0.0047    0.9200   -1.7994 C   0  0  0  0  0  0  0  0  0  0  0  0
   -0.5939    0.7783   -0.3937 C   0  0  0  0  0  0  0  0  0  0  0  0
   -1.8233   -0.0119   -0.4292 N   0  0  0  0  0  0  0  0  0  0  0  0
   -2.6914   -0.0061    0.6435 C   0  0  0  0  0  0  0  0  0  0  0  0
   -2.5651    0.7474    1.6064 O   0  0  0  0  0  0  0  0  0  0  0  0
   -3.8347   -0.9974    0.5267 C   0  0  0  0  0  0  0  0  0  0  0  0
   -5.0997   -0.3598    0.0009 C   0  0  0  0  0  0  0  0  0  0  0  0
   -5.4744   -0.5239   -1.3436 C   0  0  0  0  0  0  0  0  0  0  0  0
   -6.6407    0.0728   -1.8281 C   0  0  0  0  0  0  0  0  0  0  0  0
   -7.4281    0.8380   -0.9715 C   0  0  0  0  0  0  0  0  0  0  0  0
   -8.5481    1.4101   -1.4387 F   0  0  0  0  0  0  0  0  0  0  0  0
   -7.0706    1.0194    0.3610 C   0  0  0  0  0  0  0  0  0  0  0  0
   -5.9053    0.4231    0.8480 C   0  0  0  0  0  0  0  0  0  0  0  0
    0.5149    0.0518    0.3777 C   0  0  0  0  0  0  0  0  0  0  0  0
    4.4118   -0.7796   -0.9188 C   0  0  0  0  0  0  0  0  0  0  0  0
    5.5936   -0.1592   -0.7044 N   0  0  0  0  0  0  0  0  0  0  0  0
    8.2031    0.0133   -0.6023 H   0  0  0  0  0  0  0  0  0  0  0  0
    8.7887    1.5445    0.0650 H   0  0  0  0  0  0  0  0  0  0  0  0
    7.4445    1.5837   -1.0847 H   0  0  0  0  0  0  0  0  0  0  0  0
    5.1769    0.4823    2.5904 H   0  0  0  0  0  0  0  0  0  0  0  0
    3.0112   -0.6644    2.1569 H   0  0  0  0  0  0  0  0  0  0  0  0
    1.8737   -2.3193    0.5999 H   0  0  0  0  0  0  0  0  0  0  0  0
    2.3429   -2.4309   -1.0636 H   0  0  0  0  0  0  0  0  0  0  0  0
    1.0501   -0.7360   -2.7590 H   0  0  0  0  0  0  0  0  0  0  0  0
    2.0863    0.4429   -1.9306 H   0  0  0  0  0  0  0  0  0  0  0  0
   -0.7499    0.7534   -2.5854 H   0  0  0  0  0  0  0  0  0  0  0  0
    0.4040    1.9286   -1.9332 H   0  0  0  0  0  0  0  0  0  0  0  0
   -0.8190    1.7542    0.0480 H   0  0  0  0  0  0  0  0  0  0  0  0
   -1.7859   -0.8506   -0.9936 H   0  0  0  0  0  0  0  0  0  0  0  0
   -3.5389   -1.8382   -0.1140 H   0  0  0  0  0  0  0  0  0  0  0  0
   -4.0164   -1.4327    1.5178 H   0  0  0  0  0  0  0  0  0  0  0  0
   -4.8620   -1.1166   -2.0221 H   0  0  0  0  0  0  0  0  0  0  0  0
   -6.9382   -0.0529   -2.8637 H   0  0  0  0  0  0  0  0  0  0  0  0
   -7.6973    1.6257    1.0106 H   0  0  0  0  0  0  0  0  0  0  0  0
   -5.6225    0.5720    1.8906 H   0  0  0  0  0  0  0  0  0  0  0  0
    0.1426   -0.4690    1.2660 H   0  0  0  0  0  0  0  0  0  0  0  0
    1.2839    0.7736    0.6772 H   0  0  0  0  0  0  0  0  0  0  0  0
    4.2626   -1.1197   -1.9406 H   0  0  0  0  0  0  0  0  0  0  0  0
  1  2  1  0
  2  3  1  0
  3  4  2  0
  4  5  1  0
  5  6  2  0
  6  7  1  0
  7  8  1  0
  8  9  1  0
  9 10  1  0
 10 11  1  0
 11 12  1  0
 12 13  1  0
 13 14  2  0
 13 15  1  0
 15 16  1  0
 16 17  2  0
 17 18  1  0
 18 19  2  0
 19 20  1  0
 19 21  1  0
 21 22  2  0
 11 23  1  0
  6 24  1  0
 24 25  2  0
 25  3  1  0
 23  8  1  0
 22 16  1  0
  1 26  1  0
  1 27  1  0
  1 28  1  0
  4 29  1  0
  5 30  1  0
  7 31  1  0
  7 32  1  0
  9 33  1  0
  9 34  1  0
 10 35  1  0
 10 36  1  0
 11 37  1  0
 12 38  1  0
 15 39  1  0
 15 40  1  0
 17 41  1  0
 18 42  1  0
 21 43  1  0
 22 44  1  0
 23 45  1  0
 23 46  1  0
 24 47  1  0
M  END
$$$$
