
     RDKit          3D

 63 65  0  0  0  0  0  0  0  0999 V2000
    9.9853    0.0822   -0.5219 C   0  0  0  0  0  0  0  0  0  0  0  0
    8.5098   -0.0103   -0.8763 C   0  0  0  0  0  0  0  0  0  0  0  0
    7.6562    0.8567    0.0487 C   0  0  0  0  0  0  0  0  0  0  0  0
    6.1733    0.7612   -0.3110 C   0  0  0  0  0  0  0  0  0  0  0  0
    5.3218    1.6314    0.6117 C   0  0  0  0  0  0  0  0  0  0  0  0
    3.9178    1.5782    0.2578 N   0  0  0  0  0  0  0  0  0  0  0  0
    3.1237    0.5349    0.6543 C   0  0  0  0  0  0  0  0  0  0  0  0
    3.5316   -0.3708    1.3762 O   0  0  0  0  0  0  0  0  0  0  0  0
    1.8273    0.5916    0.2053 N   0  0  0  0  0  0  0  0  0  0  0  0
    1.1884    1.6453   -0.5672 C   0  0  0  0  0  0  0  0  0  0  0  0
   -0.1986    1.1030   -0.8821 C   0  0  0  0  0  0  0  0  0  0  0  0
   -0.5006    0.2150    0.3288 C   0  0  0  0  0  0  0  0  0  0  0  0
   -1.5895   -0.8364    0.0852 C   0  0  0  0  0  0  0  0  0  0  0  0
   -2.8775   -0.2510   -0.3199 N   0  0  0  0  0  0  0  0  0  0  0  0
   -3.5741    0.4051    0.7987 C   0  0  0  0  0  0  0  0  0  0  0  0
   -4.7307    1.2908    0.3738 C   0  0  0  0  0  0  0  0  0  0  0  0
   -4.5844    2.2139   -0.6746 C   0  0  0  0  0  0  0  0  0  0  0  0
   -5.6432    3.0464   -1.0435 C   0  0  0  0  0  0  0  0  0  0  0  0
   -6.8520    2.9717   -0.3564 C   0  0  0  0  0  0  0  0  0  0  0  0
   -8.1578    3.9964   -0.8090 Cl  0  0  0  0  0  0  0  0  0  0  0  0
   -7.0089    2.0764    0.6993 C   0  0  0  0  0  0  0  0  0  0  0  0
   -5.9495    1.2433    1.0675 C   0  0  0  0  0  0  0  0  0  0  0  0
   -3.7176   -1.2048   -1.0729 C   0  0  0  0  0  0  0  0  0  0  0  0
   -4.2517   -2.3865   -0.3017 C   0  0  0  0  0  0  0  0  0  0  0  0
   -5.4736   -2.5072    0.3383 C   0  0  0  0  0  0  0  0  0  0  0  0
   -5.6518   -3.7857    0.9465 C   0  0  0  0  0  0  0  0  0  0  0  0
   -4.5663   -4.6036    0.7232 C   0  0  0  0  0  0  0  0  0  0  0  0
   -4.4046   -5.9587    1.1834 N   0  0  0  0  0  4  0  0  0  0  0  0
   -5.3358   -6.4233    1.8556 O   0  0  0  0  0  0  0  0  0  0  0  0
   -3.3658   -6.5619    0.8857 O   0  0  0  0  0  1  0  0  0  0  0  0
   -3.3603   -3.8538   -0.2064 S   0  0  0  0  0  0  0  0  0  0  0  0
    0.8636   -0.4153    0.6176 C   0  0  0  0  0  0  0  0  0  0  0  0
   10.1644   -0.2558    0.5038 H   0  0  0  0  0  0  0  0  0  0  0  0
   10.3467    1.1115   -0.6128 H   0  0  0  0  0  0  0  0  0  0  0  0
   10.5770   -0.5462   -1.1948 H   0  0  0  0  0  0  0  0  0  0  0  0
    8.1886   -1.0561   -0.8082 H   0  0  0  0  0  0  0  0  0  0  0  0
    8.3695    0.3051   -1.9167 H   0  0  0  0  0  0  0  0  0  0  0  0
    7.9845    1.9009   -0.0201 H   0  0  0  0  0  0  0  0  0  0  0  0
    7.8029    0.5396    1.0884 H   0  0  0  0  0  0  0  0  0  0  0  0
    5.8448   -0.2834   -0.2484 H   0  0  0  0  0  0  0  0  0  0  0  0
    6.0227    1.0748   -1.3516 H   0  0  0  0  0  0  0  0  0  0  0  0
    5.6277    2.6803    0.5372 H   0  0  0  0  0  0  0  0  0  0  0  0
    5.4395    1.3147    1.6541 H   0  0  0  0  0  0  0  0  0  0  0  0
    3.6377    2.0763   -0.5695 H   0  0  0  0  0  0  0  0  0  0  0  0
    1.1385    2.5427    0.0589 H   0  0  0  0  0  0  0  0  0  0  0  0
    1.7570    1.8693   -1.4740 H   0  0  0  0  0  0  0  0  0  0  0  0
   -0.1648    0.5033   -1.8002 H   0  0  0  0  0  0  0  0  0  0  0  0
   -0.9314    1.9027   -1.0228 H   0  0  0  0  0  0  0  0  0  0  0  0
   -0.7624    0.8576    1.1789 H   0  0  0  0  0  0  0  0  0  0  0  0
   -1.2260   -1.4988   -0.7117 H   0  0  0  0  0  0  0  0  0  0  0  0
   -1.7057   -1.4566    0.9829 H   0  0  0  0  0  0  0  0  0  0  0  0
   -2.8911    1.0730    1.3362 H   0  0  0  0  0  0  0  0  0  0  0  0
   -3.9068   -0.3349    1.5367 H   0  0  0  0  0  0  0  0  0  0  0  0
   -3.6405    2.2810   -1.2124 H   0  0  0  0  0  0  0  0  0  0  0  0
   -5.5165    3.7492   -1.8623 H   0  0  0  0  0  0  0  0  0  0  0  0
   -7.9490    2.0266    1.2422 H   0  0  0  0  0  0  0  0  0  0  0  0
   -6.0821    0.5591    1.9030 H   0  0  0  0  0  0  0  0  0  0  0  0
   -3.1537   -1.5609   -1.9461 H   0  0  0  0  0  0  0  0  0  0  0  0
   -4.5680   -0.6699   -1.5153 H   0  0  0  0  0  0  0  0  0  0  0  0
   -6.2095   -1.7119    0.3672 H   0  0  0  0  0  0  0  0  0  0  0  0
   -6.5321   -4.0843    1.5050 H   0  0  0  0  0  0  0  0  0  0  0  0
    0.9868   -0.6707    1.6751 H   0  0  0  0  0  0  0  0  0  0  0  0
    1.0468   -1.3123    0.0150 H   0  0  0  0  0  0  0  0  0  0  0  0
  1  2  1  0
  2  3  1  0
  3  4  1  0
  4  5  1  0
  5  6  1  0
  6  7  1  0
  7  8  2  0
  7  9  1  0
  9 10  1  0
 10 11  1  0
 11 12  1  0
 12 13  1  0
 13 14  1  0
 14 15  1  0
 15 16  1  0
 16 17  2  0
 17 18  1  0
 18 19  2  0
 19 20  1  0
 19 21  1  0
 21 22  2  0
 14 23  1  0
 23 24  1  0
 24 25  2  0
 25 26  1  0
 26 27  2  0
 27 28  1  0
 28 29  2  0
 28 30  1  0
 27 31  1  0
 12 32  1  0
 32  9  1  0
 22 16  1  0
 31 24  1  0
  1 33  1  0
  1 34  1  0
  1 35  1  0
  2 36  1  0
  2 37  1  0
  3 38  1  0
  3 39  1  0
  4 40  1  0
  4 41  1  0
  5 42  1  0
  5 43  1  0
  6 44  1  0
 10 45  1  0
 10 46  1  0
 11 47  1  0
 11 48  1  0
 12 49  1  0
 13 50  1  0
 13 51  1  0
 15 52  1  0
 15 53  1  0
 17 54  1  0
 18 55  1  0
 21 56  1  0
 22 57  1  0
 23 58  1  0
 23 59  1  0
 25 60  1  0
 26 61  1  0
 32 62  1  0
 32 63  1  0
M  CHG  2  28   1  30  -1
M  END
$$$$
