
     RDKit          3D

 45 47  0  0  0  0  0  0  0  0999 V2000
   -4.4345   -0.1093   -2.5402 C   0  0  0  0  0  0  0  0  0  0  0  0
   -3.7417   -0.3037   -1.1883 C   0  0  0  0  0  0  0  0  0  0  0  0
   -3.0561   -1.6622   -1.1384 C   0  0  0  0  0  0  0  0  0  0  0  0
   -2.1192   -1.9961    0.3430 S   0  0  0  0  0  6  0  0  0  0  0  0
   -1.6299   -3.3566    0.2761 O   0  0  0  0  0  0  0  0  0  0  0  0
   -2.8676   -1.5332    1.4897 O   0  0  0  0  0  0  0  0  0  0  0  0
   -0.7722   -0.9717    0.1416 N   0  0  0  0  0  0  0  0  0  0  0  0
    0.2458   -1.3772   -0.8690 C   0  0  0  0  0  0  0  0  0  0  0  0
    1.5486   -1.7908   -0.2018 C   0  0  0  0  0  0  0  0  0  0  0  0
    2.1623   -0.6233    0.5837 C   0  0  0  0  0  0  0  0  0  0  0  0
    3.0079    0.0989   -0.3282 O   0  0  0  0  0  0  0  0  0  0  0  0
    4.0112    0.8396    0.2625 C   0  0  0  0  0  0  0  0  0  0  0  0
    4.8541    1.5253   -0.6010 C   0  0  0  0  0  0  0  0  0  0  0  0
    5.8809    2.2962   -0.0583 C   0  0  0  0  0  0  0  0  0  0  0  0
    6.0243    2.3527    1.3226 C   0  0  0  0  0  0  0  0  0  0  0  0
    7.2731    3.2881    2.0352 Cl  0  0  0  0  0  0  0  0  0  0  0  0
    5.1334    1.6348    2.1066 C   0  0  0  0  0  0  0  0  0  0  0  0
    4.1265    0.8769    1.6064 N   0  0  0  0  0  0  0  0  0  0  0  0
    1.0826    0.3139    1.1422 C   0  0  0  0  0  0  0  0  0  0  0  0
   -0.2096   -0.4369    1.4157 C   0  0  0  0  0  0  0  0  0  0  0  0
   -2.9055    0.8447   -0.9084 N   0  0  0  0  0  0  0  0  0  0  0  0
   -3.3470    1.5408    0.1964 C   0  0  0  0  0  0  0  0  0  0  0  0
   -2.7432    2.4565    0.7245 O   0  0  0  0  0  0  0  0  0  0  0  0
   -4.5220    1.0055    0.6022 N   0  0  0  0  0  0  0  0  0  0  0  0
   -4.7879   -0.1422   -0.0780 C   0  0  0  0  0  0  0  0  0  0  0  0
   -5.7186   -0.9035    0.1368 O   0  0  0  0  0  0  0  0  0  0  0  0
   -3.7025   -0.0760   -3.3550 H   0  0  0  0  0  0  0  0  0  0  0  0
   -5.1391   -0.9230   -2.7459 H   0  0  0  0  0  0  0  0  0  0  0  0
   -5.0027    0.8282   -2.5711 H   0  0  0  0  0  0  0  0  0  0  0  0
   -2.3746   -1.7957   -1.9850 H   0  0  0  0  0  0  0  0  0  0  0  0
   -3.8006   -2.4659   -1.1966 H   0  0  0  0  0  0  0  0  0  0  0  0
   -0.1210   -2.1998   -1.4910 H   0  0  0  0  0  0  0  0  0  0  0  0
    0.4065   -0.5301   -1.5466 H   0  0  0  0  0  0  0  0  0  0  0  0
    2.2512   -2.1544   -0.9607 H   0  0  0  0  0  0  0  0  0  0  0  0
    1.3483   -2.6243    0.4834 H   0  0  0  0  0  0  0  0  0  0  0  0
    2.7557   -1.0723    1.3914 H   0  0  0  0  0  0  0  0  0  0  0  0
    4.7131    1.4609   -1.6742 H   0  0  0  0  0  0  0  0  0  0  0  0
    6.5550    2.8429   -0.7109 H   0  0  0  0  0  0  0  0  0  0  0  0
    5.2024    1.6467    3.1907 H   0  0  0  0  0  0  0  0  0  0  0  0
    1.4404    0.7782    2.0684 H   0  0  0  0  0  0  0  0  0  0  0  0
    0.8938    1.1393    0.4429 H   0  0  0  0  0  0  0  0  0  0  0  0
   -0.9334    0.2557    1.8583 H   0  0  0  0  0  0  0  0  0  0  0  0
   -0.0322   -1.2536    2.1252 H   0  0  0  0  0  0  0  0  0  0  0  0
   -1.9620    0.9991   -1.2443 H   0  0  0  0  0  0  0  0  0  0  0  0
   -4.9940    1.2771    1.4475 H   0  0  0  0  0  0  0  0  0  0  0  0
  1  2  1  0
  2  3  1  0
  3  4  1  0
  4  5  2  0
  4  6  2  0
  4  7  1  0
  7  8  1  0
  8  9  1  0
  9 10  1  0
 10 11  1  0
 11 12  1  0
 12 13  2  0
 13 14  1  0
 14 15  2  0
 15 16  1  0
 15 17  1  0
 17 18  2  0
 10 19  1  0
 19 20  1  0
  2 21  1  0
 21 22  1  0
 22 23  2  0
 22 24  1  0
 24 25  1  0
 25 26  2  0
 25  2  1  0
 20  7  1  0
 18 12  1  0
  1 27  1  0
  1 28  1  0
  1 29  1  0
  3 30  1  0
  3 31  1  0
  8 32  1  0
  8 33  1  0
  9 34  1  0
  9 35  1  0
 10 36  1  0
 13 37  1  0
 14 38  1  0
 17 39  1  0
 19 40  1  0
 19 41  1  0
 20 42  1  0
 20 43  1  0
 21 44  1  0
 24 45  1  0
M  END
$$$$
