
     RDKit          3D

 52 55  0  0  0  0  0  0  0  0999 V2000
   -9.9345   -0.7303    0.9437 C   0  0  0  0  0  0  0  0  0  0  0  0
   -9.0945   -0.5448   -0.2929 C   0  0  0  0  0  0  0  0  0  0  0  0
   -9.6074   -0.5226   -1.4098 O   0  0  0  0  0  0  0  0  0  0  0  0
   -7.6167   -0.3854   -0.1455 C   0  0  0  0  0  0  0  0  0  0  0  0
   -6.8405   -0.2321   -1.2996 C   0  0  0  0  0  0  0  0  0  0  0  0
   -5.4509   -0.0795   -1.2119 C   0  0  0  0  0  0  0  0  0  0  0  0
   -4.8158   -0.0798    0.0298 C   0  0  0  0  0  0  0  0  0  0  0  0
   -3.4251    0.0739    0.2061 N   0  0  0  0  0  0  0  0  0  0  0  0
   -2.4586    0.1560   -0.7810 C   0  0  0  0  0  0  0  0  0  0  0  0
   -2.6299    0.0391   -1.9881 O   0  0  0  0  0  0  0  0  0  0  0  0
   -1.0699    0.3647   -0.2812 C   0  0  0  0  0  0  0  0  0  0  0  0
   -0.0127   -0.2302   -0.9685 C   0  0  0  0  0  0  0  0  0  0  0  0
    1.3031   -0.0578   -0.5198 C   0  0  0  0  0  0  0  0  0  0  0  0
    1.6072    0.7163    0.6187 C   0  0  0  0  0  0  0  0  0  0  0  0
    2.9764    0.8624    1.0489 N   0  0  0  0  0  0  0  0  0  0  0  0
    3.8832    0.2412    0.2086 N   0  0  0  0  0  0  0  0  0  0  0  0
    5.1663    0.2915    0.4477 C   0  0  0  0  0  0  0  0  0  0  0  0
    6.0268   -0.3428   -0.4298 N   0  0  0  0  0  0  0  0  0  0  0  0
    7.4821   -0.2994   -0.4015 C   0  0  0  0  0  0  0  0  0  0  0  0
    7.9057   -0.8576   -1.7566 C   0  0  0  0  0  0  0  0  0  0  0  0
    6.7907   -1.8326   -2.0869 C   0  0  0  0  0  0  0  0  0  0  0  0
    5.5494   -1.1066   -1.5816 C   0  0  0  0  0  0  0  0  0  0  0  0
    5.6930    1.0069    1.6326 C   0  0  0  0  0  0  0  0  0  0  0  0
    4.8260    1.5976    2.4500 C   0  0  0  0  0  0  0  0  0  0  0  0
    3.3718    1.5512    2.1985 C   0  0  0  0  0  0  0  0  0  0  0  0
    2.6606    2.1152    3.0283 O   0  0  0  0  0  0  0  0  0  0  0  0
    0.5273    1.3251    1.2768 C   0  0  0  0  0  0  0  0  0  0  0  0
   -0.7950    1.1582    0.8345 C   0  0  0  0  0  0  0  0  0  0  0  0
   -5.5948   -0.2285    1.1846 C   0  0  0  0  0  0  0  0  0  0  0  0
   -6.9849   -0.3818    1.1014 C   0  0  0  0  0  0  0  0  0  0  0  0
   -9.6299   -1.6344    1.4773 H   0  0  0  0  0  0  0  0  0  0  0  0
   -9.8588    0.1490    1.5885 H   0  0  0  0  0  0  0  0  0  0  0  0
  -10.9828   -0.8477    0.6516 H   0  0  0  0  0  0  0  0  0  0  0  0
   -7.3100   -0.2289   -2.2824 H   0  0  0  0  0  0  0  0  0  0  0  0
   -4.8966    0.0416   -2.1379 H   0  0  0  0  0  0  0  0  0  0  0  0
   -3.0982    0.0528    1.1631 H   0  0  0  0  0  0  0  0  0  0  0  0
   -0.2035   -0.8329   -1.8543 H   0  0  0  0  0  0  0  0  0  0  0  0
    2.0944   -0.5468   -1.0837 H   0  0  0  0  0  0  0  0  0  0  0  0
    7.8666    0.7174   -0.2719 H   0  0  0  0  0  0  0  0  0  0  0  0
    7.8563   -0.9315    0.4114 H   0  0  0  0  0  0  0  0  0  0  0  0
    7.9330   -0.0542   -2.5027 H   0  0  0  0  0  0  0  0  0  0  0  0
    8.8914   -1.3300   -1.7258 H   0  0  0  0  0  0  0  0  0  0  0  0
    6.7329   -2.0709   -3.1525 H   0  0  0  0  0  0  0  0  0  0  0  0
    6.9338   -2.7674   -1.5316 H   0  0  0  0  0  0  0  0  0  0  0  0
    4.7660   -1.8220   -1.3102 H   0  0  0  0  0  0  0  0  0  0  0  0
    5.1621   -0.4228   -2.3455 H   0  0  0  0  0  0  0  0  0  0  0  0
    6.7554    1.0316    1.8205 H   0  0  0  0  0  0  0  0  0  0  0  0
    5.1426    2.1324    3.3360 H   0  0  0  0  0  0  0  0  0  0  0  0
    0.6704    1.9643    2.1417 H   0  0  0  0  0  0  0  0  0  0  0  0
   -1.5866    1.6856    1.3600 H   0  0  0  0  0  0  0  0  0  0  0  0
   -5.1319   -0.2300    2.1686 H   0  0  0  0  0  0  0  0  0  0  0  0
   -7.5453   -0.4951    2.0245 H   0  0  0  0  0  0  0  0  0  0  0  0
  1  2  1  0
  2  3  2  0
  2  4  1  0
  4  5  2  0
  5  6  1  0
  6  7  2  0
  7  8  1  0
  8  9  1  0
  9 10  2  0
  9 11  1  0
 11 12  2  0
 12 13  1  0
 13 14  2  0
 14 15  1  0
 15 16  1  0
 16 17  2  0
 17 18  1  0
 18 19  1  0
 19 20  1  0
 20 21  1  0
 21 22  1  0
 17 23  1  0
 23 24  2  0
 24 25  1  0
 25 26  2  0
 14 27  1  0
 27 28  2  0
  7 29  1  0
 29 30  2  0
 30  4  1  0
 28 11  1  0
 25 15  1  0
 22 18  1  0
  1 31  1  0
  1 32  1  0
  1 33  1  0
  5 34  1  0
  6 35  1  0
  8 36  1  0
 12 37  1  0
 13 38  1  0
 19 39  1  0
 19 40  1  0
 20 41  1  0
 20 42  1  0
 21 43  1  0
 21 44  1  0
 22 45  1  0
 22 46  1  0
 23 47  1  0
 24 48  1  0
 27 49  1  0
 28 50  1  0
 29 51  1  0
 30 52  1  0
M  END
$$$$
