
     RDKit          3D

 82 85  0  0  0  0  0  0  0  0999 V2000
    1.1052   -4.0187   -4.0840 C   0  0  0  0  0  0  0  0  0  0  0  0
    2.0084   -3.3326   -3.2290 O   0  0  0  0  0  0  0  0  0  0  0  0
    1.4964   -2.3522   -2.4175 C   0  0  0  0  0  0  0  0  0  0  0  0
    0.1343   -2.1007   -2.2400 C   0  0  0  0  0  0  0  0  0  0  0  0
   -0.3111   -1.0782   -1.3617 C   0  0  0  0  0  0  0  0  0  0  0  0
   -1.6497   -0.7617   -1.0905 C   0  0  0  0  0  0  0  0  0  0  0  0
   -2.6770   -1.4949   -1.7244 N   0  0  0  0  0  0  0  0  0  0  0  0
   -4.0637   -1.1021   -1.4128 C   0  0  0  0  0  0  0  0  0  0  0  0
   -4.5430   -1.6767   -0.0746 C   0  0  0  0  0  0  0  0  0  0  0  0
   -4.8154   -3.1794   -0.1399 C   0  0  0  0  0  0  0  0  0  0  0  0
   -5.7448   -3.5075   -1.2273 N   0  0  0  0  0  0  0  0  0  0  0  0
   -6.0374   -4.9408   -1.2405 C   0  0  0  0  0  0  0  0  0  0  0  0
   -5.2181   -3.0771   -2.5276 C   0  0  0  0  0  0  0  0  0  0  0  0
   -4.9791   -1.5691   -2.5502 C   0  0  0  0  0  0  0  0  0  0  0  0
   -1.9835    0.2379   -0.2594 N   0  0  0  0  0  0  0  0  0  0  0  0
   -1.0180    0.9364    0.3488 C   0  0  0  0  0  0  0  0  0  0  0  0
   -1.3670    1.9328    1.2468 N   0  0  0  0  0  0  0  0  0  0  0  0
   -2.7687    2.3001    1.3628 C   0  0  0  0  0  0  0  0  0  0  0  0
   -3.1682    3.3895    0.3745 C   0  0  0  0  0  0  0  0  0  0  0  0
   -2.2646    4.6267    0.3660 C   0  0  0  0  0  0  0  0  0  0  0  0
   -1.8451    5.0388    1.7078 N   0  0  0  0  0  0  0  0  0  0  0  0
   -1.4252    6.4405    1.7246 C   0  0  0  0  0  0  0  0  0  0  0  0
   -0.8065    4.1696    2.3210 C   0  0  0  0  0  0  0  0  0  0  0  0
   -0.3201    2.9060    1.5622 C   0  0  0  0  0  0  0  0  0  0  0  0
    0.2820    0.6881    0.1435 N   0  0  0  0  0  0  0  0  0  0  0  0
    0.6242   -0.2946   -0.6907 C   0  0  0  0  0  0  0  0  0  0  0  0
    1.9758   -0.5455   -0.8841 C   0  0  0  0  0  0  0  0  0  0  0  0
    2.4304   -1.5687   -1.7224 C   0  0  0  0  0  0  0  0  0  0  0  0
    3.7498   -1.8935   -1.9112 O   0  0  0  0  0  0  0  0  0  0  0  0
    4.7603   -1.0064   -1.4330 C   0  0  0  0  0  0  0  0  0  0  0  0
    5.1412   -1.3128    0.0180 C   0  0  0  0  0  0  0  0  0  0  0  0
    6.2361   -0.5260    0.4880 O   0  0  0  0  0  0  0  0  0  0  0  0
    5.9495    0.8508    0.7358 C   0  0  0  0  0  0  0  0  0  0  0  0
    5.0668    1.1288    1.9742 C   0  0  0  0  0  0  0  0  0  0  0  0
    5.5870    0.7963    3.3115 N   0  0  0  0  0  0  0  0  0  0  0  0
    6.8665    1.4388    3.6004 C   0  0  0  0  0  0  0  0  0  0  0  0
    5.6705   -0.6433    3.5453 C   0  0  0  0  0  0  0  0  0  0  0  0
    1.6905   -4.6879   -4.7220 H   0  0  0  0  0  0  0  0  0  0  0  0
    0.5687   -3.3222   -4.7367 H   0  0  0  0  0  0  0  0  0  0  0  0
    0.4103   -4.6351   -3.5050 H   0  0  0  0  0  0  0  0  0  0  0  0
   -0.6086   -2.6840   -2.7727 H   0  0  0  0  0  0  0  0  0  0  0  0
   -2.5171   -2.4851   -1.5672 H   0  0  0  0  0  0  0  0  0  0  0  0
   -4.1370   -0.0070   -1.3857 H   0  0  0  0  0  0  0  0  0  0  0  0
   -5.4711   -1.1640    0.2122 H   0  0  0  0  0  0  0  0  0  0  0  0
   -3.8213   -1.4786    0.7252 H   0  0  0  0  0  0  0  0  0  0  0  0
   -3.8707   -3.7274   -0.2517 H   0  0  0  0  0  0  0  0  0  0  0  0
   -5.2498   -3.4855    0.8199 H   0  0  0  0  0  0  0  0  0  0  0  0
   -6.7814   -5.1738   -2.0099 H   0  0  0  0  0  0  0  0  0  0  0  0
   -5.1423   -5.5433   -1.4324 H   0  0  0  0  0  0  0  0  0  0  0  0
   -6.4678   -5.2568   -0.2841 H   0  0  0  0  0  0  0  0  0  0  0  0
   -5.9421   -3.3159   -3.3166 H   0  0  0  0  0  0  0  0  0  0  0  0
   -4.2901   -3.6104   -2.7728 H   0  0  0  0  0  0  0  0  0  0  0  0
   -5.9470   -1.0574   -2.4595 H   0  0  0  0  0  0  0  0  0  0  0  0
   -4.5605   -1.2801   -3.5220 H   0  0  0  0  0  0  0  0  0  0  0  0
   -3.4345    1.4359    1.2436 H   0  0  0  0  0  0  0  0  0  0  0  0
   -2.9691    2.6364    2.3876 H   0  0  0  0  0  0  0  0  0  0  0  0
   -4.1937    3.7001    0.6145 H   0  0  0  0  0  0  0  0  0  0  0  0
   -3.2003    2.9777   -0.6420 H   0  0  0  0  0  0  0  0  0  0  0  0
   -2.8524    5.4282   -0.1027 H   0  0  0  0  0  0  0  0  0  0  0  0
   -1.4036    4.4791   -0.2976 H   0  0  0  0  0  0  0  0  0  0  0  0
   -0.5493    6.6145    1.0874 H   0  0  0  0  0  0  0  0  0  0  0  0
   -2.2368    7.0935    1.3829 H   0  0  0  0  0  0  0  0  0  0  0  0
   -1.1823    6.7564    2.7461 H   0  0  0  0  0  0  0  0  0  0  0  0
    0.0961    4.7576    2.5376 H   0  0  0  0  0  0  0  0  0  0  0  0
   -1.1908    3.8591    3.3021 H   0  0  0  0  0  0  0  0  0  0  0  0
    0.4365    2.4172    2.1906 H   0  0  0  0  0  0  0  0  0  0  0  0
    0.1935    3.2352    0.6483 H   0  0  0  0  0  0  0  0  0  0  0  0
    2.6666    0.0847   -0.3356 H   0  0  0  0  0  0  0  0  0  0  0  0
    4.4898    0.0412   -1.6020 H   0  0  0  0  0  0  0  0  0  0  0  0
    5.6464   -1.1675   -2.0599 H   0  0  0  0  0  0  0  0  0  0  0  0
    4.2867   -1.2335    0.6957 H   0  0  0  0  0  0  0  0  0  0  0  0
    5.4559   -2.3616    0.0786 H   0  0  0  0  0  0  0  0  0  0  0  0
    5.4833    1.2996   -0.1475 H   0  0  0  0  0  0  0  0  0  0  0  0
    6.9129    1.3604    0.8476 H   0  0  0  0  0  0  0  0  0  0  0  0
    4.8404    2.2041    1.9743 H   0  0  0  0  0  0  0  0  0  0  0  0
    4.0918    0.6402    1.8518 H   0  0  0  0  0  0  0  0  0  0  0  0
    7.1253    1.3037    4.6573 H   0  0  0  0  0  0  0  0  0  0  0  0
    6.8065    2.5199    3.4289 H   0  0  0  0  0  0  0  0  0  0  0  0
    7.6881    1.0333    2.9989 H   0  0  0  0  0  0  0  0  0  0  0  0
    4.7123   -1.1306    3.3340 H   0  0  0  0  0  0  0  0  0  0  0  0
    6.4490   -1.1304    2.9486 H   0  0  0  0  0  0  0  0  0  0  0  0
    5.8908   -0.8382    4.6019 H   0  0  0  0  0  0  0  0  0  0  0  0
  1  2  1  0
  2  3  1  0
  3  4  2  0
  4  5  1  0
  5  6  2  0
  6  7  1  0
  7  8  1  0
  8  9  1  0
  9 10  1  0
 10 11  1  0
 11 12  1  0
 11 13  1  0
 13 14  1  0
  6 15  1  0
 15 16  2  0
 16 17  1  0
 17 18  1  0
 18 19  1  0
 19 20  1  0
 20 21  1  0
 21 22  1  0
 21 23  1  0
 23 24  1  0
 16 25  1  0
 25 26  2  0
 26 27  1  0
 27 28  2  0
 28 29  1  0
 29 30  1  0
 30 31  1  0
 31 32  1  0
 32 33  1  0
 33 34  1  0
 34 35  1  0
 35 36  1  0
 35 37  1  0
 28  3  1  0
 26  5  1  0
 14  8  1  0
 24 17  1  0
  1 38  1  0
  1 39  1  0
  1 40  1  0
  4 41  1  0
  7 42  1  0
  8 43  1  0
  9 44  1  0
  9 45  1  0
 10 46  1  0
 10 47  1  0
 12 48  1  0
 12 49  1  0
 12 50  1  0
 13 51  1  0
 13 52  1  0
 14 53  1  0
 14 54  1  0
 18 55  1  0
 18 56  1  0
 19 57  1  0
 19 58  1  0
 20 59  1  0
 20 60  1  0
 22 61  1  0
 22 62  1  0
 22 63  1  0
 23 64  1  0
 23 65  1  0
 24 66  1  0
 24 67  1  0
 27 68  1  0
 30 69  1  0
 30 70  1  0
 31 71  1  0
 31 72  1  0
 33 73  1  0
 33 74  1  0
 34 75  1  0
 34 76  1  0
 36 77  1  0
 36 78  1  0
 36 79  1  0
 37 80  1  0
 37 81  1  0
 37 82  1  0
M  END
$$$$
