
     RDKit          3D

 24 22  0  0  0  0  0  0  0  0999 V2000
   -3.0393    0.6846    0.3339 C   0  0  0  0  0  0  0  0  0  0  0  0
   -2.4449   -0.4940   -0.2663 N   0  0  0  0  0  0  0  0  0  0  0  0
   -1.0264   -0.3068   -0.5146 C   0  0  0  0  0  0  0  0  0  0  0  0
   -0.2456   -0.2291    0.7806 C   0  0  0  0  0  0  0  0  0  0  0  0
    1.1800   -0.0198    0.4004 C   0  0  0  0  0  0  0  0  0  0  0  0
    2.1601   -0.9388    0.1419 C   0  0  0  0  0  0  0  0  0  0  0  0
    3.3109   -0.3133   -0.1599 N   0  0  0  0  0  0  0  0  0  0  0  0
    3.0466    1.0067   -0.0896 C   0  0  0  0  0  0  0  0  0  0  0  0
    1.7597    1.1930    0.2490 N   0  0  0  0  0  0  0  0  0  0  0  0
    0.6920    0.0000    0.0000 Cl  0  0  0  0  0  0  0  0  0  0  0  0
    0.6925    0.0000    0.0000 Cl  0  0  0  0  0  0  0  0  0  0  0  0
   -2.4262    1.5512   -0.0005 H   0  0  0  0  0  0  0  0  0  0  0  0
   -3.0633    0.6709    1.4270 H   0  0  0  0  0  0  0  0  0  0  0  0
   -4.0699    0.8036   -0.0505 H   0  0  0  0  0  0  0  0  0  0  0  0
   -2.6723   -1.3730    0.2429 H   0  0  0  0  0  0  0  0  0  0  0  0
   -0.9002    0.5917   -1.1155 H   0  0  0  0  0  0  0  0  0  0  0  0
   -0.7023   -1.1822   -1.1013 H   0  0  0  0  0  0  0  0  0  0  0  0
   -0.6104    0.5606    1.4461 H   0  0  0  0  0  0  0  0  0  0  0  0
   -0.3035   -1.2510    1.2486 H   0  0  0  0  0  0  0  0  0  0  0  0
    2.0475   -2.0216    0.1674 H   0  0  0  0  0  0  0  0  0  0  0  0
    4.2479   -0.7415   -0.4063 H   0  0  0  0  0  0  0  0  0  0  0  0
    3.7515    1.8089   -0.2722 H   0  0  0  0  0  0  0  0  0  0  0  0
   -0.6920    0.0000    0.0000 H   0  0  0  0  0  0  0  0  0  0  0  0
   -0.6925    0.0000    0.0000 H   0  0  0  0  0  0  0  0  0  0  0  0
  1  2  1  0
  2  3  1  0
  3  4  1  0
  4  5  1  0
  5  6  2  0
  6  7  1  0
  7  8  1  0
  8  9  2  0
  9  5  1  0
  1 12  1  0
  1 13  1  0
  1 14  1  0
  2 15  1  0
  3 16  1  0
  3 17  1  0
  4 18  1  0
  4 19  1  0
  6 20  1  0
  7 21  1  0
  8 22  1  0
 10 23  1  0
 11 24  1  0
M  END
$$$$
