
     RDKit          3D

 40 41  0  0  0  0  0  0  0  0999 V2000
   -5.9858   -1.1632    1.5275 C   0  0  0  0  0  0  0  0  0  0  0  0
   -6.0699   -0.3128    0.2719 C   0  0  0  0  0  0  0  0  0  0  0  0
   -5.1228   -0.7489   -0.7019 O   0  0  0  0  0  0  0  0  0  0  0  0
   -3.8601   -0.2307   -0.6791 C   0  0  0  0  0  0  0  0  0  0  0  0
   -3.0387   -0.6643   -1.7210 C   0  0  0  0  0  0  0  0  0  0  0  0
   -1.7171   -0.2207   -1.8218 C   0  0  0  0  0  0  0  0  0  0  0  0
   -1.1943    0.6716   -0.8778 C   0  0  0  0  0  0  0  0  0  0  0  0
    0.2240    1.1165   -1.0448 C   0  0  0  0  0  0  0  0  0  0  0  0
    0.9320    0.5575   -1.8827 O   0  0  0  0  0  0  0  0  0  0  0  0
    0.7663    2.2516   -0.2352 C   0  0  0  0  0  0  0  0  0  0  0  0
    1.5711    1.6666    1.2180 S   0  0  0  0  0  6  0  0  0  0  0  0
    2.1522    2.8230    1.8783 O   0  0  0  0  0  0  0  0  0  0  0  0
    0.6431    0.8212    1.9473 O   0  0  0  0  0  0  0  0  0  0  0  0
    2.9182    0.6568    0.6605 C   0  0  0  0  0  0  0  0  0  0  0  0
    2.7845   -0.7328    0.6418 C   0  0  0  0  0  0  0  0  0  0  0  0
    3.8583   -1.5196    0.2221 C   0  0  0  0  0  0  0  0  0  0  0  0
    5.0710   -0.9264   -0.1545 C   0  0  0  0  0  0  0  0  0  0  0  0
    6.2106   -1.7749   -0.6378 C   0  0  0  0  0  0  0  0  0  0  0  0
    5.1911    0.4697   -0.1248 C   0  0  0  0  0  0  0  0  0  0  0  0
    4.1213    1.2633    0.2921 C   0  0  0  0  0  0  0  0  0  0  0  0
   -2.0153    1.1007    0.1703 C   0  0  0  0  0  0  0  0  0  0  0  0
   -3.3402    0.6491    0.2683 C   0  0  0  0  0  0  0  0  0  0  0  0
   -6.7622   -0.8749    2.2419 H   0  0  0  0  0  0  0  0  0  0  0  0
   -5.0112   -1.0640    2.0144 H   0  0  0  0  0  0  0  0  0  0  0  0
   -6.1104   -2.2229    1.2812 H   0  0  0  0  0  0  0  0  0  0  0  0
   -7.0603   -0.4559   -0.1753 H   0  0  0  0  0  0  0  0  0  0  0  0
   -5.9903    0.7588    0.4850 H   0  0  0  0  0  0  0  0  0  0  0  0
   -3.4299   -1.3576   -2.4624 H   0  0  0  0  0  0  0  0  0  0  0  0
   -1.1025   -0.5797   -2.6457 H   0  0  0  0  0  0  0  0  0  0  0  0
   -0.0131    2.9604    0.0525 H   0  0  0  0  0  0  0  0  0  0  0  0
    1.4926    2.8102   -0.8344 H   0  0  0  0  0  0  0  0  0  0  0  0
    1.8556   -1.2123    0.9414 H   0  0  0  0  0  0  0  0  0  0  0  0
    3.7442   -2.6014    0.1922 H   0  0  0  0  0  0  0  0  0  0  0  0
    7.1726   -1.3059   -0.4060 H   0  0  0  0  0  0  0  0  0  0  0  0
    6.1377   -1.9173   -1.7203 H   0  0  0  0  0  0  0  0  0  0  0  0
    6.2019   -2.7553   -0.1499 H   0  0  0  0  0  0  0  0  0  0  0  0
    6.1234    0.9456   -0.4220 H   0  0  0  0  0  0  0  0  0  0  0  0
    4.2391    2.3437    0.3298 H   0  0  0  0  0  0  0  0  0  0  0  0
   -1.6567    1.7666    0.9498 H   0  0  0  0  0  0  0  0  0  0  0  0
   -3.9296    0.9960    1.1109 H   0  0  0  0  0  0  0  0  0  0  0  0
  1  2  1  0
  2  3  1  0
  3  4  1  0
  4  5  2  0
  5  6  1  0
  6  7  2  0
  7  8  1  0
  8  9  2  0
  8 10  1  0
 10 11  1  0
 11 12  2  0
 11 13  2  0
 11 14  1  0
 14 15  2  0
 15 16  1  0
 16 17  2  0
 17 18  1  0
 17 19  1  0
 19 20  2  0
  7 21  1  0
 21 22  2  0
 22  4  1  0
 20 14  1  0
  1 23  1  0
  1 24  1  0
  1 25  1  0
  2 26  1  0
  2 27  1  0
  5 28  1  0
  6 29  1  0
 10 30  1  0
 10 31  1  0
 15 32  1  0
 16 33  1  0
 18 34  1  0
 18 35  1  0
 18 36  1  0
 19 37  1  0
 20 38  1  0
 21 39  1  0
 22 40  1  0
M  END
$$$$
