
     RDKit          3D

 58 61  0  0  0  0  0  0  0  0999 V2000
    9.3461   -0.7739   -3.1621 C   0  0  0  0  0  0  0  0  0  0  0  0
    8.3471   -0.6855   -2.1083 N   0  0  0  0  0  0  0  0  0  0  0  0
    7.0731   -1.2585   -2.5398 C   0  0  0  0  0  0  0  0  0  0  0  0
    6.0198   -1.1021   -1.4677 C   0  0  0  0  0  0  0  0  0  0  0  0
    4.9055   -0.2791   -1.6687 C   0  0  0  0  0  0  0  0  0  0  0  0
    3.9319   -0.1405   -0.6717 C   0  0  0  0  0  0  0  0  0  0  0  0
    4.0515   -0.8190    0.5502 C   0  0  0  0  0  0  0  0  0  0  0  0
    3.0332   -0.6811    1.5963 C   0  0  0  0  0  0  0  0  0  0  0  0
    1.7371   -0.1072    1.4973 C   0  0  0  0  0  0  0  0  0  0  0  0
    1.1869   -0.2251    2.7524 C   0  0  0  0  0  0  0  0  0  0  0  0
   -0.1045    0.1187    3.3258 C   0  0  0  0  0  0  0  0  0  0  0  0
   -1.0473    0.4083    2.3814 N   0  0  0  0  0  0  0  0  0  0  0  0
   -2.2913    0.7158    2.8273 C   0  0  0  0  0  0  0  0  0  0  0  0
   -3.2980    1.0147    1.7914 C   0  0  0  0  0  0  0  0  0  0  0  0
   -4.6605    0.6966    1.9572 C   0  0  0  0  0  0  0  0  0  0  0  0
   -5.6012    0.9831    0.9617 C   0  0  0  0  0  0  0  0  0  0  0  0
   -5.1851    1.5843   -0.2265 C   0  0  0  0  0  0  0  0  0  0  0  0
   -6.3887    1.9572   -1.4837 S   0  0  0  0  0  6  0  0  0  0  0  0
   -7.5956    2.3546   -0.7822 O   0  0  0  0  0  0  0  0  0  0  0  0
   -5.7615    2.8533   -2.4368 O   0  0  0  0  0  0  0  0  0  0  0  0
   -6.6966    0.3795   -2.2901 C   0  0  0  0  0  0  0  0  0  0  0  0
   -5.4365   -0.1963   -2.9270 C   0  0  0  0  0  0  0  0  0  0  0  0
   -7.7973    0.5389   -3.3364 C   0  0  0  0  0  0  0  0  0  0  0  0
   -3.8478    1.9263   -0.4172 C   0  0  0  0  0  0  0  0  0  0  0  0
   -2.9164    1.6324    0.5830 C   0  0  0  0  0  0  0  0  0  0  0  0
   -2.5558    0.7380    4.1934 C   0  0  0  0  0  0  0  0  0  0  0  0
   -1.6300    0.4541    5.1442 N   0  0  0  0  0  0  0  0  0  0  0  0
   -0.3949    0.1395    4.7020 C   0  0  0  0  0  0  0  0  0  0  0  0
    0.5419   -0.0654    5.7098 N   0  0  0  0  0  0  0  0  0  0  0  0
    2.0905   -0.8417    3.5587 O   0  0  0  0  0  0  0  0  0  0  0  0
    3.2356   -1.1287    2.8478 N   0  0  0  0  0  0  0  0  0  0  0  0
    5.1738   -1.6363    0.7494 C   0  0  0  0  0  0  0  0  0  0  0  0
    6.1452   -1.7771   -0.2469 C   0  0  0  0  0  0  0  0  0  0  0  0
    9.0434   -0.2118   -4.0518 H   0  0  0  0  0  0  0  0  0  0  0  0
    9.5341   -1.8153   -3.4435 H   0  0  0  0  0  0  0  0  0  0  0  0
   10.2914   -0.3538   -2.8047 H   0  0  0  0  0  0  0  0  0  0  0  0
    8.1997    0.2911   -1.8562 H   0  0  0  0  0  0  0  0  0  0  0  0
    7.1860   -2.3277   -2.7594 H   0  0  0  0  0  0  0  0  0  0  0  0
    6.7320   -0.7740   -3.4634 H   0  0  0  0  0  0  0  0  0  0  0  0
    4.7851    0.2644   -2.6034 H   0  0  0  0  0  0  0  0  0  0  0  0
    3.0880    0.5149   -0.8691 H   0  0  0  0  0  0  0  0  0  0  0  0
    1.2526    0.3248    0.6352 H   0  0  0  0  0  0  0  0  0  0  0  0
   -5.0115    0.2068    2.8639 H   0  0  0  0  0  0  0  0  0  0  0  0
   -6.6492    0.7400    1.1261 H   0  0  0  0  0  0  0  0  0  0  0  0
   -7.0545   -0.3008   -1.5087 H   0  0  0  0  0  0  0  0  0  0  0  0
   -5.6553   -1.1447   -3.4293 H   0  0  0  0  0  0  0  0  0  0  0  0
   -5.0119    0.4886   -3.6685 H   0  0  0  0  0  0  0  0  0  0  0  0
   -4.6649   -0.3956   -2.1777 H   0  0  0  0  0  0  0  0  0  0  0  0
   -8.0311   -0.4225   -3.8057 H   0  0  0  0  0  0  0  0  0  0  0  0
   -8.7176    0.9222   -2.8832 H   0  0  0  0  0  0  0  0  0  0  0  0
   -7.4998    1.2394   -4.1243 H   0  0  0  0  0  0  0  0  0  0  0  0
   -3.5177    2.4181   -1.3300 H   0  0  0  0  0  0  0  0  0  0  0  0
   -1.8725    1.9004    0.4189 H   0  0  0  0  0  0  0  0  0  0  0  0
   -3.5321    1.0056    4.5837 H   0  0  0  0  0  0  0  0  0  0  0  0
    0.0604   -0.0687    6.6042 H   0  0  0  0  0  0  0  0  0  0  0  0
    1.1175   -0.8882    5.5607 H   0  0  0  0  0  0  0  0  0  0  0  0
    5.3068   -2.1748    1.6860 H   0  0  0  0  0  0  0  0  0  0  0  0
    7.0109   -2.4110   -0.0638 H   0  0  0  0  0  0  0  0  0  0  0  0
  1  2  1  0
  2  3  1  0
  3  4  1  0
  4  5  2  0
  5  6  1  0
  6  7  2  0
  7  8  1  0
  8  9  1  0
  9 10  2  0
 10 11  1  0
 11 12  2  0
 12 13  1  0
 13 14  1  0
 14 15  2  0
 15 16  1  0
 16 17  2  0
 17 18  1  0
 18 19  2  0
 18 20  2  0
 18 21  1  0
 21 22  1  0
 21 23  1  0
 17 24  1  0
 24 25  2  0
 13 26  2  0
 26 27  1  0
 27 28  2  0
 28 29  1  0
 10 30  1  0
 30 31  1  0
  7 32  1  0
 32 33  2  0
 33  4  1  0
 31  8  2  0
 28 11  1  0
 25 14  1  0
  1 34  1  0
  1 35  1  0
  1 36  1  0
  2 37  1  0
  3 38  1  0
  3 39  1  0
  5 40  1  0
  6 41  1  0
  9 42  1  0
 15 43  1  0
 16 44  1  0
 21 45  1  0
 22 46  1  0
 22 47  1  0
 22 48  1  0
 23 49  1  0
 23 50  1  0
 23 51  1  0
 24 52  1  0
 25 53  1  0
 26 54  1  0
 29 55  1  0
 29 56  1  0
 32 57  1  0
 33 58  1  0
M  END
$$$$
