
     RDKit          3D

 35 38  0  0  0  0  0  0  0  0999 V2000
    6.6690   -2.6545   -0.6675 C   0  0  0  0  0  0  0  0  0  0  0  0
    5.6564   -1.6108   -0.4365 C   0  0  0  0  0  0  0  0  0  0  0  0
    4.2856   -1.5920   -0.3923 C   0  0  0  0  0  0  0  0  0  0  0  0
    3.9390   -0.2388   -0.1200 C   0  0  0  0  0  0  0  0  0  0  0  0
    2.6574    0.2791    0.0190 N   0  0  0  0  0  0  0  0  0  0  0  0
    2.3830    1.5996    0.2861 C   0  0  0  0  0  0  0  0  0  0  0  0
    3.0930    2.5728    0.4533 O   0  0  0  0  0  0  0  0  0  0  0  0
    0.9253    1.7083    0.3486 C   0  0  0  0  0  0  0  0  0  0  0  0
    0.1195    2.8011    0.6001 C   0  0  0  0  0  0  0  0  0  0  0  0
   -1.2646    2.5894    0.6015 C   0  0  0  0  0  0  0  0  0  0  0  0
   -1.8123    1.3069    0.3456 C   0  0  0  0  0  0  0  0  0  0  0  0
   -3.2972    1.1596    0.3791 C   0  0  0  0  0  0  0  0  0  0  0  0
   -3.9217    1.8996    1.1278 O   0  0  0  0  0  0  0  0  0  0  0  0
   -3.8061    0.2104   -0.4766 N   0  0  0  0  0  0  0  0  0  0  0  0
   -5.1440   -0.0649   -0.5492 C   0  0  0  0  0  0  0  0  0  0  0  0
   -6.1375    0.4172    0.1492 N   0  0  0  0  0  0  0  0  0  0  0  0
   -7.3175   -0.1603   -0.2746 C   0  0  0  0  0  0  0  0  0  0  0  0
   -7.1955   -1.0818   -1.2933 C   0  0  0  0  0  0  0  0  0  0  0  0
   -5.5439   -1.2293   -1.7358 S   0  0  0  0  0  0  0  0  0  0  0  0
   -0.9672    0.2132    0.1066 C   0  0  0  0  0  0  0  0  0  0  0  0
    0.3959    0.4558    0.1120 C   0  0  0  0  0  0  0  0  0  0  0  0
    1.5104   -0.4626   -0.1025 C   0  0  0  0  0  0  0  0  0  0  0  0
    1.3260   -1.6412   -0.3476 O   0  0  0  0  0  0  0  0  0  0  0  0
    5.0562    0.4954   -0.0113 N   0  0  0  0  0  0  0  0  0  0  0  0
    6.1195   -0.3577   -0.2081 O   0  0  0  0  0  0  0  0  0  0  0  0
    7.3297   -2.7470    0.2000 H   0  0  0  0  0  0  0  0  0  0  0  0
    6.1982   -3.6268   -0.8419 H   0  0  0  0  0  0  0  0  0  0  0  0
    7.2794   -2.4102   -1.5423 H   0  0  0  0  0  0  0  0  0  0  0  0
    3.6323   -2.4398   -0.5359 H   0  0  0  0  0  0  0  0  0  0  0  0
    0.5438    3.7817    0.7957 H   0  0  0  0  0  0  0  0  0  0  0  0
   -1.9316    3.4280    0.8075 H   0  0  0  0  0  0  0  0  0  0  0  0
   -3.2245   -0.2807   -1.1362 H   0  0  0  0  0  0  0  0  0  0  0  0
   -8.2471    0.1302    0.1999 H   0  0  0  0  0  0  0  0  0  0  0  0
   -7.9710   -1.6549   -1.7804 H   0  0  0  0  0  0  0  0  0  0  0  0
   -1.3376   -0.7952   -0.0447 H   0  0  0  0  0  0  0  0  0  0  0  0
  1  2  1  0
  2  3  2  0
  3  4  1  0
  4  5  1  0
  5  6  1  0
  6  7  2  0
  6  8  1  0
  8  9  2  0
  9 10  1  0
 10 11  2  0
 11 12  1  0
 12 13  2  0
 12 14  1  0
 14 15  1  0
 15 16  2  0
 16 17  1  0
 17 18  2  0
 18 19  1  0
 11 20  1  0
 20 21  2  0
 21 22  1  0
 22 23  2  0
  4 24  2  0
 24 25  1  0
 25  2  1  0
 22  5  1  0
 21  8  1  0
 19 15  1  0
  1 26  1  0
  1 27  1  0
  1 28  1  0
  3 29  1  0
  9 30  1  0
 10 31  1  0
 14 32  1  0
 17 33  1  0
 18 34  1  0
 20 35  1  0
M  END
$$$$
