
     RDKit          3D

 73 77  0  0  0  0  0  0  0  0999 V2000
  -11.6376    1.0940    1.3401 C   0  0  0  0  0  0  0  0  0  0  0  0
  -10.5068    0.1386    1.7070 C   0  0  0  0  0  0  0  0  0  0  0  0
   -9.6884   -0.2434    0.5463 N   0  0  0  0  0  0  0  0  0  0  0  0
   -8.8057   -1.3944    0.8717 C   0  0  0  0  0  0  0  0  0  0  0  0
   -7.5975   -1.0412    1.7643 C   0  0  0  0  0  0  0  0  0  0  0  0
   -6.8313    0.0597    1.1754 N   0  0  0  0  0  0  0  0  0  0  0  0
   -5.5499   -0.1936    0.6914 C   0  0  0  0  0  0  0  0  0  0  0  0
   -5.0175   -1.2944    0.8391 O   0  0  0  0  0  0  0  0  0  0  0  0
   -4.8454    0.9597   -0.0187 C   0  0  0  0  0  0  0  0  0  0  0  0
   -3.4307    0.6634   -0.4613 C   0  0  0  0  0  0  0  0  0  0  0  0
   -3.1900   -0.1260   -1.5905 C   0  0  0  0  0  0  0  0  0  0  0  0
   -1.8808   -0.4018   -2.0052 C   0  0  0  0  0  0  0  0  0  0  0  0
   -0.7771    0.1022   -1.3125 C   0  0  0  0  0  0  0  0  0  0  0  0
    0.5528   -0.1433   -1.6720 N   0  0  0  0  0  0  0  0  0  0  0  0
    1.1630   -0.8745   -2.6861 C   0  0  0  0  0  0  0  0  0  0  0  0
    0.4536   -1.5765   -3.5828 N   0  0  0  0  0  0  0  0  0  0  0  0
    1.1420   -2.2527   -4.5202 C   0  0  0  0  0  0  0  0  0  0  0  0
    2.5081   -2.2434   -4.5943 C   0  0  0  0  0  0  0  0  0  0  0  0
    3.1554   -2.9169   -5.5558 F   0  0  0  0  0  0  0  0  0  0  0  0
    3.1831   -1.4925   -3.6467 C   0  0  0  0  0  0  0  0  0  0  0  0
    4.6015   -1.4937   -3.6938 N   0  0  0  0  0  0  0  0  0  0  0  0
    5.5463   -0.9308   -2.8150 C   0  0  0  0  0  0  0  0  0  0  0  0
    6.8535   -0.7153   -3.2800 C   0  0  0  0  0  0  0  0  0  0  0  0
    7.8499   -0.2076   -2.4391 C   0  0  0  0  0  0  0  0  0  0  0  0
    7.5660    0.0701   -1.0991 C   0  0  0  0  0  0  0  0  0  0  0  0
    8.6621    0.6020   -0.2372 C   0  0  0  0  0  0  0  0  0  0  0  0
    9.5399    1.2755   -0.7642 O   0  0  0  0  0  0  0  0  0  0  0  0
    8.5905    0.2395    1.0935 N   0  0  0  0  0  0  0  0  0  0  0  0
    9.4712    0.5976    2.1432 C   0  0  0  0  0  0  0  0  0  0  0  0
   10.5607    1.4566    1.9736 C   0  0  0  0  0  0  0  0  0  0  0  0
   11.3962    1.7680    3.0526 C   0  0  0  0  0  0  0  0  0  0  0  0
   11.1518    1.2286    4.3138 C   0  0  0  0  0  0  0  0  0  0  0  0
   10.0667    0.3759    4.5028 C   0  0  0  0  0  0  0  0  0  0  0  0
    9.2338    0.0635    3.4251 C   0  0  0  0  0  0  0  0  0  0  0  0
    7.8955   -0.9997    3.7131 Cl  0  0  0  0  0  0  0  0  0  0  0  0
    6.2710   -0.1466   -0.6181 C   0  0  0  0  0  0  0  0  0  0  0  0
    5.2804   -0.6573   -1.4687 C   0  0  0  0  0  0  0  0  0  0  0  0
    2.5087   -0.8195   -2.6906 N   0  0  0  0  0  0  0  0  0  0  0  0
   -1.0305    0.8848   -0.1746 C   0  0  0  0  0  0  0  0  0  0  0  0
   -2.3358    1.1624    0.2492 C   0  0  0  0  0  0  0  0  0  0  0  0
   -7.6418    1.2448    0.8775 C   0  0  0  0  0  0  0  0  0  0  0  0
   -8.8640    0.8658    0.0111 C   0  0  0  0  0  0  0  0  0  0  0  0
  -12.3069    1.2246    2.1975 H   0  0  0  0  0  0  0  0  0  0  0  0
  -12.2334    0.7004    0.5094 H   0  0  0  0  0  0  0  0  0  0  0  0
  -11.2649    2.0846    1.0637 H   0  0  0  0  0  0  0  0  0  0  0  0
   -9.9074    0.5746    2.5145 H   0  0  0  0  0  0  0  0  0  0  0  0
  -10.9808   -0.7623    2.1184 H   0  0  0  0  0  0  0  0  0  0  0  0
   -8.4325   -1.8030   -0.0774 H   0  0  0  0  0  0  0  0  0  0  0  0
   -9.3873   -2.2016    1.3337 H   0  0  0  0  0  0  0  0  0  0  0  0
   -6.9775   -1.9310    1.9087 H   0  0  0  0  0  0  0  0  0  0  0  0
   -7.9300   -0.7159    2.7567 H   0  0  0  0  0  0  0  0  0  0  0  0
   -4.8354    1.8267    0.6539 H   0  0  0  0  0  0  0  0  0  0  0  0
   -5.4272    1.2329   -0.9081 H   0  0  0  0  0  0  0  0  0  0  0  0
   -4.0188   -0.5497   -2.1540 H   0  0  0  0  0  0  0  0  0  0  0  0
   -1.7527   -1.0267   -2.8828 H   0  0  0  0  0  0  0  0  0  0  0  0
    1.2638    0.3154   -1.1235 H   0  0  0  0  0  0  0  0  0  0  0  0
    0.5474   -2.8151   -5.2313 H   0  0  0  0  0  0  0  0  0  0  0  0
    4.9172   -1.5105   -4.6589 H   0  0  0  0  0  0  0  0  0  0  0  0
    7.1145   -0.9371   -4.3124 H   0  0  0  0  0  0  0  0  0  0  0  0
    8.8507   -0.0387   -2.8328 H   0  0  0  0  0  0  0  0  0  0  0  0
    7.8685   -0.4182    1.3668 H   0  0  0  0  0  0  0  0  0  0  0  0
   10.7909    1.9043    1.0114 H   0  0  0  0  0  0  0  0  0  0  0  0
   12.2422    2.4354    2.9006 H   0  0  0  0  0  0  0  0  0  0  0  0
   11.8052    1.4741    5.1471 H   0  0  0  0  0  0  0  0  0  0  0  0
    9.8760   -0.0417    5.4878 H   0  0  0  0  0  0  0  0  0  0  0  0
    5.9988    0.0885    0.4069 H   0  0  0  0  0  0  0  0  0  0  0  0
    4.2948   -0.8434   -1.0516 H   0  0  0  0  0  0  0  0  0  0  0  0
   -0.2038    1.2872    0.4062 H   0  0  0  0  0  0  0  0  0  0  0  0
   -2.4840    1.7670    1.1404 H   0  0  0  0  0  0  0  0  0  0  0  0
   -7.0631    2.0171    0.3678 H   0  0  0  0  0  0  0  0  0  0  0  0
   -7.9657    1.6663    1.8357 H   0  0  0  0  0  0  0  0  0  0  0  0
   -8.4988    0.5519   -0.9767 H   0  0  0  0  0  0  0  0  0  0  0  0
   -9.4726    1.7565   -0.1779 H   0  0  0  0  0  0  0  0  0  0  0  0
  1  2  1  0
  2  3  1  0
  3  4  1  0
  4  5  1  0
  5  6  1  0
  6  7  1  0
  7  8  2  0
  7  9  1  0
  9 10  1  0
 10 11  2  0
 11 12  1  0
 12 13  2  0
 13 14  1  0
 14 15  1  0
 15 16  2  0
 16 17  1  0
 17 18  2  0
 18 19  1  0
 18 20  1  0
 20 21  1  0
 21 22  1  0
 22 23  2  0
 23 24  1  0
 24 25  2  0
 25 26  1  0
 26 27  2  0
 26 28  1  0
 28 29  1  0
 29 30  2  0
 30 31  1  0
 31 32  2  0
 32 33  1  0
 33 34  2  0
 34 35  1  0
 25 36  1  0
 36 37  2  0
 20 38  2  0
 13 39  1  0
 39 40  2  0
  6 41  1  0
 41 42  1  0
 42  3  1  0
 40 10  1  0
 38 15  1  0
 37 22  1  0
 34 29  1  0
  1 43  1  0
  1 44  1  0
  1 45  1  0
  2 46  1  0
  2 47  1  0
  4 48  1  0
  4 49  1  0
  5 50  1  0
  5 51  1  0
  9 52  1  0
  9 53  1  0
 11 54  1  0
 12 55  1  0
 14 56  1  0
 17 57  1  0
 21 58  1  0
 23 59  1  0
 24 60  1  0
 28 61  1  0
 30 62  1  0
 31 63  1  0
 32 64  1  0
 33 65  1  0
 36 66  1  0
 37 67  1  0
 39 68  1  0
 40 69  1  0
 41 70  1  0
 41 71  1  0
 42 72  1  0
 42 73  1  0
M  END
$$$$
