
     RDKit          3D

 44 47  0  0  0  0  0  0  0  0999 V2000
   -6.6656    1.3060    3.5074 O   0  0  0  0  0  0  0  0  0  0  0  0
   -5.8422    0.9256    2.6839 C   0  0  0  0  0  0  0  0  0  0  0  0
   -4.4214    0.7948    3.0432 C   0  0  0  0  0  0  0  0  0  0  0  0
   -3.4949    0.3945    2.1677 C   0  0  0  0  0  0  0  0  0  0  0  0
   -3.8729    0.0668    0.7968 C   0  0  0  0  0  0  0  0  0  0  0  0
   -2.9384   -0.3457   -0.1733 C   0  0  0  0  0  0  0  0  0  0  0  0
   -1.6086   -0.4766    0.1697 O   0  0  0  0  0  0  0  0  0  0  0  0
   -0.8623    0.6543   -0.3001 C   0  0  0  0  0  0  0  0  0  0  0  0
    0.5987    0.4798    0.1082 C   0  0  0  0  0  0  0  0  0  0  0  0
    1.2386   -0.7453   -0.5566 C   0  0  0  0  0  0  0  0  0  0  0  0
    2.7044   -0.9145   -0.1593 C   0  0  0  0  0  0  0  0  0  0  0  0
    3.4398    0.2116   -0.6358 O   0  0  0  0  0  0  0  0  0  0  0  0
    4.7790    0.2427   -0.3606 C   0  0  0  0  0  0  0  0  0  0  0  0
    5.5010   -0.7364    0.3232 C   0  0  0  0  0  0  0  0  0  0  0  0
    6.8741   -0.5760    0.5361 C   0  0  0  0  0  0  0  0  0  0  0  0
    7.5301    0.5609    0.0669 C   0  0  0  0  0  0  0  0  0  0  0  0
    6.8145    1.5403   -0.6169 C   0  0  0  0  0  0  0  0  0  0  0  0
    5.4442    1.3792   -0.8288 C   0  0  0  0  0  0  0  0  0  0  0  0
   -3.3905   -0.7044   -1.4619 C   0  0  0  0  0  0  0  0  0  0  0  0
   -2.7964   -1.2042   -2.6538 C   0  0  0  0  0  0  0  0  0  0  0  0
   -3.8125   -1.3375   -3.5712 C   0  0  0  0  0  0  0  0  0  0  0  0
   -4.9988   -0.9600   -3.0280 O   0  0  0  0  0  0  0  0  0  0  0  0
   -4.7472   -0.5831   -1.7439 C   0  0  0  0  0  0  0  0  0  0  0  0
   -5.7023   -0.1432   -0.8337 C   0  0  0  0  0  0  0  0  0  0  0  0
   -5.2210    0.1675    0.4412 C   0  0  0  0  0  0  0  0  0  0  0  0
   -6.1874    0.5976    1.3808 O   0  0  0  0  0  0  0  0  0  0  0  0
   -4.1698    1.0412    4.0676 H   0  0  0  0  0  0  0  0  0  0  0  0
   -2.4552    0.2989    2.4624 H   0  0  0  0  0  0  0  0  0  0  0  0
   -0.9320    0.7449   -1.3907 H   0  0  0  0  0  0  0  0  0  0  0  0
   -1.2528    1.5722    0.1568 H   0  0  0  0  0  0  0  0  0  0  0  0
    0.6587    0.3632    1.1972 H   0  0  0  0  0  0  0  0  0  0  0  0
    1.1515    1.3870   -0.1605 H   0  0  0  0  0  0  0  0  0  0  0  0
    0.6900   -1.6530   -0.2808 H   0  0  0  0  0  0  0  0  0  0  0  0
    1.1700   -0.6328   -1.6456 H   0  0  0  0  0  0  0  0  0  0  0  0
    3.0880   -1.8318   -0.6216 H   0  0  0  0  0  0  0  0  0  0  0  0
    2.7812   -0.9887    0.9322 H   0  0  0  0  0  0  0  0  0  0  0  0
    5.0293   -1.6361    0.7029 H   0  0  0  0  0  0  0  0  0  0  0  0
    7.4323   -1.3415    1.0692 H   0  0  0  0  0  0  0  0  0  0  0  0
    8.5971    0.6824    0.2337 H   0  0  0  0  0  0  0  0  0  0  0  0
    7.3199    2.4286   -0.9858 H   0  0  0  0  0  0  0  0  0  0  0  0
    4.8890    2.1458   -1.3635 H   0  0  0  0  0  0  0  0  0  0  0  0
   -1.7541   -1.4378   -2.8175 H   0  0  0  0  0  0  0  0  0  0  0  0
   -3.8559   -1.6723   -4.5984 H   0  0  0  0  0  0  0  0  0  0  0  0
   -6.7493   -0.0651   -1.0971 H   0  0  0  0  0  0  0  0  0  0  0  0
  1  2  2  0
  2  3  1  0
  3  4  2  0
  4  5  1  0
  5  6  2  0
  6  7  1  0
  7  8  1  0
  8  9  1  0
  9 10  1  0
 10 11  1  0
 11 12  1  0
 12 13  1  0
 13 14  2  0
 14 15  1  0
 15 16  2  0
 16 17  1  0
 17 18  2  0
  6 19  1  0
 19 20  1  0
 20 21  2  0
 21 22  1  0
 22 23  1  0
 23 24  1  0
 24 25  2  0
 25 26  1  0
 26  2  1  0
 25  5  1  0
 18 13  1  0
 23 19  2  0
  3 27  1  0
  4 28  1  0
  8 29  1  0
  8 30  1  0
  9 31  1  0
  9 32  1  0
 10 33  1  0
 10 34  1  0
 11 35  1  0
 11 36  1  0
 14 37  1  0
 15 38  1  0
 16 39  1  0
 17 40  1  0
 18 41  1  0
 20 42  1  0
 21 43  1  0
 24 44  1  0
M  END
$$$$
