
     RDKit          3D

 27 26  0  0  0  0  0  0  0  0999 V2000
   -3.9103    0.5355    0.6468 C   0  0  0  0  0  0  0  0  0  0  0  0
   -3.3135   -0.8632    0.6209 C   0  0  0  0  0  0  0  0  0  0  0  0
   -1.7990   -0.8855    0.8385 C   0  0  0  0  0  0  0  0  0  0  0  0
   -1.0141   -0.2152   -0.2913 C   0  0  0  0  0  0  0  0  0  0  0  0
    0.4951   -0.3585   -0.0781 C   0  0  0  0  0  0  0  0  0  0  0  0
    1.2816    0.3144   -1.2067 C   0  0  0  0  0  0  0  0  0  0  0  0
    2.7901    0.1486   -1.0434 C   0  0  0  0  0  0  0  0  0  0  0  0
    3.2998    0.8684    0.1046 N   0  0  0  0  0  0  0  0  0  0  0  0
    4.5119    0.5485    0.6614 C   0  0  0  0  0  0  0  0  0  0  0  0
    5.2244   -0.3897    0.3377 O   0  0  0  0  0  0  0  0  0  0  0  0
   -5.0018    0.4788    0.5841 H   0  0  0  0  0  0  0  0  0  0  0  0
   -3.6510    1.0566    1.5737 H   0  0  0  0  0  0  0  0  0  0  0  0
   -3.5617    1.1364   -0.1981 H   0  0  0  0  0  0  0  0  0  0  0  0
   -3.5612   -1.3480   -0.3305 H   0  0  0  0  0  0  0  0  0  0  0  0
   -3.7863   -1.4577    1.4118 H   0  0  0  0  0  0  0  0  0  0  0  0
   -1.4812   -1.9321    0.9240 H   0  0  0  0  0  0  0  0  0  0  0  0
   -1.5578   -0.4034    1.7938 H   0  0  0  0  0  0  0  0  0  0  0  0
   -1.2936   -0.6663   -1.2510 H   0  0  0  0  0  0  0  0  0  0  0  0
   -1.2684    0.8493   -0.3452 H   0  0  0  0  0  0  0  0  0  0  0  0
    0.7692    0.0865    0.8858 H   0  0  0  0  0  0  0  0  0  0  0  0
    0.7599   -1.4218   -0.0308 H   0  0  0  0  0  0  0  0  0  0  0  0
    0.9836   -0.1264   -2.1658 H   0  0  0  0  0  0  0  0  0  0  0  0
    1.0270    1.3806   -1.2485 H   0  0  0  0  0  0  0  0  0  0  0  0
    3.0598   -0.9104   -0.9611 H   0  0  0  0  0  0  0  0  0  0  0  0
    3.3034    0.5517   -1.9237 H   0  0  0  0  0  0  0  0  0  0  0  0
    2.9032    1.7711    0.3319 H   0  0  0  0  0  0  0  0  0  0  0  0
    4.7908    1.2521    1.4635 H   0  0  0  0  0  0  0  0  0  0  0  0
  1  2  1  0
  2  3  1  0
  3  4  1  0
  4  5  1  0
  5  6  1  0
  6  7  1  0
  7  8  1  0
  8  9  1  0
  9 10  2  0
  1 11  1  0
  1 12  1  0
  1 13  1  0
  2 14  1  0
  2 15  1  0
  3 16  1  0
  3 17  1  0
  4 18  1  0
  4 19  1  0
  5 20  1  0
  5 21  1  0
  6 22  1  0
  6 23  1  0
  7 24  1  0
  7 25  1  0
  8 26  1  0
  9 27  1  0
M  END
$$$$
