
     RDKit          3D

 36 35  0  0  0  0  0  0  0  0999 V2000
    4.6288   -0.4177   -1.2059 C   0  0  0  0  0  0  0  0  0  0  0  0
    3.8596   -0.7701   -0.0235 N   0  0  0  0  0  0  0  0  0  0  0  0
    4.6062   -1.3041    1.1012 C   0  0  0  0  0  0  0  0  0  0  0  0
    2.5549   -0.3447    0.1784 C   0  0  0  0  0  0  0  0  0  0  0  0
    1.9332   -0.5121    1.2246 O   0  0  0  0  0  0  0  0  0  0  0  0
    2.0138    0.2910   -0.9435 O   0  0  0  0  0  0  0  0  0  0  0  0
    0.7016    0.7897   -0.8546 C   0  0  0  0  0  0  0  0  0  0  0  0
    0.4980    2.0964   -1.2840 C   0  0  0  0  0  0  0  0  0  0  0  0
   -0.7827    2.6341   -1.2301 C   0  0  0  0  0  0  0  0  0  0  0  0
   -1.8456    1.8621   -0.7471 C   0  0  0  0  0  0  0  0  0  0  0  0
   -1.6479    0.5346   -0.3219 C   0  0  0  0  0  0  0  0  0  0  0  0
   -2.8266   -0.2592    0.2214 N   0  0  0  0  0  4  0  0  0  0  0  0
   -2.4190   -1.6560    0.6880 C   0  0  0  0  0  0  0  0  0  0  0  0
   -3.8680   -0.4091   -0.8788 C   0  0  0  0  0  0  0  0  0  0  0  0
   -3.3986    0.4781    1.4293 C   0  0  0  0  0  0  0  0  0  0  0  0
   -0.3608   -0.0044   -0.4103 C   0  0  0  0  0  0  0  0  0  0  0  0
    0.0000    0.0000    0.0000 Br  0  0  0  0  0 15  0  0  0  0  0  0
    3.9860   -0.2192   -2.0666 H   0  0  0  0  0  0  0  0  0  0  0  0
    5.2150    0.4790   -0.9848 H   0  0  0  0  0  0  0  0  0  0  0  0
    5.3007   -1.2435   -1.4576 H   0  0  0  0  0  0  0  0  0  0  0  0
    3.9437   -1.6415    1.9027 H   0  0  0  0  0  0  0  0  0  0  0  0
    5.2084   -2.1520    0.7621 H   0  0  0  0  0  0  0  0  0  0  0  0
    5.2620   -0.5195    1.4902 H   0  0  0  0  0  0  0  0  0  0  0  0
    1.3302    2.6933   -1.6502 H   0  0  0  0  0  0  0  0  0  0  0  0
   -0.9529    3.6586   -1.5572 H   0  0  0  0  0  0  0  0  0  0  0  0
   -2.8246    2.3322   -0.7147 H   0  0  0  0  0  0  0  0  0  0  0  0
   -3.3105   -2.1583    1.0789 H   0  0  0  0  0  0  0  0  0  0  0  0
   -1.6758   -1.5664    1.4868 H   0  0  0  0  0  0  0  0  0  0  0  0
   -2.0362   -2.2227   -0.1668 H   0  0  0  0  0  0  0  0  0  0  0  0
   -4.6845   -1.0284   -0.4940 H   0  0  0  0  0  0  0  0  0  0  0  0
   -4.2600    0.5750   -1.1507 H   0  0  0  0  0  0  0  0  0  0  0  0
   -3.4004   -0.8949   -1.7413 H   0  0  0  0  0  0  0  0  0  0  0  0
   -4.1978   -0.1360    1.8568 H   0  0  0  0  0  0  0  0  0  0  0  0
   -3.8175    1.4369    1.1115 H   0  0  0  0  0  0  0  0  0  0  0  0
   -2.5997    0.6230    2.1637 H   0  0  0  0  0  0  0  0  0  0  0  0
   -0.1329   -1.0242   -0.1254 H   0  0  0  0  0  0  0  0  0  0  0  0
  1  2  1  0
  2  3  1  0
  2  4  1  0
  4  5  2  0
  4  6  1  0
  6  7  1  0
  7  8  2  0
  8  9  1  0
  9 10  2  0
 10 11  1  0
 11 12  1  0
 12 13  1  0
 12 14  1  0
 12 15  1  0
 11 16  2  0
 16  7  1  0
  1 18  1  0
  1 19  1  0
  1 20  1  0
  3 21  1  0
  3 22  1  0
  3 23  1  0
  8 24  1  0
  9 25  1  0
 10 26  1  0
 13 27  1  0
 13 28  1  0
 13 29  1  0
 14 30  1  0
 14 31  1  0
 14 32  1  0
 15 33  1  0
 15 34  1  0
 15 35  1  0
 16 36  1  0
M  CHG  2  12   1  17  -1
M  END
$$$$
