
     RDKit          3D

 58 61  0  0  0  0  0  0  0  0999 V2000
   -5.9588    3.7439    3.0757 C   0  0  0  0  0  0  0  0  0  0  0  0
   -5.9842    2.3408    3.3177 O   0  0  0  0  0  0  0  0  0  0  0  0
   -5.0602    1.6472    2.5626 C   0  0  0  0  0  0  0  0  0  0  0  0
   -4.9923    0.2811    2.7807 C   0  0  0  0  0  0  0  0  0  0  0  0
   -4.0808   -0.4671    2.0370 C   0  0  0  0  0  0  0  0  0  0  0  0
   -3.2620    0.1664    1.0950 C   0  0  0  0  0  0  0  0  0  0  0  0
   -2.2941   -0.5875    0.2722 C   0  0  0  0  0  0  0  0  0  0  0  0
   -2.7170   -1.6520   -0.4267 C   0  0  0  0  0  0  0  0  0  0  0  0
   -1.7966   -2.4159   -1.2598 C   0  0  0  0  0  0  0  0  0  0  0  0
   -2.1643   -3.5312   -2.0038 C   0  0  0  0  0  0  0  0  0  0  0  0
   -3.5687   -4.0627   -2.0211 C   0  0  0  0  0  0  0  0  0  0  0  0
   -1.2823   -4.2152   -2.7637 N   0  0  0  0  0  0  0  0  0  0  0  0
   -0.0214   -3.7910   -2.7703 C   0  0  0  0  0  0  0  0  0  0  0  0
    0.8793   -4.4828   -3.5485 N   0  0  0  0  0  0  0  0  0  0  0  0
    0.4201   -2.7238   -2.1110 N   0  0  0  0  0  0  0  0  0  0  0  0
   -0.4629   -2.0447   -1.3519 C   0  0  0  0  0  0  0  0  0  0  0  0
   -0.0035   -0.9038   -0.6258 N   0  0  0  0  0  0  0  0  0  0  0  0
    1.4251   -0.5306   -0.7387 C   0  0  1  0  0  0  0  0  0  0  0  0
    1.6191    0.8610   -1.3706 C   0  0  0  0  0  0  0  0  0  0  0  0
    3.0979    1.2211   -1.4882 C   0  0  0  0  0  0  0  0  0  0  0  0
    3.8166    1.1189   -0.1387 C   0  0  2  0  0  0  0  0  0  0  0  0
    5.2198    1.3318   -0.3210 O   0  0  0  0  0  0  0  0  0  0  0  0
    5.6084    2.7119   -0.2935 C   0  0  0  0  0  0  0  0  0  0  0  0
    5.8945    3.1373    1.1456 C   0  0  0  0  0  0  0  0  0  0  0  0
    6.9163    2.3095    1.6990 O   0  0  0  0  0  0  0  0  0  0  0  0
    3.6419   -0.2799    0.4578 C   0  0  0  0  0  0  0  0  0  0  0  0
    2.1698   -0.6542    0.6038 C   0  0  0  0  0  0  0  0  0  0  0  0
   -0.8570   -0.1577    0.1807 C   0  0  0  0  0  0  0  0  0  0  0  0
   -0.4937    0.8314    0.8166 O   0  0  0  0  0  0  0  0  0  0  0  0
   -3.4038    1.5482    0.9684 C   0  0  0  0  0  0  0  0  0  0  0  0
   -4.2896    2.2991    1.6686 N   0  0  0  0  0  0  0  0  0  0  0  0
   -6.2271    3.9733    2.0386 H   0  0  0  0  0  0  0  0  0  0  0  0
   -6.7103    4.2068    3.7227 H   0  0  0  0  0  0  0  0  0  0  0  0
   -4.9856    4.1742    3.3361 H   0  0  0  0  0  0  0  0  0  0  0  0
   -5.6336   -0.1890    3.5177 H   0  0  0  0  0  0  0  0  0  0  0  0
   -4.0114   -1.5378    2.2107 H   0  0  0  0  0  0  0  0  0  0  0  0
   -3.7569   -1.9606   -0.3939 H   0  0  0  0  0  0  0  0  0  0  0  0
   -4.2592   -3.3074   -2.4091 H   0  0  0  0  0  0  0  0  0  0  0  0
   -3.6435   -4.9441   -2.6670 H   0  0  0  0  0  0  0  0  0  0  0  0
   -3.8778   -4.3614   -1.0146 H   0  0  0  0  0  0  0  0  0  0  0  0
    1.6486   -3.8865   -3.8173 H   0  0  0  0  0  0  0  0  0  0  0  0
    0.3965   -4.9826   -4.2817 H   0  0  0  0  0  0  0  0  0  0  0  0
    1.9296   -1.2283   -1.4167 H   0  0  0  0  0  0  0  0  0  0  0  0
    1.1205    1.6391   -0.7833 H   0  0  0  0  0  0  0  0  0  0  0  0
    1.1578    0.8816   -2.3654 H   0  0  0  0  0  0  0  0  0  0  0  0
    3.5866    0.5616   -2.2174 H   0  0  0  0  0  0  0  0  0  0  0  0
    3.1962    2.2334   -1.8964 H   0  0  0  0  0  0  0  0  0  0  0  0
    3.4055    1.8551    0.5635 H   0  0  0  0  0  0  0  0  0  0  0  0
    4.8544    3.3541   -0.7594 H   0  0  0  0  0  0  0  0  0  0  0  0
    6.5303    2.7823   -0.8800 H   0  0  0  0  0  0  0  0  0  0  0  0
    5.0086    3.0313    1.7779 H   0  0  0  0  0  0  0  0  0  0  0  0
    6.2330    4.1763    1.1840 H   0  0  0  0  0  0  0  0  0  0  0  0
    6.7101    1.4026    1.3987 H   0  0  0  0  0  0  0  0  0  0  0  0
    4.1386   -0.3278    1.4348 H   0  0  0  0  0  0  0  0  0  0  0  0
    4.1554   -1.0195   -0.1706 H   0  0  0  0  0  0  0  0  0  0  0  0
    2.0892   -1.6821    0.9777 H   0  0  0  0  0  0  0  0  0  0  0  0
    1.7217   -0.0110    1.3685 H   0  0  0  0  0  0  0  0  0  0  0  0
   -2.7928    2.1170    0.2710 H   0  0  0  0  0  0  0  0  0  0  0  0
  1  2  1  0
  2  3  1  0
  3  4  2  0
  4  5  1  0
  5  6  2  0
  6  7  1  0
  7  8  2  0
  8  9  1  0
  9 10  2  0
 10 11  1  0
 10 12  1  0
 12 13  2  0
 13 14  1  0
 13 15  1  0
 15 16  2  0
 16 17  1  0
 17 18  1  0
 18 19  1  0
 19 20  1  0
 20 21  1  0
 21 22  1  0
 22 23  1  0
 23 24  1  0
 24 25  1  0
 21 26  1  0
 26 27  1  0
 17 28  1  0
 28 29  2  0
  6 30  1  0
 30 31  2  0
 31  3  1  0
 28  7  1  0
 16  9  1  0
 27 18  1  0
  1 32  1  0
  1 33  1  0
  1 34  1  0
  4 35  1  0
  5 36  1  0
  8 37  1  0
 11 38  1  0
 11 39  1  0
 11 40  1  0
 14 41  1  0
 14 42  1  0
 18 43  1  6
 19 44  1  0
 19 45  1  0
 20 46  1  0
 20 47  1  0
 21 48  1  1
 23 49  1  0
 23 50  1  0
 24 51  1  0
 24 52  1  0
 25 53  1  0
 26 54  1  0
 26 55  1  0
 27 56  1  0
 27 57  1  0
 30 58  1  0
M  END
$$$$
