
     RDKit          3D

 49 50  0  0  0  0  0  0  0  0999 V2000
   -6.6946    1.5441    0.3304 C   0  0  0  0  0  0  0  0  0  0  0  0
   -6.1567    0.1427   -0.0376 C   0  0  0  0  0  0  0  0  0  0  0  0
   -6.7748   -0.2392   -1.4001 C   0  0  0  0  0  0  0  0  0  0  0  0
   -6.6620   -0.8383    1.0423 C   0  0  0  0  0  0  0  0  0  0  0  0
   -4.6223    0.0687   -0.1262 C   0  0  0  0  0  0  0  0  0  0  0  0
   -3.7932    1.1749    0.1184 C   0  0  0  0  0  0  0  0  0  0  0  0
   -2.3989    1.0751    0.0319 C   0  0  0  0  0  0  0  0  0  0  0  0
   -1.7878   -0.1358   -0.3081 C   0  0  0  0  0  0  0  0  0  0  0  0
   -0.2886   -0.2476   -0.3911 C   0  0  0  0  0  0  0  0  0  0  0  0
    0.4281   -0.7699    1.1996 S   0  0  0  0  0  0  0  0  0  0  0  0
    2.1029   -0.7735    0.7816 C   0  0  0  0  0  0  0  0  0  0  0  0
    2.8831    0.4038    1.1835 C   0  0  0  0  0  0  0  0  0  0  0  0
    4.1379    0.5984    0.9538 N   0  0  0  0  0  0  0  0  0  0  0  0
    4.8365   -0.3843    0.2812 N   0  0  0  0  0  0  0  0  0  0  0  0
    6.2926   -0.1120    0.0446 C   0  0  0  0  0  0  0  0  0  0  0  0
    6.7156    1.2735    0.5952 C   0  0  0  0  0  0  0  0  0  0  0  0
    6.6033   -0.1087   -1.4654 C   0  0  0  0  0  0  0  0  0  0  0  0
    7.1613   -1.1658    0.7591 C   0  0  0  0  0  0  0  0  0  0  0  0
    4.2399   -1.5806   -0.1403 C   0  0  0  0  0  0  0  0  0  0  0  0
    4.8440   -2.4751   -0.7306 O   0  0  0  0  0  0  0  0  0  0  0  0
    2.7813   -1.7368    0.1530 C   0  0  0  0  0  0  0  0  0  0  0  0
    2.0435   -3.2144   -0.3784 Cl  0  0  0  0  0  0  0  0  0  0  0  0
   -2.5994   -1.2487   -0.5459 C   0  0  0  0  0  0  0  0  0  0  0  0
   -3.9915   -1.1453   -0.4583 C   0  0  0  0  0  0  0  0  0  0  0  0
   -7.7902    1.5467    0.3782 H   0  0  0  0  0  0  0  0  0  0  0  0
   -6.4030    2.2960   -0.4122 H   0  0  0  0  0  0  0  0  0  0  0  0
   -6.3293    1.8721    1.3105 H   0  0  0  0  0  0  0  0  0  0  0  0
   -6.4113    0.4205   -2.1969 H   0  0  0  0  0  0  0  0  0  0  0  0
   -6.5355   -1.2681   -1.6904 H   0  0  0  0  0  0  0  0  0  0  0  0
   -7.8680   -0.1601   -1.3743 H   0  0  0  0  0  0  0  0  0  0  0  0
   -6.4190   -1.8793    0.8029 H   0  0  0  0  0  0  0  0  0  0  0  0
   -7.7514   -0.7804    1.1502 H   0  0  0  0  0  0  0  0  0  0  0  0
   -6.2175   -0.6129    2.0189 H   0  0  0  0  0  0  0  0  0  0  0  0
   -4.2066    2.1433    0.3865 H   0  0  0  0  0  0  0  0  0  0  0  0
   -1.7962    1.9572    0.2375 H   0  0  0  0  0  0  0  0  0  0  0  0
   -0.0177   -0.9620   -1.1767 H   0  0  0  0  0  0  0  0  0  0  0  0
    0.1397    0.7187   -0.6824 H   0  0  0  0  0  0  0  0  0  0  0  0
    2.3360    1.1922    1.7282 H   0  0  0  0  0  0  0  0  0  0  0  0
    6.1519    2.0829    0.1168 H   0  0  0  0  0  0  0  0  0  0  0  0
    6.5507    1.3418    1.6769 H   0  0  0  0  0  0  0  0  0  0  0  0
    7.7799    1.4647    0.4146 H   0  0  0  0  0  0  0  0  0  0  0  0
    6.4535   -1.0895   -1.9257 H   0  0  0  0  0  0  0  0  0  0  0  0
    5.9588    0.6031   -1.9939 H   0  0  0  0  0  0  0  0  0  0  0  0
    7.6448    0.1757   -1.6545 H   0  0  0  0  0  0  0  0  0  0  0  0
    8.2276   -0.9306    0.6634 H   0  0  0  0  0  0  0  0  0  0  0  0
    7.0191   -2.1708    0.3512 H   0  0  0  0  0  0  0  0  0  0  0  0
    6.9208   -1.2092    1.8275 H   0  0  0  0  0  0  0  0  0  0  0  0
   -2.1563   -2.2104   -0.7971 H   0  0  0  0  0  0  0  0  0  0  0  0
   -4.5811   -2.0391   -0.6517 H   0  0  0  0  0  0  0  0  0  0  0  0
  1  2  1  0
  2  3  1  0
  2  4  1  0
  2  5  1  0
  5  6  2  0
  6  7  1  0
  7  8  2  0
  8  9  1  0
  9 10  1  0
 10 11  1  0
 11 12  1  0
 12 13  2  0
 13 14  1  0
 14 15  1  0
 15 16  1  0
 15 17  1  0
 15 18  1  0
 14 19  1  0
 19 20  2  0
 19 21  1  0
 21 22  1  0
  8 23  1  0
 23 24  2  0
 24  5  1  0
 21 11  2  0
  1 25  1  0
  1 26  1  0
  1 27  1  0
  3 28  1  0
  3 29  1  0
  3 30  1  0
  4 31  1  0
  4 32  1  0
  4 33  1  0
  6 34  1  0
  7 35  1  0
  9 36  1  0
  9 37  1  0
 12 38  1  0
 16 39  1  0
 16 40  1  0
 16 41  1  0
 17 42  1  0
 17 43  1  0
 17 44  1  0
 18 45  1  0
 18 46  1  0
 18 47  1  0
 23 48  1  0
 24 49  1  0
M  END
$$$$
