
     RDKit          3D

 46 48  0  0  0  0  0  0  0  0999 V2000
   -4.4677    2.1700    2.3111 C   0  0  0  0  0  0  0  0  0  0  0  0
   -4.0404    2.4831    0.9846 O   0  0  0  0  0  0  0  0  0  0  0  0
   -4.1690    1.3837    0.1711 C   0  0  0  0  0  0  0  0  0  0  0  0
   -5.4268    1.2007   -0.4132 C   0  0  0  0  0  0  0  0  0  0  0  0
   -5.6381    0.1443   -1.2838 C   0  0  0  0  0  0  0  0  0  0  0  0
   -4.5857   -0.7168   -1.5866 C   0  0  0  0  0  0  0  0  0  0  0  0
   -3.3037   -0.5320   -1.0299 C   0  0  0  0  0  0  0  0  0  0  0  0
   -3.0788    0.5356   -0.1329 C   0  0  0  0  0  0  0  0  0  0  0  0
   -1.7188    0.7010    0.4283 C   0  0  0  0  0  0  0  0  0  0  0  0
   -1.5603    1.7144    1.3610 O   0  0  0  0  0  0  0  0  0  0  0  0
   -0.7060   -0.0971    0.0420 C   0  0  0  0  0  0  0  0  0  0  0  0
    0.6499    0.1666    0.6158 C   0  0  0  0  0  0  0  0  0  0  0  0
    0.7015    0.4346    1.8223 O   0  0  0  0  0  0  0  0  0  0  0  0
    1.7539    0.1888   -0.2453 N   0  0  0  0  0  0  0  0  0  0  0  0
    1.5885    0.5172   -1.6643 C   0  0  0  0  0  0  0  0  0  0  0  0
    3.1038    0.0057    0.2443 C   0  0  0  0  0  0  0  0  0  0  0  0
    3.3630   -0.5033    1.5264 C   0  0  0  0  0  0  0  0  0  0  0  0
    4.6709   -0.6988    1.9939 C   0  0  0  0  0  0  0  0  0  0  0  0
    5.7710   -0.4086    1.1826 C   0  0  0  0  0  0  0  0  0  0  0  0
    7.1778   -0.5972    1.6914 C   0  0  0  0  0  0  0  0  0  0  0  0
    8.0731   -0.8663    0.6993 F   0  0  0  0  0  0  0  0  0  0  0  0
    7.6510    0.5086    2.3297 F   0  0  0  0  0  0  0  0  0  0  0  0
    7.2937   -1.6221    2.5817 F   0  0  0  0  0  0  0  0  0  0  0  0
    5.5314    0.0878   -0.1019 C   0  0  0  0  0  0  0  0  0  0  0  0
    4.2209    0.2808   -0.5639 C   0  0  0  0  0  0  0  0  0  0  0  0
   -0.9469   -1.2482   -0.8630 C   0  0  0  0  0  0  0  0  0  0  0  0
   -0.0210   -2.0118   -1.1370 O   0  0  0  0  0  0  0  0  0  0  0  0
   -2.2297   -1.4129   -1.3699 N   0  0  0  0  0  0  0  0  0  0  0  0
   -2.4694   -2.5366   -2.2670 C   0  0  0  0  0  0  0  0  0  0  0  0
   -4.1822    3.0033    2.9602 H   0  0  0  0  0  0  0  0  0  0  0  0
   -5.5572    2.0664    2.3519 H   0  0  0  0  0  0  0  0  0  0  0  0
   -3.9880    1.2617    2.6932 H   0  0  0  0  0  0  0  0  0  0  0  0
   -6.2354    1.8917   -0.1894 H   0  0  0  0  0  0  0  0  0  0  0  0
   -6.6158   -0.0048   -1.7347 H   0  0  0  0  0  0  0  0  0  0  0  0
   -4.7974   -1.5268   -2.2782 H   0  0  0  0  0  0  0  0  0  0  0  0
   -0.7190    1.5740    1.8477 H   0  0  0  0  0  0  0  0  0  0  0  0
    2.1143    1.4525   -1.8827 H   0  0  0  0  0  0  0  0  0  0  0  0
    1.9832   -0.2986   -2.2774 H   0  0  0  0  0  0  0  0  0  0  0  0
    0.5472    0.6924   -1.9408 H   0  0  0  0  0  0  0  0  0  0  0  0
    2.5587   -0.7891    2.1987 H   0  0  0  0  0  0  0  0  0  0  0  0
    4.8175   -1.0911    2.9996 H   0  0  0  0  0  0  0  0  0  0  0  0
    6.3657    0.3261   -0.7607 H   0  0  0  0  0  0  0  0  0  0  0  0
    4.1158    0.6612   -1.5752 H   0  0  0  0  0  0  0  0  0  0  0  0
   -2.7949   -2.1604   -3.2421 H   0  0  0  0  0  0  0  0  0  0  0  0
   -3.2311   -3.1928   -1.8338 H   0  0  0  0  0  0  0  0  0  0  0  0
   -1.5695   -3.1368   -2.4286 H   0  0  0  0  0  0  0  0  0  0  0  0
  1  2  1  0
  2  3  1  0
  3  4  2  0
  4  5  1  0
  5  6  2  0
  6  7  1  0
  7  8  2  0
  8  9  1  0
  9 10  1  0
  9 11  2  0
 11 12  1  0
 12 13  2  0
 12 14  1  0
 14 15  1  0
 14 16  1  0
 16 17  2  0
 17 18  1  0
 18 19  2  0
 19 20  1  0
 20 21  1  0
 20 22  1  0
 20 23  1  0
 19 24  1  0
 24 25  2  0
 11 26  1  0
 26 27  2  0
 26 28  1  0
 28 29  1  0
  8  3  1  0
 25 16  1  0
 28  7  1  0
  1 30  1  0
  1 31  1  0
  1 32  1  0
  4 33  1  0
  5 34  1  0
  6 35  1  0
 10 36  1  0
 15 37  1  0
 15 38  1  0
 15 39  1  0
 17 40  1  0
 18 41  1  0
 24 42  1  0
 25 43  1  0
 29 44  1  0
 29 45  1  0
 29 46  1  0
M  END
$$$$
