
     RDKit          3D

 36 37  0  0  0  0  0  0  0  0999 V2000
    5.9556    0.2417   -0.3342 C   0  0  0  0  0  0  0  0  0  0  0  0
    4.4558    0.2892   -0.3766 C   0  0  0  0  0  0  0  0  0  0  0  0
    3.7551    1.2158    0.4079 C   0  0  0  0  0  0  0  0  0  0  0  0
    2.3599    1.2462    0.3917 C   0  0  0  0  0  0  0  0  0  0  0  0
    1.6633    0.3284   -0.3970 C   0  0  0  0  0  0  0  0  0  0  0  0
   -0.1191    0.3579   -0.4324 S   0  0  0  0  0  6  0  0  0  0  0  0
   -0.5036   -0.0085   -1.7823 O   0  0  0  0  0  0  0  0  0  0  0  0
   -0.5277    1.6302    0.1342 O   0  0  0  0  0  0  0  0  0  0  0  0
   -0.5785   -0.9494    0.6763 C   0  0  0  0  0  0  0  0  0  0  0  0
   -0.3587   -0.6242    2.1443 C   0  0  0  0  0  0  0  0  0  0  0  0
   -1.9710   -1.4752    0.4145 C   0  0  0  0  0  0  0  0  0  0  0  0
   -2.2065   -2.6796    0.5549 O   0  0  0  0  0  0  0  0  0  0  0  0
   -3.1102   -0.6029    0.0274 C   0  0  0  0  0  0  0  0  0  0  0  0
   -3.3749    0.6168    0.6540 C   0  0  0  0  0  0  0  0  0  0  0  0
   -4.4749    1.3802    0.2540 C   0  0  0  0  0  0  0  0  0  0  0  0
   -5.3187    0.9213   -0.7571 C   0  0  0  0  0  0  0  0  0  0  0  0
   -5.0706   -0.3059   -1.3686 C   0  0  0  0  0  0  0  0  0  0  0  0
   -3.9722   -1.0703   -0.9736 C   0  0  0  0  0  0  0  0  0  0  0  0
    2.3465   -0.5981   -1.1885 C   0  0  0  0  0  0  0  0  0  0  0  0
    3.7416   -0.6218   -1.1669 C   0  0  0  0  0  0  0  0  0  0  0  0
    6.2855   -0.4389    0.4566 H   0  0  0  0  0  0  0  0  0  0  0  0
    6.3627   -0.1023   -1.2908 H   0  0  0  0  0  0  0  0  0  0  0  0
    6.3727    1.2361   -0.1430 H   0  0  0  0  0  0  0  0  0  0  0  0
    4.2957    1.9269    1.0298 H   0  0  0  0  0  0  0  0  0  0  0  0
    1.8338    1.9856    0.9913 H   0  0  0  0  0  0  0  0  0  0  0  0
    0.0863   -1.7806    0.4023 H   0  0  0  0  0  0  0  0  0  0  0  0
   -0.6888   -1.4517    2.7816 H   0  0  0  0  0  0  0  0  0  0  0  0
   -0.9044    0.2691    2.4589 H   0  0  0  0  0  0  0  0  0  0  0  0
    0.7012   -0.4465    2.3519 H   0  0  0  0  0  0  0  0  0  0  0  0
   -2.7514    0.9984    1.4550 H   0  0  0  0  0  0  0  0  0  0  0  0
   -4.6737    2.3363    0.7326 H   0  0  0  0  0  0  0  0  0  0  0  0
   -6.1721    1.5198   -1.0663 H   0  0  0  0  0  0  0  0  0  0  0  0
   -5.7308   -0.6682   -2.1525 H   0  0  0  0  0  0  0  0  0  0  0  0
   -3.7874   -2.0300   -1.4524 H   0  0  0  0  0  0  0  0  0  0  0  0
    1.8081   -1.2964   -1.8259 H   0  0  0  0  0  0  0  0  0  0  0  0
    4.2714   -1.3494   -1.7790 H   0  0  0  0  0  0  0  0  0  0  0  0
  1  2  1  0
  2  3  2  0
  3  4  1  0
  4  5  2  0
  5  6  1  0
  6  7  2  0
  6  8  2  0
  6  9  1  0
  9 10  1  0
  9 11  1  0
 11 12  2  0
 11 13  1  0
 13 14  2  0
 14 15  1  0
 15 16  2  0
 16 17  1  0
 17 18  2  0
  5 19  1  0
 19 20  2  0
 20  2  1  0
 18 13  1  0
  1 21  1  0
  1 22  1  0
  1 23  1  0
  3 24  1  0
  4 25  1  0
  9 26  1  0
 10 27  1  0
 10 28  1  0
 10 29  1  0
 14 30  1  0
 15 31  1  0
 16 32  1  0
 17 33  1  0
 18 34  1  0
 19 35  1  0
 20 36  1  0
M  END
$$$$
