
     RDKit          3D

 50 53  0  0  0  0  0  0  0  0999 V2000
   -5.1242    2.3497    0.4174 C   0  0  0  0  0  0  0  0  0  0  0  0
   -4.5861    1.2151   -0.4579 C   0  0  0  0  0  0  0  0  0  0  0  0
   -4.5390    1.6679   -1.9178 C   0  0  0  0  0  0  0  0  0  0  0  0
   -3.2097    0.7630    0.0621 C   0  0  0  0  0  0  0  0  0  0  0  0
   -2.6568   -0.4664   -0.6681 C   0  0  0  0  0  0  0  0  0  0  0  0
   -1.4165   -0.9507   -0.0513 N   0  0  0  0  0  0  0  0  0  0  0  0
   -0.2172   -0.4610   -0.5747 C   0  0  0  0  0  0  0  0  0  0  0  0
   -0.1883    0.3095   -1.5340 O   0  0  0  0  0  0  0  0  0  0  0  0
    1.0523   -0.9118    0.0587 C   0  0  0  0  0  0  0  0  0  0  0  0
    2.3513   -0.3213   -0.3818 C   0  0  0  0  0  0  0  0  0  0  0  0
    2.4983    0.9460   -0.5718 N   0  0  0  0  0  0  0  0  0  0  0  0
    3.7242    1.5344   -0.8950 C   0  0  0  0  0  0  0  0  0  0  0  0
    3.7557    2.9317   -0.9779 C   0  0  0  0  0  0  0  0  0  0  0  0
    4.9415    3.6179   -1.2623 C   0  0  0  0  0  0  0  0  0  0  0  0
    6.1237    2.9111   -1.4691 C   0  0  0  0  0  0  0  0  0  0  0  0
    6.1139    1.5211   -1.3967 C   0  0  0  0  0  0  0  0  0  0  0  0
    4.9138    0.8562   -1.1136 C   0  0  0  0  0  0  0  0  0  0  0  0
    4.8986   -0.8808   -1.0650 S   0  0  0  0  0  6  0  0  0  0  0  0
    5.0325   -1.3699   -2.4192 O   0  0  0  0  0  0  0  0  0  0  0  0
    5.8096   -1.3012   -0.0205 O   0  0  0  0  0  0  0  0  0  0  0  0
    3.3843   -1.2614   -0.5280 N   0  0  0  0  0  0  0  0  0  0  0  0
    1.0301   -1.7937    1.0727 C   0  0  0  0  0  0  0  0  0  0  0  0
    2.1938   -2.1594    1.7363 O   0  0  0  0  0  0  0  0  0  0  0  0
   -0.2373   -2.3617    1.5614 C   0  0  0  0  0  0  0  0  0  0  0  0
   -0.2649   -3.3696    2.5448 C   0  0  0  0  0  0  0  0  0  0  0  0
   -1.4732   -3.8586    3.0391 C   0  0  0  0  0  0  0  0  0  0  0  0
   -2.6692   -3.3521    2.5529 C   0  0  0  0  0  0  0  0  0  0  0  0
   -2.6580   -2.3794    1.5513 C   0  0  0  0  0  0  0  0  0  0  0  0
   -1.4497   -1.8894    1.0258 C   0  0  0  0  0  0  0  0  0  0  0  0
   -4.4677    3.2258    0.3807 H   0  0  0  0  0  0  0  0  0  0  0  0
   -5.2062    2.0305    1.4618 H   0  0  0  0  0  0  0  0  0  0  0  0
   -6.1211    2.6586    0.0854 H   0  0  0  0  0  0  0  0  0  0  0  0
   -5.2847    0.3723   -0.3816 H   0  0  0  0  0  0  0  0  0  0  0  0
   -3.8014    2.4644   -2.0629 H   0  0  0  0  0  0  0  0  0  0  0  0
   -5.5149    2.0489   -2.2378 H   0  0  0  0  0  0  0  0  0  0  0  0
   -4.2821    0.8389   -2.5842 H   0  0  0  0  0  0  0  0  0  0  0  0
   -3.2936    0.5391    1.1331 H   0  0  0  0  0  0  0  0  0  0  0  0
   -2.4899    1.5881   -0.0184 H   0  0  0  0  0  0  0  0  0  0  0  0
   -2.4510   -0.2037   -1.7119 H   0  0  0  0  0  0  0  0  0  0  0  0
   -3.3937   -1.2738   -0.7255 H   0  0  0  0  0  0  0  0  0  0  0  0
    2.8375    3.4933   -0.8170 H   0  0  0  0  0  0  0  0  0  0  0  0
    4.9364    4.7035   -1.3222 H   0  0  0  0  0  0  0  0  0  0  0  0
    7.0461    3.4415   -1.6923 H   0  0  0  0  0  0  0  0  0  0  0  0
    7.0292    0.9585   -1.5672 H   0  0  0  0  0  0  0  0  0  0  0  0
    3.3993   -1.9986    0.1796 H   0  0  0  0  0  0  0  0  0  0  0  0
    1.9922   -2.2280    2.6883 H   0  0  0  0  0  0  0  0  0  0  0  0
    0.6498   -3.8098    2.9335 H   0  0  0  0  0  0  0  0  0  0  0  0
   -1.4789   -4.6348    3.8007 H   0  0  0  0  0  0  0  0  0  0  0  0
   -3.6158   -3.7232    2.9391 H   0  0  0  0  0  0  0  0  0  0  0  0
   -3.6229   -2.0269    1.2012 H   0  0  0  0  0  0  0  0  0  0  0  0
  1  2  1  0
  2  3  1  0
  2  4  1  0
  4  5  1  0
  5  6  1  0
  6  7  1  0
  7  8  2  0
  7  9  1  0
  9 10  1  0
 10 11  2  0
 11 12  1  0
 12 13  2  0
 13 14  1  0
 14 15  2  0
 15 16  1  0
 16 17  2  0
 17 18  1  0
 18 19  2  0
 18 20  2  0
 18 21  1  0
  9 22  2  0
 22 23  1  0
 22 24  1  0
 24 25  2  0
 25 26  1  0
 26 27  2  0
 27 28  1  0
 28 29  2  0
 29  6  1  0
 21 10  1  0
 29 24  1  0
 17 12  1  0
  1 30  1  0
  1 31  1  0
  1 32  1  0
  2 33  1  0
  3 34  1  0
  3 35  1  0
  3 36  1  0
  4 37  1  0
  4 38  1  0
  5 39  1  0
  5 40  1  0
 13 41  1  0
 14 42  1  0
 15 43  1  0
 16 44  1  0
 21 45  1  0
 23 46  1  0
 25 47  1  0
 26 48  1  0
 27 49  1  0
 28 50  1  0
M  END
$$$$
