
     RDKit          3D

 25 26  0  0  0  0  0  0  0  0999 V2000
   -2.8307    1.6267    1.3405 N   0  0  0  0  0  0  0  0  0  0  0  0
   -3.2317    0.3504    1.1754 C   0  0  0  0  0  0  0  0  0  0  0  0
   -4.4442   -0.1060    1.4782 N   0  0  0  0  0  0  0  0  0  0  0  0
   -4.4273   -1.4492    1.1336 O   0  0  0  0  0  0  0  0  0  0  0  0
   -3.1896   -1.8278    0.6250 N   0  0  0  0  0  0  0  0  0  0  0  0
   -2.4435   -0.7102    0.6605 C   0  0  0  0  0  0  0  0  0  0  0  0
   -1.0460   -0.7113    0.2205 C   0  0  0  0  0  0  0  0  0  0  0  0
   -0.3804    0.3913    0.3872 N   0  0  0  0  0  0  0  0  0  0  0  0
    0.9348    0.4947   -0.0721 C   0  0  0  0  0  0  0  0  0  0  0  0
    1.9946    0.4300    0.8390 C   0  0  0  0  0  0  0  0  0  0  0  0
    3.3130    0.5630    0.4005 C   0  0  0  0  0  0  0  0  0  0  0  0
    3.5688    0.7762   -0.9501 C   0  0  0  0  0  0  0  0  0  0  0  0
    4.8421    0.8977   -1.3519 F   0  0  0  0  0  0  0  0  0  0  0  0
    2.5202    0.8618   -1.8633 C   0  0  0  0  0  0  0  0  0  0  0  0
    2.8638    1.1578   -3.6988 Br  0  0  0  0  0  0  0  0  0  0  0  0
    1.2019    0.7276   -1.4256 C   0  0  0  0  0  0  0  0  0  0  0  0
   -0.6803   -1.9374   -0.3309 N   0  0  0  0  0  0  0  0  0  0  0  0
    0.5616   -2.4087    0.1192 O   0  0  0  0  0  0  0  0  0  0  0  0
   -1.8335    1.8376    1.2942 H   0  0  0  0  0  0  0  0  0  0  0  0
   -3.3612    2.2278    1.9608 H   0  0  0  0  0  0  0  0  0  0  0  0
    1.7874    0.2706    1.8946 H   0  0  0  0  0  0  0  0  0  0  0  0
    4.1389    0.5069    1.1029 H   0  0  0  0  0  0  0  0  0  0  0  0
    0.3756    0.8084   -2.1268 H   0  0  0  0  0  0  0  0  0  0  0  0
   -1.4096   -2.6478   -0.2034 H   0  0  0  0  0  0  0  0  0  0  0  0
    1.1754   -2.1302   -0.5876 H   0  0  0  0  0  0  0  0  0  0  0  0
  1  2  1  0
  2  3  2  0
  3  4  1  0
  4  5  1  0
  5  6  2  0
  6  7  1  0
  7  8  2  0
  8  9  1  0
  9 10  2  0
 10 11  1  0
 11 12  2  0
 12 13  1  0
 12 14  1  0
 14 15  1  0
 14 16  2  0
  7 17  1  0
 17 18  1  0
  6  2  1  0
 16  9  1  0
  1 19  1  0
  1 20  1  0
 10 21  1  0
 11 22  1  0
 16 23  1  0
 17 24  1  0
 18 25  1  0
M  END
$$$$
