
     RDKit          3D

 33 34  0  0  0  0  0  0  0  0999 V2000
    4.9065   -0.9515   -0.7481 C   0  0  0  0  0  0  0  0  0  0  0  0
    4.7700    0.1479   -1.7928 C   0  0  0  0  0  0  0  0  0  0  0  0
    3.3376    0.3191   -2.2978 C   0  0  0  0  0  0  0  0  0  0  0  0
    2.4096    0.7462   -1.2758 N   0  0  0  0  0  0  0  0  0  0  0  0
    2.4708    1.9688   -0.7275 N   0  0  0  0  0  0  0  0  0  0  0  0
    1.4950    1.9786    0.1707 N   0  0  0  0  0  0  0  0  0  0  0  0
    0.8794    0.7601    0.0946 C   0  0  0  0  0  0  0  0  0  0  0  0
   -0.1934    0.3600    0.8380 N   0  0  0  0  0  0  0  0  0  0  0  0
   -0.8172    1.1351    1.7855 C   0  0  0  0  0  0  0  0  0  0  0  0
   -0.4713    2.2574    2.1421 O   0  0  0  0  0  0  0  0  0  0  0  0
   -1.9965    0.4409    2.4511 C   0  0  0  0  0  0  0  0  0  0  0  0
   -3.0125   -0.1105    1.4787 C   0  0  0  0  0  0  0  0  0  0  0  0
   -3.3149   -1.4787    1.4634 C   0  0  0  0  0  0  0  0  0  0  0  0
   -4.2471   -1.9859    0.5566 C   0  0  0  0  0  0  0  0  0  0  0  0
   -4.8889   -1.1310   -0.3380 C   0  0  0  0  0  0  0  0  0  0  0  0
   -4.6030    0.2331   -0.3240 C   0  0  0  0  0  0  0  0  0  0  0  0
   -3.6719    0.7427    0.5816 C   0  0  0  0  0  0  0  0  0  0  0  0
    1.4294   -0.0538   -0.8151 N   0  0  0  0  0  0  0  0  0  0  0  0
    5.9589   -1.0902   -0.4831 H   0  0  0  0  0  0  0  0  0  0  0  0
    4.5257   -1.9051   -1.1281 H   0  0  0  0  0  0  0  0  0  0  0  0
    4.3631   -0.7018    0.1692 H   0  0  0  0  0  0  0  0  0  0  0  0
    5.1405    1.0914   -1.3729 H   0  0  0  0  0  0  0  0  0  0  0  0
    5.4138   -0.0968   -2.6453 H   0  0  0  0  0  0  0  0  0  0  0  0
    3.3049    1.0763   -3.0902 H   0  0  0  0  0  0  0  0  0  0  0  0
    2.9650   -0.6201   -2.7233 H   0  0  0  0  0  0  0  0  0  0  0  0
   -0.5549   -0.5475    0.5847 H   0  0  0  0  0  0  0  0  0  0  0  0
   -2.4980    1.1547    3.1162 H   0  0  0  0  0  0  0  0  0  0  0  0
   -1.5926   -0.3573    3.0881 H   0  0  0  0  0  0  0  0  0  0  0  0
   -2.8343   -2.1615    2.1623 H   0  0  0  0  0  0  0  0  0  0  0  0
   -4.4786   -3.0486    0.5529 H   0  0  0  0  0  0  0  0  0  0  0  0
   -5.6194   -1.5258   -1.0409 H   0  0  0  0  0  0  0  0  0  0  0  0
   -5.1104    0.9032   -1.0148 H   0  0  0  0  0  0  0  0  0  0  0  0
   -3.4655    1.8130    0.5821 H   0  0  0  0  0  0  0  0  0  0  0  0
  1  2  1  0
  2  3  1  0
  3  4  1  0
  4  5  1  0
  5  6  2  0
  6  7  1  0
  7  8  1  0
  8  9  1  0
  9 10  2  0
  9 11  1  0
 11 12  1  0
 12 13  2  0
 13 14  1  0
 14 15  2  0
 15 16  1  0
 16 17  2  0
  7 18  2  0
 18  4  1  0
 17 12  1  0
  1 19  1  0
  1 20  1  0
  1 21  1  0
  2 22  1  0
  2 23  1  0
  3 24  1  0
  3 25  1  0
  8 26  1  0
 11 27  1  0
 11 28  1  0
 13 29  1  0
 14 30  1  0
 15 31  1  0
 16 32  1  0
 17 33  1  0
M  END
$$$$
