
     RDKit          3D

 23 24  0  0  0  0  0  0  0  0999 V2000
    3.6599    0.3244   -1.0109 C   0  0  0  0  0  0  0  0  0  0  0  0
    2.4079    0.1864   -0.2171 C   0  0  0  0  0  0  0  0  0  0  0  0
    1.2233    0.1326   -0.7388 N   0  0  0  0  0  0  0  0  0  0  0  0
    0.3380    0.0052    0.3185 N   0  0  0  0  0  0  0  0  0  0  0  0
   -1.0487   -0.0775    0.0338 C   0  0  0  0  0  0  0  0  0  0  0  0
   -1.5000   -0.0300   -1.2961 C   0  0  0  0  0  0  0  0  0  0  0  0
   -2.8621   -0.1095   -1.6030 C   0  0  0  0  0  0  0  0  0  0  0  0
   -3.7985   -0.2384   -0.5826 C   0  0  0  0  0  0  0  0  0  0  0  0
   -3.3720   -0.2874    0.7413 C   0  0  0  0  0  0  0  0  0  0  0  0
   -2.0080   -0.2076    1.0466 C   0  0  0  0  0  0  0  0  0  0  0  0
    0.9632   -0.0256    1.5760 C   0  0  0  0  0  0  0  0  0  0  0  0
    0.5033   -0.1265    2.7020 O   0  0  0  0  0  0  0  0  0  0  0  0
    2.4265    0.0981    1.2722 C   0  0  0  0  0  0  0  0  0  0  0  0
    4.1794    1.2384   -0.7120 H   0  0  0  0  0  0  0  0  0  0  0  0
    4.3071   -0.5352   -0.8188 H   0  0  0  0  0  0  0  0  0  0  0  0
    3.4318    0.3723   -2.0788 H   0  0  0  0  0  0  0  0  0  0  0  0
   -0.7913    0.0704   -2.1148 H   0  0  0  0  0  0  0  0  0  0  0  0
   -3.1861   -0.0704   -2.6396 H   0  0  0  0  0  0  0  0  0  0  0  0
   -4.8577   -0.3005   -0.8175 H   0  0  0  0  0  0  0  0  0  0  0  0
   -4.0985   -0.3880    1.5438 H   0  0  0  0  0  0  0  0  0  0  0  0
   -1.7254   -0.2503    2.0942 H   0  0  0  0  0  0  0  0  0  0  0  0
    2.8390    1.0112    1.7051 H   0  0  0  0  0  0  0  0  0  0  0  0
    2.9688   -0.7918    1.5966 H   0  0  0  0  0  0  0  0  0  0  0  0
  1  2  1  0
  2  3  2  0
  3  4  1  0
  4  5  1  0
  5  6  2  0
  6  7  1  0
  7  8  2  0
  8  9  1  0
  9 10  2  0
  4 11  1  0
 11 12  2  0
 11 13  1  0
 13  2  1  0
 10  5  1  0
  1 14  1  0
  1 15  1  0
  1 16  1  0
  6 17  1  0
  7 18  1  0
  8 19  1  0
  9 20  1  0
 10 21  1  0
 13 22  1  0
 13 23  1  0
M  END
$$$$
