
     RDKit          3D

 44 47  0  0  0  0  0  0  0  0999 V2000
   -3.5051    1.0454    2.3361 O   0  0  0  0  0  0  0  0  0  0  0  0
   -3.6193    0.6045    1.1982 C   0  0  0  0  0  0  0  0  0  0  0  0
   -2.9988    1.1715    0.1010 N   0  0  0  0  0  0  0  0  0  0  0  0
   -2.0381    2.2575    0.2990 C   0  0  0  0  0  0  0  0  0  0  0  0
   -1.7578    2.9929   -1.0077 C   0  0  0  0  0  0  0  0  0  0  0  0
   -0.6953    2.1379   -1.7012 C   0  0  0  0  0  0  0  0  0  0  0  0
   -0.0373    1.4102   -0.6196 N   0  0  0  0  0  0  0  0  0  0  0  0
    1.1901    0.8406   -0.7169 C   0  0  0  0  0  0  0  0  0  0  0  0
    2.0483    0.3279    0.2289 C   0  0  0  0  0  0  0  0  0  0  0  0
    3.1913   -0.1464   -0.4772 C   0  0  0  0  0  0  0  0  0  0  0  0
    4.4017   -0.7800    0.0646 C   0  0  0  0  0  0  0  0  0  0  0  0
    5.4577   -1.1416   -0.7916 C   0  0  0  0  0  0  0  0  0  0  0  0
    6.6153   -1.7436   -0.2907 C   0  0  0  0  0  0  0  0  0  0  0  0
    6.7229   -1.9882    1.0711 C   0  0  0  0  0  0  0  0  0  0  0  0
    7.8308   -2.5650    1.5543 F   0  0  0  0  0  0  0  0  0  0  0  0
    5.6959   -1.6430    1.9400 C   0  0  0  0  0  0  0  0  0  0  0  0
    4.5373   -1.0402    1.4388 C   0  0  0  0  0  0  0  0  0  0  0  0
    3.0380    0.0613   -1.7965 N   0  0  0  0  0  0  0  0  0  0  0  0
    1.8327    0.6394   -1.9077 N   0  0  0  0  0  0  0  0  0  0  0  0
   -0.6423    1.7310    0.6798 C   0  0  0  0  0  0  0  0  0  0  0  0
   -4.4172   -0.6248    0.9474 C   0  0  0  0  0  0  0  0  0  0  0  0
   -4.6255   -1.5068    2.0079 C   0  0  0  0  0  0  0  0  0  0  0  0
   -5.3712   -2.6454    1.7691 C   0  0  0  0  0  0  0  0  0  0  0  0
   -5.9132   -2.9460    0.5693 N   0  0  0  0  0  0  0  0  0  0  0  0
   -5.7124   -2.0658   -0.4340 C   0  0  0  0  0  0  0  0  0  0  0  0
   -4.9800   -0.8997   -0.2994 C   0  0  0  0  0  0  0  0  0  0  0  0
   -2.8110    0.5528   -0.6780 H   0  0  0  0  0  0  0  0  0  0  0  0
   -2.4310    2.9326    1.0667 H   0  0  0  0  0  0  0  0  0  0  0  0
   -1.3363    3.9817   -0.7875 H   0  0  0  0  0  0  0  0  0  0  0  0
   -2.6445    3.1351   -1.6333 H   0  0  0  0  0  0  0  0  0  0  0  0
   -0.0028    2.7747   -2.2627 H   0  0  0  0  0  0  0  0  0  0  0  0
   -1.1617    1.4276   -2.3930 H   0  0  0  0  0  0  0  0  0  0  0  0
    1.8736    0.3014    1.2933 H   0  0  0  0  0  0  0  0  0  0  0  0
    5.3825   -0.9537   -1.8614 H   0  0  0  0  0  0  0  0  0  0  0  0
    7.4266   -2.0201   -0.9558 H   0  0  0  0  0  0  0  0  0  0  0  0
    5.8009   -1.8445    3.0013 H   0  0  0  0  0  0  0  0  0  0  0  0
    3.7487   -0.7823    2.1399 H   0  0  0  0  0  0  0  0  0  0  0  0
    1.4998    0.8728   -2.8333 H   0  0  0  0  0  0  0  0  0  0  0  0
   -0.6939    0.8544    1.3345 H   0  0  0  0  0  0  0  0  0  0  0  0
   -0.0605    2.5192    1.1726 H   0  0  0  0  0  0  0  0  0  0  0  0
   -4.2162   -1.3121    2.9939 H   0  0  0  0  0  0  0  0  0  0  0  0
   -5.5605   -3.3677    2.5584 H   0  0  0  0  0  0  0  0  0  0  0  0
   -6.1783   -2.3306   -1.3794 H   0  0  0  0  0  0  0  0  0  0  0  0
   -4.8837   -0.2248   -1.1408 H   0  0  0  0  0  0  0  0  0  0  0  0
  1  2  2  0
  2  3  1  0
  3  4  1  0
  4  5  1  0
  5  6  1  0
  6  7  1  0
  7  8  1  0
  8  9  2  0
  9 10  1  0
 10 11  1  0
 11 12  2  0
 12 13  1  0
 13 14  2  0
 14 15  1  0
 14 16  1  0
 16 17  2  0
 10 18  2  0
 18 19  1  0
  7 20  1  0
  2 21  1  0
 21 22  2  0
 22 23  1  0
 23 24  2  0
 24 25  1  0
 25 26  2  0
 20  4  1  0
 26 21  1  0
 19  8  1  0
 17 11  1  0
  3 27  1  0
  4 28  1  0
  5 29  1  0
  5 30  1  0
  6 31  1  0
  6 32  1  0
  9 33  1  0
 12 34  1  0
 13 35  1  0
 16 36  1  0
 17 37  1  0
 19 38  1  0
 20 39  1  0
 20 40  1  0
 22 41  1  0
 23 42  1  0
 25 43  1  0
 26 44  1  0
M  END
$$$$
