
     RDKit          3D

150151  0  0  0  0  0  0  0  0999 V2000
   10.5468    2.2560   -1.0028 C   0  0  0  0  0  0  0  0  0  0  0  0
    9.0801    2.1410   -0.6159 C   0  0  0  0  0  0  0  0  0  0  0  0
    8.8134    1.5196    0.7743 C   0  0  2  0  0  0  0  0  0  0  0  0
    9.3216    2.4545    1.8816 C   0  0  0  0  0  0  0  0  0  0  0  0
    9.3831    0.0892    0.9415 C   0  0  2  0  0  0  0  0  0  0  0  0
    9.0180   -0.7819   -0.1707 N   0  0  0  0  0  0  0  0  0  0  0  0
    9.5686   -2.0377   -0.3080 C   0  0  0  0  0  0  0  0  0  0  0  0
   10.6385   -2.3297    0.2235 O   0  0  0  0  0  0  0  0  0  0  0  0
    8.8110   -3.0488   -1.1970 C   0  0  2  0  0  0  0  0  0  0  0  0
    9.0948   -3.0044   -2.6905 C   0  0  0  0  0  0  0  0  0  0  0  0
    8.0299   -3.9524   -3.2512 C   0  0  0  0  0  0  0  0  0  0  0  0
    6.9979   -4.1404   -2.1260 C   0  0  0  0  0  0  0  0  0  0  0  0
    7.3432   -3.1649   -1.1017 N   0  0  0  0  0  0  0  0  0  0  0  0
    6.5718   -2.0071   -1.2225 C   0  0  0  0  0  0  0  0  0  0  0  0
    6.9590   -1.0375   -1.8859 O   0  0  0  0  0  0  0  0  0  0  0  0
    5.2904   -1.9178   -0.3609 C   0  0  2  0  0  0  0  0  0  0  0  0
    4.8007   -3.2374    0.2427 C   0  0  0  0  0  0  0  0  0  0  0  0
    3.6830   -3.0320    1.2087 C   0  0  0  0  0  0  0  0  0  0  0  0
    3.7312   -2.4826    2.4734 C   0  0  0  0  0  0  0  0  0  0  0  0
    2.4384   -2.4851    2.9125 N   0  0  0  0  0  0  0  0  0  0  0  0
    1.6699   -3.0468    1.9321 C   0  0  0  0  0  0  0  0  0  0  0  0
    2.3915   -3.3690    0.8802 N   0  0  0  0  0  0  0  0  0  0  0  0
    4.2697   -1.2892   -1.2090 N   0  0  0  0  0  0  0  0  0  0  0  0
    3.4509   -0.2808   -0.7529 C   0  0  0  0  0  0  0  0  0  0  0  0
    3.6039    0.2973    0.3239 O   0  0  0  0  0  0  0  0  0  0  0  0
    2.3218    0.0996   -1.7313 C   0  0  1  0  0  0  0  0  0  0  0  0
    1.2157    0.6255   -0.9392 N   0  0  0  0  0  0  0  0  0  0  0  0
   -0.0695    0.1719   -1.1073 C   0  0  0  0  0  0  0  0  0  0  0  0
   -0.4023   -0.5595   -2.0413 O   0  0  0  0  0  0  0  0  0  0  0  0
   -1.0664    0.6039   -0.0217 C   0  0  2  0  0  0  0  0  0  0  0  0
   -0.8440   -0.2372    1.2471 C   0  0  0  0  0  0  0  0  0  0  0  0
   -1.7606    0.1623    2.3829 C   0  0  0  0  0  0  0  0  0  0  0  0
   -2.8921   -0.6078    2.6821 C   0  0  0  0  0  0  0  0  0  0  0  0
   -3.7618   -0.2163    3.7023 C   0  0  0  0  0  0  0  0  0  0  0  0
   -3.5137    0.9483    4.4147 C   0  0  0  0  0  0  0  0  0  0  0  0
   -4.4101    1.3159    5.3762 O   0  0  0  0  0  0  0  0  0  0  0  0
   -2.3897    1.7195    4.1406 C   0  0  0  0  0  0  0  0  0  0  0  0
   -1.5129    1.3244    3.1262 C   0  0  0  0  0  0  0  0  0  0  0  0
   -2.3978    0.3917   -0.5890 N   0  0  0  0  0  0  0  0  0  0  0  0
   -3.2314    1.4469   -0.8748 C   0  0  0  0  0  0  0  0  0  0  0  0
   -3.0430    2.5837   -0.4445 O   0  0  0  0  0  0  0  0  0  0  0  0
   -4.4905    1.0673   -1.6732 C   0  0  1  0  0  0  0  0  0  0  0  0
   -5.5728    1.1572   -0.6927 N   0  0  0  0  0  0  0  0  0  0  0  0
   -6.6121    0.2544   -0.6448 C   0  0  0  0  0  0  0  0  0  0  0  0
   -6.7436   -0.6376   -1.4800 O   0  0  0  0  0  0  0  0  0  0  0  0
   -7.6176    0.4989    0.5061 C   0  0  2  0  0  0  0  0  0  0  0  0
   -6.9561    0.3873    1.8897 C   0  0  0  0  0  0  0  0  0  0  0  0
   -7.8785    0.5015    3.1143 C   0  0  0  0  0  0  0  0  0  0  0  0
   -8.7974    1.7234    3.1131 C   0  0  0  0  0  0  0  0  0  0  0  0
   -9.9789    1.4815    2.3049 N   0  0  0  0  0  0  0  0  0  0  0  0
  -10.5980    2.4044    1.5378 C   0  0  0  0  0  0  0  0  0  0  0  0
  -10.4331    3.6700    1.4953 N   0  0  0  0  0  0  0  0  0  0  0  0
  -11.4759    1.8255    0.6929 N   0  0  0  0  0  0  0  0  0  0  0  0
   -8.8152   -0.3204    0.3055 N   0  0  0  0  0  0  0  0  0  0  0  0
   -8.8604   -1.6792    0.5521 C   0  0  0  0  0  0  0  0  0  0  0  0
   -7.9978   -2.2912    1.1764 O   0  0  0  0  0  0  0  0  0  0  0  0
  -10.1359   -2.3500    0.0230 C   0  0  0  0  0  0  0  0  0  0  0  0
  -10.6987   -3.2951    1.0041 N   0  0  0  0  0  0  0  0  0  0  0  0
  -11.2334   -2.6176    2.1785 C   0  0  0  0  0  0  0  0  0  0  0  0
   -4.6956    2.0353   -2.8621 C   0  0  0  0  0  0  0  0  0  0  0  0
   -3.5039    1.9721   -3.8282 C   0  0  0  0  0  0  0  0  0  0  0  0
   -5.9798    1.7291   -3.6358 C   0  0  0  0  0  0  0  0  0  0  0  0
    2.8160    1.0747   -2.8304 C   0  0  1  0  0  0  0  0  0  0  0  0
    1.8356    1.0692   -4.0121 C   0  0  0  0  0  0  0  0  0  0  0  0
    3.0474    2.5027   -2.2980 C   0  0  0  0  0  0  0  0  0  0  0  0
    3.7752    3.4043   -3.2874 C   0  0  0  0  0  0  0  0  0  0  0  0
    8.7834   -0.5650    2.1994 C   0  0  0  0  0  0  0  0  0  0  0  0
    7.7334   -1.1930    2.2704 O   0  0  0  0  0  0  0  0  0  0  0  0
    9.5362   -0.3798    3.3054 O   0  0  0  0  0  0  0  0  0  0  0  0
    1.0749    1.3855    0.2085 O   0  0  0  0  0  0  0  0  0  0  0  0
    0.5599    0.2888    0.0337 C   0  0  0  0  0  0  0  0  0  0  0  0
    1.3665   -0.7995   -0.0753 O   0  0  0  0  0  0  0  0  0  0  0  0
   -0.9370   -0.0296   -0.0261 C   0  0  0  0  0  0  0  0  0  0  0  0
   -1.6762    1.0180   -0.4865 F   0  0  0  0  0  0  0  0  0  0  0  0
   -1.2239   -1.0851   -0.8424 F   0  0  0  0  0  0  0  0  0  0  0  0
   -1.4422   -0.3405    1.1988 F   0  0  0  0  0  0  0  0  0  0  0  0
   10.6317    2.6624   -2.0155 H   0  0  0  0  0  0  0  0  0  0  0  0
   11.0451    1.2820   -0.9914 H   0  0  0  0  0  0  0  0  0  0  0  0
   11.0848    2.9309   -0.3319 H   0  0  0  0  0  0  0  0  0  0  0  0
    8.5587    1.5609   -1.3861 H   0  0  0  0  0  0  0  0  0  0  0  0
    8.6334    3.1447   -0.6477 H   0  0  0  0  0  0  0  0  0  0  0  0
    7.7196    1.4705    0.8795 H   0  0  0  0  0  0  0  0  0  0  0  0
   10.4171    2.4766    1.9156 H   0  0  0  0  0  0  0  0  0  0  0  0
    8.9617    3.4778    1.7245 H   0  0  0  0  0  0  0  0  0  0  0  0
    8.9586    2.1362    2.8624 H   0  0  0  0  0  0  0  0  0  0  0  0
   10.4752    0.0905    1.0345 H   0  0  0  0  0  0  0  0  0  0  0  0
    8.2054   -0.5450   -0.7321 H   0  0  0  0  0  0  0  0  0  0  0  0
    9.1689   -4.0233   -0.8242 H   0  0  0  0  0  0  0  0  0  0  0  0
    8.9665   -1.9952   -3.0968 H   0  0  0  0  0  0  0  0  0  0  0  0
   10.1107   -3.3323   -2.9305 H   0  0  0  0  0  0  0  0  0  0  0  0
    8.4664   -4.9172   -3.5322 H   0  0  0  0  0  0  0  0  0  0  0  0
    7.5653   -3.5271   -4.1470 H   0  0  0  0  0  0  0  0  0  0  0  0
    7.1006   -5.1384   -1.6813 H   0  0  0  0  0  0  0  0  0  0  0  0
    5.9724   -4.0229   -2.4953 H   0  0  0  0  0  0  0  0  0  0  0  0
    5.5432   -1.2253    0.4525 H   0  0  0  0  0  0  0  0  0  0  0  0
    4.4669   -3.9145   -0.5514 H   0  0  0  0  0  0  0  0  0  0  0  0
    5.6163   -3.7446    0.7695 H   0  0  0  0  0  0  0  0  0  0  0  0
    4.5434   -2.0829    3.0633 H   0  0  0  0  0  0  0  0  0  0  0  0
    2.1082   -2.1378    3.8028 H   0  0  0  0  0  0  0  0  0  0  0  0
    0.6031   -3.1792    2.0358 H   0  0  0  0  0  0  0  0  0  0  0  0
    4.0220   -1.7607   -2.0708 H   0  0  0  0  0  0  0  0  0  0  0  0
    1.9958   -0.8357   -2.1999 H   0  0  0  0  0  0  0  0  0  0  0  0
    1.4794    1.1030   -0.0820 H   0  0  0  0  0  0  0  0  0  0  0  0
   -0.9094    1.6657    0.1867 H   0  0  0  0  0  0  0  0  0  0  0  0
   -0.9851   -1.3011    1.0193 H   0  0  0  0  0  0  0  0  0  0  0  0
    0.1951   -0.1453    1.5902 H   0  0  0  0  0  0  0  0  0  0  0  0
   -3.1214   -1.5079    2.1145 H   0  0  0  0  0  0  0  0  0  0  0  0
   -4.6437   -0.8125    3.9247 H   0  0  0  0  0  0  0  0  0  0  0  0
   -4.1451    2.1825    5.7247 H   0  0  0  0  0  0  0  0  0  0  0  0
   -2.1842    2.6285    4.6948 H   0  0  0  0  0  0  0  0  0  0  0  0
   -0.6441    1.9429    2.9104 H   0  0  0  0  0  0  0  0  0  0  0  0
   -2.4970   -0.4538   -1.1469 H   0  0  0  0  0  0  0  0  0  0  0  0
   -4.4110    0.0381   -2.0382 H   0  0  0  0  0  0  0  0  0  0  0  0
   -5.5141    1.9157   -0.0218 H   0  0  0  0  0  0  0  0  0  0  0  0
   -7.9621    1.5317    0.3696 H   0  0  0  0  0  0  0  0  0  0  0  0
   -6.1971    1.1781    1.9781 H   0  0  0  0  0  0  0  0  0  0  0  0
   -6.3910   -0.5498    1.9621 H   0  0  0  0  0  0  0  0  0  0  0  0
   -8.4641   -0.4163    3.2319 H   0  0  0  0  0  0  0  0  0  0  0  0
   -7.2324    0.5601    4.0009 H   0  0  0  0  0  0  0  0  0  0  0  0
   -8.2332    2.6024    2.7763 H   0  0  0  0  0  0  0  0  0  0  0  0
   -9.1265    1.9281    4.1377 H   0  0  0  0  0  0  0  0  0  0  0  0
   -9.9669    0.5693    1.8510 H   0  0  0  0  0  0  0  0  0  0  0  0
   -9.7475    3.9475    2.1965 H   0  0  0  0  0  0  0  0  0  0  0  0
  -12.0294    2.5482    0.2411 H   0  0  0  0  0  0  0  0  0  0  0  0
  -12.0906    1.1719    1.1680 H   0  0  0  0  0  0  0  0  0  0  0  0
   -9.4284    0.0203   -0.4300 H   0  0  0  0  0  0  0  0  0  0  0  0
  -10.8887   -1.6075   -0.2649 H   0  0  0  0  0  0  0  0  0  0  0  0
   -9.8562   -2.8999   -0.8822 H   0  0  0  0  0  0  0  0  0  0  0  0
   -9.9387   -3.9152    1.2994 H   0  0  0  0  0  0  0  0  0  0  0  0
  -11.7355   -3.3496    2.8197 H   0  0  0  0  0  0  0  0  0  0  0  0
  -11.9759   -1.8625    1.9028 H   0  0  0  0  0  0  0  0  0  0  0  0
  -10.4485   -2.1388    2.7709 H   0  0  0  0  0  0  0  0  0  0  0  0
   -4.7691    3.0661   -2.4846 H   0  0  0  0  0  0  0  0  0  0  0  0
   -2.5793    2.3020   -3.3467 H   0  0  0  0  0  0  0  0  0  0  0  0
   -3.3511    0.9485   -4.1939 H   0  0  0  0  0  0  0  0  0  0  0  0
   -3.6742    2.6177   -4.6963 H   0  0  0  0  0  0  0  0  0  0  0  0
   -6.0900    2.4094   -4.4877 H   0  0  0  0  0  0  0  0  0  0  0  0
   -5.9744    0.7079   -4.0240 H   0  0  0  0  0  0  0  0  0  0  0  0
   -6.8656    1.8554   -3.0085 H   0  0  0  0  0  0  0  0  0  0  0  0
    3.7761    0.6929   -3.2065 H   0  0  0  0  0  0  0  0  0  0  0  0
    2.2539    1.5987   -4.8726 H   0  0  0  0  0  0  0  0  0  0  0  0
    1.6219    0.0453   -4.3375 H   0  0  0  0  0  0  0  0  0  0  0  0
    0.8887    1.5462   -3.7454 H   0  0  0  0  0  0  0  0  0  0  0  0
    3.6493    2.4647   -1.3815 H   0  0  0  0  0  0  0  0  0  0  0  0
    2.0905    2.9704   -2.0352 H   0  0  0  0  0  0  0  0  0  0  0  0
    3.2174    3.5290   -4.2183 H   0  0  0  0  0  0  0  0  0  0  0  0
    3.9210    4.3991   -2.8513 H   0  0  0  0  0  0  0  0  0  0  0  0
    4.7621    2.9966   -3.5275 H   0  0  0  0  0  0  0  0  0  0  0  0
    9.0734   -0.8893    4.0034 H   0  0  0  0  0  0  0  0  0  0  0  0
    2.2781   -0.4376   -0.0107 H   0  0  0  0  0  0  0  0  0  0  0  0
  1  2  1  0
  2  3  1  0
  3  4  1  0
  3  5  1  0
  5  6  1  0
  6  7  1  0
  7  8  2  0
  7  9  1  0
  9 10  1  0
 10 11  1  0
 11 12  1  0
 12 13  1  0
 13 14  1  0
 14 15  2  0
 14 16  1  0
 16 17  1  0
 17 18  1  0
 18 19  2  0
 19 20  1  0
 20 21  1  0
 21 22  2  0
 16 23  1  0
 23 24  1  0
 24 25  2  0
 24 26  1  0
 26 27  1  0
 27 28  1  0
 28 29  2  0
 28 30  1  0
 30 31  1  0
 31 32  1  0
 32 33  2  0
 33 34  1  0
 34 35  2  0
 35 36  1  0
 35 37  1  0
 37 38  2  0
 30 39  1  0
 39 40  1  0
 40 41  2  0
 40 42  1  0
 42 43  1  0
 43 44  1  0
 44 45  2  0
 44 46  1  0
 46 47  1  0
 47 48  1  0
 48 49  1  0
 49 50  1  0
 50 51  1  0
 51 52  2  3
 51 53  1  0
 46 54  1  0
 54 55  1  0
 55 56  2  0
 55 57  1  0
 57 58  1  0
 58 59  1  0
 42 60  1  0
 60 61  1  0
 60 62  1  0
 26 63  1  0
 63 64  1  0
 63 65  1  0
 65 66  1  0
  5 67  1  0
 67 68  2  0
 67 69  1  0
 70 71  2  0
 71 72  1  0
 71 73  1  0
 73 74  1  0
 73 75  1  0
 73 76  1  0
 13  9  1  0
 22 18  1  0
 38 32  1  0
  1 77  1  0
  1 78  1  0
  1 79  1  0
  2 80  1  0
  2 81  1  0
  3 82  1  1
  4 83  1  0
  4 84  1  0
  4 85  1  0
  5 86  1  1
  6 87  1  0
  9 88  1  1
 10 89  1  0
 10 90  1  0
 11 91  1  0
 11 92  1  0
 12 93  1  0
 12 94  1  0
 16 95  1  1
 17 96  1  0
 17 97  1  0
 19 98  1  0
 20 99  1  0
 21100  1  0
 23101  1  0
 26102  1  6
 27103  1  0
 30104  1  1
 31105  1  0
 31106  1  0
 33107  1  0
 34108  1  0
 36109  1  0
 37110  1  0
 38111  1  0
 39112  1  0
 42113  1  6
 43114  1  0
 46115  1  6
 47116  1  0
 47117  1  0
 48118  1  0
 48119  1  0
 49120  1  0
 49121  1  0
 50122  1  0
 52123  1  0
 53124  1  0
 53125  1  0
 54126  1  0
 57127  1  0
 57128  1  0
 58129  1  0
 59130  1  0
 59131  1  0
 59132  1  0
 60133  1  0
 61134  1  0
 61135  1  0
 61136  1  0
 62137  1  0
 62138  1  0
 62139  1  0
 63140  1  6
 64141  1  0
 64142  1  0
 64143  1  0
 65144  1  0
 65145  1  0
 66146  1  0
 66147  1  0
 66148  1  0
 69149  1  0
 72150  1  0
M  END
$$$$
