
     RDKit          3D

 62 67  0  0  0  0  0  0  0  0999 V2000
    7.9308    2.3916   -1.9013 C   0  0  0  0  0  0  0  0  0  0  0  0
    7.3247    1.6032   -0.7388 C   0  0  0  0  0  0  0  0  0  0  0  0
    5.8331    1.3534   -0.9503 C   0  0  0  0  0  0  0  0  0  0  0  0
    5.3027    0.6168    0.1536 O   0  0  0  0  0  0  0  0  0  0  0  0
    3.9732    0.2950    0.1108 C   0  0  0  0  0  0  0  0  0  0  0  0
    3.5180   -0.4271    1.2148 C   0  0  0  0  0  0  0  0  0  0  0  0
    2.1842   -0.8414    1.3316 C   0  0  0  0  0  0  0  0  0  0  0  0
    1.3077   -0.5253    0.2813 C   0  0  0  0  0  0  0  0  0  0  0  0
    1.7384    0.2380   -0.8072 C   0  0  0  0  0  0  0  0  0  0  0  0
    3.0824    0.6407   -0.9065 C   0  0  0  0  0  0  0  0  0  0  0  0
    0.7102    0.5177   -1.6639 N   0  0  0  0  0  0  0  0  0  0  0  0
   -0.3406   -0.0506   -1.1208 C   0  0  0  0  0  0  0  0  0  0  0  0
   -0.0429   -0.7503    0.0293 N   0  0  0  0  0  0  0  0  0  0  0  0
   -0.9986   -1.5368    0.7358 C   0  0  0  0  0  0  0  0  0  0  0  0
   -0.5892   -2.5709    1.5577 C   0  0  0  0  0  0  0  0  0  0  0  0
   -1.5621   -3.3268    2.1988 C   0  0  0  0  0  0  0  0  0  0  0  0
   -2.9176   -3.0424    2.0105 C   0  0  0  0  0  0  0  0  0  0  0  0
   -3.8831   -3.8098    2.6801 C   0  0  0  0  0  0  0  0  0  0  0  0
   -5.2329   -3.5380    2.5203 C   0  0  0  0  0  0  0  0  0  0  0  0
   -5.6181   -2.4955    1.6895 C   0  0  0  0  0  0  0  0  0  0  0  0
   -4.6698   -1.7130    0.9941 C   0  0  0  0  0  0  0  0  0  0  0  0
   -5.2159   -0.6640    0.2111 N   0  0  0  0  0  0  0  0  0  0  0  0
   -4.6663   -0.4509   -1.1385 C   0  0  0  0  0  0  0  0  0  0  0  0
   -4.0809    0.9487   -1.2998 C   0  0  0  0  0  0  0  0  0  0  0  0
   -5.0901    2.0515   -0.9544 C   0  0  0  0  0  0  0  0  0  0  0  0
   -5.8022    2.5219   -2.1485 N   0  0  0  0  0  0  0  0  0  0  0  0
   -6.0887    1.6136    0.1252 C   0  0  0  0  0  0  0  0  0  0  0  0
   -5.4772    0.5388    1.0188 C   0  0  0  0  0  0  0  0  0  0  0  0
   -3.2824   -1.9820    1.1466 C   0  0  0  0  0  0  0  0  0  0  0  0
   -2.3140   -1.2586    0.5204 N   0  0  0  0  0  0  0  0  0  0  0  0
    8.1786    0.3858   -0.3301 C   0  0  0  0  0  0  0  0  0  0  0  0
    8.7948    1.1482    0.7429 O   0  0  0  0  0  0  0  0  0  0  0  0
    7.7461    2.1494    0.6406 C   0  0  0  0  0  0  0  0  0  0  0  0
    7.4405    3.3653   -2.0087 H   0  0  0  0  0  0  0  0  0  0  0  0
    9.0015    2.5735   -1.7549 H   0  0  0  0  0  0  0  0  0  0  0  0
    7.8127    1.8470   -2.8443 H   0  0  0  0  0  0  0  0  0  0  0  0
    5.3130    2.3161   -1.0307 H   0  0  0  0  0  0  0  0  0  0  0  0
    5.6900    0.7811   -1.8755 H   0  0  0  0  0  0  0  0  0  0  0  0
    4.2171   -0.6668    2.0149 H   0  0  0  0  0  0  0  0  0  0  0  0
    1.8666   -1.3601    2.2284 H   0  0  0  0  0  0  0  0  0  0  0  0
    3.3702    1.2225   -1.7721 H   0  0  0  0  0  0  0  0  0  0  0  0
   -1.3383   -0.0356   -1.5363 H   0  0  0  0  0  0  0  0  0  0  0  0
    0.4469   -2.8581    1.6757 H   0  0  0  0  0  0  0  0  0  0  0  0
   -1.2520   -4.1492    2.8403 H   0  0  0  0  0  0  0  0  0  0  0  0
   -3.5873   -4.6257    3.3363 H   0  0  0  0  0  0  0  0  0  0  0  0
   -5.9817   -4.1307    3.0381 H   0  0  0  0  0  0  0  0  0  0  0  0
   -6.6774   -2.2822    1.5602 H   0  0  0  0  0  0  0  0  0  0  0  0
   -5.4948   -0.5705   -1.8483 H   0  0  0  0  0  0  0  0  0  0  0  0
   -3.9311   -1.2109   -1.4254 H   0  0  0  0  0  0  0  0  0  0  0  0
   -3.2215    1.0584   -0.6272 H   0  0  0  0  0  0  0  0  0  0  0  0
   -3.6870    1.0786   -2.3152 H   0  0  0  0  0  0  0  0  0  0  0  0
   -4.5184    2.9077   -0.5750 H   0  0  0  0  0  0  0  0  0  0  0  0
   -6.3691    1.7660   -2.5323 H   0  0  0  0  0  0  0  0  0  0  0  0
   -6.4583    3.2574   -1.8871 H   0  0  0  0  0  0  0  0  0  0  0  0
   -6.3907    2.4811    0.7240 H   0  0  0  0  0  0  0  0  0  0  0  0
   -7.0054    1.2134   -0.3294 H   0  0  0  0  0  0  0  0  0  0  0  0
   -6.1885    0.3084    1.8215 H   0  0  0  0  0  0  0  0  0  0  0  0
   -4.5563    0.9101    1.4875 H   0  0  0  0  0  0  0  0  0  0  0  0
    8.9179    0.0489   -1.0629 H   0  0  0  0  0  0  0  0  0  0  0  0
    7.6475   -0.4848    0.0679 H   0  0  0  0  0  0  0  0  0  0  0  0
    7.0275    2.0437    1.4596 H   0  0  0  0  0  0  0  0  0  0  0  0
    8.1539    3.1646    0.6519 H   0  0  0  0  0  0  0  0  0  0  0  0
  1  2  1  0
  2  3  1  0
  3  4  1  0
  4  5  1  0
  5  6  2  0
  6  7  1  0
  7  8  2  0
  8  9  1  0
  9 10  2  0
  9 11  1  0
 11 12  2  0
 12 13  1  0
 13 14  1  0
 14 15  2  0
 15 16  1  0
 16 17  2  0
 17 18  1  0
 18 19  2  0
 19 20  1  0
 20 21  2  0
 21 22  1  0
 22 23  1  0
 23 24  1  0
 24 25  1  0
 25 26  1  0
 25 27  1  0
 27 28  1  0
 21 29  1  0
 29 30  2  0
  2 31  1  0
 31 32  1  0
 32 33  1  0
 33  2  1  0
 10  5  1  0
 30 14  1  0
 13  8  1  0
 29 17  1  0
 28 22  1  0
  1 34  1  0
  1 35  1  0
  1 36  1  0
  3 37  1  0
  3 38  1  0
  6 39  1  0
  7 40  1  0
 10 41  1  0
 12 42  1  0
 15 43  1  0
 16 44  1  0
 18 45  1  0
 19 46  1  0
 20 47  1  0
 23 48  1  0
 23 49  1  0
 24 50  1  0
 24 51  1  0
 25 52  1  0
 26 53  1  0
 26 54  1  0
 27 55  1  0
 27 56  1  0
 28 57  1  0
 28 58  1  0
 31 59  1  0
 31 60  1  0
 33 61  1  0
 33 62  1  0
M  END
$$$$
