
     RDKit          3D

 32 34  0  0  0  0  0  0  0  0999 V2000
    5.0038    1.9958    0.1747 N   0  0  0  0  0  0  0  0  0  0  0  0
    4.0711    1.0022    0.4414 C   0  0  0  0  0  0  0  0  0  0  0  0
    4.3810    0.0630    1.3610 N   0  0  0  0  0  0  0  0  0  0  0  0
    3.4799   -0.9110    1.6156 C   0  0  0  0  0  0  0  0  0  0  0  0
    3.8394   -1.8210    2.5350 F   0  0  0  0  0  0  0  0  0  0  0  0
    2.2554   -1.0758    1.0700 N   0  0  0  0  0  0  0  0  0  0  0  0
    1.9932   -0.1091    0.1774 C   0  0  0  0  0  0  0  0  0  0  0  0
    2.8169    0.9419   -0.1868 C   0  0  0  0  0  0  0  0  0  0  0  0
    2.2005    1.7485   -1.1195 N   0  0  0  0  0  0  0  0  0  0  0  0
    1.0246    1.1880   -1.3220 C   0  0  0  0  0  0  0  0  0  0  0  0
    0.8566    0.0596   -0.5654 N   0  0  0  0  0  0  0  0  0  0  0  0
   -0.2950   -0.8145   -0.5225 C   0  0  2  0  0  0  0  0  0  0  0  0
   -1.1643   -0.5500   -1.6482 O   0  0  0  0  0  0  0  0  0  0  0  0
   -2.5229   -0.7606   -1.2060 C   0  0  2  0  0  0  0  0  0  0  0  0
   -3.3041    0.5428   -1.3854 C   0  0  0  0  0  0  0  0  0  0  0  0
   -4.6591    0.3649   -0.9905 O   0  0  0  0  0  0  0  0  0  0  0  0
   -2.4694   -1.2421    0.2523 C   0  0  1  0  0  0  0  0  0  0  0  0
   -2.4008   -2.6714    0.3071 O   0  0  0  0  0  0  0  0  0  0  0  0
   -1.1477   -0.6796    0.7443 C   0  0  2  0  0  0  0  0  0  0  0  0
   -1.3307    0.6844    1.1431 O   0  0  0  0  0  0  0  0  0  0  0  0
    5.6685    2.1225    0.9262 H   0  0  0  0  0  0  0  0  0  0  0  0
    4.6059    2.8247   -0.2536 H   0  0  0  0  0  0  0  0  0  0  0  0
    0.2631    1.5531   -1.9998 H   0  0  0  0  0  0  0  0  0  0  0  0
    0.0683   -1.8426   -0.6460 H   0  0  0  0  0  0  0  0  0  0  0  0
   -2.9655   -1.5348   -1.8438 H   0  0  0  0  0  0  0  0  0  0  0  0
   -2.8670    1.3621   -0.8067 H   0  0  0  0  0  0  0  0  0  0  0  0
   -3.2814    0.8465   -2.4380 H   0  0  0  0  0  0  0  0  0  0  0  0
   -5.1164    1.2057   -1.1732 H   0  0  0  0  0  0  0  0  0  0  0  0
   -3.3272   -0.9199    0.8501 H   0  0  0  0  0  0  0  0  0  0  0  0
   -3.2607   -3.0119   -0.0027 H   0  0  0  0  0  0  0  0  0  0  0  0
   -0.7074   -1.2327    1.5805 H   0  0  0  0  0  0  0  0  0  0  0  0
   -1.7086    0.6714    2.0415 H   0  0  0  0  0  0  0  0  0  0  0  0
  1  2  1  0
  2  3  2  0
  3  4  1  0
  4  5  1  0
  4  6  2  0
  6  7  1  0
  7  8  2  0
  8  9  1  0
  9 10  2  0
 10 11  1  0
 11 12  1  0
 12 13  1  0
 13 14  1  0
 14 15  1  0
 15 16  1  0
 14 17  1  0
 17 18  1  0
 17 19  1  0
 19 20  1  0
  8  2  1  0
 19 12  1  0
 11  7  1  0
  1 21  1  0
  1 22  1  0
 10 23  1  0
 12 24  1  6
 14 25  1  6
 15 26  1  0
 15 27  1  0
 16 28  1  0
 17 29  1  1
 18 30  1  0
 19 31  1  1
 20 32  1  0
M  END
$$$$
