
     RDKit          3D

 17 17  0  0  0  0  0  0  0  0999 V2000
   -1.7408   -1.7729    1.1399 O   0  0  0  0  0  0  0  0  0  0  0  0
   -1.5599   -0.7023    0.5573 C   0  0  0  0  0  0  0  0  0  0  0  0
   -2.7214    0.2013    0.2208 C   0  0  0  0  0  0  0  0  0  0  0  0
   -2.8136    1.5235    1.3955 Cl  0  0  0  0  0  0  0  0  0  0  0  0
   -0.1700   -0.3126    0.1595 C   0  0  0  0  0  0  0  0  0  0  0  0
    0.8681   -1.2215    0.4149 C   0  0  0  0  0  0  0  0  0  0  0  0
    2.1835   -0.9164    0.0595 C   0  0  0  0  0  0  0  0  0  0  0  0
    2.4739    0.3000   -0.5530 C   0  0  0  0  0  0  0  0  0  0  0  0
    1.4512    1.2116   -0.8087 C   0  0  0  0  0  0  0  0  0  0  0  0
    0.1323    0.9093   -0.4550 C   0  0  0  0  0  0  0  0  0  0  0  0
   -3.6507   -0.3740    0.2765 H   0  0  0  0  0  0  0  0  0  0  0  0
   -2.6416    0.6005   -0.7936 H   0  0  0  0  0  0  0  0  0  0  0  0
    0.6582   -2.1760    0.8953 H   0  0  0  0  0  0  0  0  0  0  0  0
    2.9794   -1.6284    0.2639 H   0  0  0  0  0  0  0  0  0  0  0  0
    3.4985    0.5395   -0.8275 H   0  0  0  0  0  0  0  0  0  0  0  0
    1.6820    2.1639   -1.2813 H   0  0  0  0  0  0  0  0  0  0  0  0
   -0.6290    1.6543   -0.6640 H   0  0  0  0  0  0  0  0  0  0  0  0
  1  2  2  0
  2  3  1  0
  3  4  1  0
  2  5  1  0
  5  6  2  0
  6  7  1  0
  7  8  2  0
  8  9  1  0
  9 10  2  0
 10  5  1  0
  3 11  1  0
  3 12  1  0
  6 13  1  0
  7 14  1  0
  8 15  1  0
  9 16  1  0
 10 17  1  0
M  END
$$$$
