
     RDKit          3D

 34 33  0  0  0  0  0  0  0  0999 V2000
   -3.9308    0.0051   -1.0497 C   0  0  0  0  0  0  0  0  0  0  0  0
   -2.9542   -0.3193   -0.0283 N   0  0  0  0  0  4  0  0  0  0  0  0
   -3.6970   -0.7303    1.1584 C   0  0  0  0  0  0  0  0  0  0  0  0
   -2.1652   -1.4656   -0.4358 C   0  0  0  0  0  0  0  0  0  0  0  0
   -2.1643    0.8312    0.2726 C   0  0  0  0  0  0  0  0  0  0  0  0
   -0.8173    0.6358   -0.2785 C   0  0  0  0  0  0  0  0  0  0  0  0
    0.2745    0.4736   -0.7468 C   0  0  0  0  0  0  0  0  0  0  0  0
    1.6302    0.2949   -1.3217 C   0  0  0  0  0  0  0  0  0  0  0  0
    2.5475    0.2756   -0.2126 N   0  0  0  0  0  0  0  0  0  0  0  0
    3.1935    1.4533    0.3398 C   0  0  0  0  0  0  0  0  0  0  0  0
    4.5635    0.9274    0.7146 C   0  0  0  0  0  0  0  0  0  0  0  0
    4.2265   -0.4176    1.3260 C   0  0  0  0  0  0  0  0  0  0  0  0
    3.0198   -0.8131    0.5655 C   0  0  0  0  0  0  0  0  0  0  0  0
    2.4708   -1.9458    0.5875 O   0  0  0  0  0  0  0  0  0  0  0  0
    0.0000    0.0000    0.0000 I   0  0  0  0  0 15  0  0  0  0  0  0
   -3.5269   -0.2056   -2.0604 H   0  0  0  0  0  0  0  0  0  0  0  0
   -4.8708   -0.5506   -0.8450 H   0  0  0  0  0  0  0  0  0  0  0  0
   -4.1154    1.1038   -1.0087 H   0  0  0  0  0  0  0  0  0  0  0  0
   -4.3131   -1.6259    0.8852 H   0  0  0  0  0  0  0  0  0  0  0  0
   -3.0439   -0.9381    2.0093 H   0  0  0  0  0  0  0  0  0  0  0  0
   -4.4285    0.0709    1.4204 H   0  0  0  0  0  0  0  0  0  0  0  0
   -1.5011   -1.2621   -1.2817 H   0  0  0  0  0  0  0  0  0  0  0  0
   -1.6487   -1.8658    0.4538 H   0  0  0  0  0  0  0  0  0  0  0  0
   -2.9118   -2.2383   -0.7770 H   0  0  0  0  0  0  0  0  0  0  0  0
   -2.6414    1.7416   -0.1877 H   0  0  0  0  0  0  0  0  0  0  0  0
   -2.1345    1.0256    1.3620 H   0  0  0  0  0  0  0  0  0  0  0  0
    1.6967   -0.6508   -1.8875 H   0  0  0  0  0  0  0  0  0  0  0  0
    1.9053    1.1349   -1.9836 H   0  0  0  0  0  0  0  0  0  0  0  0
    3.3525    2.2029   -0.4777 H   0  0  0  0  0  0  0  0  0  0  0  0
    2.6522    1.8758    1.1877 H   0  0  0  0  0  0  0  0  0  0  0  0
    4.9917    1.5425    1.5395 H   0  0  0  0  0  0  0  0  0  0  0  0
    5.2292    0.8606   -0.1491 H   0  0  0  0  0  0  0  0  0  0  0  0
    5.0794   -1.0878    1.1027 H   0  0  0  0  0  0  0  0  0  0  0  0
    4.0314   -0.3390    2.4166 H   0  0  0  0  0  0  0  0  0  0  0  0
  1  2  1  0
  2  3  1  0
  2  4  1  0
  2  5  1  0
  5  6  1  0
  6  7  3  0
  7  8  1  0
  8  9  1  0
  9 10  1  0
 10 11  1  0
 11 12  1  0
 12 13  1  0
 13 14  2  0
 13  9  1  0
  1 16  1  0
  1 17  1  0
  1 18  1  0
  3 19  1  0
  3 20  1  0
  3 21  1  0
  4 22  1  0
  4 23  1  0
  4 24  1  0
  5 25  1  0
  5 26  1  0
  8 27  1  0
  8 28  1  0
 10 29  1  0
 10 30  1  0
 11 31  1  0
 11 32  1  0
 12 33  1  0
 12 34  1  0
M  CHG  2   2   1  15  -1
M  END
$$$$
