
     RDKit          3D

 63 65  0  0  0  0  0  0  0  0999 V2000
    9.3760    1.1130   -0.3418 C   0  0  0  0  0  0  0  0  0  0  0  0
    8.0947    0.8399   -1.1163 C   0  0  0  0  0  0  0  0  0  0  0  0
    7.2229   -0.2015   -0.4027 C   0  0  0  0  0  0  0  0  0  0  0  0
    6.0278   -0.5718   -1.1755 N   0  0  0  0  0  0  0  0  0  0  0  0
    5.3077   -1.7043   -0.5513 C   0  0  0  0  0  0  0  0  0  0  0  0
    4.0909   -1.3253    0.3264 C   0  0  0  0  0  0  0  0  0  0  0  0
    3.1110   -0.5322   -0.4368 N   0  0  0  0  0  0  0  0  0  0  0  0
    1.7620   -0.5618   -0.1322 C   0  0  0  0  0  0  0  0  0  0  0  0
    0.7786   -0.2224   -1.0763 C   0  0  0  0  0  0  0  0  0  0  0  0
   -0.5919   -0.2508   -0.7748 C   0  0  0  0  0  0  0  0  0  0  0  0
   -1.0185   -0.6108    0.5040 C   0  0  0  0  0  0  0  0  0  0  0  0
   -2.4572   -0.6688    0.8880 C   0  0  0  0  0  0  0  0  0  0  0  0
   -2.8145   -1.3492    1.8420 O   0  0  0  0  0  0  0  0  0  0  0  0
   -3.3417    0.0651    0.1165 N   0  0  0  0  0  0  0  0  0  0  0  0
   -4.7329    0.3350    0.5761 C   0  0  0  0  0  0  0  0  0  0  0  0
   -5.5374   -0.9950    0.7358 C   0  0  0  0  0  0  0  0  0  0  0  0
   -6.5055   -1.1129    1.4842 O   0  0  0  0  0  0  0  0  0  0  0  0
   -5.1939   -1.9783   -0.1732 N   0  0  0  0  0  0  0  0  0  0  0  0
   -5.7938   -3.2929   -0.0766 C   0  0  0  0  0  0  0  0  0  0  0  0
   -7.0459   -3.3941   -0.8466 C   0  0  0  0  0  0  0  0  0  0  0  0
   -8.0113   -3.4988   -1.4847 N   0  0  0  0  0  0  0  0  0  0  0  0
   -4.7130    1.1224    1.9104 C   0  0  0  0  0  0  0  0  0  0  0  0
   -5.8695    2.1116    2.0267 C   0  0  0  0  0  0  0  0  0  0  0  0
   -5.8352    3.1605    0.9163 C   0  0  0  0  0  0  0  0  0  0  0  0
   -5.2553    2.6371   -0.3970 C   0  0  0  0  0  0  0  0  0  0  0  0
   -5.4549    1.1319   -0.5465 C   0  0  0  0  0  0  0  0  0  0  0  0
   -0.0635   -0.9616    1.4589 C   0  0  0  0  0  0  0  0  0  0  0  0
    1.3008   -0.9344    1.1402 C   0  0  0  0  0  0  0  0  0  0  0  0
    3.6359    0.1944   -1.6053 C   0  0  0  0  0  0  0  0  0  0  0  0
    5.1195    0.5783   -1.3875 C   0  0  0  0  0  0  0  0  0  0  0  0
    9.1538    1.5195    0.6497 H   0  0  0  0  0  0  0  0  0  0  0  0
    9.9929    1.8406   -0.8776 H   0  0  0  0  0  0  0  0  0  0  0  0
    9.9625    0.1975   -0.2159 H   0  0  0  0  0  0  0  0  0  0  0  0
    8.3539    0.4851   -2.1211 H   0  0  0  0  0  0  0  0  0  0  0  0
    7.5533    1.7856   -1.2326 H   0  0  0  0  0  0  0  0  0  0  0  0
    7.8382   -1.0984   -0.2547 H   0  0  0  0  0  0  0  0  0  0  0  0
    6.9436    0.1617    0.5954 H   0  0  0  0  0  0  0  0  0  0  0  0
    4.9442   -2.3363   -1.3735 H   0  0  0  0  0  0  0  0  0  0  0  0
    5.9896   -2.3446    0.0227 H   0  0  0  0  0  0  0  0  0  0  0  0
    3.6435   -2.2617    0.6812 H   0  0  0  0  0  0  0  0  0  0  0  0
    4.4227   -0.7518    1.1998 H   0  0  0  0  0  0  0  0  0  0  0  0
    1.0624    0.0458   -2.0907 H   0  0  0  0  0  0  0  0  0  0  0  0
   -1.2953   -0.0095   -1.5642 H   0  0  0  0  0  0  0  0  0  0  0  0
   -2.9263    0.8109   -0.4268 H   0  0  0  0  0  0  0  0  0  0  0  0
   -4.2585   -1.9022   -0.5513 H   0  0  0  0  0  0  0  0  0  0  0  0
   -5.0618   -4.0040   -0.4740 H   0  0  0  0  0  0  0  0  0  0  0  0
   -5.9640   -3.5438    0.9764 H   0  0  0  0  0  0  0  0  0  0  0  0
   -4.7372    0.4360    2.7656 H   0  0  0  0  0  0  0  0  0  0  0  0
   -3.7752    1.6871    2.0027 H   0  0  0  0  0  0  0  0  0  0  0  0
   -5.8426    2.6104    3.0019 H   0  0  0  0  0  0  0  0  0  0  0  0
   -6.8214    1.5687    1.9849 H   0  0  0  0  0  0  0  0  0  0  0  0
   -6.8541    3.5312    0.7520 H   0  0  0  0  0  0  0  0  0  0  0  0
   -5.2457    4.0260    1.2415 H   0  0  0  0  0  0  0  0  0  0  0  0
   -4.1840    2.8684   -0.4401 H   0  0  0  0  0  0  0  0  0  0  0  0
   -5.7190    3.1651   -1.2377 H   0  0  0  0  0  0  0  0  0  0  0  0
   -5.0987    0.8130   -1.5348 H   0  0  0  0  0  0  0  0  0  0  0  0
   -6.5335    0.9251   -0.5347 H   0  0  0  0  0  0  0  0  0  0  0  0
   -0.3709   -1.2519    2.4626 H   0  0  0  0  0  0  0  0  0  0  0  0
    2.0027   -1.1969    1.9266 H   0  0  0  0  0  0  0  0  0  0  0  0
    3.5320   -0.4233   -2.5057 H   0  0  0  0  0  0  0  0  0  0  0  0
    3.0788    1.1256   -1.7642 H   0  0  0  0  0  0  0  0  0  0  0  0
    5.1580    1.2563   -0.5237 H   0  0  0  0  0  0  0  0  0  0  0  0
    5.4643    1.1427   -2.2614 H   0  0  0  0  0  0  0  0  0  0  0  0
  1  2  1  0
  2  3  1  0
  3  4  1  0
  4  5  1  0
  5  6  1  0
  6  7  1  0
  7  8  1  0
  8  9  2  0
  9 10  1  0
 10 11  2  0
 11 12  1  0
 12 13  2  0
 12 14  1  0
 14 15  1  0
 15 16  1  0
 16 17  2  0
 16 18  1  0
 18 19  1  0
 19 20  1  0
 20 21  3  0
 15 22  1  0
 22 23  1  0
 23 24  1  0
 24 25  1  0
 25 26  1  0
 11 27  1  0
 27 28  2  0
  7 29  1  0
 29 30  1  0
 30  4  1  0
 28  8  1  0
 26 15  1  0
  1 31  1  0
  1 32  1  0
  1 33  1  0
  2 34  1  0
  2 35  1  0
  3 36  1  0
  3 37  1  0
  5 38  1  0
  5 39  1  0
  6 40  1  0
  6 41  1  0
  9 42  1  0
 10 43  1  0
 14 44  1  0
 18 45  1  0
 19 46  1  0
 19 47  1  0
 22 48  1  0
 22 49  1  0
 23 50  1  0
 23 51  1  0
 24 52  1  0
 24 53  1  0
 25 54  1  0
 25 55  1  0
 26 56  1  0
 26 57  1  0
 27 58  1  0
 28 59  1  0
 29 60  1  0
 29 61  1  0
 30 62  1  0
 30 63  1  0
M  END
$$$$
