
     RDKit          3D

 60 62  0  0  0  0  0  0  0  0999 V2000
   -4.3524   -1.4153    0.4265 C   0  0  0  0  0  0  0  0  0  0  0  0
   -4.0866   -0.2207   -0.4157 C   0  0  2  0  0  0  0  0  0  0  0  0
   -3.3065   -0.5261   -1.6547 C   0  0  0  0  0  0  0  0  0  0  0  0
   -1.8831   -0.8598   -1.3891 C   0  0  0  0  0  0  0  0  0  0  0  0
   -1.1991    0.0763   -0.4248 C   0  0  1  0  0  0  0  0  0  0  0  0
   -2.0785    0.1989    0.8319 C   0  0  1  0  0  0  0  0  0  0  0  0
   -1.4014    0.9247    1.9492 C   0  0  0  0  0  0  0  0  0  0  0  0
   -0.0597    1.3928    1.6420 C   0  0  0  0  0  0  0  0  0  0  0  0
    0.3656    2.3112    2.3628 O   0  0  0  0  0  0  0  0  0  0  0  0
    0.8176    0.9017    0.5786 C   0  0  1  0  0  0  0  0  0  0  0  0
    2.1960    0.5616    1.1033 C   0  0  0  0  0  0  0  0  0  0  0  0
    2.9951   -0.2352    0.1144 C   0  0  0  0  0  0  0  0  0  0  0  0
    4.2346   -0.2309    0.3037 N   0  0  0  0  0  0  0  0  0  0  0  0
    5.2373   -0.8154   -0.3851 O   0  0  0  0  0  0  0  0  0  0  0  0
    6.4825   -1.1207    0.2729 C   0  0  0  0  0  0  0  0  0  0  0  0
    7.1182    0.2469    0.5815 C   0  0  0  0  0  0  0  0  0  0  0  0
    7.2873    1.0508   -0.5994 N   0  0  0  0  0  0  0  0  0  0  0  0
    2.4157   -1.0027   -0.9863 C   0  0  0  0  0  0  0  0  0  0  0  0
    1.0006   -0.6328   -1.2995 C   0  0  0  0  0  0  0  0  0  0  0  0
    0.1872   -0.3213   -0.0667 C   0  0  2  0  0  0  0  0  0  0  0  0
    0.2856   -1.4593    0.9022 C   0  0  0  0  0  0  0  0  0  0  0  0
   -3.2834    0.8660    0.3183 C   0  0  2  0  0  0  0  0  0  0  0  0
   -4.2904    1.3720    1.3095 C   0  0  0  0  0  0  0  0  0  0  0  0
   -5.4908    1.5758    0.3646 C   0  0  0  0  0  0  0  0  0  0  0  0
   -5.3453    0.5168   -0.6678 C   0  0  0  0  0  0  0  0  0  0  0  0
   -6.1351    0.2953   -1.5544 O   0  0  0  0  0  0  0  0  0  0  0  0
    0.6893    0.0000    0.0000 Cl  0  0  0  0  0  0  0  0  0  0  0  0
   -3.8105   -2.2982   -0.0191 H   0  0  0  0  0  0  0  0  0  0  0  0
   -5.4340   -1.7390    0.3846 H   0  0  0  0  0  0  0  0  0  0  0  0
   -4.1321   -1.3158    1.4858 H   0  0  0  0  0  0  0  0  0  0  0  0
   -3.4235    0.3129   -2.3572 H   0  0  0  0  0  0  0  0  0  0  0  0
   -3.7688   -1.3991   -2.1363 H   0  0  0  0  0  0  0  0  0  0  0  0
   -1.3206   -0.7555   -2.3610 H   0  0  0  0  0  0  0  0  0  0  0  0
   -1.7494   -1.9316   -1.0795 H   0  0  0  0  0  0  0  0  0  0  0  0
   -1.1674    1.0632   -0.9131 H   0  0  0  0  0  0  0  0  0  0  0  0
   -2.2260   -0.8503    1.1508 H   0  0  0  0  0  0  0  0  0  0  0  0
   -2.0647    1.7284    2.3000 H   0  0  0  0  0  0  0  0  0  0  0  0
   -1.2812    0.2576    2.8631 H   0  0  0  0  0  0  0  0  0  0  0  0
    0.9205    1.6388   -0.2261 H   0  0  0  0  0  0  0  0  0  0  0  0
    2.1550    0.1263    2.0971 H   0  0  0  0  0  0  0  0  0  0  0  0
    2.6970    1.5781    1.2113 H   0  0  0  0  0  0  0  0  0  0  0  0
    7.1694   -1.6102   -0.4559 H   0  0  0  0  0  0  0  0  0  0  0  0
    6.2982   -1.6903    1.1537 H   0  0  0  0  0  0  0  0  0  0  0  0
    8.0896    0.0231    1.0247 H   0  0  0  0  0  0  0  0  0  0  0  0
    6.4748    0.7753    1.3246 H   0  0  0  0  0  0  0  0  0  0  0  0
    6.2601    1.3769   -0.8912 H   0  0  0  0  0  0  0  0  0  0  0  0
    7.7600    1.9713   -0.3459 H   0  0  0  0  0  0  0  0  0  0  0  0
    2.4982   -2.1040   -0.8194 H   0  0  0  0  0  0  0  0  0  0  0  0
    3.0784   -0.8231   -1.8898 H   0  0  0  0  0  0  0  0  0  0  0  0
    0.5153   -1.5037   -1.7970 H   0  0  0  0  0  0  0  0  0  0  0  0
    0.9977    0.2312   -2.0000 H   0  0  0  0  0  0  0  0  0  0  0  0
   -0.6507   -2.0851    0.9550 H   0  0  0  0  0  0  0  0  0  0  0  0
    1.1045   -2.1795    0.6546 H   0  0  0  0  0  0  0  0  0  0  0  0
    0.5309   -1.0716    1.9189 H   0  0  0  0  0  0  0  0  0  0  0  0
   -3.0995    1.6452   -0.4375 H   0  0  0  0  0  0  0  0  0  0  0  0
   -4.4886    0.7554    2.1698 H   0  0  0  0  0  0  0  0  0  0  0  0
   -3.8935    2.3634    1.6802 H   0  0  0  0  0  0  0  0  0  0  0  0
   -6.4422    1.5005    0.9142 H   0  0  0  0  0  0  0  0  0  0  0  0
   -5.3079    2.5587   -0.0951 H   0  0  0  0  0  0  0  0  0  0  0  0
   -0.6893    0.0000    0.0000 H   0  0  0  0  0  0  0  0  0  0  0  0
  2  1  1  1
  2  3  1  0
  3  4  1  0
  4  5  1  0
  5  6  1  0
  6  7  1  0
  7  8  1  0
  8  9  2  0
  8 10  1  0
 10 11  1  0
 11 12  1  0
 12 13  2  0
 13 14  1  0
 14 15  1  0
 15 16  1  0
 16 17  1  0
 12 18  1  0
 18 19  1  0
 19 20  1  0
 20 21  1  1
  6 22  1  0
 22 23  1  0
 23 24  1  0
 24 25  1  0
 25 26  2  0
 22  2  1  0
 25  2  1  0
 20  5  1  0
 20 10  1  0
  1 28  1  0
  1 29  1  0
  1 30  1  0
  3 31  1  0
  3 32  1  0
  4 33  1  0
  4 34  1  0
  5 35  1  6
  6 36  1  1
  7 37  1  0
  7 38  1  0
 10 39  1  6
 11 40  1  0
 11 41  1  0
 15 42  1  0
 15 43  1  0
 16 44  1  0
 16 45  1  0
 17 46  1  0
 17 47  1  0
 18 48  1  0
 18 49  1  0
 19 50  1  0
 19 51  1  0
 21 52  1  0
 21 53  1  0
 21 54  1  0
 22 55  1  6
 23 56  1  0
 23 57  1  0
 24 58  1  0
 24 59  1  0
 27 60  1  0
M  END
$$$$
