
     RDKit          3D

 66 68  0  0  0  0  0  0  0  0999 V2000
   -4.8420    5.4767    0.1905 C   0  0  0  0  0  0  0  0  0  0  0  0
   -5.3004    4.0801    0.0410 C   0  0  0  0  0  0  0  0  0  0  0  0
   -4.5558    2.9502    0.3264 C   0  0  0  0  0  0  0  0  0  0  0  0
   -5.3255    1.8793    0.0622 N   0  0  0  0  0  0  0  0  0  0  0  0
   -4.9689    0.5228    0.2271 C   0  0  0  0  0  0  0  0  0  0  0  0
   -3.6966    0.0628   -0.1205 C   0  0  0  0  0  0  0  0  0  0  0  0
   -3.2777   -1.2273    0.0281 C   0  0  0  0  0  0  0  0  0  0  0  0
   -2.0295   -1.7443   -0.2969 N   0  0  0  0  0  0  0  0  0  0  0  0
   -0.8820   -1.0152   -0.7717 C   0  0  0  0  0  0  0  0  0  0  0  0
   -0.9479    0.1822   -0.9184 O   0  0  0  0  0  0  0  0  0  0  0  0
    0.3019   -1.8705   -1.0310 C   0  0  0  0  0  0  0  0  0  0  0  0
    0.0311   -3.0356   -1.7209 C   0  0  0  0  0  0  0  0  0  0  0  0
    1.0142   -3.9564   -1.9196 C   0  0  0  0  0  0  0  0  0  0  0  0
    2.2528   -3.6955   -1.4256 C   0  0  0  0  0  0  0  0  0  0  0  0
    3.3097   -4.7043   -1.6623 C   0  0  0  0  0  0  0  0  0  0  0  0
    2.5980   -2.5210   -0.7125 C   0  0  0  0  0  0  0  0  0  0  0  0
    3.8615   -2.4500   -0.1308 N   0  0  0  0  0  0  0  0  0  0  0  0
    4.7147   -1.4380    0.2766 C   0  0  0  0  0  0  0  0  0  0  0  0
    5.8876   -1.8353    0.8951 N   0  0  0  0  0  0  0  0  0  0  0  0
    6.8476   -1.0359    1.2724 C   0  0  0  0  0  0  0  0  0  0  0  0
    6.7194    0.3424    1.0549 C   0  0  0  0  0  0  0  0  0  0  0  0
    5.5920    0.7824    0.4558 C   0  0  0  0  0  0  0  0  0  0  0  0
    5.3950    2.2054    0.1464 C   0  0  0  0  0  0  0  0  0  0  0  0
    4.2979    2.7334   -0.4482 C   0  0  0  0  0  0  0  0  0  0  0  0
    4.1478    4.0729   -0.7699 C   0  0  0  0  0  0  0  0  0  0  0  0
    5.1917    4.9567   -0.4690 C   0  0  0  0  0  0  0  0  0  0  0  0
    6.2494    4.4147    0.1101 N   0  0  0  0  0  0  0  0  0  0  0  0
    6.4228    3.1165    0.4363 C   0  0  0  0  0  0  0  0  0  0  0  0
    4.6242   -0.1193    0.0865 N   0  0  0  0  0  0  0  0  0  0  0  0
    1.5491   -1.6187   -0.5451 C   0  0  0  0  0  0  0  0  0  0  0  0
   -4.2429   -2.0984    0.5719 C   0  0  0  0  0  0  0  0  0  0  0  0
   -5.5035   -1.7023    0.9307 C   0  0  0  0  0  0  0  0  0  0  0  0
   -6.4506   -2.6895    1.4943 C   0  0  0  0  0  0  0  0  0  0  0  0
   -7.5035   -2.9709    0.6306 F   0  0  0  0  0  0  0  0  0  0  0  0
   -7.0445   -2.2084    2.6767 F   0  0  0  0  0  0  0  0  0  0  0  0
   -5.7679   -3.8633    1.7855 F   0  0  0  0  0  0  0  0  0  0  0  0
   -5.8734   -0.3946    0.7622 C   0  0  0  0  0  0  0  0  0  0  0  0
   -6.5372    2.3148   -0.3842 C   0  0  0  0  0  0  0  0  0  0  0  0
   -6.4935    3.6453   -0.3866 N   0  0  0  0  0  0  0  0  0  0  0  0
    0.6874    0.0000    0.0000 Cl  0  0  0  0  0  0  0  0  0  0  0  0
   -0.0003    0.3950   -0.0000 O   0  0  0  0  0  0  0  0  0  0  0  0
   -3.7747    5.4775    0.5133 H   0  0  0  0  0  0  0  0  0  0  0  0
   -4.9272    5.9676   -0.7831 H   0  0  0  0  0  0  0  0  0  0  0  0
   -5.4620    6.0155    0.9341 H   0  0  0  0  0  0  0  0  0  0  0  0
   -3.5547    2.8847    0.6924 H   0  0  0  0  0  0  0  0  0  0  0  0
   -3.0371    0.8070   -0.5310 H   0  0  0  0  0  0  0  0  0  0  0  0
   -1.8770   -2.7843   -0.2025 H   0  0  0  0  0  0  0  0  0  0  0  0
   -0.9550   -3.2158   -2.0921 H   0  0  0  0  0  0  0  0  0  0  0  0
    0.7977   -4.8832   -2.4769 H   0  0  0  0  0  0  0  0  0  0  0  0
    3.1039   -5.1655   -2.6823 H   0  0  0  0  0  0  0  0  0  0  0  0
    4.3325   -4.2811   -1.7380 H   0  0  0  0  0  0  0  0  0  0  0  0
    3.1864   -5.5129   -0.9273 H   0  0  0  0  0  0  0  0  0  0  0  0
    4.2949   -3.4683    0.0874 H   0  0  0  0  0  0  0  0  0  0  0  0
    7.7713   -1.3708    1.7509 H   0  0  0  0  0  0  0  0  0  0  0  0
    7.5036    1.0007    1.3593 H   0  0  0  0  0  0  0  0  0  0  0  0
    3.4931    2.0188   -0.6765 H   0  0  0  0  0  0  0  0  0  0  0  0
    3.2571    4.4334   -1.2424 H   0  0  0  0  0  0  0  0  0  0  0  0
    5.0982    6.0033   -0.7110 H   0  0  0  0  0  0  0  0  0  0  0  0
    7.3186    2.7637    0.9041 H   0  0  0  0  0  0  0  0  0  0  0  0
    1.7555   -0.6957   -0.0110 H   0  0  0  0  0  0  0  0  0  0  0  0
   -3.9082   -3.1337    0.6951 H   0  0  0  0  0  0  0  0  0  0  0  0
   -6.8582   -0.0307    1.0291 H   0  0  0  0  0  0  0  0  0  0  0  0
   -7.3239    1.6261   -0.6596 H   0  0  0  0  0  0  0  0  0  0  0  0
   -0.6874    0.0000    0.0000 H   0  0  0  0  0  0  0  0  0  0  0  0
   -0.7908   -0.1976   -0.0000 H   0  0  0  0  0  0  0  0  0  0  0  0
    0.7911   -0.1973    0.0000 H   0  0  0  0  0  0  0  0  0  0  0  0
  1  2  1  0
  2  3  2  0
  3  4  1  0
  4  5  1  0
  5  6  2  0
  6  7  1  0
  7  8  1  0
  8  9  1  0
  9 10  2  0
  9 11  1  0
 11 12  2  0
 12 13  1  0
 13 14  2  0
 14 15  1  0
 14 16  1  0
 16 17  1  0
 17 18  1  0
 18 19  2  0
 19 20  1  0
 20 21  2  0
 21 22  1  0
 22 23  1  0
 23 24  2  0
 24 25  1  0
 25 26  2  0
 26 27  1  0
 27 28  2  0
 22 29  2  0
 16 30  2  0
  7 31  2  0
 31 32  1  0
 32 33  1  0
 33 34  1  0
 33 35  1  0
 33 36  1  0
 32 37  2  0
  4 38  1  0
 38 39  2  0
 39  2  1  0
 37  5  1  0
 30 11  1  0
 29 18  1  0
 28 23  1  0
  1 42  1  0
  1 43  1  0
  1 44  1  0
  3 45  1  0
  6 46  1  0
  8 47  1  0
 12 48  1  0
 13 49  1  0
 15 50  1  0
 15 51  1  0
 15 52  1  0
 17 53  1  0
 20 54  1  0
 21 55  1  0
 24 56  1  0
 25 57  1  0
 26 58  1  0
 28 59  1  0
 30 60  1  0
 31 61  1  0
 37 62  1  0
 38 63  1  0
 40 64  1  0
 41 65  1  0
 41 66  1  0
M  END
$$$$
