
     RDKit          3D

 21 22  0  0  0  0  0  0  0  0999 V2000
   -4.1970    2.4170    0.4536 O   0  0  0  0  0  0  0  0  0  0  0  0
   -3.4787    1.4359    0.3680 C   0  0  0  0  0  0  0  0  0  0  0  0
   -3.8887    0.1436    0.4189 N   0  0  0  0  0  0  0  0  0  0  0  0
   -2.9470   -0.8342    0.3030 C   0  0  0  0  0  0  0  0  0  0  0  0
   -3.1794   -2.0317    0.3334 O   0  0  0  0  0  0  0  0  0  0  0  0
   -1.6030   -0.2208    0.1348 C   0  0  0  0  0  0  0  0  0  0  0  0
   -0.4968   -0.9662    0.0140 C   0  0  0  0  0  0  0  0  0  0  0  0
    0.8701   -0.4589   -0.1411 C   0  0  0  0  0  0  0  0  0  0  0  0
    1.2603    0.2374   -1.2921 C   0  0  0  0  0  0  0  0  0  0  0  0
    2.5710    0.7006   -1.4270 C   0  0  0  0  0  0  0  0  0  0  0  0
    3.5020    0.4651   -0.4160 C   0  0  0  0  0  0  0  0  0  0  0  0
    3.1173   -0.2364    0.7251 C   0  0  0  0  0  0  0  0  0  0  0  0
    4.3804   -0.5610    2.0945 Br  0  0  0  0  0  0  0  0  0  0  0  0
    1.8097   -0.7024    0.8669 C   0  0  0  0  0  0  0  0  0  0  0  0
   -1.7411    1.4979    0.1548 S   0  0  0  0  0  0  0  0  0  0  0  0
   -4.8619   -0.0827    0.5401 H   0  0  0  0  0  0  0  0  0  0  0  0
   -0.5746   -2.0524    0.0500 H   0  0  0  0  0  0  0  0  0  0  0  0
    0.5493    0.4243   -2.0941 H   0  0  0  0  0  0  0  0  0  0  0  0
    2.8655    1.2444   -2.3213 H   0  0  0  0  0  0  0  0  0  0  0  0
    4.5200    0.8291   -0.5276 H   0  0  0  0  0  0  0  0  0  0  0  0
    1.5225   -1.2486    1.7622 H   0  0  0  0  0  0  0  0  0  0  0  0
  1  2  2  0
  2  3  1  0
  3  4  1  0
  4  5  2  0
  4  6  1  0
  6  7  2  0
  7  8  1  0
  8  9  2  0
  9 10  1  0
 10 11  2  0
 11 12  1  0
 12 13  1  0
 12 14  2  0
  6 15  1  0
 15  2  1  0
 14  8  1  0
  3 16  1  0
  7 17  1  0
  9 18  1  0
 10 19  1  0
 11 20  1  0
 14 21  1  0
M  END
$$$$
