
     RDKit          3D

 31 33  0  0  0  0  0  0  0  0999 V2000
   -5.5420    1.8292    1.2465 O   0  0  0  0  0  0  0  0  0  0  0  0
   -4.5835    1.0038    0.7404 C   0  0  0  0  0  0  0  0  0  0  0  0
   -3.2325    1.2984    0.8619 C   0  0  0  0  0  0  0  0  0  0  0  0
   -2.2820    0.4203    0.3258 C   0  0  0  0  0  0  0  0  0  0  0  0
   -2.6641   -0.7546   -0.3335 C   0  0  0  0  0  0  0  0  0  0  0  0
   -1.7619   -1.6776   -0.8935 N   0  0  0  0  0  0  0  0  0  0  0  0
   -0.4089   -1.6554   -0.9281 C   0  0  0  0  0  0  0  0  0  0  0  0
    0.3992   -0.7443   -0.4347 N   0  0  0  0  0  0  0  0  0  0  0  0
    1.7319   -1.0610   -0.6626 C   0  0  0  0  0  0  0  0  0  0  0  0
    2.8011   -0.1767   -0.1937 C   0  0  0  0  0  0  0  0  0  0  0  0
    2.4639    1.0021    0.4933 C   0  0  0  0  0  0  0  0  0  0  0  0
    3.4516    1.8761    0.9592 C   0  0  0  0  0  0  0  0  0  0  0  0
    4.7927    1.5789    0.7419 C   0  0  0  0  0  0  0  0  0  0  0  0
    6.0120    2.6494    1.3122 Cl  0  0  0  0  0  0  0  0  0  0  0  0
    5.1519    0.4173    0.0640 C   0  0  0  0  0  0  0  0  0  0  0  0
    4.1610   -0.4564   -0.4016 C   0  0  0  0  0  0  0  0  0  0  0  0
    1.9199   -2.2442   -1.3466 C   0  0  0  0  0  0  0  0  0  0  0  0
    0.4099   -2.9658   -1.7071 S   0  0  0  0  0  0  0  0  0  0  0  0
   -4.0412   -1.0224   -0.4387 C   0  0  0  0  0  0  0  0  0  0  0  0
   -4.9958   -0.1507    0.0937 C   0  0  0  0  0  0  0  0  0  0  0  0
   -5.1042    2.5881    1.6658 H   0  0  0  0  0  0  0  0  0  0  0  0
   -2.8929    2.1979    1.3651 H   0  0  0  0  0  0  0  0  0  0  0  0
   -1.2345    0.6808    0.4384 H   0  0  0  0  0  0  0  0  0  0  0  0
   -2.2050   -2.4734   -1.3337 H   0  0  0  0  0  0  0  0  0  0  0  0
    1.4189    1.2504    0.6722 H   0  0  0  0  0  0  0  0  0  0  0  0
    3.1634    2.7808    1.4874 H   0  0  0  0  0  0  0  0  0  0  0  0
    6.1995    0.1831   -0.1069 H   0  0  0  0  0  0  0  0  0  0  0  0
    4.4822   -1.3517   -0.9257 H   0  0  0  0  0  0  0  0  0  0  0  0
    2.8347   -2.7266   -1.6548 H   0  0  0  0  0  0  0  0  0  0  0  0
   -4.3908   -1.9209   -0.9410 H   0  0  0  0  0  0  0  0  0  0  0  0
   -6.0545   -0.3750    0.0023 H   0  0  0  0  0  0  0  0  0  0  0  0
  1  2  1  0
  2  3  2  0
  3  4  1  0
  4  5  2  0
  5  6  1  0
  6  7  1  0
  7  8  2  0
  8  9  1  0
  9 10  1  0
 10 11  2  0
 11 12  1  0
 12 13  2  0
 13 14  1  0
 13 15  1  0
 15 16  2  0
  9 17  2  0
 17 18  1  0
  5 19  1  0
 19 20  2  0
 20  2  1  0
 18  7  1  0
 16 10  1  0
  1 21  1  0
  3 22  1  0
  4 23  1  0
  6 24  1  0
 11 25  1  0
 12 26  1  0
 15 27  1  0
 16 28  1  0
 17 29  1  0
 19 30  1  0
 20 31  1  0
M  END
$$$$
