
     RDKit          3D

 52 54  0  0  0  0  0  0  0  0999 V2000
   -8.6737    2.3074    1.4747 N   0  0  0  0  0  0  0  0  0  0  0  0
   -7.7062    1.4948    0.9772 C   0  0  0  0  0  0  0  0  0  0  0  0
   -8.0093    0.2906    0.5782 N   0  0  0  0  0  0  0  0  0  0  0  0
   -6.9499   -0.4016    0.1014 C   0  0  0  0  0  0  0  0  0  0  0  0
   -7.0289   -1.6772   -0.3741 N   0  0  0  0  0  0  0  0  0  0  0  0
   -5.7803   -2.0872   -0.7789 C   0  0  0  0  0  0  0  0  0  0  0  0
   -4.8822   -1.0546   -0.5562 C   0  0  0  0  0  0  0  0  0  0  0  0
   -3.4153   -1.0557   -0.8466 C   0  0  0  0  0  0  0  0  0  0  0  0
   -2.5775   -1.3303    0.4053 C   0  0  0  0  0  0  0  0  0  0  0  0
   -1.0983   -1.2311    0.1218 C   0  0  0  0  0  0  0  0  0  0  0  0
   -0.4624    0.0180    0.1383 C   0  0  0  0  0  0  0  0  0  0  0  0
    0.9030    0.1233   -0.1399 C   0  0  0  0  0  0  0  0  0  0  0  0
    1.6484   -1.0247   -0.4345 C   0  0  0  0  0  0  0  0  0  0  0  0
    3.1055   -0.9631   -0.7395 C   0  0  0  0  0  0  0  0  0  0  0  0
    3.6389   -1.8435   -1.4047 O   0  0  0  0  0  0  0  0  0  0  0  0
    3.7989    0.1048   -0.2044 N   0  0  0  0  0  0  0  0  0  0  0  0
    5.2660    0.1314   -0.2510 C   0  0  1  0  0  0  0  0  0  0  0  0
    5.7464    1.5827   -0.3705 C   0  0  0  0  0  0  0  0  0  0  0  0
    7.2153    1.7150   -0.7827 C   0  0  0  0  0  0  0  0  0  0  0  0
    8.1709    1.6673    0.3787 C   0  0  0  0  0  0  0  0  0  0  0  0
    7.8932    1.6778    1.5652 O   0  0  0  0  0  0  0  0  0  0  0  0
    9.4544    1.6390   -0.0280 O   0  0  0  0  0  0  0  0  0  0  0  0
    5.7626   -0.5382    1.0299 C   0  0  0  0  0  0  0  0  0  0  0  0
    5.1831   -0.5576    2.1064 O   0  0  0  0  0  0  0  0  0  0  0  0
    6.9733   -1.1151    0.8906 O   0  0  0  0  0  0  0  0  0  0  0  0
    1.0115   -2.2706   -0.4726 C   0  0  0  0  0  0  0  0  0  0  0  0
   -0.3534   -2.3737   -0.1939 C   0  0  0  0  0  0  0  0  0  0  0  0
   -5.6412    0.0098    0.0046 C   0  0  0  0  0  0  0  0  0  0  0  0
   -5.3245    1.3398    0.4666 C   0  0  0  0  0  0  0  0  0  0  0  0
   -4.1985    1.8267    0.4737 O   0  0  0  0  0  0  0  0  0  0  0  0
   -6.4357    2.0260    0.9216 N   0  0  0  0  0  0  0  0  0  0  0  0
   -8.6091    3.2823    1.2138 H   0  0  0  0  0  0  0  0  0  0  0  0
   -9.5988    1.9257    1.2994 H   0  0  0  0  0  0  0  0  0  0  0  0
   -7.8804   -2.2194   -0.4134 H   0  0  0  0  0  0  0  0  0  0  0  0
   -5.6384   -3.0779   -1.1905 H   0  0  0  0  0  0  0  0  0  0  0  0
   -3.1946   -1.8109   -1.6125 H   0  0  0  0  0  0  0  0  0  0  0  0
   -3.1386   -0.0897   -1.2882 H   0  0  0  0  0  0  0  0  0  0  0  0
   -2.8334   -0.6261    1.2077 H   0  0  0  0  0  0  0  0  0  0  0  0
   -2.8115   -2.3257    0.8056 H   0  0  0  0  0  0  0  0  0  0  0  0
   -1.0352    0.9180    0.3597 H   0  0  0  0  0  0  0  0  0  0  0  0
    1.3591    1.1088   -0.1472 H   0  0  0  0  0  0  0  0  0  0  0  0
    3.3850    0.5376    0.6142 H   0  0  0  0  0  0  0  0  0  0  0  0
    5.5965   -0.4614   -1.1112 H   0  0  0  0  0  0  0  0  0  0  0  0
    5.1456    2.0751   -1.1472 H   0  0  0  0  0  0  0  0  0  0  0  0
    5.5504    2.1295    0.5604 H   0  0  0  0  0  0  0  0  0  0  0  0
    7.3563    2.6914   -1.2614 H   0  0  0  0  0  0  0  0  0  0  0  0
    7.4842    0.9357   -1.5036 H   0  0  0  0  0  0  0  0  0  0  0  0
    9.9731    1.6186    0.8033 H   0  0  0  0  0  0  0  0  0  0  0  0
    7.1633   -1.4629    1.7878 H   0  0  0  0  0  0  0  0  0  0  0  0
    1.5788   -3.1664   -0.7177 H   0  0  0  0  0  0  0  0  0  0  0  0
   -0.8298   -3.3511   -0.2271 H   0  0  0  0  0  0  0  0  0  0  0  0
   -6.2564    2.9390    1.3015 H   0  0  0  0  0  0  0  0  0  0  0  0
  1  2  1  0
  2  3  2  0
  3  4  1  0
  4  5  1  0
  5  6  1  0
  6  7  2  0
  7  8  1  0
  8  9  1  0
  9 10  1  0
 10 11  2  0
 11 12  1  0
 12 13  2  0
 13 14  1  0
 14 15  2  0
 14 16  1  0
 16 17  1  0
 17 18  1  0
 18 19  1  0
 19 20  1  0
 20 21  2  0
 20 22  1  0
 17 23  1  0
 23 24  2  0
 23 25  1  0
 13 26  1  0
 26 27  2  0
  7 28  1  0
 28 29  1  0
 29 30  2  0
 29 31  1  0
 31  2  1  0
 28  4  2  0
 27 10  1  0
  1 32  1  0
  1 33  1  0
  5 34  1  0
  6 35  1  0
  8 36  1  0
  8 37  1  0
  9 38  1  0
  9 39  1  0
 11 40  1  0
 12 41  1  0
 16 42  1  0
 17 43  1  6
 18 44  1  0
 18 45  1  0
 19 46  1  0
 19 47  1  0
 22 48  1  0
 25 49  1  0
 26 50  1  0
 27 51  1  0
 31 52  1  0
M  END
$$$$
