
     RDKit          3D

 53 56  0  0  0  0  0  0  0  0999 V2000
    0.8950   -0.4894    1.7398 O   0  0  0  0  0  0  0  0  0  0  0  0
    1.0597   -0.9466    0.6129 C   0  0  0  0  0  0  0  0  0  0  0  0
    2.0205   -0.4668   -0.2507 N   0  0  0  0  0  0  0  0  0  0  0  0
    2.8307    0.6882    0.0824 C   0  0  0  0  0  0  0  0  0  0  0  0
    3.9972    0.3168    0.9962 C   0  0  0  0  0  0  0  0  0  0  0  0
    4.7767    1.5405    1.4733 C   0  0  0  0  0  0  0  0  0  0  0  0
    5.4547    2.2425    0.4042 N   0  0  0  0  0  0  0  0  0  0  0  0
    5.0630    3.4183   -0.1706 C   0  0  0  0  0  0  0  0  0  0  0  0
    6.0146    3.6759   -1.1299 C   0  0  0  0  0  0  0  0  0  0  0  0
    6.9698    2.6922   -1.1438 N   0  0  0  0  0  0  0  0  0  0  0  0
    6.6140    1.8498   -0.2005 C   0  0  0  0  0  0  0  0  0  0  0  0
    0.2753   -2.1281    0.0785 C   0  0  0  0  0  0  0  0  0  0  0  0
   -0.3725   -1.8459   -1.2761 C   0  0  0  0  0  0  0  0  0  0  0  0
   -1.7056   -2.5392   -1.2078 C   0  0  0  0  0  0  0  0  0  0  0  0
   -2.4448   -2.7132   -2.1631 O   0  0  0  0  0  0  0  0  0  0  0  0
   -1.9373   -2.9112    0.1063 N   0  0  0  0  0  0  0  0  0  0  0  0
   -3.2591   -3.2830    0.5965 C   0  0  0  0  0  0  0  0  0  0  0  0
   -4.0790   -2.1058    1.1562 C   0  0  0  0  0  0  0  0  0  0  0  0
   -4.4091   -1.0572    0.1369 C   0  0  0  0  0  0  0  0  0  0  0  0
   -5.3944   -1.1520   -0.8269 C   0  0  0  0  0  0  0  0  0  0  0  0
   -5.3460   -0.0300   -1.6069 N   0  0  0  0  0  0  0  0  0  0  0  0
   -4.3625    0.8201   -1.1588 C   0  0  0  0  0  0  0  0  0  0  0  0
   -3.9593    2.0662   -1.6549 C   0  0  0  0  0  0  0  0  0  0  0  0
   -2.9057    2.7126   -1.0030 C   0  0  0  0  0  0  0  0  0  0  0  0
   -2.2939    2.1317    0.1037 C   0  0  0  0  0  0  0  0  0  0  0  0
   -0.9868    2.9486    0.8747 Cl  0  0  0  0  0  0  0  0  0  0  0  0
   -2.7133    0.8919    0.5959 C   0  0  0  0  0  0  0  0  0  0  0  0
   -3.7648    0.2109   -0.0537 C   0  0  0  0  0  0  0  0  0  0  0  0
   -0.8919   -2.4696    0.9941 C   0  0  0  0  0  0  0  0  0  0  0  0
    2.1633   -0.9094   -1.1502 H   0  0  0  0  0  0  0  0  0  0  0  0
    3.1901    1.1038   -0.8642 H   0  0  0  0  0  0  0  0  0  0  0  0
    2.1898    1.4358    0.5631 H   0  0  0  0  0  0  0  0  0  0  0  0
    3.6222   -0.2162    1.8783 H   0  0  0  0  0  0  0  0  0  0  0  0
    4.6622   -0.3823    0.4734 H   0  0  0  0  0  0  0  0  0  0  0  0
    4.1155    2.2519    1.9815 H   0  0  0  0  0  0  0  0  0  0  0  0
    5.5461    1.2376    2.1932 H   0  0  0  0  0  0  0  0  0  0  0  0
    4.1759    3.9569    0.1326 H   0  0  0  0  0  0  0  0  0  0  0  0
    6.0637    4.5169   -1.8095 H   0  0  0  0  0  0  0  0  0  0  0  0
    7.1505    0.9514    0.0763 H   0  0  0  0  0  0  0  0  0  0  0  0
    0.9512   -2.9890    0.0003 H   0  0  0  0  0  0  0  0  0  0  0  0
    0.2229   -2.2641   -2.0929 H   0  0  0  0  0  0  0  0  0  0  0  0
   -0.5404   -0.7784   -1.4530 H   0  0  0  0  0  0  0  0  0  0  0  0
   -3.1152   -4.0355    1.3798 H   0  0  0  0  0  0  0  0  0  0  0  0
   -3.8090   -3.7600   -0.2234 H   0  0  0  0  0  0  0  0  0  0  0  0
   -3.5504   -1.6484    2.0004 H   0  0  0  0  0  0  0  0  0  0  0  0
   -5.0176   -2.5013    1.5652 H   0  0  0  0  0  0  0  0  0  0  0  0
   -6.1011   -1.9414   -1.0459 H   0  0  0  0  0  0  0  0  0  0  0  0
   -5.9334    0.1443   -2.4104 H   0  0  0  0  0  0  0  0  0  0  0  0
   -4.4384    2.5149   -2.5192 H   0  0  0  0  0  0  0  0  0  0  0  0
   -2.5666    3.6779   -1.3705 H   0  0  0  0  0  0  0  0  0  0  0  0
   -2.2295    0.4609    1.4659 H   0  0  0  0  0  0  0  0  0  0  0  0
   -1.2566   -1.6165    1.5701 H   0  0  0  0  0  0  0  0  0  0  0  0
   -0.6407   -3.2782    1.6879 H   0  0  0  0  0  0  0  0  0  0  0  0
  1  2  2  0
  2  3  1  0
  3  4  1  0
  4  5  1  0
  5  6  1  0
  6  7  1  0
  7  8  1  0
  8  9  2  0
  9 10  1  0
 10 11  2  0
  2 12  1  0
 12 13  1  0
 13 14  1  0
 14 15  2  0
 14 16  1  0
 16 17  1  0
 17 18  1  0
 18 19  1  0
 19 20  2  0
 20 21  1  0
 21 22  1  0
 22 23  2  0
 23 24  1  0
 24 25  2  0
 25 26  1  0
 25 27  1  0
 27 28  2  0
 16 29  1  0
 11  7  1  0
 29 12  1  0
 28 19  1  0
 28 22  1  0
  3 30  1  0
  4 31  1  0
  4 32  1  0
  5 33  1  0
  5 34  1  0
  6 35  1  0
  6 36  1  0
  8 37  1  0
  9 38  1  0
 11 39  1  0
 12 40  1  0
 13 41  1  0
 13 42  1  0
 17 43  1  0
 17 44  1  0
 18 45  1  0
 18 46  1  0
 20 47  1  0
 21 48  1  0
 23 49  1  0
 24 50  1  0
 27 51  1  0
 29 52  1  0
 29 53  1  0
M  END
$$$$
