
     RDKit          3D

 29 30  0  0  0  0  0  0  0  0999 V2000
   -0.8410   -1.2081    1.0477 O   0  0  0  0  0  0  0  0  0  0  0  0
   -1.3655   -0.4183    0.2685 C   0  0  0  0  0  0  0  0  0  0  0  0
   -0.7061    0.5388   -0.4980 N   0  0  0  0  0  0  0  0  0  0  0  0
    0.6359    0.8172   -0.4282 N   0  0  0  0  0  0  0  0  0  0  0  0
    1.4503   -0.1725   -0.2365 C   0  0  0  0  0  0  0  0  0  0  0  0
    2.9064    0.0393   -0.0987 C   0  0  0  0  0  0  0  0  0  0  0  0
    3.7303   -1.0712    0.1126 C   0  0  0  0  0  0  0  0  0  0  0  0
    5.1104   -0.8959    0.2447 C   0  0  0  0  0  0  0  0  0  0  0  0
    5.6581    0.3849    0.1658 C   0  0  0  0  0  0  0  0  0  0  0  0
    7.3577    0.5973    0.3281 Cl  0  0  0  0  0  0  0  0  0  0  0  0
    4.8389    1.4942   -0.0429 C   0  0  0  0  0  0  0  0  0  0  0  0
    3.4587    1.3224   -0.1752 C   0  0  0  0  0  0  0  0  0  0  0  0
   -2.8500   -0.4190    0.1287 C   0  0  0  0  0  0  0  0  0  0  0  0
   -3.4812   -0.0546   -1.0688 C   0  0  0  0  0  0  0  0  0  0  0  0
   -4.8753   -0.0715   -1.1558 C   0  0  0  0  0  0  0  0  0  0  0  0
   -5.6407   -0.4579   -0.0554 C   0  0  0  0  0  0  0  0  0  0  0  0
   -5.0166   -0.8370    1.1326 C   0  0  0  0  0  0  0  0  0  0  0  0
   -3.6240   -0.8229    1.2242 C   0  0  0  0  0  0  0  0  0  0  0  0
   -1.2536    1.3274   -0.8288 H   0  0  0  0  0  0  0  0  0  0  0  0
    1.1140   -1.2227   -0.1954 H   0  0  0  0  0  0  0  0  0  0  0  0
    3.3095   -2.0716    0.1802 H   0  0  0  0  0  0  0  0  0  0  0  0
    5.7505   -1.7586    0.4105 H   0  0  0  0  0  0  0  0  0  0  0  0
    5.2654    2.4920   -0.1022 H   0  0  0  0  0  0  0  0  0  0  0  0
    2.8214    2.1890   -0.3354 H   0  0  0  0  0  0  0  0  0  0  0  0
   -2.9057    0.2171   -1.9497 H   0  0  0  0  0  0  0  0  0  0  0  0
   -5.3663    0.2069   -2.0854 H   0  0  0  0  0  0  0  0  0  0  0  0
   -6.7258   -0.4733   -0.1264 H   0  0  0  0  0  0  0  0  0  0  0  0
   -5.6132   -1.1477    1.9869 H   0  0  0  0  0  0  0  0  0  0  0  0
   -3.1423   -1.1249    2.1525 H   0  0  0  0  0  0  0  0  0  0  0  0
  1  2  2  0
  2  3  1  0
  3  4  1  0
  4  5  2  0
  5  6  1  0
  6  7  2  0
  7  8  1  0
  8  9  2  0
  9 10  1  0
  9 11  1  0
 11 12  2  0
  2 13  1  0
 13 14  2  0
 14 15  1  0
 15 16  2  0
 16 17  1  0
 17 18  2  0
 12  6  1  0
 18 13  1  0
  3 19  1  0
  5 20  1  0
  7 21  1  0
  8 22  1  0
 11 23  1  0
 12 24  1  0
 14 25  1  0
 15 26  1  0
 16 27  1  0
 17 28  1  0
 18 29  1  0
M  END
$$$$
