
     RDKit          3D

 44 48  0  0  0  0  0  0  0  0999 V2000
    5.6102   -0.9130    0.5404 C   0  0  0  0  0  0  0  0  0  0  0  0
    4.3943   -1.6440    0.5950 O   0  0  0  0  0  0  0  0  0  0  0  0
    3.2161   -0.9483    0.4886 C   0  0  0  0  0  0  0  0  0  0  0  0
    3.1158    0.4470    0.4972 C   0  0  0  0  0  0  0  0  0  0  0  0
    1.8698    1.1118    0.3935 C   0  0  0  0  0  0  0  0  0  0  0  0
    1.7584    2.5210    0.4171 C   0  0  0  0  0  0  0  0  0  0  0  0
    2.8186    3.3605    0.6146 O   0  0  0  0  0  0  0  0  0  0  0  0
    0.5316    3.1266    0.2457 C   0  0  0  0  0  0  0  0  0  0  0  0
   -0.6069    2.3713    0.0866 C   0  0  0  0  0  0  0  0  0  0  0  0
   -0.5855    0.9755    0.0862 C   0  0  0  0  0  0  0  0  0  0  0  0
   -1.8310    0.2083   -0.0790 C   0  0  0  0  0  0  0  0  0  0  0  0
   -2.6050   -0.1521    1.0512 C   0  0  0  0  0  0  0  0  0  0  0  0
   -3.7827   -0.8949    0.9159 C   0  0  0  0  0  0  0  0  0  0  0  0
   -4.1642   -1.2625   -0.3550 C   0  0  0  0  0  0  0  0  0  0  0  0
   -3.4235   -0.9190   -1.4606 C   0  0  0  0  0  0  0  0  0  0  0  0
   -2.2581   -0.1885   -1.3586 C   0  0  0  0  0  0  0  0  0  0  0  0
   -3.9702   -1.3836   -2.6162 O   0  0  0  0  0  0  0  0  0  0  0  0
   -5.1628   -2.0209   -2.1135 C   0  0  0  0  0  0  0  0  0  0  0  0
   -5.2712   -1.9842   -0.6754 O   0  0  0  0  0  0  0  0  0  0  0  0
    0.6842    0.3308    0.2417 C   0  0  0  0  0  0  0  0  0  0  0  0
    0.8163   -1.0800    0.2476 C   0  0  0  0  0  0  0  0  0  0  0  0
    2.0536   -1.7201    0.3746 C   0  0  0  0  0  0  0  0  0  0  0  0
    2.2280   -3.0815    0.3858 O   0  0  0  0  0  0  0  0  0  0  0  0
    1.0744   -3.9013    0.2595 C   0  0  0  0  0  0  0  0  0  0  0  0
   -1.7374    3.2943   -0.0548 C   0  0  0  0  0  0  0  0  0  0  0  0
   -2.9095    3.0197   -0.2086 O   0  0  0  0  0  0  0  0  0  0  0  0
   -1.2289    4.5615    0.0249 O   0  0  0  0  0  0  0  0  0  0  0  0
    0.1977    4.5613    0.2138 C   0  0  0  0  0  0  0  0  0  0  0  0
    5.6882   -0.3398   -0.3894 H   0  0  0  0  0  0  0  0  0  0  0  0
    5.7175   -0.2645    1.4159 H   0  0  0  0  0  0  0  0  0  0  0  0
    6.4346   -1.6324    0.5574 H   0  0  0  0  0  0  0  0  0  0  0  0
    4.0227    1.0356    0.5676 H   0  0  0  0  0  0  0  0  0  0  0  0
    3.4946    2.9011    1.1390 H   0  0  0  0  0  0  0  0  0  0  0  0
   -2.2890    0.1555    2.0465 H   0  0  0  0  0  0  0  0  0  0  0  0
   -4.3796   -1.1656    1.7792 H   0  0  0  0  0  0  0  0  0  0  0  0
   -1.6967    0.0705   -2.2502 H   0  0  0  0  0  0  0  0  0  0  0  0
   -5.1618   -3.0681   -2.4369 H   0  0  0  0  0  0  0  0  0  0  0  0
   -6.0377   -1.5208   -2.5452 H   0  0  0  0  0  0  0  0  0  0  0  0
   -0.0804   -1.6839    0.1451 H   0  0  0  0  0  0  0  0  0  0  0  0
    0.5763   -3.7370   -0.7016 H   0  0  0  0  0  0  0  0  0  0  0  0
    1.4016   -4.9451    0.2893 H   0  0  0  0  0  0  0  0  0  0  0  0
    0.3855   -3.7456    1.0962 H   0  0  0  0  0  0  0  0  0  0  0  0
    0.4272    5.0645    1.1572 H   0  0  0  0  0  0  0  0  0  0  0  0
    0.6647    5.0798   -0.6281 H   0  0  0  0  0  0  0  0  0  0  0  0
  1  2  1  0
  2  3  1  0
  3  4  2  0
  4  5  1  0
  5  6  2  0
  6  7  1  0
  6  8  1  0
  8  9  2  0
  9 10  1  0
 10 11  1  0
 11 12  2  0
 12 13  1  0
 13 14  2  0
 14 15  1  0
 15 16  2  0
 15 17  1  0
 17 18  1  0
 18 19  1  0
 10 20  2  0
 20 21  1  0
 21 22  2  0
 22 23  1  0
 23 24  1  0
  9 25  1  0
 25 26  2  0
 25 27  1  0
 27 28  1  0
 22  3  1  0
 20  5  1  0
 28  8  1  0
 16 11  1  0
 19 14  1  0
  1 29  1  0
  1 30  1  0
  1 31  1  0
  4 32  1  0
  7 33  1  0
 12 34  1  0
 13 35  1  0
 16 36  1  0
 18 37  1  0
 18 38  1  0
 21 39  1  0
 24 40  1  0
 24 41  1  0
 24 42  1  0
 28 43  1  0
 28 44  1  0
M  END
$$$$
