
     RDKit          3D

119117  0  0  0  0  0  0  0  0999 V2000
  -12.1389    0.1887    0.5247 C   0  0  0  0  0  0  0  0  0  0  0  0
  -11.0839   -0.7224   -0.1072 C   0  0  0  0  0  0  0  0  0  0  0  0
  -11.5539   -1.1712   -1.4932 C   0  0  0  0  0  0  0  0  0  0  0  0
   -9.7352    0.0107   -0.1847 C   0  0  0  0  0  0  0  0  0  0  0  0
   -8.5533   -0.9109   -0.4457 C   0  0  0  0  0  0  0  0  0  0  0  0
   -8.6228   -2.1342   -0.4541 O   0  0  0  0  0  0  0  0  0  0  0  0
   -7.3838   -0.2190   -0.6733 N   0  0  0  0  0  0  0  0  0  0  0  0
   -6.0922   -0.9037   -0.6934 C   0  0  2  0  0  0  0  0  0  0  0  0
   -5.3690   -0.5763    0.6306 C   0  0  0  0  0  0  0  0  0  0  0  0
   -5.6784    0.3968    1.3202 O   0  0  0  0  0  0  0  0  0  0  0  0
   -4.3298   -1.4265    0.9490 N   0  0  0  0  0  0  0  0  0  0  0  0
   -3.3363   -1.0362    1.9473 C   0  0  2  0  0  0  0  0  0  0  0  0
   -2.1411   -0.4232    1.1838 C   0  0  0  0  0  0  0  0  0  0  0  0
   -1.9336   -0.6727   -0.0038 O   0  0  0  0  0  0  0  0  0  0  0  0
   -1.3229    0.3754    1.9466 N   0  0  0  0  0  0  0  0  0  0  0  0
   -0.0600    0.9504    1.4611 C   0  0  1  0  0  0  0  0  0  0  0  0
   -0.2807    2.3805    0.9165 C   0  0  0  0  0  0  0  0  0  0  0  0
   -1.0872    2.4815   -0.3956 C   0  0  0  0  0  0  0  0  0  0  0  0
   -0.3346    1.8672   -1.5774 C   0  0  0  0  0  0  0  0  0  0  0  0
   -1.4029    3.9491   -0.7031 C   0  0  0  0  0  0  0  0  0  0  0  0
    0.9604    0.9357    2.6424 C   0  0  1  0  0  0  0  0  0  0  0  0
    1.0559   -0.3953    3.1778 O   0  0  0  0  0  0  0  0  0  0  0  0
    2.3625    1.4608    2.3303 C   0  0  0  0  0  0  0  0  0  0  0  0
    3.0101    0.7473    1.1650 C   0  0  0  0  0  0  0  0  0  0  0  0
    2.7203   -0.4019    0.8481 O   0  0  0  0  0  0  0  0  0  0  0  0
    3.9517    1.5083    0.5167 N   0  0  0  0  0  0  0  0  0  0  0  0
    4.8346    0.9433   -0.5021 C   0  0  1  0  0  0  0  0  0  0  0  0
    4.6921    1.7153   -1.8064 C   0  0  0  0  0  0  0  0  0  0  0  0
    6.2755    1.0322    0.0360 C   0  0  0  0  0  0  0  0  0  0  0  0
    6.5512    1.6478    1.0657 O   0  0  0  0  0  0  0  0  0  0  0  0
    7.2204    0.4082   -0.7415 N   0  0  0  0  0  0  0  0  0  0  0  0
    8.6219    0.2973   -0.3513 C   0  0  1  0  0  0  0  0  0  0  0  0
    8.8526   -0.8569    0.6546 C   0  0  0  0  0  0  0  0  0  0  0  0
    8.7851   -2.3145    0.1530 C   0  0  0  0  0  0  0  0  0  0  0  0
    9.2568   -3.2537    1.2719 C   0  0  0  0  0  0  0  0  0  0  0  0
    7.3864   -2.7378   -0.2932 C   0  0  0  0  0  0  0  0  0  0  0  0
    9.5253    0.2216   -1.6122 C   0  0  1  0  0  0  0  0  0  0  0  0
    8.9862   -0.7526   -2.5248 O   0  0  0  0  0  0  0  0  0  0  0  0
    9.5994    1.5584   -2.3558 C   0  0  0  0  0  0  0  0  0  0  0  0
   10.3572    2.5875   -1.5696 C   0  0  0  0  0  0  0  0  0  0  0  0
   11.1396    2.3804   -0.6588 O   0  0  0  0  0  0  0  0  0  0  0  0
   10.1124    3.8386   -2.0011 O   0  0  0  0  0  0  0  0  0  0  0  0
   -2.8912   -2.2114    2.8441 C   0  0  0  0  0  0  0  0  0  0  0  0
   -4.0477   -2.6871    3.7295 C   0  0  0  0  0  0  0  0  0  0  0  0
   -2.3169   -3.3935    2.0584 C   0  0  0  0  0  0  0  0  0  0  0  0
   -5.2340   -0.4988   -1.9144 C   0  0  0  0  0  0  0  0  0  0  0  0
   -4.9708    1.0086   -1.9973 C   0  0  0  0  0  0  0  0  0  0  0  0
   -5.8750   -0.9873   -3.2159 C   0  0  0  0  0  0  0  0  0  0  0  0
    0.9881    1.1845   -0.8663 O   0  0  0  0  0  0  0  0  0  0  0  0
    0.5413    0.2648   -0.1907 C   0  0  0  0  0  0  0  0  0  0  0  0
    1.4124   -0.6178    0.3635 O   0  0  0  0  0  0  0  0  0  0  0  0
   -0.9335   -0.0504    0.0830 C   0  0  0  0  0  0  0  0  0  0  0  0
   -1.1546   -0.4679    1.3620 F   0  0  0  0  0  0  0  0  0  0  0  0
   -1.4041   -1.0406   -0.7271 F   0  0  0  0  0  0  0  0  0  0  0  0
   -1.7482    1.0242   -0.1140 F   0  0  0  0  0  0  0  0  0  0  0  0
  -11.8437    0.4796    1.5379 H   0  0  0  0  0  0  0  0  0  0  0  0
  -12.2772    1.1021   -0.0637 H   0  0  0  0  0  0  0  0  0  0  0  0
  -13.1049   -0.3216    0.5947 H   0  0  0  0  0  0  0  0  0  0  0  0
  -10.9830   -1.6115    0.5280 H   0  0  0  0  0  0  0  0  0  0  0  0
  -10.8398   -1.8598   -1.9547 H   0  0  0  0  0  0  0  0  0  0  0  0
  -12.5154   -1.6915   -1.4244 H   0  0  0  0  0  0  0  0  0  0  0  0
  -11.6822   -0.3156   -2.1658 H   0  0  0  0  0  0  0  0  0  0  0  0
   -9.5356    0.5116    0.7718 H   0  0  0  0  0  0  0  0  0  0  0  0
   -9.7653    0.7826   -0.9646 H   0  0  0  0  0  0  0  0  0  0  0  0
   -7.3523    0.7336   -0.3203 H   0  0  0  0  0  0  0  0  0  0  0  0
   -6.2564   -1.9877   -0.7090 H   0  0  0  0  0  0  0  0  0  0  0  0
   -3.9616   -1.9876    0.1879 H   0  0  0  0  0  0  0  0  0  0  0  0
   -3.7541   -0.2437    2.5781 H   0  0  0  0  0  0  0  0  0  0  0  0
   -1.4864    0.4066    2.9475 H   0  0  0  0  0  0  0  0  0  0  0  0
    0.3034    0.2934    0.6653 H   0  0  0  0  0  0  0  0  0  0  0  0
   -0.7894    2.9708    1.6908 H   0  0  0  0  0  0  0  0  0  0  0  0
    0.6862    2.8649    0.7450 H   0  0  0  0  0  0  0  0  0  0  0  0
   -2.0452    1.9657   -0.2804 H   0  0  0  0  0  0  0  0  0  0  0  0
   -0.9097    1.9785   -2.5026 H   0  0  0  0  0  0  0  0  0  0  0  0
   -0.1510    0.7989   -1.4355 H   0  0  0  0  0  0  0  0  0  0  0  0
    0.6347    2.3576   -1.7223 H   0  0  0  0  0  0  0  0  0  0  0  0
   -0.4857    4.5335   -0.8333 H   0  0  0  0  0  0  0  0  0  0  0  0
   -1.9926    4.0338   -1.6228 H   0  0  0  0  0  0  0  0  0  0  0  0
   -1.9820    4.4025    0.1078 H   0  0  0  0  0  0  0  0  0  0  0  0
    0.5545    1.5464    3.4597 H   0  0  0  0  0  0  0  0  0  0  0  0
    1.3944   -0.9579    2.4489 H   0  0  0  0  0  0  0  0  0  0  0  0
    3.0163    1.2952    3.1955 H   0  0  0  0  0  0  0  0  0  0  0  0
    2.3337    2.5380    2.1349 H   0  0  0  0  0  0  0  0  0  0  0  0
    4.3650    2.2717    1.0437 H   0  0  0  0  0  0  0  0  0  0  0  0
    4.5921   -0.1120   -0.6632 H   0  0  0  0  0  0  0  0  0  0  0  0
    4.9859    2.7635   -1.6805 H   0  0  0  0  0  0  0  0  0  0  0  0
    5.3209    1.2866   -2.5933 H   0  0  0  0  0  0  0  0  0  0  0  0
    3.6547    1.7001   -2.1575 H   0  0  0  0  0  0  0  0  0  0  0  0
    6.9358   -0.1663   -1.5274 H   0  0  0  0  0  0  0  0  0  0  0  0
    8.8667    1.2100    0.2055 H   0  0  0  0  0  0  0  0  0  0  0  0
    9.8521   -0.7019    1.0840 H   0  0  0  0  0  0  0  0  0  0  0  0
    8.1504   -0.7412    1.4925 H   0  0  0  0  0  0  0  0  0  0  0  0
    9.4770   -2.4499   -0.6853 H   0  0  0  0  0  0  0  0  0  0  0  0
    9.2643   -4.2946    0.9312 H   0  0  0  0  0  0  0  0  0  0  0  0
    8.6044   -3.1881    2.1493 H   0  0  0  0  0  0  0  0  0  0  0  0
   10.2744   -3.0037    1.5886 H   0  0  0  0  0  0  0  0  0  0  0  0
    7.0915   -2.2469   -1.2227 H   0  0  0  0  0  0  0  0  0  0  0  0
    7.3470   -3.8169   -0.4833 H   0  0  0  0  0  0  0  0  0  0  0  0
    6.6373   -2.5088    0.4709 H   0  0  0  0  0  0  0  0  0  0  0  0
   10.5307   -0.1084   -1.3221 H   0  0  0  0  0  0  0  0  0  0  0  0
    9.6744   -0.9450   -3.1882 H   0  0  0  0  0  0  0  0  0  0  0  0
    8.5910    1.9284   -2.5743 H   0  0  0  0  0  0  0  0  0  0  0  0
   10.1104    1.4232   -3.3154 H   0  0  0  0  0  0  0  0  0  0  0  0
   10.6469    4.4144   -1.4136 H   0  0  0  0  0  0  0  0  0  0  0  0
   -2.0986   -1.8518    3.5124 H   0  0  0  0  0  0  0  0  0  0  0  0
   -3.7091   -3.4643    4.4223 H   0  0  0  0  0  0  0  0  0  0  0  0
   -4.8670   -3.1026    3.1323 H   0  0  0  0  0  0  0  0  0  0  0  0
   -4.4483   -1.8614    4.3279 H   0  0  0  0  0  0  0  0  0  0  0  0
   -1.4494   -3.0925    1.4650 H   0  0  0  0  0  0  0  0  0  0  0  0
   -1.9845   -4.1815    2.7442 H   0  0  0  0  0  0  0  0  0  0  0  0
   -3.0582   -3.8316    1.3842 H   0  0  0  0  0  0  0  0  0  0  0  0
   -4.2566   -0.9940   -1.8287 H   0  0  0  0  0  0  0  0  0  0  0  0
   -4.3204    1.2364   -2.8497 H   0  0  0  0  0  0  0  0  0  0  0  0
   -4.4707    1.3772   -1.0963 H   0  0  0  0  0  0  0  0  0  0  0  0
   -5.8975    1.5749   -2.1320 H   0  0  0  0  0  0  0  0  0  0  0  0
   -6.0420   -2.0699   -3.1845 H   0  0  0  0  0  0  0  0  0  0  0  0
   -6.8380   -0.5013   -3.4002 H   0  0  0  0  0  0  0  0  0  0  0  0
   -5.2237   -0.7749   -4.0700 H   0  0  0  0  0  0  0  0  0  0  0  0
    2.2987   -0.2969    0.0896 H   0  0  0  0  0  0  0  0  0  0  0  0
  1  2  1  0
  2  3  1  0
  2  4  1  0
  4  5  1  0
  5  6  2  0
  5  7  1  0
  7  8  1  0
  8  9  1  0
  9 10  2  0
  9 11  1  0
 11 12  1  0
 12 13  1  0
 13 14  2  0
 13 15  1  0
 15 16  1  0
 16 17  1  0
 17 18  1  0
 18 19  1  0
 18 20  1  0
 16 21  1  0
 21 22  1  0
 21 23  1  0
 23 24  1  0
 24 25  2  0
 24 26  1  0
 26 27  1  0
 27 28  1  0
 27 29  1  0
 29 30  2  0
 29 31  1  0
 31 32  1  0
 32 33  1  0
 33 34  1  0
 34 35  1  0
 34 36  1  0
 32 37  1  0
 37 38  1  0
 37 39  1  0
 39 40  1  0
 40 41  2  0
 40 42  1  0
 12 43  1  0
 43 44  1  0
 43 45  1  0
  8 46  1  0
 46 47  1  0
 46 48  1  0
 49 50  2  0
 50 51  1  0
 50 52  1  0
 52 53  1  0
 52 54  1  0
 52 55  1  0
  1 56  1  0
  1 57  1  0
  1 58  1  0
  2 59  1  0
  3 60  1  0
  3 61  1  0
  3 62  1  0
  4 63  1  0
  4 64  1  0
  7 65  1  0
  8 66  1  6
 11 67  1  0
 12 68  1  1
 15 69  1  0
 16 70  1  6
 17 71  1  0
 17 72  1  0
 18 73  1  0
 19 74  1  0
 19 75  1  0
 19 76  1  0
 20 77  1  0
 20 78  1  0
 20 79  1  0
 21 80  1  1
 22 81  1  0
 23 82  1  0
 23 83  1  0
 26 84  1  0
 27 85  1  6
 28 86  1  0
 28 87  1  0
 28 88  1  0
 31 89  1  0
 32 90  1  1
 33 91  1  0
 33 92  1  0
 34 93  1  0
 35 94  1  0
 35 95  1  0
 35 96  1  0
 36 97  1  0
 36 98  1  0
 36 99  1  0
 37100  1  1
 38101  1  0
 39102  1  0
 39103  1  0
 42104  1  0
 43105  1  0
 44106  1  0
 44107  1  0
 44108  1  0
 45109  1  0
 45110  1  0
 45111  1  0
 46112  1  0
 47113  1  0
 47114  1  0
 47115  1  0
 48116  1  0
 48117  1  0
 48118  1  0
 51119  1  0
M  END
$$$$
