
     RDKit          3D

 57 59  0  0  0  0  0  0  0  0999 V2000
   -5.6789   -0.6039    0.5444 C   0  0  0  0  0  0  0  0  0  0  0  0
   -4.9521    0.6720    1.0435 C   0  0  0  0  0  0  0  0  0  0  0  0
   -5.6005    1.8563    0.2916 C   0  0  0  0  0  0  0  0  0  0  0  0
   -5.2620    0.7786    2.5537 C   0  0  0  0  0  0  0  0  0  0  0  0
   -3.4252    0.6560    0.8074 C   0  0  0  0  0  0  0  0  0  0  0  0
   -2.7804   -0.4367    0.1901 C   0  0  0  0  0  0  0  0  0  0  0  0
   -1.3783   -0.5198   -0.0593 C   0  0  0  0  0  0  0  0  0  0  0  0
   -0.8269   -1.8001   -0.7517 C   0  0  0  0  0  0  0  0  0  0  0  0
   -1.9108   -2.8674   -1.0979 C   0  0  0  0  0  0  0  0  0  0  0  0
    0.1526   -2.5457    0.1837 C   0  0  0  0  0  0  0  0  0  0  0  0
   -0.1917   -1.4499   -2.1172 C   0  0  0  0  0  0  0  0  0  0  0  0
   -0.5821    0.5860    0.3487 C   0  0  0  0  0  0  0  0  0  0  0  0
    0.8271    0.6055    0.1470 N   0  0  0  0  0  0  0  0  0  0  0  0
    1.7387    1.5913    0.4816 C   0  0  0  0  0  0  0  0  0  0  0  0
    1.4806    2.6593    1.0332 O   0  0  0  0  0  0  0  0  0  0  0  0
    3.1626    1.2874    0.1212 C   0  0  0  0  0  0  0  0  0  0  0  0
    4.1024    2.2066    0.4068 C   0  0  0  0  0  0  0  0  0  0  0  0
    5.4421    2.0887    0.1391 N   0  0  0  0  0  0  0  0  0  0  0  0
    5.9609    0.9163   -0.4193 C   0  0  0  0  0  0  0  0  0  0  0  0
    7.3276    0.7788   -0.6732 C   0  0  0  0  0  0  0  0  0  0  0  0
    7.8213   -0.3889   -1.2627 C   0  0  0  0  0  0  0  0  0  0  0  0
    6.9524   -1.4236   -1.6120 C   0  0  0  0  0  0  0  0  0  0  0  0
    5.5843   -1.2939   -1.3764 C   0  0  0  0  0  0  0  0  0  0  0  0
    5.0928   -0.1246   -0.7857 C   0  0  0  0  0  0  0  0  0  0  0  0
    3.6366    0.0340   -0.5306 C   0  0  0  0  0  0  0  0  0  0  0  0
    2.8517   -0.8557   -0.8478 O   0  0  0  0  0  0  0  0  0  0  0  0
   -1.2165    1.6767    0.9632 C   0  0  0  0  0  0  0  0  0  0  0  0
   -2.5967    1.7110    1.1861 C   0  0  0  0  0  0  0  0  0  0  0  0
   -3.1265    2.8174    1.7924 O   0  0  0  0  0  0  0  0  0  0  0  0
   -6.7577   -0.5449    0.7340 H   0  0  0  0  0  0  0  0  0  0  0  0
   -5.3151   -1.5030    1.0555 H   0  0  0  0  0  0  0  0  0  0  0  0
   -5.5533   -0.7450   -0.5356 H   0  0  0  0  0  0  0  0  0  0  0  0
   -5.2748    2.8296    0.6691 H   0  0  0  0  0  0  0  0  0  0  0  0
   -6.6926    1.8343    0.3882 H   0  0  0  0  0  0  0  0  0  0  0  0
   -5.3606    1.8212   -0.7777 H   0  0  0  0  0  0  0  0  0  0  0  0
   -4.9273    1.7234    2.9912 H   0  0  0  0  0  0  0  0  0  0  0  0
   -4.7786   -0.0318    3.1120 H   0  0  0  0  0  0  0  0  0  0  0  0
   -6.3406    0.7137    2.7405 H   0  0  0  0  0  0  0  0  0  0  0  0
   -3.4054   -1.2677   -0.1125 H   0  0  0  0  0  0  0  0  0  0  0  0
   -2.6628   -2.4753   -1.7930 H   0  0  0  0  0  0  0  0  0  0  0  0
   -2.4247   -3.2335   -0.2010 H   0  0  0  0  0  0  0  0  0  0  0  0
   -1.4601   -3.7430   -1.5822 H   0  0  0  0  0  0  0  0  0  0  0  0
   -0.3670   -2.8934    1.0855 H   0  0  0  0  0  0  0  0  0  0  0  0
    0.5758   -3.4272   -0.3126 H   0  0  0  0  0  0  0  0  0  0  0  0
    0.9928   -1.9474    0.5333 H   0  0  0  0  0  0  0  0  0  0  0  0
    0.2332   -2.3417   -2.5931 H   0  0  0  0  0  0  0  0  0  0  0  0
   -0.9482   -1.0415   -2.7992 H   0  0  0  0  0  0  0  0  0  0  0  0
    0.6040   -0.7077   -2.0723 H   0  0  0  0  0  0  0  0  0  0  0  0
    1.2330   -0.2089   -0.3040 H   0  0  0  0  0  0  0  0  0  0  0  0
    3.8491    3.1488    0.8893 H   0  0  0  0  0  0  0  0  0  0  0  0
    6.0765    2.7874    0.5100 H   0  0  0  0  0  0  0  0  0  0  0  0
    8.0199    1.5764   -0.4172 H   0  0  0  0  0  0  0  0  0  0  0  0
    8.8874   -0.4900   -1.4537 H   0  0  0  0  0  0  0  0  0  0  0  0
    7.3411   -2.3293   -2.0718 H   0  0  0  0  0  0  0  0  0  0  0  0
    4.9073   -2.0985   -1.6539 H   0  0  0  0  0  0  0  0  0  0  0  0
   -0.6455    2.5368    1.2872 H   0  0  0  0  0  0  0  0  0  0  0  0
   -2.4111    3.4463    1.9838 H   0  0  0  0  0  0  0  0  0  0  0  0
  1  2  1  0
  2  3  1  0
  2  4  1  0
  2  5  1  0
  5  6  2  0
  6  7  1  0
  7  8  1  0
  8  9  1  0
  8 10  1  0
  8 11  1  0
  7 12  2  0
 12 13  1  0
 13 14  1  0
 14 15  2  0
 14 16  1  0
 16 17  2  0
 17 18  1  0
 18 19  1  0
 19 20  2  0
 20 21  1  0
 21 22  2  0
 22 23  1  0
 23 24  2  0
 24 25  1  0
 25 26  2  0
 12 27  1  0
 27 28  2  0
 28 29  1  0
 28  5  1  0
 25 16  1  0
 24 19  1  0
  1 30  1  0
  1 31  1  0
  1 32  1  0
  3 33  1  0
  3 34  1  0
  3 35  1  0
  4 36  1  0
  4 37  1  0
  4 38  1  0
  6 39  1  0
  9 40  1  0
  9 41  1  0
  9 42  1  0
 10 43  1  0
 10 44  1  0
 10 45  1  0
 11 46  1  0
 11 47  1  0
 11 48  1  0
 13 49  1  0
 17 50  1  0
 18 51  1  0
 20 52  1  0
 21 53  1  0
 22 54  1  0
 23 55  1  0
 27 56  1  0
 29 57  1  0
M  END
$$$$
