
     RDKit          3D

 31 33  0  0  0  0  0  0  0  0999 V2000
   -4.4290    2.5459   -0.6235 C   0  0  0  0  0  0  0  0  0  0  0  0
   -3.6105    1.3105   -0.3909 C   0  0  0  0  0  0  0  0  0  0  0  0
   -4.1054    0.0534   -0.7542 C   0  0  0  0  0  0  0  0  0  0  0  0
   -3.3268   -1.0895   -0.5743 C   0  0  0  0  0  0  0  0  0  0  0  0
   -2.0431   -0.9853   -0.0360 C   0  0  0  0  0  0  0  0  0  0  0  0
   -1.5242    0.2631    0.3259 C   0  0  0  0  0  0  0  0  0  0  0  0
   -0.1808    0.3673    0.8904 C   0  0  0  0  0  0  0  0  0  0  0  0
    0.0668    1.1285    2.0237 C   0  0  0  0  0  0  0  0  0  0  0  0
    1.7167    1.0947    2.5039 S   0  0  0  0  0  0  0  0  0  0  0  0
    2.1107    0.0625    1.2219 C   0  0  0  0  0  0  0  0  0  0  0  0
    3.4290   -0.4359    0.9561 C   0  0  0  0  0  0  0  0  0  0  0  0
    4.4343   -0.1754    1.6130 O   0  0  0  0  0  0  0  0  0  0  0  0
    3.4627   -1.2768   -0.1529 N   0  0  0  0  0  0  0  0  0  0  0  0
    4.7431   -1.8323   -0.5596 C   0  0  0  0  0  0  0  0  0  0  0  0
    5.4316   -0.9596   -1.5255 C   0  0  0  0  0  0  0  0  0  0  0  0
    5.9585   -0.2901   -2.3139 N   0  0  0  0  0  0  0  0  0  0  0  0
    2.3261   -1.5334   -0.8977 C   0  0  0  0  0  0  0  0  0  0  0  0
    1.1295   -1.0927   -0.6710 N   0  0  0  0  0  0  0  0  0  0  0  0
    1.0259   -0.2535    0.4505 C   0  0  0  0  0  0  0  0  0  0  0  0
   -2.3139    1.4079    0.1362 C   0  0  0  0  0  0  0  0  0  0  0  0
   -5.4992    2.3252   -0.5522 H   0  0  0  0  0  0  0  0  0  0  0  0
   -4.2046    3.3096    0.1285 H   0  0  0  0  0  0  0  0  0  0  0  0
   -4.2173    2.9533   -1.6169 H   0  0  0  0  0  0  0  0  0  0  0  0
   -5.1000   -0.0429   -1.1837 H   0  0  0  0  0  0  0  0  0  0  0  0
   -3.7171   -2.0632   -0.8580 H   0  0  0  0  0  0  0  0  0  0  0  0
   -1.4504   -1.8874    0.0956 H   0  0  0  0  0  0  0  0  0  0  0  0
   -0.6389    1.7050    2.6071 H   0  0  0  0  0  0  0  0  0  0  0  0
    4.5681   -2.8118   -1.0197 H   0  0  0  0  0  0  0  0  0  0  0  0
    5.3782   -1.9945    0.3180 H   0  0  0  0  0  0  0  0  0  0  0  0
    2.4959   -2.1918   -1.7659 H   0  0  0  0  0  0  0  0  0  0  0  0
   -1.9161    2.3893    0.3867 H   0  0  0  0  0  0  0  0  0  0  0  0
  1  2  1  0
  2  3  2  0
  3  4  1  0
  4  5  2  0
  5  6  1  0
  6  7  1  0
  7  8  2  0
  8  9  1  0
  9 10  1  0
 10 11  1  0
 11 12  2  0
 11 13  1  0
 13 14  1  0
 14 15  1  0
 15 16  3  0
 13 17  1  0
 17 18  2  0
 18 19  1  0
  6 20  2  0
 20  2  1  0
 19  7  1  0
 19 10  2  0
  1 21  1  0
  1 22  1  0
  1 23  1  0
  3 24  1  0
  4 25  1  0
  5 26  1  0
  8 27  1  0
 14 28  1  0
 14 29  1  0
 17 30  1  0
 20 31  1  0
M  END
$$$$
