
     RDKit          3D

 55 57  0  0  0  0  0  0  0  0999 V2000
    0.6866    0.0000    0.0000 Cl  0  0  0  0  0  0  0  0  0  0  0  0
   -2.4661   -4.3310    0.2415 O   0  0  0  0  0  0  0  0  0  0  0  0
   -2.6751   -3.0991    0.1125 C   0  0  0  0  0  0  0  0  0  0  0  0
   -3.3715   -2.2715    1.1269 C   0  0  0  0  0  0  0  0  0  0  0  0
   -2.6428   -1.0167    1.4639 C   0  0  0  0  0  0  0  0  0  0  0  0
   -2.1196   -0.2386    0.3004 C   0  0  0  0  0  0  0  0  0  0  0  0
   -2.9282    0.9943    0.1515 C   0  0  0  0  0  0  0  0  0  0  0  0
   -4.2027    0.9353   -0.3800 C   0  0  0  0  0  0  0  0  0  0  0  0
   -4.9799    2.0803   -0.5298 C   0  0  0  0  0  0  0  0  0  0  0  0
   -4.4981    3.3114   -0.1504 C   0  0  0  0  0  0  0  0  0  0  0  0
   -3.2278    3.3851    0.3815 C   0  0  0  0  0  0  0  0  0  0  0  0
   -2.4531    2.2284    0.5285 C   0  0  0  0  0  0  0  0  0  0  0  0
   -0.6612    0.1064    0.4857 C   0  0  0  0  0  0  0  0  0  0  0  0
   -0.1482    0.8973   -0.6864 C   0  0  0  0  0  0  0  0  0  0  0  0
    0.7616    0.0590   -1.5662 C   0  0  0  0  0  0  0  0  0  0  0  0
    1.9587   -0.3743   -0.8520 N   0  0  0  0  0  0  0  0  0  0  0  0
    2.9449    0.6942   -0.8101 C   0  0  0  0  0  0  0  0  0  0  0  0
    4.1763    0.2522   -0.1134 C   0  0  0  0  0  0  0  0  0  0  0  0
    4.5960   -1.0607   -0.1002 C   0  0  0  0  0  0  0  0  0  0  0  0
    5.7243   -1.5131    0.5340 C   0  0  0  0  0  0  0  0  0  0  0  0
    6.4893   -0.5798    1.2049 C   0  0  0  0  0  0  0  0  0  0  0  0
    6.0977    0.7559    1.2139 C   0  0  0  0  0  0  0  0  0  0  0  0
    4.9561    1.1689    0.5636 C   0  0  0  0  0  0  0  0  0  0  0  0
    1.6228   -0.7200    0.5186 C   0  0  0  0  0  0  0  0  0  0  0  0
    0.1666   -1.1789    0.5089 C   0  0  0  0  0  0  0  0  0  0  0  0
   -2.2866   -0.9773   -1.0032 C   0  0  0  0  0  0  0  0  0  0  0  0
   -2.4786   -0.3373   -2.0941 O   0  0  0  0  0  0  0  0  0  0  0  0
   -2.2370   -2.3971   -1.0647 N   0  0  0  0  0  0  0  0  0  0  0  0
   -0.6866    0.0000    0.0000 H   0  0  0  0  0  0  0  0  0  0  0  0
   -4.4013   -1.9860    0.7982 H   0  0  0  0  0  0  0  0  0  0  0  0
   -3.5008   -2.8628    2.0469 H   0  0  0  0  0  0  0  0  0  0  0  0
   -3.3464   -0.3969    2.0958 H   0  0  0  0  0  0  0  0  0  0  0  0
   -1.8240   -1.2975    2.1897 H   0  0  0  0  0  0  0  0  0  0  0  0
   -4.5932   -0.0429   -0.6846 H   0  0  0  0  0  0  0  0  0  0  0  0
   -5.9750    2.0054   -0.9490 H   0  0  0  0  0  0  0  0  0  0  0  0
   -5.0811    4.2301   -0.2540 H   0  0  0  0  0  0  0  0  0  0  0  0
   -2.8066    4.3340    0.6943 H   0  0  0  0  0  0  0  0  0  0  0  0
   -1.4701    2.2789    0.9387 H   0  0  0  0  0  0  0  0  0  0  0  0
   -0.5184    0.5681    1.4656 H   0  0  0  0  0  0  0  0  0  0  0  0
    0.4802    1.7771   -0.3660 H   0  0  0  0  0  0  0  0  0  0  0  0
   -0.9382    1.3013   -1.3325 H   0  0  0  0  0  0  0  0  0  0  0  0
    0.2349   -0.7780   -2.0556 H   0  0  0  0  0  0  0  0  0  0  0  0
    1.1358    0.7473   -2.3727 H   0  0  0  0  0  0  0  0  0  0  0  0
    3.1425    1.0398   -1.8399 H   0  0  0  0  0  0  0  0  0  0  0  0
    2.5561    1.5736   -0.2440 H   0  0  0  0  0  0  0  0  0  0  0  0
    4.0083   -1.8013   -0.6248 H   0  0  0  0  0  0  0  0  0  0  0  0
    6.0374   -2.5409    0.5346 H   0  0  0  0  0  0  0  0  0  0  0  0
    7.3725   -0.9156    1.7049 H   0  0  0  0  0  0  0  0  0  0  0  0
    6.6934    1.4806    1.7359 H   0  0  0  0  0  0  0  0  0  0  0  0
    4.6299    2.2208    0.5593 H   0  0  0  0  0  0  0  0  0  0  0  0
    1.6922    0.2387    1.1122 H   0  0  0  0  0  0  0  0  0  0  0  0
    2.2807   -1.4539    0.9775 H   0  0  0  0  0  0  0  0  0  0  0  0
    0.0188   -1.7450    1.4392 H   0  0  0  0  0  0  0  0  0  0  0  0
   -0.0434   -1.8351   -0.3342 H   0  0  0  0  0  0  0  0  0  0  0  0
   -1.9017   -2.9133   -1.9158 H   0  0  0  0  0  0  0  0  0  0  0  0
  2  3  2  0
  3  4  1  0
  4  5  1  0
  5  6  1  0
  6  7  1  0
  7  8  2  0
  8  9  1  0
  9 10  2  0
 10 11  1  0
 11 12  2  0
  6 13  1  0
 13 14  1  0
 14 15  1  0
 15 16  1  0
 16 17  1  0
 17 18  1  0
 18 19  2  0
 19 20  1  0
 20 21  2  0
 21 22  1  0
 22 23  2  0
 16 24  1  0
 24 25  1  0
  6 26  1  0
 26 27  2  0
 26 28  1  0
 28  3  1  0
 12  7  1  0
 25 13  1  0
 23 18  1  0
  1 29  1  0
  4 30  1  0
  4 31  1  0
  5 32  1  0
  5 33  1  0
  8 34  1  0
  9 35  1  0
 10 36  1  0
 11 37  1  0
 12 38  1  0
 13 39  1  0
 14 40  1  0
 14 41  1  0
 15 42  1  0
 15 43  1  0
 17 44  1  0
 17 45  1  0
 19 46  1  0
 20 47  1  0
 21 48  1  0
 22 49  1  0
 23 50  1  0
 24 51  1  0
 24 52  1  0
 25 53  1  0
 25 54  1  0
 28 55  1  0
M  END
$$$$
