
     RDKit          3D

 69 70  0  0  0  0  0  0  0  0999 V2000
    0.6875    0.0000    0.0000 Cl  0  0  0  0  0  0  0  0  0  0  0  0
    0.6849    0.0000    0.0000 Cl  0  0  0  0  0  0  0  0  0  0  0  0
   -7.4246   -3.9753    1.9369 F   0  0  0  0  0  0  0  0  0  0  0  0
   -6.4725   -3.1150    1.4832 C   0  0  0  0  0  0  0  0  0  0  0  0
   -5.2910   -3.5892    0.9124 C   0  0  0  0  0  0  0  0  0  0  0  0
   -4.3220   -2.7228    0.4509 C   0  0  0  0  0  0  0  0  0  0  0  0
   -4.5709   -1.3735    0.5779 C   0  0  0  0  0  0  0  0  0  0  0  0
   -3.4949   -0.4475    0.0648 C   0  0  0  0  0  0  0  0  0  0  0  0
   -3.0595   -0.8049   -1.1562 O   0  0  0  0  0  0  0  0  0  0  0  0
   -1.7834   -1.0847   -1.4379 C   0  0  0  0  0  0  0  0  0  0  0  0
   -0.7266   -0.0724   -1.2235 C   0  0  0  0  0  0  0  0  0  0  0  0
   -0.4961    0.3862    0.1089 N   0  0  0  0  0  0  0  0  0  0  0  0
    0.4648    1.4953    0.0846 C   0  0  0  0  0  0  0  0  0  0  0  0
    1.8293    1.1010   -0.3647 C   0  0  0  0  0  0  0  0  0  0  0  0
    2.0893   -0.2869   -0.1931 N   0  0  0  0  0  0  0  0  0  0  0  0
    3.4712   -0.6292   -0.2356 C   0  0  0  0  0  0  0  0  0  0  0  0
    4.0912   -0.4471   -1.5951 C   0  0  0  0  0  0  0  0  0  0  0  0
    5.5373   -0.8482   -1.5531 C   0  0  0  0  0  0  0  0  0  0  0  0
    6.3241   -0.0514   -0.5859 C   0  0  0  0  0  0  0  0  0  0  0  0
    6.4358   -0.4927    0.7169 C   0  0  0  0  0  0  0  0  0  0  0  0
    7.1636    0.2198    1.6614 C   0  0  0  0  0  0  0  0  0  0  0  0
    7.7970    1.3979    1.3095 C   0  0  0  0  0  0  0  0  0  0  0  0
    7.6810    1.8322    0.0077 C   0  0  0  0  0  0  0  0  0  0  0  0
    6.9493    1.1072   -0.9233 C   0  0  0  0  0  0  0  0  0  0  0  0
    1.5063   -0.7247    1.0573 C   0  0  0  0  0  0  0  0  0  0  0  0
    0.0161   -0.6567    0.9981 C   0  0  0  0  0  0  0  0  0  0  0  0
   -4.1604    0.8989   -0.0460 C   0  0  0  0  0  0  0  0  0  0  0  0
   -3.9216    1.9161    0.8484 C   0  0  0  0  0  0  0  0  0  0  0  0
   -4.5709    3.1290    0.6816 C   0  0  0  0  0  0  0  0  0  0  0  0
   -5.4537    3.3346   -0.3677 C   0  0  0  0  0  0  0  0  0  0  0  0
   -6.0837    4.5311   -0.5218 F   0  0  0  0  0  0  0  0  0  0  0  0
   -5.7018    2.3160   -1.2752 C   0  0  0  0  0  0  0  0  0  0  0  0
   -5.0402    1.1214   -1.0815 C   0  0  0  0  0  0  0  0  0  0  0  0
   -5.7355   -0.9061    1.1404 C   0  0  0  0  0  0  0  0  0  0  0  0
   -6.7205   -1.7553    1.6098 C   0  0  0  0  0  0  0  0  0  0  0  0
   -0.6875    0.0000    0.0000 H   0  0  0  0  0  0  0  0  0  0  0  0
   -0.6849    0.0000    0.0000 H   0  0  0  0  0  0  0  0  0  0  0  0
   -5.1173   -4.6533    0.8222 H   0  0  0  0  0  0  0  0  0  0  0  0
   -3.4042   -3.1103    0.0081 H   0  0  0  0  0  0  0  0  0  0  0  0
   -2.7338   -0.3502    0.8690 H   0  0  0  0  0  0  0  0  0  0  0  0
   -1.7507   -1.3111   -2.5647 H   0  0  0  0  0  0  0  0  0  0  0  0
   -1.4096   -2.0530   -1.0144 H   0  0  0  0  0  0  0  0  0  0  0  0
    0.2394   -0.5455   -1.5828 H   0  0  0  0  0  0  0  0  0  0  0  0
   -0.8214    0.8100   -1.9293 H   0  0  0  0  0  0  0  0  0  0  0  0
    0.4764    1.9117    1.1135 H   0  0  0  0  0  0  0  0  0  0  0  0
    0.0323    2.2663   -0.5803 H   0  0  0  0  0  0  0  0  0  0  0  0
    1.9673    1.3353   -1.4563 H   0  0  0  0  0  0  0  0  0  0  0  0
    2.5632    1.6774    0.2500 H   0  0  0  0  0  0  0  0  0  0  0  0
    3.6108   -1.6851    0.0785 H   0  0  0  0  0  0  0  0  0  0  0  0
    4.0459    0.0065    0.4808 H   0  0  0  0  0  0  0  0  0  0  0  0
    4.0829    0.6475   -1.8461 H   0  0  0  0  0  0  0  0  0  0  0  0
    3.5321   -0.9513   -2.3841 H   0  0  0  0  0  0  0  0  0  0  0  0
    5.6068   -1.9308   -1.3241 H   0  0  0  0  0  0  0  0  0  0  0  0
    5.9614   -0.6929   -2.5685 H   0  0  0  0  0  0  0  0  0  0  0  0
    5.9230   -1.4290    0.9696 H   0  0  0  0  0  0  0  0  0  0  0  0
    7.2103   -0.1832    2.6698 H   0  0  0  0  0  0  0  0  0  0  0  0
    8.3609    1.9406    2.0623 H   0  0  0  0  0  0  0  0  0  0  0  0
    8.1754    2.7454   -0.2584 H   0  0  0  0  0  0  0  0  0  0  0  0
    6.8942    1.4952   -1.9301 H   0  0  0  0  0  0  0  0  0  0  0  0
    1.9228   -0.1247    1.9093 H   0  0  0  0  0  0  0  0  0  0  0  0
    1.8703   -1.7809    1.2080 H   0  0  0  0  0  0  0  0  0  0  0  0
   -0.3821   -1.6193    0.6389 H   0  0  0  0  0  0  0  0  0  0  0  0
   -0.3925   -0.4249    2.0266 H   0  0  0  0  0  0  0  0  0  0  0  0
   -3.2467    1.7683    1.6582 H   0  0  0  0  0  0  0  0  0  0  0  0
   -4.3882    3.9384    1.3836 H   0  0  0  0  0  0  0  0  0  0  0  0
   -6.3804    2.4353   -2.1039 H   0  0  0  0  0  0  0  0  0  0  0  0
   -5.2190    0.3135   -1.7786 H   0  0  0  0  0  0  0  0  0  0  0  0
   -5.9120    0.1637    1.2306 H   0  0  0  0  0  0  0  0  0  0  0  0
   -7.6439   -1.4126    2.0544 H   0  0  0  0  0  0  0  0  0  0  0  0
  3  4  1  0
  4  5  2  0
  5  6  1  0
  6  7  2  0
  7  8  1  0
  8  9  1  0
  9 10  1  0
 10 11  1  0
 11 12  1  0
 12 13  1  0
 13 14  1  0
 14 15  1  0
 15 16  1  0
 16 17  1  0
 17 18  1  0
 18 19  1  0
 19 20  2  0
 20 21  1  0
 21 22  2  0
 22 23  1  0
 23 24  2  0
 15 25  1  0
 25 26  1  0
  8 27  1  0
 27 28  2  0
 28 29  1  0
 29 30  2  0
 30 31  1  0
 30 32  1  0
 32 33  2  0
  7 34  1  0
 34 35  2  0
 35  4  1  0
 26 12  1  0
 33 27  1  0
 24 19  1  0
  1 36  1  0
  2 37  1  0
  5 38  1  0
  6 39  1  0
  8 40  1  0
 10 41  1  0
 10 42  1  0
 11 43  1  0
 11 44  1  0
 13 45  1  0
 13 46  1  0
 14 47  1  0
 14 48  1  0
 16 49  1  0
 16 50  1  0
 17 51  1  0
 17 52  1  0
 18 53  1  0
 18 54  1  0
 20 55  1  0
 21 56  1  0
 22 57  1  0
 23 58  1  0
 24 59  1  0
 25 60  1  0
 25 61  1  0
 26 62  1  0
 26 63  1  0
 28 64  1  0
 29 65  1  0
 32 66  1  0
 33 67  1  0
 34 68  1  0
 35 69  1  0
M  END
$$$$
