
     RDKit          3D

 28 29  0  0  0  0  0  0  0  0999 V2000
   -1.9073    2.4991   -0.3687 C   0  0  0  0  0  0  0  0  0  0  0  0
   -1.6681    1.0080   -0.6036 C   0  0  0  0  0  0  0  0  0  0  0  0
   -0.2407    0.5428   -0.3961 C   0  0  0  0  0  0  0  0  0  0  0  0
    0.4335   -0.4113   -1.1360 C   0  0  0  0  0  0  0  0  0  0  0  0
    1.7786   -0.6397   -0.6947 C   0  0  0  0  0  0  0  0  0  0  0  0
    2.7727   -1.5209   -1.1841 C   0  0  0  0  0  0  0  0  0  0  0  0
    4.0331   -1.5707   -0.5809 C   0  0  0  0  0  0  0  0  0  0  0  0
    4.3219   -0.7566    0.5055 C   0  0  0  0  0  0  0  0  0  0  0  0
    3.3598    0.1212    1.0102 C   0  0  0  0  0  0  0  0  0  0  0  0
    2.0917    0.1679    0.3987 C   0  0  0  0  0  0  0  0  0  0  0  0
    0.7607    1.1601    0.8452 S   0  0  0  0  0  0  0  0  0  0  0  0
   -2.6027    0.1429    0.1292 N   0  0  0  0  0  0  0  0  0  0  0  0
   -2.8552   -1.0856   -0.5404 O   0  0  0  0  0  0  0  0  0  0  0  0
   -2.7356    0.1227    1.4998 C   0  0  0  0  0  0  0  0  0  0  0  0
   -3.3427   -1.0048    1.9753 N   0  0  0  0  0  0  0  0  0  0  0  0
   -2.4062    1.0131    2.2725 O   0  0  0  0  0  0  0  0  0  0  0  0
   -1.2573    3.1022   -1.0126 H   0  0  0  0  0  0  0  0  0  0  0  0
   -1.7215    2.8065    0.6645 H   0  0  0  0  0  0  0  0  0  0  0  0
   -2.9461    2.7595   -0.6009 H   0  0  0  0  0  0  0  0  0  0  0  0
   -1.9003    0.8426   -1.6661 H   0  0  0  0  0  0  0  0  0  0  0  0
   -0.0231   -0.9390   -1.9649 H   0  0  0  0  0  0  0  0  0  0  0  0
    2.5570   -2.1637   -2.0337 H   0  0  0  0  0  0  0  0  0  0  0  0
    4.7885   -2.2514   -0.9657 H   0  0  0  0  0  0  0  0  0  0  0  0
    5.3038   -0.8010    0.9706 H   0  0  0  0  0  0  0  0  0  0  0  0
    3.5859    0.7565    1.8619 H   0  0  0  0  0  0  0  0  0  0  0  0
   -3.7992   -0.9716   -0.7622 H   0  0  0  0  0  0  0  0  0  0  0  0
   -3.2781   -1.0945    2.9806 H   0  0  0  0  0  0  0  0  0  0  0  0
   -3.1029   -1.8342    1.4472 H   0  0  0  0  0  0  0  0  0  0  0  0
  1  2  1  0
  2  3  1  0
  3  4  2  0
  4  5  1  0
  5  6  2  0
  6  7  1  0
  7  8  2  0
  8  9  1  0
  9 10  2  0
 10 11  1  0
  2 12  1  0
 12 13  1  0
 12 14  1  0
 14 15  1  0
 14 16  2  0
 11  3  1  0
 10  5  1  0
  1 17  1  0
  1 18  1  0
  1 19  1  0
  2 20  1  0
  4 21  1  0
  6 22  1  0
  7 23  1  0
  8 24  1  0
  9 25  1  0
 13 26  1  0
 15 27  1  0
 15 28  1  0
M  END
$$$$
