
     RDKit          3D

 38 40  0  0  0  0  0  0  0  0999 V2000
   -1.3940   -1.8204   -2.2710 C   0  0  0  0  0  0  0  0  0  0  0  0
   -1.4976   -2.2138   -0.8225 C   0  0  0  0  0  0  0  0  0  0  0  0
   -2.0418   -3.4747   -0.5219 C   0  0  0  0  0  0  0  0  0  0  0  0
   -2.2321   -3.8785    0.8002 C   0  0  0  0  0  0  0  0  0  0  0  0
   -1.8877   -3.0266    1.8442 C   0  0  0  0  0  0  0  0  0  0  0  0
   -1.3302   -1.7796    1.5664 C   0  0  0  0  0  0  0  0  0  0  0  0
   -1.1001   -1.3763    0.2399 C   0  0  0  0  0  0  0  0  0  0  0  0
   -0.4859   -0.1072    0.0174 N   0  0  0  0  0  0  0  0  0  0  0  0
    0.7805    0.0302   -0.5399 C   0  0  0  0  0  0  0  0  0  0  0  0
    1.7859   -1.3799   -0.8534 S   0  0  0  0  0  0  0  0  0  0  0  0
    2.3656   -1.7157    0.8328 C   0  0  0  0  0  0  0  0  0  0  0  0
    2.7613   -0.4486    1.5619 C   0  0  0  0  0  0  0  0  0  0  0  0
    3.8481    0.2131    1.0629 N   0  0  0  0  0  0  0  0  0  0  0  0
    2.1633   -0.0296    2.5479 O   0  0  0  0  0  0  0  0  0  0  0  0
    1.3422    1.1608   -0.8259 N   0  0  0  0  0  0  0  0  0  0  0  0
    0.6488    2.3364   -0.5277 C   0  0  0  0  0  0  0  0  0  0  0  0
    1.2342    3.5628   -0.8526 C   0  0  0  0  0  0  0  0  0  0  0  0
    0.5871    4.7637   -0.5495 C   0  0  0  0  0  0  0  0  0  0  0  0
   -0.6540    4.7466    0.0850 C   0  0  0  0  0  0  0  0  0  0  0  0
   -1.2479    3.5284    0.4128 C   0  0  0  0  0  0  0  0  0  0  0  0
   -0.5916    2.3301    0.1034 C   0  0  0  0  0  0  0  0  0  0  0  0
   -1.2040    1.0250    0.4149 C   0  0  0  0  0  0  0  0  0  0  0  0
   -2.3033    1.0166    0.9675 O   0  0  0  0  0  0  0  0  0  0  0  0
   -0.5276   -2.2999   -2.7356 H   0  0  0  0  0  0  0  0  0  0  0  0
   -1.3151   -0.7371   -2.4004 H   0  0  0  0  0  0  0  0  0  0  0  0
   -2.2945   -2.1320   -2.8123 H   0  0  0  0  0  0  0  0  0  0  0  0
   -2.3423   -4.1451   -1.3251 H   0  0  0  0  0  0  0  0  0  0  0  0
   -2.6670   -4.8518    1.0136 H   0  0  0  0  0  0  0  0  0  0  0  0
   -2.0533   -3.3295    2.8748 H   0  0  0  0  0  0  0  0  0  0  0  0
   -1.0598   -1.1257    2.3939 H   0  0  0  0  0  0  0  0  0  0  0  0
    1.5853   -2.2264    1.4031 H   0  0  0  0  0  0  0  0  0  0  0  0
    3.2309   -2.3847    0.7881 H   0  0  0  0  0  0  0  0  0  0  0  0
    4.0030    1.1276    1.4706 H   0  0  0  0  0  0  0  0  0  0  0  0
    4.0129    0.1567    0.0634 H   0  0  0  0  0  0  0  0  0  0  0  0
    2.2036    3.5811   -1.3442 H   0  0  0  0  0  0  0  0  0  0  0  0
    1.0538    5.7114   -0.8072 H   0  0  0  0  0  0  0  0  0  0  0  0
   -1.1590    5.6797    0.3233 H   0  0  0  0  0  0  0  0  0  0  0  0
   -2.2181    3.5131    0.9049 H   0  0  0  0  0  0  0  0  0  0  0  0
  1  2  1  0
  2  3  2  0
  3  4  1  0
  4  5  2  0
  5  6  1  0
  6  7  2  0
  7  8  1  0
  8  9  1  0
  9 10  1  0
 10 11  1  0
 11 12  1  0
 12 13  1  0
 12 14  2  0
  9 15  2  0
 15 16  1  0
 16 17  2  0
 17 18  1  0
 18 19  2  0
 19 20  1  0
 20 21  2  0
 21 22  1  0
 22 23  2  0
  7  2  1  0
 22  8  1  0
 21 16  1  0
  1 24  1  0
  1 25  1  0
  1 26  1  0
  3 27  1  0
  4 28  1  0
  5 29  1  0
  6 30  1  0
 11 31  1  0
 11 32  1  0
 13 33  1  0
 13 34  1  0
 17 35  1  0
 18 36  1  0
 19 37  1  0
 20 38  1  0
M  END
$$$$
