
     RDKit          3D

 61 65  0  0  0  0  0  0  0  0999 V2000
   -9.8623    0.4919    1.8809 C   0  0  0  0  0  0  0  0  0  0  0  0
   -9.1912    1.3949    0.8575 C   0  0  0  0  0  0  0  0  0  0  0  0
   -7.7251    1.0812    0.7021 C   0  0  0  0  0  0  0  0  0  0  0  0
   -7.2790    0.2969   -0.3675 C   0  0  0  0  0  0  0  0  0  0  0  0
   -5.9211   -0.0083   -0.5027 C   0  0  0  0  0  0  0  0  0  0  0  0
   -4.9766    0.4581    0.4260 C   0  0  0  0  0  0  0  0  0  0  0  0
   -3.5560    0.1214    0.2693 C   0  0  0  0  0  0  0  0  0  0  0  0
   -2.4385    0.6332    0.9818 C   0  0  0  0  0  0  0  0  0  0  0  0
   -1.3215   -0.0035    0.4741 C   0  0  0  0  0  0  0  0  0  0  0  0
   -1.8118   -0.8382   -0.4971 N   0  0  0  0  0  0  0  0  0  0  0  0
   -3.1431   -0.7749   -0.6392 N   0  0  0  0  0  0  0  0  0  0  0  0
   -1.0628   -1.7448   -1.3461 C   0  0  0  0  0  0  0  0  0  0  0  0
   -0.3419   -2.8415   -0.5677 C   0  0  0  0  0  0  0  0  0  0  0  0
    0.4327   -2.3221    0.6448 C   0  0  0  0  0  0  0  0  0  0  0  0
    0.9468   -0.9720    0.4167 N   0  0  0  0  0  0  0  0  0  0  0  0
    2.1588   -0.8395   -0.2593 C   0  0  0  0  0  0  0  0  0  0  0  0
    2.7431   -1.8286   -0.7119 O   0  0  0  0  0  0  0  0  0  0  0  0
    2.7000    0.5644   -0.4661 C   0  0  0  0  0  0  0  0  0  0  0  0
    4.0385    0.5652   -1.0345 N   0  0  0  0  0  0  0  0  0  0  0  0
    4.3373    0.6762   -2.3666 C   0  0  0  0  0  0  0  0  0  0  0  0
    5.6364    0.6447   -2.5804 N   0  0  0  0  0  0  0  0  0  0  0  0
    6.1777    0.4898   -1.3432 C   0  0  0  0  0  0  0  0  0  0  0  0
    5.2258    0.4594   -0.3701 C   0  0  0  0  0  0  0  0  0  0  0  0
    5.5307    0.3261    1.0095 C   0  0  0  0  0  0  0  0  0  0  0  0
    4.6670    0.3428    1.8820 O   0  0  0  0  0  0  0  0  0  0  0  0
    6.9037    0.2055    1.2534 N   0  0  0  0  0  0  0  0  0  0  0  0
    7.3351    0.0896    2.6312 C   0  0  0  0  0  0  0  0  0  0  0  0
    7.9172    0.2618    0.2761 C   0  0  0  0  0  0  0  0  0  0  0  0
    9.1086    0.2162    0.5911 O   0  0  0  0  0  0  0  0  0  0  0  0
    7.5145    0.3815   -1.0530 N   0  0  0  0  0  0  0  0  0  0  0  0
    8.4958    0.4268   -2.1190 C   0  0  0  0  0  0  0  0  0  0  0  0
    0.1110    0.1390    0.8704 C   0  0  0  0  0  0  0  0  0  0  0  0
   -5.4303    1.2392    1.4975 C   0  0  0  0  0  0  0  0  0  0  0  0
   -6.7902    1.5470    1.6346 C   0  0  0  0  0  0  0  0  0  0  0  0
   -9.4522    0.6532    2.8818 H   0  0  0  0  0  0  0  0  0  0  0  0
  -10.9364    0.6962    1.9212 H   0  0  0  0  0  0  0  0  0  0  0  0
   -9.7277   -0.5645    1.6272 H   0  0  0  0  0  0  0  0  0  0  0  0
   -9.6974    1.2896   -0.1101 H   0  0  0  0  0  0  0  0  0  0  0  0
   -9.3104    2.4459    1.1483 H   0  0  0  0  0  0  0  0  0  0  0  0
   -7.9831   -0.0875   -1.1041 H   0  0  0  0  0  0  0  0  0  0  0  0
   -5.6032   -0.6211   -1.3437 H   0  0  0  0  0  0  0  0  0  0  0  0
   -2.4439    1.3715    1.7707 H   0  0  0  0  0  0  0  0  0  0  0  0
   -0.3590   -1.1302   -1.9210 H   0  0  0  0  0  0  0  0  0  0  0  0
   -1.7533   -2.1957   -2.0678 H   0  0  0  0  0  0  0  0  0  0  0  0
   -1.0569   -3.6023   -0.2305 H   0  0  0  0  0  0  0  0  0  0  0  0
    0.3493   -3.3477   -1.2545 H   0  0  0  0  0  0  0  0  0  0  0  0
   -0.2038   -2.3138    1.5394 H   0  0  0  0  0  0  0  0  0  0  0  0
    1.2640   -3.0043    0.8665 H   0  0  0  0  0  0  0  0  0  0  0  0
    2.7352    1.1167    0.4766 H   0  0  0  0  0  0  0  0  0  0  0  0
    2.0489    1.0957   -1.1682 H   0  0  0  0  0  0  0  0  0  0  0  0
    3.5794    0.7713   -3.1296 H   0  0  0  0  0  0  0  0  0  0  0  0
    7.7280    1.0591    2.9478 H   0  0  0  0  0  0  0  0  0  0  0  0
    6.5196   -0.1989    3.2981 H   0  0  0  0  0  0  0  0  0  0  0  0
    8.1317   -0.6552    2.7180 H   0  0  0  0  0  0  0  0  0  0  0  0
    9.4905    0.1486   -1.7671 H   0  0  0  0  0  0  0  0  0  0  0  0
    8.5353    1.4445   -2.5198 H   0  0  0  0  0  0  0  0  0  0  0  0
    8.2037   -0.2689   -2.9111 H   0  0  0  0  0  0  0  0  0  0  0  0
    0.4816    1.0948    0.4986 H   0  0  0  0  0  0  0  0  0  0  0  0
    0.1883    0.1596    1.9633 H   0  0  0  0  0  0  0  0  0  0  0  0
   -4.7416    1.6137    2.2499 H   0  0  0  0  0  0  0  0  0  0  0  0
   -7.1158    2.1504    2.4793 H   0  0  0  0  0  0  0  0  0  0  0  0
  1  2  1  0
  2  3  1  0
  3  4  2  0
  4  5  1  0
  5  6  2  0
  6  7  1  0
  7  8  1  0
  8  9  2  0
  9 10  1  0
 10 11  1  0
 10 12  1  0
 12 13  1  0
 13 14  1  0
 14 15  1  0
 15 16  1  0
 16 17  2  0
 16 18  1  0
 18 19  1  0
 19 20  1  0
 20 21  2  0
 21 22  1  0
 22 23  2  0
 23 24  1  0
 24 25  2  0
 24 26  1  0
 26 27  1  0
 26 28  1  0
 28 29  2  0
 28 30  1  0
 30 31  1  0
 15 32  1  0
  6 33  1  0
 33 34  2  0
 34  3  1  0
 11  7  2  0
 23 19  1  0
 32  9  1  0
 30 22  1  0
  1 35  1  0
  1 36  1  0
  1 37  1  0
  2 38  1  0
  2 39  1  0
  4 40  1  0
  5 41  1  0
  8 42  1  0
 12 43  1  0
 12 44  1  0
 13 45  1  0
 13 46  1  0
 14 47  1  0
 14 48  1  0
 18 49  1  0
 18 50  1  0
 20 51  1  0
 27 52  1  0
 27 53  1  0
 27 54  1  0
 31 55  1  0
 31 56  1  0
 31 57  1  0
 32 58  1  0
 32 59  1  0
 33 60  1  0
 34 61  1  0
M  END
$$$$
