
     RDKit          3D

 13 11  0  0  0  0  0  0  0  0999 V2000
    0.6853    0.0000    0.0000 Cl  0  0  0  0  0  0  0  0  0  0  0  0
   -0.6412    1.3017   -0.5950 N   0  0  0  0  0  0  0  0  0  0  0  0
   -0.6304    0.1544   -0.0038 C   0  0  0  0  0  0  0  0  0  0  0  0
   -1.8547   -0.4843    0.3060 N   0  0  0  0  0  0  0  0  0  0  0  0
    0.6319   -0.4275    0.3157 N   0  0  0  0  0  0  0  0  0  0  0  0
    1.7334   -0.0498   -0.4435 N   0  0  0  0  0  0  0  0  0  0  0  0
   -0.6853    0.0000    0.0000 H   0  0  0  0  0  0  0  0  0  0  0  0
    0.2172    1.8011   -0.8388 H   0  0  0  0  0  0  0  0  0  0  0  0
   -2.7298   -0.1845   -0.1713 H   0  0  0  0  0  0  0  0  0  0  0  0
   -1.9464   -1.2547    0.9967 H   0  0  0  0  0  0  0  0  0  0  0  0
    0.6803   -1.1127    1.1051 H   0  0  0  0  0  0  0  0  0  0  0  0
    2.5434   -0.6950   -0.3568 H   0  0  0  0  0  0  0  0  0  0  0  0
    1.9962    0.9512   -0.3141 H   0  0  0  0  0  0  0  0  0  0  0  0
  2  3  2  3
  3  4  1  0
  3  5  1  0
  5  6  1  0
  1  7  1  0
  2  8  1  0
  4  9  1  0
  4 10  1  0
  5 11  1  0
  6 12  1  0
  6 13  1  0
M  END
$$$$
