
     RDKit          3D

 49 53  0  0  0  0  0  0  0  0999 V2000
   -2.3231    0.9635    2.7919 C   0  0  0  0  0  0  0  0  0  0  0  0
   -1.7688    1.9892    1.8418 C   0  0  0  0  0  0  0  0  0  0  0  0
   -1.8100    3.3421    2.2170 C   0  0  0  0  0  0  0  0  0  0  0  0
   -1.3533    4.3385    1.3529 C   0  0  0  0  0  0  0  0  0  0  0  0
   -0.8512    3.9996    0.1000 C   0  0  0  0  0  0  0  0  0  0  0  0
   -0.7865    2.6613   -0.2835 C   0  0  0  0  0  0  0  0  0  0  0  0
   -1.2156    1.6502    0.5886 C   0  0  0  0  0  0  0  0  0  0  0  0
   -1.0865    0.2919    0.1763 N   0  0  0  0  0  0  0  0  0  0  0  0
   -0.2005   -0.5685    0.7982 C   0  0  0  0  0  0  0  0  0  0  0  0
    0.8187   -0.0355    1.7995 C   0  0  0  0  0  0  0  0  0  0  0  0
    2.1719   -0.3376    1.3680 N   0  0  0  0  0  0  0  0  0  0  0  0
    3.0162   -1.2614    1.9209 C   0  0  0  0  0  0  0  0  0  0  0  0
    4.1905   -1.2714    1.3236 N   0  0  0  0  0  0  0  0  0  0  0  0
    4.0833   -0.3268    0.3208 C   0  0  0  0  0  0  0  0  0  0  0  0
    4.9809    0.1249   -0.6609 C   0  0  0  0  0  0  0  0  0  0  0  0
    6.2679   -0.3775   -0.8046 N   0  0  0  0  0  0  0  0  0  0  0  0
    4.5828    1.1133   -1.4947 N   0  0  0  0  0  0  0  0  0  0  0  0
    3.3284    1.5978   -1.3614 C   0  0  0  0  0  0  0  0  0  0  0  0
    2.3801    1.2400   -0.4713 N   0  0  0  0  0  0  0  0  0  0  0  0
    2.8345    0.2724    0.3408 C   0  0  0  0  0  0  0  0  0  0  0  0
   -0.1680   -1.8422    0.5575 N   0  0  0  0  0  0  0  0  0  0  0  0
   -1.0125   -2.3731   -0.4210 C   0  0  0  0  0  0  0  0  0  0  0  0
   -0.9434   -3.7514   -0.6435 C   0  0  0  0  0  0  0  0  0  0  0  0
   -1.7307   -4.3550   -1.6189 C   0  0  0  0  0  0  0  0  0  0  0  0
   -2.5953   -3.5788   -2.3859 C   0  0  0  0  0  0  0  0  0  0  0  0
   -2.6859   -2.1900   -2.1875 C   0  0  0  0  0  0  0  0  0  0  0  0
   -3.6422   -1.4133   -3.0514 C   0  0  0  0  0  0  0  0  0  0  0  0
   -1.8809   -1.5905   -1.1900 C   0  0  0  0  0  0  0  0  0  0  0  0
   -1.9114   -0.1368   -0.8734 C   0  0  0  0  0  0  0  0  0  0  0  0
   -2.6571    0.6112   -1.5029 O   0  0  0  0  0  0  0  0  0  0  0  0
   -1.5331    0.5872    3.4477 H   0  0  0  0  0  0  0  0  0  0  0  0
   -2.7778    0.1252    2.2549 H   0  0  0  0  0  0  0  0  0  0  0  0
   -3.1113    1.3978    3.4167 H   0  0  0  0  0  0  0  0  0  0  0  0
   -2.2195    3.6328    3.1827 H   0  0  0  0  0  0  0  0  0  0  0  0
   -1.4037    5.3825    1.6526 H   0  0  0  0  0  0  0  0  0  0  0  0
   -0.5093    4.7757   -0.5797 H   0  0  0  0  0  0  0  0  0  0  0  0
   -0.3840    2.4068   -1.2616 H   0  0  0  0  0  0  0  0  0  0  0  0
    0.7830    1.0421    1.9607 H   0  0  0  0  0  0  0  0  0  0  0  0
    0.6548   -0.5319    2.7625 H   0  0  0  0  0  0  0  0  0  0  0  0
    2.7287   -1.8965    2.7495 H   0  0  0  0  0  0  0  0  0  0  0  0
    6.6116   -0.8466    0.0258 H   0  0  0  0  0  0  0  0  0  0  0  0
    6.8835    0.2753   -1.2704 H   0  0  0  0  0  0  0  0  0  0  0  0
    3.0500    2.3797   -2.0624 H   0  0  0  0  0  0  0  0  0  0  0  0
   -0.2596   -4.3557   -0.0521 H   0  0  0  0  0  0  0  0  0  0  0  0
   -1.6657   -5.4274   -1.7845 H   0  0  0  0  0  0  0  0  0  0  0  0
   -3.2019   -4.0673   -3.1469 H   0  0  0  0  0  0  0  0  0  0  0  0
   -4.4168   -0.9416   -2.4389 H   0  0  0  0  0  0  0  0  0  0  0  0
   -4.1548   -2.0650   -3.7677 H   0  0  0  0  0  0  0  0  0  0  0  0
   -3.1063   -0.6590   -3.6359 H   0  0  0  0  0  0  0  0  0  0  0  0
  1  2  1  0
  2  3  2  0
  3  4  1  0
  4  5  2  0
  5  6  1  0
  6  7  2  0
  7  8  1  0
  8  9  1  0
  9 10  1  0
 10 11  1  0
 11 12  1  0
 12 13  2  0
 13 14  1  0
 14 15  2  0
 15 16  1  0
 15 17  1  0
 17 18  2  0
 18 19  1  0
 19 20  2  0
  9 21  2  0
 21 22  1  0
 22 23  2  0
 23 24  1  0
 24 25  2  0
 25 26  1  0
 26 27  1  0
 26 28  2  0
 28 29  1  0
 29 30  2  0
  7  2  1  0
 29  8  1  0
 20 11  1  0
 28 22  1  0
 20 14  1  0
  1 31  1  0
  1 32  1  0
  1 33  1  0
  3 34  1  0
  4 35  1  0
  5 36  1  0
  6 37  1  0
 10 38  1  0
 10 39  1  0
 12 40  1  0
 16 41  1  0
 16 42  1  0
 18 43  1  0
 23 44  1  0
 24 45  1  0
 25 46  1  0
 27 47  1  0
 27 48  1  0
 27 49  1  0
M  END
$$$$
