
     RDKit          3D

 36 37  0  0  0  0  0  0  0  0999 V2000
    1.9509   -2.8467    0.9134 O   0  0  0  0  0  0  0  0  0  0  0  0
    1.2360   -1.9130    0.5543 C   0  0  0  0  0  0  0  0  0  0  0  0
   -0.2879   -2.0012    0.6348 C   0  0  0  0  0  0  0  0  0  0  0  0
   -0.9043   -0.7706    0.2578 O   0  0  0  0  0  0  0  0  0  0  0  0
   -2.2707   -0.7274    0.2945 C   0  0  0  0  0  0  0  0  0  0  0  0
   -3.1162   -1.7752    0.6582 C   0  0  0  0  0  0  0  0  0  0  0  0
   -4.5020   -1.5949    0.6474 C   0  0  0  0  0  0  0  0  0  0  0  0
   -5.0494   -0.3672    0.2758 C   0  0  0  0  0  0  0  0  0  0  0  0
   -4.2147    0.6990   -0.0837 C   0  0  0  0  0  0  0  0  0  0  0  0
   -4.7946    2.0241   -0.5098 C   0  0  0  0  0  0  0  0  0  0  0  0
   -6.0111    2.2813    0.0466 F   0  0  0  0  0  0  0  0  0  0  0  0
   -4.0039    3.0829   -0.1782 F   0  0  0  0  0  0  0  0  0  0  0  0
   -4.9750    2.0998   -1.8569 F   0  0  0  0  0  0  0  0  0  0  0  0
   -2.8242    0.5015   -0.0771 C   0  0  0  0  0  0  0  0  0  0  0  0
    1.6888   -0.7048    0.0413 N   0  0  0  0  0  0  0  0  0  0  0  0
    3.0629   -0.4493   -0.0772 N   0  0  0  0  0  0  0  0  0  0  0  0
    3.5355    0.4705    0.9749 C   0  0  0  0  0  0  0  0  0  0  0  0
    4.8475    1.1506    0.5667 C   0  0  0  0  0  0  0  0  0  0  0  0
    4.7008    1.9810   -0.5948 O   0  0  0  0  0  0  0  0  0  0  0  0
    3.6814    1.5234   -1.4937 C   0  0  0  0  0  0  0  0  0  0  0  0
    3.4441    0.0092   -1.4255 C   0  0  0  0  0  0  0  0  0  0  0  0
   -0.5974   -2.8031   -0.0455 H   0  0  0  0  0  0  0  0  0  0  0  0
   -0.5391   -2.2438    1.6738 H   0  0  0  0  0  0  0  0  0  0  0  0
   -2.7355   -2.7478    0.9541 H   0  0  0  0  0  0  0  0  0  0  0  0
   -5.1568   -2.4170    0.9289 H   0  0  0  0  0  0  0  0  0  0  0  0
   -6.1319   -0.2447    0.2694 H   0  0  0  0  0  0  0  0  0  0  0  0
   -2.1631    1.3185   -0.3638 H   0  0  0  0  0  0  0  0  0  0  0  0
    1.0012    0.0191   -0.1605 H   0  0  0  0  0  0  0  0  0  0  0  0
    2.7850    1.2505    1.1609 H   0  0  0  0  0  0  0  0  0  0  0  0
    3.6784   -0.0883    1.9062 H   0  0  0  0  0  0  0  0  0  0  0  0
    5.2101    1.7883    1.3794 H   0  0  0  0  0  0  0  0  0  0  0  0
    5.6288    0.4089    0.3627 H   0  0  0  0  0  0  0  0  0  0  0  0
    3.9854    1.8111   -2.5054 H   0  0  0  0  0  0  0  0  0  0  0  0
    2.7584    2.0694   -1.2654 H   0  0  0  0  0  0  0  0  0  0  0  0
    4.3792   -0.5014   -1.6875 H   0  0  0  0  0  0  0  0  0  0  0  0
    2.7038   -0.2929   -2.1763 H   0  0  0  0  0  0  0  0  0  0  0  0
  1  2  2  0
  2  3  1  0
  3  4  1  0
  4  5  1  0
  5  6  2  0
  6  7  1  0
  7  8  2  0
  8  9  1  0
  9 10  1  0
 10 11  1  0
 10 12  1  0
 10 13  1  0
  9 14  2  0
  2 15  1  0
 15 16  1  0
 16 17  1  0
 17 18  1  0
 18 19  1  0
 19 20  1  0
 20 21  1  0
 14  5  1  0
 21 16  1  0
  3 22  1  0
  3 23  1  0
  6 24  1  0
  7 25  1  0
  8 26  1  0
 14 27  1  0
 15 28  1  0
 17 29  1  0
 17 30  1  0
 18 31  1  0
 18 32  1  0
 20 33  1  0
 20 34  1  0
 21 35  1  0
 21 36  1  0
M  END
$$$$
