
     RDKit          3D

 46 49  0  0  0  0  0  0  0  0999 V2000
   -4.2780    0.8184   -2.3661 C   0  0  0  0  0  0  0  0  0  0  0  0
   -3.9187    0.3441   -1.3222 C   0  0  0  0  0  0  0  0  0  0  0  0
   -3.4964   -0.2424   -0.0313 C   0  0  2  0  0  0  0  0  0  0  0  0
   -4.3792   -1.3137    0.2708 O   0  0  0  0  0  0  0  0  0  0  0  0
   -3.5573    0.8308    1.0885 C   0  0  0  0  0  0  0  0  0  0  0  0
   -2.1135    1.3295    1.3057 C   0  0  0  0  0  0  0  0  0  0  0  0
   -1.3017    0.6599    0.1989 C   0  0  1  0  0  0  0  0  0  0  0  0
    0.2159    0.5386    0.3777 C   0  0  2  0  0  0  0  0  0  0  0  0
    0.8612    1.9189    0.6204 C   0  0  0  0  0  0  0  0  0  0  0  0
    2.2914    2.0770    0.0966 C   0  0  0  0  0  0  0  0  0  0  0  0
    3.0263    0.7780   -0.0995 C   0  0  0  0  0  0  0  0  0  0  0  0
    4.4074    0.7071    0.1338 C   0  0  0  0  0  0  0  0  0  0  0  0
    5.0889   -0.4770   -0.1216 C   0  0  0  0  0  0  0  0  0  0  0  0
    6.4301   -0.5878    0.0979 O   0  0  0  0  0  0  0  0  0  0  0  0
    4.4210   -1.5853   -0.6211 C   0  0  0  0  0  0  0  0  0  0  0  0
    3.0482   -1.5174   -0.8684 C   0  0  0  0  0  0  0  0  0  0  0  0
    2.3311   -0.3418   -0.6041 C   0  0  0  0  0  0  0  0  0  0  0  0
    0.8343   -0.1899   -0.8505 C   0  0  1  0  0  0  0  0  0  0  0  0
    0.0901   -1.5044   -1.1959 C   0  0  0  0  0  0  0  0  0  0  0  0
   -1.4385   -1.3476   -1.2719 C   0  0  0  0  0  0  0  0  0  0  0  0
   -2.0066   -0.6990    0.0036 C   0  0  2  0  0  0  0  0  0  0  0  0
   -1.7986   -1.6835    1.1927 C   0  0  0  0  0  0  0  0  0  0  0  0
   -4.5944    1.2333   -3.2954 H   0  0  0  0  0  0  0  0  0  0  0  0
   -5.2838   -0.9663    0.1902 H   0  0  0  0  0  0  0  0  0  0  0  0
   -4.2140    1.6685    0.8245 H   0  0  0  0  0  0  0  0  0  0  0  0
   -3.9487    0.4128    2.0240 H   0  0  0  0  0  0  0  0  0  0  0  0
   -1.7563    1.0356    2.2991 H   0  0  0  0  0  0  0  0  0  0  0  0
   -2.0595    2.4214    1.2464 H   0  0  0  0  0  0  0  0  0  0  0  0
   -1.4536    1.2673   -0.7079 H   0  0  0  0  0  0  0  0  0  0  0  0
    0.4262   -0.0600    1.2745 H   0  0  0  0  0  0  0  0  0  0  0  0
    0.2532    2.7212    0.1832 H   0  0  0  0  0  0  0  0  0  0  0  0
    0.8559    2.1086    1.7023 H   0  0  0  0  0  0  0  0  0  0  0  0
    2.8440    2.7367    0.7767 H   0  0  0  0  0  0  0  0  0  0  0  0
    2.2632    2.5868   -0.8754 H   0  0  0  0  0  0  0  0  0  0  0  0
    4.9361    1.5797    0.5048 H   0  0  0  0  0  0  0  0  0  0  0  0
    6.7546    0.2567    0.4501 H   0  0  0  0  0  0  0  0  0  0  0  0
    4.9671   -2.5021   -0.8238 H   0  0  0  0  0  0  0  0  0  0  0  0
    2.5605   -2.4012   -1.2693 H   0  0  0  0  0  0  0  0  0  0  0  0
    0.7280    0.4643   -1.7290 H   0  0  0  0  0  0  0  0  0  0  0  0
    0.4427   -1.8784   -2.1658 H   0  0  0  0  0  0  0  0  0  0  0  0
    0.3364   -2.2842   -0.4656 H   0  0  0  0  0  0  0  0  0  0  0  0
   -1.6629   -0.7378   -2.1548 H   0  0  0  0  0  0  0  0  0  0  0  0
   -1.9018   -2.3265   -1.4446 H   0  0  0  0  0  0  0  0  0  0  0  0
   -2.2270   -1.3091    2.1278 H   0  0  0  0  0  0  0  0  0  0  0  0
   -0.7455   -1.8930    1.3958 H   0  0  0  0  0  0  0  0  0  0  0  0
   -2.2780   -2.6468    0.9821 H   0  0  0  0  0  0  0  0  0  0  0  0
  1  2  3  0
  3  2  1  6
  3  4  1  0
  3  5  1  0
  5  6  1  0
  6  7  1  0
  7  8  1  0
  8  9  1  0
  9 10  1  0
 10 11  1  0
 11 12  2  0
 12 13  1  0
 13 14  1  0
 13 15  2  0
 15 16  1  0
 16 17  2  0
 17 18  1  0
 18 19  1  0
 19 20  1  0
 20 21  1  0
 21 22  1  1
 21  3  1  0
 21  7  1  0
 18  8  1  0
 17 11  1  0
  1 23  1  0
  4 24  1  0
  5 25  1  0
  5 26  1  0
  6 27  1  0
  6 28  1  0
  7 29  1  6
  8 30  1  1
  9 31  1  0
  9 32  1  0
 10 33  1  0
 10 34  1  0
 12 35  1  0
 14 36  1  0
 15 37  1  0
 16 38  1  0
 18 39  1  6
 19 40  1  0
 19 41  1  0
 20 42  1  0
 20 43  1  0
 22 44  1  0
 22 45  1  0
 22 46  1  0
M  END
$$$$
