
     RDKit          3D

 56 59  0  0  0  0  0  0  0  0999 V2000
   -7.0484    0.3307    2.9395 C   0  0  0  0  0  0  0  0  0  0  0  0
   -6.9011    0.3313    1.5255 O   0  0  0  0  0  0  0  0  0  0  0  0
   -7.2316   -0.9367    0.9520 C   0  0  0  0  0  0  0  0  0  0  0  0
   -7.1182   -0.8551   -0.5749 C   0  0  0  0  0  0  0  0  0  0  0  0
   -5.7547   -0.5976   -1.0077 N   0  0  0  0  0  0  0  0  0  0  0  0
   -5.4659    0.2479   -2.0687 C   0  0  0  0  0  0  0  0  0  0  0  0
   -6.3429    0.8033   -2.7308 O   0  0  0  0  0  0  0  0  0  0  0  0
   -4.0411    0.4297   -2.3464 C   0  0  0  0  0  0  0  0  0  0  0  0
   -2.9474   -0.2251   -1.8061 C   0  0  0  0  0  0  0  0  0  0  0  0
   -1.8762    0.3430   -2.4313 N   0  0  0  0  0  0  0  0  0  0  0  0
   -0.4780    0.0129   -2.2682 C   0  0  0  0  0  0  0  0  0  0  0  0
    0.1364    0.6704   -1.0218 C   0  0  2  0  0  0  0  0  0  0  0  0
    0.4153    2.1703   -1.1899 C   0  0  0  0  0  0  0  0  0  0  0  0
    1.8381    2.2101   -1.7325 C   0  0  0  0  0  0  0  0  0  0  0  0
    2.5208    1.0731   -0.9845 C   0  0  0  0  0  0  0  0  0  0  0  0
    1.4593    0.1093   -0.7163 N   0  0  0  0  0  0  0  0  0  0  0  0
    1.5680   -1.1445   -0.1191 C   0  0  0  0  0  0  0  0  0  0  0  0
    0.5418   -1.8091    0.0588 O   0  0  0  0  0  0  0  0  0  0  0  0
    2.8693   -1.6616    0.2795 C   0  0  0  0  0  0  0  0  0  0  0  0
    3.1840   -2.8765    0.8660 C   0  0  0  0  0  0  0  0  0  0  0  0
    4.5854   -2.8965    1.0649 C   0  0  0  0  0  0  0  0  0  0  0  0
    5.0568   -1.6892    0.5979 C   0  0  0  0  0  0  0  0  0  0  0  0
    6.4084   -1.0827    0.5252 C   0  0  0  0  0  0  0  0  0  0  0  0
    6.6468   -0.2276    1.6746 N   0  0  0  0  0  0  0  0  0  0  0  0
    6.4244    1.1210    1.7475 C   0  0  0  0  0  0  0  0  0  0  0  0
    6.8133    1.4749    3.0195 C   0  0  0  0  0  0  0  0  0  0  0  0
    7.2812    0.3838    3.7069 N   0  0  0  0  0  0  0  0  0  0  0  0
    7.1642   -0.6270    2.8752 C   0  0  0  0  0  0  0  0  0  0  0  0
    4.0232   -0.9434    0.1117 O   0  0  0  0  0  0  0  0  0  0  0  0
   -2.2560    1.2826   -3.3083 N   0  0  0  0  0  0  0  0  0  0  0  0
   -3.5809    1.3467   -3.2697 N   0  0  0  0  0  0  0  0  0  0  0  0
   -6.3535   -0.3820    3.3950 H   0  0  0  0  0  0  0  0  0  0  0  0
   -8.0784    0.0850    3.2177 H   0  0  0  0  0  0  0  0  0  0  0  0
   -6.8143    1.3312    3.3116 H   0  0  0  0  0  0  0  0  0  0  0  0
   -8.2585   -1.2033    1.2251 H   0  0  0  0  0  0  0  0  0  0  0  0
   -6.5474   -1.7004    1.3450 H   0  0  0  0  0  0  0  0  0  0  0  0
   -7.4131   -1.8164   -1.0190 H   0  0  0  0  0  0  0  0  0  0  0  0
   -7.7850   -0.0737   -0.9663 H   0  0  0  0  0  0  0  0  0  0  0  0
   -4.9992   -1.0068   -0.4713 H   0  0  0  0  0  0  0  0  0  0  0  0
   -2.8353   -1.0135   -1.0755 H   0  0  0  0  0  0  0  0  0  0  0  0
   -0.4267   -1.0814   -2.2114 H   0  0  0  0  0  0  0  0  0  0  0  0
    0.0538    0.3026   -3.1838 H   0  0  0  0  0  0  0  0  0  0  0  0
   -0.5220    0.5099   -0.1568 H   0  0  0  0  0  0  0  0  0  0  0  0
    0.3934    2.6589   -0.2065 H   0  0  0  0  0  0  0  0  0  0  0  0
   -0.2967    2.6905   -1.8350 H   0  0  0  0  0  0  0  0  0  0  0  0
    1.8342    2.0064   -2.8119 H   0  0  0  0  0  0  0  0  0  0  0  0
    2.3313    3.1748   -1.5712 H   0  0  0  0  0  0  0  0  0  0  0  0
    2.9254    1.4152   -0.0242 H   0  0  0  0  0  0  0  0  0  0  0  0
    3.3155    0.6225   -1.5864 H   0  0  0  0  0  0  0  0  0  0  0  0
    2.4689   -3.6494    1.1197 H   0  0  0  0  0  0  0  0  0  0  0  0
    5.1737   -3.6908    1.5049 H   0  0  0  0  0  0  0  0  0  0  0  0
    7.1874   -1.8534    0.5137 H   0  0  0  0  0  0  0  0  0  0  0  0
    6.5237   -0.4746   -0.3784 H   0  0  0  0  0  0  0  0  0  0  0  0
    6.0097    1.6925    0.9281 H   0  0  0  0  0  0  0  0  0  0  0  0
    6.7841    2.4560    3.4766 H   0  0  0  0  0  0  0  0  0  0  0  0
    7.4347   -1.6529    3.0916 H   0  0  0  0  0  0  0  0  0  0  0  0
  1  2  1  0
  2  3  1  0
  3  4  1  0
  4  5  1  0
  5  6  1  0
  6  7  2  0
  6  8  1  0
  8  9  2  0
  9 10  1  0
 10 11  1  0
 11 12  1  0
 12 13  1  0
 13 14  1  0
 14 15  1  0
 15 16  1  0
 16 17  1  0
 17 18  2  0
 17 19  1  0
 19 20  2  0
 20 21  1  0
 21 22  2  0
 22 23  1  0
 23 24  1  0
 24 25  1  0
 25 26  2  0
 26 27  1  0
 27 28  2  0
 22 29  1  0
 10 30  1  0
 30 31  2  0
 31  8  1  0
 16 12  1  0
 29 19  1  0
 28 24  1  0
  1 32  1  0
  1 33  1  0
  1 34  1  0
  3 35  1  0
  3 36  1  0
  4 37  1  0
  4 38  1  0
  5 39  1  0
  9 40  1  0
 11 41  1  0
 11 42  1  0
 12 43  1  1
 13 44  1  0
 13 45  1  0
 14 46  1  0
 14 47  1  0
 15 48  1  0
 15 49  1  0
 20 50  1  0
 21 51  1  0
 23 52  1  0
 23 53  1  0
 25 54  1  0
 26 55  1  0
 28 56  1  0
M  END
$$$$
