
     RDKit          3D

 40 42  0  0  0  0  0  0  0  0999 V2000
   -6.3667   -0.6822    2.1508 C   0  0  0  0  0  0  0  0  0  0  0  0
   -5.9738    0.6684    1.8973 O   0  0  0  0  0  0  0  0  0  0  0  0
   -4.7852    0.7668    1.2102 C   0  0  0  0  0  0  0  0  0  0  0  0
   -4.8747    1.5692    0.0123 C   0  0  0  0  0  0  0  0  0  0  0  0
   -3.8165    1.7619   -0.7862 C   0  0  0  0  0  0  0  0  0  0  0  0
   -2.5270    1.1870   -0.4614 C   0  0  0  0  0  0  0  0  0  0  0  0
   -1.3832    1.2722   -1.1718 C   0  0  0  0  0  0  0  0  0  0  0  0
   -1.2229    1.9818   -2.4906 C   0  0  0  0  0  0  0  0  0  0  0  0
   -0.2422    0.6691   -0.6822 N   0  0  0  0  0  0  0  0  0  0  0  0
   -0.1653   -0.0327    0.4891 C   0  0  0  0  0  0  0  0  0  0  0  0
    0.8714   -0.6208    0.9882 N   0  0  0  0  0  0  0  0  0  0  0  0
    2.0828   -0.6232    0.3654 C   0  0  0  0  0  0  0  0  0  0  0  0
    2.2277   -0.1189   -0.8195 N   0  0  0  0  0  0  0  0  0  0  0  0
    3.4683   -0.1605   -1.4154 C   0  0  0  0  0  0  0  0  0  0  0  0
    3.6559    0.3289   -2.5257 O   0  0  0  0  0  0  0  0  0  0  0  0
    4.6206   -0.8095   -0.6885 C   0  0  0  0  0  0  0  0  0  0  0  0
    5.9202   -0.7995   -1.4318 C   0  0  0  0  0  0  0  0  0  0  0  0
    4.3789   -1.3022    0.5432 C   0  0  0  0  0  0  0  0  0  0  0  0
    5.3876   -1.9871    1.4258 C   0  0  0  0  0  0  0  0  0  0  0  0
    3.1070   -1.1960    1.0470 N   0  0  0  0  0  0  0  0  0  0  0  0
   -1.2915   -0.1704    1.2622 N   0  0  0  0  0  0  0  0  0  0  0  0
   -2.3796    0.3868    0.8172 C   0  0  0  0  0  0  0  0  0  0  0  0
   -3.6247    0.2257    1.6183 C   0  0  0  0  0  0  0  0  0  0  0  0
   -5.6414   -1.2173    2.7765 H   0  0  0  0  0  0  0  0  0  0  0  0
   -7.3173   -0.6596    2.6944 H   0  0  0  0  0  0  0  0  0  0  0  0
   -6.5262   -1.2189    1.2044 H   0  0  0  0  0  0  0  0  0  0  0  0
   -5.8380    2.0117   -0.2295 H   0  0  0  0  0  0  0  0  0  0  0  0
   -3.9321    2.3641   -1.6800 H   0  0  0  0  0  0  0  0  0  0  0  0
   -2.1509    2.4213   -2.8745 H   0  0  0  0  0  0  0  0  0  0  0  0
   -0.4920    2.7910   -2.3983 H   0  0  0  0  0  0  0  0  0  0  0  0
   -0.8575    1.2750   -3.2434 H   0  0  0  0  0  0  0  0  0  0  0  0
    0.6145    0.7013   -1.2353 H   0  0  0  0  0  0  0  0  0  0  0  0
    6.7688   -1.1306   -0.8276 H   0  0  0  0  0  0  0  0  0  0  0  0
    5.8580   -1.4549   -2.3115 H   0  0  0  0  0  0  0  0  0  0  0  0
    6.1575    0.2135   -1.7753 H   0  0  0  0  0  0  0  0  0  0  0  0
    5.0235   -2.9834    1.7095 H   0  0  0  0  0  0  0  0  0  0  0  0
    6.3607   -2.1252    0.9479 H   0  0  0  0  0  0  0  0  0  0  0  0
    5.5419   -1.4064    2.3450 H   0  0  0  0  0  0  0  0  0  0  0  0
    2.8927   -1.5555    1.9684 H   0  0  0  0  0  0  0  0  0  0  0  0
   -3.5293   -0.3408    2.5365 H   0  0  0  0  0  0  0  0  0  0  0  0
  1  2  1  0
  2  3  1  0
  3  4  1  0
  4  5  2  0
  5  6  1  0
  6  7  2  0
  7  8  1  0
  7  9  1  0
  9 10  1  0
 10 11  2  0
 11 12  1  0
 12 13  2  0
 13 14  1  0
 14 15  2  0
 14 16  1  0
 16 17  1  0
 16 18  2  0
 18 19  1  0
 18 20  1  0
 10 21  1  0
 21 22  2  0
 22 23  1  0
 23  3  2  0
 22  6  1  0
 20 12  1  0
  1 24  1  0
  1 25  1  0
  1 26  1  0
  4 27  1  0
  5 28  1  0
  8 29  1  0
  8 30  1  0
  8 31  1  0
  9 32  1  0
 17 33  1  0
 17 34  1  0
 17 35  1  0
 19 36  1  0
 19 37  1  0
 19 38  1  0
 20 39  1  0
 23 40  1  0
M  END
$$$$
