
     RDKit          3D

 60 63  0  0  0  0  0  0  0  0999 V2000
    7.5910    1.1167    1.5747 C   0  0  0  0  0  0  0  0  0  0  0  0
    6.7013    2.3023    1.2213 C   0  0  0  0  0  0  0  0  0  0  0  0
    5.9969    2.2091   -0.1422 C   0  0  0  0  0  0  0  0  0  0  0  0
    6.9731    2.0273   -1.3032 C   0  0  0  0  0  0  0  0  0  0  0  0
    4.9927    1.1524   -0.1474 N   0  0  0  0  0  0  0  0  0  0  0  0
    3.8872    1.2051   -0.9695 C   0  0  0  0  0  0  0  0  0  0  0  0
    3.6187    2.1483   -1.7019 O   0  0  0  0  0  0  0  0  0  0  0  0
    2.9787    0.0305   -0.9152 C   0  0  0  0  0  0  0  0  0  0  0  0
    3.4793   -1.2704   -0.7914 C   0  0  0  0  0  0  0  0  0  0  0  0
    2.5967   -2.3502   -0.7598 C   0  0  0  0  0  0  0  0  0  0  0  0
    1.2152   -2.1294   -0.8526 C   0  0  0  0  0  0  0  0  0  0  0  0
    0.2817   -3.2845   -0.8244 C   0  0  0  0  0  0  0  0  0  0  0  0
    0.7529   -4.4201   -0.8050 O   0  0  0  0  0  0  0  0  0  0  0  0
   -1.0856   -2.9969   -0.8401 N   0  0  0  0  0  0  0  0  0  0  0  0
   -2.0276   -4.0984   -0.7918 C   0  0  0  0  0  0  0  0  0  0  0  0
   -1.9960   -5.1295    0.3122 C   0  0  0  0  0  0  0  0  0  0  0  0
   -3.1318   -4.1594    0.2383 C   0  0  0  0  0  0  0  0  0  0  0  0
   -1.5497   -1.7177   -1.0130 C   0  0  0  0  0  0  0  0  0  0  0  0
   -2.8042   -1.3820   -1.1184 N   0  0  0  0  0  0  0  0  0  0  0  0
   -2.7649   -0.0151   -1.2613 N   0  0  0  0  0  0  0  0  0  0  0  0
   -3.9343    0.8204   -1.1803 C   0  0  0  0  0  0  0  0  0  0  0  0
   -4.2847    1.1388    0.2750 C   0  0  0  0  0  0  0  0  0  0  0  0
   -3.5541    0.8906    1.2313 O   0  0  0  0  0  0  0  0  0  0  0  0
   -5.5071    1.7809    0.4125 N   0  0  0  0  0  0  0  0  0  0  0  0
   -6.0543    2.1007    1.7241 C   0  0  0  0  0  0  0  0  0  0  0  0
   -6.7403    0.8802    2.3329 C   0  0  0  0  0  0  0  0  0  0  0  0
   -7.0283    3.2687    1.6115 C   0  0  0  0  0  0  0  0  0  0  0  0
   -1.4448    0.4483   -1.2118 C   0  0  0  0  0  0  0  0  0  0  0  0
   -1.0957    1.6163   -1.2754 O   0  0  0  0  0  0  0  0  0  0  0  0
   -0.6781   -0.6887   -1.0798 N   0  0  0  0  0  0  0  0  0  0  0  0
    0.7077   -0.8326   -0.9860 C   0  0  0  0  0  0  0  0  0  0  0  0
    1.5966    0.2476   -1.0266 C   0  0  0  0  0  0  0  0  0  0  0  0
    8.4236    1.0161    0.8716 H   0  0  0  0  0  0  0  0  0  0  0  0
    8.0201    1.2594    2.5728 H   0  0  0  0  0  0  0  0  0  0  0  0
    7.0300    0.1777    1.5854 H   0  0  0  0  0  0  0  0  0  0  0  0
    5.9455    2.4167    2.0085 H   0  0  0  0  0  0  0  0  0  0  0  0
    7.3152    3.2114    1.2417 H   0  0  0  0  0  0  0  0  0  0  0  0
    5.4691    3.1585   -0.2992 H   0  0  0  0  0  0  0  0  0  0  0  0
    7.7565    2.7914   -1.2789 H   0  0  0  0  0  0  0  0  0  0  0  0
    6.4535    2.1113   -2.2637 H   0  0  0  0  0  0  0  0  0  0  0  0
    7.4477    1.0407   -1.2826 H   0  0  0  0  0  0  0  0  0  0  0  0
    5.1319    0.3516    0.4523 H   0  0  0  0  0  0  0  0  0  0  0  0
    4.5489   -1.4593   -0.7514 H   0  0  0  0  0  0  0  0  0  0  0  0
    2.9869   -3.3632   -0.6721 H   0  0  0  0  0  0  0  0  0  0  0  0
   -2.2692   -4.4648   -1.7869 H   0  0  0  0  0  0  0  0  0  0  0  0
   -2.1809   -6.1616    0.0381 H   0  0  0  0  0  0  0  0  0  0  0  0
   -1.2760   -5.0104    1.1136 H   0  0  0  0  0  0  0  0  0  0  0  0
   -4.0995   -4.5239   -0.0854 H   0  0  0  0  0  0  0  0  0  0  0  0
   -3.1841   -3.3810    0.9913 H   0  0  0  0  0  0  0  0  0  0  0  0
   -4.7695    0.3010   -1.6606 H   0  0  0  0  0  0  0  0  0  0  0  0
   -3.7377    1.7639   -1.6996 H   0  0  0  0  0  0  0  0  0  0  0  0
   -6.1407    1.7818   -0.3763 H   0  0  0  0  0  0  0  0  0  0  0  0
   -5.2250    2.3971    2.3777 H   0  0  0  0  0  0  0  0  0  0  0  0
   -6.0377    0.0472    2.4432 H   0  0  0  0  0  0  0  0  0  0  0  0
   -7.5643    0.5325    1.6998 H   0  0  0  0  0  0  0  0  0  0  0  0
   -7.1443    1.1134    3.3234 H   0  0  0  0  0  0  0  0  0  0  0  0
   -6.5340    4.1456    1.1808 H   0  0  0  0  0  0  0  0  0  0  0  0
   -7.4187    3.5495    2.5948 H   0  0  0  0  0  0  0  0  0  0  0  0
   -7.8766    3.0179    0.9657 H   0  0  0  0  0  0  0  0  0  0  0  0
    1.2412    1.2705   -1.1389 H   0  0  0  0  0  0  0  0  0  0  0  0
  1  2  1  0
  2  3  1  0
  3  4  1  0
  3  5  1  0
  5  6  1  0
  6  7  2  0
  6  8  1  0
  8  9  2  0
  9 10  1  0
 10 11  2  0
 11 12  1  0
 12 13  2  0
 12 14  1  0
 14 15  1  0
 15 16  1  0
 16 17  1  0
 14 18  1  0
 18 19  2  0
 19 20  1  0
 20 21  1  0
 21 22  1  0
 22 23  2  0
 22 24  1  0
 24 25  1  0
 25 26  1  0
 25 27  1  0
 20 28  1  0
 28 29  2  0
 28 30  1  0
 30 31  1  0
 31 32  2  0
 32  8  1  0
 31 11  1  0
 17 15  1  0
 30 18  1  0
  1 33  1  0
  1 34  1  0
  1 35  1  0
  2 36  1  0
  2 37  1  0
  3 38  1  0
  4 39  1  0
  4 40  1  0
  4 41  1  0
  5 42  1  0
  9 43  1  0
 10 44  1  0
 15 45  1  0
 16 46  1  0
 16 47  1  0
 17 48  1  0
 17 49  1  0
 21 50  1  0
 21 51  1  0
 24 52  1  0
 25 53  1  0
 26 54  1  0
 26 55  1  0
 26 56  1  0
 27 57  1  0
 27 58  1  0
 27 59  1  0
 32 60  1  0
M  END
$$$$
