
     RDKit          3D

 72 75  0  0  0  0  0  0  0  0999 V2000
    7.8532   -2.7418   -1.3802 C   0  0  0  0  0  0  0  0  0  0  0  0
    6.6854   -1.7618   -1.4542 C   0  0  0  0  0  0  0  0  0  0  0  0
    6.9365   -0.5469   -0.6725 N   0  0  0  0  0  0  0  0  0  0  0  0
    5.7125    0.0736   -0.1443 C   0  0  0  0  0  0  0  0  0  0  0  0
    4.8625    0.9640   -1.0675 C   0  0  0  0  0  0  0  0  0  0  0  0
    4.1515    0.2456   -2.2119 C   0  0  0  0  0  0  0  0  0  0  0  0
    3.4003   -0.8816   -1.7603 O   0  0  0  0  0  0  0  0  0  0  0  0
    2.2008   -0.6591   -1.1458 C   0  0  0  0  0  0  0  0  0  0  0  0
    1.3867    0.4501   -1.3292 C   0  0  0  0  0  0  0  0  0  0  0  0
    0.1685    0.5269   -0.6527 C   0  0  0  0  0  0  0  0  0  0  0  0
   -0.2506   -0.5045    0.2269 C   0  0  0  0  0  0  0  0  0  0  0  0
   -1.4616   -0.5187    0.9534 C   0  0  0  0  0  0  0  0  0  0  0  0
   -2.3527    0.5712    0.8184 N   0  0  0  0  0  0  0  0  0  0  0  0
   -3.6555    0.6802    1.1466 C   0  0  0  0  0  0  0  0  0  0  0  0
   -4.5648   -0.3790    1.3697 C   0  0  0  0  0  0  0  0  0  0  0  0
   -5.7745    0.2217    1.6433 C   0  0  0  0  0  0  0  0  0  0  0  0
   -7.1073   -0.3409    1.9992 C   0  0  0  0  0  0  0  0  0  0  0  0
   -8.2438    0.3894    1.2809 C   0  0  0  0  0  0  0  0  0  0  0  0
   -8.2911    1.6188    1.2602 O   0  0  0  0  0  0  0  0  0  0  0  0
   -9.1675   -0.4750    0.7151 N   0  0  0  0  0  0  0  0  0  0  0  0
  -10.3389   -0.1392    0.0025 C   0  0  0  0  0  0  0  0  0  0  0  0
  -10.7438    1.1709   -0.2700 C   0  0  0  0  0  0  0  0  0  0  0  0
  -11.9243    1.4211   -0.9813 C   0  0  0  0  0  0  0  0  0  0  0  0
  -12.7104    0.3609   -1.4249 C   0  0  0  0  0  0  0  0  0  0  0  0
  -12.3060   -0.9390   -1.1562 C   0  0  0  0  0  0  0  0  0  0  0  0
  -13.0572   -1.9653   -1.5792 F   0  0  0  0  0  0  0  0  0  0  0  0
  -11.1336   -1.1981   -0.4520 C   0  0  0  0  0  0  0  0  0  0  0  0
   -5.5349    1.5665    1.5437 N   0  0  0  0  0  0  0  0  0  0  0  0
   -4.2581    1.8669    1.2585 N   0  0  0  0  0  0  0  0  0  0  0  0
   -1.8053   -1.5576    1.7384 N   0  0  0  0  0  0  0  0  0  0  0  0
   -0.9296   -2.5612    1.8284 C   0  0  0  0  0  0  0  0  0  0  0  0
    0.2437   -2.6467    1.1950 N   0  0  0  0  0  0  0  0  0  0  0  0
    0.5719   -1.6260    0.3975 C   0  0  0  0  0  0  0  0  0  0  0  0
    1.7754   -1.6841   -0.2952 C   0  0  0  0  0  0  0  0  0  0  0  0
    7.8765    0.3792   -1.3269 C   0  0  0  0  0  0  0  0  0  0  0  0
    8.3514    1.5540   -0.4554 C   0  0  0  0  0  0  0  0  0  0  0  0
    9.0137    1.0711    0.7027 O   0  0  0  0  0  0  0  0  0  0  0  0
    9.3146    2.1350    1.8536 P   0  0  0  0  0  5  0  0  0  0  0  0
   10.1311    3.3228    1.4842 O   0  0  0  0  0  0  0  0  0  0  0  0
    9.9606    1.2338    3.0016 O   0  0  0  0  0  0  0  0  0  0  0  0
    7.8849    2.4688    2.4804 O   0  0  0  0  0  0  0  0  0  0  0  0
    8.7520   -2.3517   -1.8661 H   0  0  0  0  0  0  0  0  0  0  0  0
    7.5861   -3.6751   -1.8870 H   0  0  0  0  0  0  0  0  0  0  0  0
    8.0982   -2.9854   -0.3413 H   0  0  0  0  0  0  0  0  0  0  0  0
    6.4768   -1.5324   -2.5041 H   0  0  0  0  0  0  0  0  0  0  0  0
    5.8098   -2.2925   -1.0608 H   0  0  0  0  0  0  0  0  0  0  0  0
    6.0072    0.6901    0.7147 H   0  0  0  0  0  0  0  0  0  0  0  0
    5.0755   -0.6979    0.3073 H   0  0  0  0  0  0  0  0  0  0  0  0
    4.1030    1.4397   -0.4347 H   0  0  0  0  0  0  0  0  0  0  0  0
    5.4636    1.7825   -1.4759 H   0  0  0  0  0  0  0  0  0  0  0  0
    4.8913   -0.1312   -2.9239 H   0  0  0  0  0  0  0  0  0  0  0  0
    3.5402    0.9390   -2.7984 H   0  0  0  0  0  0  0  0  0  0  0  0
    1.6486    1.2572   -2.0043 H   0  0  0  0  0  0  0  0  0  0  0  0
   -0.4642    1.3937   -0.8323 H   0  0  0  0  0  0  0  0  0  0  0  0
   -1.8643    1.4577    0.8645 H   0  0  0  0  0  0  0  0  0  0  0  0
   -4.3590   -1.4391    1.3441 H   0  0  0  0  0  0  0  0  0  0  0  0
   -7.1246   -1.4105    1.7605 H   0  0  0  0  0  0  0  0  0  0  0  0
   -7.2792   -0.2422    3.0774 H   0  0  0  0  0  0  0  0  0  0  0  0
   -8.9922   -1.4671    0.8214 H   0  0  0  0  0  0  0  0  0  0  0  0
  -10.1608    2.0288    0.0531 H   0  0  0  0  0  0  0  0  0  0  0  0
  -12.2254    2.4460   -1.1850 H   0  0  0  0  0  0  0  0  0  0  0  0
  -13.6283    0.5404   -1.9758 H   0  0  0  0  0  0  0  0  0  0  0  0
  -10.8660   -2.2333   -0.2677 H   0  0  0  0  0  0  0  0  0  0  0  0
   -6.2113    2.3223    1.6347 H   0  0  0  0  0  0  0  0  0  0  0  0
   -1.1944   -3.3857    2.4804 H   0  0  0  0  0  0  0  0  0  0  0  0
    2.4091   -2.5602   -0.1669 H   0  0  0  0  0  0  0  0  0  0  0  0
    8.7791   -0.1729   -1.6098 H   0  0  0  0  0  0  0  0  0  0  0  0
    7.4419    0.7723   -2.2532 H   0  0  0  0  0  0  0  0  0  0  0  0
    7.5182    2.2050   -0.1726 H   0  0  0  0  0  0  0  0  0  0  0  0
    9.0637    2.1588   -1.0277 H   0  0  0  0  0  0  0  0  0  0  0  0
   10.8568    0.9433    2.7571 H   0  0  0  0  0  0  0  0  0  0  0  0
    7.9781    3.0345    3.2670 H   0  0  0  0  0  0  0  0  0  0  0  0
  1  2  1  0
  2  3  1  0
  3  4  1  0
  4  5  1  0
  5  6  1  0
  6  7  1  0
  7  8  1  0
  8  9  2  0
  9 10  1  0
 10 11  2  0
 11 12  1  0
 12 13  1  0
 13 14  1  0
 14 15  1  0
 15 16  2  0
 16 17  1  0
 17 18  1  0
 18 19  2  0
 18 20  1  0
 20 21  1  0
 21 22  2  0
 22 23  1  0
 23 24  2  0
 24 25  1  0
 25 26  1  0
 25 27  2  0
 16 28  1  0
 28 29  1  0
 12 30  2  0
 30 31  1  0
 31 32  2  0
 32 33  1  0
 33 34  2  0
  3 35  1  0
 35 36  1  0
 36 37  1  0
 37 38  1  0
 38 39  2  0
 38 40  1  0
 38 41  1  0
 34  8  1  0
 33 11  1  0
 29 14  2  0
 27 21  1  0
  1 42  1  0
  1 43  1  0
  1 44  1  0
  2 45  1  0
  2 46  1  0
  4 47  1  0
  4 48  1  0
  5 49  1  0
  5 50  1  0
  6 51  1  0
  6 52  1  0
  9 53  1  0
 10 54  1  0
 13 55  1  0
 15 56  1  0
 17 57  1  0
 17 58  1  0
 20 59  1  0
 22 60  1  0
 23 61  1  0
 24 62  1  0
 27 63  1  0
 28 64  1  0
 31 65  1  0
 34 66  1  0
 35 67  1  0
 35 68  1  0
 36 69  1  0
 36 70  1  0
 40 71  1  0
 41 72  1  0
M  END
$$$$
