
     RDKit          3D

 18 19  0  0  0  0  0  0  0  0999 V2000
    1.8494   -2.1620   -0.3052 O   0  0  0  0  0  0  0  0  0  0  0  0
    1.3745   -0.8758   -0.1542 C   0  0  0  0  0  0  0  0  0  0  0  0
    2.2675    0.1998   -0.0913 C   0  0  0  0  0  0  0  0  0  0  0  0
    4.3348   -0.0831   -0.2207 I   0  0  0  0  0  0  0  0  0  0  0  0
    1.7859    1.4925    0.0605 C   0  0  0  0  0  0  0  0  0  0  0  0
    0.4098    1.7026    0.1488 C   0  0  0  0  0  0  0  0  0  0  0  0
   -0.1148    3.3448    0.3374 Cl  0  0  0  0  0  0  0  0  0  0  0  0
   -0.5084    0.6244    0.0869 C   0  0  0  0  0  0  0  0  0  0  0  0
   -1.9113    0.7800    0.1711 C   0  0  0  0  0  0  0  0  0  0  0  0
   -2.7561   -0.3201    0.1034 C   0  0  0  0  0  0  0  0  0  0  0  0
   -2.1792   -1.5597   -0.0479 C   0  0  0  0  0  0  0  0  0  0  0  0
   -0.8482   -1.7554   -0.1325 N   0  0  0  0  0  0  0  0  0  0  0  0
   -0.0146   -0.6918   -0.0679 C   0  0  0  0  0  0  0  0  0  0  0  0
    2.8197   -2.1291   -0.3494 H   0  0  0  0  0  0  0  0  0  0  0  0
    2.4665    2.3389    0.1111 H   0  0  0  0  0  0  0  0  0  0  0  0
   -2.3601    1.7634    0.2906 H   0  0  0  0  0  0  0  0  0  0  0  0
   -3.8323   -0.2092    0.1671 H   0  0  0  0  0  0  0  0  0  0  0  0
   -2.7832   -2.4604   -0.1077 H   0  0  0  0  0  0  0  0  0  0  0  0
  1  2  1  0
  2  3  2  0
  3  4  1  0
  3  5  1  0
  5  6  2  0
  6  7  1  0
  6  8  1  0
  8  9  2  0
  9 10  1  0
 10 11  2  0
 11 12  1  0
 12 13  2  0
 13  2  1  0
 13  8  1  0
  1 14  1  0
  5 15  1  0
  9 16  1  0
 10 17  1  0
 11 18  1  0
M  END
$$$$
