
     RDKit          3D

 48 50  0  0  0  0  0  0  0  0999 V2000
   -4.9286   -1.0890    0.6962 C   0  0  0  0  0  0  0  0  0  0  0  0
   -3.5993   -0.6999    1.0412 O   0  0  0  0  0  0  0  0  0  0  0  0
   -3.2894    0.5735    0.6987 C   0  0  0  0  0  0  0  0  0  0  0  0
   -4.0381    1.3849    0.1774 O   0  0  0  0  0  0  0  0  0  0  0  0
   -1.8779    0.8424    1.0490 C   0  0  0  0  0  0  0  0  0  0  0  0
   -1.5165    1.9675    1.7074 C   0  0  0  0  0  0  0  0  0  0  0  0
   -2.4789    3.0193    2.1989 C   0  0  0  0  0  0  0  0  0  0  0  0
   -0.1781    2.1895    2.0000 N   0  0  0  0  0  0  0  0  0  0  0  0
    0.8379    1.2777    1.7575 C   0  0  0  0  0  0  0  0  0  0  0  0
    2.1928    1.6353    2.3110 C   0  0  0  0  0  0  0  0  0  0  0  0
    0.5574    0.1371    1.0900 C   0  0  0  0  0  0  0  0  0  0  0  0
    1.5734   -0.8956    0.8177 C   0  0  0  0  0  0  0  0  0  0  0  0
    1.5043   -2.0395    1.2341 O   0  0  0  0  0  0  0  0  0  0  0  0
    2.5221   -0.3826   -0.0046 O   0  0  0  0  0  0  0  0  0  0  0  0
    3.5390   -1.3026   -0.4397 C   0  0  0  0  0  0  0  0  0  0  0  0
    4.0656   -0.7882   -1.7736 C   0  0  0  0  0  0  0  0  0  0  0  0
    4.6527   -1.3572    0.5991 C   0  0  0  0  0  0  0  0  0  0  0  0
   -0.8457   -0.1867    0.5954 C   0  0  0  0  0  0  0  0  0  0  0  0
   -0.8658   -0.3411   -0.9181 C   0  0  0  0  0  0  0  0  0  0  0  0
   -0.4949    0.7132   -1.7994 C   0  0  0  0  0  0  0  0  0  0  0  0
   -0.4994    0.6052   -3.2155 C   0  0  0  0  0  0  0  0  0  0  0  0
   -0.8779   -0.5658   -3.8927 C   0  0  0  0  0  0  0  0  0  0  0  0
   -1.2569   -1.6271   -3.0527 C   0  0  0  0  0  0  0  0  0  0  0  0
   -1.6677   -2.8566   -3.3848 N   0  0  0  0  0  0  0  0  0  0  0  0
   -1.9158   -3.5063   -2.1886 O   0  0  0  0  0  0  0  0  0  0  0  0
   -1.6684   -2.6915   -1.0989 N   0  0  0  0  0  0  0  0  0  0  0  0
   -1.2530   -1.5203   -1.5980 C   0  0  0  0  0  0  0  0  0  0  0  0
   -5.0655   -2.1313    0.9969 H   0  0  0  0  0  0  0  0  0  0  0  0
   -5.6586   -0.4741    1.2317 H   0  0  0  0  0  0  0  0  0  0  0  0
   -5.0802   -1.0181   -0.3856 H   0  0  0  0  0  0  0  0  0  0  0  0
   -2.1852    3.3682    3.1956 H   0  0  0  0  0  0  0  0  0  0  0  0
   -2.4735    3.8791    1.5215 H   0  0  0  0  0  0  0  0  0  0  0  0
   -3.5049    2.6540    2.2936 H   0  0  0  0  0  0  0  0  0  0  0  0
    0.0483    3.0056    2.5639 H   0  0  0  0  0  0  0  0  0  0  0  0
    2.8918    0.7948    2.3198 H   0  0  0  0  0  0  0  0  0  0  0  0
    2.0997    1.9764    3.3482 H   0  0  0  0  0  0  0  0  0  0  0  0
    2.6364    2.4449    1.7225 H   0  0  0  0  0  0  0  0  0  0  0  0
    3.1139   -2.3015   -0.5970 H   0  0  0  0  0  0  0  0  0  0  0  0
    3.2530   -0.7318   -2.5063 H   0  0  0  0  0  0  0  0  0  0  0  0
    4.8489   -1.4407   -2.1709 H   0  0  0  0  0  0  0  0  0  0  0  0
    4.4688    0.2257   -1.6733 H   0  0  0  0  0  0  0  0  0  0  0  0
    5.0616   -0.3583    0.7876 H   0  0  0  0  0  0  0  0  0  0  0  0
    4.2731   -1.7259    1.5576 H   0  0  0  0  0  0  0  0  0  0  0  0
    5.4654   -2.0142    0.2747 H   0  0  0  0  0  0  0  0  0  0  0  0
   -1.1187   -1.1458    1.0569 H   0  0  0  0  0  0  0  0  0  0  0  0
   -0.1865    1.6704   -1.3708 H   0  0  0  0  0  0  0  0  0  0  0  0
   -0.1976    1.4737   -3.8023 H   0  0  0  0  0  0  0  0  0  0  0  0
   -0.8831   -0.6464   -4.9716 H   0  0  0  0  0  0  0  0  0  0  0  0
  1  2  1  0
  2  3  1  0
  3  4  2  0
  3  5  1  0
  5  6  2  0
  6  7  1  0
  6  8  1  0
  8  9  1  0
  9 10  1  0
  9 11  2  0
 11 12  1  0
 12 13  2  0
 12 14  1  0
 14 15  1  0
 15 16  1  0
 15 17  1  0
 11 18  1  0
 18 19  1  0
 19 20  2  0
 20 21  1  0
 21 22  2  0
 22 23  1  0
 23 24  2  0
 24 25  1  0
 25 26  1  0
 26 27  2  0
 18  5  1  0
 27 19  1  0
 27 23  1  0
  1 28  1  0
  1 29  1  0
  1 30  1  0
  7 31  1  0
  7 32  1  0
  7 33  1  0
  8 34  1  0
 10 35  1  0
 10 36  1  0
 10 37  1  0
 15 38  1  0
 16 39  1  0
 16 40  1  0
 16 41  1  0
 17 42  1  0
 17 43  1  0
 17 44  1  0
 18 45  1  0
 20 46  1  0
 21 47  1  0
 22 48  1  0
M  END
$$$$
