
     RDKit          3D

108111  0  0  0  0  0  0  0  0999 V2000
   -3.9206    4.2489   -0.1054 C   0  0  0  0  0  0  0  0  0  0  0  0
   -4.7679    3.7326    1.0668 C   0  0  0  0  0  0  0  0  0  0  0  0
   -6.2328    4.1414    0.8303 C   0  0  0  0  0  0  0  0  0  0  0  0
   -4.3006    4.3735    2.3812 C   0  0  0  0  0  0  0  0  0  0  0  0
   -4.7185    2.2642    1.1384 N   0  0  0  0  0  0  0  0  0  0  0  0
   -3.5751    1.5192    1.3779 C   0  0  0  0  0  0  0  0  0  0  0  0
   -2.4789    2.0193    1.6150 O   0  0  0  0  0  0  0  0  0  0  0  0
   -3.8187   -0.0077    1.2926 C   0  0  2  0  0  0  0  0  0  0  0  0
   -4.5435   -0.4794    2.5560 C   0  0  0  0  0  0  0  0  0  0  0  0
   -4.9883   -1.9397    2.4024 C   0  0  2  0  0  0  0  0  0  0  0  0
   -5.3295   -2.5526    3.7642 C   0  0  0  0  0  0  0  0  0  0  0  0
   -5.8686   -3.9755    3.6295 C   0  0  0  0  0  0  0  0  0  0  0  0
   -5.2195   -4.7711    2.4981 C   0  0  0  0  0  0  0  0  0  0  0  0
   -3.8522   -4.2236    2.1206 C   0  0  0  0  0  0  0  0  0  0  0  0
   -3.9507   -2.7759    1.6144 C   0  0  2  0  0  0  0  0  0  0  0  0
   -2.5620   -2.1159    1.6138 C   0  0  0  0  0  0  0  0  0  0  0  0
   -2.5433   -0.7410    1.0900 N   0  0  0  0  0  0  0  0  0  0  0  0
   -2.0849   -0.6252   -0.3112 C   0  0  0  0  0  0  0  0  0  0  0  0
   -0.5991   -1.0263   -0.4907 C   0  0  0  0  0  0  0  0  0  0  0  0
    0.1612   -0.5277    0.6213 O   0  0  0  0  0  0  0  0  0  0  0  0
    0.0450   -0.5246   -1.8182 C   0  0  2  0  0  0  0  0  0  0  0  0
   -0.8068   -0.8946   -3.0496 C   0  0  0  0  0  0  0  0  0  0  0  0
   -0.2404   -0.3813   -4.3536 C   0  0  0  0  0  0  0  0  0  0  0  0
    0.3107   -1.2692   -5.2888 C   0  0  0  0  0  0  0  0  0  0  0  0
    0.8652   -0.7880   -6.4747 C   0  0  0  0  0  0  0  0  0  0  0  0
    0.8683    0.5802   -6.7436 C   0  0  0  0  0  0  0  0  0  0  0  0
    0.3082    1.4681   -5.8294 C   0  0  0  0  0  0  0  0  0  0  0  0
   -0.2450    0.9914   -4.6392 C   0  0  0  0  0  0  0  0  0  0  0  0
    1.3953   -1.1045   -1.9510 N   0  0  0  0  0  0  0  0  0  0  0  0
    2.5321   -0.3974   -1.6120 C   0  0  0  0  0  0  0  0  0  0  0  0
    2.5619    0.8112   -1.3861 O   0  0  0  0  0  0  0  0  0  0  0  0
    3.8140   -1.2493   -1.6140 C   0  0  1  0  0  0  0  0  0  0  0  0
    4.3099   -1.5232   -3.0332 C   0  0  0  0  0  0  0  0  0  0  0  0
    4.4211   -0.3535   -3.9905 C   0  0  0  0  0  0  0  0  0  0  0  0
    4.6485    0.8880   -3.4828 N   0  0  0  0  0  0  0  0  0  0  0  0
    4.4076   -0.5173   -5.2106 O   0  0  0  0  0  0  0  0  0  0  0  0
    4.8154   -0.6112   -0.7729 N   0  0  0  0  0  0  0  0  0  0  0  0
    5.8655   -1.3069   -0.2258 C   0  0  0  0  0  0  0  0  0  0  0  0
    6.1111   -2.4784   -0.4818 O   0  0  0  0  0  0  0  0  0  0  0  0
    6.6993   -0.5197    0.7373 C   0  0  0  0  0  0  0  0  0  0  0  0
    7.7808   -1.1237    1.3569 C   0  0  0  0  0  0  0  0  0  0  0  0
    8.5296   -0.3600    2.2425 C   0  0  0  0  0  0  0  0  0  0  0  0
    8.1769    0.9742    2.4818 C   0  0  0  0  0  0  0  0  0  0  0  0
    8.9097    1.7786    3.3702 C   0  0  0  0  0  0  0  0  0  0  0  0
    8.5358    3.1021    3.5945 C   0  0  0  0  0  0  0  0  0  0  0  0
    7.4343    3.6251    2.9269 C   0  0  0  0  0  0  0  0  0  0  0  0
    6.7027    2.8224    2.0460 C   0  0  0  0  0  0  0  0  0  0  0  0
    7.0526    1.5005    1.8050 C   0  0  0  0  0  0  0  0  0  0  0  0
    6.3192    0.7713    0.9483 N   0  0  0  0  0  0  0  0  0  0  0  0
   -1.0166   -0.2453    0.4128 C   0  0  0  0  0  0  0  0  0  0  0  0
    0.5936   -0.2965   -0.3324 S   0  0  0  0  0  6  0  0  0  0  0  0
    0.4672   -0.0865   -1.7570 O   0  0  0  0  0  0  0  0  0  0  0  0
    1.3534   -1.3826    0.2369 O   0  0  0  0  0  0  0  0  0  0  0  0
    1.1631    1.0892    0.2664 O   0  0  0  0  0  0  0  0  0  0  0  0
   -4.0191    5.3354   -0.2154 H   0  0  0  0  0  0  0  0  0  0  0  0
   -2.8566    4.0273    0.0300 H   0  0  0  0  0  0  0  0  0  0  0  0
   -4.2324    3.7859   -1.0487 H   0  0  0  0  0  0  0  0  0  0  0  0
   -6.8779    3.7853    1.6408 H   0  0  0  0  0  0  0  0  0  0  0  0
   -6.3423    5.2291    0.7631 H   0  0  0  0  0  0  0  0  0  0  0  0
   -6.6190    3.7077   -0.0994 H   0  0  0  0  0  0  0  0  0  0  0  0
   -4.8603    3.9745    3.2356 H   0  0  0  0  0  0  0  0  0  0  0  0
   -4.4476    5.4596    2.3642 H   0  0  0  0  0  0  0  0  0  0  0  0
   -3.2381    4.1915    2.5754 H   0  0  0  0  0  0  0  0  0  0  0  0
   -5.5551    1.7627    0.8725 H   0  0  0  0  0  0  0  0  0  0  0  0
   -4.4789   -0.1902    0.4307 H   0  0  0  0  0  0  0  0  0  0  0  0
   -3.8862   -0.3591    3.4268 H   0  0  0  0  0  0  0  0  0  0  0  0
   -5.4206    0.1465    2.7593 H   0  0  0  0  0  0  0  0  0  0  0  0
   -5.9120   -1.9387    1.8051 H   0  0  0  0  0  0  0  0  0  0  0  0
   -4.4318   -2.5618    4.3939 H   0  0  0  0  0  0  0  0  0  0  0  0
   -6.0666   -1.9375    4.2924 H   0  0  0  0  0  0  0  0  0  0  0  0
   -6.9525   -3.9467    3.4630 H   0  0  0  0  0  0  0  0  0  0  0  0
   -5.7241   -4.4998    4.5813 H   0  0  0  0  0  0  0  0  0  0  0  0
   -5.1384   -5.8235    2.7855 H   0  0  0  0  0  0  0  0  0  0  0  0
   -5.8732   -4.7437    1.6191 H   0  0  0  0  0  0  0  0  0  0  0  0
   -3.4066   -4.8517    1.3402 H   0  0  0  0  0  0  0  0  0  0  0  0
   -3.1843   -4.2843    2.9888 H   0  0  0  0  0  0  0  0  0  0  0  0
   -4.2921   -2.8185    0.5696 H   0  0  0  0  0  0  0  0  0  0  0  0
   -2.1925   -2.0694    2.6459 H   0  0  0  0  0  0  0  0  0  0  0  0
   -1.8509   -2.7665    1.0925 H   0  0  0  0  0  0  0  0  0  0  0  0
   -2.7248   -1.2150   -0.9790 H   0  0  0  0  0  0  0  0  0  0  0  0
   -2.1738    0.4229   -0.6269 H   0  0  0  0  0  0  0  0  0  0  0  0
   -0.5109   -2.1180   -0.4524 H   0  0  0  0  0  0  0  0  0  0  0  0
   -0.4962   -0.1843    1.2632 H   0  0  0  0  0  0  0  0  0  0  0  0
    0.1543    0.5664   -1.7520 H   0  0  0  0  0  0  0  0  0  0  0  0
   -1.8160   -0.4774   -2.9560 H   0  0  0  0  0  0  0  0  0  0  0  0
   -0.9247   -1.9851   -3.1041 H   0  0  0  0  0  0  0  0  0  0  0  0
    0.3392   -2.3378   -5.0935 H   0  0  0  0  0  0  0  0  0  0  0  0
    1.3086   -1.4786   -7.1883 H   0  0  0  0  0  0  0  0  0  0  0  0
    1.3212    0.9508   -7.6594 H   0  0  0  0  0  0  0  0  0  0  0  0
    0.3177    2.5347   -6.0363 H   0  0  0  0  0  0  0  0  0  0  0  0
   -0.6651    1.7006   -3.9322 H   0  0  0  0  0  0  0  0  0  0  0  0
    1.4566   -2.1145   -1.9924 H   0  0  0  0  0  0  0  0  0  0  0  0
    3.5774   -2.2109   -1.1359 H   0  0  0  0  0  0  0  0  0  0  0  0
    3.6116   -2.2251   -3.5075 H   0  0  0  0  0  0  0  0  0  0  0  0
    5.2906   -2.0119   -3.0150 H   0  0  0  0  0  0  0  0  0  0  0  0
    4.6466    1.6360   -4.1616 H   0  0  0  0  0  0  0  0  0  0  0  0
    4.3190    1.1462   -2.5581 H   0  0  0  0  0  0  0  0  0  0  0  0
    4.6243    0.3148   -0.3881 H   0  0  0  0  0  0  0  0  0  0  0  0
    8.0336   -2.1591    1.1600 H   0  0  0  0  0  0  0  0  0  0  0  0
    9.3834   -0.8108    2.7437 H   0  0  0  0  0  0  0  0  0  0  0  0
    9.7744    1.3760    3.8924 H   0  0  0  0  0  0  0  0  0  0  0  0
    9.1003    3.7185    4.2896 H   0  0  0  0  0  0  0  0  0  0  0  0
    7.1365    4.6576    3.0885 H   0  0  0  0  0  0  0  0  0  0  0  0
    5.8398    3.2424    1.5320 H   0  0  0  0  0  0  0  0  0  0  0  0
   -0.9044   -0.2508    1.4985 H   0  0  0  0  0  0  0  0  0  0  0  0
   -1.5349    0.6530    0.0732 H   0  0  0  0  0  0  0  0  0  0  0  0
   -1.5657   -1.1305    0.0865 H   0  0  0  0  0  0  0  0  0  0  0  0
    1.4443    1.6501   -0.4848 H   0  0  0  0  0  0  0  0  0  0  0  0
  1  2  1  0
  2  3  1  0
  2  4  1  0
  2  5  1  0
  5  6  1  0
  6  7  2  0
  6  8  1  0
  8  9  1  0
  9 10  1  0
 10 11  1  0
 11 12  1  0
 12 13  1  0
 13 14  1  0
 14 15  1  0
 15 16  1  0
 16 17  1  0
 17 18  1  0
 18 19  1  0
 19 20  1  0
 19 21  1  0
 21 22  1  0
 22 23  1  0
 23 24  2  0
 24 25  1  0
 25 26  2  0
 26 27  1  0
 27 28  2  0
 21 29  1  0
 29 30  1  0
 30 31  2  0
 30 32  1  0
 32 33  1  0
 33 34  1  0
 34 35  1  0
 34 36  2  0
 32 37  1  0
 37 38  1  0
 38 39  2  0
 38 40  1  0
 40 41  2  0
 41 42  1  0
 42 43  2  0
 43 44  1  0
 44 45  2  0
 45 46  1  0
 46 47  2  0
 47 48  1  0
 48 49  2  0
 50 51  1  0
 51 52  2  0
 51 53  2  0
 51 54  1  0
 17  8  1  0
 28 23  1  0
 49 40  1  0
 15 10  1  0
 48 43  1  0
  1 55  1  0
  1 56  1  0
  1 57  1  0
  3 58  1  0
  3 59  1  0
  3 60  1  0
  4 61  1  0
  4 62  1  0
  4 63  1  0
  5 64  1  0
  8 65  1  6
  9 66  1  0
  9 67  1  0
 10 68  1  6
 11 69  1  0
 11 70  1  0
 12 71  1  0
 12 72  1  0
 13 73  1  0
 13 74  1  0
 14 75  1  0
 14 76  1  0
 15 77  1  6
 16 78  1  0
 16 79  1  0
 18 80  1  0
 18 81  1  0
 19 82  1  0
 20 83  1  0
 21 84  1  1
 22 85  1  0
 22 86  1  0
 24 87  1  0
 25 88  1  0
 26 89  1  0
 27 90  1  0
 28 91  1  0
 29 92  1  0
 32 93  1  1
 33 94  1  0
 33 95  1  0
 35 96  1  0
 35 97  1  0
 37 98  1  0
 41 99  1  0
 42100  1  0
 44101  1  0
 45102  1  0
 46103  1  0
 47104  1  0
 50105  1  0
 50106  1  0
 50107  1  0
 54108  1  0
M  END
$$$$
