
     RDKit          3D

 49 52  0  0  0  0  0  0  0  0999 V2000
    1.1950    2.1636    0.9319 O   0  0  0  0  0  0  0  0  0  0  0  0
    1.4608    1.1435    0.2922 C   0  0  0  0  0  0  0  0  0  0  0  0
    0.2664    0.4258   -0.2011 C   0  0  0  0  0  0  0  0  0  0  0  0
   -0.1694   -0.7364    0.4496 C   0  0  0  0  0  0  0  0  0  0  0  0
   -1.2987   -1.4052   -0.0235 C   0  0  0  0  0  0  0  0  0  0  0  0
   -2.0001   -0.8844   -1.1207 C   0  0  0  0  0  0  0  0  0  0  0  0
   -3.4088   -1.7641   -1.7600 S   0  0  0  0  0  6  0  0  0  0  0  0
   -3.2398   -3.1570   -1.3885 O   0  0  0  0  0  0  0  0  0  0  0  0
   -3.5413   -1.3907   -3.1563 O   0  0  0  0  0  0  0  0  0  0  0  0
   -4.8359   -1.1549   -0.9137 C   0  0  0  0  0  0  0  0  0  0  0  0
   -4.9902    0.3663   -0.9243 C   0  0  0  0  0  0  0  0  0  0  0  0
   -6.2128    0.6568   -0.0631 C   0  0  0  0  0  0  0  0  0  0  0  0
   -6.1419   -0.5404    1.2636 S   0  0  0  0  0  6  0  0  0  0  0  0
   -5.5775    0.0905    2.4374 O   0  0  0  0  0  0  0  0  0  0  0  0
   -7.3921   -1.2663    1.2921 O   0  0  0  0  0  0  0  0  0  0  0  0
   -4.8953   -1.5870    0.5428 C   0  0  0  0  0  0  0  0  0  0  0  0
   -1.5614    0.2780   -1.7721 C   0  0  0  0  0  0  0  0  0  0  0  0
   -0.4310    0.9449   -1.2995 C   0  0  0  0  0  0  0  0  0  0  0  0
    2.7299    0.5934   -0.0050 N   0  0  0  0  0  0  0  0  0  0  0  0
    2.8241   -0.6448   -0.7970 C   0  0  0  0  0  0  0  0  0  0  0  0
    4.1635   -0.8623   -1.4752 C   0  0  0  0  0  0  0  0  0  0  0  0
    5.2515   -0.8524   -0.4261 C   0  0  0  0  0  0  0  0  0  0  0  0
    5.1809    0.4257    0.3633 C   0  0  0  0  0  0  0  0  0  0  0  0
    6.3758    0.8992    0.9406 C   0  0  0  0  0  0  0  0  0  0  0  0
    6.3898    2.0749    1.6789 C   0  0  0  0  0  0  0  0  0  0  0  0
    5.2088    2.7824    1.8492 C   0  0  0  0  0  0  0  0  0  0  0  0
    4.0126    2.3074    1.2953 C   0  0  0  0  0  0  0  0  0  0  0  0
    3.9604    1.1168    0.5543 C   0  0  0  0  0  0  0  0  0  0  0  0
    0.3723   -1.1188    1.3146 H   0  0  0  0  0  0  0  0  0  0  0  0
   -1.6151   -2.3276    0.4630 H   0  0  0  0  0  0  0  0  0  0  0  0
   -5.6915   -1.5958   -1.4454 H   0  0  0  0  0  0  0  0  0  0  0  0
   -5.1105    0.7642   -1.9379 H   0  0  0  0  0  0  0  0  0  0  0  0
   -4.1146    0.8527   -0.4793 H   0  0  0  0  0  0  0  0  0  0  0  0
   -7.1380    0.4853   -0.6223 H   0  0  0  0  0  0  0  0  0  0  0  0
   -6.2056    1.6678    0.3496 H   0  0  0  0  0  0  0  0  0  0  0  0
   -3.9610   -1.4020    1.0788 H   0  0  0  0  0  0  0  0  0  0  0  0
   -5.1814   -2.6344    0.6593 H   0  0  0  0  0  0  0  0  0  0  0  0
   -2.0848    0.6679   -2.6455 H   0  0  0  0  0  0  0  0  0  0  0  0
   -0.0869    1.8574   -1.7851 H   0  0  0  0  0  0  0  0  0  0  0  0
    2.5988   -1.4808   -0.1217 H   0  0  0  0  0  0  0  0  0  0  0  0
    2.0581   -0.6393   -1.5796 H   0  0  0  0  0  0  0  0  0  0  0  0
    4.1645   -1.8186   -2.0103 H   0  0  0  0  0  0  0  0  0  0  0  0
    4.3419   -0.0724   -2.2172 H   0  0  0  0  0  0  0  0  0  0  0  0
    6.2247   -0.9461   -0.9244 H   0  0  0  0  0  0  0  0  0  0  0  0
    5.1424   -1.7030    0.2588 H   0  0  0  0  0  0  0  0  0  0  0  0
    7.3057    0.3495    0.8069 H   0  0  0  0  0  0  0  0  0  0  0  0
    7.3164    2.4393    2.1145 H   0  0  0  0  0  0  0  0  0  0  0  0
    5.2054    3.7095    2.4163 H   0  0  0  0  0  0  0  0  0  0  0  0
    3.1359    2.9219    1.4662 H   0  0  0  0  0  0  0  0  0  0  0  0
  1  2  2  0
  2  3  1  0
  3  4  2  0
  4  5  1  0
  5  6  2  0
  6  7  1  0
  7  8  2  0
  7  9  2  0
  7 10  1  0
 10 11  1  0
 11 12  1  0
 12 13  1  0
 13 14  2  0
 13 15  2  0
 13 16  1  0
  6 17  1  0
 17 18  2  0
  2 19  1  0
 19 20  1  0
 20 21  1  0
 21 22  1  0
 22 23  1  0
 23 24  2  0
 24 25  1  0
 25 26  2  0
 26 27  1  0
 27 28  2  0
 18  3  1  0
 28 19  1  0
 16 10  1  0
 28 23  1  0
  4 29  1  0
  5 30  1  0
 10 31  1  0
 11 32  1  0
 11 33  1  0
 12 34  1  0
 12 35  1  0
 16 36  1  0
 16 37  1  0
 17 38  1  0
 18 39  1  0
 20 40  1  0
 20 41  1  0
 21 42  1  0
 21 43  1  0
 22 44  1  0
 22 45  1  0
 24 46  1  0
 25 47  1  0
 26 48  1  0
 27 49  1  0
M  END
$$$$
