
     RDKit          3D

 62 66  0  0  0  0  0  0  0  0999 V2000
   -2.7273   -1.0665    2.8844 C   0  0  0  0  0  0  0  0  0  0  0  0
   -3.3013   -1.1606    1.4768 C   0  0  0  0  0  0  0  0  0  0  0  0
   -4.8264   -1.1172    1.5212 C   0  0  0  0  0  0  0  0  0  0  0  0
   -2.9000   -2.3937    0.8902 O   0  0  0  0  0  0  0  0  0  0  0  0
   -2.2362   -2.0863   -0.3355 C   0  0  2  0  0  0  0  0  0  0  0  0
   -0.7183   -2.3256   -0.1819 C   0  0  0  0  0  0  0  0  0  0  0  0
   -0.1413   -0.9190   -0.0416 C   0  0  1  0  0  0  0  0  0  0  0  0
    1.3681   -0.7080   -0.2222 C   0  0  2  0  0  0  0  0  0  0  0  0
    2.1573   -1.6335    0.7178 C   0  0  0  0  0  0  0  0  0  0  0  0
    3.6525   -1.3550    0.6904 C   0  0  2  0  0  0  0  0  0  0  0  0
    4.2360   -2.1650    1.6205 F   0  0  0  0  0  0  0  0  0  0  0  0
    3.9196    0.0990    0.9810 C   0  0  0  0  0  0  0  0  0  0  0  0
    4.6683    0.4668    2.0378 C   0  0  0  0  0  0  0  0  0  0  0  0
    4.8973    1.8842    2.3756 C   0  0  0  0  0  0  0  0  0  0  0  0
    5.5731    2.2122    3.3413 O   0  0  0  0  0  0  0  0  0  0  0  0
    4.2640    2.8945    1.5078 C   0  0  0  0  0  0  0  0  0  0  0  0
    3.5171    2.5316    0.4571 C   0  0  0  0  0  0  0  0  0  0  0  0
    3.2433    1.0939    0.0269 C   0  0  1  0  0  0  0  0  0  0  0  0
    3.8856    0.9364   -1.3695 C   0  0  0  0  0  0  0  0  0  0  0  0
    1.6933    0.7998    0.0675 C   0  0  1  0  0  0  0  0  0  0  0  0
    0.7963    1.7540   -0.7750 C   0  0  1  0  0  0  0  0  0  0  0  0
    1.2097    1.7612   -2.1318 O   0  0  0  0  0  0  0  0  0  0  0  0
   -0.7088    1.4091   -0.7033 C   0  0  0  0  0  0  0  0  0  0  0  0
   -1.0147   -0.0744   -0.9981 C   0  0  1  0  0  0  0  0  0  0  0  0
   -0.7628   -0.3946   -2.4967 C   0  0  0  0  0  0  0  0  0  0  0  0
   -2.4331   -0.5801   -0.5771 C   0  0  1  0  0  0  0  0  0  0  0  0
   -3.5317   -0.2811   -1.6068 C   0  0  0  0  0  0  0  0  0  0  0  0
   -3.8250   -1.0592   -2.5198 O   0  0  0  0  0  0  0  0  0  0  0  0
   -4.2532    1.0558   -1.4870 C   0  0  0  0  0  0  0  0  0  0  0  0
   -5.0744    1.3160   -2.6224 O   0  0  0  0  0  0  0  0  0  0  0  0
   -2.8124   -0.0609    0.7018 O   0  0  0  0  0  0  0  0  0  0  0  0
   -3.0004   -0.1213    3.3640 H   0  0  0  0  0  0  0  0  0  0  0  0
   -3.0666   -1.8987    3.5099 H   0  0  0  0  0  0  0  0  0  0  0  0
   -1.6329   -1.1122    2.8594 H   0  0  0  0  0  0  0  0  0  0  0  0
   -5.1865   -0.1557    1.9025 H   0  0  0  0  0  0  0  0  0  0  0  0
   -5.2245   -1.9239    2.1453 H   0  0  0  0  0  0  0  0  0  0  0  0
   -5.2524   -1.2527    0.5211 H   0  0  0  0  0  0  0  0  0  0  0  0
   -2.6350   -2.7416   -1.1163 H   0  0  0  0  0  0  0  0  0  0  0  0
   -0.4826   -2.9506    0.6850 H   0  0  0  0  0  0  0  0  0  0  0  0
   -0.3171   -2.8136   -1.0771 H   0  0  0  0  0  0  0  0  0  0  0  0
   -0.3567   -0.6047    0.9910 H   0  0  0  0  0  0  0  0  0  0  0  0
    1.6581   -0.9588   -1.2477 H   0  0  0  0  0  0  0  0  0  0  0  0
    1.7902   -1.5327    1.7480 H   0  0  0  0  0  0  0  0  0  0  0  0
    1.9940   -2.6832    0.4462 H   0  0  0  0  0  0  0  0  0  0  0  0
    4.0794   -1.6343   -0.2781 H   0  0  0  0  0  0  0  0  0  0  0  0
    5.1273   -0.2536    2.7073 H   0  0  0  0  0  0  0  0  0  0  0  0
    4.4477    3.9307    1.7611 H   0  0  0  0  0  0  0  0  0  0  0  0
    3.1048    3.3247   -0.1642 H   0  0  0  0  0  0  0  0  0  0  0  0
    3.6336    1.7667   -2.0374 H   0  0  0  0  0  0  0  0  0  0  0  0
    3.5859    0.0114   -1.8714 H   0  0  0  0  0  0  0  0  0  0  0  0
    4.9817    0.9233   -1.3002 H   0  0  0  0  0  0  0  0  0  0  0  0
    1.3797    0.9781    1.1105 H   0  0  0  0  0  0  0  0  0  0  0  0
    0.9111    2.7776   -0.4046 H   0  0  0  0  0  0  0  0  0  0  0  0
    0.6842    2.4338   -2.6032 H   0  0  0  0  0  0  0  0  0  0  0  0
   -1.2588    2.0417   -1.4102 H   0  0  0  0  0  0  0  0  0  0  0  0
   -1.0640    1.6714    0.3007 H   0  0  0  0  0  0  0  0  0  0  0  0
    0.2901   -0.3432   -2.7799 H   0  0  0  0  0  0  0  0  0  0  0  0
   -1.0990   -1.4001   -2.7725 H   0  0  0  0  0  0  0  0  0  0  0  0
   -1.3018    0.3142   -3.1364 H   0  0  0  0  0  0  0  0  0  0  0  0
   -3.5255    1.8682   -1.4072 H   0  0  0  0  0  0  0  0  0  0  0  0
   -4.8892    1.0445   -0.5982 H   0  0  0  0  0  0  0  0  0  0  0  0
   -5.1898    0.4606   -3.0769 H   0  0  0  0  0  0  0  0  0  0  0  0
  1  2  1  0
  2  3  1  0
  2  4  1  0
  4  5  1  0
  5  6  1  0
  6  7  1  0
  7  8  1  0
  8  9  1  0
  9 10  1  0
 10 11  1  0
 10 12  1  0
 12 13  2  0
 13 14  1  0
 14 15  2  0
 14 16  1  0
 16 17  2  0
 17 18  1  0
 18 19  1  6
 18 20  1  0
 20 21  1  0
 21 22  1  0
 21 23  1  0
 23 24  1  0
 24 25  1  6
 24 26  1  0
 26 27  1  6
 27 28  2  0
 27 29  1  0
 29 30  1  0
 26 31  1  0
 31  2  1  0
 26  5  1  0
 24  7  1  0
 20  8  1  0
 18 12  1  0
  1 32  1  0
  1 33  1  0
  1 34  1  0
  3 35  1  0
  3 36  1  0
  3 37  1  0
  5 38  1  6
  6 39  1  0
  6 40  1  0
  7 41  1  1
  8 42  1  6
  9 43  1  0
  9 44  1  0
 10 45  1  6
 13 46  1  0
 16 47  1  0
 17 48  1  0
 19 49  1  0
 19 50  1  0
 19 51  1  0
 20 52  1  1
 21 53  1  1
 22 54  1  0
 23 55  1  0
 23 56  1  0
 25 57  1  0
 25 58  1  0
 25 59  1  0
 29 60  1  0
 29 61  1  0
 30 62  1  0
M  END
$$$$
