
     RDKit          3D

 72 74  0  0  0  0  0  0  0  0999 V2000
    7.0751    3.4189    0.5739 C   0  0  0  0  0  0  0  0  0  0  0  0
    6.6860    2.0491    0.1615 C   0  0  0  0  0  0  0  0  0  0  0  0
    7.1324    1.3077   -0.9557 C   0  0  0  0  0  0  0  0  0  0  0  0
    6.4661    0.1020   -0.8888 C   0  0  0  0  0  0  0  0  0  0  0  0
    6.5120   -1.0723   -1.7907 C   0  0  0  0  0  0  0  0  0  0  0  0
    5.6906    0.1787    0.2411 N   0  0  0  0  0  0  0  0  0  0  0  0
    4.7464   -0.8062    0.7536 C   0  0  0  0  0  0  0  0  0  0  0  0
    3.3240   -0.4876    0.2937 C   0  0  0  0  0  0  0  0  0  0  0  0
    2.3662   -0.3351    1.4638 C   0  0  0  0  0  0  0  0  0  0  0  0
    2.6278   -0.8338    2.5612 O   0  0  0  0  0  0  0  0  0  0  0  0
    1.1664    0.3320    1.2313 N   0  0  0  0  0  0  0  0  0  0  0  0
    0.2619    0.4871    2.3619 C   0  0  0  0  0  0  0  0  0  0  0  0
    0.6072    0.6177   -0.0979 C   0  0  0  0  0  0  0  0  0  0  0  0
   -0.1587   -0.5683   -0.7377 C   0  0  0  0  0  0  0  0  0  0  0  0
   -1.4070   -0.9609   -0.0363 N   0  0  0  0  0  0  0  0  0  0  0  0
   -1.5791   -2.4356    0.0654 C   0  0  0  0  0  0  0  0  0  0  0  0
   -1.5638   -3.2062   -1.2637 C   0  0  0  0  0  0  0  0  0  0  0  0
   -1.8739   -4.6870   -1.0331 C   0  0  0  0  0  0  0  0  0  0  0  0
   -1.6394   -5.1108    0.3096 O   0  0  0  0  0  0  0  0  0  0  0  0
   -0.4394   -4.5693    0.8481 C   0  0  0  0  0  0  0  0  0  0  0  0
   -0.5739   -3.0635    1.0555 C   0  0  0  0  0  0  0  0  0  0  0  0
   -2.5950   -0.2835   -0.6110 C   0  0  0  0  0  0  0  0  0  0  0  0
   -3.9231   -0.5457    0.1245 C   0  0  0  0  0  0  0  0  0  0  0  0
   -4.8481    0.5345   -0.4311 C   0  0  0  0  0  0  0  0  0  0  0  0
   -3.9687    1.6548   -0.7362 N   0  0  0  0  0  0  0  0  0  0  0  0
   -4.3023    2.9889   -0.6294 C   0  0  0  0  0  0  0  0  0  0  0  0
   -3.4547    3.8406   -0.3572 O   0  0  0  0  0  0  0  0  0  0  0  0
   -5.6383    3.3186   -0.8039 N   0  0  0  0  0  0  0  0  0  0  0  0
   -6.0516    4.6354   -0.3508 C   0  0  0  0  0  0  0  0  0  0  0  0
   -6.4087    2.7748   -1.9112 C   0  0  0  0  0  0  0  0  0  0  0  0
   -2.5815    1.2591   -0.5650 C   0  0  0  0  0  0  0  0  0  0  0  0
    5.7962    1.3590    0.8816 N   0  0  0  0  0  0  0  0  0  0  0  0
    7.7390    3.8813   -0.1648 H   0  0  0  0  0  0  0  0  0  0  0  0
    7.6012    3.3945    1.5345 H   0  0  0  0  0  0  0  0  0  0  0  0
    6.1934    4.0587    0.6795 H   0  0  0  0  0  0  0  0  0  0  0  0
    7.8420    1.6173   -1.7104 H   0  0  0  0  0  0  0  0  0  0  0  0
    5.5048   -1.3648   -2.1069 H   0  0  0  0  0  0  0  0  0  0  0  0
    6.9834   -1.9233   -1.2887 H   0  0  0  0  0  0  0  0  0  0  0  0
    7.0903   -0.8486   -2.6934 H   0  0  0  0  0  0  0  0  0  0  0  0
    4.8823   -0.8245    1.8405 H   0  0  0  0  0  0  0  0  0  0  0  0
    5.0572   -1.7874    0.3784 H   0  0  0  0  0  0  0  0  0  0  0  0
    3.3205    0.4226   -0.3143 H   0  0  0  0  0  0  0  0  0  0  0  0
    2.9517   -1.3158   -0.3223 H   0  0  0  0  0  0  0  0  0  0  0  0
    0.8211    0.5747    3.3001 H   0  0  0  0  0  0  0  0  0  0  0  0
   -0.3355    1.3944    2.2385 H   0  0  0  0  0  0  0  0  0  0  0  0
   -0.3919   -0.3858    2.4290 H   0  0  0  0  0  0  0  0  0  0  0  0
    1.4173    0.8883   -0.7799 H   0  0  0  0  0  0  0  0  0  0  0  0
   -0.0088    1.5162   -0.0174 H   0  0  0  0  0  0  0  0  0  0  0  0
    0.5456   -1.4073   -0.7828 H   0  0  0  0  0  0  0  0  0  0  0  0
   -0.3740   -0.3272   -1.7872 H   0  0  0  0  0  0  0  0  0  0  0  0
   -2.5561   -2.6245    0.5307 H   0  0  0  0  0  0  0  0  0  0  0  0
   -2.2791   -2.8004   -1.9869 H   0  0  0  0  0  0  0  0  0  0  0  0
   -0.5763   -3.1308   -1.7348 H   0  0  0  0  0  0  0  0  0  0  0  0
   -2.9316   -4.8810   -1.2408 H   0  0  0  0  0  0  0  0  0  0  0  0
   -1.2891   -5.3149   -1.7156 H   0  0  0  0  0  0  0  0  0  0  0  0
   -0.2390   -5.0600    1.8069 H   0  0  0  0  0  0  0  0  0  0  0  0
    0.3990   -4.8054    0.1786 H   0  0  0  0  0  0  0  0  0  0  0  0
    0.4262   -2.6235    1.0070 H   0  0  0  0  0  0  0  0  0  0  0  0
   -0.9345   -2.8714    2.0749 H   0  0  0  0  0  0  0  0  0  0  0  0
   -2.7222   -0.5875   -1.6599 H   0  0  0  0  0  0  0  0  0  0  0  0
   -4.3378   -1.5418   -0.0527 H   0  0  0  0  0  0  0  0  0  0  0  0
   -3.7945   -0.4082    1.2050 H   0  0  0  0  0  0  0  0  0  0  0  0
   -5.2992    0.1868   -1.3662 H   0  0  0  0  0  0  0  0  0  0  0  0
   -5.6356    0.8156    0.2760 H   0  0  0  0  0  0  0  0  0  0  0  0
   -7.1370    4.6418   -0.2073 H   0  0  0  0  0  0  0  0  0  0  0  0
   -5.7664    5.3842   -1.0971 H   0  0  0  0  0  0  0  0  0  0  0  0
   -5.5645    4.8758    0.6016 H   0  0  0  0  0  0  0  0  0  0  0  0
   -5.8810    1.9764   -2.4339 H   0  0  0  0  0  0  0  0  0  0  0  0
   -7.3642    2.4082   -1.5275 H   0  0  0  0  0  0  0  0  0  0  0  0
   -6.5932    3.5669   -2.6447 H   0  0  0  0  0  0  0  0  0  0  0  0
   -1.9685    1.7138   -1.3501 H   0  0  0  0  0  0  0  0  0  0  0  0
   -2.2459    1.6238    0.4148 H   0  0  0  0  0  0  0  0  0  0  0  0
  1  2  1  0
  2  3  1  0
  3  4  2  0
  4  5  1  0
  4  6  1  0
  6  7  1  0
  7  8  1  0
  8  9  1  0
  9 10  2  0
  9 11  1  0
 11 12  1  0
 11 13  1  0
 13 14  1  0
 14 15  1  0
 15 16  1  0
 16 17  1  0
 17 18  1  0
 18 19  1  0
 19 20  1  0
 20 21  1  0
 15 22  1  0
 22 23  1  0
 23 24  1  0
 24 25  1  0
 25 26  1  0
 26 27  2  0
 26 28  1  0
 28 29  1  0
 28 30  1  0
 25 31  1  0
  6 32  1  0
 32  2  2  0
 21 16  1  0
 31 22  1  0
  1 33  1  0
  1 34  1  0
  1 35  1  0
  3 36  1  0
  5 37  1  0
  5 38  1  0
  5 39  1  0
  7 40  1  0
  7 41  1  0
  8 42  1  0
  8 43  1  0
 12 44  1  0
 12 45  1  0
 12 46  1  0
 13 47  1  0
 13 48  1  0
 14 49  1  0
 14 50  1  0
 16 51  1  0
 17 52  1  0
 17 53  1  0
 18 54  1  0
 18 55  1  0
 20 56  1  0
 20 57  1  0
 21 58  1  0
 21 59  1  0
 22 60  1  0
 23 61  1  0
 23 62  1  0
 24 63  1  0
 24 64  1  0
 29 65  1  0
 29 66  1  0
 29 67  1  0
 30 68  1  0
 30 69  1  0
 30 70  1  0
 31 71  1  0
 31 72  1  0
M  END
$$$$
