
     RDKit          3D

 53 55  0  0  0  0  0  0  0  0999 V2000
    3.9288   -2.2778    0.8600 C   0  0  0  0  0  0  0  0  0  0  0  0
    3.3354   -0.9418    0.4421 N   0  0  0  0  0  4  0  0  0  0  0  0
    4.4075    0.1536    0.5342 C   0  0  0  0  0  0  0  0  0  0  0  0
    3.7722    1.5055    0.2028 C   0  0  0  0  0  0  0  0  0  0  0  0
    2.3208    1.3268   -0.2575 C   0  0  0  0  0  0  0  0  0  0  0  0
    2.3132    0.3440   -1.4383 C   0  0  0  0  0  0  0  0  0  0  0  0
    2.8158   -1.0311   -0.9999 C   0  0  0  0  0  0  0  0  0  0  0  0
    1.5037    0.7364    0.9090 C   0  0  0  0  0  0  0  0  0  0  0  0
    0.1597    0.5270    0.4363 O   0  0  0  0  0  0  0  0  0  0  0  0
   -0.7653    0.2807    1.4163 C   0  0  0  0  0  0  0  0  0  0  0  0
   -0.4318   -0.0140    2.5622 O   0  0  0  0  0  0  0  0  0  0  0  0
   -2.2352    0.3531    0.9005 C   0  0  0  0  0  0  0  0  0  0  0  0
   -3.0252    0.7051    2.0579 O   0  0  0  0  0  0  0  0  0  0  0  0
   -2.7728   -1.0095    0.4328 C   0  0  0  0  0  0  0  0  0  0  0  0
   -1.9480   -2.1216    0.1875 C   0  0  0  0  0  0  0  0  0  0  0  0
   -2.4914   -3.3352   -0.2454 C   0  0  0  0  0  0  0  0  0  0  0  0
   -3.8638   -3.4589   -0.4452 C   0  0  0  0  0  0  0  0  0  0  0  0
   -4.6983   -2.3707   -0.2140 C   0  0  0  0  0  0  0  0  0  0  0  0
   -4.1591   -1.1591    0.2194 C   0  0  0  0  0  0  0  0  0  0  0  0
   -2.3869    1.4751   -0.1393 C   0  0  0  0  0  0  0  0  0  0  0  0
   -2.2508    1.2285   -1.5195 C   0  0  0  0  0  0  0  0  0  0  0  0
   -2.3460    2.2676   -2.4486 C   0  0  0  0  0  0  0  0  0  0  0  0
   -2.5696    3.5722   -2.0177 C   0  0  0  0  0  0  0  0  0  0  0  0
   -2.6988    3.8407   -0.6582 C   0  0  0  0  0  0  0  0  0  0  0  0
   -2.6051    2.8037    0.2724 C   0  0  0  0  0  0  0  0  0  0  0  0
    2.1598   -0.5801    1.3840 C   0  0  0  0  0  0  0  0  0  0  0  0
    0.0000    0.0000    0.0000 Br  0  0  0  0  0 15  0  0  0  0  0  0
    4.7682   -2.5054    0.1968 H   0  0  0  0  0  0  0  0  0  0  0  0
    3.1526   -3.0436    0.7720 H   0  0  0  0  0  0  0  0  0  0  0  0
    4.2702   -2.1958    1.8959 H   0  0  0  0  0  0  0  0  0  0  0  0
    5.2027   -0.1035   -0.1747 H   0  0  0  0  0  0  0  0  0  0  0  0
    4.8148    0.1422    1.5514 H   0  0  0  0  0  0  0  0  0  0  0  0
    3.8127    2.1595    1.0823 H   0  0  0  0  0  0  0  0  0  0  0  0
    4.3618    2.0043   -0.5760 H   0  0  0  0  0  0  0  0  0  0  0  0
    1.8923    2.2834   -0.5772 H   0  0  0  0  0  0  0  0  0  0  0  0
    2.9493    0.7267   -2.2463 H   0  0  0  0  0  0  0  0  0  0  0  0
    1.3085    0.2504   -1.8671 H   0  0  0  0  0  0  0  0  0  0  0  0
    3.6396   -1.3770   -1.6342 H   0  0  0  0  0  0  0  0  0  0  0  0
    2.0130   -1.7770   -1.0139 H   0  0  0  0  0  0  0  0  0  0  0  0
    1.4766    1.4617    1.7331 H   0  0  0  0  0  0  0  0  0  0  0  0
   -2.9860   -0.0562    2.6647 H   0  0  0  0  0  0  0  0  0  0  0  0
   -0.8730   -2.0764    0.3257 H   0  0  0  0  0  0  0  0  0  0  0  0
   -1.8464   -4.1915   -0.4273 H   0  0  0  0  0  0  0  0  0  0  0  0
   -4.2855   -4.4035   -0.7810 H   0  0  0  0  0  0  0  0  0  0  0  0
   -5.7708   -2.4624   -0.3705 H   0  0  0  0  0  0  0  0  0  0  0  0
   -4.8316   -0.3175    0.3906 H   0  0  0  0  0  0  0  0  0  0  0  0
   -2.0803    0.2214   -1.8938 H   0  0  0  0  0  0  0  0  0  0  0  0
   -2.2571    2.0576   -3.5118 H   0  0  0  0  0  0  0  0  0  0  0  0
   -2.6547    4.3790   -2.7416 H   0  0  0  0  0  0  0  0  0  0  0  0
   -2.8842    4.8578   -0.3204 H   0  0  0  0  0  0  0  0  0  0  0  0
   -2.7189    3.0419    1.3294 H   0  0  0  0  0  0  0  0  0  0  0  0
    1.4692   -1.4300    1.3736 H   0  0  0  0  0  0  0  0  0  0  0  0
    2.5883   -0.4665    2.3862 H   0  0  0  0  0  0  0  0  0  0  0  0
  1  2  1  0
  2  3  1  0
  3  4  1  0
  4  5  1  0
  5  6  1  0
  6  7  1  0
  5  8  1  0
  8  9  1  0
  9 10  1  0
 10 11  2  0
 10 12  1  0
 12 13  1  0
 12 14  1  0
 14 15  2  0
 15 16  1  0
 16 17  2  0
 17 18  1  0
 18 19  2  0
 12 20  1  0
 20 21  2  0
 21 22  1  0
 22 23  2  0
 23 24  1  0
 24 25  2  0
  8 26  1  0
  7  2  1  0
 19 14  1  0
 25 20  1  0
 26  2  1  0
  1 28  1  0
  1 29  1  0
  1 30  1  0
  3 31  1  0
  3 32  1  0
  4 33  1  0
  4 34  1  0
  5 35  1  0
  6 36  1  0
  6 37  1  0
  7 38  1  0
  7 39  1  0
  8 40  1  0
 13 41  1  0
 15 42  1  0
 16 43  1  0
 17 44  1  0
 18 45  1  0
 19 46  1  0
 21 47  1  0
 22 48  1  0
 23 49  1  0
 24 50  1  0
 25 51  1  0
 26 52  1  0
 26 53  1  0
M  CHG  2   2   1  27  -1
M  END
$$$$
