
     RDKit          3D

 67 70  0  0  0  0  0  0  0  0999 V2000
   -2.5168   -0.9849    1.5974 C   0  0  0  0  0  0  0  0  0  0  0  0
   -3.3517    0.2643    1.6375 C   0  0  0  0  0  0  0  0  0  0  0  0
   -4.1332    0.5045    2.7827 C   0  0  0  0  0  0  0  0  0  0  0  0
   -4.9315    1.6414    2.8784 C   0  0  0  0  0  0  0  0  0  0  0  0
   -4.9616    2.5494    1.8284 C   0  0  0  0  0  0  0  0  0  0  0  0
   -4.1879    2.3257    0.6864 C   0  0  0  0  0  0  0  0  0  0  0  0
   -3.3657    1.1966    0.5778 C   0  0  0  0  0  0  0  0  0  0  0  0
   -2.5826    0.9433   -0.5747 N   0  0  0  0  0  0  0  0  0  0  0  0
   -2.3208    1.8044   -1.6167 C   0  0  0  0  0  0  0  0  0  0  0  0
   -2.5644    3.0084   -1.6127 O   0  0  0  0  0  0  0  0  0  0  0  0
   -1.7182    1.1984   -2.7211 N   0  0  0  0  0  0  0  0  0  0  0  0
   -1.3382    2.0534   -3.8350 C   0  0  0  0  0  0  0  0  0  0  0  0
   -1.7164   -0.2442   -2.9783 C   0  0  0  0  0  0  0  0  0  0  0  0
   -0.3324   -0.9118   -2.8290 C   0  0  0  0  0  0  0  0  0  0  0  0
    0.1381   -1.0390   -1.4125 N   0  0  0  0  0  0  0  0  0  0  0  0
    0.7377   -2.3969   -1.1972 C   0  0  0  0  0  0  0  0  0  0  0  0
    1.5996   -2.6716    0.0597 C   0  0  0  0  0  0  0  0  0  0  0  0
    0.7772   -3.2350    1.2057 C   0  0  0  0  0  0  0  0  0  0  0  0
    0.1998   -4.5018    0.8916 O   0  0  0  0  0  0  0  0  0  0  0  0
   -0.0409   -4.7225   -0.4952 C   0  0  0  0  0  0  0  0  0  0  0  0
   -0.4148   -3.4428   -1.2280 C   0  0  0  0  0  0  0  0  0  0  0  0
    0.9772    0.1385   -1.0769 C   0  0  0  0  0  0  0  0  0  0  0  0
    2.4416    0.1516   -1.5522 C   0  0  0  0  0  0  0  0  0  0  0  0
    3.0652    1.2511   -0.7024 C   0  0  0  0  0  0  0  0  0  0  0  0
    2.3526    1.1815    0.5592 N   0  0  0  0  0  0  0  0  0  0  0  0
    2.7217    1.7572    1.7535 C   0  0  0  0  0  0  0  0  0  0  0  0
    2.0424    1.6978    2.7715 O   0  0  0  0  0  0  0  0  0  0  0  0
    4.0221    2.4812    1.7650 C   0  0  0  0  0  0  0  0  0  0  0  0
    4.8265    2.5793    3.0426 C   0  0  0  0  0  0  0  0  0  0  0  0
    5.3157    1.7137    1.9222 C   0  0  0  0  0  0  0  0  0  0  0  0
    1.0529    0.5477    0.4099 C   0  0  0  0  0  0  0  0  0  0  0  0
   -2.6642   -1.6027    2.4897 H   0  0  0  0  0  0  0  0  0  0  0  0
   -2.7852   -1.5962    0.7302 H   0  0  0  0  0  0  0  0  0  0  0  0
   -1.4574   -0.7198    1.5520 H   0  0  0  0  0  0  0  0  0  0  0  0
   -4.1222   -0.1985    3.6131 H   0  0  0  0  0  0  0  0  0  0  0  0
   -5.5288    1.8162    3.7690 H   0  0  0  0  0  0  0  0  0  0  0  0
   -5.5852    3.4371    1.8905 H   0  0  0  0  0  0  0  0  0  0  0  0
   -4.2553    3.0575   -0.1125 H   0  0  0  0  0  0  0  0  0  0  0  0
   -1.9919    0.1245   -0.5515 H   0  0  0  0  0  0  0  0  0  0  0  0
   -0.4289    1.6645   -4.3016 H   0  0  0  0  0  0  0  0  0  0  0  0
   -2.1526    2.0579   -4.5656 H   0  0  0  0  0  0  0  0  0  0  0  0
   -1.1466    3.0795   -3.5092 H   0  0  0  0  0  0  0  0  0  0  0  0
   -2.4493   -0.7579   -2.3470 H   0  0  0  0  0  0  0  0  0  0  0  0
   -2.0690   -0.3875   -4.0079 H   0  0  0  0  0  0  0  0  0  0  0  0
   -0.4340   -1.8957   -3.2987 H   0  0  0  0  0  0  0  0  0  0  0  0
    0.4137   -0.3958   -3.4459 H   0  0  0  0  0  0  0  0  0  0  0  0
    1.4053   -2.5957   -2.0486 H   0  0  0  0  0  0  0  0  0  0  0  0
    2.3531   -3.4230   -0.2174 H   0  0  0  0  0  0  0  0  0  0  0  0
    2.1819   -1.8144    0.3920 H   0  0  0  0  0  0  0  0  0  0  0  0
   -0.0272   -2.5515    1.4891 H   0  0  0  0  0  0  0  0  0  0  0  0
    1.4070   -3.3758    2.0900 H   0  0  0  0  0  0  0  0  0  0  0  0
    0.8494   -5.1836   -0.9381 H   0  0  0  0  0  0  0  0  0  0  0  0
   -0.8529   -5.4527   -0.5739 H   0  0  0  0  0  0  0  0  0  0  0  0
   -1.3079   -3.0217   -0.7478 H   0  0  0  0  0  0  0  0  0  0  0  0
   -0.6868   -3.6951   -2.2582 H   0  0  0  0  0  0  0  0  0  0  0  0
    0.5196    1.0163   -1.5512 H   0  0  0  0  0  0  0  0  0  0  0  0
    2.9566   -0.7925   -1.3564 H   0  0  0  0  0  0  0  0  0  0  0  0
    2.5385    0.3616   -2.6218 H   0  0  0  0  0  0  0  0  0  0  0  0
    4.1408    1.1142   -0.5682 H   0  0  0  0  0  0  0  0  0  0  0  0
    2.8834    2.2408   -1.1358 H   0  0  0  0  0  0  0  0  0  0  0  0
    4.0348    3.3659    1.1365 H   0  0  0  0  0  0  0  0  0  0  0  0
    4.4350    2.0955    3.9316 H   0  0  0  0  0  0  0  0  0  0  0  0
    5.3468    3.5090    3.2402 H   0  0  0  0  0  0  0  0  0  0  0  0
    5.2639    0.6393    2.0594 H   0  0  0  0  0  0  0  0  0  0  0  0
    6.1773    2.0511    1.3588 H   0  0  0  0  0  0  0  0  0  0  0  0
    0.2654    1.2660    0.6660 H   0  0  0  0  0  0  0  0  0  0  0  0
    0.9796   -0.2759    1.1217 H   0  0  0  0  0  0  0  0  0  0  0  0
  1  2  1  0
  2  3  2  0
  3  4  1  0
  4  5  2  0
  5  6  1  0
  6  7  2  0
  7  8  1  0
  8  9  1  0
  9 10  2  0
  9 11  1  0
 11 12  1  0
 11 13  1  0
 13 14  1  0
 14 15  1  0
 15 16  1  0
 16 17  1  0
 17 18  1  0
 18 19  1  0
 19 20  1  0
 20 21  1  0
 15 22  1  0
 22 23  1  0
 23 24  1  0
 24 25  1  0
 25 26  1  0
 26 27  2  0
 26 28  1  0
 28 29  1  0
 29 30  1  0
 25 31  1  0
  7  2  1  0
 21 16  1  0
 31 22  1  0
 30 28  1  0
  1 32  1  0
  1 33  1  0
  1 34  1  0
  3 35  1  0
  4 36  1  0
  5 37  1  0
  6 38  1  0
  8 39  1  0
 12 40  1  0
 12 41  1  0
 12 42  1  0
 13 43  1  0
 13 44  1  0
 14 45  1  0
 14 46  1  0
 16 47  1  0
 17 48  1  0
 17 49  1  0
 18 50  1  0
 18 51  1  0
 20 52  1  0
 20 53  1  0
 21 54  1  0
 21 55  1  0
 22 56  1  0
 23 57  1  0
 23 58  1  0
 24 59  1  0
 24 60  1  0
 28 61  1  0
 29 62  1  0
 29 63  1  0
 30 64  1  0
 30 65  1  0
 31 66  1  0
 31 67  1  0
M  END
$$$$
