
     RDKit          3D

 75 79  0  0  0  0  0  0  0  0999 V2000
   -6.4447    5.8333    0.5172 C   0  0  0  0  0  0  0  0  0  0  0  0
   -4.9888    5.4985    0.8004 C   0  0  0  0  0  0  0  0  0  0  0  0
   -4.1895    5.1234   -0.4522 C   0  0  0  0  0  0  0  0  0  0  0  0
   -4.6903    3.8792   -1.1922 C   0  0  0  0  0  0  0  0  0  0  0  0
   -4.7066    2.7080   -0.3340 N   0  0  0  0  0  0  0  0  0  0  0  0
   -3.5657    1.9149   -0.3526 C   0  0  0  0  0  0  0  0  0  0  0  0
   -2.3584    2.4780   -0.5434 N   0  0  0  0  0  0  0  0  0  0  0  0
   -1.2565    1.6939   -0.5462 C   0  0  0  0  0  0  0  0  0  0  0  0
   -1.3856    0.3220   -0.3681 C   0  0  0  0  0  0  0  0  0  0  0  0
   -0.5151   -0.8031   -0.3015 C   0  0  0  0  0  0  0  0  0  0  0  0
    0.9287   -0.8735   -0.4418 C   0  0  0  0  0  0  0  0  0  0  0  0
    1.5606   -0.2593   -1.5281 C   0  0  0  0  0  0  0  0  0  0  0  0
    2.9504   -0.3169   -1.6612 C   0  0  0  0  0  0  0  0  0  0  0  0
    3.7334   -0.9838   -0.7080 C   0  0  0  0  0  0  0  0  0  0  0  0
    5.2399   -1.0534   -0.8607 C   0  0  0  0  0  0  0  0  0  0  0  0
    5.8749    0.2706   -0.9847 N   0  0  0  0  0  0  0  0  0  0  0  0
    7.2923    0.1390   -1.3821 C   0  0  0  0  0  0  0  0  0  0  0  0
    8.2415   -0.3517   -0.2611 C   0  0  0  0  0  0  0  0  0  0  0  0
    8.1585    0.4055    1.0029 N   0  0  0  0  0  0  0  0  0  0  0  0
    8.8299    1.7005    0.8918 C   0  0  0  0  0  0  0  0  0  0  0  0
    6.7448    0.5679    1.3980 C   0  0  0  0  0  0  0  0  0  0  0  0
    5.8009    1.0517    0.2696 C   0  0  0  0  0  0  0  0  0  0  0  0
    3.0963   -1.6034    0.3756 C   0  0  0  0  0  0  0  0  0  0  0  0
    1.7055   -1.5478    0.5077 C   0  0  0  0  0  0  0  0  0  0  0  0
   -1.3080   -1.9133   -0.0712 C   0  0  0  0  0  0  0  0  0  0  0  0
   -2.6202   -1.5031   -0.0124 N   0  0  0  0  0  0  0  0  0  0  0  0
   -3.7790   -2.3674    0.2163 C   0  0  1  0  0  0  0  0  0  0  0  0
   -3.8894   -3.5060   -0.8211 C   0  0  0  0  0  0  0  0  0  0  0  0
   -3.5155   -4.8698   -0.2400 C   0  0  0  0  0  0  0  0  0  0  0  0
   -4.3850   -5.2341    0.9683 C   0  0  2  0  0  0  0  0  0  0  0  0
   -5.5805   -5.8695    0.5219 O   0  0  0  0  0  0  0  0  0  0  0  0
   -4.7907   -4.0262    1.8190 C   0  0  0  0  0  0  0  0  0  0  0  0
   -3.8135   -2.8680    1.6712 C   0  0  0  0  0  0  0  0  0  0  0  0
   -2.6790   -0.1409   -0.1862 C   0  0  0  0  0  0  0  0  0  0  0  0
   -3.7949    0.6064   -0.1750 N   0  0  0  0  0  0  0  0  0  0  0  0
   -6.5278    6.6161   -0.2433 H   0  0  0  0  0  0  0  0  0  0  0  0
   -6.9307    6.1945    1.4293 H   0  0  0  0  0  0  0  0  0  0  0  0
   -6.9990    4.9549    0.1738 H   0  0  0  0  0  0  0  0  0  0  0  0
   -4.5147    6.3736    1.2610 H   0  0  0  0  0  0  0  0  0  0  0  0
   -4.9372    4.6917    1.5402 H   0  0  0  0  0  0  0  0  0  0  0  0
   -4.2033    5.9704   -1.1494 H   0  0  0  0  0  0  0  0  0  0  0  0
   -3.1425    4.9856   -0.1586 H   0  0  0  0  0  0  0  0  0  0  0  0
   -5.7123    4.0588   -1.5451 H   0  0  0  0  0  0  0  0  0  0  0  0
   -4.0948    3.7124   -2.0992 H   0  0  0  0  0  0  0  0  0  0  0  0
   -5.4785    2.0690   -0.4878 H   0  0  0  0  0  0  0  0  0  0  0  0
   -0.3054    2.1934   -0.6849 H   0  0  0  0  0  0  0  0  0  0  0  0
    0.9808    0.2592   -2.2879 H   0  0  0  0  0  0  0  0  0  0  0  0
    3.4284    0.1685   -2.5101 H   0  0  0  0  0  0  0  0  0  0  0  0
    5.6736   -1.6365   -0.0398 H   0  0  0  0  0  0  0  0  0  0  0  0
    5.4235   -1.6354   -1.7741 H   0  0  0  0  0  0  0  0  0  0  0  0
    7.3814   -0.5247   -2.2512 H   0  0  0  0  0  0  0  0  0  0  0  0
    7.6355    1.1196   -1.7357 H   0  0  0  0  0  0  0  0  0  0  0  0
    8.0154   -1.4022   -0.0388 H   0  0  0  0  0  0  0  0  0  0  0  0
    9.2738   -0.3530   -0.6332 H   0  0  0  0  0  0  0  0  0  0  0  0
    8.8031    2.2270    1.8524 H   0  0  0  0  0  0  0  0  0  0  0  0
    8.3890    2.3548    0.1331 H   0  0  0  0  0  0  0  0  0  0  0  0
    9.8886    1.5602    0.6464 H   0  0  0  0  0  0  0  0  0  0  0  0
    6.6689    1.2512    2.2532 H   0  0  0  0  0  0  0  0  0  0  0  0
    6.3869   -0.3995    1.7720 H   0  0  0  0  0  0  0  0  0  0  0  0
    6.0467    2.0936    0.0266 H   0  0  0  0  0  0  0  0  0  0  0  0
    4.7734    1.0898    0.6495 H   0  0  0  0  0  0  0  0  0  0  0  0
    3.6778   -2.1296    1.1291 H   0  0  0  0  0  0  0  0  0  0  0  0
    1.2361   -2.0244    1.3652 H   0  0  0  0  0  0  0  0  0  0  0  0
   -1.0426   -2.9558    0.0420 H   0  0  0  0  0  0  0  0  0  0  0  0
   -4.6623   -1.7331    0.0640 H   0  0  0  0  0  0  0  0  0  0  0  0
   -3.2823   -3.2996   -1.7106 H   0  0  0  0  0  0  0  0  0  0  0  0
   -4.9292   -3.5594   -1.1710 H   0  0  0  0  0  0  0  0  0  0  0  0
   -2.4633   -4.8507    0.0663 H   0  0  0  0  0  0  0  0  0  0  0  0
   -3.6079   -5.6318   -1.0227 H   0  0  0  0  0  0  0  0  0  0  0  0
   -3.8474   -5.9591    1.5904 H   0  0  0  0  0  0  0  0  0  0  0  0
   -5.3277   -6.6956    0.0748 H   0  0  0  0  0  0  0  0  0  0  0  0
   -4.8496   -4.3308    2.8709 H   0  0  0  0  0  0  0  0  0  0  0  0
   -5.8004   -3.6880    1.5516 H   0  0  0  0  0  0  0  0  0  0  0  0
   -4.1053   -2.0451    2.3353 H   0  0  0  0  0  0  0  0  0  0  0  0
   -2.8190   -3.1913    2.0045 H   0  0  0  0  0  0  0  0  0  0  0  0
  1  2  1  0
  2  3  1  0
  3  4  1  0
  4  5  1  0
  5  6  1  0
  6  7  2  0
  7  8  1  0
  8  9  2  0
  9 10  1  0
 10 11  1  0
 11 12  2  0
 12 13  1  0
 13 14  2  0
 14 15  1  0
 15 16  1  0
 16 17  1  0
 17 18  1  0
 18 19  1  0
 19 20  1  0
 19 21  1  0
 21 22  1  0
 14 23  1  0
 23 24  2  0
 10 25  2  0
 25 26  1  0
 26 27  1  0
 27 28  1  0
 28 29  1  0
 29 30  1  0
 30 31  1  0
 30 32  1  0
 32 33  1  0
 26 34  1  0
 34 35  2  0
 35  6  1  0
 34  9  1  0
 24 11  1  0
 33 27  1  0
 22 16  1  0
  1 36  1  0
  1 37  1  0
  1 38  1  0
  2 39  1  0
  2 40  1  0
  3 41  1  0
  3 42  1  0
  4 43  1  0
  4 44  1  0
  5 45  1  0
  8 46  1  0
 12 47  1  0
 13 48  1  0
 15 49  1  0
 15 50  1  0
 17 51  1  0
 17 52  1  0
 18 53  1  0
 18 54  1  0
 20 55  1  0
 20 56  1  0
 20 57  1  0
 21 58  1  0
 21 59  1  0
 22 60  1  0
 22 61  1  0
 23 62  1  0
 24 63  1  0
 25 64  1  0
 27 65  1  1
 28 66  1  0
 28 67  1  0
 29 68  1  0
 29 69  1  0
 30 70  1  1
 31 71  1  0
 32 72  1  0
 32 73  1  0
 33 74  1  0
 33 75  1  0
M  END
$$$$
