
     RDKit          3D

 42 45  0  0  0  0  0  0  0  0999 V2000
   -0.6472   -1.2517   -2.6885 Cl  0  0  0  0  0  0  0  0  0  0  0  0
   -1.3165   -1.7235   -1.1628 C   0  0  0  0  0  0  0  0  0  0  0  0
   -2.2732   -2.7501   -1.2373 C   0  0  0  0  0  0  0  0  0  0  0  0
   -2.9375   -3.1917   -0.0991 C   0  0  0  0  0  0  0  0  0  0  0  0
   -2.6654   -2.5926    1.1201 C   0  0  0  0  0  0  0  0  0  0  0  0
   -1.7130   -1.5713    1.2029 C   0  0  0  0  0  0  0  0  0  0  0  0
   -0.9703   -1.1298    0.0770 C   0  0  0  0  0  0  0  0  0  0  0  0
    0.0738    0.0556    0.2061 C   0  0  0  0  0  0  0  0  0  0  0  0
    1.4872   -0.2534   -0.4176 C   0  0  0  0  0  0  0  0  0  0  0  0
    1.9344   -1.5711   -0.6524 C   0  0  0  0  0  0  0  0  0  0  0  0
    3.2194   -1.8307   -1.1397 C   0  0  0  0  0  0  0  0  0  0  0  0
    4.1063   -0.7848   -1.3689 C   0  0  0  0  0  0  0  0  0  0  0  0
    3.7175    0.5204   -1.0919 C   0  0  0  0  0  0  0  0  0  0  0  0
    2.4329    0.7807   -0.6071 C   0  0  0  0  0  0  0  0  0  0  0  0
   -0.6764    1.3099   -0.3919 C   0  0  0  0  0  0  0  0  0  0  0  0
   -0.3263    1.9071   -1.6183 C   0  0  0  0  0  0  0  0  0  0  0  0
   -1.0418    2.9933   -2.1335 C   0  0  0  0  0  0  0  0  0  0  0  0
   -2.1410    3.4987   -1.4485 C   0  0  0  0  0  0  0  0  0  0  0  0
   -2.5376    2.9093   -0.2545 C   0  0  0  0  0  0  0  0  0  0  0  0
   -1.8243    1.8235    0.2600 C   0  0  0  0  0  0  0  0  0  0  0  0
    0.4373    0.3120    1.6493 N   0  0  0  0  0  0  0  0  0  0  0  0
    0.9366   -0.6186    2.5457 C   0  0  0  0  0  0  0  0  0  0  0  0
    1.2101    0.0770    3.6971 C   0  0  0  0  0  0  0  0  0  0  0  0
    0.9555    1.4072    3.5272 N   0  0  0  0  0  0  0  0  0  0  0  0
    0.5551    1.5288    2.2812 C   0  0  0  0  0  0  0  0  0  0  0  0
   -2.5164   -3.2026   -2.1968 H   0  0  0  0  0  0  0  0  0  0  0  0
   -3.6801   -3.9820   -0.1699 H   0  0  0  0  0  0  0  0  0  0  0  0
   -3.2020   -2.9066    2.0129 H   0  0  0  0  0  0  0  0  0  0  0  0
   -1.5866   -1.1148    2.1832 H   0  0  0  0  0  0  0  0  0  0  0  0
    1.2968   -2.4288   -0.4512 H   0  0  0  0  0  0  0  0  0  0  0  0
    3.5300   -2.8555   -1.3281 H   0  0  0  0  0  0  0  0  0  0  0  0
    5.1064   -0.9889   -1.7418 H   0  0  0  0  0  0  0  0  0  0  0  0
    4.4182    1.3389   -1.2377 H   0  0  0  0  0  0  0  0  0  0  0  0
    2.1849    1.8125   -0.3620 H   0  0  0  0  0  0  0  0  0  0  0  0
    0.4960    1.5272   -2.2208 H   0  0  0  0  0  0  0  0  0  0  0  0
   -0.7443    3.4344   -3.0820 H   0  0  0  0  0  0  0  0  0  0  0  0
   -2.6968    4.3401   -1.8536 H   0  0  0  0  0  0  0  0  0  0  0  0
   -3.4074    3.2883    0.2764 H   0  0  0  0  0  0  0  0  0  0  0  0
   -2.1799    1.3814    1.1900 H   0  0  0  0  0  0  0  0  0  0  0  0
    1.0475   -1.6642    2.2941 H   0  0  0  0  0  0  0  0  0  0  0  0
    1.5953   -0.3090    4.6320 H   0  0  0  0  0  0  0  0  0  0  0  0
    0.3431    2.4754    1.8003 H   0  0  0  0  0  0  0  0  0  0  0  0
  1  2  1  0
  2  3  2  0
  3  4  1  0
  4  5  2  0
  5  6  1  0
  6  7  2  0
  7  8  1  0
  8  9  1  0
  9 10  2  0
 10 11  1  0
 11 12  2  0
 12 13  1  0
 13 14  2  0
  8 15  1  0
 15 16  2  0
 16 17  1  0
 17 18  2  0
 18 19  1  0
 19 20  2  0
  8 21  1  0
 21 22  1  0
 22 23  2  0
 23 24  1  0
 24 25  2  0
  7  2  1  0
 14  9  1  0
 20 15  1  0
 25 21  1  0
  3 26  1  0
  4 27  1  0
  5 28  1  0
  6 29  1  0
 10 30  1  0
 11 31  1  0
 12 32  1  0
 13 33  1  0
 14 34  1  0
 16 35  1  0
 17 36  1  0
 18 37  1  0
 19 38  1  0
 20 39  1  0
 22 40  1  0
 23 41  1  0
 25 42  1  0
M  END
$$$$
