
     RDKit          3D

 50 52  0  0  0  0  0  0  0  0999 V2000
    5.2604   -3.3913   -1.0719 C   0  0  0  0  0  0  0  0  0  0  0  0
    5.4871   -2.1374   -0.2681 C   0  0  0  0  0  0  0  0  0  0  0  0
    6.6081   -1.6427   -0.1622 O   0  0  0  0  0  0  0  0  0  0  0  0
    4.3200   -1.4909    0.4000 C   0  0  0  0  0  0  0  0  0  0  0  0
    3.0022   -1.8670    0.1255 C   0  0  0  0  0  0  0  0  0  0  0  0
    1.9402   -1.2114    0.7606 C   0  0  0  0  0  0  0  0  0  0  0  0
    2.1772   -0.1836    1.6821 C   0  0  0  0  0  0  0  0  0  0  0  0
    1.0516    0.4332    2.2526 N   0  0  0  0  0  0  0  0  0  0  0  0
    1.0151    1.4501    3.1867 C   0  0  0  0  0  0  0  0  0  0  0  0
    1.9741    1.9837    3.7341 O   0  0  0  0  0  0  0  0  0  0  0  0
   -0.3974    1.8960    3.5021 C   0  0  0  0  0  0  0  0  0  0  0  0
   -0.7841    3.1921    2.7996 C   0  0  0  0  0  0  0  0  0  0  0  0
   -0.4592    3.3554    1.0156 S   0  0  0  0  0  0  0  0  0  0  0  0
   -1.3415    2.0419    0.3146 C   0  0  0  0  0  0  0  0  0  0  0  0
   -1.4212    0.8425    0.8455 N   0  0  0  0  0  0  0  0  0  0  0  0
   -2.1055    0.0978   -0.0776 C   0  0  0  0  0  0  0  0  0  0  0  0
   -2.4026   -1.3120   -0.0102 C   0  0  0  0  0  0  0  0  0  0  0  0
   -1.9765   -2.0268    0.8930 O   0  0  0  0  0  0  0  0  0  0  0  0
   -3.1673   -1.7684   -1.0873 N   0  0  0  0  0  0  0  0  0  0  0  0
   -3.5087   -3.1789   -1.0835 C   0  0  0  0  0  0  0  0  0  0  0  0
   -3.4969   -1.0323   -2.2387 C   0  0  0  0  0  0  0  0  0  0  0  0
   -4.0446   -1.5742   -3.2033 O   0  0  0  0  0  0  0  0  0  0  0  0
   -3.1661    0.3395   -2.2566 N   0  0  0  0  0  0  0  0  0  0  0  0
   -3.5313    1.1024   -3.4396 C   0  0  0  0  0  0  0  0  0  0  0  0
   -2.4680    0.8471   -1.1675 C   0  0  0  0  0  0  0  0  0  0  0  0
   -1.9607    2.1073   -0.9191 N   0  0  0  0  0  0  0  0  0  0  0  0
   -2.0272    3.2593   -1.7861 C   0  0  0  0  0  0  0  0  0  0  0  0
    3.4941    0.1786    1.9650 C   0  0  0  0  0  0  0  0  0  0  0  0
    4.5582   -0.4645    1.3210 C   0  0  0  0  0  0  0  0  0  0  0  0
    4.7576   -4.1486   -0.4617 H   0  0  0  0  0  0  0  0  0  0  0  0
    6.2288   -3.8027   -1.3773 H   0  0  0  0  0  0  0  0  0  0  0  0
    4.6829   -3.1653   -1.9720 H   0  0  0  0  0  0  0  0  0  0  0  0
    2.7683   -2.6551   -0.5838 H   0  0  0  0  0  0  0  0  0  0  0  0
    0.9211   -1.5188    0.5315 H   0  0  0  0  0  0  0  0  0  0  0  0
    0.1480    0.1593    1.8636 H   0  0  0  0  0  0  0  0  0  0  0  0
   -1.1165    1.0983    3.2878 H   0  0  0  0  0  0  0  0  0  0  0  0
   -0.4599    2.0460    4.5881 H   0  0  0  0  0  0  0  0  0  0  0  0
   -0.2408    4.0183    3.2732 H   0  0  0  0  0  0  0  0  0  0  0  0
   -1.8486    3.3868    2.9688 H   0  0  0  0  0  0  0  0  0  0  0  0
   -4.4283   -3.3649   -1.6458 H   0  0  0  0  0  0  0  0  0  0  0  0
   -2.6885   -3.7322   -1.5507 H   0  0  0  0  0  0  0  0  0  0  0  0
   -3.6463   -3.5464   -0.0611 H   0  0  0  0  0  0  0  0  0  0  0  0
   -4.0981    1.9889   -3.1420 H   0  0  0  0  0  0  0  0  0  0  0  0
   -2.6197    1.3878   -3.9735 H   0  0  0  0  0  0  0  0  0  0  0  0
   -4.1607    0.5292   -4.1254 H   0  0  0  0  0  0  0  0  0  0  0  0
   -1.5716    3.0024   -2.7446 H   0  0  0  0  0  0  0  0  0  0  0  0
   -1.4884    4.1108   -1.3694 H   0  0  0  0  0  0  0  0  0  0  0  0
   -3.0755    3.5412   -1.9058 H   0  0  0  0  0  0  0  0  0  0  0  0
    3.7291    0.9707    2.6685 H   0  0  0  0  0  0  0  0  0  0  0  0
    5.5774   -0.1511    1.5456 H   0  0  0  0  0  0  0  0  0  0  0  0
  1  2  1  0
  2  3  2  0
  2  4  1  0
  4  5  2  0
  5  6  1  0
  6  7  2  0
  7  8  1  0
  8  9  1  0
  9 10  2  0
  9 11  1  0
 11 12  1  0
 12 13  1  0
 13 14  1  0
 14 15  2  0
 15 16  1  0
 16 17  1  0
 17 18  2  0
 17 19  1  0
 19 20  1  0
 19 21  1  0
 21 22  2  0
 21 23  1  0
 23 24  1  0
 23 25  1  0
 25 26  1  0
 26 27  1  0
  7 28  1  0
 28 29  2  0
 29  4  1  0
 26 14  1  0
 25 16  2  0
  1 30  1  0
  1 31  1  0
  1 32  1  0
  5 33  1  0
  6 34  1  0
  8 35  1  0
 11 36  1  0
 11 37  1  0
 12 38  1  0
 12 39  1  0
 20 40  1  0
 20 41  1  0
 20 42  1  0
 24 43  1  0
 24 44  1  0
 24 45  1  0
 27 46  1  0
 27 47  1  0
 27 48  1  0
 28 49  1  0
 29 50  1  0
M  END
$$$$
