
     RDKit          3D

 46 49  0  0  0  0  0  0  0  0999 V2000
    2.3679   -4.3846    1.1677 C   0  0  0  0  0  0  0  0  0  0  0  0
    1.6011   -3.4765    0.3889 O   0  0  0  0  0  0  0  0  0  0  0  0
    1.5345   -2.2160    0.9406 C   0  0  0  0  0  0  0  0  0  0  0  0
    2.1102   -1.9701    2.1289 N   0  0  0  0  0  0  0  0  0  0  0  0
    1.9816   -0.7171    2.5991 C   0  0  0  0  0  0  0  0  0  0  0  0
    1.3055    0.2752    1.9333 C   0  0  0  0  0  0  0  0  0  0  0  0
    0.7549   -0.0881    0.7234 C   0  0  0  0  0  0  0  0  0  0  0  0
    0.0194    0.8594   -0.1056 C   0  0  0  0  0  0  0  0  0  0  0  0
    0.3387    2.1417   -0.5399 C   0  0  0  0  0  0  0  0  0  0  0  0
    1.5729    2.8692   -0.2972 C   0  0  0  0  0  0  0  0  0  0  0  0
    2.8269    2.2622   -0.4647 C   0  0  0  0  0  0  0  0  0  0  0  0
    3.9974    2.9858   -0.2241 C   0  0  0  0  0  0  0  0  0  0  0  0
    3.9128    4.3160    0.1707 C   0  0  0  0  0  0  0  0  0  0  0  0
    5.0362    5.0077    0.4017 F   0  0  0  0  0  0  0  0  0  0  0  0
    2.6807    4.9405    0.3227 C   0  0  0  0  0  0  0  0  0  0  0  0
    1.5100    4.2181    0.0830 C   0  0  0  0  0  0  0  0  0  0  0  0
   -0.6915    2.6971   -1.2586 N   0  0  0  0  0  0  0  0  0  0  0  0
   -1.6032    1.7591   -1.3337 C   0  0  0  0  0  0  0  0  0  0  0  0
   -1.2403    0.6356   -0.6403 N   0  0  0  0  0  0  0  0  0  0  0  0
   -2.0588   -0.5663   -0.5037 C   0  0  0  0  0  0  0  0  0  0  0  0
   -3.5188   -0.2711   -0.1232 C   0  0  0  0  0  0  0  0  0  0  0  0
   -4.3104   -1.5717   -0.0142 C   0  0  0  0  0  0  0  0  0  0  0  0
   -4.2384   -2.3534   -1.2481 N   0  0  0  0  0  0  0  0  0  0  0  0
   -2.8553   -2.6815   -1.5989 C   0  0  0  0  0  0  0  0  0  0  0  0
   -2.0015   -1.4290   -1.7695 C   0  0  0  0  0  0  0  0  0  0  0  0
    0.8530   -1.3268    0.2086 N   0  0  0  0  0  0  0  0  0  0  0  0
    2.3792   -5.3456    0.6442 H   0  0  0  0  0  0  0  0  0  0  0  0
    1.9129   -4.5488    2.1507 H   0  0  0  0  0  0  0  0  0  0  0  0
    3.4063   -4.0489    1.2655 H   0  0  0  0  0  0  0  0  0  0  0  0
    2.4534   -0.5284    3.5592 H   0  0  0  0  0  0  0  0  0  0  0  0
    1.2176    1.2738    2.3394 H   0  0  0  0  0  0  0  0  0  0  0  0
    2.9035    1.2303   -0.8012 H   0  0  0  0  0  0  0  0  0  0  0  0
    4.9709    2.5236   -0.3528 H   0  0  0  0  0  0  0  0  0  0  0  0
    2.6371    5.9838    0.6177 H   0  0  0  0  0  0  0  0  0  0  0  0
    0.5438    4.7087    0.1868 H   0  0  0  0  0  0  0  0  0  0  0  0
   -2.5383    1.8467   -1.8713 H   0  0  0  0  0  0  0  0  0  0  0  0
   -1.6420   -1.1418    0.3307 H   0  0  0  0  0  0  0  0  0  0  0  0
   -3.9973    0.3744   -0.8699 H   0  0  0  0  0  0  0  0  0  0  0  0
   -3.5582    0.2676    0.8313 H   0  0  0  0  0  0  0  0  0  0  0  0
   -3.9448   -2.1720    0.8278 H   0  0  0  0  0  0  0  0  0  0  0  0
   -5.3603   -1.3428    0.1992 H   0  0  0  0  0  0  0  0  0  0  0  0
   -4.6679   -1.8309   -2.0125 H   0  0  0  0  0  0  0  0  0  0  0  0
   -2.4236   -3.3355   -0.8314 H   0  0  0  0  0  0  0  0  0  0  0  0
   -2.8541   -3.2540   -2.5329 H   0  0  0  0  0  0  0  0  0  0  0  0
   -0.9672   -1.7185   -1.9904 H   0  0  0  0  0  0  0  0  0  0  0  0
   -2.3565   -0.8568   -2.6368 H   0  0  0  0  0  0  0  0  0  0  0  0
  1  2  1  0
  2  3  1  0
  3  4  2  0
  4  5  1  0
  5  6  2  0
  6  7  1  0
  7  8  1  0
  8  9  2  0
  9 10  1  0
 10 11  2  0
 11 12  1  0
 12 13  2  0
 13 14  1  0
 13 15  1  0
 15 16  2  0
  9 17  1  0
 17 18  2  0
 18 19  1  0
 19 20  1  0
 20 21  1  0
 21 22  1  0
 22 23  1  0
 23 24  1  0
 24 25  1  0
  7 26  2  0
 26  3  1  0
 19  8  1  0
 25 20  1  0
 16 10  1  0
  1 27  1  0
  1 28  1  0
  1 29  1  0
  5 30  1  0
  6 31  1  0
 11 32  1  0
 12 33  1  0
 15 34  1  0
 16 35  1  0
 18 36  1  0
 20 37  1  0
 21 38  1  0
 21 39  1  0
 22 40  1  0
 22 41  1  0
 23 42  1  0
 24 43  1  0
 24 44  1  0
 25 45  1  0
 25 46  1  0
M  END
$$$$
