
     RDKit          3D

 48 50  0  0  0  0  0  0  0  0999 V2000
    9.0049   -0.5750    2.1186 C   0  0  0  0  0  0  0  0  0  0  0  0
    8.6482    0.3437    1.0917 O   0  0  0  0  0  0  0  0  0  0  0  0
    7.2347    0.4211    0.8926 C   0  0  0  0  0  0  0  0  0  0  0  0
    6.7260   -0.7270    0.0138 C   0  0  0  0  0  0  0  0  0  0  0  0
    5.3385   -0.5718   -0.3741 N   0  0  0  0  0  0  0  0  0  0  0  0
    4.3124   -0.8345    0.5198 C   0  0  0  0  0  0  0  0  0  0  0  0
    4.5507   -1.2185    1.6642 O   0  0  0  0  0  0  0  0  0  0  0  0
    2.9442   -0.6056    0.0019 C   0  0  0  0  0  0  0  0  0  0  0  0
    2.5386   -0.2120   -1.3280 C   0  0  0  0  0  0  0  0  0  0  0  0
    1.1752   -0.1472   -1.2661 C   0  0  0  0  0  0  0  0  0  0  0  0
    0.8450   -0.4788   -0.0010 N   0  0  0  0  0  0  0  0  0  0  0  0
    1.8582   -0.7638    0.8005 N   0  0  0  0  0  0  0  0  0  0  0  0
   -0.5757   -0.4997    0.2871 C   0  0  0  0  0  0  0  0  0  0  0  0
   -1.1796   -0.4010   -1.1371 C   0  0  1  0  0  0  0  0  0  0  0  0
   -2.3621    0.5202   -1.2063 N   0  0  0  0  0  0  0  0  0  0  0  0
   -3.8011   -0.1316   -0.5559 S   0  0  0  0  0  6  0  0  0  0  0  0
   -4.3964   -0.8480   -1.6609 O   0  0  0  0  0  0  0  0  0  0  0  0
   -3.4451   -0.7909    0.6816 O   0  0  0  0  0  0  0  0  0  0  0  0
   -4.7156    1.3765   -0.1923 C   0  0  0  0  0  0  0  0  0  0  0  0
   -6.1047    1.0024    0.2576 C   0  0  0  0  0  0  0  0  0  0  0  0
   -6.3173    0.6735    1.6102 C   0  0  0  0  0  0  0  0  0  0  0  0
   -7.5820    0.2988    2.0664 C   0  0  0  0  0  0  0  0  0  0  0  0
   -8.6542    0.2419    1.1810 C   0  0  0  0  0  0  0  0  0  0  0  0
   -8.4616    0.5593   -0.1623 C   0  0  0  0  0  0  0  0  0  0  0  0
   -7.1962    0.9355   -0.6236 C   0  0  0  0  0  0  0  0  0  0  0  0
   -7.0444    1.3309   -2.2999 Cl  0  0  0  0  0  0  0  0  0  0  0  0
   -0.0297    0.1400   -2.0582 C   0  0  0  0  0  0  0  0  0  0  0  0
    8.5426   -0.2893    3.0687 H   0  0  0  0  0  0  0  0  0  0  0  0
   10.0912   -0.5480    2.2394 H   0  0  0  0  0  0  0  0  0  0  0  0
    8.7151   -1.5943    1.8495 H   0  0  0  0  0  0  0  0  0  0  0  0
    6.7099    0.4639    1.8547 H   0  0  0  0  0  0  0  0  0  0  0  0
    7.0396    1.3729    0.3838 H   0  0  0  0  0  0  0  0  0  0  0  0
    7.3210   -0.7930   -0.9048 H   0  0  0  0  0  0  0  0  0  0  0  0
    6.8386   -1.6856    0.5330 H   0  0  0  0  0  0  0  0  0  0  0  0
    5.1344   -0.1757   -1.2806 H   0  0  0  0  0  0  0  0  0  0  0  0
    3.1596   -0.0164   -2.1897 H   0  0  0  0  0  0  0  0  0  0  0  0
   -0.8175   -1.4436    0.7834 H   0  0  0  0  0  0  0  0  0  0  0  0
   -0.8028    0.3610    0.9235 H   0  0  0  0  0  0  0  0  0  0  0  0
   -1.4679   -1.3961   -1.5016 H   0  0  0  0  0  0  0  0  0  0  0  0
   -2.5657    0.7627   -2.1826 H   0  0  0  0  0  0  0  0  0  0  0  0
   -4.7151    2.0073   -1.0845 H   0  0  0  0  0  0  0  0  0  0  0  0
   -4.1779    1.9088    0.5998 H   0  0  0  0  0  0  0  0  0  0  0  0
   -5.4910    0.6926    2.3215 H   0  0  0  0  0  0  0  0  0  0  0  0
   -7.7269    0.0425    3.1139 H   0  0  0  0  0  0  0  0  0  0  0  0
   -9.6383   -0.0545    1.5352 H   0  0  0  0  0  0  0  0  0  0  0  0
   -9.3042    0.5094   -0.8488 H   0  0  0  0  0  0  0  0  0  0  0  0
   -0.1269    1.2165   -2.2380 H   0  0  0  0  0  0  0  0  0  0  0  0
   -0.0284   -0.3798   -3.0212 H   0  0  0  0  0  0  0  0  0  0  0  0
  1  2  1  0
  2  3  1  0
  3  4  1  0
  4  5  1  0
  5  6  1  0
  6  7  2  0
  6  8  1  0
  8  9  1  0
  9 10  2  0
 10 11  1  0
 11 12  1  0
 11 13  1  0
 13 14  1  0
 14 15  1  0
 15 16  1  0
 16 17  2  0
 16 18  2  0
 16 19  1  0
 19 20  1  0
 20 21  2  0
 21 22  1  0
 22 23  2  0
 23 24  1  0
 24 25  2  0
 25 26  1  0
 14 27  1  0
 12  8  2  0
 25 20  1  0
 27 10  1  0
  1 28  1  0
  1 29  1  0
  1 30  1  0
  3 31  1  0
  3 32  1  0
  4 33  1  0
  4 34  1  0
  5 35  1  0
  9 36  1  0
 13 37  1  0
 13 38  1  0
 14 39  1  6
 15 40  1  0
 19 41  1  0
 19 42  1  0
 21 43  1  0
 22 44  1  0
 23 45  1  0
 24 46  1  0
 27 47  1  0
 27 48  1  0
M  END
$$$$
