
     RDKit          3D

 40 40  0  0  0  0  0  0  0  0999 V2000
    2.1163   -2.1801    0.0222 C   0  0  0  0  0  0  0  0  0  0  0  0
    1.0908   -1.1326   -0.2130 C   0  0  0  0  0  0  0  0  0  0  0  0
   -0.2354   -1.4900   -0.0349 C   0  0  0  0  0  0  0  0  0  0  0  0
   -1.2747   -0.5717   -0.2615 C   0  0  0  0  0  0  0  0  0  0  0  0
   -2.6225   -0.9388   -0.0920 N   0  0  0  0  0  0  0  0  0  0  0  0
   -3.3613   -0.7750    1.0126 C   0  0  0  0  0  0  0  0  0  0  0  0
   -4.6401   -1.2646    0.8017 C   0  0  0  0  0  0  0  0  0  0  0  0
   -4.6698   -1.7433   -0.4865 C   0  0  0  0  0  0  0  0  0  0  0  0
   -3.3953   -1.5223   -1.0088 C   0  0  0  0  0  0  0  0  0  0  0  0
   -0.9697    0.7069   -0.6683 C   0  0  0  0  0  0  0  0  0  0  0  0
   -2.2296    1.8569   -0.9401 S   0  0  0  0  0  6  0  0  0  0  0  0
   -3.2010    2.2511    0.4576 C   0  0  0  0  0  0  0  0  0  0  0  0
   -3.1512    1.4033   -2.0418 O   0  0  0  0  0  0  0  0  0  0  0  0
   -1.6152    3.1512   -1.4600 O   0  0  0  0  0  0  0  0  0  0  0  0
    0.3317    1.0784   -0.8489 C   0  0  0  0  0  0  0  0  0  0  0  0
    1.3593    0.1441   -0.6156 C   0  0  0  0  0  0  0  0  0  0  0  0
    2.7212    0.6249   -0.7040 C   0  0  0  0  0  0  0  0  0  0  0  0
    3.2626    1.2440   -1.5988 O   0  0  0  0  0  0  0  0  0  0  0  0
    3.5874    0.3827    0.3942 N   0  0  0  0  0  0  0  0  0  0  0  0
    4.9023    0.7429    0.4668 C   0  0  0  0  0  0  0  0  0  0  0  0
    5.3695    0.7629    1.6268 N   0  0  0  0  0  0  0  0  0  0  0  0
    5.9790    0.9596   -0.4710 N   0  0  0  0  0  0  0  0  0  0  0  0
    0.6849    0.0000    0.0000 Cl  0  0  0  0  0  0  0  0  0  0  0  0
    3.0378   -1.9050   -0.5118 H   0  0  0  0  0  0  0  0  0  0  0  0
    1.6876   -3.1178   -0.4178 H   0  0  0  0  0  0  0  0  0  0  0  0
    2.2715   -2.4185    1.0929 H   0  0  0  0  0  0  0  0  0  0  0  0
   -0.5107   -2.4948    0.2855 H   0  0  0  0  0  0  0  0  0  0  0  0
   -3.0418   -0.3281    1.9577 H   0  0  0  0  0  0  0  0  0  0  0  0
   -5.4627   -1.2805    1.4827 H   0  0  0  0  0  0  0  0  0  0  0  0
   -5.4842   -2.2071   -1.0347 H   0  0  0  0  0  0  0  0  0  0  0  0
   -3.0774   -1.7801   -1.9954 H   0  0  0  0  0  0  0  0  0  0  0  0
   -3.3156    3.3666    0.4989 H   0  0  0  0  0  0  0  0  0  0  0  0
   -4.2556    1.8922    0.4117 H   0  0  0  0  0  0  0  0  0  0  0  0
   -2.6909    1.9969    1.4125 H   0  0  0  0  0  0  0  0  0  0  0  0
    0.6210    2.0627   -1.1576 H   0  0  0  0  0  0  0  0  0  0  0  0
    3.0887   -0.2203    1.1395 H   0  0  0  0  0  0  0  0  0  0  0  0
    5.1044    0.6082    2.5028 H   0  0  0  0  0  0  0  0  0  0  0  0
    6.4570    0.1844   -0.9206 H   0  0  0  0  0  0  0  0  0  0  0  0
    6.2165    1.9508   -0.6157 H   0  0  0  0  0  0  0  0  0  0  0  0
   -0.6849    0.0000    0.0000 H   0  0  0  0  0  0  0  0  0  0  0  0
  1  2  1  0
  2  3  2  0
  3  4  1  0
  4  5  1  0
  5  6  1  0
  6  7  2  0
  7  8  1  0
  8  9  2  0
  4 10  2  0
 10 11  1  0
 11 12  1  0
 11 13  2  0
 11 14  2  0
 10 15  1  0
 15 16  2  0
 16 17  1  0
 17 18  2  0
 17 19  1  0
 19 20  1  0
 20 21  2  3
 20 22  1  0
 16  2  1  0
  9  5  1  0
  1 24  1  0
  1 25  1  0
  1 26  1  0
  3 27  1  0
  6 28  1  0
  7 29  1  0
  8 30  1  0
  9 31  1  0
 12 32  1  0
 12 33  1  0
 12 34  1  0
 15 35  1  0
 19 36  1  0
 21 37  1  0
 22 38  1  0
 22 39  1  0
 23 40  1  0
M  END
$$$$
