
     RDKit          3D

 38 40  0  0  0  0  0  0  0  0999 V2000
    0.6081   -3.0468    5.6732 C   0  0  0  0  0  0  0  0  0  0  0  0
   -0.0563   -2.5873    4.4065 C   0  0  0  0  0  0  0  0  0  0  0  0
   -1.5132   -2.5697    4.4116 C   0  0  0  0  0  0  0  0  0  0  0  0
   -2.1701   -2.2205    3.2956 C   0  0  0  0  0  0  0  0  0  0  0  0
   -1.4531   -1.8427    2.1687 N   0  0  0  0  0  0  0  0  0  0  0  0
   -1.9112   -1.4695    0.9394 C   0  0  0  0  0  0  0  0  0  0  0  0
   -0.7885   -1.0815    0.2292 C   0  0  0  0  0  0  0  0  0  0  0  0
   -0.8269   -0.6498   -1.1674 C   0  0  0  0  0  0  0  0  0  0  0  0
   -1.5964   -1.1257   -2.0031 O   0  0  0  0  0  0  0  0  0  0  0  0
   -0.2089    0.5716   -1.4175 N   0  0  0  0  0  0  0  0  0  0  0  0
   -0.9251    1.5300   -2.2435 C   0  0  0  0  0  0  0  0  0  0  0  0
   -0.2706    2.9049   -2.1605 C   0  0  0  0  0  0  0  0  0  0  0  0
    1.1768    2.8630   -2.6955 C   0  0  0  0  0  0  0  0  0  0  0  0
    1.1790    3.1621   -4.1975 C   0  0  0  0  0  0  0  0  0  0  0  0
    1.8684    1.5220   -2.3670 C   0  0  0  0  0  0  0  0  0  0  0  0
    1.2152    0.7942   -1.1774 C   0  0  0  0  0  0  0  0  0  0  0  0
    0.3681   -1.3102    0.9791 N   0  0  0  0  0  0  0  0  0  0  0  0
   -0.0663   -1.7802    2.1264 C   0  0  0  0  0  0  0  0  0  0  0  0
    0.6255   -2.2020    3.3018 C   0  0  0  0  0  0  0  0  0  0  0  0
    0.2056   -2.5294    6.5471 H   0  0  0  0  0  0  0  0  0  0  0  0
    1.6862   -2.8662    5.6556 H   0  0  0  0  0  0  0  0  0  0  0  0
    0.4436   -4.1252    5.8194 H   0  0  0  0  0  0  0  0  0  0  0  0
   -2.0513   -2.8432    5.3164 H   0  0  0  0  0  0  0  0  0  0  0  0
   -3.2542   -2.1984    3.2373 H   0  0  0  0  0  0  0  0  0  0  0  0
   -2.9567   -1.4827    0.6629 H   0  0  0  0  0  0  0  0  0  0  0  0
   -0.9494    1.1525   -3.2755 H   0  0  0  0  0  0  0  0  0  0  0  0
   -1.9551    1.5860   -1.8802 H   0  0  0  0  0  0  0  0  0  0  0  0
   -0.2413    3.2383   -1.1079 H   0  0  0  0  0  0  0  0  0  0  0  0
   -0.8850    3.6408   -2.6921 H   0  0  0  0  0  0  0  0  0  0  0  0
    1.7238    3.6735   -2.2008 H   0  0  0  0  0  0  0  0  0  0  0  0
    2.1953    3.3035   -4.5936 H   0  0  0  0  0  0  0  0  0  0  0  0
    0.6184    4.0857   -4.3886 H   0  0  0  0  0  0  0  0  0  0  0  0
    0.6998    2.3591   -4.7733 H   0  0  0  0  0  0  0  0  0  0  0  0
    1.8114    0.8421   -3.2339 H   0  0  0  0  0  0  0  0  0  0  0  0
    2.9318    1.6888   -2.1534 H   0  0  0  0  0  0  0  0  0  0  0  0
    1.7146   -0.1672   -1.0298 H   0  0  0  0  0  0  0  0  0  0  0  0
    1.3040    1.3896   -0.2628 H   0  0  0  0  0  0  0  0  0  0  0  0
    1.7041   -2.2093    3.2729 H   0  0  0  0  0  0  0  0  0  0  0  0
  1  2  1  0
  2  3  1  0
  3  4  2  0
  4  5  1  0
  5  6  1  0
  6  7  2  0
  7  8  1  0
  8  9  2  0
  8 10  1  0
 10 11  1  0
 11 12  1  0
 12 13  1  0
 13 14  1  0
 13 15  1  0
 15 16  1  0
  7 17  1  0
 17 18  2  0
 18 19  1  0
 19  2  2  0
 18  5  1  0
 16 10  1  0
  1 20  1  0
  1 21  1  0
  1 22  1  0
  3 23  1  0
  4 24  1  0
  6 25  1  0
 11 26  1  0
 11 27  1  0
 12 28  1  0
 12 29  1  0
 13 30  1  0
 14 31  1  0
 14 32  1  0
 14 33  1  0
 15 34  1  0
 15 35  1  0
 16 36  1  0
 16 37  1  0
 19 38  1  0
M  END
$$$$
