
     RDKit          3D

 52 56  0  0  0  0  0  0  0  0999 V2000
    6.2126    0.4579    2.0874 C   0  0  0  0  0  0  0  0  0  0  0  0
    5.8934   -0.1140    0.7344 C   0  0  0  0  0  0  0  0  0  0  0  0
    6.4024   -1.3553    0.3676 C   0  0  0  0  0  0  0  0  0  0  0  0
    6.0923   -1.8649   -0.8898 C   0  0  0  0  0  0  0  0  0  0  0  0
    5.2931   -1.1188   -1.7460 C   0  0  0  0  0  0  0  0  0  0  0  0
    4.8300    0.1250   -1.3182 C   0  0  0  0  0  0  0  0  0  0  0  0
    3.9593    0.9591   -2.2163 C   0  0  0  0  0  0  0  0  0  0  0  0
    2.5432    0.4131   -2.2625 C   0  0  0  0  0  0  0  0  0  0  0  0
    2.2915   -0.5180   -3.0335 O   0  0  0  0  0  0  0  0  0  0  0  0
    1.6133    0.9949   -1.4160 N   0  0  0  0  0  0  0  0  0  0  0  0
    1.8642    2.1031   -0.4698 C   0  0  0  0  0  0  0  0  0  0  0  0
    0.5208    2.4721    0.1702 C   0  0  0  0  0  0  0  0  0  0  0  0
   -0.3401    1.3303   -0.2587 C   0  0  0  0  0  0  0  0  0  0  0  0
    0.3049    0.5227   -1.1916 C   0  0  0  0  0  0  0  0  0  0  0  0
   -0.3377   -0.5781   -1.7326 C   0  0  0  0  0  0  0  0  0  0  0  0
   -1.6456   -0.8653   -1.3169 C   0  0  0  0  0  0  0  0  0  0  0  0
   -2.3121   -0.0507   -0.3794 C   0  0  0  0  0  0  0  0  0  0  0  0
   -3.6818   -0.3635    0.0078 C   0  0  0  0  0  0  0  0  0  0  0  0
   -4.6577   -0.6181   -0.9474 C   0  0  0  0  0  0  0  0  0  0  0  0
   -5.8242   -0.9142   -0.2940 N   0  0  0  0  0  0  0  0  0  0  0  0
   -7.0754   -1.2598   -0.9266 C   0  0  0  0  0  0  0  0  0  0  0  0
   -5.6306   -0.8524    1.0614 C   0  0  0  0  0  0  0  0  0  0  0  0
   -6.5782   -1.1004    1.9831 N   0  0  0  0  0  0  0  0  0  0  0  0
   -6.1006   -0.9756    3.2285 C   0  0  0  0  0  0  0  0  0  0  0  0
   -4.8533   -0.6468    3.6081 N   0  0  0  0  0  0  0  0  0  0  0  0
   -3.9306   -0.4082    2.6523 C   0  0  0  0  0  0  0  0  0  0  0  0
   -2.6622   -0.0642    3.1090 N   0  0  0  0  0  0  0  0  0  0  0  0
   -4.3034   -0.5017    1.2977 C   0  0  0  0  0  0  0  0  0  0  0  0
   -1.6395    1.0616    0.1371 C   0  0  0  0  0  0  0  0  0  0  0  0
   -2.2306    1.8811    1.0218 F   0  0  0  0  0  0  0  0  0  0  0  0
    5.1200    0.6330   -0.0916 N   0  0  0  0  0  0  0  0  0  0  0  0
    5.9909   -0.2753    2.8690 H   0  0  0  0  0  0  0  0  0  0  0  0
    5.6170    1.3577    2.2870 H   0  0  0  0  0  0  0  0  0  0  0  0
    7.2705    0.7255    2.1405 H   0  0  0  0  0  0  0  0  0  0  0  0
    7.0232   -1.9239    1.0503 H   0  0  0  0  0  0  0  0  0  0  0  0
    6.4672   -2.8394   -1.1984 H   0  0  0  0  0  0  0  0  0  0  0  0
    5.0305   -1.5068   -2.7278 H   0  0  0  0  0  0  0  0  0  0  0  0
    3.9887    2.0089   -1.9070 H   0  0  0  0  0  0  0  0  0  0  0  0
    4.3605    0.9516   -3.2363 H   0  0  0  0  0  0  0  0  0  0  0  0
    2.5776    1.7510    0.2846 H   0  0  0  0  0  0  0  0  0  0  0  0
    2.2985    2.9617   -0.9922 H   0  0  0  0  0  0  0  0  0  0  0  0
    0.1360    3.4104   -0.2456 H   0  0  0  0  0  0  0  0  0  0  0  0
    0.6036    2.5550    1.2584 H   0  0  0  0  0  0  0  0  0  0  0  0
    0.1432   -1.2267   -2.4579 H   0  0  0  0  0  0  0  0  0  0  0  0
   -2.1404   -1.7432   -1.7297 H   0  0  0  0  0  0  0  0  0  0  0  0
   -4.6102   -0.6146   -2.0326 H   0  0  0  0  0  0  0  0  0  0  0  0
   -7.8271   -0.5167   -0.6399 H   0  0  0  0  0  0  0  0  0  0  0  0
   -6.9489   -1.2587   -2.0144 H   0  0  0  0  0  0  0  0  0  0  0  0
   -7.3682   -2.2602   -0.5905 H   0  0  0  0  0  0  0  0  0  0  0  0
   -6.8072   -1.1612    4.0306 H   0  0  0  0  0  0  0  0  0  0  0  0
   -2.7240    0.1811    4.0908 H   0  0  0  0  0  0  0  0  0  0  0  0
   -2.2190    0.6398    2.5272 H   0  0  0  0  0  0  0  0  0  0  0  0
  1  2  1  0
  2  3  2  0
  3  4  1  0
  4  5  2  0
  5  6  1  0
  6  7  1  0
  7  8  1  0
  8  9  2  0
  8 10  1  0
 10 11  1  0
 11 12  1  0
 12 13  1  0
 13 14  2  0
 14 15  1  0
 15 16  2  0
 16 17  1  0
 17 18  1  0
 18 19  2  0
 19 20  1  0
 20 21  1  0
 20 22  1  0
 22 23  2  0
 23 24  1  0
 24 25  2  0
 25 26  1  0
 26 27  1  0
 26 28  2  0
 17 29  2  0
 29 30  1  0
  6 31  2  0
 31  2  1  0
 14 10  1  0
 28 18  1  0
 29 13  1  0
 28 22  1  0
  1 32  1  0
  1 33  1  0
  1 34  1  0
  3 35  1  0
  4 36  1  0
  5 37  1  0
  7 38  1  0
  7 39  1  0
 11 40  1  0
 11 41  1  0
 12 42  1  0
 12 43  1  0
 15 44  1  0
 16 45  1  0
 19 46  1  0
 21 47  1  0
 21 48  1  0
 21 49  1  0
 24 50  1  0
 27 51  1  0
 27 52  1  0
M  END
$$$$
