
     RDKit          3D

 55 57  0  0  0  0  0  0  0  0999 V2000
   -1.9146    0.5747    1.9444 C   0  0  0  0  0  0  0  0  0  0  0  0
   -1.7088    0.2605    0.5256 N   0  0  0  0  0  0  0  0  0  0  0  0
   -2.6236   -0.7722   -0.0117 C   0  0  0  0  0  0  0  0  0  0  0  0
   -4.0354   -0.2458   -0.1616 C   0  0  0  0  0  0  0  0  0  0  0  0
   -4.2909    0.8888   -0.9122 C   0  0  0  0  0  0  0  0  0  0  0  0
   -5.5375    1.3912   -1.0872 N   0  0  0  0  0  0  0  0  0  0  0  0
   -6.5592    0.7612   -0.4958 C   0  0  0  0  0  0  0  0  0  0  0  0
   -7.7771    1.2640   -0.6664 N   0  0  0  0  0  0  0  0  0  0  0  0
   -8.7891    0.6456   -0.0685 C   0  0  0  0  0  0  0  0  0  0  0  0
  -10.0516    1.1662   -0.2485 N   0  0  0  0  0  0  0  0  0  0  0  0
   -8.6797   -0.4607    0.6588 N   0  0  0  0  0  0  0  0  0  0  0  0
   -7.4444   -0.9567    0.8192 C   0  0  0  0  0  0  0  0  0  0  0  0
   -7.3270   -2.1385    1.5997 N   0  0  0  0  0  0  0  0  0  0  0  0
   -6.3043   -0.3876    0.2636 C   0  0  0  0  0  0  0  0  0  0  0  0
   -5.0506   -0.9094    0.4406 N   0  0  0  0  0  0  0  0  0  0  0  0
   -0.3873    0.1783    0.0580 C   0  0  0  0  0  0  0  0  0  0  0  0
   -0.1300    0.2152   -1.3236 C   0  0  0  0  0  0  0  0  0  0  0  0
    1.1715    0.1523   -1.8364 C   0  0  0  0  0  0  0  0  0  0  0  0
    2.2640    0.0541   -0.9740 C   0  0  0  0  0  0  0  0  0  0  0  0
    3.6317    0.0009   -1.5634 C   0  0  0  0  0  0  0  0  0  0  0  0
    3.8342    0.4151   -2.6988 O   0  0  0  0  0  0  0  0  0  0  0  0
    4.6216   -0.5476   -0.7814 N   0  0  0  0  0  0  0  0  0  0  0  0
    5.9923   -0.7100   -1.2680 C   0  0  1  0  0  0  0  0  0  0  0  0
    6.7615    0.6210   -1.3402 C   0  0  0  0  0  0  0  0  0  0  0  0
    6.6385    1.5237   -0.1085 C   0  0  0  0  0  0  0  0  0  0  0  0
    7.3169    0.9569    1.1063 C   0  0  0  0  0  0  0  0  0  0  0  0
    8.3367    0.2891    1.1255 O   0  0  0  0  0  0  0  0  0  0  0  0
    6.6852    1.2812    2.2492 O   0  0  0  0  0  0  0  0  0  0  0  0
    6.6917   -1.7473   -0.3910 C   0  0  0  0  0  0  0  0  0  0  0  0
    6.2573   -2.1913    0.6637 O   0  0  0  0  0  0  0  0  0  0  0  0
    7.8731   -2.1592   -0.8853 O   0  0  0  0  0  0  0  0  0  0  0  0
    2.0382    0.0487    0.4040 C   0  0  0  0  0  0  0  0  0  0  0  0
    0.7292    0.1111    0.9059 C   0  0  0  0  0  0  0  0  0  0  0  0
   -1.3473    1.4657    2.2377 H   0  0  0  0  0  0  0  0  0  0  0  0
   -2.9673    0.8026    2.1423 H   0  0  0  0  0  0  0  0  0  0  0  0
   -1.6303   -0.2674    2.5853 H   0  0  0  0  0  0  0  0  0  0  0  0
   -2.6239   -1.6416    0.6588 H   0  0  0  0  0  0  0  0  0  0  0  0
   -2.3191   -1.1465   -0.9959 H   0  0  0  0  0  0  0  0  0  0  0  0
   -3.4919    1.4441   -1.3946 H   0  0  0  0  0  0  0  0  0  0  0  0
  -10.7499    0.4484   -0.1122 H   0  0  0  0  0  0  0  0  0  0  0  0
  -10.0964    1.7114   -1.0977 H   0  0  0  0  0  0  0  0  0  0  0  0
   -6.6582   -1.9450    2.3424 H   0  0  0  0  0  0  0  0  0  0  0  0
   -6.8772   -2.8443    1.0201 H   0  0  0  0  0  0  0  0  0  0  0  0
   -0.9472    0.3277   -2.0313 H   0  0  0  0  0  0  0  0  0  0  0  0
    1.3255    0.1915   -2.9129 H   0  0  0  0  0  0  0  0  0  0  0  0
    4.3807   -1.0583    0.0625 H   0  0  0  0  0  0  0  0  0  0  0  0
    5.9255   -1.1449   -2.2739 H   0  0  0  0  0  0  0  0  0  0  0  0
    7.8208    0.4267   -1.5490 H   0  0  0  0  0  0  0  0  0  0  0  0
    6.3815    1.1915   -2.1975 H   0  0  0  0  0  0  0  0  0  0  0  0
    7.1095    2.4915   -0.3171 H   0  0  0  0  0  0  0  0  0  0  0  0
    5.5847    1.7192    0.1176 H   0  0  0  0  0  0  0  0  0  0  0  0
    7.2273    0.8632    2.9513 H   0  0  0  0  0  0  0  0  0  0  0  0
    8.2481   -2.7365   -0.1875 H   0  0  0  0  0  0  0  0  0  0  0  0
    2.8604    0.0277    1.1126 H   0  0  0  0  0  0  0  0  0  0  0  0
    0.6120    0.0998    1.9860 H   0  0  0  0  0  0  0  0  0  0  0  0
  1  2  1  0
  2  3  1  0
  3  4  1  0
  4  5  2  0
  5  6  1  0
  6  7  2  0
  7  8  1  0
  8  9  2  0
  9 10  1  0
  9 11  1  0
 11 12  2  0
 12 13  1  0
 12 14  1  0
 14 15  2  0
  2 16  1  0
 16 17  2  0
 17 18  1  0
 18 19  2  0
 19 20  1  0
 20 21  2  0
 20 22  1  0
 22 23  1  0
 23 24  1  0
 24 25  1  0
 25 26  1  0
 26 27  2  0
 26 28  1  0
 23 29  1  0
 29 30  2  0
 29 31  1  0
 19 32  1  0
 32 33  2  0
 15  4  1  0
 33 16  1  0
 14  7  1  0
  1 34  1  0
  1 35  1  0
  1 36  1  0
  3 37  1  0
  3 38  1  0
  5 39  1  0
 10 40  1  0
 10 41  1  0
 13 42  1  0
 13 43  1  0
 17 44  1  0
 18 45  1  0
 22 46  1  0
 23 47  1  6
 24 48  1  0
 24 49  1  0
 25 50  1  0
 25 51  1  0
 28 52  1  0
 31 53  1  0
 32 54  1  0
 33 55  1  0
M  END
$$$$
