
     RDKit          3D

 30 31  0  0  0  0  0  0  0  0999 V2000
   -2.5558   -1.9509    0.3149 C   0  0  0  0  0  0  0  0  0  0  0  0
   -2.5120   -0.4776   -0.0071 C   0  0  0  0  0  0  0  0  0  0  0  0
   -3.7091    0.2396   -0.2076 C   0  0  0  0  0  0  0  0  0  0  0  0
   -5.2601   -0.5193   -0.0825 Cl  0  0  0  0  0  0  0  0  0  0  0  0
   -3.6916    1.6034   -0.5081 C   0  0  0  0  0  0  0  0  0  0  0  0
   -2.4809    2.2785   -0.5989 C   0  0  0  0  0  0  0  0  0  0  0  0
   -1.2883    1.5896   -0.3834 C   0  0  0  0  0  0  0  0  0  0  0  0
   -1.2807    0.2163   -0.0849 C   0  0  0  0  0  0  0  0  0  0  0  0
   -0.0673   -0.4735    0.1599 N   0  0  0  0  0  0  0  0  0  0  0  0
    1.2595   -0.1555   -0.2235 C   0  0  0  0  0  0  0  0  0  0  0  0
    1.5121    0.4005   -1.4903 C   0  0  0  0  0  0  0  0  0  0  0  0
    2.8089    0.7155   -1.9028 C   0  0  0  0  0  0  0  0  0  0  0  0
    3.8861    0.4701   -1.0592 C   0  0  0  0  0  0  0  0  0  0  0  0
    3.6680   -0.1008    0.1942 C   0  0  0  0  0  0  0  0  0  0  0  0
    2.3654   -0.4228    0.6168 C   0  0  0  0  0  0  0  0  0  0  0  0
    2.1530   -1.0440    1.9519 C   0  0  0  0  0  0  0  0  0  0  0  0
    1.0823   -1.4143    2.4029 O   0  0  0  0  0  0  0  0  0  0  0  0
    3.2846   -1.1755    2.6681 O   0  0  0  0  0  0  0  0  0  0  0  0
   -3.2531   -2.4751   -0.3468 H   0  0  0  0  0  0  0  0  0  0  0  0
   -1.5892   -2.4428    0.1724 H   0  0  0  0  0  0  0  0  0  0  0  0
   -2.8626   -2.0961    1.3556 H   0  0  0  0  0  0  0  0  0  0  0  0
   -4.6211    2.1450   -0.6641 H   0  0  0  0  0  0  0  0  0  0  0  0
   -2.4628    3.3420   -0.8217 H   0  0  0  0  0  0  0  0  0  0  0  0
   -0.3574    2.1499   -0.4201 H   0  0  0  0  0  0  0  0  0  0  0  0
   -0.1033   -0.9465    1.0711 H   0  0  0  0  0  0  0  0  0  0  0  0
    0.6896    0.5728   -2.1815 H   0  0  0  0  0  0  0  0  0  0  0  0
    2.9738    1.1444   -2.8883 H   0  0  0  0  0  0  0  0  0  0  0  0
    4.8965    0.7125   -1.3793 H   0  0  0  0  0  0  0  0  0  0  0  0
    4.5246   -0.2962    0.8353 H   0  0  0  0  0  0  0  0  0  0  0  0
    2.9911   -1.5894    3.5069 H   0  0  0  0  0  0  0  0  0  0  0  0
  1  2  1  0
  2  3  2  0
  3  4  1  0
  3  5  1  0
  5  6  2  0
  6  7  1  0
  7  8  2  0
  8  9  1  0
  9 10  1  0
 10 11  2  0
 11 12  1  0
 12 13  2  0
 13 14  1  0
 14 15  2  0
 15 16  1  0
 16 17  2  0
 16 18  1  0
  8  2  1  0
 15 10  1  0
  1 19  1  0
  1 20  1  0
  1 21  1  0
  5 22  1  0
  6 23  1  0
  7 24  1  0
  9 25  1  0
 11 26  1  0
 12 27  1  0
 13 28  1  0
 14 29  1  0
 18 30  1  0
M  END
$$$$
