
     RDKit          3D

 65 68  0  0  0  0  0  0  0  0999 V2000
   -9.3794   -0.4279    1.2424 C   0  0  0  0  0  0  0  0  0  0  0  0
   -7.9487   -0.8765    0.9814 C   0  0  0  0  0  0  0  0  0  0  0  0
   -7.4097   -0.4471   -0.3950 C   0  0  0  0  0  0  0  0  0  0  0  0
   -8.1901   -1.0732   -1.5487 C   0  0  0  0  0  0  0  0  0  0  0  0
   -6.0008   -0.8101   -0.5230 N   0  0  0  0  0  0  0  0  0  0  0  0
   -5.0203   -0.0537    0.0689 C   0  0  0  0  0  0  0  0  0  0  0  0
   -5.2144    0.9904    0.6740 O   0  0  0  0  0  0  0  0  0  0  0  0
   -3.7853   -0.6277   -0.1127 N   0  0  0  0  0  0  0  0  0  0  0  0
   -2.5795    0.0513    0.3496 C   0  0  0  0  0  0  0  0  0  0  0  0
   -2.1862    1.1904   -0.5903 C   0  0  0  0  0  0  0  0  0  0  0  0
   -0.9135    1.8681   -0.1028 C   0  0  0  0  0  0  0  0  0  0  0  0
    0.1755    0.8924    0.0625 N   0  0  0  0  0  0  0  0  0  0  0  0
    1.4930    1.3590   -0.0932 C   0  0  0  0  0  0  0  0  0  0  0  0
    1.7451    2.2040   -1.0596 N   0  0  0  0  0  0  0  0  0  0  0  0
    3.0574    2.6391   -1.2713 C   0  0  0  0  0  0  0  0  0  0  0  0
    3.2881    3.5418   -2.3101 C   0  0  0  0  0  0  0  0  0  0  0  0
    4.5771    3.9903   -2.5725 C   0  0  0  0  0  0  0  0  0  0  0  0
    5.6021    3.5146   -1.7775 C   0  0  0  0  0  0  0  0  0  0  0  0
    5.4210    2.6434   -0.7616 N   0  0  0  0  0  0  0  0  0  0  0  0
    4.1562    2.2123   -0.5205 C   0  0  0  0  0  0  0  0  0  0  0  0
    3.9276    1.3223    0.5478 N   0  0  0  0  0  0  0  0  0  0  0  0
    5.0488    0.8776    1.3593 C   0  0  0  0  0  0  0  0  0  0  0  0
    5.6244   -0.4398    0.8856 C   0  0  0  0  0  0  0  0  0  0  0  0
    5.1276   -1.6540    1.3780 C   0  0  0  0  0  0  0  0  0  0  0  0
    5.6576   -2.8706    0.9405 C   0  0  0  0  0  0  0  0  0  0  0  0
    6.6967   -2.8961    0.0048 C   0  0  0  0  0  0  0  0  0  0  0  0
    7.2512   -4.1996   -0.4878 C   0  0  0  0  0  0  0  0  0  0  0  0
    7.1772   -1.6867   -0.5084 C   0  0  0  0  0  0  0  0  0  0  0  0
    6.6477   -0.4702   -0.0700 C   0  0  0  0  0  0  0  0  0  0  0  0
    2.6456    0.9027    0.8661 C   0  0  0  0  0  0  0  0  0  0  0  0
    2.3792    0.2350    1.8616 O   0  0  0  0  0  0  0  0  0  0  0  0
   -0.1460   -0.2449    0.9295 C   0  0  0  0  0  0  0  0  0  0  0  0
   -1.4250   -0.9385    0.4672 C   0  0  0  0  0  0  0  0  0  0  0  0
  -10.0847   -0.9426    0.5842 H   0  0  0  0  0  0  0  0  0  0  0  0
   -9.6628   -0.6610    2.2746 H   0  0  0  0  0  0  0  0  0  0  0  0
   -9.4886    0.6510    1.0952 H   0  0  0  0  0  0  0  0  0  0  0  0
   -7.3107   -0.4619    1.7724 H   0  0  0  0  0  0  0  0  0  0  0  0
   -7.8875   -1.9677    1.0833 H   0  0  0  0  0  0  0  0  0  0  0  0
   -7.4781    0.6448   -0.4790 H   0  0  0  0  0  0  0  0  0  0  0  0
   -7.7445   -0.7968   -2.5109 H   0  0  0  0  0  0  0  0  0  0  0  0
   -8.1809   -2.1662   -1.4844 H   0  0  0  0  0  0  0  0  0  0  0  0
   -9.2311   -0.7373   -1.5598 H   0  0  0  0  0  0  0  0  0  0  0  0
   -5.7918   -1.7969   -0.5652 H   0  0  0  0  0  0  0  0  0  0  0  0
   -3.7056   -1.1609   -0.9673 H   0  0  0  0  0  0  0  0  0  0  0  0
   -2.7968    0.4668    1.3425 H   0  0  0  0  0  0  0  0  0  0  0  0
   -2.9903    1.9322   -0.6581 H   0  0  0  0  0  0  0  0  0  0  0  0
   -2.0334    0.8012   -1.6057 H   0  0  0  0  0  0  0  0  0  0  0  0
   -1.0925    2.3704    0.8561 H   0  0  0  0  0  0  0  0  0  0  0  0
   -0.6510    2.6484   -0.8259 H   0  0  0  0  0  0  0  0  0  0  0  0
    2.4538    3.8876   -2.9139 H   0  0  0  0  0  0  0  0  0  0  0  0
    4.7729    4.6897   -3.3770 H   0  0  0  0  0  0  0  0  0  0  0  0
    6.6286    3.8310   -1.9398 H   0  0  0  0  0  0  0  0  0  0  0  0
    5.8329    1.6433    1.4081 H   0  0  0  0  0  0  0  0  0  0  0  0
    4.7134    0.7603    2.3984 H   0  0  0  0  0  0  0  0  0  0  0  0
    4.3193   -1.6589    2.1071 H   0  0  0  0  0  0  0  0  0  0  0  0
    5.2514   -3.7975    1.3377 H   0  0  0  0  0  0  0  0  0  0  0  0
    8.3316   -4.1225   -0.6518 H   0  0  0  0  0  0  0  0  0  0  0  0
    6.7669   -4.4829   -1.4277 H   0  0  0  0  0  0  0  0  0  0  0  0
    7.0901   -4.9981    0.2442 H   0  0  0  0  0  0  0  0  0  0  0  0
    7.9684   -1.6825   -1.2543 H   0  0  0  0  0  0  0  0  0  0  0  0
    7.0374    0.4580   -0.4821 H   0  0  0  0  0  0  0  0  0  0  0  0
    0.6452   -1.0007    0.8838 H   0  0  0  0  0  0  0  0  0  0  0  0
   -0.2501    0.0923    1.9674 H   0  0  0  0  0  0  0  0  0  0  0  0
   -1.6826   -1.7409    1.1692 H   0  0  0  0  0  0  0  0  0  0  0  0
   -1.2488   -1.4201   -0.5043 H   0  0  0  0  0  0  0  0  0  0  0  0
  1  2  1  0
  2  3  1  0
  3  4  1  0
  3  5  1  0
  5  6  1  0
  6  7  2  0
  6  8  1  0
  8  9  1  0
  9 10  1  0
 10 11  1  0
 11 12  1  0
 12 13  1  0
 13 14  2  0
 14 15  1  0
 15 16  2  0
 16 17  1  0
 17 18  2  0
 18 19  1  0
 19 20  2  0
 20 21  1  0
 21 22  1  0
 22 23  1  0
 23 24  2  0
 24 25  1  0
 25 26  2  0
 26 27  1  0
 26 28  1  0
 28 29  2  0
 21 30  1  0
 30 31  2  0
 12 32  1  0
 32 33  1  0
 33  9  1  0
 30 13  1  0
 20 15  1  0
 29 23  1  0
  1 34  1  0
  1 35  1  0
  1 36  1  0
  2 37  1  0
  2 38  1  0
  3 39  1  0
  4 40  1  0
  4 41  1  0
  4 42  1  0
  5 43  1  0
  8 44  1  0
  9 45  1  0
 10 46  1  0
 10 47  1  0
 11 48  1  0
 11 49  1  0
 16 50  1  0
 17 51  1  0
 18 52  1  0
 22 53  1  0
 22 54  1  0
 24 55  1  0
 25 56  1  0
 27 57  1  0
 27 58  1  0
 27 59  1  0
 28 60  1  0
 29 61  1  0
 32 62  1  0
 32 63  1  0
 33 64  1  0
 33 65  1  0
M  END
$$$$
