
     RDKit          3D

 49 53  0  0  0  0  0  0  0  0999 V2000
   -1.6889   -2.2953    0.3986 C   0  0  0  0  0  0  0  0  0  0  0  0
   -2.4901   -1.1859   -0.1350 N   0  0  0  0  0  0  0  0  0  0  0  0
   -3.5795   -0.7845    0.6708 C   0  0  0  0  0  0  0  0  0  0  0  0
   -4.0937   -1.5792    1.7143 C   0  0  0  0  0  0  0  0  0  0  0  0
   -5.1700   -1.1593    2.5100 C   0  0  0  0  0  0  0  0  0  0  0  0
   -5.7751    0.0670    2.2703 C   0  0  0  0  0  0  0  0  0  0  0  0
   -7.0932    0.5793    3.2471 Cl  0  0  0  0  0  0  0  0  0  0  0  0
   -5.3239    0.8676    1.2334 C   0  0  0  0  0  0  0  0  0  0  0  0
   -4.2462    0.4323    0.4460 C   0  0  0  0  0  0  0  0  0  0  0  0
   -3.8335    1.2613   -0.6905 C   0  0  0  0  0  0  0  0  0  0  0  0
   -4.3907    2.3132   -0.9785 O   0  0  0  0  0  0  0  0  0  0  0  0
   -2.8104    0.7776   -1.4421 N   0  0  0  0  0  0  0  0  0  0  0  0
   -1.7992   -0.1377   -0.9361 C   0  0  0  0  0  0  0  0  0  0  0  0
   -0.7963    0.6521   -0.0572 C   0  0  0  0  0  0  0  0  0  0  0  0
    0.6471    0.2122   -0.2696 C   0  0  0  0  0  0  0  0  0  0  0  0
    1.0492    0.2937   -1.6748 N   0  0  0  0  0  0  0  0  0  0  0  0
    2.3033    0.7251   -2.1113 C   0  0  0  0  0  0  0  0  0  0  0  0
    2.5296    1.0669   -3.2693 O   0  0  0  0  0  0  0  0  0  0  0  0
    3.4253    0.7731   -1.1476 C   0  0  0  0  0  0  0  0  0  0  0  0
    4.1687    1.9673   -1.0388 C   0  0  0  0  0  0  0  0  0  0  0  0
    5.2493    2.0470   -0.1556 C   0  0  0  0  0  0  0  0  0  0  0  0
    5.5582    0.9219    0.5795 C   0  0  0  0  0  0  0  0  0  0  0  0
    4.8432   -0.2481    0.4559 C   0  0  0  0  0  0  0  0  0  0  0  0
    3.7743   -0.3627   -0.4058 C   0  0  0  0  0  0  0  0  0  0  0  0
    5.3213   -1.2353    1.2604 O   0  0  0  0  0  0  0  0  0  0  0  0
    6.4239   -0.5565    1.8993 C   0  0  0  0  0  0  0  0  0  0  0  0
    6.5738    0.8150    1.4771 O   0  0  0  0  0  0  0  0  0  0  0  0
    0.0089    0.1317   -2.6849 C   0  0  0  0  0  0  0  0  0  0  0  0
   -1.1270   -0.7526   -2.1898 C   0  0  0  0  0  0  0  0  0  0  0  0
   -1.3377   -2.0772    1.4145 H   0  0  0  0  0  0  0  0  0  0  0  0
   -2.2700   -3.2244    0.4020 H   0  0  0  0  0  0  0  0  0  0  0  0
   -0.7977   -2.5114   -0.1924 H   0  0  0  0  0  0  0  0  0  0  0  0
   -3.6765   -2.5554    1.9434 H   0  0  0  0  0  0  0  0  0  0  0  0
   -5.5298   -1.8033    3.3091 H   0  0  0  0  0  0  0  0  0  0  0  0
   -5.8080    1.8173    1.0194 H   0  0  0  0  0  0  0  0  0  0  0  0
   -2.5410    1.4300   -2.1660 H   0  0  0  0  0  0  0  0  0  0  0  0
   -0.8514    1.7226   -0.3023 H   0  0  0  0  0  0  0  0  0  0  0  0
   -1.0459    0.5760    1.0078 H   0  0  0  0  0  0  0  0  0  0  0  0
    1.3002    0.8386    0.3459 H   0  0  0  0  0  0  0  0  0  0  0  0
    0.7880   -0.8248    0.0501 H   0  0  0  0  0  0  0  0  0  0  0  0
    3.9016    2.8286   -1.6488 H   0  0  0  0  0  0  0  0  0  0  0  0
    5.8305    2.9573   -0.0573 H   0  0  0  0  0  0  0  0  0  0  0  0
    3.2413   -1.2998   -0.5109 H   0  0  0  0  0  0  0  0  0  0  0  0
    7.3496   -1.0978    1.6711 H   0  0  0  0  0  0  0  0  0  0  0  0
    6.2635   -0.5733    2.9835 H   0  0  0  0  0  0  0  0  0  0  0  0
   -0.3534    1.1315   -2.9523 H   0  0  0  0  0  0  0  0  0  0  0  0
    0.4513   -0.3030   -3.5889 H   0  0  0  0  0  0  0  0  0  0  0  0
   -1.8621   -0.8926   -2.9936 H   0  0  0  0  0  0  0  0  0  0  0  0
   -0.7108   -1.7464   -2.0049 H   0  0  0  0  0  0  0  0  0  0  0  0
  1  2  1  0
  2  3  1  0
  3  4  2  0
  4  5  1  0
  5  6  2  0
  6  7  1  0
  6  8  1  0
  8  9  2  0
  9 10  1  0
 10 11  2  0
 10 12  1  0
 12 13  1  0
 13 14  1  0
 14 15  1  0
 15 16  1  0
 16 17  1  0
 17 18  2  0
 17 19  1  0
 19 20  2  0
 20 21  1  0
 21 22  2  0
 22 23  1  0
 23 24  2  0
 23 25  1  0
 25 26  1  0
 26 27  1  0
 16 28  1  0
 28 29  1  0
 13  2  1  0
 24 19  1  0
  9  3  1  0
 29 13  1  0
 27 22  1  0
  1 30  1  0
  1 31  1  0
  1 32  1  0
  4 33  1  0
  5 34  1  0
  8 35  1  0
 12 36  1  0
 14 37  1  0
 14 38  1  0
 15 39  1  0
 15 40  1  0
 20 41  1  0
 21 42  1  0
 24 43  1  0
 26 44  1  0
 26 45  1  0
 28 46  1  0
 28 47  1  0
 29 48  1  0
 29 49  1  0
M  END
$$$$
