
     RDKit          3D

 53 57  0  0  0  0  0  0  0  0999 V2000
   -1.5018   -2.4618    0.4977 O   0  0  0  0  0  0  0  0  0  0  0  0
   -1.7170   -1.6855   -0.4388 C   0  0  0  0  0  0  0  0  0  0  0  0
   -0.7384   -1.7100   -1.6206 C   0  0  0  0  0  0  0  0  0  0  0  0
    0.0079   -0.4647   -1.7978 N   0  0  0  0  0  0  0  0  0  0  0  0
    0.6251    0.0439   -0.6696 N   0  0  0  0  0  0  0  0  0  0  0  0
    1.3710    1.0930   -0.8200 C   0  0  0  0  0  0  0  0  0  0  0  0
    2.0369    1.6989    0.3876 C   0  0  0  0  0  0  0  0  0  0  0  0
    1.4584    2.6485    0.9122 O   0  0  0  0  0  0  0  0  0  0  0  0
    3.2678    1.2209    0.7974 N   0  0  0  0  0  0  0  0  0  0  0  0
    3.9222    1.8432    1.9534 C   0  0  0  0  0  0  0  0  0  0  0  0
    5.3180    1.2326    2.0839 C   0  0  0  0  0  0  0  0  0  0  0  0
    5.2944    0.1795    1.0238 C   0  0  0  0  0  0  0  0  0  0  0  0
    6.3126   -0.7196    0.7337 C   0  0  0  0  0  0  0  0  0  0  0  0
    6.1100   -1.6375   -0.2943 C   0  0  0  0  0  0  0  0  0  0  0  0
    4.9068   -1.6385   -1.0103 C   0  0  0  0  0  0  0  0  0  0  0  0
    3.8902   -0.7212   -0.7128 C   0  0  0  0  0  0  0  0  0  0  0  0
    4.0927    0.1944    0.3055 C   0  0  0  0  0  0  0  0  0  0  0  0
    1.6028    1.7960   -2.0942 C   0  0  0  0  0  0  0  0  0  0  0  0
    1.0183    1.2736   -3.1729 C   0  0  0  0  0  0  0  0  0  0  0  0
    0.1840    0.0558   -3.0739 C   0  0  0  0  0  0  0  0  0  0  0  0
   -0.3038   -0.4145   -4.0978 O   0  0  0  0  0  0  0  0  0  0  0  0
   -2.8368   -0.8273   -0.5253 N   0  0  0  0  0  0  0  0  0  0  0  0
   -3.3049   -0.3792   -1.8425 C   0  0  0  0  0  0  0  0  0  0  0  0
   -4.3447    0.7251   -1.8066 C   0  0  0  0  0  0  0  0  0  0  0  0
   -5.5172    0.2723   -0.9623 C   0  0  0  0  0  0  0  0  0  0  0  0
   -5.0222   -0.1055    0.4057 C   0  0  0  0  0  0  0  0  0  0  0  0
   -5.8998    0.0464    1.4947 C   0  0  0  0  0  0  0  0  0  0  0  0
   -5.4919   -0.2687    2.7869 C   0  0  0  0  0  0  0  0  0  0  0  0
   -4.2008   -0.7276    3.0001 C   0  0  0  0  0  0  0  0  0  0  0  0
   -3.3281   -0.8977    1.9193 C   0  0  0  0  0  0  0  0  0  0  0  0
   -3.7238   -0.6264    0.5994 C   0  0  0  0  0  0  0  0  0  0  0  0
    0.0068   -2.4938   -1.4353 H   0  0  0  0  0  0  0  0  0  0  0  0
   -1.2695   -1.9995   -2.5332 H   0  0  0  0  0  0  0  0  0  0  0  0
    3.3125    1.6445    2.8445 H   0  0  0  0  0  0  0  0  0  0  0  0
    3.9669    2.9296    1.8138 H   0  0  0  0  0  0  0  0  0  0  0  0
    6.0947    1.9744    1.8831 H   0  0  0  0  0  0  0  0  0  0  0  0
    5.4731    0.8053    3.0796 H   0  0  0  0  0  0  0  0  0  0  0  0
    7.2462   -0.7117    1.2885 H   0  0  0  0  0  0  0  0  0  0  0  0
    6.8869   -2.3571   -0.5390 H   0  0  0  0  0  0  0  0  0  0  0  0
    4.7592   -2.3617   -1.8077 H   0  0  0  0  0  0  0  0  0  0  0  0
    2.9746   -0.7879   -1.2817 H   0  0  0  0  0  0  0  0  0  0  0  0
    2.2101    2.6894   -2.1140 H   0  0  0  0  0  0  0  0  0  0  0  0
    1.1226    1.7099   -4.1584 H   0  0  0  0  0  0  0  0  0  0  0  0
   -3.6987   -1.2621   -2.3591 H   0  0  0  0  0  0  0  0  0  0  0  0
   -2.4636   -0.0144   -2.4304 H   0  0  0  0  0  0  0  0  0  0  0  0
   -3.9030    1.6384   -1.3848 H   0  0  0  0  0  0  0  0  0  0  0  0
   -4.6809    0.9652   -2.8224 H   0  0  0  0  0  0  0  0  0  0  0  0
   -6.0172   -0.5897   -1.4190 H   0  0  0  0  0  0  0  0  0  0  0  0
   -6.2436    1.0896   -0.8978 H   0  0  0  0  0  0  0  0  0  0  0  0
   -6.9088    0.4230    1.3370 H   0  0  0  0  0  0  0  0  0  0  0  0
   -6.1757   -0.1471    3.6240 H   0  0  0  0  0  0  0  0  0  0  0  0
   -3.8589   -0.9514    4.0066 H   0  0  0  0  0  0  0  0  0  0  0  0
   -2.3216   -1.2309    2.1528 H   0  0  0  0  0  0  0  0  0  0  0  0
  1  2  2  0
  2  3  1  0
  3  4  1  0
  4  5  1  0
  5  6  2  0
  6  7  1  0
  7  8  2  0
  7  9  1  0
  9 10  1  0
 10 11  1  0
 11 12  1  0
 12 13  2  0
 13 14  1  0
 14 15  2  0
 15 16  1  0
 16 17  2  0
  6 18  1  0
 18 19  2  0
 19 20  1  0
 20 21  2  0
  2 22  1  0
 22 23  1  0
 23 24  1  0
 24 25  1  0
 25 26  1  0
 26 27  2  0
 27 28  1  0
 28 29  2  0
 29 30  1  0
 30 31  2  0
 20  4  1  0
 31 22  1  0
 17  9  1  0
 31 26  1  0
 17 12  1  0
  3 32  1  0
  3 33  1  0
 10 34  1  0
 10 35  1  0
 11 36  1  0
 11 37  1  0
 13 38  1  0
 14 39  1  0
 15 40  1  0
 16 41  1  0
 18 42  1  0
 19 43  1  0
 23 44  1  0
 23 45  1  0
 24 46  1  0
 24 47  1  0
 25 48  1  0
 25 49  1  0
 27 50  1  0
 28 51  1  0
 29 52  1  0
 30 53  1  0
M  END
$$$$
