
     RDKit          3D

 20 21  0  0  0  0  0  0  0  0999 V2000
   -4.1419    0.2907   -0.4107 C   0  0  0  0  0  0  0  0  0  0  0  0
   -2.6912    0.3128   -0.0730 C   0  0  0  0  0  0  0  0  0  0  0  0
   -2.0607    0.9596    0.9702 C   0  0  0  0  0  0  0  0  0  0  0  0
   -0.6515    0.7427    0.9641 C   0  0  0  0  0  0  0  0  0  0  0  0
   -0.2557   -0.0610   -0.0824 C   0  0  0  0  0  0  0  0  0  0  0  0
    1.2418   -0.4627   -0.3299 C   0  0  0  0  0  0  0  0  0  0  0  0
    1.6626   -1.2667   -1.3681 C   0  0  0  0  0  0  0  0  0  0  0  0
    3.3630   -1.4643   -1.2900 S   0  0  0  0  0  0  0  0  0  0  0  0
    3.4023   -0.4786    0.1151 C   0  0  0  0  0  0  0  0  0  0  0  0
    4.5580   -0.2010    0.7419 N   0  0  0  0  0  0  0  0  0  0  0  0
    2.2457   -0.0104    0.5100 N   0  0  0  0  0  0  0  0  0  0  0  0
   -1.5746   -0.5474   -1.0458 S   0  0  0  0  0  0  0  0  0  0  0  0
   -4.7189    0.8867    0.3041 H   0  0  0  0  0  0  0  0  0  0  0  0
   -4.5313   -0.7324   -0.3846 H   0  0  0  0  0  0  0  0  0  0  0  0
   -4.3149    0.7058   -1.4091 H   0  0  0  0  0  0  0  0  0  0  0  0
   -2.5812    1.5605    1.7063 H   0  0  0  0  0  0  0  0  0  0  0  0
    0.0388    1.1541    1.6913 H   0  0  0  0  0  0  0  0  0  0  0  0
    1.0798   -1.7360   -2.1467 H   0  0  0  0  0  0  0  0  0  0  0  0
    4.5236    0.6036    1.3580 H   0  0  0  0  0  0  0  0  0  0  0  0
    5.4063   -0.2563    0.1919 H   0  0  0  0  0  0  0  0  0  0  0  0
  1  2  1  0
  2  3  2  0
  3  4  1  0
  4  5  2  0
  5  6  1  0
  6  7  2  0
  7  8  1  0
  8  9  1  0
  9 10  1  0
  9 11  2  0
  5 12  1  0
 12  2  1  0
 11  6  1  0
  1 13  1  0
  1 14  1  0
  1 15  1  0
  3 16  1  0
  4 17  1  0
  7 18  1  0
 10 19  1  0
 10 20  1  0
M  END
$$$$
