
     RDKit          3D

108112  0  0  0  0  0  0  0  0999 V2000
    8.5993    6.5071    0.2796 C   0  0  0  0  0  0  0  0  0  0  0  0
    7.7917    6.0172    1.3304 O   0  0  0  0  0  0  0  0  0  0  0  0
    7.4058    4.6778    1.3880 C   0  0  0  0  0  0  0  0  0  0  0  0
    6.6029    4.2176    2.4341 C   0  0  0  0  0  0  0  0  0  0  0  0
    6.1911    2.9099    2.5417 C   0  0  0  0  0  0  0  0  0  0  0  0
    6.5703    1.9841    1.5904 C   0  0  0  0  0  0  0  0  0  0  0  0
    6.1802    0.6640    1.6427 C   0  0  0  0  0  0  0  0  0  0  0  0
    6.5553   -0.2414    0.6923 C   0  0  0  0  0  0  0  0  0  0  0  0
    6.0232   -1.9298    0.7815 S   0  0  0  0  0  6  0  0  0  0  0  0
    5.8813   -2.2553    2.2416 O   0  0  0  0  0  0  0  0  0  0  0  0
    7.0388   -2.8327    0.1970 O   0  0  0  0  0  0  0  0  0  0  0  0
    4.4599   -2.1004    0.0758 N   0  0  0  0  0  0  0  0  0  0  0  0
    4.4628   -1.7254   -1.3326 C   0  0  2  0  0  0  0  0  0  0  0  0
    3.5927   -0.4657   -1.4017 C   0  0  0  0  0  0  0  0  0  0  0  0
    2.2048   -0.7908   -0.9032 C   0  0  0  0  0  0  0  0  0  0  0  0
    1.8256   -2.0022   -0.8545 O   0  0  0  0  0  0  0  0  0  0  0  0
    1.3289    0.2252   -0.4855 N   0  0  0  0  0  0  0  0  0  0  0  0
   -0.0170   -0.1423   -0.0037 C   0  0  2  0  0  0  0  0  0  0  0  0
   -0.9394    0.9236   -0.4964 C   0  0  0  0  0  0  0  0  0  0  0  0
   -2.3574    0.7698   -0.1160 C   0  0  0  0  0  0  0  0  0  0  0  0
   -2.8679    1.2809    1.0776 C   0  0  0  0  0  0  0  0  0  0  0  0
   -4.1853    1.1605    1.4346 C   0  0  0  0  0  0  0  0  0  0  0  0
   -5.0793    0.5161    0.6105 C   0  0  0  0  0  0  0  0  0  0  0  0
   -6.5204    0.3273    0.9389 C   0  0  0  0  0  0  0  0  0  0  0  0
   -7.3432    0.9657    0.0157 N   0  0  0  0  0  0  0  0  0  0  0  0
   -7.3954    2.3532   -0.1325 C   0  0  1  0  0  0  0  0  0  0  0  0
   -6.4244    3.2071    0.5950 C   0  0  0  0  0  0  0  0  0  0  0  0
   -7.3787    2.6506   -1.6494 C   0  0  0  0  0  0  0  0  0  0  0  0
   -8.7009    2.1153   -2.1604 C   0  0  0  0  0  0  0  0  0  0  0  0
   -8.9588    0.7084   -1.7475 C   0  0  0  0  0  0  0  0  0  0  0  0
   -8.5809    0.3558   -0.3407 C   0  0  1  0  0  0  0  0  0  0  0  0
   -8.3757   -1.1680   -0.3164 C   0  0  0  0  0  0  0  0  0  0  0  0
   -4.6028   -0.0002   -0.5790 C   0  0  0  0  0  0  0  0  0  0  0  0
   -3.2760    0.1311   -0.9182 C   0  0  0  0  0  0  0  0  0  0  0  0
    0.1000   -0.0116    1.4942 C   0  0  0  0  0  0  0  0  0  0  0  0
    0.8972    0.8549    1.9786 O   0  0  0  0  0  0  0  0  0  0  0  0
   -0.6265   -0.8031    2.3973 N   0  0  0  0  0  0  0  0  0  0  0  0
   -0.4373   -0.5903    3.8311 C   0  0  0  0  0  0  0  0  0  0  0  0
   -1.5513   -1.8085    1.9709 C   0  0  0  0  0  0  0  0  0  0  0  0
   -0.9972   -3.2160    2.3190 C   0  0  0  0  0  0  0  0  0  0  0  0
   -2.8582   -1.6746    2.7109 C   0  0  0  0  0  0  0  0  0  0  0  0
    3.9250   -2.7394   -2.2339 C   0  0  0  0  0  0  0  0  0  0  0  0
    3.2691   -2.4375   -3.3993 C   0  0  0  0  0  0  0  0  0  0  0  0
    2.7856   -3.4433   -4.1943 C   0  0  0  0  0  0  0  0  0  0  0  0
    2.9324   -4.7818   -3.8668 C   0  0  0  0  0  0  0  0  0  0  0  0
    3.5869   -5.1088   -2.7004 C   0  0  0  0  0  0  0  0  0  0  0  0
    4.0645   -4.0873   -1.9167 C   0  0  0  0  0  0  0  0  0  0  0  0
    3.5857   -6.4927   -2.6290 O   0  0  0  0  0  0  0  0  0  0  0  0
    3.1059   -7.0810   -3.8199 C   0  0  0  0  0  0  0  0  0  0  0  0
    2.5334   -5.9678   -4.5054 O   0  0  0  0  0  0  0  0  0  0  0  0
    7.3509    0.1700   -0.3552 C   0  0  0  0  0  0  0  0  0  0  0  0
    7.7419    1.4899   -0.4102 C   0  0  0  0  0  0  0  0  0  0  0  0
    7.3726    2.4204    0.5392 C   0  0  0  0  0  0  0  0  0  0  0  0
    7.7806    3.7430    0.4427 C   0  0  0  0  0  0  0  0  0  0  0  0
    0.6913    0.0000    0.0000 Cl  0  0  0  0  0  0  0  0  0  0  0  0
    8.0496    6.3119   -0.6763 H   0  0  0  0  0  0  0  0  0  0  0  0
    8.7925    7.5697    0.4352 H   0  0  0  0  0  0  0  0  0  0  0  0
    9.5487    5.9294    0.3004 H   0  0  0  0  0  0  0  0  0  0  0  0
    6.3041    4.9246    3.1707 H   0  0  0  0  0  0  0  0  0  0  0  0
    5.5723    2.6022    3.3701 H   0  0  0  0  0  0  0  0  0  0  0  0
    5.5593    0.3071    2.4569 H   0  0  0  0  0  0  0  0  0  0  0  0
    3.8039   -1.5224    0.6407 H   0  0  0  0  0  0  0  0  0  0  0  0
    5.4946   -1.4351   -1.6011 H   0  0  0  0  0  0  0  0  0  0  0  0
    4.0016    0.2301   -0.6373 H   0  0  0  0  0  0  0  0  0  0  0  0
    3.5601   -0.0186   -2.3846 H   0  0  0  0  0  0  0  0  0  0  0  0
    1.5978    1.2202   -0.5038 H   0  0  0  0  0  0  0  0  0  0  0  0
   -0.2417   -1.1633   -0.2833 H   0  0  0  0  0  0  0  0  0  0  0  0
   -0.8688    0.9370   -1.6256 H   0  0  0  0  0  0  0  0  0  0  0  0
   -0.5358    1.9370   -0.2108 H   0  0  0  0  0  0  0  0  0  0  0  0
   -2.1393    1.7892    1.7169 H   0  0  0  0  0  0  0  0  0  0  0  0
   -4.5673    1.5571    2.3641 H   0  0  0  0  0  0  0  0  0  0  0  0
   -6.6216    0.7127    2.0002 H   0  0  0  0  0  0  0  0  0  0  0  0
   -6.6899   -0.7693    1.0482 H   0  0  0  0  0  0  0  0  0  0  0  0
   -8.4304    2.7245    0.1666 H   0  0  0  0  0  0  0  0  0  0  0  0
   -5.4488    3.3136    0.1118 H   0  0  0  0  0  0  0  0  0  0  0  0
   -6.8875    4.2525    0.6300 H   0  0  0  0  0  0  0  0  0  0  0  0
   -6.4117    2.9019    1.6560 H   0  0  0  0  0  0  0  0  0  0  0  0
   -7.3103    3.7171   -1.8611 H   0  0  0  0  0  0  0  0  0  0  0  0
   -6.5535    2.0343   -2.0582 H   0  0  0  0  0  0  0  0  0  0  0  0
   -8.6455    2.1503   -3.2727 H   0  0  0  0  0  0  0  0  0  0  0  0
   -9.5078    2.8185   -1.8642 H   0  0  0  0  0  0  0  0  0  0  0  0
   -8.5146   -0.0378   -2.4614 H   0  0  0  0  0  0  0  0  0  0  0  0
  -10.0747    0.5347   -1.8159 H   0  0  0  0  0  0  0  0  0  0  0  0
   -9.3847    0.5656    0.4068 H   0  0  0  0  0  0  0  0  0  0  0  0
   -8.5091   -1.5943    0.6867 H   0  0  0  0  0  0  0  0  0  0  0  0
   -9.1617   -1.6097   -0.9800 H   0  0  0  0  0  0  0  0  0  0  0  0
   -7.4096   -1.4169   -0.7777 H   0  0  0  0  0  0  0  0  0  0  0  0
   -5.2565   -0.5130   -1.2663 H   0  0  0  0  0  0  0  0  0  0  0  0
   -2.9207   -0.2936   -1.8703 H   0  0  0  0  0  0  0  0  0  0  0  0
    0.4705    0.0141    4.0495 H   0  0  0  0  0  0  0  0  0  0  0  0
   -0.4534   -1.5675    4.3741 H   0  0  0  0  0  0  0  0  0  0  0  0
   -1.2891    0.0390    4.1835 H   0  0  0  0  0  0  0  0  0  0  0  0
   -1.6595   -1.8476    0.8675 H   0  0  0  0  0  0  0  0  0  0  0  0
    0.0209   -3.3354    1.9306 H   0  0  0  0  0  0  0  0  0  0  0  0
   -1.1281   -3.4326    3.3781 H   0  0  0  0  0  0  0  0  0  0  0  0
   -1.6479   -3.9223    1.7415 H   0  0  0  0  0  0  0  0  0  0  0  0
   -2.9274   -0.6978    3.2424 H   0  0  0  0  0  0  0  0  0  0  0  0
   -3.7196   -1.8186    2.0263 H   0  0  0  0  0  0  0  0  0  0  0  0
   -2.9154   -2.4708    3.4695 H   0  0  0  0  0  0  0  0  0  0  0  0
    3.1160   -1.4331   -3.7250 H   0  0  0  0  0  0  0  0  0  0  0  0
    2.2656   -3.2150   -5.1197 H   0  0  0  0  0  0  0  0  0  0  0  0
    4.5758   -4.3899   -0.9930 H   0  0  0  0  0  0  0  0  0  0  0  0
    4.0264   -7.4442   -4.3651 H   0  0  0  0  0  0  0  0  0  0  0  0
    2.3744   -7.8889   -3.6637 H   0  0  0  0  0  0  0  0  0  0  0  0
    7.6437   -0.5443   -1.0948 H   0  0  0  0  0  0  0  0  0  0  0  0
    8.3694    1.7688   -1.2519 H   0  0  0  0  0  0  0  0  0  0  0  0
    8.4119    4.0700   -0.3922 H   0  0  0  0  0  0  0  0  0  0  0  0
   -0.6913    0.0000    0.0000 H   0  0  0  0  0  0  0  0  0  0  0  0
  1  2  1  0
  2  3  1  0
  3  4  2  0
  4  5  1  0
  5  6  2  0
  6  7  1  0
  7  8  2  0
  8  9  1  0
  9 10  2  0
  9 11  2  0
  9 12  1  0
 12 13  1  0
 13 14  1  0
 14 15  1  0
 15 16  2  0
 15 17  1  0
 17 18  1  0
 18 19  1  0
 19 20  1  0
 20 21  2  0
 21 22  1  0
 22 23  2  0
 23 24  1  0
 24 25  1  0
 25 26  1  0
 26 27  1  0
 26 28  1  0
 28 29  1  0
 29 30  1  0
 30 31  1  0
 31 32  1  0
 23 33  1  0
 33 34  2  0
 18 35  1  0
 35 36  2  0
 35 37  1  0
 37 38  1  0
 37 39  1  0
 39 40  1  0
 39 41  1  0
 13 42  1  0
 42 43  2  0
 43 44  1  0
 44 45  2  0
 45 46  1  0
 46 47  2  0
 46 48  1  0
 48 49  1  0
 49 50  1  0
  8 51  1  0
 51 52  2  0
 52 53  1  0
 53 54  2  0
 54  3  1  0
 53  6  1  0
 34 20  1  0
 47 42  1  0
 31 25  1  0
 50 45  1  0
  1 56  1  0
  1 57  1  0
  1 58  1  0
  4 59  1  0
  5 60  1  0
  7 61  1  0
 12 62  1  0
 13 63  1  6
 14 64  1  0
 14 65  1  0
 17 66  1  0
 18 67  1  1
 19 68  1  0
 19 69  1  0
 21 70  1  0
 22 71  1  0
 24 72  1  0
 24 73  1  0
 26 74  1  1
 27 75  1  0
 27 76  1  0
 27 77  1  0
 28 78  1  0
 28 79  1  0
 29 80  1  0
 29 81  1  0
 30 82  1  0
 30 83  1  0
 31 84  1  1
 32 85  1  0
 32 86  1  0
 32 87  1  0
 33 88  1  0
 34 89  1  0
 38 90  1  0
 38 91  1  0
 38 92  1  0
 39 93  1  0
 40 94  1  0
 40 95  1  0
 40 96  1  0
 41 97  1  0
 41 98  1  0
 41 99  1  0
 43100  1  0
 44101  1  0
 47102  1  0
 49103  1  0
 49104  1  0
 51105  1  0
 52106  1  0
 54107  1  0
 55108  1  0
M  END
$$$$
