
     RDKit          3D

 38 39  0  0  0  0  0  0  0  0999 V2000
   -5.1100    0.6582   -0.6934 C   0  0  0  0  0  0  0  0  0  0  0  0
   -4.3563   -0.3664   -0.0564 O   0  0  0  0  0  0  0  0  0  0  0  0
   -2.9969   -0.3612   -0.1986 C   0  0  0  0  0  0  0  0  0  0  0  0
   -2.3017    0.6392   -0.8727 C   0  0  0  0  0  0  0  0  0  0  0  0
   -0.9134    0.5876   -0.9788 C   0  0  0  0  0  0  0  0  0  0  0  0
   -0.1646   -0.4637   -0.4172 C   0  0  0  0  0  0  0  0  0  0  0  0
    1.2533   -0.5287   -0.5152 C   0  0  0  0  0  0  0  0  0  0  0  0
    2.0390    0.5315   -1.2126 C   0  0  0  0  0  0  0  0  0  0  0  0
    2.4570    0.2705   -2.8308 S   0  0  0  0  0  0  0  0  0  0  0  0
    2.3783    1.6793   -0.4639 N   0  0  0  0  0  0  0  0  0  0  0  0
    3.2382    2.7242   -1.0244 C   0  0  0  0  0  0  0  0  0  0  0  0
    2.1931    1.7499    1.0035 C   0  0  0  0  0  0  0  0  0  0  0  0
    3.3560    1.2448    1.8533 C   0  0  0  0  0  0  0  0  0  0  0  0
    3.4023    1.2878    3.0742 O   0  0  0  0  0  0  0  0  0  0  0  0
    4.3801    0.7047    1.1653 O   0  0  0  0  0  0  0  0  0  0  0  0
    1.9837   -1.5817    0.0459 C   0  0  0  0  0  0  0  0  0  0  0  0
    1.3143   -2.5863    0.7218 C   0  0  0  0  0  0  0  0  0  0  0  0
   -0.0774   -2.5383    0.8337 C   0  0  0  0  0  0  0  0  0  0  0  0
   -0.8570   -1.4913    0.2755 C   0  0  0  0  0  0  0  0  0  0  0  0
   -2.2882   -1.4321    0.3828 C   0  0  0  0  0  0  0  0  0  0  0  0
   -3.0235   -2.5330    1.1255 C   0  0  0  0  0  0  0  0  0  0  0  0
   -2.7944   -3.7644    0.5769 F   0  0  0  0  0  0  0  0  0  0  0  0
   -4.3796   -2.4329    1.2000 F   0  0  0  0  0  0  0  0  0  0  0  0
   -2.6102   -2.6362    2.4252 F   0  0  0  0  0  0  0  0  0  0  0  0
   -4.8697    1.6408   -0.2747 H   0  0  0  0  0  0  0  0  0  0  0  0
   -6.1689    0.4636   -0.4979 H   0  0  0  0  0  0  0  0  0  0  0  0
   -4.9631    0.6410   -1.7783 H   0  0  0  0  0  0  0  0  0  0  0  0
   -2.8069    1.4823   -1.3338 H   0  0  0  0  0  0  0  0  0  0  0  0
   -0.4205    1.3942   -1.5203 H   0  0  0  0  0  0  0  0  0  0  0  0
    3.0826    3.6628   -0.4842 H   0  0  0  0  0  0  0  0  0  0  0  0
    4.2833    2.4160   -0.9306 H   0  0  0  0  0  0  0  0  0  0  0  0
    3.0082    2.9074   -2.0765 H   0  0  0  0  0  0  0  0  0  0  0  0
    1.3077    1.1847    1.3017 H   0  0  0  0  0  0  0  0  0  0  0  0
    2.0162    2.7988    1.2654 H   0  0  0  0  0  0  0  0  0  0  0  0
    5.0215    0.4363    1.8557 H   0  0  0  0  0  0  0  0  0  0  0  0
    3.0666   -1.6162   -0.0481 H   0  0  0  0  0  0  0  0  0  0  0  0
    1.8668   -3.4135    1.1614 H   0  0  0  0  0  0  0  0  0  0  0  0
   -0.5459   -3.3594    1.3757 H   0  0  0  0  0  0  0  0  0  0  0  0
  1  2  1  0
  2  3  1  0
  3  4  2  0
  4  5  1  0
  5  6  2  0
  6  7  1  0
  7  8  1  0
  8  9  2  0
  8 10  1  0
 10 11  1  0
 10 12  1  0
 12 13  1  0
 13 14  2  0
 13 15  1  0
  7 16  2  0
 16 17  1  0
 17 18  2  0
 18 19  1  0
 19 20  2  0
 20 21  1  0
 21 22  1  0
 21 23  1  0
 21 24  1  0
 20  3  1  0
 19  6  1  0
  1 25  1  0
  1 26  1  0
  1 27  1  0
  4 28  1  0
  5 29  1  0
 11 30  1  0
 11 31  1  0
 11 32  1  0
 12 33  1  0
 12 34  1  0
 15 35  1  0
 16 36  1  0
 17 37  1  0
 18 38  1  0
M  END
$$$$
