
     RDKit          3D

 43 45  0  0  0  0  0  0  0  0999 V2000
    0.1646    2.7268   -1.0907 O   0  0  0  0  0  0  0  0  0  0  0  0
    0.1061    1.7337   -0.3745 C   0  0  0  0  0  0  0  0  0  0  0  0
   -1.2019    1.1782    0.0849 C   0  0  0  0  0  0  0  0  0  0  0  0
   -2.1878    1.2171   -0.8326 C   0  0  0  0  0  0  0  0  0  0  0  0
   -3.5436    0.7086   -0.6205 C   0  0  0  0  0  0  0  0  0  0  0  0
   -4.6044    1.6085   -0.4668 C   0  0  0  0  0  0  0  0  0  0  0  0
   -5.9053    1.1369   -0.2683 C   0  0  0  0  0  0  0  0  0  0  0  0
   -6.1414   -0.2439   -0.2276 C   0  0  0  0  0  0  0  0  0  0  0  0
   -7.5068   -0.7430   -0.0201 N   0  0  0  0  0  4  0  0  0  0  0  0
   -7.6795   -1.9699   -0.0278 O   0  0  0  0  0  0  0  0  0  0  0  0
   -8.4049    0.0931    0.1530 O   0  0  0  0  0  1  0  0  0  0  0  0
   -5.0860   -1.1514   -0.3851 C   0  0  0  0  0  0  0  0  0  0  0  0
   -3.7887   -0.6707   -0.5837 C   0  0  0  0  0  0  0  0  0  0  0  0
   -1.3187    0.6654    1.4848 C   0  0  0  0  0  0  0  0  0  0  0  0
   -0.0210   -0.5095    1.7823 S   0  0  0  0  0  6  0  0  0  0  0  0
   -0.1011   -1.5669    0.7913 O   0  0  0  0  0  0  0  0  0  0  0  0
   -0.0276   -0.8241    3.1984 O   0  0  0  0  0  0  0  0  0  0  0  0
    1.4142    0.4842    1.4572 C   0  0  0  0  0  0  0  0  0  0  0  0
    1.3383    1.0104    0.0595 C   0  0  0  0  0  0  0  0  0  0  0  0
    2.3029    0.9215   -0.8770 C   0  0  0  0  0  0  0  0  0  0  0  0
    3.5845    0.2399   -0.6906 C   0  0  0  0  0  0  0  0  0  0  0  0
    3.6478   -1.1598   -0.6544 C   0  0  0  0  0  0  0  0  0  0  0  0
    4.8747   -1.8059   -0.4788 C   0  0  0  0  0  0  0  0  0  0  0  0
    6.0427   -1.0439   -0.3448 C   0  0  0  0  0  0  0  0  0  0  0  0
    7.3349   -1.7171   -0.1615 N   0  0  0  0  0  4  0  0  0  0  0  0
    8.3413   -1.0056   -0.0316 O   0  0  0  0  0  0  0  0  0  0  0  0
    7.3422   -2.9560   -0.1451 O   0  0  0  0  0  1  0  0  0  0  0  0
    5.9884    0.3559   -0.3860 C   0  0  0  0  0  0  0  0  0  0  0  0
    4.7568    0.9934   -0.5607 C   0  0  0  0  0  0  0  0  0  0  0  0
   -2.0167    1.6415   -1.8227 H   0  0  0  0  0  0  0  0  0  0  0  0
   -4.4268    2.6822   -0.5028 H   0  0  0  0  0  0  0  0  0  0  0  0
   -6.7165    1.8531   -0.1522 H   0  0  0  0  0  0  0  0  0  0  0  0
   -5.2543   -2.2264   -0.3595 H   0  0  0  0  0  0  0  0  0  0  0  0
   -2.9730   -1.3817   -0.7131 H   0  0  0  0  0  0  0  0  0  0  0  0
   -2.2607    0.1542    1.6957 H   0  0  0  0  0  0  0  0  0  0  0  0
   -1.2041    1.4799    2.2071 H   0  0  0  0  0  0  0  0  0  0  0  0
    1.4230    1.3055    2.1808 H   0  0  0  0  0  0  0  0  0  0  0  0
    2.2845   -0.1471    1.6498 H   0  0  0  0  0  0  0  0  0  0  0  0
    2.1699    1.3666   -1.8639 H   0  0  0  0  0  0  0  0  0  0  0  0
    2.7439   -1.7582   -0.7656 H   0  0  0  0  0  0  0  0  0  0  0  0
    4.9015   -2.8938   -0.4523 H   0  0  0  0  0  0  0  0  0  0  0  0
    6.8884    0.9601   -0.2876 H   0  0  0  0  0  0  0  0  0  0  0  0
    4.7204    2.0811   -0.5970 H   0  0  0  0  0  0  0  0  0  0  0  0
  1  2  2  0
  2  3  1  0
  3  4  2  0
  4  5  1  0
  5  6  2  0
  6  7  1  0
  7  8  2  0
  8  9  1  0
  9 10  2  0
  9 11  1  0
  8 12  1  0
 12 13  2  0
  3 14  1  0
 14 15  1  0
 15 16  2  0
 15 17  2  0
 15 18  1  0
 18 19  1  0
 19 20  2  0
 20 21  1  0
 21 22  2  0
 22 23  1  0
 23 24  2  0
 24 25  1  0
 25 26  2  0
 25 27  1  0
 24 28  1  0
 28 29  2  0
 19  2  1  0
 29 21  1  0
 13  5  1  0
  4 30  1  0
  6 31  1  0
  7 32  1  0
 12 33  1  0
 13 34  1  0
 14 35  1  0
 14 36  1  0
 18 37  1  0
 18 38  1  0
 20 39  1  0
 22 40  1  0
 23 41  1  0
 28 42  1  0
 29 43  1  0
M  CHG  4   9   1  11  -1  25   1  27  -1
M  END
$$$$
