
     RDKit          3D

 26 26  0  0  0  0  0  0  0  0999 V2000
    4.6145   -0.6957   -0.1927 C   0  0  0  0  0  0  0  0  0  0  0  0
    3.8641    0.6070   -0.4043 C   0  0  0  0  0  0  0  0  0  0  0  0
    2.4308    0.4175   -0.3348 N   0  0  0  0  0  0  0  0  0  0  0  0
    1.7108   -0.0116   -1.4203 C   0  0  0  0  0  0  0  0  0  0  0  0
    2.1864   -0.2390   -2.5257 O   0  0  0  0  0  0  0  0  0  0  0  0
    0.2727   -0.2719   -1.1663 C   0  0  0  0  0  0  0  0  0  0  0  0
   -0.4773    0.4516   -0.3202 C   0  0  0  0  0  0  0  0  0  0  0  0
   -1.9102    0.2135   -0.0940 C   0  0  0  0  0  0  0  0  0  0  0  0
   -2.4309    0.4054    1.1936 C   0  0  0  0  0  0  0  0  0  0  0  0
   -3.7916    0.2153    1.4493 C   0  0  0  0  0  0  0  0  0  0  0  0
   -4.6494   -0.1579    0.4166 C   0  0  0  0  0  0  0  0  0  0  0  0
   -4.1416   -0.3333   -0.8685 C   0  0  0  0  0  0  0  0  0  0  0  0
   -5.3070   -0.8241   -2.2749 Br  0  0  0  0  0  0  0  0  0  0  0  0
   -2.7831   -0.1451   -1.1301 C   0  0  0  0  0  0  0  0  0  0  0  0
    4.3643   -1.1371    0.7778 H   0  0  0  0  0  0  0  0  0  0  0  0
    5.6946   -0.5230   -0.2235 H   0  0  0  0  0  0  0  0  0  0  0  0
    4.3627   -1.4285   -0.9663 H   0  0  0  0  0  0  0  0  0  0  0  0
    4.1249    1.0368   -1.3774 H   0  0  0  0  0  0  0  0  0  0  0  0
    4.1335    1.3283    0.3736 H   0  0  0  0  0  0  0  0  0  0  0  0
    1.9991    0.3996    0.5782 H   0  0  0  0  0  0  0  0  0  0  0  0
   -0.1397   -1.0686   -1.7763 H   0  0  0  0  0  0  0  0  0  0  0  0
   -0.0465    1.2735    0.2457 H   0  0  0  0  0  0  0  0  0  0  0  0
   -1.7798    0.6978    2.0150 H   0  0  0  0  0  0  0  0  0  0  0  0
   -4.1814    0.3600    2.4539 H   0  0  0  0  0  0  0  0  0  0  0  0
   -5.7068   -0.3034    0.6211 H   0  0  0  0  0  0  0  0  0  0  0  0
   -2.4130   -0.2670   -2.1451 H   0  0  0  0  0  0  0  0  0  0  0  0
  1  2  1  0
  2  3  1  0
  3  4  1  0
  4  5  2  0
  4  6  1  0
  6  7  2  0
  7  8  1  0
  8  9  2  0
  9 10  1  0
 10 11  2  0
 11 12  1  0
 12 13  1  0
 12 14  2  0
 14  8  1  0
  1 15  1  0
  1 16  1  0
  1 17  1  0
  2 18  1  0
  2 19  1  0
  3 20  1  0
  6 21  1  0
  7 22  1  0
  9 23  1  0
 10 24  1  0
 11 25  1  0
 14 26  1  0
M  END
$$$$
