
     RDKit          3D

 44 46  0  0  0  0  0  0  0  0999 V2000
    3.6319    2.2362    2.0272 C   0  0  0  0  0  0  0  0  0  0  0  0
    3.3269    0.8709    1.4830 C   0  0  0  0  0  0  0  0  0  0  0  0
    4.1971    0.2652    0.5658 C   0  0  0  0  0  0  0  0  0  0  0  0
    3.9355   -1.0179    0.0827 C   0  0  0  0  0  0  0  0  0  0  0  0
    2.7962   -1.6975    0.5207 C   0  0  0  0  0  0  0  0  0  0  0  0
    2.4634   -3.3336   -0.0943 S   0  0  0  0  0  6  0  0  0  0  0  0
    1.5351   -3.9753    0.8120 O   0  0  0  0  0  0  0  0  0  0  0  0
    3.7356   -3.9428   -0.4217 O   0  0  0  0  0  0  0  0  0  0  0  0
    1.6920   -3.0344   -1.5692 N   0  0  0  0  0  0  0  0  0  0  0  0
    0.5556   -2.1808   -1.5930 C   0  0  0  0  0  0  0  0  0  0  0  0
    0.6509   -0.9444   -2.2367 C   0  0  0  0  0  0  0  0  0  0  0  0
   -0.4343   -0.0663   -2.2203 C   0  0  0  0  0  0  0  0  0  0  0  0
   -1.6055   -0.4268   -1.5481 C   0  0  0  0  0  0  0  0  0  0  0  0
   -2.7421    0.5161   -1.5458 C   0  0  0  0  0  0  0  0  0  0  0  0
   -3.2451    0.8178   -2.6239 O   0  0  0  0  0  0  0  0  0  0  0  0
   -3.1572    1.0304   -0.3328 N   0  0  0  0  0  0  0  0  0  0  0  0
   -2.4927    0.8992    0.9570 C   0  0  0  0  0  0  0  0  0  0  0  0
   -3.4112    1.6253    1.9298 C   0  0  0  0  0  0  0  0  0  0  0  0
   -4.0360    2.7099    1.0628 C   0  0  0  0  0  0  0  0  0  0  0  0
   -4.2298    2.0091   -0.2743 C   0  0  0  0  0  0  0  0  0  0  0  0
   -1.7150   -1.6763   -0.9319 C   0  0  0  0  0  0  0  0  0  0  0  0
   -0.6268   -2.5505   -0.9488 C   0  0  0  0  0  0  0  0  0  0  0  0
    1.9382   -1.1204    1.4606 C   0  0  0  0  0  0  0  0  0  0  0  0
    2.2058    0.1632    1.9382 C   0  0  0  0  0  0  0  0  0  0  0  0
    2.7101    2.7689    2.2836 H   0  0  0  0  0  0  0  0  0  0  0  0
    4.1613    2.8428    1.2849 H   0  0  0  0  0  0  0  0  0  0  0  0
    4.2534    2.1512    2.9239 H   0  0  0  0  0  0  0  0  0  0  0  0
    5.0890    0.7897    0.2282 H   0  0  0  0  0  0  0  0  0  0  0  0
    4.6239   -1.4788   -0.6219 H   0  0  0  0  0  0  0  0  0  0  0  0
    2.3574   -2.9663   -2.3374 H   0  0  0  0  0  0  0  0  0  0  0  0
    1.5641   -0.6477   -2.7447 H   0  0  0  0  0  0  0  0  0  0  0  0
   -0.3696    0.8951   -2.7245 H   0  0  0  0  0  0  0  0  0  0  0  0
   -1.5143    1.3873    0.8869 H   0  0  0  0  0  0  0  0  0  0  0  0
   -2.3527   -0.1480    1.2334 H   0  0  0  0  0  0  0  0  0  0  0  0
   -4.1919    0.9440    2.2893 H   0  0  0  0  0  0  0  0  0  0  0  0
   -2.8769    2.0235    2.7966 H   0  0  0  0  0  0  0  0  0  0  0  0
   -3.3325    3.5438    0.9506 H   0  0  0  0  0  0  0  0  0  0  0  0
   -4.9705    3.1020    1.4730 H   0  0  0  0  0  0  0  0  0  0  0  0
   -4.1903    2.7010   -1.1210 H   0  0  0  0  0  0  0  0  0  0  0  0
   -5.1786    1.4622   -0.3045 H   0  0  0  0  0  0  0  0  0  0  0  0
   -2.6419   -1.9727   -0.4477 H   0  0  0  0  0  0  0  0  0  0  0  0
   -0.7128   -3.5218   -0.4666 H   0  0  0  0  0  0  0  0  0  0  0  0
    1.0662   -1.6599    1.8232 H   0  0  0  0  0  0  0  0  0  0  0  0
    1.5381    0.6075    2.6735 H   0  0  0  0  0  0  0  0  0  0  0  0
  1  2  1  0
  2  3  2  0
  3  4  1  0
  4  5  2  0
  5  6  1  0
  6  7  2  0
  6  8  2  0
  6  9  1  0
  9 10  1  0
 10 11  2  0
 11 12  1  0
 12 13  2  0
 13 14  1  0
 14 15  2  0
 14 16  1  0
 16 17  1  0
 17 18  1  0
 18 19  1  0
 19 20  1  0
 13 21  1  0
 21 22  2  0
  5 23  1  0
 23 24  2  0
 24  2  1  0
 22 10  1  0
 20 16  1  0
  1 25  1  0
  1 26  1  0
  1 27  1  0
  3 28  1  0
  4 29  1  0
  9 30  1  0
 11 31  1  0
 12 32  1  0
 17 33  1  0
 17 34  1  0
 18 35  1  0
 18 36  1  0
 19 37  1  0
 19 38  1  0
 20 39  1  0
 20 40  1  0
 21 41  1  0
 22 42  1  0
 23 43  1  0
 24 44  1  0
M  END
$$$$
