
     RDKit          3D

 54 56  0  0  0  0  0  0  0  0999 V2000
   -3.3449   -3.6192   -2.8642 C   0  0  0  0  0  0  0  0  0  0  0  0
   -2.5732   -2.4490   -2.6339 O   0  0  0  0  0  0  0  0  0  0  0  0
   -3.3939   -1.2795   -2.5954 C   0  0  0  0  0  0  0  0  0  0  0  0
   -2.5400   -0.1024   -2.1854 C   0  0  0  0  0  0  0  0  0  0  0  0
   -2.0928    0.7644   -3.0999 C   0  0  0  0  0  0  0  0  0  0  0  0
   -1.2397    1.8714   -2.6569 C   0  0  0  0  0  0  0  0  0  0  0  0
   -0.7999    2.6579   -3.4915 O   0  0  0  0  0  0  0  0  0  0  0  0
   -0.9721    1.9164   -1.3046 N   0  0  0  0  0  0  0  0  0  0  0  0
   -0.1110    2.9913   -0.8153 C   0  0  0  0  0  0  0  0  0  0  0  0
    1.3622    2.5839   -0.6901 C   0  0  0  0  0  0  0  0  0  0  0  0
    2.1660    3.2862   -0.0767 O   0  0  0  0  0  0  0  0  0  0  0  0
    1.7386    1.4458   -1.3671 N   0  0  0  0  0  0  0  0  0  0  0  0
    3.0755    0.9049   -1.2899 C   0  0  0  0  0  0  0  0  0  0  0  0
    3.1494   -0.1760   -0.2434 C   0  0  0  0  0  0  0  0  0  0  0  0
    2.8044   -1.4972   -0.5544 C   0  0  0  0  0  0  0  0  0  0  0  0
    2.8255   -2.4875    0.4316 C   0  0  0  0  0  0  0  0  0  0  0  0
    3.1947   -2.1740    1.7437 C   0  0  0  0  0  0  0  0  0  0  0  0
    3.2067   -3.2264    2.8132 C   0  0  0  0  0  0  0  0  0  0  0  0
    3.5296   -0.8525    2.0587 C   0  0  0  0  0  0  0  0  0  0  0  0
    3.5056    0.1387    1.0746 C   0  0  0  0  0  0  0  0  0  0  0  0
   -1.5182    0.9876   -0.4338 C   0  0  0  0  0  0  0  0  0  0  0  0
   -1.2164    1.1004    0.9105 N   0  0  0  0  0  0  0  0  0  0  0  0
   -0.2021    0.1457    1.4324 C   0  0  0  0  0  0  0  0  0  0  0  0
   -0.8127   -0.8455    2.4284 C   0  0  0  0  0  0  0  0  0  0  0  0
   -1.3911   -0.2063    3.5783 O   0  0  0  0  0  0  0  0  0  0  0  0
   -1.9138    1.0996    3.2887 C   0  0  0  0  0  0  0  0  0  0  0  0
   -2.3677    1.2534    1.8328 C   0  0  0  0  0  0  0  0  0  0  0  0
   -2.2805    0.0176   -0.8430 N   0  0  0  0  0  0  0  0  0  0  0  0
   -3.8824   -3.5454   -3.8162 H   0  0  0  0  0  0  0  0  0  0  0  0
   -2.6647   -4.4722   -2.9156 H   0  0  0  0  0  0  0  0  0  0  0  0
   -4.0513   -3.7819   -2.0418 H   0  0  0  0  0  0  0  0  0  0  0  0
   -3.8340   -1.1225   -3.5883 H   0  0  0  0  0  0  0  0  0  0  0  0
   -4.2138   -1.4106   -1.8772 H   0  0  0  0  0  0  0  0  0  0  0  0
   -2.2942    0.6809   -4.1590 H   0  0  0  0  0  0  0  0  0  0  0  0
   -0.4536    3.3222    0.1708 H   0  0  0  0  0  0  0  0  0  0  0  0
   -0.1565    3.8512   -1.4933 H   0  0  0  0  0  0  0  0  0  0  0  0
    1.0109    0.8426   -1.7266 H   0  0  0  0  0  0  0  0  0  0  0  0
    3.8015    1.6986   -1.0805 H   0  0  0  0  0  0  0  0  0  0  0  0
    3.3204    0.4925   -2.2751 H   0  0  0  0  0  0  0  0  0  0  0  0
    2.5083   -1.7653   -1.5664 H   0  0  0  0  0  0  0  0  0  0  0  0
    2.5554   -3.5071    0.1639 H   0  0  0  0  0  0  0  0  0  0  0  0
    2.3919   -3.0506    3.5231 H   0  0  0  0  0  0  0  0  0  0  0  0
    4.1608   -3.2138    3.3493 H   0  0  0  0  0  0  0  0  0  0  0  0
    3.0792   -4.2287    2.3903 H   0  0  0  0  0  0  0  0  0  0  0  0
    3.8094   -0.5840    3.0753 H   0  0  0  0  0  0  0  0  0  0  0  0
    3.7545    1.1656    1.3427 H   0  0  0  0  0  0  0  0  0  0  0  0
    0.2645   -0.4055    0.6101 H   0  0  0  0  0  0  0  0  0  0  0  0
    0.5750    0.7356    1.9308 H   0  0  0  0  0  0  0  0  0  0  0  0
   -0.0454   -1.5356    2.7917 H   0  0  0  0  0  0  0  0  0  0  0  0
   -1.5929   -1.4469    1.9488 H   0  0  0  0  0  0  0  0  0  0  0  0
   -1.1350    1.8324    3.5301 H   0  0  0  0  0  0  0  0  0  0  0  0
   -2.7531    1.2752    3.9689 H   0  0  0  0  0  0  0  0  0  0  0  0
   -2.8105    2.2442    1.6852 H   0  0  0  0  0  0  0  0  0  0  0  0
   -3.1327    0.4991    1.6117 H   0  0  0  0  0  0  0  0  0  0  0  0
  1  2  1  0
  2  3  1  0
  3  4  1  0
  4  5  2  0
  5  6  1  0
  6  7  2  0
  6  8  1  0
  8  9  1  0
  9 10  1  0
 10 11  2  0
 10 12  1  0
 12 13  1  0
 13 14  1  0
 14 15  2  0
 15 16  1  0
 16 17  2  0
 17 18  1  0
 17 19  1  0
 19 20  2  0
  8 21  1  0
 21 22  1  0
 22 23  1  0
 23 24  1  0
 24 25  1  0
 25 26  1  0
 26 27  1  0
 21 28  2  0
 28  4  1  0
 20 14  1  0
 27 22  1  0
  1 29  1  0
  1 30  1  0
  1 31  1  0
  3 32  1  0
  3 33  1  0
  5 34  1  0
  9 35  1  0
  9 36  1  0
 12 37  1  0
 13 38  1  0
 13 39  1  0
 15 40  1  0
 16 41  1  0
 18 42  1  0
 18 43  1  0
 18 44  1  0
 19 45  1  0
 20 46  1  0
 23 47  1  0
 23 48  1  0
 24 49  1  0
 24 50  1  0
 26 51  1  0
 26 52  1  0
 27 53  1  0
 27 54  1  0
M  END
$$$$
