
     RDKit          3D

 55 58  0  0  0  0  0  0  0  0999 V2000
   -4.4566   -4.1763   -0.0645 C   0  0  0  0  0  0  0  0  0  0  0  0
   -4.9768   -2.7728    0.3173 C   0  0  0  0  0  0  0  0  0  0  0  0
   -5.4977   -2.8398    1.7648 C   0  0  0  0  0  0  0  0  0  0  0  0
   -6.1324   -2.4184   -0.6363 C   0  0  0  0  0  0  0  0  0  0  0  0
   -3.8480   -1.7518    0.1925 C   0  0  0  0  0  0  0  0  0  0  0  0
   -2.6384   -2.0427   -0.2350 N   0  0  0  0  0  0  0  0  0  0  0  0
   -1.8317   -0.9133   -0.2313 C   0  0  0  0  0  0  0  0  0  0  0  0
   -0.4546   -1.0309   -0.6769 C   0  0  0  0  0  0  0  0  0  0  0  0
   -0.1845   -1.5747   -1.9413 C   0  0  0  0  0  0  0  0  0  0  0  0
    1.1299   -1.6697   -2.4065 C   0  0  0  0  0  0  0  0  0  0  0  0
    2.1870   -1.2307   -1.6090 C   0  0  0  0  0  0  0  0  0  0  0  0
    1.9280   -0.7234   -0.3365 C   0  0  0  0  0  0  0  0  0  0  0  0
    3.0180   -0.2077    0.4535 N   0  0  0  0  0  0  0  0  0  0  0  0
    3.2701    1.4745    0.2453 S   0  0  0  0  0  6  0  0  0  0  0  0
    2.7675    2.0763    1.4603 O   0  0  0  0  0  0  0  0  0  0  0  0
    2.7930    1.9109   -1.0508 O   0  0  0  0  0  0  0  0  0  0  0  0
    5.0169    1.5694    0.2275 C   0  0  0  0  0  0  0  0  0  0  0  0
    5.7199    2.2161    1.2335 C   0  0  0  0  0  0  0  0  0  0  0  0
    5.1058    2.7724    2.2839 F   0  0  0  0  0  0  0  0  0  0  0  0
    7.1123    2.3016    1.1802 C   0  0  0  0  0  0  0  0  0  0  0  0
    7.8076    1.7390    0.1103 C   0  0  0  0  0  0  0  0  0  0  0  0
    7.1020    1.0935   -0.9034 C   0  0  0  0  0  0  0  0  0  0  0  0
    5.7113    1.0137   -0.8402 C   0  0  0  0  0  0  0  0  0  0  0  0
    5.0724    0.3807   -1.8326 F   0  0  0  0  0  0  0  0  0  0  0  0
    0.6121   -0.6234    0.1250 C   0  0  0  0  0  0  0  0  0  0  0  0
    0.3971   -0.1424    1.3615 F   0  0  0  0  0  0  0  0  0  0  0  0
   -2.4434    0.2657    0.1782 C   0  0  0  0  0  0  0  0  0  0  0  0
   -1.9473    1.6488    0.2409 C   0  0  0  0  0  0  0  0  0  0  0  0
   -2.3875    2.5670    1.1716 C   0  0  0  0  0  0  0  0  0  0  0  0
   -1.8383    3.8211    1.0767 C   0  0  0  0  0  0  0  0  0  0  0  0
   -0.9263    4.1627    0.1526 N   0  0  0  0  0  0  0  0  0  0  0  0
   -0.5512    3.2041   -0.6977 C   0  0  0  0  0  0  0  0  0  0  0  0
    0.4318    3.5274   -1.6124 N   0  0  0  0  0  0  0  0  0  0  0  0
   -1.0223    1.9556   -0.6921 N   0  0  0  0  0  0  0  0  0  0  0  0
   -4.0779   -0.0954    0.5999 S   0  0  0  0  0  0  0  0  0  0  0  0
   -5.2478   -4.9302    0.0221 H   0  0  0  0  0  0  0  0  0  0  0  0
   -4.0903   -4.2000   -1.0978 H   0  0  0  0  0  0  0  0  0  0  0  0
   -3.6306   -4.4869    0.5867 H   0  0  0  0  0  0  0  0  0  0  0  0
   -6.2512   -3.6280    1.8767 H   0  0  0  0  0  0  0  0  0  0  0  0
   -5.9674   -1.8997    2.0754 H   0  0  0  0  0  0  0  0  0  0  0  0
   -4.6852   -3.0511    2.4704 H   0  0  0  0  0  0  0  0  0  0  0  0
   -5.7833   -2.3419   -1.6731 H   0  0  0  0  0  0  0  0  0  0  0  0
   -6.5997   -1.4619   -0.3757 H   0  0  0  0  0  0  0  0  0  0  0  0
   -6.9182   -3.1818   -0.6044 H   0  0  0  0  0  0  0  0  0  0  0  0
   -1.0045   -1.9092   -2.5746 H   0  0  0  0  0  0  0  0  0  0  0  0
    1.3264   -2.0713   -3.3979 H   0  0  0  0  0  0  0  0  0  0  0  0
    3.2047   -1.2848   -1.9847 H   0  0  0  0  0  0  0  0  0  0  0  0
    2.7891   -0.3110    1.4492 H   0  0  0  0  0  0  0  0  0  0  0  0
    7.6458    2.8112    1.9783 H   0  0  0  0  0  0  0  0  0  0  0  0
    8.8924    1.8049    0.0668 H   0  0  0  0  0  0  0  0  0  0  0  0
    7.6257    0.6505   -1.7465 H   0  0  0  0  0  0  0  0  0  0  0  0
   -3.1116    2.3350    1.9391 H   0  0  0  0  0  0  0  0  0  0  0  0
   -2.1214    4.6133    1.7635 H   0  0  0  0  0  0  0  0  0  0  0  0
    0.9252    4.3388   -1.2658 H   0  0  0  0  0  0  0  0  0  0  0  0
    1.0336    2.7172   -1.7511 H   0  0  0  0  0  0  0  0  0  0  0  0
  1  2  1  0
  2  3  1  0
  2  4  1  0
  2  5  1  0
  5  6  2  0
  6  7  1  0
  7  8  1  0
  8  9  2  0
  9 10  1  0
 10 11  2  0
 11 12  1  0
 12 13  1  0
 13 14  1  0
 14 15  2  0
 14 16  2  0
 14 17  1  0
 17 18  2  0
 18 19  1  0
 18 20  1  0
 20 21  2  0
 21 22  1  0
 22 23  2  0
 23 24  1  0
 12 25  2  0
 25 26  1  0
  7 27  2  0
 27 28  1  0
 28 29  2  0
 29 30  1  0
 30 31  2  0
 31 32  1  0
 32 33  1  0
 32 34  2  0
 27 35  1  0
 35  5  1  0
 25  8  1  0
 34 28  1  0
 23 17  1  0
  1 36  1  0
  1 37  1  0
  1 38  1  0
  3 39  1  0
  3 40  1  0
  3 41  1  0
  4 42  1  0
  4 43  1  0
  4 44  1  0
  9 45  1  0
 10 46  1  0
 11 47  1  0
 13 48  1  0
 20 49  1  0
 21 50  1  0
 22 51  1  0
 29 52  1  0
 30 53  1  0
 33 54  1  0
 33 55  1  0
M  END
$$$$
