
     RDKit          3D

 51 53  0  0  0  0  0  0  0  0999 V2000
    5.0624    0.2492   -0.6224 C   0  0  0  0  0  0  0  0  0  0  0  0
    3.9185   -0.1064    0.1455 O   0  0  0  0  0  0  0  0  0  0  0  0
    3.5590    0.7392    1.1612 C   0  0  0  0  0  0  0  0  0  0  0  0
    4.0239    2.0511    1.3001 C   0  0  0  0  0  0  0  0  0  0  0  0
    3.5962    2.8374    2.3750 C   0  0  0  0  0  0  0  0  0  0  0  0
    4.1779    4.4505    2.5304 Cl  0  0  0  0  0  0  0  0  0  0  0  0
    2.7064    2.3346    3.3225 C   0  0  0  0  0  0  0  0  0  0  0  0
    2.2296    1.0323    3.1913 C   0  0  0  0  0  0  0  0  0  0  0  0
    2.6427    0.2484    2.1058 C   0  0  0  0  0  0  0  0  0  0  0  0
    2.1200   -1.1305    2.0325 C   0  0  0  0  0  0  0  0  0  0  0  0
    2.5430   -1.9569    2.8356 O   0  0  0  0  0  0  0  0  0  0  0  0
    1.1311   -1.3990    1.1082 N   0  0  0  0  0  0  0  0  0  0  0  0
    0.5428   -2.7226    1.0062 C   0  0  0  0  0  0  0  0  0  0  0  0
   -0.7313   -2.5208    0.1972 C   0  0  0  0  0  0  0  0  0  0  0  0
   -0.3590   -1.3557   -0.7281 C   0  0  0  0  0  0  0  0  0  0  0  0
   -1.5085   -0.6807   -1.3594 N   0  0  0  0  0  0  0  0  0  0  0  0
   -1.7045   -0.6372   -2.7423 C   0  0  0  0  0  0  0  0  0  0  0  0
   -0.6863   -1.3150   -3.6247 C   0  0  0  0  0  0  0  0  0  0  0  0
   -2.6678   -0.0725   -3.2627 O   0  0  0  0  0  0  0  0  0  0  0  0
   -2.5096   -0.0267   -0.4806 C   0  0  0  0  0  0  0  0  0  0  0  0
   -3.9024   -0.6767   -0.5639 C   0  0  0  0  0  0  0  0  0  0  0  0
   -5.0025    0.3268   -0.2430 C   0  0  0  0  0  0  0  0  0  0  0  0
   -4.5578    1.2110    0.7818 O   0  0  0  0  0  0  0  0  0  0  0  0
   -3.5525    2.1169    0.3230 C   0  0  0  0  0  0  0  0  0  0  0  0
   -2.5844    1.4913   -0.6798 C   0  0  0  0  0  0  0  0  0  0  0  0
    0.5241   -0.4676    0.1652 C   0  0  0  0  0  0  0  0  0  0  0  0
    5.9329    0.4312    0.0168 H   0  0  0  0  0  0  0  0  0  0  0  0
    5.2999   -0.5945   -1.2774 H   0  0  0  0  0  0  0  0  0  0  0  0
    4.8501    1.1145   -1.2583 H   0  0  0  0  0  0  0  0  0  0  0  0
    4.7151    2.4866    0.5860 H   0  0  0  0  0  0  0  0  0  0  0  0
    2.3873    2.9462    4.1625 H   0  0  0  0  0  0  0  0  0  0  0  0
    1.5461    0.6225    3.9318 H   0  0  0  0  0  0  0  0  0  0  0  0
    0.3529   -3.1494    1.9957 H   0  0  0  0  0  0  0  0  0  0  0  0
    1.2550   -3.3636    0.4747 H   0  0  0  0  0  0  0  0  0  0  0  0
   -1.5542   -2.2607    0.8712 H   0  0  0  0  0  0  0  0  0  0  0  0
   -1.0255   -3.4197   -0.3531 H   0  0  0  0  0  0  0  0  0  0  0  0
    0.2987   -1.7715   -1.4969 H   0  0  0  0  0  0  0  0  0  0  0  0
   -0.9849   -1.2017   -4.6718 H   0  0  0  0  0  0  0  0  0  0  0  0
   -0.6427   -2.3846   -3.4033 H   0  0  0  0  0  0  0  0  0  0  0  0
    0.2937   -0.8464   -3.5032 H   0  0  0  0  0  0  0  0  0  0  0  0
   -2.1733   -0.1703    0.5537 H   0  0  0  0  0  0  0  0  0  0  0  0
   -3.9348   -1.4951    0.1672 H   0  0  0  0  0  0  0  0  0  0  0  0
   -4.1106   -1.1432   -1.5318 H   0  0  0  0  0  0  0  0  0  0  0  0
   -5.2960    0.9028   -1.1290 H   0  0  0  0  0  0  0  0  0  0  0  0
   -5.8941   -0.1971    0.1161 H   0  0  0  0  0  0  0  0  0  0  0  0
   -3.0042    2.4549    1.2087 H   0  0  0  0  0  0  0  0  0  0  0  0
   -4.0385    2.9980   -0.1104 H   0  0  0  0  0  0  0  0  0  0  0  0
   -2.9365    1.7326   -1.6888 H   0  0  0  0  0  0  0  0  0  0  0  0
   -1.5964    1.9580   -0.5907 H   0  0  0  0  0  0  0  0  0  0  0  0
   -0.0349    0.2744    0.7424 H   0  0  0  0  0  0  0  0  0  0  0  0
    1.2836    0.0558   -0.4214 H   0  0  0  0  0  0  0  0  0  0  0  0
  1  2  1  0
  2  3  1  0
  3  4  2  0
  4  5  1  0
  5  6  1  0
  5  7  2  0
  7  8  1  0
  8  9  2  0
  9 10  1  0
 10 11  2  0
 10 12  1  0
 12 13  1  0
 13 14  1  0
 14 15  1  0
 15 16  1  0
 16 17  1  0
 17 18  1  0
 17 19  2  0
 16 20  1  0
 20 21  1  0
 21 22  1  0
 22 23  1  0
 23 24  1  0
 24 25  1  0
 15 26  1  0
  9  3  1  0
 26 12  1  0
 25 20  1  0
  1 27  1  0
  1 28  1  0
  1 29  1  0
  4 30  1  0
  7 31  1  0
  8 32  1  0
 13 33  1  0
 13 34  1  0
 14 35  1  0
 14 36  1  0
 15 37  1  0
 18 38  1  0
 18 39  1  0
 18 40  1  0
 20 41  1  0
 21 42  1  0
 21 43  1  0
 22 44  1  0
 22 45  1  0
 24 46  1  0
 24 47  1  0
 25 48  1  0
 25 49  1  0
 26 50  1  0
 26 51  1  0
M  END
$$$$
