
     RDKit          3D

 59 62  0  0  0  0  0  0  0  0999 V2000
    8.2993    1.1282   -1.2891 C   0  0  0  0  0  0  0  0  0  0  0  0
    7.4788    1.4441   -0.1720 O   0  0  0  0  0  0  0  0  0  0  0  0
    6.4897    0.5524    0.1400 C   0  0  0  0  0  0  0  0  0  0  0  0
    5.7390    0.8836    1.2693 C   0  0  0  0  0  0  0  0  0  0  0  0
    4.6976    0.0590    1.7020 C   0  0  0  0  0  0  0  0  0  0  0  0
    4.3895   -1.1147    1.0078 C   0  0  0  0  0  0  0  0  0  0  0  0
    3.2538   -2.0041    1.4589 C   0  0  0  0  0  0  0  0  0  0  0  0
    1.9353   -1.6819    0.7509 C   0  0  0  0  0  0  0  0  0  0  0  0
    1.1482   -0.5571    1.4117 C   0  0  0  0  0  0  0  0  0  0  0  0
    1.5399   -0.0031    2.4388 O   0  0  0  0  0  0  0  0  0  0  0  0
   -0.0654   -0.2051    0.8178 N   0  0  0  0  0  0  0  0  0  0  0  0
   -0.5893   -0.8159   -0.4046 C   0  0  0  0  0  0  0  0  0  0  0  0
   -1.5968    0.0856   -1.1053 C   0  0  0  0  0  0  0  0  0  0  0  0
   -2.7910    0.4893   -0.2058 C   0  0  1  0  0  0  0  0  0  0  0  0
   -3.3715    1.7764   -0.7350 C   0  0  0  0  0  0  0  0  0  0  0  0
   -4.4077    1.9055   -1.5384 N   0  0  0  0  0  0  0  0  0  0  0  0
   -4.5016    3.2580   -1.7346 C   0  0  0  0  0  0  0  0  0  0  0  0
   -5.5485    3.8634   -2.5807 C   0  0  0  0  0  0  0  0  0  0  0  0
   -3.5630    3.9757   -1.1103 N   0  0  0  0  0  0  0  0  0  0  0  0
   -2.8542    3.0212   -0.4922 N   0  0  0  0  0  0  0  0  0  0  0  0
   -3.8898   -0.5975   -0.2059 C   0  0  0  0  0  0  0  0  0  0  0  0
   -3.5923   -1.4526    0.9237 N   0  0  0  0  0  0  0  0  0  0  0  0
   -4.1623   -2.6768    1.1992 C   0  0  0  0  0  0  0  0  0  0  0  0
   -5.0435   -3.2652    0.1280 C   0  0  0  0  0  0  0  0  0  0  0  0
   -3.9563   -3.2759    2.2533 O   0  0  0  0  0  0  0  0  0  0  0  0
   -2.8504   -0.7425    1.9400 C   0  0  0  0  0  0  0  0  0  0  0  0
   -2.3929    0.5751    1.2942 C   0  0  1  0  0  0  0  0  0  0  0  0
   -0.8929    0.7924    1.4951 C   0  0  0  0  0  0  0  0  0  0  0  0
    5.1407   -1.4417   -0.1290 C   0  0  0  0  0  0  0  0  0  0  0  0
    6.1852   -0.6149   -0.5594 C   0  0  0  0  0  0  0  0  0  0  0  0
    9.0475    1.9207   -1.3888 H   0  0  0  0  0  0  0  0  0  0  0  0
    8.8331    0.1848   -1.1341 H   0  0  0  0  0  0  0  0  0  0  0  0
    7.7137    1.1049   -2.2141 H   0  0  0  0  0  0  0  0  0  0  0  0
    5.9658    1.7930    1.8202 H   0  0  0  0  0  0  0  0  0  0  0  0
    4.1279    0.3436    2.5849 H   0  0  0  0  0  0  0  0  0  0  0  0
    3.1507   -1.9568    2.5498 H   0  0  0  0  0  0  0  0  0  0  0  0
    3.5296   -3.0433    1.2354 H   0  0  0  0  0  0  0  0  0  0  0  0
    1.2993   -2.5747    0.7854 H   0  0  0  0  0  0  0  0  0  0  0  0
    2.1287   -1.4295   -0.2963 H   0  0  0  0  0  0  0  0  0  0  0  0
    0.2315   -1.0249   -1.0955 H   0  0  0  0  0  0  0  0  0  0  0  0
   -1.0341   -1.7791   -0.1338 H   0  0  0  0  0  0  0  0  0  0  0  0
   -1.9511   -0.3976   -2.0246 H   0  0  0  0  0  0  0  0  0  0  0  0
   -1.0567    0.9850   -1.4343 H   0  0  0  0  0  0  0  0  0  0  0  0
   -5.3035    3.7299   -3.6389 H   0  0  0  0  0  0  0  0  0  0  0  0
   -6.5160    3.3892   -2.3889 H   0  0  0  0  0  0  0  0  0  0  0  0
   -5.6522    4.9351   -2.3837 H   0  0  0  0  0  0  0  0  0  0  0  0
   -2.0465    3.2899    0.0582 H   0  0  0  0  0  0  0  0  0  0  0  0
   -4.8897   -0.1833   -0.0239 H   0  0  0  0  0  0  0  0  0  0  0  0
   -3.9299   -1.1752   -1.1346 H   0  0  0  0  0  0  0  0  0  0  0  0
   -5.4686   -4.2078    0.4854 H   0  0  0  0  0  0  0  0  0  0  0  0
   -4.4546   -3.4694   -0.7699 H   0  0  0  0  0  0  0  0  0  0  0  0
   -5.8668   -2.5845   -0.1029 H   0  0  0  0  0  0  0  0  0  0  0  0
   -3.5198   -0.5464    2.7859 H   0  0  0  0  0  0  0  0  0  0  0  0
   -2.0350   -1.3772    2.3030 H   0  0  0  0  0  0  0  0  0  0  0  0
   -2.9289    1.3932    1.7942 H   0  0  0  0  0  0  0  0  0  0  0  0
   -0.5948    1.7675    1.0920 H   0  0  0  0  0  0  0  0  0  0  0  0
   -0.6669    0.8118    2.5675 H   0  0  0  0  0  0  0  0  0  0  0  0
    4.9204   -2.3477   -0.6891 H   0  0  0  0  0  0  0  0  0  0  0  0
    6.7390   -0.9124   -1.4432 H   0  0  0  0  0  0  0  0  0  0  0  0
  1  2  1  0
  2  3  1  0
  3  4  2  0
  4  5  1  0
  5  6  2  0
  6  7  1  0
  7  8  1  0
  8  9  1  0
  9 10  2  0
  9 11  1  0
 11 12  1  0
 12 13  1  0
 13 14  1  0
 14 15  1  6
 15 16  2  0
 16 17  1  0
 17 18  1  0
 17 19  2  0
 19 20  1  0
 14 21  1  0
 21 22  1  0
 22 23  1  0
 23 24  1  0
 23 25  2  0
 22 26  1  0
 26 27  1  0
 27 28  1  0
  6 29  1  0
 29 30  2  0
 30  3  1  0
 28 11  1  0
 27 14  1  0
 20 15  1  0
  1 31  1  0
  1 32  1  0
  1 33  1  0
  4 34  1  0
  5 35  1  0
  7 36  1  0
  7 37  1  0
  8 38  1  0
  8 39  1  0
 12 40  1  0
 12 41  1  0
 13 42  1  0
 13 43  1  0
 18 44  1  0
 18 45  1  0
 18 46  1  0
 20 47  1  0
 21 48  1  0
 21 49  1  0
 24 50  1  0
 24 51  1  0
 24 52  1  0
 26 53  1  0
 26 54  1  0
 27 55  1  1
 28 56  1  0
 28 57  1  0
 29 58  1  0
 30 59  1  0
M  END
$$$$
