
     RDKit          3D

 58 60  0  0  0  0  0  0  0  0999 V2000
   -7.5921   -0.7405    3.4936 C   0  0  0  0  0  0  0  0  0  0  0  0
   -6.7755   -0.0333    2.9738 C   0  0  0  0  0  0  0  0  0  0  0  0
   -5.7950    0.8099    2.3673 C   0  0  0  0  0  0  0  0  0  0  0  0
   -5.6084    2.1087    2.8406 C   0  0  0  0  0  0  0  0  0  0  0  0
   -4.6314    2.9157    2.2705 C   0  0  0  0  0  0  0  0  0  0  0  0
   -3.8542    2.4271    1.2189 C   0  0  0  0  0  0  0  0  0  0  0  0
   -4.0547    1.1366    0.7007 C   0  0  0  0  0  0  0  0  0  0  0  0
   -3.1906    0.6611   -0.3081 N   0  0  0  0  0  0  0  0  0  0  0  0
   -3.4116   -0.3814   -1.2481 C   0  0  0  0  0  0  0  0  0  0  0  0
   -4.6663   -0.7999   -1.4831 N   0  0  0  0  0  0  0  0  0  0  0  0
   -4.8205   -1.7538   -2.4035 C   0  0  0  0  0  0  0  0  0  0  0  0
   -3.8459   -2.3301   -3.1149 N   0  0  0  0  0  0  0  0  0  0  0  0
   -2.5995   -1.9212   -2.8674 C   0  0  0  0  0  0  0  0  0  0  0  0
   -1.5567   -2.5093   -3.5745 C   0  0  0  0  0  0  0  0  0  0  0  0
   -0.2200   -2.1489   -3.3650 C   0  0  0  0  0  0  0  0  0  0  0  0
    0.8448   -2.7087   -4.0325 O   0  0  0  0  0  0  0  0  0  0  0  0
    0.5557   -3.4266   -5.2194 C   0  0  0  0  0  0  0  0  0  0  0  0
    0.0883   -1.1762   -2.4032 C   0  0  0  0  0  0  0  0  0  0  0  0
    1.4182   -0.8995   -2.2256 O   0  0  0  0  0  0  0  0  0  0  0  0
    1.7704    0.1727   -1.3530 C   0  0  0  0  0  0  0  0  0  0  0  0
    3.2940    0.2659   -1.3273 C   0  0  0  0  0  0  0  0  0  0  0  0
    3.8241    1.4960   -0.5953 C   0  0  0  0  0  0  0  0  0  0  0  0
    3.3707    1.6544    0.8562 C   0  0  0  0  0  0  0  0  0  0  0  0
    3.6571    0.4720    1.7869 C   0  0  0  0  0  0  0  0  0  0  0  0
    5.1200    0.0459    1.8785 C   0  0  0  0  0  0  0  0  0  0  0  0
    5.9989    1.0168    2.6397 C   0  0  0  0  0  0  0  0  0  0  0  0
    5.6533    2.1265    3.0296 O   0  0  0  0  0  0  0  0  0  0  0  0
    7.2761    0.5391    2.8431 N   0  0  0  0  0  0  0  0  0  0  0  0
    8.0891    1.3585    3.6655 O   0  0  0  0  0  0  0  0  0  0  0  0
   -0.9519   -0.5701   -1.6939 C   0  0  0  0  0  0  0  0  0  0  0  0
   -2.3036   -0.9311   -1.9238 C   0  0  0  0  0  0  0  0  0  0  0  0
   -5.0138    0.3262    1.3131 C   0  0  0  0  0  0  0  0  0  0  0  0
   -8.3113   -1.3725    3.9542 H   0  0  0  0  0  0  0  0  0  0  0  0
   -6.2082    2.4907    3.6612 H   0  0  0  0  0  0  0  0  0  0  0  0
   -4.4687    3.9206    2.6507 H   0  0  0  0  0  0  0  0  0  0  0  0
   -3.0876    3.0727    0.8044 H   0  0  0  0  0  0  0  0  0  0  0  0
   -2.7145    1.4199   -0.7756 H   0  0  0  0  0  0  0  0  0  0  0  0
   -5.8332   -2.0901   -2.5937 H   0  0  0  0  0  0  0  0  0  0  0  0
   -1.8206   -3.2801   -4.2923 H   0  0  0  0  0  0  0  0  0  0  0  0
    1.5082   -3.6491   -5.7126 H   0  0  0  0  0  0  0  0  0  0  0  0
   -0.0468   -2.8299   -5.9108 H   0  0  0  0  0  0  0  0  0  0  0  0
    0.0639   -4.3769   -4.9909 H   0  0  0  0  0  0  0  0  0  0  0  0
    1.4014   -0.0336   -0.3429 H   0  0  0  0  0  0  0  0  0  0  0  0
    1.3456    1.1117   -1.7275 H   0  0  0  0  0  0  0  0  0  0  0  0
    3.6667    0.2840   -2.3553 H   0  0  0  0  0  0  0  0  0  0  0  0
    3.7063   -0.6467   -0.8900 H   0  0  0  0  0  0  0  0  0  0  0  0
    4.9209    1.4881   -0.6384 H   0  0  0  0  0  0  0  0  0  0  0  0
    3.5138    2.3907   -1.1464 H   0  0  0  0  0  0  0  0  0  0  0  0
    2.2913    1.8494    0.8772 H   0  0  0  0  0  0  0  0  0  0  0  0
    3.8385    2.5600    1.2590 H   0  0  0  0  0  0  0  0  0  0  0  0
    3.0647   -0.3894    1.4641 H   0  0  0  0  0  0  0  0  0  0  0  0
    3.2924    0.7335    2.7861 H   0  0  0  0  0  0  0  0  0  0  0  0
    5.5510   -0.1067    0.8843 H   0  0  0  0  0  0  0  0  0  0  0  0
    5.1628   -0.9154    2.4037 H   0  0  0  0  0  0  0  0  0  0  0  0
    7.4656   -0.4560    2.8927 H   0  0  0  0  0  0  0  0  0  0  0  0
    7.5198    2.1496    3.8084 H   0  0  0  0  0  0  0  0  0  0  0  0
   -0.7395    0.1718   -0.9318 H   0  0  0  0  0  0  0  0  0  0  0  0
   -5.1517   -0.6986    0.9772 H   0  0  0  0  0  0  0  0  0  0  0  0
  1  2  3  0
  2  3  1  0
  3  4  2  0
  4  5  1  0
  5  6  2  0
  6  7  1  0
  7  8  1  0
  8  9  1  0
  9 10  2  0
 10 11  1  0
 11 12  2  0
 12 13  1  0
 13 14  2  0
 14 15  1  0
 15 16  1  0
 16 17  1  0
 15 18  2  0
 18 19  1  0
 19 20  1  0
 20 21  1  0
 21 22  1  0
 22 23  1  0
 23 24  1  0
 24 25  1  0
 25 26  1  0
 26 27  2  0
 26 28  1  0
 28 29  1  0
 18 30  1  0
 30 31  2  0
  7 32  2  0
 32  3  1  0
 31  9  1  0
 31 13  1  0
  1 33  1  0
  4 34  1  0
  5 35  1  0
  6 36  1  0
  8 37  1  0
 11 38  1  0
 14 39  1  0
 17 40  1  0
 17 41  1  0
 17 42  1  0
 20 43  1  0
 20 44  1  0
 21 45  1  0
 21 46  1  0
 22 47  1  0
 22 48  1  0
 23 49  1  0
 23 50  1  0
 24 51  1  0
 24 52  1  0
 25 53  1  0
 25 54  1  0
 28 55  1  0
 29 56  1  0
 30 57  1  0
 32 58  1  0
M  END
$$$$
