
     RDKit          3D

 44 46  0  0  0  0  0  0  0  0999 V2000
    5.0646    2.0047    2.0581 C   0  0  0  0  0  0  0  0  0  0  0  0
    3.9866    1.5198    1.1365 C   0  0  0  0  0  0  0  0  0  0  0  0
    2.6700    1.8282    1.3787 C   0  0  0  0  0  0  0  0  0  0  0  0
    1.7758    1.3095    0.4810 C   0  0  0  0  0  0  0  0  0  0  0  0
    0.4504    1.5518    0.6741 O   0  0  0  0  0  0  0  0  0  0  0  0
    2.0831    0.5579   -0.5822 N   0  0  0  0  0  0  0  0  0  0  0  0
    3.3919    0.3042   -0.7306 C   0  0  0  0  0  0  0  0  0  0  0  0
    3.9618   -0.6565   -2.1153 S   0  0  0  0  0  0  0  0  0  0  0  0
    2.3947   -1.2719   -2.8024 C   0  0  0  0  0  0  0  0  0  0  0  0
    1.6258   -2.1240   -1.7959 C   0  0  0  0  0  0  0  0  0  0  0  0
    2.1942   -3.0207   -1.1646 O   0  0  0  0  0  0  0  0  0  0  0  0
    0.2682   -1.8836   -1.6332 N   0  0  0  0  0  0  0  0  0  0  0  0
   -0.4902   -0.8282   -2.3188 C   0  0  0  0  0  0  0  0  0  0  0  0
   -1.8778   -0.5597   -1.7009 C   0  0  0  0  0  0  0  0  0  0  0  0
   -1.7478   -0.4445   -0.2365 N   0  0  0  0  0  0  0  0  0  0  0  0
   -2.7525    0.1802    0.5129 C   0  0  0  0  0  0  0  0  0  0  0  0
   -3.9849    0.5715   -0.0303 C   0  0  0  0  0  0  0  0  0  0  0  0
   -4.9635    1.2072    0.7462 C   0  0  0  0  0  0  0  0  0  0  0  0
   -4.7254    1.4824    2.0872 C   0  0  0  0  0  0  0  0  0  0  0  0
   -3.5087    1.1206    2.6511 C   0  0  0  0  0  0  0  0  0  0  0  0
   -2.5409    0.4791    1.8713 C   0  0  0  0  0  0  0  0  0  0  0  0
   -1.0757   -1.5958    0.4346 C   0  0  0  0  0  0  0  0  0  0  0  0
   -0.4540   -2.5846   -0.5700 C   0  0  0  0  0  0  0  0  0  0  0  0
    4.3601    0.7639    0.0849 N   0  0  0  0  0  0  0  0  0  0  0  0
    5.0568    3.0970    2.1098 H   0  0  0  0  0  0  0  0  0  0  0  0
    6.0520    1.6870    1.7094 H   0  0  0  0  0  0  0  0  0  0  0  0
    4.9134    1.5958    3.0610 H   0  0  0  0  0  0  0  0  0  0  0  0
    2.3486    2.4254    2.2201 H   0  0  0  0  0  0  0  0  0  0  0  0
    0.0002    0.9605    0.0398 H   0  0  0  0  0  0  0  0  0  0  0  0
    1.8356   -0.4245   -3.1950 H   0  0  0  0  0  0  0  0  0  0  0  0
    2.6347   -1.9174   -3.6538 H   0  0  0  0  0  0  0  0  0  0  0  0
   -0.5842   -1.1062   -3.3730 H   0  0  0  0  0  0  0  0  0  0  0  0
    0.0849    0.1004   -2.2686 H   0  0  0  0  0  0  0  0  0  0  0  0
   -2.5724   -1.3716   -1.9542 H   0  0  0  0  0  0  0  0  0  0  0  0
   -2.2607    0.3685   -2.1442 H   0  0  0  0  0  0  0  0  0  0  0  0
   -4.2301    0.3718   -1.0675 H   0  0  0  0  0  0  0  0  0  0  0  0
   -5.9121    1.4895    0.2983 H   0  0  0  0  0  0  0  0  0  0  0  0
   -5.4831    1.9797    2.6869 H   0  0  0  0  0  0  0  0  0  0  0  0
   -3.2995    1.3446    3.6915 H   0  0  0  0  0  0  0  0  0  0  0  0
   -1.5898    0.2386    2.3396 H   0  0  0  0  0  0  0  0  0  0  0  0
   -0.2758   -1.2058    1.0773 H   0  0  0  0  0  0  0  0  0  0  0  0
   -1.7792   -2.1525    1.0675 H   0  0  0  0  0  0  0  0  0  0  0  0
    0.1937   -3.2846   -0.0265 H   0  0  0  0  0  0  0  0  0  0  0  0
   -1.2391   -3.1830   -1.0544 H   0  0  0  0  0  0  0  0  0  0  0  0
  1  2  1  0
  2  3  2  0
  3  4  1  0
  4  5  1  0
  4  6  2  0
  6  7  1  0
  7  8  1  0
  8  9  1  0
  9 10  1  0
 10 11  2  0
 10 12  1  0
 12 13  1  0
 13 14  1  0
 14 15  1  0
 15 16  1  0
 16 17  2  0
 17 18  1  0
 18 19  2  0
 19 20  1  0
 20 21  2  0
 15 22  1  0
 22 23  1  0
  7 24  2  0
 24  2  1  0
 23 12  1  0
 21 16  1  0
  1 25  1  0
  1 26  1  0
  1 27  1  0
  3 28  1  0
  5 29  1  0
  9 30  1  0
  9 31  1  0
 13 32  1  0
 13 33  1  0
 14 34  1  0
 14 35  1  0
 17 36  1  0
 18 37  1  0
 19 38  1  0
 20 39  1  0
 21 40  1  0
 22 41  1  0
 22 42  1  0
 23 43  1  0
 23 44  1  0
M  END
$$$$
