
     RDKit          3D

 56 59  0  0  0  0  0  0  0  0999 V2000
    5.7814    3.0971   -1.5948 C   0  0  0  0  0  0  0  0  0  0  0  0
    4.6578    2.2598   -1.2148 N   0  0  0  0  0  0  0  0  0  0  0  0
    3.3662    2.6109   -1.7892 C   0  0  0  0  0  0  0  0  0  0  0  0
    4.8656    1.2147   -0.3054 C   0  0  0  0  0  0  0  0  0  0  0  0
    6.0041    0.8923    0.0437 O   0  0  0  0  0  0  0  0  0  0  0  0
    3.7116    0.5010    0.2486 C   0  0  0  0  0  0  0  0  0  0  0  0
    3.7605   -0.6867    0.9564 C   0  0  0  0  0  0  0  0  0  0  0  0
    2.4620   -0.9548    1.2576 N   0  0  0  0  0  0  0  0  0  0  0  0
    1.9411   -2.0251    2.0704 C   0  0  0  0  0  0  0  0  0  0  0  0
    1.2604   -3.1934    1.3302 C   0  0  2  0  0  0  0  0  0  0  0  0
    2.2485   -4.1320    0.6166 C   0  0  0  0  0  0  0  0  0  0  0  0
    2.1757   -3.7234   -0.8446 C   0  0  2  0  0  0  0  0  0  0  0  0
    3.0198   -2.6796   -1.0460 F   0  0  0  0  0  0  0  0  0  0  0  0
    0.7381   -3.2699   -1.0286 C   0  0  0  0  0  0  0  0  0  0  0  0
    0.2846   -2.8453    0.2926 N   0  0  0  0  0  0  0  0  0  0  0  0
   -1.0066   -2.3727    0.4333 C   0  0  0  0  0  0  0  0  0  0  0  0
   -1.7756   -2.3277   -0.5258 O   0  0  0  0  0  0  0  0  0  0  0  0
   -1.4418   -1.9463    1.8222 C   0  0  0  0  0  0  0  0  0  0  0  0
   -2.9130   -1.5384    1.8830 C   0  0  0  0  0  0  0  0  0  0  0  0
   -3.1958   -0.2220    1.2584 C   0  0  0  0  0  0  0  0  0  0  0  0
   -4.1554    0.1170    0.4294 N   0  0  0  0  0  0  0  0  0  0  0  0
   -3.9318    1.4670    0.2478 C   0  0  0  0  0  0  0  0  0  0  0  0
   -4.7612    2.2803   -0.6359 C   0  0  0  0  0  0  0  0  0  0  0  0
   -5.8515    1.7054   -1.3096 C   0  0  0  0  0  0  0  0  0  0  0  0
   -6.6551    2.4760   -2.1547 C   0  0  0  0  0  0  0  0  0  0  0  0
   -6.3765    3.8295   -2.3381 C   0  0  0  0  0  0  0  0  0  0  0  0
   -5.2942    4.4135   -1.6790 C   0  0  0  0  0  0  0  0  0  0  0  0
   -4.4908    3.6439   -0.8322 C   0  0  0  0  0  0  0  0  0  0  0  0
   -2.9043    1.9493    0.9709 N   0  0  0  0  0  0  0  0  0  0  0  0
   -2.4208    0.8320    1.6455 O   0  0  0  0  0  0  0  0  0  0  0  0
    1.6511    0.0341    0.8481 N   0  0  0  0  0  0  0  0  0  0  0  0
    2.4025    0.9261    0.2177 N   0  0  0  0  0  0  0  0  0  0  0  0
    6.7005    2.8284   -1.0685 H   0  0  0  0  0  0  0  0  0  0  0  0
    5.5389    4.1385   -1.3628 H   0  0  0  0  0  0  0  0  0  0  0  0
    5.9477    2.9926   -2.6704 H   0  0  0  0  0  0  0  0  0  0  0  0
    2.8070    1.7101   -2.0577 H   0  0  0  0  0  0  0  0  0  0  0  0
    2.8075    3.2098   -1.0643 H   0  0  0  0  0  0  0  0  0  0  0  0
    3.5129    3.1997   -2.7014 H   0  0  0  0  0  0  0  0  0  0  0  0
    4.5855   -1.3281    1.2302 H   0  0  0  0  0  0  0  0  0  0  0  0
    1.2400   -1.5648    2.7756 H   0  0  0  0  0  0  0  0  0  0  0  0
    2.7676   -2.4082    2.6821 H   0  0  0  0  0  0  0  0  0  0  0  0
    0.7358   -3.7817    2.0931 H   0  0  0  0  0  0  0  0  0  0  0  0
    1.8942   -5.1656    0.7166 H   0  0  0  0  0  0  0  0  0  0  0  0
    3.2622   -4.0755    1.0227 H   0  0  0  0  0  0  0  0  0  0  0  0
    2.4646   -4.5201   -1.5343 H   0  0  0  0  0  0  0  0  0  0  0  0
    0.1000   -4.1025   -1.3459 H   0  0  0  0  0  0  0  0  0  0  0  0
    0.6411   -2.4417   -1.7376 H   0  0  0  0  0  0  0  0  0  0  0  0
   -1.2965   -2.7962    2.4978 H   0  0  0  0  0  0  0  0  0  0  0  0
   -0.8074   -1.1208    2.1555 H   0  0  0  0  0  0  0  0  0  0  0  0
   -3.2175   -1.4809    2.9360 H   0  0  0  0  0  0  0  0  0  0  0  0
   -3.5427   -2.3057    1.4163 H   0  0  0  0  0  0  0  0  0  0  0  0
   -6.0809    0.6483   -1.1802 H   0  0  0  0  0  0  0  0  0  0  0  0
   -7.4968    2.0166   -2.6698 H   0  0  0  0  0  0  0  0  0  0  0  0
   -7.0001    4.4284   -2.9975 H   0  0  0  0  0  0  0  0  0  0  0  0
   -5.0724    5.4683   -1.8244 H   0  0  0  0  0  0  0  0  0  0  0  0
   -3.6477    4.1183   -0.3310 H   0  0  0  0  0  0  0  0  0  0  0  0
  1  2  1  0
  2  3  1  0
  2  4  1  0
  4  5  2  0
  4  6  1  0
  6  7  2  0
  7  8  1  0
  8  9  1  0
  9 10  1  0
 10 11  1  0
 11 12  1  0
 12 13  1  0
 12 14  1  0
 14 15  1  0
 15 16  1  0
 16 17  2  0
 16 18  1  0
 18 19  1  0
 19 20  1  0
 20 21  2  0
 21 22  1  0
 22 23  1  0
 23 24  2  0
 24 25  1  0
 25 26  2  0
 26 27  1  0
 27 28  2  0
 22 29  2  0
 29 30  1  0
  8 31  1  0
 31 32  2  0
 32  6  1  0
 15 10  1  0
 30 20  1  0
 28 23  1  0
  1 33  1  0
  1 34  1  0
  1 35  1  0
  3 36  1  0
  3 37  1  0
  3 38  1  0
  7 39  1  0
  9 40  1  0
  9 41  1  0
 10 42  1  1
 11 43  1  0
 11 44  1  0
 12 45  1  6
 14 46  1  0
 14 47  1  0
 18 48  1  0
 18 49  1  0
 19 50  1  0
 19 51  1  0
 24 52  1  0
 25 53  1  0
 26 54  1  0
 27 55  1  0
 28 56  1  0
M  END
$$$$
