
     RDKit          3D

 52 56  0  0  0  0  0  0  0  0999 V2000
   -0.3397    2.9092    1.1288 F   0  0  0  0  0  0  0  0  0  0  0  0
    0.9506    2.5409    1.3601 C   0  0  0  0  0  0  0  0  0  0  0  0
    1.7048    3.5776    0.9019 F   0  0  0  0  0  0  0  0  0  0  0  0
    1.0902    2.5243    2.7142 F   0  0  0  0  0  0  0  0  0  0  0  0
    1.3695    1.2316    0.7447 C   0  0  0  0  0  0  0  0  0  0  0  0
    0.5060    0.3903    0.1056 C   0  0  0  0  0  0  0  0  0  0  0  0
   -0.8633    0.5920   -0.0214 N   0  0  0  0  0  0  0  0  0  0  0  0
   -1.7790    0.2574    1.0834 C   0  0  0  0  0  0  0  0  0  0  0  0
   -3.0832    1.0410    0.9785 C   0  0  0  0  0  0  0  0  0  0  0  0
   -3.7975    0.8320   -0.3704 C   0  0  0  0  0  0  0  0  0  0  0  0
   -5.0381   -0.0399   -0.2568 C   0  0  0  0  0  0  0  0  0  0  0  0
   -4.9732   -1.3674    0.1935 C   0  0  0  0  0  0  0  0  0  0  0  0
   -6.1282   -2.1477    0.2851 C   0  0  0  0  0  0  0  0  0  0  0  0
   -7.3634   -1.6128   -0.0716 C   0  0  0  0  0  0  0  0  0  0  0  0
   -7.4448   -0.2973   -0.5205 C   0  0  0  0  0  0  0  0  0  0  0  0
   -6.2907    0.4838   -0.6130 C   0  0  0  0  0  0  0  0  0  0  0  0
   -2.8470    0.3133   -1.4614 C   0  0  0  0  0  0  0  0  0  0  0  0
   -1.4686    0.9440   -1.3160 C   0  0  0  0  0  0  0  0  0  0  0  0
    0.9920   -0.8589   -0.4975 C   0  0  0  0  0  0  0  0  0  0  0  0
    2.2893   -1.1897   -0.4328 C   0  0  0  0  0  0  0  0  0  0  0  0
    3.1632   -0.3340    0.2199 N   0  0  0  0  0  0  0  0  0  0  0  0
    4.5236   -0.4107    0.4488 C   0  0  0  0  0  0  0  0  0  0  0  0
    5.3849   -1.5432   -0.0136 C   0  0  0  0  0  0  0  0  0  0  0  0
    6.8395   -1.3141   -0.3383 C   0  0  0  0  0  0  0  0  0  0  0  0
    7.7636   -0.5363    0.5648 C   0  0  0  0  0  0  0  0  0  0  0  0
    7.3876    0.0188   -0.7863 C   0  0  0  0  0  0  0  0  0  0  0  0
    4.8887    0.6323    1.1694 N   0  0  0  0  0  0  0  0  0  0  0  0
    3.7894    1.4231    1.3857 N   0  0  0  0  0  0  0  0  0  0  0  0
    2.7535    0.8465    0.8168 C   0  0  0  0  0  0  0  0  0  0  0  0
   -1.9728   -0.8213    1.0756 H   0  0  0  0  0  0  0  0  0  0  0  0
   -1.3066    0.4891    2.0460 H   0  0  0  0  0  0  0  0  0  0  0  0
   -2.8443    2.1091    1.0762 H   0  0  0  0  0  0  0  0  0  0  0  0
   -3.7363    0.8006    1.8260 H   0  0  0  0  0  0  0  0  0  0  0  0
   -4.1310    1.8307   -0.6879 H   0  0  0  0  0  0  0  0  0  0  0  0
   -4.0231   -1.8133    0.4741 H   0  0  0  0  0  0  0  0  0  0  0  0
   -6.0633   -3.1749    0.6347 H   0  0  0  0  0  0  0  0  0  0  0  0
   -8.2612   -2.2209   -0.0003 H   0  0  0  0  0  0  0  0  0  0  0  0
   -8.4077    0.1235   -0.7990 H   0  0  0  0  0  0  0  0  0  0  0  0
   -6.3801    1.5092   -0.9660 H   0  0  0  0  0  0  0  0  0  0  0  0
   -3.2617    0.5421   -2.4509 H   0  0  0  0  0  0  0  0  0  0  0  0
   -2.7447   -0.7787   -1.4158 H   0  0  0  0  0  0  0  0  0  0  0  0
   -1.5384    2.0361   -1.3903 H   0  0  0  0  0  0  0  0  0  0  0  0
   -0.8346    0.6071   -2.1451 H   0  0  0  0  0  0  0  0  0  0  0  0
    0.2747   -1.5091   -0.9891 H   0  0  0  0  0  0  0  0  0  0  0  0
    2.6793   -2.1026   -0.8623 H   0  0  0  0  0  0  0  0  0  0  0  0
    5.3330   -2.3324    0.7486 H   0  0  0  0  0  0  0  0  0  0  0  0
    4.9448   -1.9701   -0.9242 H   0  0  0  0  0  0  0  0  0  0  0  0
    7.2629   -2.2006   -0.8026 H   0  0  0  0  0  0  0  0  0  0  0  0
    8.7758   -0.9029    0.6969 H   0  0  0  0  0  0  0  0  0  0  0  0
    7.3651   -0.0415    1.4423 H   0  0  0  0  0  0  0  0  0  0  0  0
    6.7409    0.8892   -0.8060 H   0  0  0  0  0  0  0  0  0  0  0  0
    8.1497    0.0253   -1.5580 H   0  0  0  0  0  0  0  0  0  0  0  0
  1  2  1  0
  2  3  1  0
  2  4  1  0
  2  5  1  0
  5  6  2  0
  6  7  1  0
  7  8  1  0
  8  9  1  0
  9 10  1  0
 10 11  1  0
 11 12  2  0
 12 13  1  0
 13 14  2  0
 14 15  1  0
 15 16  2  0
 10 17  1  0
 17 18  1  0
  6 19  1  0
 19 20  2  0
 20 21  1  0
 21 22  1  0
 22 23  1  0
 23 24  1  0
 24 25  1  0
 25 26  1  0
 22 27  2  0
 27 28  1  0
 28 29  2  0
 29  5  1  0
 18  7  1  0
 29 21  1  0
 16 11  1  0
 26 24  1  0
  8 30  1  0
  8 31  1  0
  9 32  1  0
  9 33  1  0
 10 34  1  0
 12 35  1  0
 13 36  1  0
 14 37  1  0
 15 38  1  0
 16 39  1  0
 17 40  1  0
 17 41  1  0
 18 42  1  0
 18 43  1  0
 19 44  1  0
 20 45  1  0
 23 46  1  0
 23 47  1  0
 24 48  1  0
 25 49  1  0
 25 50  1  0
 26 51  1  0
 26 52  1  0
M  END
$$$$
