
     RDKit          3D

 55 58  0  0  0  0  0  0  0  0999 V2000
   -5.8077    1.1682   -4.3509 C   0  0  0  0  0  0  0  0  0  0  0  0
   -4.8442    1.3701   -3.3278 O   0  0  0  0  0  0  0  0  0  0  0  0
   -4.5276    0.2908   -2.5447 C   0  0  0  0  0  0  0  0  0  0  0  0
   -5.1979   -0.9428   -2.5684 C   0  0  0  0  0  0  0  0  0  0  0  0
   -4.8185   -1.9885   -1.7246 C   0  0  0  0  0  0  0  0  0  0  0  0
   -3.7583   -1.8447   -0.8280 C   0  0  0  0  0  0  0  0  0  0  0  0
   -3.0874   -0.6146   -0.7976 C   0  0  0  0  0  0  0  0  0  0  0  0
   -3.4534    0.4481   -1.6341 C   0  0  0  0  0  0  0  0  0  0  0  0
   -2.5773    1.5329   -1.3341 C   0  0  0  0  0  0  0  0  0  0  0  0
   -1.7131    1.1235   -0.3480 C   0  0  0  0  0  0  0  0  0  0  0  0
   -2.0283   -0.1757   -0.0277 N   0  0  0  0  0  0  0  0  0  0  0  0
   -1.3284   -0.9495    0.9914 C   0  0  0  0  0  0  0  0  0  0  0  0
   -1.9146   -0.7072    2.3819 C   0  0  0  0  0  0  0  0  0  0  0  0
   -1.1717   -1.4622    3.4799 C   0  0  0  0  0  0  0  0  0  0  0  0
    0.1676   -0.9479    3.6943 N   0  0  0  0  0  0  0  0  0  0  0  0
    1.2735   -1.5212    3.1001 C   0  0  0  0  0  0  0  0  0  0  0  0
    1.2265   -2.5304    2.3979 O   0  0  0  0  0  0  0  0  0  0  0  0
    2.5702   -0.7818    3.3468 C   0  0  0  0  0  0  0  0  0  0  0  0
    3.0925   -0.2322    2.0211 C   0  0  0  0  0  0  0  0  0  0  0  0
    4.4484    0.2677    2.1697 N   0  0  0  0  0  0  0  0  0  0  0  0
    5.3031    0.5093    1.1279 C   0  0  0  0  0  0  0  0  0  0  0  0
    6.5083    0.5862    1.3642 O   0  0  0  0  0  0  0  0  0  0  0  0
    4.7885    0.6702   -0.2590 C   0  0  0  0  0  0  0  0  0  0  0  0
    5.7269    0.4217   -1.2808 C   0  0  0  0  0  0  0  0  0  0  0  0
    5.4173    0.6612   -2.6194 C   0  0  0  0  0  0  0  0  0  0  0  0
    4.1719    1.1769   -2.9531 C   0  0  0  0  0  0  0  0  0  0  0  0
    3.2352    1.4366   -1.9501 C   0  0  0  0  0  0  0  0  0  0  0  0
    3.5169    1.1638   -0.5983 C   0  0  0  0  0  0  0  0  0  0  0  0
    2.4721    1.4595    0.2987 N   0  0  0  0  0  0  0  0  0  0  0  0
    2.2177    0.9307    1.5349 C   0  0  0  0  0  0  0  0  0  0  0  0
    1.2322    1.3344    2.1616 O   0  0  0  0  0  0  0  0  0  0  0  0
   -5.4964    0.3768   -5.0415 H   0  0  0  0  0  0  0  0  0  0  0  0
   -5.8871    2.0969   -4.9217 H   0  0  0  0  0  0  0  0  0  0  0  0
   -6.7967    0.9616   -3.9258 H   0  0  0  0  0  0  0  0  0  0  0  0
   -6.0357   -1.1167   -3.2360 H   0  0  0  0  0  0  0  0  0  0  0  0
   -5.3614   -2.9339   -1.7618 H   0  0  0  0  0  0  0  0  0  0  0  0
   -3.4749   -2.6659   -0.1781 H   0  0  0  0  0  0  0  0  0  0  0  0
   -2.5984    2.5095   -1.7964 H   0  0  0  0  0  0  0  0  0  0  0  0
   -0.9158    1.6481    0.1636 H   0  0  0  0  0  0  0  0  0  0  0  0
   -0.2776   -0.6496    0.9362 H   0  0  0  0  0  0  0  0  0  0  0  0
   -1.3773   -2.0081    0.7158 H   0  0  0  0  0  0  0  0  0  0  0  0
   -2.9662   -1.0212    2.3902 H   0  0  0  0  0  0  0  0  0  0  0  0
   -1.9087    0.3674    2.6085 H   0  0  0  0  0  0  0  0  0  0  0  0
   -1.7034   -1.3357    4.4271 H   0  0  0  0  0  0  0  0  0  0  0  0
   -1.1336   -2.5332    3.2575 H   0  0  0  0  0  0  0  0  0  0  0  0
    0.2464    0.0256    3.9776 H   0  0  0  0  0  0  0  0  0  0  0  0
    3.2787   -1.5028    3.7748 H   0  0  0  0  0  0  0  0  0  0  0  0
    2.4409    0.0110    4.0961 H   0  0  0  0  0  0  0  0  0  0  0  0
    3.0880   -1.0164    1.2509 H   0  0  0  0  0  0  0  0  0  0  0  0
    4.9503    0.0835    3.0333 H   0  0  0  0  0  0  0  0  0  0  0  0
    6.7217    0.0539   -1.0290 H   0  0  0  0  0  0  0  0  0  0  0  0
    6.1548    0.4627   -3.3925 H   0  0  0  0  0  0  0  0  0  0  0  0
    3.9265    1.3792   -3.9935 H   0  0  0  0  0  0  0  0  0  0  0  0
    2.2653    1.8325   -2.2462 H   0  0  0  0  0  0  0  0  0  0  0  0
    1.7201    2.0571   -0.0328 H   0  0  0  0  0  0  0  0  0  0  0  0
  1  2  1  0
  2  3  1  0
  3  4  2  0
  4  5  1  0
  5  6  2  0
  6  7  1  0
  7  8  2  0
  8  9  1  0
  9 10  2  0
 10 11  1  0
 11 12  1  0
 12 13  1  0
 13 14  1  0
 14 15  1  0
 15 16  1  0
 16 17  2  0
 16 18  1  0
 18 19  1  0
 19 20  1  0
 20 21  1  0
 21 22  2  0
 21 23  1  0
 23 24  2  0
 24 25  1  0
 25 26  2  0
 26 27  1  0
 27 28  2  0
 28 29  1  0
 29 30  1  0
 30 31  2  0
  8  3  1  0
 30 19  1  0
 11  7  1  0
 28 23  1  0
  1 32  1  0
  1 33  1  0
  1 34  1  0
  4 35  1  0
  5 36  1  0
  6 37  1  0
  9 38  1  0
 10 39  1  0
 12 40  1  0
 12 41  1  0
 13 42  1  0
 13 43  1  0
 14 44  1  0
 14 45  1  0
 15 46  1  0
 18 47  1  0
 18 48  1  0
 19 49  1  0
 20 50  1  0
 24 51  1  0
 25 52  1  0
 26 53  1  0
 27 54  1  0
 29 55  1  0
M  END
$$$$
