
     RDKit          3D

 64 69  0  0  0  0  0  0  0  0999 V2000
   -3.0017   -2.1253    3.4078 O   0  0  0  0  0  0  0  0  0  0  0  0
   -2.7998   -1.5529    2.3399 C   0  0  0  0  0  0  0  0  0  0  0  0
   -1.3932   -1.3368    1.9339 C   0  0  0  0  0  0  0  0  0  0  0  0
   -0.9052   -0.0485    1.7160 C   0  0  0  0  0  0  0  0  0  0  0  0
    0.4329    0.1308    1.3509 C   0  0  0  0  0  0  0  0  0  0  0  0
    1.3078   -0.9615    1.2088 C   0  0  0  0  0  0  0  0  0  0  0  0
    2.6318   -0.7074    0.8392 N   0  0  0  0  0  0  0  0  0  0  0  0
    3.7450   -1.5072    0.6007 C   0  0  0  0  0  0  0  0  0  0  0  0
    3.7232   -2.8352    0.7781 N   0  0  0  0  0  0  0  0  0  0  0  0
    4.8532   -3.5131    0.5187 C   0  0  0  0  0  0  0  0  0  0  0  0
    6.0100   -2.9180    0.0869 C   0  0  0  0  0  0  0  0  0  0  0  0
    5.9503   -1.5522   -0.0745 C   0  0  0  0  0  0  0  0  0  0  0  0
    7.1158   -0.7756   -0.5281 C   0  0  0  0  0  0  0  0  0  0  0  0
    8.4615   -1.0785   -0.4237 C   0  0  0  0  0  0  0  0  0  0  0  0
    9.3257   -0.0854   -0.9968 C   0  0  0  0  0  0  0  0  0  0  0  0
   10.7378   -0.0330   -1.0849 C   0  0  0  0  0  0  0  0  0  0  0  0
   11.3685    1.0538   -1.6983 C   0  0  0  0  0  0  0  0  0  0  0  0
   10.6156    2.0932   -2.2268 C   0  0  0  0  0  0  0  0  0  0  0  0
    9.2212    2.0684   -2.1523 C   0  0  0  0  0  0  0  0  0  0  0  0
    8.5909    0.9712   -1.5336 C   0  0  0  0  0  0  0  0  0  0  0  0
    6.9028    0.7270   -1.3277 S   0  0  0  0  0  0  0  0  0  0  0  0
    4.8315   -0.8425    0.1818 N   0  0  0  0  0  0  0  0  0  0  0  0
    0.8020   -2.2407    1.4726 C   0  0  0  0  0  0  0  0  0  0  0  0
   -0.5359   -2.4323    1.8392 C   0  0  0  0  0  0  0  0  0  0  0  0
   -3.8175   -1.0932    1.4966 N   0  0  0  0  0  0  0  0  0  0  0  0
   -5.1919   -1.3307    1.9097 C   0  0  0  0  0  0  0  0  0  0  0  0
   -6.1346   -0.2159    1.4575 C   0  0  0  0  0  0  0  0  0  0  0  0
   -5.7440    0.4309    0.1082 C   0  0  0  0  0  0  0  0  0  0  0  0
   -6.9476    0.8944   -0.6136 N   0  0  0  0  0  0  0  0  0  0  0  0
   -7.6870    1.9320    0.1185 C   0  0  0  0  0  0  0  0  0  0  0  0
   -8.6387    2.4845   -0.9278 C   0  0  0  0  0  0  0  0  0  0  0  0
   -7.9185    2.2915   -2.2538 C   0  0  0  0  0  0  0  0  0  0  0  0
   -6.6612    1.5018   -1.9180 C   0  0  0  0  0  0  0  0  0  0  0  0
   -4.8875   -0.5558   -0.7010 C   0  0  0  0  0  0  0  0  0  0  0  0
   -3.6024   -0.8742    0.0657 C   0  0  0  0  0  0  0  0  0  0  0  0
   -1.5562    0.8141    1.8366 H   0  0  0  0  0  0  0  0  0  0  0  0
    0.7936    1.1433    1.1856 H   0  0  0  0  0  0  0  0  0  0  0  0
    2.8760    0.2496    0.6273 H   0  0  0  0  0  0  0  0  0  0  0  0
    4.7950   -4.5869    0.6743 H   0  0  0  0  0  0  0  0  0  0  0  0
    6.8958   -3.5002   -0.1206 H   0  0  0  0  0  0  0  0  0  0  0  0
    8.8349   -1.9755    0.0548 H   0  0  0  0  0  0  0  0  0  0  0  0
   11.3382   -0.8409   -0.6747 H   0  0  0  0  0  0  0  0  0  0  0  0
   12.4536    1.0834   -1.7596 H   0  0  0  0  0  0  0  0  0  0  0  0
   11.1130    2.9359   -2.7015 H   0  0  0  0  0  0  0  0  0  0  0  0
    8.6326    2.8832   -2.5648 H   0  0  0  0  0  0  0  0  0  0  0  0
    1.4388   -3.1179    1.4060 H   0  0  0  0  0  0  0  0  0  0  0  0
   -0.9013   -3.4343    2.0520 H   0  0  0  0  0  0  0  0  0  0  0  0
   -5.4987   -2.2897    1.4728 H   0  0  0  0  0  0  0  0  0  0  0  0
   -5.2622   -1.4453    2.9973 H   0  0  0  0  0  0  0  0  0  0  0  0
   -6.1570    0.5703    2.2236 H   0  0  0  0  0  0  0  0  0  0  0  0
   -7.1489   -0.6349    1.4215 H   0  0  0  0  0  0  0  0  0  0  0  0
   -5.1119    1.3052    0.3260 H   0  0  0  0  0  0  0  0  0  0  0  0
   -7.0188    2.7283    0.4713 H   0  0  0  0  0  0  0  0  0  0  0  0
   -8.2399    1.5335    0.9751 H   0  0  0  0  0  0  0  0  0  0  0  0
   -8.8803    3.5354   -0.7431 H   0  0  0  0  0  0  0  0  0  0  0  0
   -9.5777    1.9192   -0.9311 H   0  0  0  0  0  0  0  0  0  0  0  0
   -8.5588    1.7401   -2.9511 H   0  0  0  0  0  0  0  0  0  0  0  0
   -7.6659    3.2499   -2.7174 H   0  0  0  0  0  0  0  0  0  0  0  0
   -6.4628    0.7499   -2.6879 H   0  0  0  0  0  0  0  0  0  0  0  0
   -5.8023    2.1826   -1.8648 H   0  0  0  0  0  0  0  0  0  0  0  0
   -4.6056   -0.1524   -1.6802 H   0  0  0  0  0  0  0  0  0  0  0  0
   -5.4533   -1.4781   -0.8883 H   0  0  0  0  0  0  0  0  0  0  0  0
   -2.9060   -0.0382   -0.0513 H   0  0  0  0  0  0  0  0  0  0  0  0
   -3.1248   -1.7654   -0.3574 H   0  0  0  0  0  0  0  0  0  0  0  0
  1  2  2  0
  2  3  1  0
  3  4  2  0
  4  5  1  0
  5  6  2  0
  6  7  1  0
  7  8  1  0
  8  9  2  0
  9 10  1  0
 10 11  2  0
 11 12  1  0
 12 13  1  0
 13 14  2  0
 14 15  1  0
 15 16  2  0
 16 17  1  0
 17 18  2  0
 18 19  1  0
 19 20  2  0
 20 21  1  0
 12 22  2  0
  6 23  1  0
 23 24  2  0
  2 25  1  0
 25 26  1  0
 26 27  1  0
 27 28  1  0
 28 29  1  0
 29 30  1  0
 30 31  1  0
 31 32  1  0
 32 33  1  0
 28 34  1  0
 34 35  1  0
 24  3  1  0
 35 25  1  0
 22  8  1  0
 33 29  1  0
 21 13  1  0
 20 15  1  0
  4 36  1  0
  5 37  1  0
  7 38  1  0
 10 39  1  0
 11 40  1  0
 14 41  1  0
 16 42  1  0
 17 43  1  0
 18 44  1  0
 19 45  1  0
 23 46  1  0
 24 47  1  0
 26 48  1  0
 26 49  1  0
 27 50  1  0
 27 51  1  0
 28 52  1  0
 30 53  1  0
 30 54  1  0
 31 55  1  0
 31 56  1  0
 32 57  1  0
 32 58  1  0
 33 59  1  0
 33 60  1  0
 34 61  1  0
 34 62  1  0
 35 63  1  0
 35 64  1  0
M  END
$$$$
