
     RDKit          3D

 49 52  0  0  0  0  0  0  0  0999 V2000
   -4.4074   -2.4921    1.1858 C   0  0  0  0  0  0  0  0  0  0  0  0
   -3.4104   -3.1795    0.2756 C   0  0  0  0  0  0  0  0  0  0  0  0
   -1.7114   -2.7789    0.6741 S   0  0  0  0  0  6  0  0  0  0  0  0
   -1.4774   -3.0825    2.0689 O   0  0  0  0  0  0  0  0  0  0  0  0
   -0.8475   -3.3185   -0.3550 O   0  0  0  0  0  0  0  0  0  0  0  0
   -1.6716   -1.0942    0.5041 N   0  0  0  0  0  0  0  0  0  0  0  0
   -1.8896   -0.5349   -0.8642 C   0  0  0  0  0  0  0  0  0  0  0  0
   -1.1079    0.7818   -0.9063 C   0  0  0  0  0  0  0  0  0  0  0  0
   -1.9018    1.9459   -0.4304 C   0  0  0  0  0  0  0  0  0  0  0  0
   -1.8422    3.1924   -0.8407 N   0  0  0  0  0  0  0  0  0  0  0  0
   -2.7650    3.8061   -0.0328 C   0  0  0  0  0  0  0  0  0  0  0  0
   -3.0598    5.2484   -0.1131 C   0  0  0  0  0  0  0  0  0  0  0  0
   -3.3738    2.9961    0.8416 N   0  0  0  0  0  0  0  0  0  0  0  0
   -2.7965    1.7535    0.5827 O   0  0  0  0  0  0  0  0  0  0  0  0
    0.0780    0.4834    0.0009 C   0  0  0  0  0  0  0  0  0  0  0  0
    1.0277    1.6149    0.4506 C   0  0  0  0  0  0  0  0  0  0  0  0
    2.1218    0.6717    0.1947 N   0  0  0  0  0  0  0  0  0  0  0  0
    3.4304    1.0671   -0.0203 C   0  0  0  0  0  0  0  0  0  0  0  0
    3.8017    2.2221    0.1729 O   0  0  0  0  0  0  0  0  0  0  0  0
    4.3424    0.0516   -0.5221 C   0  0  0  0  0  0  0  0  0  0  0  0
    5.4210    0.2631   -1.4332 C   0  0  0  0  0  0  0  0  0  0  0  0
    6.0239   -0.9550   -1.6238 C   0  0  0  0  0  0  0  0  0  0  0  0
    5.4153   -1.9030   -0.8711 O   0  0  0  0  0  0  0  0  0  0  0  0
    4.4111   -1.2907   -0.1789 C   0  0  0  0  0  0  0  0  0  0  0  0
    3.6861   -2.1636    0.7708 C   0  0  0  0  0  0  0  0  0  0  0  0
    1.3043   -0.1233   -0.7272 C   0  0  0  0  0  0  0  0  0  0  0  0
   -0.4747   -0.4255    1.0989 C   0  0  0  0  0  0  0  0  0  0  0  0
   -4.3456   -1.4032    1.0987 H   0  0  0  0  0  0  0  0  0  0  0  0
   -5.4268   -2.7938    0.9260 H   0  0  0  0  0  0  0  0  0  0  0  0
   -4.2325   -2.7543    2.2341 H   0  0  0  0  0  0  0  0  0  0  0  0
   -3.5807   -2.9139   -0.7718 H   0  0  0  0  0  0  0  0  0  0  0  0
   -3.5001   -4.2667    0.3683 H   0  0  0  0  0  0  0  0  0  0  0  0
   -2.9584   -0.4042   -1.0596 H   0  0  0  0  0  0  0  0  0  0  0  0
   -1.4783   -1.2161   -1.6174 H   0  0  0  0  0  0  0  0  0  0  0  0
   -0.7958    0.9960   -1.9356 H   0  0  0  0  0  0  0  0  0  0  0  0
   -4.1373    5.4204   -0.2016 H   0  0  0  0  0  0  0  0  0  0  0  0
   -2.6967    5.7639    0.7820 H   0  0  0  0  0  0  0  0  0  0  0  0
   -2.5731    5.6974   -0.9849 H   0  0  0  0  0  0  0  0  0  0  0  0
    1.0652    2.4958   -0.1989 H   0  0  0  0  0  0  0  0  0  0  0  0
    0.9505    1.9188    1.4974 H   0  0  0  0  0  0  0  0  0  0  0  0
    5.7078    1.1991   -1.8927 H   0  0  0  0  0  0  0  0  0  0  0  0
    6.8597   -1.2945   -2.2196 H   0  0  0  0  0  0  0  0  0  0  0  0
    3.1357   -1.5807    1.5147 H   0  0  0  0  0  0  0  0  0  0  0  0
    2.9787   -2.8047    0.2370 H   0  0  0  0  0  0  0  0  0  0  0  0
    4.3877   -2.8082    1.3099 H   0  0  0  0  0  0  0  0  0  0  0  0
    1.4417    0.1760   -1.7723 H   0  0  0  0  0  0  0  0  0  0  0  0
    1.4221   -1.2043   -0.6366 H   0  0  0  0  0  0  0  0  0  0  0  0
   -0.8218    0.1602    1.9582 H   0  0  0  0  0  0  0  0  0  0  0  0
    0.2715   -1.1395    1.4623 H   0  0  0  0  0  0  0  0  0  0  0  0
  1  2  1  0
  2  3  1  0
  3  4  2  0
  3  5  2  0
  3  6  1  0
  6  7  1  0
  7  8  1  0
  8  9  1  0
  9 10  2  0
 10 11  1  0
 11 12  1  0
 11 13  2  0
 13 14  1  0
  8 15  1  0
 15 16  1  0
 16 17  1  0
 17 18  1  0
 18 19  2  0
 18 20  1  0
 20 21  1  0
 21 22  2  0
 22 23  1  0
 23 24  1  0
 24 25  1  0
 17 26  1  0
 15 27  1  0
 27  6  1  0
 14  9  1  0
 26 15  1  0
 24 20  2  0
  1 28  1  0
  1 29  1  0
  1 30  1  0
  2 31  1  0
  2 32  1  0
  7 33  1  0
  7 34  1  0
  8 35  1  0
 12 36  1  0
 12 37  1  0
 12 38  1  0
 16 39  1  0
 16 40  1  0
 21 41  1  0
 22 42  1  0
 25 43  1  0
 25 44  1  0
 25 45  1  0
 26 46  1  0
 26 47  1  0
 27 48  1  0
 27 49  1  0
M  END
$$$$
