
     RDKit          3D

 74 77  0  0  0  0  0  0  0  0999 V2000
   11.2001    0.0233   -0.3977 C   0  0  0  0  0  0  0  0  0  0  0  0
   10.2662   -0.8856   -0.0834 C   0  0  0  0  0  0  0  0  0  0  0  0
    8.8657   -0.5729    0.3140 C   0  0  0  0  0  0  0  0  0  0  0  0
    8.3111   -1.3137    1.1162 O   0  0  0  0  0  0  0  0  0  0  0  0
    8.3210    0.5035   -0.3490 N   0  0  0  0  0  0  0  0  0  0  0  0
    7.0236    1.0352   -0.1870 C   0  0  0  0  0  0  0  0  0  0  0  0
    6.6205    2.0353   -1.0839 C   0  0  0  0  0  0  0  0  0  0  0  0
    5.3438    2.6000   -0.9988 C   0  0  0  0  0  0  0  0  0  0  0  0
    4.4544    2.1640   -0.0203 C   0  0  0  0  0  0  0  0  0  0  0  0
    4.8509    1.1663    0.8694 C   0  0  0  0  0  0  0  0  0  0  0  0
    4.0114    0.7296    1.8672 O   0  0  0  0  0  0  0  0  0  0  0  0
    2.8879    0.0679    1.3987 C   0  0  0  0  0  0  0  0  0  0  0  0
    1.7095    0.7289    1.4783 N   0  0  0  0  0  0  0  0  0  0  0  0
    0.5853    0.1206    1.0492 C   0  0  0  0  0  0  0  0  0  0  0  0
   -0.5600    0.9026    1.1907 N   0  0  0  0  0  0  0  0  0  0  0  0
   -1.9041    0.7368    0.8479 C   0  0  0  0  0  0  0  0  0  0  0  0
   -2.8226    1.7184    1.2389 C   0  0  0  0  0  0  0  0  0  0  0  0
   -4.1893    1.6119    0.9367 C   0  0  0  0  0  0  0  0  0  0  0  0
   -4.7128    0.5184    0.2321 C   0  0  0  0  0  0  0  0  0  0  0  0
   -6.0651    0.4496   -0.0688 N   0  0  0  0  0  0  0  0  0  0  0  0
   -6.5807   -0.4761   -1.0920 C   0  0  0  0  0  0  0  0  0  0  0  0
   -8.0065   -0.0681   -1.5359 C   0  0  0  0  0  0  0  0  0  0  0  0
   -9.0126    0.0215   -0.4528 N   0  0  0  0  0  0  0  0  0  0  0  0
   -9.8746   -1.1586   -0.4158 C   0  0  0  0  0  0  0  0  0  0  0  0
   -8.3653    0.2276    0.8614 C   0  0  0  0  0  0  0  0  0  0  0  0
   -7.0751    1.0819    0.8024 C   0  0  0  0  0  0  0  0  0  0  0  0
   -3.7722   -0.4562   -0.1521 C   0  0  0  0  0  0  0  0  0  0  0  0
   -4.1609   -1.5560   -0.8200 F   0  0  0  0  0  0  0  0  0  0  0  0
   -2.4081   -0.3570    0.1513 C   0  0  0  0  0  0  0  0  0  0  0  0
    0.5233   -1.1202    0.5416 N   0  0  0  0  0  0  0  0  0  0  0  0
    1.7048   -1.7487    0.5168 C   0  0  0  0  0  0  0  0  0  0  0  0
    1.9030   -3.0276    0.0726 N   0  0  0  0  0  0  0  0  0  0  0  0
    3.2279   -3.3618    0.2054 C   0  0  0  0  0  0  0  0  0  0  0  0
    3.8855   -2.2707    0.7359 C   0  0  0  0  0  0  0  0  0  0  0  0
    2.9227   -1.2419    0.9271 C   0  0  0  0  0  0  0  0  0  0  0  0
    6.1366    0.6235    0.8079 C   0  0  0  0  0  0  0  0  0  0  0  0
   -2.6365   -0.2286    0.7566 O   0  0  0  0  0  0  0  0  0  0  0  0
   -1.6511   -0.1928    0.0455 C   0  0  0  0  0  0  0  0  0  0  0  0
   -1.5141    0.6745   -0.9672 O   0  0  0  0  0  0  0  0  0  0  0  0
   -0.5466   -1.1533    0.0888 C   0  0  0  0  0  0  0  0  0  0  0  0
    0.7503   -0.8211    0.1255 C   0  0  0  0  0  0  0  0  0  0  0  0
    1.2509    0.5569    0.2209 C   0  0  0  0  0  0  0  0  0  0  0  0
    0.6671    1.5430    0.6212 O   0  0  0  0  0  0  0  0  0  0  0  0
    2.5339    0.5971   -0.1745 O   0  0  0  0  0  0  0  0  0  0  0  0
   11.0082    1.0910   -0.3900 H   0  0  0  0  0  0  0  0  0  0  0  0
   12.2104   -0.2966   -0.6349 H   0  0  0  0  0  0  0  0  0  0  0  0
   10.5173   -1.9410   -0.0270 H   0  0  0  0  0  0  0  0  0  0  0  0
    8.8774    0.9127   -1.0872 H   0  0  0  0  0  0  0  0  0  0  0  0
    7.2896    2.3859   -1.8646 H   0  0  0  0  0  0  0  0  0  0  0  0
    5.0430    3.3772   -1.6975 H   0  0  0  0  0  0  0  0  0  0  0  0
    3.4624    2.6050    0.0511 H   0  0  0  0  0  0  0  0  0  0  0  0
   -0.2994    1.7749    1.6278 H   0  0  0  0  0  0  0  0  0  0  0  0
   -2.4853    2.5969    1.7855 H   0  0  0  0  0  0  0  0  0  0  0  0
   -4.8375    2.4291    1.2458 H   0  0  0  0  0  0  0  0  0  0  0  0
   -6.5994   -1.4991   -0.6964 H   0  0  0  0  0  0  0  0  0  0  0  0
   -5.9401   -0.4564   -1.9817 H   0  0  0  0  0  0  0  0  0  0  0  0
   -8.3463   -0.7307   -2.3432 H   0  0  0  0  0  0  0  0  0  0  0  0
   -7.9440    0.9318   -1.9875 H   0  0  0  0  0  0  0  0  0  0  0  0
   -9.3075   -2.0812   -0.2410 H   0  0  0  0  0  0  0  0  0  0  0  0
  -10.6282   -1.0581    0.3719 H   0  0  0  0  0  0  0  0  0  0  0  0
  -10.4212   -1.2645   -1.3595 H   0  0  0  0  0  0  0  0  0  0  0  0
   -8.1012   -0.7408    1.3092 H   0  0  0  0  0  0  0  0  0  0  0  0
   -9.0819    0.7107    1.5349 H   0  0  0  0  0  0  0  0  0  0  0  0
   -7.3027    2.0865    0.4224 H   0  0  0  0  0  0  0  0  0  0  0  0
   -6.7067    1.1824    1.8317 H   0  0  0  0  0  0  0  0  0  0  0  0
   -1.7648   -1.1629   -0.1835 H   0  0  0  0  0  0  0  0  0  0  0  0
    1.1701   -3.6177   -0.2915 H   0  0  0  0  0  0  0  0  0  0  0  0
    3.5860   -4.3405   -0.0865 H   0  0  0  0  0  0  0  0  0  0  0  0
    4.9443   -2.2229    0.9612 H   0  0  0  0  0  0  0  0  0  0  0  0
    6.4117   -0.1234    1.5440 H   0  0  0  0  0  0  0  0  0  0  0  0
   -2.2866    1.2710   -0.8752 H   0  0  0  0  0  0  0  0  0  0  0  0
   -0.8524   -2.1923    0.1098 H   0  0  0  0  0  0  0  0  0  0  0  0
    1.5081   -1.5959    0.1265 H   0  0  0  0  0  0  0  0  0  0  0  0
    2.7770    1.5415   -0.0780 H   0  0  0  0  0  0  0  0  0  0  0  0
  1  2  2  3
  2  3  1  0
  3  4  2  0
  3  5  1  0
  5  6  1  0
  6  7  2  0
  7  8  1  0
  8  9  2  0
  9 10  1  0
 10 11  1  0
 11 12  1  0
 12 13  2  0
 13 14  1  0
 14 15  1  0
 15 16  1  0
 16 17  2  0
 17 18  1  0
 18 19  2  0
 19 20  1  0
 20 21  1  0
 21 22  1  0
 22 23  1  0
 23 24  1  0
 23 25  1  0
 25 26  1  0
 19 27  1  0
 27 28  1  0
 27 29  2  0
 14 30  2  0
 30 31  1  0
 31 32  1  0
 32 33  1  0
 33 34  2  0
 34 35  1  0
 10 36  2  0
 37 38  2  0
 38 39  1  0
 38 40  1  0
 40 41  2  0
 41 42  1  0
 42 43  2  0
 42 44  1  0
 36  6  1  0
 35 12  1  0
 29 16  1  0
 35 31  2  0
 26 20  1  0
  1 45  1  0
  1 46  1  0
  2 47  1  0
  5 48  1  0
  7 49  1  0
  8 50  1  0
  9 51  1  0
 15 52  1  0
 17 53  1  0
 18 54  1  0
 21 55  1  0
 21 56  1  0
 22 57  1  0
 22 58  1  0
 24 59  1  0
 24 60  1  0
 24 61  1  0
 25 62  1  0
 25 63  1  0
 26 64  1  0
 26 65  1  0
 29 66  1  0
 32 67  1  0
 33 68  1  0
 34 69  1  0
 36 70  1  0
 39 71  1  0
 40 72  1  0
 41 73  1  0
 44 74  1  0
M  END
$$$$
