
     RDKit          3D

 59 63  0  0  0  0  0  0  0  0999 V2000
    1.5262   -2.2355    0.9075 C   0  0  0  0  0  0  0  0  0  0  0  0
    2.1562   -0.9582    0.4146 C   0  0  0  0  0  0  0  0  0  0  0  0
    3.5383   -0.7641    0.6416 C   0  0  0  0  0  0  0  0  0  0  0  0
    4.2270    0.3801    0.2164 C   0  0  0  0  0  0  0  0  0  0  0  0
    5.5784    0.5502    0.4515 N   0  0  0  0  0  0  0  0  0  0  0  0
    6.2744   -0.1572    1.5388 C   0  0  0  0  0  0  0  0  0  0  0  0
    7.4446    0.6937    2.0623 C   0  0  0  0  0  0  0  0  0  0  0  0
    8.4206    1.0242    1.0646 O   0  0  0  0  0  0  0  0  0  0  0  0
    7.8684    1.1261   -0.2557 C   0  0  0  0  0  0  0  0  0  0  0  0
    6.3852    1.5332   -0.2877 C   0  0  0  0  0  0  0  0  0  0  0  0
    3.4639    1.3305   -0.4666 C   0  0  0  0  0  0  0  0  0  0  0  0
    2.0896    1.1594   -0.6988 C   0  0  0  0  0  0  0  0  0  0  0  0
    1.4031    0.0275   -0.2553 C   0  0  0  0  0  0  0  0  0  0  0  0
    0.0367   -0.1703   -0.4885 N   0  0  0  0  0  0  0  0  0  0  0  0
   -0.9545    0.5265   -1.1785 C   0  0  0  0  0  0  0  0  0  0  0  0
   -2.1945    0.0110   -0.9996 N   0  0  0  0  0  0  0  0  0  0  0  0
   -3.2744    0.5598   -1.6190 C   0  0  0  0  0  0  0  0  0  0  0  0
   -4.5594    0.0276   -1.4533 N   0  0  0  0  0  0  0  0  0  0  0  0
   -4.8449   -0.5965   -0.1645 C   0  0  0  0  0  0  0  0  0  0  0  0
   -6.3394   -0.4039    0.1684 C   0  0  0  0  0  0  0  0  0  0  0  0
   -6.9058   -1.4736    1.1070 C   0  0  0  0  0  0  0  0  0  0  0  0
   -5.8298   -2.0927    1.9879 C   0  0  0  0  0  0  0  0  0  0  0  0
   -4.7310   -2.7569    1.1567 C   0  0  0  0  0  0  0  0  0  0  0  0
   -4.5061   -2.0907   -0.2036 C   0  0  0  0  0  0  0  0  0  0  0  0
   -3.0472    1.6780   -2.4363 C   0  0  0  0  0  0  0  0  0  0  0  0
   -3.8869    2.4832   -3.1816 N   0  0  0  0  0  0  0  0  0  0  0  0
   -3.0908    3.3750   -3.7339 C   0  0  0  0  0  0  0  0  0  0  0  0
   -1.7841    3.1865   -3.3721 N   0  0  0  0  0  0  0  0  0  0  0  0
   -1.7410    2.1097   -2.5359 C   0  0  0  0  0  0  0  0  0  0  0  0
   -0.6602    1.5920   -1.9453 N   0  0  0  0  0  0  0  0  0  0  0  0
    1.0612   -2.7763    0.0767 H   0  0  0  0  0  0  0  0  0  0  0  0
    0.7727   -2.0155    1.6707 H   0  0  0  0  0  0  0  0  0  0  0  0
    2.2657   -2.9057    1.3585 H   0  0  0  0  0  0  0  0  0  0  0  0
    4.0864   -1.5563    1.1460 H   0  0  0  0  0  0  0  0  0  0  0  0
    5.6032   -0.3553    2.3823 H   0  0  0  0  0  0  0  0  0  0  0  0
    6.6505   -1.1123    1.1546 H   0  0  0  0  0  0  0  0  0  0  0  0
    7.9643    0.1634    2.8668 H   0  0  0  0  0  0  0  0  0  0  0  0
    7.0702    1.6348    2.4822 H   0  0  0  0  0  0  0  0  0  0  0  0
    8.4704    1.8554   -0.8075 H   0  0  0  0  0  0  0  0  0  0  0  0
    8.0045    0.1544   -0.7448 H   0  0  0  0  0  0  0  0  0  0  0  0
    6.2599    2.5197    0.1735 H   0  0  0  0  0  0  0  0  0  0  0  0
    6.0742    1.5901   -1.3372 H   0  0  0  0  0  0  0  0  0  0  0  0
    3.9139    2.2533   -0.8198 H   0  0  0  0  0  0  0  0  0  0  0  0
    1.5719    1.9542   -1.2255 H   0  0  0  0  0  0  0  0  0  0  0  0
   -0.4089   -0.9334   -0.0018 H   0  0  0  0  0  0  0  0  0  0  0  0
   -5.2410    0.7139   -1.7764 H   0  0  0  0  0  0  0  0  0  0  0  0
   -4.2652   -0.1111    0.6338 H   0  0  0  0  0  0  0  0  0  0  0  0
   -6.4664    0.5871    0.6239 H   0  0  0  0  0  0  0  0  0  0  0  0
   -6.9508   -0.3897   -0.7438 H   0  0  0  0  0  0  0  0  0  0  0  0
   -7.6988   -1.0375    1.7251 H   0  0  0  0  0  0  0  0  0  0  0  0
   -7.3769   -2.2645    0.5094 H   0  0  0  0  0  0  0  0  0  0  0  0
   -6.2715   -2.8289    2.6688 H   0  0  0  0  0  0  0  0  0  0  0  0
   -5.3875   -1.3109    2.6187 H   0  0  0  0  0  0  0  0  0  0  0  0
   -4.9757   -3.8136    0.9936 H   0  0  0  0  0  0  0  0  0  0  0  0
   -3.7987   -2.7446    1.7344 H   0  0  0  0  0  0  0  0  0  0  0  0
   -5.1342   -2.5862   -0.9571 H   0  0  0  0  0  0  0  0  0  0  0  0
   -3.4714   -2.2659   -0.5197 H   0  0  0  0  0  0  0  0  0  0  0  0
   -3.3975    4.1733   -4.3972 H   0  0  0  0  0  0  0  0  0  0  0  0
   -0.9869    3.7336   -3.6597 H   0  0  0  0  0  0  0  0  0  0  0  0
  1  2  1  0
  2  3  2  0
  3  4  1  0
  4  5  1  0
  5  6  1  0
  6  7  1  0
  7  8  1  0
  8  9  1  0
  9 10  1  0
  4 11  2  0
 11 12  1  0
 12 13  2  0
 13 14  1  0
 14 15  1  0
 15 16  2  0
 16 17  1  0
 17 18  1  0
 18 19  1  0
 19 20  1  0
 20 21  1  0
 21 22  1  0
 22 23  1  0
 23 24  1  0
 17 25  2  0
 25 26  1  0
 26 27  2  0
 27 28  1  0
 28 29  1  0
 29 30  2  0
 13  2  1  0
 30 15  1  0
 10  5  1  0
 24 19  1  0
 29 25  1  0
  1 31  1  0
  1 32  1  0
  1 33  1  0
  3 34  1  0
  6 35  1  0
  6 36  1  0
  7 37  1  0
  7 38  1  0
  9 39  1  0
  9 40  1  0
 10 41  1  0
 10 42  1  0
 11 43  1  0
 12 44  1  0
 14 45  1  0
 18 46  1  0
 19 47  1  0
 20 48  1  0
 20 49  1  0
 21 50  1  0
 21 51  1  0
 22 52  1  0
 22 53  1  0
 23 54  1  0
 23 55  1  0
 24 56  1  0
 24 57  1  0
 27 58  1  0
 28 59  1  0
M  END
$$$$
