
     RDKit          3D

 60 64  0  0  0  0  0  0  0  0999 V2000
   -0.7126   -1.8938    1.7272 C   0  0  0  0  0  0  0  0  0  0  0  0
   -1.3182   -0.8418    0.8406 C   0  0  0  0  0  0  0  0  0  0  0  0
   -2.7094   -0.8205    0.6509 C   0  0  0  0  0  0  0  0  0  0  0  0
   -3.3063    0.1376   -0.1725 C   0  0  0  0  0  0  0  0  0  0  0  0
   -4.7059    0.1210   -0.3405 N   0  0  0  0  0  0  0  0  0  0  0  0
   -5.4154    0.4765    0.9044 C   0  0  0  0  0  0  0  0  0  0  0  0
   -6.9532    0.3489    0.7242 C   0  0  2  0  0  0  0  0  0  0  0  0
   -7.4125   -1.1078    0.8275 C   0  0  0  0  0  0  0  0  0  0  0  0
   -7.5018    1.0200   -0.4795 N   0  0  0  0  0  0  0  0  0  0  0  0
   -6.6824    0.8023   -1.6989 C   0  0  2  0  0  0  0  0  0  0  0  0
   -7.0357   -0.5089   -2.4051 C   0  0  0  0  0  0  0  0  0  0  0  0
   -5.1520    0.9439   -1.4826 C   0  0  0  0  0  0  0  0  0  0  0  0
   -2.5564    1.0489   -0.8228 N   0  0  0  0  0  0  0  0  0  0  0  0
   -1.2139    1.0144   -0.6428 C   0  0  0  0  0  0  0  0  0  0  0  0
   -0.5343    0.1057    0.1671 C   0  0  0  0  0  0  0  0  0  0  0  0
    0.9262    0.1656    0.2757 C   0  0  0  0  0  0  0  0  0  0  0  0
    1.5445    1.1184    1.1003 C   0  0  0  0  0  0  0  0  0  0  0  0
    2.9384    1.1823    1.2051 C   0  0  0  0  0  0  0  0  0  0  0  0
    3.7357    0.2855    0.4852 C   0  0  0  0  0  0  0  0  0  0  0  0
    5.2212    0.3177    0.5685 C   0  0  0  0  0  0  0  0  0  0  0  0
    5.9450   -0.0296   -0.4599 N   0  0  0  0  0  0  0  0  0  0  0  0
    7.2806    0.0456   -0.2412 C   0  0  0  0  0  0  0  0  0  0  0  0
    7.9227    0.4198    0.9186 C   0  0  0  0  0  0  0  0  0  0  0  0
    9.3151    0.3485    0.6926 C   0  0  0  0  0  0  0  0  0  0  0  0
    9.4861   -0.0679   -0.6136 C   0  0  0  0  0  0  0  0  0  0  0  0
    8.2417   -0.2479   -1.1710 N   0  0  0  0  0  0  0  0  0  0  0  0
    7.9802   -0.6776   -2.5242 C   0  0  0  0  0  0  0  0  0  0  0  0
    7.1156    0.7791    2.0547 C   0  0  0  0  0  0  0  0  0  0  0  0
    7.5566    1.1035    3.1517 O   0  0  0  0  0  0  0  0  0  0  0  0
    5.7605    0.7146    1.7907 N   0  0  0  0  0  0  0  0  0  0  0  0
    3.1295   -0.6555   -0.3542 C   0  0  0  0  0  0  0  0  0  0  0  0
    1.7366   -0.7165   -0.4540 C   0  0  0  0  0  0  0  0  0  0  0  0
   -0.0278   -1.4430    2.4526 H   0  0  0  0  0  0  0  0  0  0  0  0
   -1.4815   -2.4234    2.3001 H   0  0  0  0  0  0  0  0  0  0  0  0
   -0.1740   -2.6325    1.1255 H   0  0  0  0  0  0  0  0  0  0  0  0
   -3.3343   -1.5696    1.1285 H   0  0  0  0  0  0  0  0  0  0  0  0
   -5.1065   -0.1601    1.7425 H   0  0  0  0  0  0  0  0  0  0  0  0
   -5.1769    1.5140    1.1780 H   0  0  0  0  0  0  0  0  0  0  0  0
   -7.4129    0.8578    1.5822 H   0  0  0  0  0  0  0  0  0  0  0  0
   -8.4836   -1.2011    0.6178 H   0  0  0  0  0  0  0  0  0  0  0  0
   -7.2480   -1.4805    1.8452 H   0  0  0  0  0  0  0  0  0  0  0  0
   -6.8674   -1.7723    0.1539 H   0  0  0  0  0  0  0  0  0  0  0  0
   -7.4761    2.0236   -0.2917 H   0  0  0  0  0  0  0  0  0  0  0  0
   -6.9765    1.5961   -2.3987 H   0  0  0  0  0  0  0  0  0  0  0  0
   -8.1209   -0.6407   -2.4750 H   0  0  0  0  0  0  0  0  0  0  0  0
   -6.6106   -1.3844   -1.9100 H   0  0  0  0  0  0  0  0  0  0  0  0
   -6.6437   -0.4997   -3.4286 H   0  0  0  0  0  0  0  0  0  0  0  0
   -4.6332    0.6428   -2.4022 H   0  0  0  0  0  0  0  0  0  0  0  0
   -4.9271    2.0037   -1.2973 H   0  0  0  0  0  0  0  0  0  0  0  0
   -0.6716    1.7736   -1.2022 H   0  0  0  0  0  0  0  0  0  0  0  0
    0.9369    1.8237    1.6657 H   0  0  0  0  0  0  0  0  0  0  0  0
    3.3764    1.9571    1.8277 H   0  0  0  0  0  0  0  0  0  0  0  0
   10.1019    0.5750    1.4006 H   0  0  0  0  0  0  0  0  0  0  0  0
   10.3872   -0.2487   -1.1851 H   0  0  0  0  0  0  0  0  0  0  0  0
    7.4145    0.1067   -3.0336 H   0  0  0  0  0  0  0  0  0  0  0  0
    8.9269   -0.8476   -3.0431 H   0  0  0  0  0  0  0  0  0  0  0  0
    7.4060   -1.6070   -2.4882 H   0  0  0  0  0  0  0  0  0  0  0  0
    5.1746    0.9116    2.5856 H   0  0  0  0  0  0  0  0  0  0  0  0
    3.7374   -1.3491   -0.9320 H   0  0  0  0  0  0  0  0  0  0  0  0
    1.2843   -1.4576   -1.1113 H   0  0  0  0  0  0  0  0  0  0  0  0
  1  2  1  0
  2  3  2  0
  3  4  1  0
  4  5  1  0
  5  6  1  0
  6  7  1  0
  7  8  1  0
  7  9  1  0
  9 10  1  0
 10 11  1  0
 10 12  1  0
  4 13  2  0
 13 14  1  0
 14 15  2  0
 15 16  1  0
 16 17  2  0
 17 18  1  0
 18 19  2  0
 19 20  1  0
 20 21  2  0
 21 22  1  0
 22 23  2  0
 23 24  1  0
 24 25  2  0
 25 26  1  0
 26 27  1  0
 23 28  1  0
 28 29  2  0
 28 30  1  0
 19 31  1  0
 31 32  2  0
 15  2  1  0
 32 16  1  0
 12  5  1  0
 30 20  1  0
 26 22  1  0
  1 33  1  0
  1 34  1  0
  1 35  1  0
  3 36  1  0
  6 37  1  0
  6 38  1  0
  7 39  1  1
  8 40  1  0
  8 41  1  0
  8 42  1  0
  9 43  1  0
 10 44  1  6
 11 45  1  0
 11 46  1  0
 11 47  1  0
 12 48  1  0
 12 49  1  0
 14 50  1  0
 17 51  1  0
 18 52  1  0
 24 53  1  0
 25 54  1  0
 27 55  1  0
 27 56  1  0
 27 57  1  0
 30 58  1  0
 31 59  1  0
 32 60  1  0
M  END
$$$$
