
     RDKit          3D

 39 41  0  0  0  0  0  0  0  0999 V2000
    4.2823   -0.0109    2.5368 C   0  0  0  0  0  0  0  0  0  0  0  0
    3.7192   -0.0022    1.1458 C   0  0  0  0  0  0  0  0  0  0  0  0
    3.9212   -1.0952    0.2936 C   0  0  0  0  0  0  0  0  0  0  0  0
    3.3630   -1.1114   -0.9871 C   0  0  0  0  0  0  0  0  0  0  0  0
    2.5876   -0.0388   -1.4270 C   0  0  0  0  0  0  0  0  0  0  0  0
    1.9691   -0.0949   -2.7233 N   0  0  0  0  0  0  0  0  0  0  0  0
    0.6652   -1.1705   -2.8867 S   0  0  0  0  0  6  0  0  0  0  0  0
    0.0372   -0.8690   -4.1555 O   0  0  0  0  0  0  0  0  0  0  0  0
    1.0731   -2.5109   -2.5305 O   0  0  0  0  0  0  0  0  0  0  0  0
   -0.5297   -0.7406   -1.7116 C   0  0  0  0  0  0  0  0  0  0  0  0
   -0.5773   -1.1828   -0.3740 C   0  0  0  0  0  0  0  0  0  0  0  0
   -1.6528   -0.5714    0.2737 C   0  0  0  0  0  0  0  0  0  0  0  0
   -2.2619    0.2228   -0.6800 N   0  0  0  0  0  0  0  0  0  0  0  0
   -1.5812    0.1287   -1.8774 C   0  0  0  0  0  0  0  0  0  0  0  0
   -3.4580    1.0375   -0.5824 C   0  0  0  0  0  0  0  0  0  0  0  0
   -3.8348    1.5371    0.7971 C   0  0  0  0  0  0  0  0  0  0  0  0
   -4.1985    0.3780    1.6976 C   0  0  0  0  0  0  0  0  0  0  0  0
   -3.0419   -0.2410    2.2839 N   0  0  0  0  0  0  0  0  0  0  0  0
   -1.9476   -0.7881    1.6796 C   0  0  0  0  0  0  0  0  0  0  0  0
   -1.2146   -1.4636    2.4047 O   0  0  0  0  0  0  0  0  0  0  0  0
    2.3744    1.0540   -0.5739 C   0  0  0  0  0  0  0  0  0  0  0  0
    1.4161    2.4022   -1.0776 Cl  0  0  0  0  0  0  0  0  0  0  0  0
    2.9326    1.0704    0.7061 C   0  0  0  0  0  0  0  0  0  0  0  0
    5.2185   -0.5776    2.5757 H   0  0  0  0  0  0  0  0  0  0  0  0
    4.5048    1.0070    2.8740 H   0  0  0  0  0  0  0  0  0  0  0  0
    3.5648   -0.4641    3.2276 H   0  0  0  0  0  0  0  0  0  0  0  0
    4.5102   -1.9491    0.6241 H   0  0  0  0  0  0  0  0  0  0  0  0
    3.5313   -1.9716   -1.6317 H   0  0  0  0  0  0  0  0  0  0  0  0
    1.6775    0.8209   -3.0709 H   0  0  0  0  0  0  0  0  0  0  0  0
    0.1125   -1.8743    0.0993 H   0  0  0  0  0  0  0  0  0  0  0  0
   -1.9020    0.6808   -2.7530 H   0  0  0  0  0  0  0  0  0  0  0  0
   -3.3043    1.9088   -1.2317 H   0  0  0  0  0  0  0  0  0  0  0  0
   -4.2714    0.4445   -1.0185 H   0  0  0  0  0  0  0  0  0  0  0  0
   -3.0265    2.1389    1.2299 H   0  0  0  0  0  0  0  0  0  0  0  0
   -4.7089    2.1910    0.6934 H   0  0  0  0  0  0  0  0  0  0  0  0
   -4.8059    0.7423    2.5332 H   0  0  0  0  0  0  0  0  0  0  0  0
   -4.7767   -0.3912    1.1743 H   0  0  0  0  0  0  0  0  0  0  0  0
   -3.1171   -0.5614    3.2423 H   0  0  0  0  0  0  0  0  0  0  0  0
    2.7505    1.9157    1.3657 H   0  0  0  0  0  0  0  0  0  0  0  0
  1  2  1  0
  2  3  2  0
  3  4  1  0
  4  5  2  0
  5  6  1  0
  6  7  1  0
  7  8  2  0
  7  9  2  0
  7 10  1  0
 10 11  1  0
 11 12  2  0
 12 13  1  0
 13 14  1  0
 13 15  1  0
 15 16  1  0
 16 17  1  0
 17 18  1  0
 18 19  1  0
 19 20  2  0
  5 21  1  0
 21 22  1  0
 21 23  2  0
 23  2  1  0
 14 10  2  0
 19 12  1  0
  1 24  1  0
  1 25  1  0
  1 26  1  0
  3 27  1  0
  4 28  1  0
  6 29  1  0
 11 30  1  0
 14 31  1  0
 15 32  1  0
 15 33  1  0
 16 34  1  0
 16 35  1  0
 17 36  1  0
 17 37  1  0
 18 38  1  0
 23 39  1  0
M  END
$$$$
