
     RDKit          3D

 39 41  0  0  0  0  0  0  0  0999 V2000
   -2.6250    2.3709   -0.2038 O   0  0  0  0  0  0  0  0  0  0  0  0
   -2.2910    1.2196   -0.4956 C   0  0  0  0  0  0  0  0  0  0  0  0
   -3.3328    0.1770   -0.9781 C   0  0  0  0  0  0  0  0  0  0  0  0
   -4.7661    0.6825   -0.8812 C   0  0  0  0  0  0  0  0  0  0  0  0
   -5.1613    0.2493    0.5084 C   0  0  0  0  0  0  0  0  0  0  0  0
   -4.4597   -1.0840    0.6326 C   0  0  0  0  0  0  0  0  0  0  0  0
   -3.2898   -1.0271   -0.1959 O   0  0  0  0  0  0  0  0  0  0  0  0
   -0.9603    0.8219   -0.4434 N   0  0  0  0  0  0  0  0  0  0  0  0
   -0.4765   -0.5205   -0.7830 C   0  0  0  0  0  0  0  0  0  0  0  0
    1.0238   -0.5560   -1.1348 C   0  0  0  0  0  0  0  0  0  0  0  0
    1.8521    0.0426   -0.0729 N   0  0  0  0  0  0  0  0  0  0  0  0
    3.1753   -0.3253    0.1095 C   0  0  0  0  0  0  0  0  0  0  0  0
    3.9191   -0.9426   -0.9094 C   0  0  0  0  0  0  0  0  0  0  0  0
    5.2577   -1.3164   -0.7319 C   0  0  0  0  0  0  0  0  0  0  0  0
    5.8946   -1.0819    0.4832 C   0  0  0  0  0  0  0  0  0  0  0  0
    7.5445   -1.5651    0.6398 Cl  0  0  0  0  0  0  0  0  0  0  0  0
    5.1853   -0.4722    1.5165 C   0  0  0  0  0  0  0  0  0  0  0  0
    5.8951   -0.1486    3.0601 Cl  0  0  0  0  0  0  0  0  0  0  0  0
    3.8456   -0.1017    1.3242 C   0  0  0  0  0  0  0  0  0  0  0  0
    1.2147    1.0666    0.7773 C   0  0  0  0  0  0  0  0  0  0  0  0
    0.0447    1.7614    0.0575 C   0  0  0  0  0  0  0  0  0  0  0  0
   -3.0954   -0.0619   -2.0207 H   0  0  0  0  0  0  0  0  0  0  0  0
   -4.8881    1.7558   -1.0486 H   0  0  0  0  0  0  0  0  0  0  0  0
   -5.3908    0.1552   -1.6130 H   0  0  0  0  0  0  0  0  0  0  0  0
   -4.7636    0.9532    1.2488 H   0  0  0  0  0  0  0  0  0  0  0  0
   -6.2422    0.1767    0.6554 H   0  0  0  0  0  0  0  0  0  0  0  0
   -5.0899   -1.8988    0.2608 H   0  0  0  0  0  0  0  0  0  0  0  0
   -4.1703   -1.3113    1.6625 H   0  0  0  0  0  0  0  0  0  0  0  0
   -1.0515   -0.9254   -1.6203 H   0  0  0  0  0  0  0  0  0  0  0  0
   -0.6600   -1.1529    0.0939 H   0  0  0  0  0  0  0  0  0  0  0  0
    1.2954   -1.6055   -1.2999 H   0  0  0  0  0  0  0  0  0  0  0  0
    1.1941   -0.0067   -2.0687 H   0  0  0  0  0  0  0  0  0  0  0  0
    3.4754   -1.1263   -1.8847 H   0  0  0  0  0  0  0  0  0  0  0  0
    5.7932   -1.7857   -1.5535 H   0  0  0  0  0  0  0  0  0  0  0  0
    3.3187    0.3496    2.1608 H   0  0  0  0  0  0  0  0  0  0  0  0
    0.8491    0.5880    1.6940 H   0  0  0  0  0  0  0  0  0  0  0  0
    1.9347    1.8443    1.0586 H   0  0  0  0  0  0  0  0  0  0  0  0
    0.4191    2.3105   -0.8152 H   0  0  0  0  0  0  0  0  0  0  0  0
   -0.4178    2.4906    0.7313 H   0  0  0  0  0  0  0  0  0  0  0  0
  1  2  2  0
  2  3  1  0
  3  4  1  0
  4  5  1  0
  5  6  1  0
  6  7  1  0
  2  8  1  0
  8  9  1  0
  9 10  1  0
 10 11  1  0
 11 12  1  0
 12 13  2  0
 13 14  1  0
 14 15  2  0
 15 16  1  0
 15 17  1  0
 17 18  1  0
 17 19  2  0
 11 20  1  0
 20 21  1  0
  7  3  1  0
 21  8  1  0
 19 12  1  0
  3 22  1  0
  4 23  1  0
  4 24  1  0
  5 25  1  0
  5 26  1  0
  6 27  1  0
  6 28  1  0
  9 29  1  0
  9 30  1  0
 10 31  1  0
 10 32  1  0
 13 33  1  0
 14 34  1  0
 19 35  1  0
 20 36  1  0
 20 37  1  0
 21 38  1  0
 21 39  1  0
M  END
$$$$
