
     RDKit          3D

 50 52  0  0  0  0  0  0  0  0999 V2000
   -6.3193   -0.8607   -1.5070 C   0  0  0  0  0  0  0  0  0  0  0  0
   -4.8421   -0.4774   -1.4649 C   0  0  0  0  0  0  0  0  0  0  0  0
   -4.2941   -0.0926   -0.1516 N   0  0  0  0  0  0  0  0  0  0  0  0
   -4.9259    1.1378    0.3555 C   0  0  0  0  0  0  0  0  0  0  0  0
   -4.0359    1.8716    1.3552 C   0  0  0  0  0  0  0  0  0  0  0  0
   -4.3477   -1.1848    0.8515 C   0  0  0  0  0  0  0  0  0  0  0  0
   -3.3917   -2.3490    0.5251 C   0  0  0  0  0  0  0  0  0  0  0  0
   -2.0343   -1.8699    0.3303 N   0  0  0  0  0  0  0  0  0  0  0  0
   -1.2098   -1.6528    1.4251 C   0  0  0  0  0  0  0  0  0  0  0  0
   -1.5042   -2.0592    2.5476 O   0  0  0  0  0  0  0  0  0  0  0  0
    0.0199   -0.8832    1.1322 C   0  0  0  0  0  0  0  0  0  0  0  0
    0.5771   -0.5544   -0.1597 C   0  0  0  0  0  0  0  0  0  0  0  0
    1.7026    0.1642    0.1257 C   0  0  0  0  0  0  0  0  0  0  0  0
    1.7830    0.2045    1.4709 N   0  0  0  0  0  0  0  0  0  0  0  0
    0.7905   -0.3744    2.1267 N   0  0  0  0  0  0  0  0  0  0  0  0
    2.9046    0.9533    2.0015 C   0  0  0  0  0  0  0  0  0  0  0  0
    3.7756    1.1489    0.7343 C   0  0  1  0  0  0  0  0  0  0  0  0
    4.8253    0.1689    0.7760 O   0  0  0  0  0  0  0  0  0  0  0  0
    5.9420    0.3692    0.0142 C   0  0  0  0  0  0  0  0  0  0  0  0
    6.9460   -0.5778    0.2005 C   0  0  0  0  0  0  0  0  0  0  0  0
    8.1135   -0.4609   -0.5331 C   0  0  0  0  0  0  0  0  0  0  0  0
    8.3373    0.5234   -1.4275 N   0  0  0  0  0  0  0  0  0  0  0  0
    7.3476    1.4253   -1.5927 C   0  0  0  0  0  0  0  0  0  0  0  0
    6.1439    1.3932   -0.9039 C   0  0  0  0  0  0  0  0  0  0  0  0
    2.8300    0.8892   -0.4869 C   0  0  0  0  0  0  0  0  0  0  0  0
   -6.9600   -0.0544   -1.1375 H   0  0  0  0  0  0  0  0  0  0  0  0
   -6.5221   -1.7634   -0.9237 H   0  0  0  0  0  0  0  0  0  0  0  0
   -6.6166   -1.0682   -2.5408 H   0  0  0  0  0  0  0  0  0  0  0  0
   -4.6802    0.3530   -2.1647 H   0  0  0  0  0  0  0  0  0  0  0  0
   -4.2519   -1.3010   -1.8831 H   0  0  0  0  0  0  0  0  0  0  0  0
   -5.9051    0.9316    0.8049 H   0  0  0  0  0  0  0  0  0  0  0  0
   -5.0973    1.8346   -0.4752 H   0  0  0  0  0  0  0  0  0  0  0  0
   -3.0417    2.0583    0.9345 H   0  0  0  0  0  0  0  0  0  0  0  0
   -4.4802    2.8412    1.6056 H   0  0  0  0  0  0  0  0  0  0  0  0
   -3.9159    1.3164    2.2899 H   0  0  0  0  0  0  0  0  0  0  0  0
   -4.0423   -0.7978    1.8302 H   0  0  0  0  0  0  0  0  0  0  0  0
   -5.3672   -1.5641    0.9819 H   0  0  0  0  0  0  0  0  0  0  0  0
   -3.4108   -3.0828    1.3383 H   0  0  0  0  0  0  0  0  0  0  0  0
   -3.6909   -2.8648   -0.3923 H   0  0  0  0  0  0  0  0  0  0  0  0
   -1.9246   -1.2298   -0.4439 H   0  0  0  0  0  0  0  0  0  0  0  0
    0.1962   -0.8196   -1.1349 H   0  0  0  0  0  0  0  0  0  0  0  0
    2.5055    1.8991    2.3794 H   0  0  0  0  0  0  0  0  0  0  0  0
    3.3850    0.3666    2.7884 H   0  0  0  0  0  0  0  0  0  0  0  0
    4.1990    2.1598    0.7422 H   0  0  0  0  0  0  0  0  0  0  0  0
    6.8195   -1.3930    0.9048 H   0  0  0  0  0  0  0  0  0  0  0  0
    8.9217   -1.1771   -0.4170 H   0  0  0  0  0  0  0  0  0  0  0  0
    7.5526    2.2043   -2.3220 H   0  0  0  0  0  0  0  0  0  0  0  0
    5.4089    2.1583   -1.1122 H   0  0  0  0  0  0  0  0  0  0  0  0
    3.3078    0.3001   -1.2745 H   0  0  0  0  0  0  0  0  0  0  0  0
    2.4765    1.8403   -0.8988 H   0  0  0  0  0  0  0  0  0  0  0  0
  1  2  1  0
  2  3  1  0
  3  4  1  0
  4  5  1  0
  3  6  1  0
  6  7  1  0
  7  8  1  0
  8  9  1  0
  9 10  2  0
  9 11  1  0
 11 12  1  0
 12 13  2  0
 13 14  1  0
 14 15  1  0
 14 16  1  0
 16 17  1  0
 17 18  1  0
 18 19  1  0
 19 20  2  0
 20 21  1  0
 21 22  2  0
 22 23  1  0
 23 24  2  0
 17 25  1  0
 15 11  2  0
 24 19  1  0
 25 13  1  0
  1 26  1  0
  1 27  1  0
  1 28  1  0
  2 29  1  0
  2 30  1  0
  4 31  1  0
  4 32  1  0
  5 33  1  0
  5 34  1  0
  5 35  1  0
  6 36  1  0
  6 37  1  0
  7 38  1  0
  7 39  1  0
  8 40  1  0
 12 41  1  0
 16 42  1  0
 16 43  1  0
 17 44  1  6
 20 45  1  0
 21 46  1  0
 23 47  1  0
 24 48  1  0
 25 49  1  0
 25 50  1  0
M  END
$$$$
