
     RDKit          3D

 42 44  0  0  0  0  0  0  0  0999 V2000
    3.3912   -2.2831   -1.6704 O   0  0  0  0  0  0  0  0  0  0  0  0
    3.3609   -1.3303   -0.9007 C   0  0  0  0  0  0  0  0  0  0  0  0
    2.2254   -0.8020   -0.3207 N   0  0  0  0  0  0  0  0  0  0  0  0
    1.1908   -1.6030    0.1032 C   0  0  0  0  0  0  0  0  0  0  0  0
    1.2860   -2.8154    0.2639 O   0  0  0  0  0  0  0  0  0  0  0  0
    0.0280   -0.9021    0.4155 N   0  0  0  0  0  0  0  0  0  0  0  0
   -0.2313    0.4779   -0.0168 C   0  0  0  0  0  0  0  0  0  0  0  0
   -1.6081    1.0183    0.4175 C   0  0  0  0  0  0  0  0  0  0  0  0
   -2.6910    0.1166   -0.0026 N   0  0  0  0  0  0  0  0  0  0  0  0
   -3.9939    0.5644   -0.1646 C   0  0  0  0  0  0  0  0  0  0  0  0
   -4.4311    1.7975    0.3522 C   0  0  0  0  0  0  0  0  0  0  0  0
   -5.7459    2.2474    0.1806 C   0  0  0  0  0  0  0  0  0  0  0  0
   -6.6496    1.4667   -0.5207 C   0  0  0  0  0  0  0  0  0  0  0  0
   -7.9074    1.8947   -0.6876 F   0  0  0  0  0  0  0  0  0  0  0  0
   -6.2616    0.2485   -1.0520 C   0  0  0  0  0  0  0  0  0  0  0  0
   -4.9455   -0.1931   -0.8737 C   0  0  0  0  0  0  0  0  0  0  0  0
   -2.3960   -1.3325   -0.0047 C   0  0  0  0  0  0  0  0  0  0  0  0
   -1.1530   -1.6611    0.8428 C   0  0  0  0  0  0  0  0  0  0  0  0
    4.6223   -0.5884   -0.6345 C   0  0  0  0  0  0  0  0  0  0  0  0
    5.8035   -1.3272   -0.4973 C   0  0  0  0  0  0  0  0  0  0  0  0
    7.0100   -0.6756   -0.2395 C   0  0  0  0  0  0  0  0  0  0  0  0
    7.0414    0.7143   -0.1293 C   0  0  0  0  0  0  0  0  0  0  0  0
    5.8702    1.4566   -0.2851 C   0  0  0  0  0  0  0  0  0  0  0  0
    4.6592    0.8094   -0.5417 C   0  0  0  0  0  0  0  0  0  0  0  0
    2.3572   -0.0152    0.2904 H   0  0  0  0  0  0  0  0  0  0  0  0
   -0.1588    0.4894   -1.1116 H   0  0  0  0  0  0  0  0  0  0  0  0
    0.5579    1.1279    0.3751 H   0  0  0  0  0  0  0  0  0  0  0  0
   -1.7253    2.0113   -0.0325 H   0  0  0  0  0  0  0  0  0  0  0  0
   -1.6346    1.1314    1.5082 H   0  0  0  0  0  0  0  0  0  0  0  0
   -3.7594    2.4300    0.9250 H   0  0  0  0  0  0  0  0  0  0  0  0
   -6.0638    3.1986    0.5943 H   0  0  0  0  0  0  0  0  0  0  0  0
   -6.9758   -0.3508   -1.6067 H   0  0  0  0  0  0  0  0  0  0  0  0
   -4.6684   -1.1412   -1.3273 H   0  0  0  0  0  0  0  0  0  0  0  0
   -2.2311   -1.6571   -1.0392 H   0  0  0  0  0  0  0  0  0  0  0  0
   -3.2364   -1.9039    0.4075 H   0  0  0  0  0  0  0  0  0  0  0  0
   -1.3357   -1.3869    1.8892 H   0  0  0  0  0  0  0  0  0  0  0  0
   -0.9684   -2.7395    0.8184 H   0  0  0  0  0  0  0  0  0  0  0  0
    5.7830   -2.4119   -0.5903 H   0  0  0  0  0  0  0  0  0  0  0  0
    7.9252   -1.2527   -0.1308 H   0  0  0  0  0  0  0  0  0  0  0  0
    7.9843    1.2204    0.0656 H   0  0  0  0  0  0  0  0  0  0  0  0
    5.9065    2.5415   -0.2196 H   0  0  0  0  0  0  0  0  0  0  0  0
    3.7690    1.4104   -0.7004 H   0  0  0  0  0  0  0  0  0  0  0  0
  1  2  2  0
  2  3  1  0
  3  4  1  0
  4  5  2  0
  4  6  1  0
  6  7  1  0
  7  8  1  0
  8  9  1  0
  9 10  1  0
 10 11  2  0
 11 12  1  0
 12 13  2  0
 13 14  1  0
 13 15  1  0
 15 16  2  0
  9 17  1  0
 17 18  1  0
  2 19  1  0
 19 20  2  0
 20 21  1  0
 21 22  2  0
 22 23  1  0
 23 24  2  0
 18  6  1  0
 24 19  1  0
 16 10  1  0
  3 25  1  0
  7 26  1  0
  7 27  1  0
  8 28  1  0
  8 29  1  0
 11 30  1  0
 12 31  1  0
 15 32  1  0
 16 33  1  0
 17 34  1  0
 17 35  1  0
 18 36  1  0
 18 37  1  0
 20 38  1  0
 21 39  1  0
 22 40  1  0
 23 41  1  0
 24 42  1  0
M  END
$$$$
