
     RDKit          3D

 64 66  0  0  0  0  0  0  0  0999 V2000
   -4.5352    1.1127   -2.5108 C   0  0  0  0  0  0  0  0  0  0  0  0
   -3.6838    1.5403   -1.3137 C   0  0  0  0  0  0  0  0  0  0  0  0
   -4.5541    1.7825   -0.0686 C   0  0  0  0  0  0  0  0  0  0  0  0
   -4.6547    0.5344    0.8040 C   0  0  0  0  0  0  0  0  0  0  0  0
   -3.2768    0.1082    1.3633 C   0  0  0  0  0  0  0  0  0  0  0  0
   -3.2569   -1.3613    1.8841 C   0  0  0  0  0  0  0  0  0  0  0  0
   -4.3391   -1.5963    2.9475 C   0  0  0  0  0  0  0  0  0  0  0  0
   -3.3818   -2.4257    0.7883 C   0  0  0  0  0  0  0  0  0  0  0  0
   -2.1154    0.5034    0.4016 C   0  0  0  0  0  0  0  0  0  0  0  0
   -0.9935   -0.3836    0.5788 O   0  0  0  0  0  0  0  0  0  0  0  0
    0.2216    0.0712    0.1756 C   0  0  0  0  0  0  0  0  0  0  0  0
    0.4539    1.1844   -0.2769 O   0  0  0  0  0  0  0  0  0  0  0  0
    1.2738   -1.0141    0.3566 C   0  0  0  0  0  0  0  0  0  0  0  0
    2.4491   -0.7453   -0.4973 N   0  0  0  0  0  0  0  0  0  0  0  0
    3.4905    0.0253   -0.1347 C   0  0  0  0  0  0  0  0  0  0  0  0
    3.7234    0.6709    1.2778 C   0  0  0  0  0  0  0  0  0  0  0  0
    3.1583    1.9127    1.5663 C   0  0  0  0  0  0  0  0  0  0  0  0
    3.3718    2.4808    2.8239 C   0  0  0  0  0  0  0  0  0  0  0  0
    4.1456    1.8047    3.7703 C   0  0  0  0  0  0  0  0  0  0  0  0
    4.4318    2.5783    5.4719 Br  0  0  0  0  0  0  0  0  0  0  0  0
    4.7110    0.5634    3.4719 C   0  0  0  0  0  0  0  0  0  0  0  0
    4.4989   -0.0114    2.2170 C   0  0  0  0  0  0  0  0  0  0  0  0
    4.3206    0.1257   -1.1908 N   0  0  0  0  0  4  0  0  0  0  0  0
    5.5692    0.8809   -1.1690 C   0  0  0  0  0  0  0  0  0  0  0  0
    3.7815   -0.5514   -2.2785 C   0  0  0  0  0  0  0  0  0  0  0  0
    4.2295   -0.7122   -3.5882 C   0  0  0  0  0  0  0  0  0  0  0  0
    3.4033   -1.4633   -4.4363 C   0  0  0  0  0  0  0  0  0  0  0  0
    2.1920   -2.0228   -3.9865 C   0  0  0  0  0  0  0  0  0  0  0  0
    1.7497   -1.8588   -2.6675 C   0  0  0  0  0  0  0  0  0  0  0  0
    2.5783   -1.1113   -1.8320 C   0  0  0  0  0  0  0  0  0  0  0  0
   -2.5707    0.5090   -1.0630 C   0  0  0  0  0  0  0  0  0  0  0  0
    0.0000    0.0000    0.0000 Cl  0  0  0  0  0 15  0  0  0  0  0  0
   -3.9104    0.9469   -3.3944 H   0  0  0  0  0  0  0  0  0  0  0  0
   -5.0792    0.1866   -2.2995 H   0  0  0  0  0  0  0  0  0  0  0  0
   -5.2714    1.8848   -2.7601 H   0  0  0  0  0  0  0  0  0  0  0  0
   -3.2145    2.4976   -1.5747 H   0  0  0  0  0  0  0  0  0  0  0  0
   -5.5562    2.1236   -0.3550 H   0  0  0  0  0  0  0  0  0  0  0  0
   -4.1143    2.5940    0.5287 H   0  0  0  0  0  0  0  0  0  0  0  0
   -5.1055   -0.2706    0.2108 H   0  0  0  0  0  0  0  0  0  0  0  0
   -5.3425    0.7299    1.6371 H   0  0  0  0  0  0  0  0  0  0  0  0
   -3.1114    0.7258    2.2610 H   0  0  0  0  0  0  0  0  0  0  0  0
   -2.2930   -1.5215    2.3873 H   0  0  0  0  0  0  0  0  0  0  0  0
   -4.2110   -2.5787    3.4147 H   0  0  0  0  0  0  0  0  0  0  0  0
   -5.3467   -1.5628    2.5195 H   0  0  0  0  0  0  0  0  0  0  0  0
   -4.2783   -0.8433    3.7407 H   0  0  0  0  0  0  0  0  0  0  0  0
   -2.5622   -2.3628    0.0661 H   0  0  0  0  0  0  0  0  0  0  0  0
   -3.3420   -3.4286    1.2276 H   0  0  0  0  0  0  0  0  0  0  0  0
   -4.3270   -2.3455    0.2437 H   0  0  0  0  0  0  0  0  0  0  0  0
   -1.7984    1.5202    0.6759 H   0  0  0  0  0  0  0  0  0  0  0  0
    1.5769   -1.0567    1.4061 H   0  0  0  0  0  0  0  0  0  0  0  0
    0.8568   -1.9854    0.0721 H   0  0  0  0  0  0  0  0  0  0  0  0
    2.5572    2.4418    0.8290 H   0  0  0  0  0  0  0  0  0  0  0  0
    2.9346    3.4489    3.0611 H   0  0  0  0  0  0  0  0  0  0  0  0
    5.3152    0.0425    4.2127 H   0  0  0  0  0  0  0  0  0  0  0  0
    4.9400   -0.9779    1.9851 H   0  0  0  0  0  0  0  0  0  0  0  0
    5.3567    1.9215   -0.9073 H   0  0  0  0  0  0  0  0  0  0  0  0
    6.0624    0.8526   -2.1441 H   0  0  0  0  0  0  0  0  0  0  0  0
    6.2371    0.4386   -0.4258 H   0  0  0  0  0  0  0  0  0  0  0  0
    5.1584   -0.2800   -3.9399 H   0  0  0  0  0  0  0  0  0  0  0  0
    3.7038   -1.6158   -5.4742 H   0  0  0  0  0  0  0  0  0  0  0  0
    1.5818   -2.5947   -4.6867 H   0  0  0  0  0  0  0  0  0  0  0  0
    0.8153   -2.2879   -2.3248 H   0  0  0  0  0  0  0  0  0  0  0  0
   -2.8989   -0.5000   -1.3474 H   0  0  0  0  0  0  0  0  0  0  0  0
   -1.7255    0.7254   -1.7305 H   0  0  0  0  0  0  0  0  0  0  0  0
  1  2  1  0
  2  3  1  0
  3  4  1  0
  4  5  1  0
  5  6  1  0
  6  7  1  0
  6  8  1  0
  5  9  1  0
  9 10  1  0
 10 11  1  0
 11 12  2  0
 11 13  1  0
 13 14  1  0
 14 15  1  0
 15 16  1  0
 16 17  2  0
 17 18  1  0
 18 19  2  0
 19 20  1  0
 19 21  1  0
 21 22  2  0
 15 23  2  0
 23 24  1  0
 23 25  1  0
 25 26  2  0
 26 27  1  0
 27 28  2  0
 28 29  1  0
 29 30  2  0
  9 31  1  0
 31  2  1  0
 30 14  1  0
 22 16  1  0
 30 25  1  0
  1 33  1  0
  1 34  1  0
  1 35  1  0
  2 36  1  0
  3 37  1  0
  3 38  1  0
  4 39  1  0
  4 40  1  0
  5 41  1  0
  6 42  1  0
  7 43  1  0
  7 44  1  0
  7 45  1  0
  8 46  1  0
  8 47  1  0
  8 48  1  0
  9 49  1  0
 13 50  1  0
 13 51  1  0
 17 52  1  0
 18 53  1  0
 21 54  1  0
 22 55  1  0
 24 56  1  0
 24 57  1  0
 24 58  1  0
 26 59  1  0
 27 60  1  0
 28 61  1  0
 29 62  1  0
 31 63  1  0
 31 64  1  0
M  CHG  2  23   1  32  -1
M  END
$$$$
