
     RDKit          3D

 64 67  0  0  0  0  0  0  0  0999 V2000
   -3.4287   -3.2388    1.3576 C   0  0  0  0  0  0  0  0  0  0  0  0
   -3.7092   -3.2683   -0.1518 C   0  0  0  0  0  0  0  0  0  0  0  0
   -2.9616   -4.4473   -0.7974 C   0  0  0  0  0  0  0  0  0  0  0  0
   -3.3253   -1.9313   -0.8546 C   0  0  0  0  0  0  0  0  0  0  0  0
   -1.8588   -1.4780   -0.7533 C   0  0  1  0  0  0  0  0  0  0  0  0
   -1.6103   -0.2804   -1.6764 C   0  0  0  0  0  0  0  0  0  0  0  0
   -0.1779    0.1497   -1.5912 N   0  0  0  0  0  0  0  0  0  0  0  0
    0.1195    1.6451   -2.3955 S   0  0  0  0  0  6  0  0  0  0  0  0
   -0.7051    1.6680   -3.5890 O   0  0  0  0  0  0  0  0  0  0  0  0
    1.5429    1.8897   -2.4955 O   0  0  0  0  0  0  0  0  0  0  0  0
   -0.5476    2.8689   -1.2755 C   0  0  0  0  0  0  0  0  0  0  0  0
    0.2689    3.4020   -0.2744 C   0  0  0  0  0  0  0  0  0  0  0  0
   -0.2419    4.3687    0.5891 C   0  0  0  0  0  0  0  0  0  0  0  0
   -1.5547    4.8222    0.4351 C   0  0  0  0  0  0  0  0  0  0  0  0
   -2.3728    4.3190   -0.5883 C   0  0  0  0  0  0  0  0  0  0  0  0
   -3.7864    4.8157   -0.7741 C   0  0  0  0  0  0  0  0  0  0  0  0
   -4.7031    3.8143   -0.6670 F   0  0  0  0  0  0  0  0  0  0  0  0
   -3.9839    5.3758   -1.9984 F   0  0  0  0  0  0  0  0  0  0  0  0
   -4.1561    5.7614    0.1340 F   0  0  0  0  0  0  0  0  0  0  0  0
   -1.8538    3.3406   -1.4528 C   0  0  0  0  0  0  0  0  0  0  0  0
    0.4528   -0.0809   -0.2999 C   0  0  0  0  0  0  0  0  0  0  0  0
    1.8154    0.1549   -0.0802 C   0  0  0  0  0  0  0  0  0  0  0  0
    2.4067   -0.0382    1.1845 C   0  0  0  0  0  0  0  0  0  0  0  0
    3.8362    0.2452    1.4049 C   0  0  0  0  0  0  0  0  0  0  0  0
    4.2499    1.0782    2.4542 C   0  0  0  0  0  0  0  0  0  0  0  0
    5.6004    1.3402    2.6519 C   0  0  0  0  0  0  0  0  0  0  0  0
    5.9735    2.1417    3.6583 F   0  0  0  0  0  0  0  0  0  0  0  0
    6.5663    0.7848    1.8261 C   0  0  0  0  0  0  0  0  0  0  0  0
    6.1851   -0.0536    0.7789 C   0  0  0  0  0  0  0  0  0  0  0  0
    7.2238   -0.5408    0.0367 O   0  0  0  0  0  0  0  0  0  0  0  0
    6.9231   -1.5518   -0.9102 C   0  0  0  0  0  0  0  0  0  0  0  0
    6.2151   -1.0115   -1.9313 F   0  0  0  0  0  0  0  0  0  0  0  0
    8.0998   -1.9788   -1.4340 F   0  0  0  0  0  0  0  0  0  0  0  0
    4.8252   -0.3128    0.5683 C   0  0  0  0  0  0  0  0  0  0  0  0
    1.5982   -0.5091    2.2302 C   0  0  0  0  0  0  0  0  0  0  0  0
    0.2576   -0.8223    2.0105 C   0  0  0  0  0  0  0  0  0  0  0  0
   -0.2949   -0.6493    0.7438 C   0  0  0  0  0  0  0  0  0  0  0  0
   -1.5950   -1.0703    0.5984 O   0  0  0  0  0  0  0  0  0  0  0  0
   -5.2131   -3.4737   -0.3457 C   0  0  0  0  0  0  0  0  0  0  0  0
   -6.0029   -2.6716   -0.8182 O   0  0  0  0  0  0  0  0  0  0  0  0
   -5.6576   -4.6722    0.0795 O   0  0  0  0  0  0  0  0  0  0  0  0
   -2.3550   -3.2485    1.5703 H   0  0  0  0  0  0  0  0  0  0  0  0
   -3.8665   -2.3495    1.8244 H   0  0  0  0  0  0  0  0  0  0  0  0
   -3.8573   -4.1099    1.8643 H   0  0  0  0  0  0  0  0  0  0  0  0
   -3.2694   -5.4065   -0.3651 H   0  0  0  0  0  0  0  0  0  0  0  0
   -1.8794   -4.3692   -0.6543 H   0  0  0  0  0  0  0  0  0  0  0  0
   -3.1606   -4.4993   -1.8739 H   0  0  0  0  0  0  0  0  0  0  0  0
   -3.5900   -2.0177   -1.9177 H   0  0  0  0  0  0  0  0  0  0  0  0
   -3.9586   -1.1317   -0.4458 H   0  0  0  0  0  0  0  0  0  0  0  0
   -1.1911   -2.3053   -1.0246 H   0  0  0  0  0  0  0  0  0  0  0  0
   -2.2645    0.5443   -1.3737 H   0  0  0  0  0  0  0  0  0  0  0  0
   -1.8355   -0.5576   -2.7123 H   0  0  0  0  0  0  0  0  0  0  0  0
    1.2996    3.0732   -0.1584 H   0  0  0  0  0  0  0  0  0  0  0  0
    0.3839    4.7779    1.3797 H   0  0  0  0  0  0  0  0  0  0  0  0
   -1.9352    5.5815    1.1194 H   0  0  0  0  0  0  0  0  0  0  0  0
   -2.4733    2.9553   -2.2624 H   0  0  0  0  0  0  0  0  0  0  0  0
    2.4481    0.4977   -0.8943 H   0  0  0  0  0  0  0  0  0  0  0  0
    3.5284    1.5457    3.1187 H   0  0  0  0  0  0  0  0  0  0  0  0
    7.6135    1.0110    2.0032 H   0  0  0  0  0  0  0  0  0  0  0  0
    6.3957   -2.4080   -0.4767 H   0  0  0  0  0  0  0  0  0  0  0  0
    4.4987   -0.9461   -0.2526 H   0  0  0  0  0  0  0  0  0  0  0  0
    2.0182   -0.6722    3.2209 H   0  0  0  0  0  0  0  0  0  0  0  0
   -0.3474   -1.2262    2.8182 H   0  0  0  0  0  0  0  0  0  0  0  0
   -6.6222   -4.6441   -0.0946 H   0  0  0  0  0  0  0  0  0  0  0  0
  1  2  1  0
  2  3  1  0
  2  4  1  0
  4  5  1  0
  5  6  1  0
  6  7  1  0
  7  8  1  0
  8  9  2  0
  8 10  2  0
  8 11  1  0
 11 12  2  0
 12 13  1  0
 13 14  2  0
 14 15  1  0
 15 16  1  0
 16 17  1  0
 16 18  1  0
 16 19  1  0
 15 20  2  0
  7 21  1  0
 21 22  2  0
 22 23  1  0
 23 24  1  0
 24 25  2  0
 25 26  1  0
 26 27  1  0
 26 28  2  0
 28 29  1  0
 29 30  1  0
 30 31  1  0
 31 32  1  0
 31 33  1  0
 29 34  2  0
 23 35  2  0
 35 36  1  0
 36 37  2  0
 37 38  1  0
  2 39  1  0
 39 40  2  0
 39 41  1  0
 38  5  1  0
 20 11  1  0
 37 21  1  0
 34 24  1  0
  1 42  1  0
  1 43  1  0
  1 44  1  0
  3 45  1  0
  3 46  1  0
  3 47  1  0
  4 48  1  0
  4 49  1  0
  5 50  1  6
  6 51  1  0
  6 52  1  0
 12 53  1  0
 13 54  1  0
 14 55  1  0
 20 56  1  0
 22 57  1  0
 25 58  1  0
 28 59  1  0
 31 60  1  0
 34 61  1  0
 35 62  1  0
 36 63  1  0
 41 64  1  0
M  END
$$$$
