
     RDKit          3D

 67 70  0  0  0  0  0  0  0  0999 V2000
    7.8973    3.9329    1.4269 C   0  0  0  0  0  0  0  0  0  0  0  0
    6.5265    3.5643    1.5028 O   0  0  0  0  0  0  0  0  0  0  0  0
    6.0219    3.0411    0.2711 C   0  0  0  0  0  0  0  0  0  0  0  0
    5.5038    4.1580   -0.6462 C   0  0  0  0  0  0  0  0  0  0  0  0
    5.1587    3.6496   -1.9748 N   0  0  0  0  0  0  0  0  0  0  0  0
    3.9047    3.1186   -2.2975 C   0  0  0  0  0  0  0  0  0  0  0  0
    2.9288    2.8395   -1.3278 C   0  0  0  0  0  0  0  0  0  0  0  0
    1.7316    2.2233   -1.6839 C   0  0  0  0  0  0  0  0  0  0  0  0
    0.7080    1.9265   -0.7896 N   0  0  0  0  0  0  0  0  0  0  0  0
    0.5664    2.2480    0.5301 C   0  0  0  0  0  0  0  0  0  0  0  0
    1.3892    2.9235    1.1508 O   0  0  0  0  0  0  0  0  0  0  0  0
   -0.6090    1.7896    1.1502 N   0  0  0  0  0  0  0  0  0  0  0  0
   -0.7963    2.1840    2.5470 C   0  0  0  0  0  0  0  0  0  0  0  0
   -2.2575    2.2697    2.9486 C   0  0  0  0  0  0  0  0  0  0  0  0
   -2.9126    0.9213    2.7243 C   0  0  0  0  0  0  0  0  0  0  0  0
   -2.6423    0.4313    1.3303 C   0  0  0  0  0  0  0  0  0  0  0  0
   -3.5082   -0.5159    0.7648 C   0  0  0  0  0  0  0  0  0  0  0  0
   -3.2898   -1.0333   -0.5192 C   0  0  0  0  0  0  0  0  0  0  0  0
   -4.2582   -2.0513   -1.0681 C   0  0  0  0  0  0  0  0  0  0  0  0
   -4.0869   -3.3850   -0.4943 N   0  0  0  0  0  0  0  0  0  0  0  0
   -2.9321   -4.1702   -0.9286 C   0  0  0  0  0  0  0  0  0  0  0  0
   -2.9944   -5.6411   -0.5104 C   0  0  0  0  0  0  0  0  0  0  0  0
   -3.2645   -5.7233    0.9299 N   0  0  0  0  0  0  0  0  0  0  0  0
   -3.2006   -7.1086    1.3928 C   0  0  0  0  0  0  0  0  0  0  0  0
   -4.6038   -5.1597    1.2040 C   0  0  0  0  0  0  0  0  0  0  0  0
   -4.8136   -3.7475    0.6348 C   0  0  0  0  0  0  0  0  0  0  0  0
   -5.6736   -3.0096    1.1268 O   0  0  0  0  0  0  0  0  0  0  0  0
   -2.1698   -0.5462   -1.1815 C   0  0  0  0  0  0  0  0  0  0  0  0
   -1.7327   -0.9783   -2.5384 C   0  0  0  0  0  0  0  0  0  0  0  0
   -2.2169   -1.9099   -3.1654 O   0  0  0  0  0  0  0  0  0  0  0  0
   -1.3217    0.3857   -0.6572 N   0  0  0  0  0  0  0  0  0  0  0  0
   -1.5359    0.8531    0.5929 C   0  0  0  0  0  0  0  0  0  0  0  0
    1.4637    1.8406   -2.9495 N   0  0  0  0  0  0  0  0  0  0  0  0
    2.4073    2.0946   -3.8812 C   0  0  0  0  0  0  0  0  0  0  0  0
    3.6220    2.7115   -3.6131 C   0  0  0  0  0  0  0  0  0  0  0  0
    4.5405    2.9036   -4.6917 C   0  0  0  0  0  0  0  0  0  0  0  0
    5.2800    3.0715   -5.5712 N   0  0  0  0  0  0  0  0  0  0  0  0
    8.2048    4.3117    2.4066 H   0  0  0  0  0  0  0  0  0  0  0  0
    8.0505    4.7216    0.6848 H   0  0  0  0  0  0  0  0  0  0  0  0
    8.5147    3.0622    1.1842 H   0  0  0  0  0  0  0  0  0  0  0  0
    5.2007    2.3638    0.5279 H   0  0  0  0  0  0  0  0  0  0  0  0
    6.7844    2.4317   -0.2303 H   0  0  0  0  0  0  0  0  0  0  0  0
    4.6772    4.7065   -0.1793 H   0  0  0  0  0  0  0  0  0  0  0  0
    6.2953    4.9058   -0.7747 H   0  0  0  0  0  0  0  0  0  0  0  0
    5.6037    4.1760   -2.7260 H   0  0  0  0  0  0  0  0  0  0  0  0
    3.1049    3.0992   -0.2931 H   0  0  0  0  0  0  0  0  0  0  0  0
   -0.0602    1.4191   -1.2083 H   0  0  0  0  0  0  0  0  0  0  0  0
   -0.3329    3.1612    2.7254 H   0  0  0  0  0  0  0  0  0  0  0  0
   -0.2585    1.4565    3.1683 H   0  0  0  0  0  0  0  0  0  0  0  0
   -2.7608    3.0381    2.3483 H   0  0  0  0  0  0  0  0  0  0  0  0
   -2.3487    2.5630    3.9998 H   0  0  0  0  0  0  0  0  0  0  0  0
   -3.9910    1.0149    2.8976 H   0  0  0  0  0  0  0  0  0  0  0  0
   -2.5211    0.1852    3.4372 H   0  0  0  0  0  0  0  0  0  0  0  0
   -4.3721   -0.8524    1.3378 H   0  0  0  0  0  0  0  0  0  0  0  0
   -5.2760   -1.6966   -0.8548 H   0  0  0  0  0  0  0  0  0  0  0  0
   -4.2325   -2.1355   -2.1571 H   0  0  0  0  0  0  0  0  0  0  0  0
   -2.0356   -3.7009   -0.5049 H   0  0  0  0  0  0  0  0  0  0  0  0
   -2.8680   -4.1199   -2.0207 H   0  0  0  0  0  0  0  0  0  0  0  0
   -3.7712   -6.1617   -1.0850 H   0  0  0  0  0  0  0  0  0  0  0  0
   -2.0329   -6.1101   -0.7523 H   0  0  0  0  0  0  0  0  0  0  0  0
   -3.3953   -7.1628    2.4698 H   0  0  0  0  0  0  0  0  0  0  0  0
   -3.9224   -7.7528    0.8772 H   0  0  0  0  0  0  0  0  0  0  0  0
   -2.1969   -7.5187    1.2325 H   0  0  0  0  0  0  0  0  0  0  0  0
   -5.3972   -5.7952    0.7893 H   0  0  0  0  0  0  0  0  0  0  0  0
   -4.7431   -5.0904    2.2894 H   0  0  0  0  0  0  0  0  0  0  0  0
   -0.8959   -0.3912   -2.9584 H   0  0  0  0  0  0  0  0  0  0  0  0
    2.1464    1.7697   -4.8859 H   0  0  0  0  0  0  0  0  0  0  0  0
  1  2  1  0
  2  3  1  0
  3  4  1  0
  4  5  1  0
  5  6  1  0
  6  7  2  0
  7  8  1  0
  8  9  1  0
  9 10  1  0
 10 11  2  0
 10 12  1  0
 12 13  1  0
 13 14  1  0
 14 15  1  0
 15 16  1  0
 16 17  2  0
 17 18  1  0
 18 19  1  0
 19 20  1  0
 20 21  1  0
 21 22  1  0
 22 23  1  0
 23 24  1  0
 23 25  1  0
 25 26  1  0
 26 27  2  0
 18 28  2  0
 28 29  1  0
 29 30  2  0
 28 31  1  0
 31 32  2  0
  8 33  2  0
 33 34  1  0
 34 35  2  0
 35 36  1  0
 36 37  3  0
 35  6  1  0
 32 12  1  0
 32 16  1  0
 26 20  1  0
  1 38  1  0
  1 39  1  0
  1 40  1  0
  3 41  1  0
  3 42  1  0
  4 43  1  0
  4 44  1  0
  5 45  1  0
  7 46  1  0
  9 47  1  0
 13 48  1  0
 13 49  1  0
 14 50  1  0
 14 51  1  0
 15 52  1  0
 15 53  1  0
 17 54  1  0
 19 55  1  0
 19 56  1  0
 21 57  1  0
 21 58  1  0
 22 59  1  0
 22 60  1  0
 24 61  1  0
 24 62  1  0
 24 63  1  0
 25 64  1  0
 25 65  1  0
 29 66  1  0
 34 67  1  0
M  END
$$$$
