
     RDKit          3D

 45 47  0  0  0  0  0  0  0  0999 V2000
    8.7920    0.1334   -0.3158 C   0  0  0  0  0  0  0  0  0  0  0  0
    7.8214   -0.5131    0.4969 O   0  0  0  0  0  0  0  0  0  0  0  0
    6.4929   -0.2133    0.0732 C   0  0  0  0  0  0  0  0  0  0  0  0
    5.4998   -0.9733    0.9499 C   0  0  0  0  0  0  0  0  0  0  0  0
    4.1221   -0.6229    0.6530 N   0  0  0  0  0  0  0  0  0  0  0  0
    3.0912   -1.4906    0.9889 C   0  0  0  0  0  0  0  0  0  0  0  0
    3.3050   -2.6240    1.4114 O   0  0  0  0  0  0  0  0  0  0  0  0
    1.7320   -0.9314    0.8133 C   0  0  0  0  0  0  0  0  0  0  0  0
    1.3363    0.2294    0.0798 C   0  0  0  0  0  0  0  0  0  0  0  0
   -0.0319    0.3165    0.2193 C   0  0  0  0  0  0  0  0  0  0  0  0
   -0.3792   -0.7537    0.9875 N   0  0  0  0  0  0  0  0  0  0  0  0
    0.6524   -1.5144    1.3701 N   0  0  0  0  0  0  0  0  0  0  0  0
   -1.7356   -1.1129    1.3448 C   0  0  0  0  0  0  0  0  0  0  0  0
   -2.6494    0.0910    1.1617 C   0  0  0  0  0  0  0  0  0  0  0  0
   -2.4030    0.7016   -0.1828 N   0  0  0  0  0  0  0  0  0  0  0  0
   -3.6026    1.7976   -0.7097 S   0  0  0  0  0  6  0  0  0  0  0  0
   -3.8822    2.6835    0.4002 O   0  0  0  0  0  0  0  0  0  0  0  0
   -3.2141    2.3086   -2.0054 O   0  0  0  0  0  0  0  0  0  0  0  0
   -5.0078    0.7415   -0.9621 C   0  0  0  0  0  0  0  0  0  0  0  0
   -6.1768    0.9369   -0.2183 C   0  0  0  0  0  0  0  0  0  0  0  0
   -7.2675    0.0925   -0.4289 C   0  0  0  0  0  0  0  0  0  0  0  0
   -7.1784   -0.9258   -1.3749 C   0  0  0  0  0  0  0  0  0  0  0  0
   -8.2279   -1.7338   -1.5715 F   0  0  0  0  0  0  0  0  0  0  0  0
   -6.0183   -1.1182   -2.1205 C   0  0  0  0  0  0  0  0  0  0  0  0
   -4.9228   -0.2791   -1.9174 C   0  0  0  0  0  0  0  0  0  0  0  0
   -1.0399    1.2915   -0.2795 C   0  0  0  0  0  0  0  0  0  0  0  0
    8.6733    1.2199   -0.2630 H   0  0  0  0  0  0  0  0  0  0  0  0
    8.7096   -0.2052   -1.3530 H   0  0  0  0  0  0  0  0  0  0  0  0
    9.7849   -0.1285    0.0593 H   0  0  0  0  0  0  0  0  0  0  0  0
    6.3203    0.8663    0.1584 H   0  0  0  0  0  0  0  0  0  0  0  0
    6.3606   -0.5029   -0.9762 H   0  0  0  0  0  0  0  0  0  0  0  0
    5.6483   -2.0527    0.8299 H   0  0  0  0  0  0  0  0  0  0  0  0
    5.6775   -0.7506    2.0085 H   0  0  0  0  0  0  0  0  0  0  0  0
    3.8917    0.3592    0.6164 H   0  0  0  0  0  0  0  0  0  0  0  0
    1.9648    0.9006   -0.4880 H   0  0  0  0  0  0  0  0  0  0  0  0
   -2.0265   -1.9357    0.6826 H   0  0  0  0  0  0  0  0  0  0  0  0
   -1.7437   -1.4594    2.3828 H   0  0  0  0  0  0  0  0  0  0  0  0
   -3.6866   -0.2431    1.2564 H   0  0  0  0  0  0  0  0  0  0  0  0
   -2.4600    0.8377    1.9432 H   0  0  0  0  0  0  0  0  0  0  0  0
   -6.2475    1.7372    0.5152 H   0  0  0  0  0  0  0  0  0  0  0  0
   -8.1877    0.2223    0.1331 H   0  0  0  0  0  0  0  0  0  0  0  0
   -5.9789   -1.9164   -2.8557 H   0  0  0  0  0  0  0  0  0  0  0  0
   -4.0147   -0.4176   -2.5008 H   0  0  0  0  0  0  0  0  0  0  0  0
   -0.9793    2.2114    0.3134 H   0  0  0  0  0  0  0  0  0  0  0  0
   -0.8141    1.5248   -1.3257 H   0  0  0  0  0  0  0  0  0  0  0  0
  1  2  1  0
  2  3  1  0
  3  4  1  0
  4  5  1  0
  5  6  1  0
  6  7  2  0
  6  8  1  0
  8  9  1  0
  9 10  2  0
 10 11  1  0
 11 12  1  0
 11 13  1  0
 13 14  1  0
 14 15  1  0
 15 16  1  0
 16 17  2  0
 16 18  2  0
 16 19  1  0
 19 20  2  0
 20 21  1  0
 21 22  2  0
 22 23  1  0
 22 24  1  0
 24 25  2  0
 15 26  1  0
 12  8  2  0
 25 19  1  0
 26 10  1  0
  1 27  1  0
  1 28  1  0
  1 29  1  0
  3 30  1  0
  3 31  1  0
  4 32  1  0
  4 33  1  0
  5 34  1  0
  9 35  1  0
 13 36  1  0
 13 37  1  0
 14 38  1  0
 14 39  1  0
 20 40  1  0
 21 41  1  0
 24 42  1  0
 25 43  1  0
 26 44  1  0
 26 45  1  0
M  END
$$$$
