
     RDKit          3D

 85 86  0  0  0  0  0  0  0  0999 V2000
    7.6476    0.7939   -0.8331 C   0  0  0  0  0  0  0  0  0  0  0  0
    6.9061    0.8961   -1.9468 C   0  0  0  0  0  0  0  0  0  0  0  0
    5.4650    1.2960   -2.0873 C   0  0  0  0  0  0  0  0  0  0  0  0
    4.9656    1.7427   -0.7914 N   0  0  0  0  0  0  0  0  0  0  0  0
    3.6141    2.0698   -0.6287 C   0  0  0  0  0  0  0  0  0  0  0  0
    2.6917    1.2660   -0.0775 C   0  0  0  0  0  0  0  0  0  0  0  0
    2.9596   -0.1741    0.3138 C   0  0  0  0  0  0  0  0  0  0  0  0
    2.0620   -1.1843   -0.4508 C   0  0  1  0  0  0  0  0  0  0  0  0
    2.7615   -1.6031   -1.7542 C   0  0  0  0  0  0  0  0  0  0  0  0
    1.7250   -2.4042    0.4545 C   0  0  0  0  0  0  0  0  0  0  0  0
    0.5198   -3.2994    0.0738 C   0  0  2  0  0  0  0  0  0  0  0  0
    0.6917   -3.8139   -1.2675 O   0  0  0  0  0  0  0  0  0  0  0  0
    1.5413   -4.9435   -1.3183 C   0  0  0  0  0  0  0  0  0  0  0  0
   -0.8949   -2.6545    0.1351 C   0  0  2  0  0  0  0  0  0  0  0  0
   -0.8887   -1.4234   -0.5570 O   0  0  0  0  0  0  0  0  0  0  0  0
   -1.5046   -2.4912    1.5507 C   0  0  1  0  0  0  0  0  0  0  0  0
   -0.9614   -1.3825    2.4403 C   0  0  0  0  0  0  0  0  0  0  0  0
   -3.0376   -2.4655    1.5947 C   0  0  0  0  0  0  0  0  0  0  0  0
   -4.0130   -1.7561    0.9689 C   0  0  0  0  0  0  0  0  0  0  0  0
   -5.4494   -2.1197    1.2650 C   0  0  0  0  0  0  0  0  0  0  0  0
   -3.9353   -0.6385   -0.0956 C   0  0  2  0  0  0  0  0  0  0  0  0
   -3.4060   -1.2769   -1.2838 O   0  0  0  0  0  0  0  0  0  0  0  0
   -3.8208   -0.8156   -2.4850 C   0  0  0  0  0  0  0  0  0  0  0  0
   -3.2443   -1.5375   -3.4805 N   0  0  0  0  0  0  0  0  0  0  0  0
   -4.5898    0.0984   -2.7189 O   0  0  0  0  0  0  0  0  0  0  0  0
   -3.1813    0.6719    0.3326 C   0  0  1  0  0  0  0  0  0  0  0  0
   -3.2177    1.6944   -0.6869 O   0  0  0  0  0  0  0  0  0  0  0  0
   -4.4561    2.3818   -0.8377 C   0  0  0  0  0  0  0  0  0  0  0  0
   -3.7673    1.2061    1.6315 C   0  0  0  0  0  0  0  0  0  0  0  0
   -3.2036    1.8057    2.6863 C   0  0  0  0  0  0  0  0  0  0  0  0
   -1.8280    2.1378    2.9821 C   0  0  0  0  0  0  0  0  0  0  0  0
   -0.9412    2.9309    2.3301 C   0  0  0  0  0  0  0  0  0  0  0  0
    0.3555    3.2693    3.0068 C   0  0  0  0  0  0  0  0  0  0  0  0
   -1.2529    3.5979    1.0420 C   0  0  0  0  0  0  0  0  0  0  0  0
   -2.3081    4.2203    0.9355 O   0  0  0  0  0  0  0  0  0  0  0  0
   -0.3054    3.7071    0.0470 N   0  0  0  0  0  0  0  0  0  0  0  0
    0.9362    3.1476   -0.1908 C   0  0  0  0  0  0  0  0  0  0  0  0
    1.8379    3.8839   -0.8479 C   0  0  0  0  0  0  0  0  0  0  0  0
    3.2464    3.4845   -0.9592 C   0  0  0  0  0  0  0  0  0  0  0  0
    4.1070    4.3017   -1.2847 O   0  0  0  0  0  0  0  0  0  0  0  0
    1.3387    1.7855    0.2951 C   0  0  0  0  0  0  0  0  0  0  0  0
    0.5885    1.0899    0.9686 O   0  0  0  0  0  0  0  0  0  0  0  0
    8.6892    0.4897   -0.8931 H   0  0  0  0  0  0  0  0  0  0  0  0
    7.2465    0.9945    0.1519 H   0  0  0  0  0  0  0  0  0  0  0  0
    7.3959    0.6656   -2.8854 H   0  0  0  0  0  0  0  0  0  0  0  0
    4.8992    0.4403   -2.4595 H   0  0  0  0  0  0  0  0  0  0  0  0
    5.3828    2.1083   -2.8254 H   0  0  0  0  0  0  0  0  0  0  0  0
    5.4890    2.6005   -0.6022 H   0  0  0  0  0  0  0  0  0  0  0  0
    4.0159   -0.4391    0.1583 H   0  0  0  0  0  0  0  0  0  0  0  0
    2.7912   -0.2542    1.3934 H   0  0  0  0  0  0  0  0  0  0  0  0
    1.1495   -0.6719   -0.7422 H   0  0  0  0  0  0  0  0  0  0  0  0
    2.9858   -0.7151   -2.3672 H   0  0  0  0  0  0  0  0  0  0  0  0
    3.6987   -2.1323   -1.5455 H   0  0  0  0  0  0  0  0  0  0  0  0
    2.1235   -2.2315   -2.3808 H   0  0  0  0  0  0  0  0  0  0  0  0
    2.6280   -3.0300    0.4709 H   0  0  0  0  0  0  0  0  0  0  0  0
    1.5878   -2.0738    1.4900 H   0  0  0  0  0  0  0  0  0  0  0  0
    0.5036   -4.1558    0.7563 H   0  0  0  0  0  0  0  0  0  0  0  0
    1.7124   -5.2121   -2.3671 H   0  0  0  0  0  0  0  0  0  0  0  0
    2.5115   -4.7541   -0.8445 H   0  0  0  0  0  0  0  0  0  0  0  0
    1.0664   -5.7908   -0.8119 H   0  0  0  0  0  0  0  0  0  0  0  0
   -1.5625   -3.3177   -0.4278 H   0  0  0  0  0  0  0  0  0  0  0  0
   -0.6713   -1.6341   -1.4767 H   0  0  0  0  0  0  0  0  0  0  0  0
   -1.2404   -3.4243    2.0741 H   0  0  0  0  0  0  0  0  0  0  0  0
   -1.5261   -1.3151    3.3819 H   0  0  0  0  0  0  0  0  0  0  0  0
   -1.0194   -0.4047    1.9767 H   0  0  0  0  0  0  0  0  0  0  0  0
    0.0746   -1.5670    2.7234 H   0  0  0  0  0  0  0  0  0  0  0  0
   -3.3847   -3.2312    2.3031 H   0  0  0  0  0  0  0  0  0  0  0  0
   -5.9576   -2.4272    0.3455 H   0  0  0  0  0  0  0  0  0  0  0  0
   -5.5564   -2.9464    1.9717 H   0  0  0  0  0  0  0  0  0  0  0  0
   -5.9903   -1.2554    1.6667 H   0  0  0  0  0  0  0  0  0  0  0  0
   -4.9658   -0.3685   -0.3414 H   0  0  0  0  0  0  0  0  0  0  0  0
   -3.4648   -1.3009   -4.4316 H   0  0  0  0  0  0  0  0  0  0  0  0
   -2.7051   -2.3664   -3.2595 H   0  0  0  0  0  0  0  0  0  0  0  0
   -2.1239    0.4386    0.4410 H   0  0  0  0  0  0  0  0  0  0  0  0
   -4.6384    3.0891   -0.0343 H   0  0  0  0  0  0  0  0  0  0  0  0
   -4.4039    2.9564   -1.7689 H   0  0  0  0  0  0  0  0  0  0  0  0
   -5.3083    1.6982   -0.9095 H   0  0  0  0  0  0  0  0  0  0  0  0
   -4.8456    1.0323    1.7157 H   0  0  0  0  0  0  0  0  0  0  0  0
   -3.8545    1.9969    3.5490 H   0  0  0  0  0  0  0  0  0  0  0  0
   -1.5407    1.7569    3.9657 H   0  0  0  0  0  0  0  0  0  0  0  0
    0.9464    3.9891    2.4186 H   0  0  0  0  0  0  0  0  0  0  0  0
    0.1958    3.7251    3.9935 H   0  0  0  0  0  0  0  0  0  0  0  0
    0.9635    2.3722    3.1498 H   0  0  0  0  0  0  0  0  0  0  0  0
   -0.6711    4.2927   -0.7080 H   0  0  0  0  0  0  0  0  0  0  0  0
    1.6201    4.8780   -1.2143 H   0  0  0  0  0  0  0  0  0  0  0  0
  1  2  2  3
  2  3  1  0
  3  4  1  0
  4  5  1  0
  5  6  2  0
  6  7  1  0
  7  8  1  0
  8  9  1  0
  8 10  1  0
 10 11  1  0
 11 12  1  0
 12 13  1  0
 11 14  1  0
 14 15  1  0
 14 16  1  0
 16 17  1  0
 16 18  1  0
 18 19  2  0
 19 20  1  0
 19 21  1  0
 21 22  1  0
 22 23  1  0
 23 24  1  0
 23 25  2  0
 21 26  1  0
 26 27  1  0
 27 28  1  0
 26 29  1  0
 29 30  2  0
 30 31  1  0
 31 32  2  0
 32 33  1  0
 32 34  1  0
 34 35  2  0
 34 36  1  0
 36 37  1  0
 37 38  2  0
 38 39  1  0
 39 40  2  0
 37 41  1  0
 41 42  2  0
 39  5  1  0
 41  6  1  0
  1 43  1  0
  1 44  1  0
  2 45  1  0
  3 46  1  0
  3 47  1  0
  4 48  1  0
  7 49  1  0
  7 50  1  0
  8 51  1  6
  9 52  1  0
  9 53  1  0
  9 54  1  0
 10 55  1  0
 10 56  1  0
 11 57  1  1
 13 58  1  0
 13 59  1  0
 13 60  1  0
 14 61  1  6
 15 62  1  0
 16 63  1  1
 17 64  1  0
 17 65  1  0
 17 66  1  0
 18 67  1  0
 20 68  1  0
 20 69  1  0
 20 70  1  0
 21 71  1  6
 24 72  1  0
 24 73  1  0
 26 74  1  1
 28 75  1  0
 28 76  1  0
 28 77  1  0
 29 78  1  0
 30 79  1  0
 31 80  1  0
 33 81  1  0
 33 82  1  0
 33 83  1  0
 36 84  1  0
 38 85  1  0
M  END
$$$$
