
     RDKit          3D

 37 39  0  0  0  0  0  0  0  0999 V2000
   -2.2901   -1.5427    0.0924 N   0  0  0  0  0  0  0  0  0  0  0  0
   -1.7125   -0.5767   -0.1919 C   0  0  0  0  0  0  0  0  0  0  0  0
   -0.9905    0.5991   -0.5308 C   0  0  0  0  0  0  0  0  0  0  0  0
   -0.1913    0.7328   -1.6053 C   0  0  0  0  0  0  0  0  0  0  0  0
    0.0934   -0.3270   -2.5763 C   0  0  0  0  0  0  0  0  0  0  0  0
    1.3764   -0.8952   -2.6197 C   0  0  0  0  0  0  0  0  0  0  0  0
    1.6764   -1.9055   -3.5397 C   0  0  0  0  0  0  0  0  0  0  0  0
    0.6893   -2.3362   -4.4170 C   0  0  0  0  0  0  0  0  0  0  0  0
    0.9197   -3.3180   -5.3400 O   0  0  0  0  0  0  0  0  0  0  0  0
   -0.5811   -1.7668   -4.3810 C   0  0  0  0  0  0  0  0  0  0  0  0
   -1.5424   -2.1911   -5.2533 O   0  0  0  0  0  0  0  0  0  0  0  0
   -0.8899   -0.7660   -3.4697 C   0  0  0  0  0  0  0  0  0  0  0  0
   -1.1621    1.8052    0.3125 C   0  0  0  0  0  0  0  0  0  0  0  0
   -1.6498    2.8168   -0.1986 O   0  0  0  0  0  0  0  0  0  0  0  0
   -0.8174    1.7556    1.6450 N   0  0  0  0  0  0  0  0  0  0  0  0
   -1.2205    2.8514    2.5387 C   0  0  0  0  0  0  0  0  0  0  0  0
   -0.9271    2.3969    3.9687 C   0  0  0  0  0  0  0  0  0  0  0  0
   -0.0098    1.2403    3.7264 C   0  0  0  0  0  0  0  0  0  0  0  0
    0.7214    0.5469    4.6800 C   0  0  0  0  0  0  0  0  0  0  0  0
    1.5085   -0.5225    4.2590 C   0  0  0  0  0  0  0  0  0  0  0  0
    1.5545   -0.8760    2.9041 C   0  0  0  0  0  0  0  0  0  0  0  0
    0.8078   -0.1714    1.9512 C   0  0  0  0  0  0  0  0  0  0  0  0
    0.0092    0.8782    2.3742 C   0  0  0  0  0  0  0  0  0  0  0  0
    0.3100    1.6794   -1.8025 H   0  0  0  0  0  0  0  0  0  0  0  0
    2.1520   -0.5563   -1.9358 H   0  0  0  0  0  0  0  0  0  0  0  0
    2.6732   -2.3342   -3.5550 H   0  0  0  0  0  0  0  0  0  0  0  0
    1.8358   -3.6270   -5.2344 H   0  0  0  0  0  0  0  0  0  0  0  0
   -1.1087   -2.8947   -5.7758 H   0  0  0  0  0  0  0  0  0  0  0  0
   -1.8887   -0.3379   -3.4692 H   0  0  0  0  0  0  0  0  0  0  0  0
   -2.2778    3.0982    2.3919 H   0  0  0  0  0  0  0  0  0  0  0  0
   -0.6259    3.7347    2.2729 H   0  0  0  0  0  0  0  0  0  0  0  0
   -1.8396    2.0528    4.4664 H   0  0  0  0  0  0  0  0  0  0  0  0
   -0.4601    3.1922    4.5562 H   0  0  0  0  0  0  0  0  0  0  0  0
    0.6826    0.8248    5.7287 H   0  0  0  0  0  0  0  0  0  0  0  0
    2.0919   -1.0852    4.9840 H   0  0  0  0  0  0  0  0  0  0  0  0
    2.1802   -1.7084    2.5893 H   0  0  0  0  0  0  0  0  0  0  0  0
    0.9031   -0.4667    0.9159 H   0  0  0  0  0  0  0  0  0  0  0  0
  1  2  3  0
  2  3  1  0
  3  4  2  0
  4  5  1  0
  5  6  2  0
  6  7  1  0
  7  8  2  0
  8  9  1  0
  8 10  1  0
 10 11  1  0
 10 12  2  0
  3 13  1  0
 13 14  2  0
 13 15  1  0
 15 16  1  0
 16 17  1  0
 17 18  1  0
 18 19  2  0
 19 20  1  0
 20 21  2  0
 21 22  1  0
 22 23  2  0
 12  5  1  0
 23 15  1  0
 23 18  1  0
  4 24  1  0
  6 25  1  0
  7 26  1  0
  9 27  1  0
 11 28  1  0
 12 29  1  0
 16 30  1  0
 16 31  1  0
 17 32  1  0
 17 33  1  0
 19 34  1  0
 20 35  1  0
 21 36  1  0
 22 37  1  0
M  END
$$$$
