
     RDKit          3D

 40 39  0  0  0  0  0  0  0  0999 V2000
   -2.2358    1.9344   -1.8325 C   0  0  0  0  0  0  0  0  0  0  0  0
   -2.7623    0.5459   -1.9317 C   0  0  0  0  0  0  0  0  0  0  0  0
   -1.9280   -0.4618   -1.3167 N   0  0  0  0  0  0  0  0  0  0  0  0
   -0.7297   -0.1989   -0.6055 C   0  0  0  0  0  0  0  0  0  0  0  0
    0.4800   -0.6128   -1.0165 N   0  0  0  0  0  0  0  0  0  0  0  0
    1.6011   -0.3730   -0.3662 C   0  0  0  0  0  0  0  0  0  0  0  0
    2.8912   -0.8227   -0.8279 N   0  0  0  0  0  0  0  0  0  0  0  0
    1.5070    0.3444    0.8000 C   0  0  0  0  0  0  0  0  0  0  0  0
    2.7944    0.5381    1.4314 C   0  0  0  0  0  0  0  0  0  0  0  0
    3.9050    0.1336    1.0614 O   0  0  0  0  0  0  0  0  0  0  0  0
    2.8931    1.2626    2.6111 N   0  0  0  0  0  0  0  0  0  0  0  0
    4.0585    1.4984    3.2852 C   0  0  0  0  0  0  0  0  0  0  0  0
    3.6614    2.2514    4.2947 N   0  0  0  0  0  0  0  0  0  0  0  0
    5.4412    1.2699    3.3477 N   0  0  0  0  0  0  0  0  0  0  0  0
    0.3352    0.7705    1.2392 N   0  0  0  0  0  0  0  0  0  0  0  0
   -0.8090    0.5207    0.5670 C   0  0  0  0  0  0  0  0  0  0  0  0
   -2.3576    1.1077    1.2020 Cl  0  0  0  0  0  0  0  0  0  0  0  0
   -2.3728   -1.8355   -1.4250 C   0  0  0  0  0  0  0  0  0  0  0  0
   -3.7328   -2.0002   -0.7323 C   0  0  0  0  0  0  0  0  0  0  0  0
   -2.6111   -2.2498   -2.8659 C   0  0  0  0  0  0  0  0  0  0  0  0
    0.6920    0.0000    0.0000 Cl  0  0  0  0  0  0  0  0  0  0  0  0
   -2.1954    2.3373   -2.8886 H   0  0  0  0  0  0  0  0  0  0  0  0
   -1.1948    2.0096   -1.4647 H   0  0  0  0  0  0  0  0  0  0  0  0
   -2.9231    2.6251   -1.3053 H   0  0  0  0  0  0  0  0  0  0  0  0
   -3.7369    0.5225   -1.3582 H   0  0  0  0  0  0  0  0  0  0  0  0
   -3.0608    0.2637   -2.9790 H   0  0  0  0  0  0  0  0  0  0  0  0
    3.1618   -1.8196   -0.7812 H   0  0  0  0  0  0  0  0  0  0  0  0
    3.5146   -0.0857   -1.2044 H   0  0  0  0  0  0  0  0  0  0  0  0
    1.9762    1.6308    2.9825 H   0  0  0  0  0  0  0  0  0  0  0  0
    4.4087    2.5160    4.8953 H   0  0  0  0  0  0  0  0  0  0  0  0
    6.0435    2.0161    2.9526 H   0  0  0  0  0  0  0  0  0  0  0  0
    5.8506    0.4230    3.7668 H   0  0  0  0  0  0  0  0  0  0  0  0
   -1.6661   -2.5331   -0.9802 H   0  0  0  0  0  0  0  0  0  0  0  0
   -3.6193   -1.6043    0.2992 H   0  0  0  0  0  0  0  0  0  0  0  0
   -4.5467   -1.5532   -1.3068 H   0  0  0  0  0  0  0  0  0  0  0  0
   -3.9305   -3.1044   -0.6983 H   0  0  0  0  0  0  0  0  0  0  0  0
   -3.5496   -1.7890   -3.2563 H   0  0  0  0  0  0  0  0  0  0  0  0
   -1.7384   -2.1220   -3.5049 H   0  0  0  0  0  0  0  0  0  0  0  0
   -2.8228   -3.3558   -2.8254 H   0  0  0  0  0  0  0  0  0  0  0  0
   -0.6920    0.0000    0.0000 H   0  0  0  0  0  0  0  0  0  0  0  0
  1  2  1  0
  2  3  1  0
  3  4  1  0
  4  5  2  0
  5  6  1  0
  6  7  1  0
  6  8  2  0
  8  9  1  0
  9 10  2  0
  9 11  1  0
 11 12  1  0
 12 13  2  3
 12 14  1  0
  8 15  1  0
 15 16  2  0
 16 17  1  0
  3 18  1  0
 18 19  1  0
 18 20  1  0
 16  4  1  0
  1 22  1  0
  1 23  1  0
  1 24  1  0
  2 25  1  0
  2 26  1  0
  7 27  1  0
  7 28  1  0
 11 29  1  0
 13 30  1  0
 14 31  1  0
 14 32  1  0
 18 33  1  0
 19 34  1  0
 19 35  1  0
 19 36  1  0
 20 37  1  0
 20 38  1  0
 20 39  1  0
 21 40  1  0
M  END
$$$$
