
     RDKit          3D

 45 47  0  0  0  0  0  0  0  0999 V2000
    0.6871    0.0000    0.0000 Cl  0  0  0  0  0  0  0  0  0  0  0  0
   -5.3390    3.8368    1.6126 Cl  0  0  0  0  0  0  0  0  0  0  0  0
   -4.2522    2.7426    0.7479 C   0  0  0  0  0  0  0  0  0  0  0  0
   -4.6170    1.4807    0.3893 C   0  0  0  0  0  0  0  0  0  0  0  0
   -3.7168    0.6539   -0.2952 C   0  0  0  0  0  0  0  0  0  0  0  0
   -2.4544    1.0992   -0.6159 C   0  0  0  0  0  0  0  0  0  0  0  0
   -1.4892    0.2437   -1.3438 C   0  0  0  0  0  0  0  0  0  0  0  0
   -0.7113   -0.6224   -0.5236 N   0  0  0  0  0  0  0  0  0  0  0  0
    0.4758   -0.3438    0.0374 C   0  0  0  0  0  0  0  0  0  0  0  0
    1.2667    0.8964   -0.0343 C   0  0  0  0  0  0  0  0  0  0  0  0
    2.6025    0.6688    0.4954 N   0  0  0  0  0  0  0  0  0  0  0  0
    3.3077   -0.3404   -0.2325 C   0  0  0  0  0  0  0  0  0  0  0  0
    4.7759    0.0982   -0.2179 C   0  0  0  0  0  0  0  0  0  0  0  0
    4.6152    1.6051   -0.3532 C   0  0  0  0  0  0  0  0  0  0  0  0
    3.3982    1.8551    0.5121 C   0  0  0  0  0  0  0  0  0  0  0  0
    0.8960   -1.4376    0.7444 N   0  0  0  0  0  0  0  0  0  0  0  0
   -0.0176   -2.3998    0.6312 C   0  0  0  0  0  0  0  0  0  0  0  0
   -0.0425   -3.6722    1.1579 C   0  0  0  0  0  0  0  0  0  0  0  0
   -1.1100   -4.5063    0.9002 C   0  0  0  0  0  0  0  0  0  0  0  0
   -2.1246   -4.0114    0.1078 C   0  0  0  0  0  0  0  0  0  0  0  0
   -2.0912   -2.7387   -0.4141 C   0  0  0  0  0  0  0  0  0  0  0  0
   -1.0284   -1.8876   -0.1661 C   0  0  0  0  0  0  0  0  0  0  0  0
   -2.1149    2.3792   -0.2403 C   0  0  0  0  0  0  0  0  0  0  0  0
   -2.9987    3.2161    0.4418 C   0  0  0  0  0  0  0  0  0  0  0  0
   -0.6871    0.0000    0.0000 H   0  0  0  0  0  0  0  0  0  0  0  0
   -5.6182    1.1202    0.6407 H   0  0  0  0  0  0  0  0  0  0  0  0
   -4.0540   -0.3233   -0.5524 H   0  0  0  0  0  0  0  0  0  0  0  0
   -0.8517    0.8870   -2.0200 H   0  0  0  0  0  0  0  0  0  0  0  0
   -2.1171   -0.3390   -2.0833 H   0  0  0  0  0  0  0  0  0  0  0  0
    0.7796    1.7450    0.4931 H   0  0  0  0  0  0  0  0  0  0  0  0
    1.3708    1.1668   -1.1044 H   0  0  0  0  0  0  0  0  0  0  0  0
    2.9442   -0.4905   -1.2561 H   0  0  0  0  0  0  0  0  0  0  0  0
    3.2884   -1.3265    0.3101 H   0  0  0  0  0  0  0  0  0  0  0  0
    5.3408   -0.3409   -1.0493 H   0  0  0  0  0  0  0  0  0  0  0  0
    5.1774   -0.1185    0.7784 H   0  0  0  0  0  0  0  0  0  0  0  0
    4.4098    1.8453   -1.4213 H   0  0  0  0  0  0  0  0  0  0  0  0
    5.5139    2.1291    0.0299 H   0  0  0  0  0  0  0  0  0  0  0  0
    3.7865    2.0239    1.5514 H   0  0  0  0  0  0  0  0  0  0  0  0
    2.8543    2.7581    0.1477 H   0  0  0  0  0  0  0  0  0  0  0  0
    0.7900   -4.0202    1.7834 H   0  0  0  0  0  0  0  0  0  0  0  0
   -1.1513   -5.5213    1.3081 H   0  0  0  0  0  0  0  0  0  0  0  0
   -2.9582   -4.6402   -0.1031 H   0  0  0  0  0  0  0  0  0  0  0  0
   -2.8860   -2.3442   -1.0405 H   0  0  0  0  0  0  0  0  0  0  0  0
   -1.1409    2.7409   -0.4854 H   0  0  0  0  0  0  0  0  0  0  0  0
   -2.7084    4.2325    0.7320 H   0  0  0  0  0  0  0  0  0  0  0  0
  2  3  1  0
  3  4  2  0
  4  5  1  0
  5  6  2  0
  6  7  1  0
  7  8  1  0
  8  9  1  0
  9 10  1  0
 10 11  1  0
 11 12  1  0
 12 13  1  0
 13 14  1  0
 14 15  1  0
  9 16  2  0
 16 17  1  0
 17 18  2  0
 18 19  1  0
 19 20  2  0
 20 21  1  0
 21 22  2  0
  6 23  1  0
 23 24  2  0
 24  3  1  0
 22  8  1  0
 15 11  1  0
 22 17  1  0
  1 25  1  0
  4 26  1  0
  5 27  1  0
  7 28  1  0
  7 29  1  0
 10 30  1  0
 10 31  1  0
 12 32  1  0
 12 33  1  0
 13 34  1  0
 13 35  1  0
 14 36  1  0
 14 37  1  0
 15 38  1  0
 15 39  1  0
 18 40  1  0
 19 41  1  0
 20 42  1  0
 21 43  1  0
 23 44  1  0
 24 45  1  0
M  END
$$$$
