
     RDKit          3D

 43 46  0  0  0  0  0  0  0  0999 V2000
   -3.3838    3.5300    0.2263 C   0  0  0  0  0  0  0  0  0  0  0  0
   -4.6690    3.4159   -0.2711 C   0  0  0  0  0  0  0  0  0  0  0  0
   -5.1638    2.2796   -0.8001 N   0  0  0  0  0  0  0  0  0  0  0  0
   -4.3279    1.2075   -0.8318 C   0  0  0  0  0  0  0  0  0  0  0  0
   -3.0138    1.1965   -0.3616 C   0  0  0  0  0  0  0  0  0  0  0  0
   -2.1745   -0.0075   -0.4318 C   0  0  0  0  0  0  0  0  0  0  0  0
   -0.9306    0.0705    0.0686 N   0  0  0  0  0  0  0  0  0  0  0  0
   -0.1604   -1.0271    0.0070 C   0  0  0  0  0  0  0  0  0  0  0  0
    1.1500   -0.9783    0.5380 N   0  0  0  0  0  0  0  0  0  0  0  0
    1.5948    0.3091    1.0974 C   0  0  0  0  0  0  0  0  0  0  0  0
    1.9245    1.2912   -0.0479 C   0  0  0  0  0  0  0  0  0  0  0  0
    3.0746    2.2283    0.3000 C   0  0  0  0  0  0  0  0  0  0  0  0
    4.3649    1.4591    0.5811 C   0  0  0  0  0  0  0  0  0  0  0  0
    4.1283    0.0945    1.2293 C   0  0  0  0  0  0  0  0  0  0  0  0
    2.8177    0.0576    2.0078 C   0  0  0  0  0  0  0  0  0  0  0  0
   -0.6158   -2.2220   -0.5789 C   0  0  0  0  0  0  0  0  0  0  0  0
    0.1516   -3.4075   -0.7169 C   0  0  0  0  0  0  0  0  0  0  0  0
   -0.3909   -4.5472   -1.3061 C   0  0  0  0  0  0  0  0  0  0  0  0
   -1.6995   -4.5165   -1.7666 C   0  0  0  0  0  0  0  0  0  0  0  0
   -2.4510   -3.3449   -1.6407 C   0  0  0  0  0  0  0  0  0  0  0  0
   -1.9302   -2.1949   -1.0589 C   0  0  0  0  0  0  0  0  0  0  0  0
   -2.7050   -1.1100   -0.9842 N   0  0  0  0  0  0  0  0  0  0  0  0
   -2.5549    2.4091    0.1783 C   0  0  0  0  0  0  0  0  0  0  0  0
   -3.0313    4.4673    0.6416 H   0  0  0  0  0  0  0  0  0  0  0  0
   -5.3537    4.2588   -0.2574 H   0  0  0  0  0  0  0  0  0  0  0  0
   -4.7737    0.3161   -1.2690 H   0  0  0  0  0  0  0  0  0  0  0  0
    1.2238   -1.7317    1.2176 H   0  0  0  0  0  0  0  0  0  0  0  0
    0.8119    0.7290    1.7429 H   0  0  0  0  0  0  0  0  0  0  0  0
    2.1826    0.7442   -0.9646 H   0  0  0  0  0  0  0  0  0  0  0  0
    1.0361    1.8866   -0.2890 H   0  0  0  0  0  0  0  0  0  0  0  0
    2.8019    2.8222    1.1815 H   0  0  0  0  0  0  0  0  0  0  0  0
    3.2427    2.9414   -0.5150 H   0  0  0  0  0  0  0  0  0  0  0  0
    4.9231    1.3137   -0.3517 H   0  0  0  0  0  0  0  0  0  0  0  0
    5.0052    2.0719    1.2272 H   0  0  0  0  0  0  0  0  0  0  0  0
    4.1110   -0.6804    0.4528 H   0  0  0  0  0  0  0  0  0  0  0  0
    4.9685   -0.1471    1.8902 H   0  0  0  0  0  0  0  0  0  0  0  0
    2.8509    0.8348    2.7828 H   0  0  0  0  0  0  0  0  0  0  0  0
    2.7267   -0.8981    2.5378 H   0  0  0  0  0  0  0  0  0  0  0  0
    1.1846   -3.4343   -0.3771 H   0  0  0  0  0  0  0  0  0  0  0  0
    0.2072   -5.4488   -1.4096 H   0  0  0  0  0  0  0  0  0  0  0  0
   -2.1389   -5.3957   -2.2309 H   0  0  0  0  0  0  0  0  0  0  0  0
   -3.4734   -3.3287   -2.0128 H   0  0  0  0  0  0  0  0  0  0  0  0
   -1.5407    2.4858    0.5654 H   0  0  0  0  0  0  0  0  0  0  0  0
  1  2  2  0
  2  3  1  0
  3  4  2  0
  4  5  1  0
  5  6  1  0
  6  7  2  0
  7  8  1  0
  8  9  1  0
  9 10  1  0
 10 11  1  0
 11 12  1  0
 12 13  1  0
 13 14  1  0
 14 15  1  0
  8 16  2  0
 16 17  1  0
 17 18  2  0
 18 19  1  0
 19 20  2  0
 20 21  1  0
 21 22  2  0
  5 23  2  0
 23  1  1  0
 22  6  1  0
 15 10  1  0
 21 16  1  0
  1 24  1  0
  2 25  1  0
  4 26  1  0
  9 27  1  0
 10 28  1  0
 11 29  1  0
 11 30  1  0
 12 31  1  0
 12 32  1  0
 13 33  1  0
 13 34  1  0
 14 35  1  0
 14 36  1  0
 15 37  1  0
 15 38  1  0
 17 39  1  0
 18 40  1  0
 19 41  1  0
 20 42  1  0
 23 43  1  0
M  END
$$$$
