
     RDKit          3D

 32 34  0  0  0  0  0  0  0  0999 V2000
    6.1014    0.8509   -0.2838 C   0  0  0  0  0  0  0  0  0  0  0  0
    5.3743   -0.1860    0.3633 O   0  0  0  0  0  0  0  0  0  0  0  0
    4.0103   -0.1068    0.3122 C   0  0  0  0  0  0  0  0  0  0  0  0
    3.3400   -1.1710    0.9172 C   0  0  0  0  0  0  0  0  0  0  0  0
    1.9424   -1.2174    0.9368 C   0  0  0  0  0  0  0  0  0  0  0  0
    1.1863   -0.1908    0.3541 C   0  0  0  0  0  0  0  0  0  0  0  0
   -0.2886   -0.2240    0.3760 C   0  0  0  0  0  0  0  0  0  0  0  0
   -0.9500   -0.4554    1.5216 C   0  0  0  0  0  0  0  0  0  0  0  0
   -2.3121   -0.5045    1.6947 O   0  0  0  0  0  0  0  0  0  0  0  0
   -3.1022   -0.2936    0.5939 C   0  0  0  0  0  0  0  0  0  0  0  0
   -4.4840   -0.3519    0.7838 C   0  0  0  0  0  0  0  0  0  0  0  0
   -5.3276   -0.1428   -0.3037 C   0  0  0  0  0  0  0  0  0  0  0  0
   -6.6835   -0.1893   -0.1702 O   0  0  0  0  0  0  0  0  0  0  0  0
   -4.8133    0.1222   -1.5699 C   0  0  0  0  0  0  0  0  0  0  0  0
   -3.4316    0.1802   -1.7573 C   0  0  0  0  0  0  0  0  0  0  0  0
   -2.5770   -0.0289   -0.6695 C   0  0  0  0  0  0  0  0  0  0  0  0
   -1.1135    0.0278   -0.8408 C   0  0  0  0  0  0  0  0  0  0  0  0
   -0.6242    0.2709   -1.9379 O   0  0  0  0  0  0  0  0  0  0  0  0
    1.8675    0.8712   -0.2554 C   0  0  0  0  0  0  0  0  0  0  0  0
    3.2678    0.9150   -0.2763 C   0  0  0  0  0  0  0  0  0  0  0  0
    7.1676    0.6324   -0.1701 H   0  0  0  0  0  0  0  0  0  0  0  0
    5.8800    0.8798   -1.3558 H   0  0  0  0  0  0  0  0  0  0  0  0
    5.9084    1.8205    0.1869 H   0  0  0  0  0  0  0  0  0  0  0  0
    3.9116   -1.9767    1.3718 H   0  0  0  0  0  0  0  0  0  0  0  0
    1.4573   -2.0723    1.4021 H   0  0  0  0  0  0  0  0  0  0  0  0
   -0.4641   -0.6271    2.4752 H   0  0  0  0  0  0  0  0  0  0  0  0
   -4.8799   -0.5584    1.7728 H   0  0  0  0  0  0  0  0  0  0  0  0
   -6.9054   -0.3825    0.7558 H   0  0  0  0  0  0  0  0  0  0  0  0
   -5.4860    0.2827   -2.4084 H   0  0  0  0  0  0  0  0  0  0  0  0
   -3.0262    0.3864   -2.7455 H   0  0  0  0  0  0  0  0  0  0  0  0
    1.3135    1.6791   -0.7308 H   0  0  0  0  0  0  0  0  0  0  0  0
    3.7409    1.7601   -0.7650 H   0  0  0  0  0  0  0  0  0  0  0  0
  1  2  1  0
  2  3  1  0
  3  4  2  0
  4  5  1  0
  5  6  2  0
  6  7  1  0
  7  8  2  0
  8  9  1  0
  9 10  1  0
 10 11  2  0
 11 12  1  0
 12 13  1  0
 12 14  2  0
 14 15  1  0
 15 16  2  0
 16 17  1  0
 17 18  2  0
  6 19  1  0
 19 20  2  0
 20  3  1  0
 17  7  1  0
 16 10  1  0
  1 21  1  0
  1 22  1  0
  1 23  1  0
  4 24  1  0
  5 25  1  0
  8 26  1  0
 11 27  1  0
 13 28  1  0
 14 29  1  0
 15 30  1  0
 19 31  1  0
 20 32  1  0
M  END
$$$$
