
     RDKit          3D

 49 52  0  0  0  0  0  0  0  0999 V2000
   -4.2814    0.3361   -1.6510 C   0  0  0  0  0  0  0  0  0  0  0  0
   -3.7483    0.4987   -0.2313 N   0  0  0  0  0  4  0  0  0  0  0  0
   -4.9560    1.0356    0.5644 C   0  0  0  0  0  0  0  0  0  0  0  0
   -3.1475   -0.7735    0.4399 C   0  0  1  0  0  0  0  0  0  0  0  0
   -2.2032   -1.4379   -0.5857 C   0  0  0  0  0  0  0  0  0  0  0  0
   -1.1011   -0.4804   -1.1102 C   0  0  2  0  0  0  0  0  0  0  0  0
    0.0423   -0.6576   -0.2412 O   0  0  0  0  0  0  0  0  0  0  0  0
    1.2686   -0.3248   -0.7755 C   0  0  0  0  0  0  0  0  0  0  0  0
    1.4068    0.0535   -1.9339 O   0  0  0  0  0  0  0  0  0  0  0  0
    2.3927   -0.4585    0.3017 C   0  0  0  0  0  0  0  0  0  0  0  0
    1.8794   -0.7708    1.6036 O   0  0  0  0  0  0  0  0  0  0  0  0
    3.3619   -1.5932   -0.0157 C   0  0  0  0  0  0  0  0  0  0  0  0
    4.5930   -1.8428    0.5793 C   0  0  0  0  0  0  0  0  0  0  0  0
    5.2291   -3.0123    0.0750 C   0  0  0  0  0  0  0  0  0  0  0  0
    4.4587   -3.6475   -0.8718 C   0  0  0  0  0  0  0  0  0  0  0  0
    2.9726   -2.8485   -1.1291 S   0  0  0  0  0  0  0  0  0  0  0  0
    3.0522    0.9156    0.3907 C   0  0  0  0  0  0  0  0  0  0  0  0
    4.1645    1.3959   -0.2866 C   0  0  0  0  0  0  0  0  0  0  0  0
    4.4747    2.7470    0.0411 C   0  0  0  0  0  0  0  0  0  0  0  0
    3.5806    3.2778    0.9411 C   0  0  0  0  0  0  0  0  0  0  0  0
    2.3649    2.1607    1.3709 S   0  0  0  0  0  0  0  0  0  0  0  0
   -1.4790    1.0271   -1.1445 C   0  0  0  0  0  0  0  0  0  0  0  0
   -2.5035    1.4219   -0.0584 C   0  0  2  0  0  0  0  0  0  0  0  0
   -1.8897    1.0982    1.2969 C   0  0  1  0  0  0  0  0  0  0  0  0
   -2.7601    0.8024    2.3923 O   0  0  0  0  0  0  0  0  0  0  0  0
   -2.2990   -0.3042    1.6145 C   0  0  1  0  0  0  0  0  0  0  0  0
    0.0000    0.0000    0.0000 Br  0  0  0  0  0 15  0  0  0  0  0  0
   -4.6206    1.3166   -2.0002 H   0  0  0  0  0  0  0  0  0  0  0  0
   -5.1157   -0.3710   -1.6218 H   0  0  0  0  0  0  0  0  0  0  0  0
   -3.5167   -0.0403   -2.3301 H   0  0  0  0  0  0  0  0  0  0  0  0
   -5.7691    0.3061    0.4727 H   0  0  0  0  0  0  0  0  0  0  0  0
   -4.7287    1.1894    1.6148 H   0  0  0  0  0  0  0  0  0  0  0  0
   -5.2514    1.9902    0.1164 H   0  0  0  0  0  0  0  0  0  0  0  0
   -3.9712   -1.4289    0.7387 H   0  0  0  0  0  0  0  0  0  0  0  0
   -2.7886   -1.8242   -1.4275 H   0  0  0  0  0  0  0  0  0  0  0  0
   -1.7356   -2.3168   -0.1230 H   0  0  0  0  0  0  0  0  0  0  0  0
   -0.8221   -0.8162   -2.1169 H   0  0  0  0  0  0  0  0  0  0  0  0
    1.6784   -1.7218    1.5991 H   0  0  0  0  0  0  0  0  0  0  0  0
    5.0233   -1.2033    1.3448 H   0  0  0  0  0  0  0  0  0  0  0  0
    6.2021   -3.3710    0.3928 H   0  0  0  0  0  0  0  0  0  0  0  0
    4.6948   -4.5522   -1.4168 H   0  0  0  0  0  0  0  0  0  0  0  0
    4.7429    0.8036   -0.9879 H   0  0  0  0  0  0  0  0  0  0  0  0
    5.3129    3.3019   -0.3637 H   0  0  0  0  0  0  0  0  0  0  0  0
    3.5816    4.2747    1.3622 H   0  0  0  0  0  0  0  0  0  0  0  0
   -0.5828    1.6460   -1.0146 H   0  0  0  0  0  0  0  0  0  0  0  0
   -1.8720    1.2842   -2.1345 H   0  0  0  0  0  0  0  0  0  0  0  0
   -2.8292    2.4630   -0.1478 H   0  0  0  0  0  0  0  0  0  0  0  0
   -0.8945    1.4628    1.4958 H   0  0  0  0  0  0  0  0  0  0  0  0
   -1.6110   -1.0115    2.0494 H   0  0  0  0  0  0  0  0  0  0  0  0
  1  2  1  0
  2  3  1  0
  2  4  1  0
  4  5  1  0
  5  6  1  0
  6  7  1  0
  7  8  1  0
  8  9  2  0
  8 10  1  0
 10 11  1  0
 10 12  1  0
 12 13  2  0
 13 14  1  0
 14 15  2  0
 15 16  1  0
 10 17  1  0
 17 18  2  0
 18 19  1  0
 19 20  2  0
 20 21  1  0
  6 22  1  0
 22 23  1  0
 23 24  1  0
 24 25  1  0
 25 26  1  0
 23  2  1  0
 26 24  1  0
 26  4  1  0
 16 12  1  0
 21 17  1  0
  1 28  1  0
  1 29  1  0
  1 30  1  0
  3 31  1  0
  3 32  1  0
  3 33  1  0
  4 34  1  1
  5 35  1  0
  5 36  1  0
  6 37  1  6
 11 38  1  0
 13 39  1  0
 14 40  1  0
 15 41  1  0
 18 42  1  0
 19 43  1  0
 20 44  1  0
 22 45  1  0
 22 46  1  0
 23 47  1  1
 24 48  1  1
 26 49  1  1
M  CHG  2   2   1  27  -1
M  END
$$$$
