
     RDKit          3D

 51 54  0  0  0  0  0  0  0  0999 V2000
   -2.2142    0.6705   -0.8449 O   0  0  0  0  0  0  0  0  0  0  0  0
   -2.3953   -0.3703   -0.2219 C   0  0  0  0  0  0  0  0  0  0  0  0
   -3.3888   -0.5225    0.9388 C   0  0  0  0  0  0  0  0  0  0  0  0
   -4.1004    0.6463    1.3058 O   0  0  0  0  0  0  0  0  0  0  0  0
   -5.2409    0.9474    0.6150 C   0  0  0  0  0  0  0  0  0  0  0  0
   -5.6417    0.3833   -0.5990 C   0  0  0  0  0  0  0  0  0  0  0  0
   -6.8385    0.7897   -1.1980 C   0  0  0  0  0  0  0  0  0  0  0  0
   -7.6237    1.7589   -0.5849 C   0  0  0  0  0  0  0  0  0  0  0  0
   -8.7698    2.1422   -1.1629 F   0  0  0  0  0  0  0  0  0  0  0  0
   -7.2332    2.3373    0.6153 C   0  0  0  0  0  0  0  0  0  0  0  0
   -6.0381    1.9319    1.2116 C   0  0  0  0  0  0  0  0  0  0  0  0
   -1.7080   -1.5374   -0.5197 N   0  0  0  0  0  0  0  0  0  0  0  0
   -0.6603   -1.5275   -1.5362 C   0  0  1  0  0  0  0  0  0  0  0  0
    0.6264   -0.7605   -1.0729 C   0  0  0  0  0  0  0  0  0  0  0  0
    1.7193   -1.5991   -1.6010 C   0  0  0  0  0  0  0  0  0  0  0  0
    3.0851   -1.6600   -1.7702 C   0  0  0  0  0  0  0  0  0  0  0  0
    4.1401   -0.7184   -1.4345 C   0  0  0  0  0  0  0  0  0  0  0  0
    5.3234   -0.9981   -1.5958 O   0  0  0  0  0  0  0  0  0  0  0  0
    3.7179    0.4858   -0.9243 N   0  0  0  0  0  0  0  0  0  0  0  0
    4.6419    1.4559   -0.3881 C   0  0  0  0  0  0  0  0  0  0  0  0
    4.6209    1.4214    1.1181 C   0  0  0  0  0  0  0  0  0  0  0  0
    5.3610    0.4520    1.8107 C   0  0  0  0  0  0  0  0  0  0  0  0
    5.3270    0.3962    3.2047 C   0  0  0  0  0  0  0  0  0  0  0  0
    4.5479    1.3041    3.9195 C   0  0  0  0  0  0  0  0  0  0  0  0
    3.8004    2.2661    3.2418 C   0  0  0  0  0  0  0  0  0  0  0  0
    3.8330    2.3235    1.8472 C   0  0  0  0  0  0  0  0  0  0  0  0
    3.2676   -2.9493   -2.3669 C   0  0  0  0  0  0  0  0  0  0  0  0
    2.1198   -3.6245   -2.5458 N   0  0  0  0  0  0  0  0  0  0  0  0
    1.2256   -2.7631   -2.0852 N   0  0  0  0  0  0  0  0  0  0  0  0
   -0.2042   -2.9435   -1.9559 C   0  0  0  0  0  0  0  0  0  0  0  0
   -4.0655   -1.3648    0.7459 H   0  0  0  0  0  0  0  0  0  0  0  0
   -2.7939   -0.8033    1.8170 H   0  0  0  0  0  0  0  0  0  0  0  0
   -5.0411   -0.3561   -1.1176 H   0  0  0  0  0  0  0  0  0  0  0  0
   -7.1577    0.3622   -2.1437 H   0  0  0  0  0  0  0  0  0  0  0  0
   -7.8545    3.0978    1.0769 H   0  0  0  0  0  0  0  0  0  0  0  0
   -5.7244    2.3851    2.1494 H   0  0  0  0  0  0  0  0  0  0  0  0
   -1.6917   -2.2663    0.1850 H   0  0  0  0  0  0  0  0  0  0  0  0
   -1.0636   -1.0141   -2.4203 H   0  0  0  0  0  0  0  0  0  0  0  0
    0.6855   -0.6951    0.0190 H   0  0  0  0  0  0  0  0  0  0  0  0
    0.6396    0.2506   -1.4911 H   0  0  0  0  0  0  0  0  0  0  0  0
    2.7419    0.6183   -0.7193 H   0  0  0  0  0  0  0  0  0  0  0  0
    4.3285    2.4403   -0.7527 H   0  0  0  0  0  0  0  0  0  0  0  0
    5.6587    1.2821   -0.7572 H   0  0  0  0  0  0  0  0  0  0  0  0
    5.9677   -0.2669    1.2612 H   0  0  0  0  0  0  0  0  0  0  0  0
    5.9069   -0.3571    3.7318 H   0  0  0  0  0  0  0  0  0  0  0  0
    4.5225    1.2612    5.0052 H   0  0  0  0  0  0  0  0  0  0  0  0
    3.1919    2.9728    3.8007 H   0  0  0  0  0  0  0  0  0  0  0  0
    3.2422    3.0790    1.3340 H   0  0  0  0  0  0  0  0  0  0  0  0
    4.2028   -3.4093   -2.6643 H   0  0  0  0  0  0  0  0  0  0  0  0
   -0.6158   -3.2491   -2.9213 H   0  0  0  0  0  0  0  0  0  0  0  0
   -0.3803   -3.7053   -1.1909 H   0  0  0  0  0  0  0  0  0  0  0  0
  1  2  2  0
  2  3  1  0
  3  4  1  0
  4  5  1  0
  5  6  2  0
  6  7  1  0
  7  8  2  0
  8  9  1  0
  8 10  1  0
 10 11  2  0
  2 12  1  0
 12 13  1  0
 13 14  1  0
 14 15  1  0
 15 16  2  0
 16 17  1  0
 17 18  2  0
 17 19  1  0
 19 20  1  0
 20 21  1  0
 21 22  2  0
 22 23  1  0
 23 24  2  0
 24 25  1  0
 25 26  2  0
 16 27  1  0
 27 28  2  0
 28 29  1  0
 29 30  1  0
 11  5  1  0
 30 13  1  0
 29 15  1  0
 26 21  1  0
  3 31  1  0
  3 32  1  0
  6 33  1  0
  7 34  1  0
 10 35  1  0
 11 36  1  0
 12 37  1  0
 13 38  1  6
 14 39  1  0
 14 40  1  0
 19 41  1  0
 20 42  1  0
 20 43  1  0
 22 44  1  0
 23 45  1  0
 24 46  1  0
 25 47  1  0
 26 48  1  0
 27 49  1  0
 30 50  1  0
 30 51  1  0
M  END
$$$$
