
     RDKit          3D

 58 62  0  0  0  0  0  0  0  0999 V2000
    8.1996    1.2143    3.3771 C   0  0  0  0  0  0  0  0  0  0  0  0
    8.2400    0.3637    2.1446 C   0  0  0  0  0  0  0  0  0  0  0  0
    7.2438    0.4624    1.1972 C   0  0  0  0  0  0  0  0  0  0  0  0
    7.3591   -0.3477    0.0866 C   0  0  0  0  0  0  0  0  0  0  0  0
    6.4278   -0.3125   -0.9587 N   0  0  0  0  0  0  0  0  0  0  0  0
    5.0264   -0.1939   -0.9399 C   0  0  0  0  0  0  0  0  0  0  0  0
    4.3710    0.1329   -2.1330 C   0  0  0  0  0  0  0  0  0  0  0  0
    2.9786    0.2816   -2.1838 C   0  0  0  0  0  0  0  0  0  0  0  0
    2.2081    0.1038   -1.0373 C   0  0  0  0  0  0  0  0  0  0  0  0
    0.8035    0.2270   -1.0010 N   0  0  0  0  0  0  0  0  0  0  0  0
   -0.0287    0.6278   -2.0310 C   0  0  0  0  0  0  0  0  0  0  0  0
    0.3112    1.0164   -3.1419 O   0  0  0  0  0  0  0  0  0  0  0  0
   -1.4837    0.6151   -1.7046 C   0  0  0  0  0  0  0  0  0  0  0  0
   -2.3068    1.5867   -2.2830 C   0  0  0  0  0  0  0  0  0  0  0  0
   -3.6777    1.6043   -2.0062 C   0  0  0  0  0  0  0  0  0  0  0  0
   -4.2498    0.6569   -1.1472 C   0  0  0  0  0  0  0  0  0  0  0  0
   -5.6366    0.6854   -0.9026 N   0  0  0  0  0  0  0  0  0  0  0  0
   -6.3531    0.3533    0.2788 C   0  0  0  0  0  0  0  0  0  0  0  0
   -5.7541    0.4468    1.5356 C   0  0  0  0  0  0  0  0  0  0  0  0
   -6.5090    0.1521    2.6527 C   0  0  0  0  0  0  0  0  0  0  0  0
   -7.8021   -0.2220    2.6089 N   0  0  0  0  0  0  0  0  0  0  0  0
   -8.3910   -0.3174    1.4062 C   0  0  0  0  0  0  0  0  0  0  0  0
   -9.7241   -0.7033    1.3554 C   0  0  0  0  0  0  0  0  0  0  0  0
  -10.4108   -0.8348    0.1463 C   0  0  0  0  0  0  0  0  0  0  0  0
   -9.7529   -0.5805   -1.0483 C   0  0  0  0  0  0  0  0  0  0  0  0
   -8.4148   -0.1900   -1.0251 C   0  0  0  0  0  0  0  0  0  0  0  0
   -7.7139   -0.0431    0.1966 C   0  0  0  0  0  0  0  0  0  0  0  0
   -3.4211   -0.3329   -0.6017 C   0  0  0  0  0  0  0  0  0  0  0  0
   -2.0486   -0.3589   -0.8749 C   0  0  0  0  0  0  0  0  0  0  0  0
    2.8541   -0.2334    0.1568 C   0  0  0  0  0  0  0  0  0  0  0  0
    4.2471   -0.3774    0.2045 C   0  0  0  0  0  0  0  0  0  0  0  0
    8.4067   -1.1706   -0.0847 N   0  0  0  0  0  0  0  0  0  0  0  0
    9.3116   -1.2175    0.8947 C   0  0  0  0  0  0  0  0  0  0  0  0
   10.3904   -2.0610    0.7275 N   0  0  0  0  0  0  0  0  0  0  0  0
    9.2815   -0.4764    2.0035 N   0  0  0  0  0  0  0  0  0  0  0  0
    9.0557    1.0023    4.0257 H   0  0  0  0  0  0  0  0  0  0  0  0
    7.2853    1.0155    3.9448 H   0  0  0  0  0  0  0  0  0  0  0  0
    8.2314    2.2741    3.1062 H   0  0  0  0  0  0  0  0  0  0  0  0
    6.4273    1.1635    1.3072 H   0  0  0  0  0  0  0  0  0  0  0  0
    6.7477   -0.9474   -1.6860 H   0  0  0  0  0  0  0  0  0  0  0  0
    4.9450    0.2899   -3.0439 H   0  0  0  0  0  0  0  0  0  0  0  0
    2.5316    0.5349   -3.1400 H   0  0  0  0  0  0  0  0  0  0  0  0
    0.3746    0.0670   -0.0995 H   0  0  0  0  0  0  0  0  0  0  0  0
   -1.8833    2.3320   -2.9540 H   0  0  0  0  0  0  0  0  0  0  0  0
   -4.2924    2.3712   -2.4713 H   0  0  0  0  0  0  0  0  0  0  0  0
   -6.1194    1.4214   -1.4112 H   0  0  0  0  0  0  0  0  0  0  0  0
   -4.7282    0.7731    1.6560 H   0  0  0  0  0  0  0  0  0  0  0  0
   -6.0822    0.2206    3.6493 H   0  0  0  0  0  0  0  0  0  0  0  0
  -10.2442   -0.9104    2.2882 H   0  0  0  0  0  0  0  0  0  0  0  0
  -11.4534   -1.1415    0.1451 H   0  0  0  0  0  0  0  0  0  0  0  0
  -10.2742   -0.6910   -1.9957 H   0  0  0  0  0  0  0  0  0  0  0  0
   -7.9115   -0.0161   -1.9734 H   0  0  0  0  0  0  0  0  0  0  0  0
   -3.8489   -1.1204    0.0153 H   0  0  0  0  0  0  0  0  0  0  0  0
   -1.4500   -1.1685   -0.4665 H   0  0  0  0  0  0  0  0  0  0  0  0
    2.2880   -0.3950    1.0705 H   0  0  0  0  0  0  0  0  0  0  0  0
    4.7022   -0.6688    1.1468 H   0  0  0  0  0  0  0  0  0  0  0  0
   11.1692   -1.7222    1.2748 H   0  0  0  0  0  0  0  0  0  0  0  0
   10.5480   -2.2229   -0.2565 H   0  0  0  0  0  0  0  0  0  0  0  0
  1  2  1  0
  2  3  2  0
  3  4  1  0
  4  5  1  0
  5  6  1  0
  6  7  2  0
  7  8  1  0
  8  9  2  0
  9 10  1  0
 10 11  1  0
 11 12  2  0
 11 13  1  0
 13 14  2  0
 14 15  1  0
 15 16  2  0
 16 17  1  0
 17 18  1  0
 18 19  2  0
 19 20  1  0
 20 21  2  0
 21 22  1  0
 22 23  2  0
 23 24  1  0
 24 25  2  0
 25 26  1  0
 26 27  2  0
 16 28  1  0
 28 29  2  0
  9 30  1  0
 30 31  2  0
  4 32  2  0
 32 33  1  0
 33 34  1  0
 33 35  2  0
 35  2  1  0
 31  6  1  0
 29 13  1  0
 27 18  1  0
 27 22  1  0
  1 36  1  0
  1 37  1  0
  1 38  1  0
  3 39  1  0
  5 40  1  0
  7 41  1  0
  8 42  1  0
 10 43  1  0
 14 44  1  0
 15 45  1  0
 17 46  1  0
 19 47  1  0
 20 48  1  0
 23 49  1  0
 24 50  1  0
 25 51  1  0
 26 52  1  0
 28 53  1  0
 29 54  1  0
 30 55  1  0
 31 56  1  0
 34 57  1  0
 34 58  1  0
M  END
$$$$
