
     RDKit          3D

 53 55  0  0  0  0  0  0  0  0999 V2000
   -4.8698   -3.2807   -0.7080 C   0  0  0  0  0  0  0  0  0  0  0  0
   -4.7562   -2.5370   -1.9137 O   0  0  0  0  0  0  0  0  0  0  0  0
   -3.9517   -1.3742   -1.7649 C   0  0  0  0  0  0  0  0  0  0  0  0
   -2.4436   -1.5971   -1.5126 C   0  0  0  0  0  0  0  0  0  0  0  0
   -1.9227   -2.6617   -1.8623 O   0  0  0  0  0  0  0  0  0  0  0  0
   -1.6762   -0.5712   -0.9394 N   0  0  0  0  0  0  0  0  0  0  0  0
   -2.2080    0.5725   -0.1538 C   0  0  0  0  0  0  0  0  0  0  0  0
   -2.9736    1.6068   -0.9920 C   0  0  0  0  0  0  0  0  0  0  0  0
   -4.0268    2.3226   -0.1568 C   0  0  0  0  0  0  0  0  0  0  0  0
   -3.5105    2.5654    1.1461 O   0  0  0  0  0  0  0  0  0  0  0  0
   -3.3802    1.3779    1.9282 C   0  0  0  0  0  0  0  0  0  0  0  0
   -2.9616    0.1529    1.1149 C   0  0  0  0  0  0  0  0  0  0  0  0
   -0.2116   -0.7772   -0.9482 C   0  0  0  0  0  0  0  0  0  0  0  0
    0.6026    0.3920   -1.5187 C   0  0  0  0  0  0  0  0  0  0  0  0
    2.0080    0.0921   -1.0145 C   0  0  0  0  0  0  0  0  0  0  0  0
    1.8036   -0.5336    0.2861 N   0  0  0  0  0  0  0  0  0  0  0  0
    2.7733   -0.9311    1.1877 C   0  0  0  0  0  0  0  0  0  0  0  0
    2.5393   -1.6502    2.1546 O   0  0  0  0  0  0  0  0  0  0  0  0
    4.1586   -0.4875    0.9734 C   0  0  0  0  0  0  0  0  0  0  0  0
    5.1554   -1.4391    0.8330 C   0  0  0  0  0  0  0  0  0  0  0  0
    6.4606   -1.1292    0.6437 N   0  0  0  0  0  0  0  0  0  0  0  0
    6.7760    0.1870    0.6253 C   0  0  0  0  0  0  0  0  0  0  0  0
    5.8505    1.2174    0.7760 C   0  0  0  0  0  0  0  0  0  0  0  0
    6.2849    2.6484    0.7980 C   0  0  0  0  0  0  0  0  0  0  0  0
    4.5133    0.8618    0.9722 C   0  0  0  0  0  0  0  0  0  0  0  0
    0.4401   -1.0324    0.4197 C   0  0  0  0  0  0  0  0  0  0  0  0
   -5.5390   -4.1259   -0.8898 H   0  0  0  0  0  0  0  0  0  0  0  0
   -5.3003   -2.6615    0.0849 H   0  0  0  0  0  0  0  0  0  0  0  0
   -3.8990   -3.6731   -0.3925 H   0  0  0  0  0  0  0  0  0  0  0  0
   -4.4185   -0.7351   -1.0198 H   0  0  0  0  0  0  0  0  0  0  0  0
   -4.0143   -0.8430   -2.7216 H   0  0  0  0  0  0  0  0  0  0  0  0
   -1.3326    1.1141    0.2265 H   0  0  0  0  0  0  0  0  0  0  0  0
   -2.2450    2.3439   -1.3556 H   0  0  0  0  0  0  0  0  0  0  0  0
   -3.4336    1.1951   -1.8928 H   0  0  0  0  0  0  0  0  0  0  0  0
   -4.2769    3.2850   -0.6145 H   0  0  0  0  0  0  0  0  0  0  0  0
   -4.9538    1.7409   -0.0876 H   0  0  0  0  0  0  0  0  0  0  0  0
   -4.3273    1.1883    2.4457 H   0  0  0  0  0  0  0  0  0  0  0  0
   -2.6302    1.5872    2.6984 H   0  0  0  0  0  0  0  0  0  0  0  0
   -2.3565   -0.5156    1.7382 H   0  0  0  0  0  0  0  0  0  0  0  0
   -3.8601   -0.4220    0.8782 H   0  0  0  0  0  0  0  0  0  0  0  0
    0.0338   -1.6395   -1.5821 H   0  0  0  0  0  0  0  0  0  0  0  0
    0.2730    1.3596   -1.1268 H   0  0  0  0  0  0  0  0  0  0  0  0
    0.5533    0.4451   -2.6107 H   0  0  0  0  0  0  0  0  0  0  0  0
    2.6151    0.9964   -0.9402 H   0  0  0  0  0  0  0  0  0  0  0  0
    2.5204   -0.6302   -1.6600 H   0  0  0  0  0  0  0  0  0  0  0  0
    4.9303   -2.5017    0.8682 H   0  0  0  0  0  0  0  0  0  0  0  0
    7.8348    0.3951    0.4889 H   0  0  0  0  0  0  0  0  0  0  0  0
    7.1801    2.7957    0.1850 H   0  0  0  0  0  0  0  0  0  0  0  0
    6.5048    2.9592    1.8241 H   0  0  0  0  0  0  0  0  0  0  0  0
    5.5028    3.2982    0.3913 H   0  0  0  0  0  0  0  0  0  0  0  0
    3.7567    1.6236    1.1387 H   0  0  0  0  0  0  0  0  0  0  0  0
    0.4350   -2.0965    0.6793 H   0  0  0  0  0  0  0  0  0  0  0  0
   -0.0269   -0.4781    1.2387 H   0  0  0  0  0  0  0  0  0  0  0  0
  1  2  1  0
  2  3  1  0
  3  4  1  0
  4  5  2  0
  4  6  1  0
  6  7  1  0
  7  8  1  0
  8  9  1  0
  9 10  1  0
 10 11  1  0
 11 12  1  0
  6 13  1  0
 13 14  1  0
 14 15  1  0
 15 16  1  0
 16 17  1  0
 17 18  2  0
 17 19  1  0
 19 20  2  0
 20 21  1  0
 21 22  2  0
 22 23  1  0
 23 24  1  0
 23 25  2  0
 16 26  1  0
 12  7  1  0
 26 13  1  0
 25 19  1  0
  1 27  1  0
  1 28  1  0
  1 29  1  0
  3 30  1  0
  3 31  1  0
  7 32  1  0
  8 33  1  0
  8 34  1  0
  9 35  1  0
  9 36  1  0
 11 37  1  0
 11 38  1  0
 12 39  1  0
 12 40  1  0
 13 41  1  0
 14 42  1  0
 14 43  1  0
 15 44  1  0
 15 45  1  0
 20 46  1  0
 22 47  1  0
 24 48  1  0
 24 49  1  0
 24 50  1  0
 25 51  1  0
 26 52  1  0
 26 53  1  0
M  END
$$$$
