
     RDKit          3D

 46 48  0  0  0  0  0  0  0  0999 V2000
   -0.5527    1.5241    1.2933 O   0  0  0  0  0  0  0  0  0  0  0  0
   -0.0531    0.6294    0.6220 C   0  0  0  0  0  0  0  0  0  0  0  0
   -0.7837   -0.3816    0.0274 N   0  0  0  0  0  0  0  0  0  0  0  0
   -2.2312   -0.4821    0.2073 C   0  0  0  0  0  0  0  0  0  0  0  0
   -2.9798    0.5957   -0.5773 C   0  0  0  0  0  0  0  0  0  0  0  0
   -4.4885    0.5126   -0.3127 C   0  0  0  0  0  0  0  0  0  0  0  0
   -4.9683   -0.8535   -0.0408 N   0  0  0  0  0  0  0  0  0  0  0  0
   -6.4204   -1.0008   -0.3239 C   0  0  0  0  0  0  0  0  0  0  0  0
   -7.4087   -0.0644    0.4031 C   0  0  0  0  0  0  0  0  0  0  0  0
   -8.6840   -0.4191    0.1113 F   0  0  0  0  0  0  0  0  0  0  0  0
   -7.2704   -0.1223    1.7449 F   0  0  0  0  0  0  0  0  0  0  0  0
   -7.2568    1.2230    0.0188 F   0  0  0  0  0  0  0  0  0  0  0  0
   -4.1741   -1.8591   -0.7408 C   0  0  0  0  0  0  0  0  0  0  0  0
   -2.7393   -1.8754   -0.2011 C   0  0  0  0  0  0  0  0  0  0  0  0
    1.4165    0.5797    0.4417 C   0  0  0  0  0  0  0  0  0  0  0  0
    2.0408   -0.0445   -0.6367 C   0  0  0  0  0  0  0  0  0  0  0  0
    3.4362   -0.0327   -0.7220 C   0  0  0  0  0  0  0  0  0  0  0  0
    4.1844    0.6082    0.2679 C   0  0  0  0  0  0  0  0  0  0  0  0
    5.6609    0.6638    0.2556 C   0  0  0  0  0  0  0  0  0  0  0  0
    6.4025    0.6995   -0.9428 C   0  0  0  0  0  0  0  0  0  0  0  0
    7.8023    0.7486   -0.9363 C   0  0  0  0  0  0  0  0  0  0  0  0
    8.4904    0.7664    0.2724 C   0  0  0  0  0  0  0  0  0  0  0  0
    7.7748    0.7417    1.4612 C   0  0  0  0  0  0  0  0  0  0  0  0
    8.4352    0.7617    2.6265 F   0  0  0  0  0  0  0  0  0  0  0  0
    6.3837    0.6940    1.4620 C   0  0  0  0  0  0  0  0  0  0  0  0
    3.5821    1.2202    1.3190 N   0  0  0  0  0  0  0  0  0  0  0  0
    2.2254    1.2055    1.3778 C   0  0  0  0  0  0  0  0  0  0  0  0
   -0.2924   -1.1974   -0.3101 H   0  0  0  0  0  0  0  0  0  0  0  0
   -2.4286   -0.3345    1.2779 H   0  0  0  0  0  0  0  0  0  0  0  0
   -2.6246    1.6002   -0.3213 H   0  0  0  0  0  0  0  0  0  0  0  0
   -2.7838    0.4668   -1.6505 H   0  0  0  0  0  0  0  0  0  0  0  0
   -5.0002    0.9502   -1.1794 H   0  0  0  0  0  0  0  0  0  0  0  0
   -4.7291    1.1370    0.5559 H   0  0  0  0  0  0  0  0  0  0  0  0
   -6.7110   -2.0235   -0.0525 H   0  0  0  0  0  0  0  0  0  0  0  0
   -6.5933   -0.9018   -1.4034 H   0  0  0  0  0  0  0  0  0  0  0  0
   -4.1713   -1.6682   -1.8220 H   0  0  0  0  0  0  0  0  0  0  0  0
   -4.5972   -2.8614   -0.5996 H   0  0  0  0  0  0  0  0  0  0  0  0
   -2.6764   -2.5363    0.6732 H   0  0  0  0  0  0  0  0  0  0  0  0
   -2.0931   -2.3229   -0.9670 H   0  0  0  0  0  0  0  0  0  0  0  0
    1.4684   -0.5196   -1.4267 H   0  0  0  0  0  0  0  0  0  0  0  0
    3.9214   -0.5319   -1.5547 H   0  0  0  0  0  0  0  0  0  0  0  0
    5.8967    0.7121   -1.9060 H   0  0  0  0  0  0  0  0  0  0  0  0
    8.3504    0.7805   -1.8746 H   0  0  0  0  0  0  0  0  0  0  0  0
    9.5744    0.8065    0.2977 H   0  0  0  0  0  0  0  0  0  0  0  0
    5.8647    0.6803    2.4176 H   0  0  0  0  0  0  0  0  0  0  0  0
    1.8007    1.7250    2.2341 H   0  0  0  0  0  0  0  0  0  0  0  0
  1  2  2  0
  2  3  1  0
  3  4  1  0
  4  5  1  0
  5  6  1  0
  6  7  1  0
  7  8  1  0
  8  9  1  0
  9 10  1  0
  9 11  1  0
  9 12  1  0
  7 13  1  0
 13 14  1  0
  2 15  1  0
 15 16  2  0
 16 17  1  0
 17 18  2  0
 18 19  1  0
 19 20  2  0
 20 21  1  0
 21 22  2  0
 22 23  1  0
 23 24  1  0
 23 25  2  0
 18 26  1  0
 26 27  2  0
 14  4  1  0
 27 15  1  0
 25 19  1  0
  3 28  1  0
  4 29  1  0
  5 30  1  0
  5 31  1  0
  6 32  1  0
  6 33  1  0
  8 34  1  0
  8 35  1  0
 13 36  1  0
 13 37  1  0
 14 38  1  0
 14 39  1  0
 16 40  1  0
 17 41  1  0
 20 42  1  0
 21 43  1  0
 22 44  1  0
 25 45  1  0
 27 46  1  0
M  END
$$$$
