
     RDKit          3D

 56 60  0  0  0  0  0  0  0  0999 V2000
   -3.1268    0.0420    2.6154 O   0  0  0  0  0  0  0  0  0  0  0  0
   -3.4744   -0.2790    1.4775 C   0  0  0  0  0  0  0  0  0  0  0  0
   -2.4379   -0.6060    0.3986 C   0  0  0  0  0  0  0  0  0  0  0  0
   -1.0388   -0.8014    1.0115 C   0  0  0  0  0  0  0  0  0  0  0  0
    0.0296   -0.7465   -0.0743 C   0  0  0  0  0  0  0  0  0  0  0  0
    0.0583    0.5842   -0.7068 N   0  0  0  0  0  0  0  0  0  0  0  0
    0.6344    0.5216   -1.9913 C   0  0  0  0  0  0  0  0  0  0  0  0
   -0.2140    0.4745   -3.0529 N   0  0  0  0  0  0  0  0  0  0  0  0
    0.3002    0.3408   -4.2938 C   0  0  0  0  0  0  0  0  0  0  0  0
    1.6493    0.2398   -4.5552 C   0  0  0  0  0  0  0  0  0  0  0  0
    2.5211    0.2966   -3.4760 C   0  0  0  0  0  0  0  0  0  0  0  0
    2.0302    0.4541   -2.1673 C   0  0  0  0  0  0  0  0  0  0  0  0
    3.0012    0.5589   -1.0860 C   0  0  0  0  0  0  0  0  0  0  0  0
    4.2451    0.1273   -1.0423 N   0  0  0  0  0  0  0  0  0  0  0  0
    4.6731    0.5561    0.1962 C   0  0  0  0  0  0  0  0  0  0  0  0
    6.0190    0.2847    0.6897 C   0  0  0  0  0  0  0  0  0  0  0  0
    6.9254   -0.4499   -0.0941 C   0  0  0  0  0  0  0  0  0  0  0  0
    8.2187   -0.7172    0.3662 C   0  0  0  0  0  0  0  0  0  0  0  0
    8.6182   -0.2516    1.6161 C   0  0  0  0  0  0  0  0  0  0  0  0
    7.7236    0.4751    2.3930 C   0  0  0  0  0  0  0  0  0  0  0  0
    8.1108    0.9221    3.5948 F   0  0  0  0  0  0  0  0  0  0  0  0
    6.4345    0.7468    1.9457 C   0  0  0  0  0  0  0  0  0  0  0  0
    3.7460    1.2388    0.8858 N   0  0  0  0  0  0  0  0  0  0  0  0
    2.6432    1.2525    0.0337 O   0  0  0  0  0  0  0  0  0  0  0  0
   -1.1907    1.3585   -0.6390 C   0  0  0  0  0  0  0  0  0  0  0  0
   -2.4282    0.4662   -0.7067 C   0  0  0  0  0  0  0  0  0  0  0  0
   -4.8165   -0.3365    1.1318 N   0  0  0  0  0  0  0  0  0  0  0  0
   -5.3685   -0.8346   -0.1346 C   0  0  0  0  0  0  0  0  0  0  0  0
   -6.7813   -1.3968    0.0622 C   0  0  0  0  0  0  0  0  0  0  0  0
   -7.7069   -0.4405    0.5939 O   0  0  0  0  0  0  0  0  0  0  0  0
   -7.1073    0.5338    1.4606 C   0  0  0  0  0  0  0  0  0  0  0  0
   -5.8158    0.0562    2.1301 C   0  0  0  0  0  0  0  0  0  0  0  0
   -2.7177   -1.5685   -0.0452 H   0  0  0  0  0  0  0  0  0  0  0  0
   -0.8229   -0.0377    1.7697 H   0  0  0  0  0  0  0  0  0  0  0  0
   -0.9988   -1.7684    1.5277 H   0  0  0  0  0  0  0  0  0  0  0  0
    1.0044   -0.9619    0.3778 H   0  0  0  0  0  0  0  0  0  0  0  0
   -0.1725   -1.5363   -0.8114 H   0  0  0  0  0  0  0  0  0  0  0  0
   -0.4310    0.3119   -5.0964 H   0  0  0  0  0  0  0  0  0  0  0  0
    2.0156    0.1288   -5.5693 H   0  0  0  0  0  0  0  0  0  0  0  0
    3.5933    0.2335   -3.6539 H   0  0  0  0  0  0  0  0  0  0  0  0
    6.6275   -0.8210   -1.0736 H   0  0  0  0  0  0  0  0  0  0  0  0
    8.9093   -1.2870   -0.2506 H   0  0  0  0  0  0  0  0  0  0  0  0
    9.6179   -0.4489    1.9903 H   0  0  0  0  0  0  0  0  0  0  0  0
    5.7693    1.3186    2.5871 H   0  0  0  0  0  0  0  0  0  0  0  0
   -1.2352    2.1360   -1.4127 H   0  0  0  0  0  0  0  0  0  0  0  0
   -1.1960    1.9041    0.3137 H   0  0  0  0  0  0  0  0  0  0  0  0
   -3.3149    1.1075   -0.6591 H   0  0  0  0  0  0  0  0  0  0  0  0
   -2.4641   -0.0380   -1.6801 H   0  0  0  0  0  0  0  0  0  0  0  0
   -4.7222   -1.6015   -0.5653 H   0  0  0  0  0  0  0  0  0  0  0  0
   -5.4048    0.0195   -0.8196 H   0  0  0  0  0  0  0  0  0  0  0  0
   -6.7590   -2.2542    0.7452 H   0  0  0  0  0  0  0  0  0  0  0  0
   -7.1841   -1.7495   -0.8925 H   0  0  0  0  0  0  0  0  0  0  0  0
   -6.9114    1.4292    0.8592 H   0  0  0  0  0  0  0  0  0  0  0  0
   -7.8506    0.8038    2.2174 H   0  0  0  0  0  0  0  0  0  0  0  0
   -6.0122   -0.8309    2.7439 H   0  0  0  0  0  0  0  0  0  0  0  0
   -5.4147    0.8405    2.7806 H   0  0  0  0  0  0  0  0  0  0  0  0
  1  2  2  0
  2  3  1  0
  3  4  1  0
  4  5  1  0
  5  6  1  0
  6  7  1  0
  7  8  2  0
  8  9  1  0
  9 10  2  0
 10 11  1  0
 11 12  2  0
 12 13  1  0
 13 14  2  0
 14 15  1  0
 15 16  1  0
 16 17  2  0
 17 18  1  0
 18 19  2  0
 19 20  1  0
 20 21  1  0
 20 22  2  0
 15 23  2  0
 23 24  1  0
  6 25  1  0
 25 26  1  0
  2 27  1  0
 27 28  1  0
 28 29  1  0
 29 30  1  0
 30 31  1  0
 31 32  1  0
 26  3  1  0
 32 27  1  0
 12  7  1  0
 24 13  1  0
 22 16  1  0
  3 33  1  0
  4 34  1  0
  4 35  1  0
  5 36  1  0
  5 37  1  0
  9 38  1  0
 10 39  1  0
 11 40  1  0
 17 41  1  0
 18 42  1  0
 19 43  1  0
 22 44  1  0
 25 45  1  0
 25 46  1  0
 26 47  1  0
 26 48  1  0
 28 49  1  0
 28 50  1  0
 29 51  1  0
 29 52  1  0
 31 53  1  0
 31 54  1  0
 32 55  1  0
 32 56  1  0
M  END
$$$$
