
     RDKit          3D

 55 59  0  0  0  0  0  0  0  0999 V2000
    5.9818    1.6006   -0.7555 C   0  0  0  0  0  0  0  0  0  0  0  0
    6.3989    0.1655   -0.9220 C   0  0  0  0  0  0  0  0  0  0  0  0
    7.5741   -0.1243   -1.6353 C   0  0  0  0  0  0  0  0  0  0  0  0
    8.0105   -1.4428   -1.7799 C   0  0  0  0  0  0  0  0  0  0  0  0
    7.2774   -2.4782   -1.2131 C   0  0  0  0  0  0  0  0  0  0  0  0
    7.7056   -3.7395   -1.3502 F   0  0  0  0  0  0  0  0  0  0  0  0
    6.1050   -2.2261   -0.5165 C   0  0  0  0  0  0  0  0  0  0  0  0
    5.6544   -0.9074   -0.3891 C   0  0  0  0  0  0  0  0  0  0  0  0
    4.3763   -0.7065    0.3367 C   0  0  0  0  0  0  0  0  0  0  0  0
    4.2871   -1.1256    1.4820 O   0  0  0  0  0  0  0  0  0  0  0  0
    3.3934   -0.0978   -0.4191 N   0  0  0  0  0  0  0  0  0  0  0  0
    2.0943    0.2572   -0.0029 C   0  0  0  0  0  0  0  0  0  0  0  0
    1.2382    0.7892   -0.9767 C   0  0  0  0  0  0  0  0  0  0  0  0
   -0.0643    1.1680   -0.6468 C   0  0  0  0  0  0  0  0  0  0  0  0
   -0.5226    1.0067    0.6642 C   0  0  0  0  0  0  0  0  0  0  0  0
   -1.8932    1.4529    0.9697 C   0  0  0  0  0  0  0  0  0  0  0  0
   -2.0313    2.6754    1.0027 O   0  0  0  0  0  0  0  0  0  0  0  0
   -2.9092    0.4878    1.1300 N   0  0  0  0  0  0  0  0  0  0  0  0
   -2.6813   -0.9178    0.7928 C   0  0  0  0  0  0  0  0  0  0  0  0
   -3.1541   -1.1353   -0.5943 C   0  0  0  0  0  0  0  0  0  0  0  0
   -2.4919   -1.3814   -1.7794 C   0  0  0  0  0  0  0  0  0  0  0  0
   -3.4694   -1.4467   -2.8012 C   0  0  0  0  0  0  0  0  0  0  0  0
   -4.6989   -1.2522   -2.2095 C   0  0  0  0  0  0  0  0  0  0  0  0
   -4.4943   -1.0686   -0.8681 N   0  0  0  0  0  0  0  0  0  0  0  0
   -5.5272   -0.9676    0.1544 C   0  0  0  0  0  0  0  0  0  0  0  0
   -5.4320    0.2360    1.0704 C   0  0  0  0  0  0  0  0  0  0  0  0
   -6.6839    0.7006    1.5514 C   0  0  0  0  0  0  0  0  0  0  0  0
   -6.7878    1.7928    2.4072 C   0  0  0  0  0  0  0  0  0  0  0  0
   -5.6380    2.4414    2.8182 C   0  0  0  0  0  0  0  0  0  0  0  0
   -4.3928    1.9925    2.3737 C   0  0  0  0  0  0  0  0  0  0  0  0
   -4.2503    0.8937    1.4986 C   0  0  0  0  0  0  0  0  0  0  0  0
    0.3301    0.5070    1.6504 C   0  0  0  0  0  0  0  0  0  0  0  0
   -0.1731    0.3341    3.2939 Cl  0  0  0  0  0  0  0  0  0  0  0  0
    1.6337    0.1245    1.3115 C   0  0  0  0  0  0  0  0  0  0  0  0
    6.8358    2.2749   -0.8826 H   0  0  0  0  0  0  0  0  0  0  0  0
    5.5858    1.7816    0.2489 H   0  0  0  0  0  0  0  0  0  0  0  0
    5.2253    1.8646   -1.5005 H   0  0  0  0  0  0  0  0  0  0  0  0
    8.1682    0.6778   -2.0703 H   0  0  0  0  0  0  0  0  0  0  0  0
    8.9242   -1.6679   -2.3222 H   0  0  0  0  0  0  0  0  0  0  0  0
    5.5494   -3.0518   -0.0814 H   0  0  0  0  0  0  0  0  0  0  0  0
    3.6166    0.0773   -1.3918 H   0  0  0  0  0  0  0  0  0  0  0  0
    1.5711    0.9196   -2.0038 H   0  0  0  0  0  0  0  0  0  0  0  0
   -0.7214    1.5901   -1.4051 H   0  0  0  0  0  0  0  0  0  0  0  0
   -3.2074   -1.5530    1.5156 H   0  0  0  0  0  0  0  0  0  0  0  0
   -1.6284   -1.1959    0.8698 H   0  0  0  0  0  0  0  0  0  0  0  0
   -1.4220   -1.4908   -1.9007 H   0  0  0  0  0  0  0  0  0  0  0  0
   -3.2978   -1.6210   -3.8555 H   0  0  0  0  0  0  0  0  0  0  0  0
   -5.6931   -1.2388   -2.6367 H   0  0  0  0  0  0  0  0  0  0  0  0
   -5.4819   -1.8886    0.7481 H   0  0  0  0  0  0  0  0  0  0  0  0
   -6.4855   -0.9639   -0.3800 H   0  0  0  0  0  0  0  0  0  0  0  0
   -7.6056    0.2051    1.2471 H   0  0  0  0  0  0  0  0  0  0  0  0
   -7.7609    2.1315    2.7518 H   0  0  0  0  0  0  0  0  0  0  0  0
   -5.6958    3.2924    3.4916 H   0  0  0  0  0  0  0  0  0  0  0  0
   -3.5190    2.5119    2.7622 H   0  0  0  0  0  0  0  0  0  0  0  0
    2.2773   -0.2629    2.0958 H   0  0  0  0  0  0  0  0  0  0  0  0
  1  2  1  0
  2  3  2  0
  3  4  1  0
  4  5  2  0
  5  6  1  0
  5  7  1  0
  7  8  2  0
  8  9  1  0
  9 10  2  0
  9 11  1  0
 11 12  1  0
 12 13  2  0
 13 14  1  0
 14 15  2  0
 15 16  1  0
 16 17  2  0
 16 18  1  0
 18 19  1  0
 19 20  1  0
 20 21  2  0
 21 22  1  0
 22 23  2  0
 23 24  1  0
 24 25  1  0
 25 26  1  0
 26 27  2  0
 27 28  1  0
 28 29  2  0
 29 30  1  0
 30 31  2  0
 15 32  1  0
 32 33  1  0
 32 34  2  0
  8  2  1  0
 34 12  1  0
 31 18  1  0
 24 20  1  0
 31 26  1  0
  1 35  1  0
  1 36  1  0
  1 37  1  0
  3 38  1  0
  4 39  1  0
  7 40  1  0
 11 41  1  0
 13 42  1  0
 14 43  1  0
 19 44  1  0
 19 45  1  0
 21 46  1  0
 22 47  1  0
 23 48  1  0
 25 49  1  0
 25 50  1  0
 27 51  1  0
 28 52  1  0
 29 53  1  0
 30 54  1  0
 34 55  1  0
M  END
$$$$
