
     RDKit          3D

 37 39  0  0  0  0  0  0  0  0999 V2000
    6.0726   -1.5177    0.5593 C   0  0  0  0  0  0  0  0  0  0  0  0
    4.6813   -0.9139    0.6516 C   0  0  0  0  0  0  0  0  0  0  0  0
    4.0178   -0.8268   -0.7195 C   0  0  0  0  0  0  0  0  0  0  0  0
    2.6807   -0.2800   -0.6271 N   0  0  0  0  0  0  0  0  0  0  0  0
    2.4341    1.0693   -0.6011 C   0  0  0  0  0  0  0  0  0  0  0  0
    3.3248    1.9083   -0.7068 O   0  0  0  0  0  0  0  0  0  0  0  0
    1.0057    1.4636   -0.4312 C   0  0  0  0  0  0  0  0  0  0  0  0
    0.7061    2.7730   -0.4593 C   0  0  0  0  0  0  0  0  0  0  0  0
   -0.5490    3.3123   -0.3253 N   0  0  0  0  0  0  0  0  0  0  0  0
   -1.4978    2.4610   -0.1424 C   0  0  0  0  0  0  0  0  0  0  0  0
   -3.1814    2.9103    0.0519 S   0  0  0  0  0  0  0  0  0  0  0  0
   -3.6293    1.2404    0.2146 C   0  0  0  0  0  0  0  0  0  0  0  0
   -2.5665    0.4215    0.1356 C   0  0  0  0  0  0  0  0  0  0  0  0
   -1.3637    1.0882   -0.0722 N   0  0  0  0  0  0  0  0  0  0  0  0
   -0.1192    0.5081   -0.2333 C   0  0  0  0  0  0  0  0  0  0  0  0
    0.0983   -0.7044   -0.2290 O   0  0  0  0  0  0  0  0  0  0  0  0
   -2.6801   -1.0683    0.2651 C   0  0  0  0  0  0  0  0  0  0  0  0
   -4.0652   -1.5109    0.7627 C   0  0  0  0  0  0  0  0  0  0  0  0
   -5.1939   -0.7077    0.1150 C   0  0  0  0  0  0  0  0  0  0  0  0
   -5.0434    0.7938    0.3866 C   0  0  0  0  0  0  0  0  0  0  0  0
    6.7219   -0.9107   -0.0797 H   0  0  0  0  0  0  0  0  0  0  0  0
    6.5289   -1.5726    1.5526 H   0  0  0  0  0  0  0  0  0  0  0  0
    6.0340   -2.5310    0.1468 H   0  0  0  0  0  0  0  0  0  0  0  0
    4.0647   -1.5219    1.3245 H   0  0  0  0  0  0  0  0  0  0  0  0
    4.7484    0.0834    1.1021 H   0  0  0  0  0  0  0  0  0  0  0  0
    4.6136   -0.2020   -1.3942 H   0  0  0  0  0  0  0  0  0  0  0  0
    3.9268   -1.8222   -1.1669 H   0  0  0  0  0  0  0  0  0  0  0  0
    1.9034   -0.9247   -0.4832 H   0  0  0  0  0  0  0  0  0  0  0  0
    1.4949    3.5116   -0.6022 H   0  0  0  0  0  0  0  0  0  0  0  0
   -1.9365   -1.4552    0.9704 H   0  0  0  0  0  0  0  0  0  0  0  0
   -2.4864   -1.5256   -0.7127 H   0  0  0  0  0  0  0  0  0  0  0  0
   -4.1164   -1.3856    1.8522 H   0  0  0  0  0  0  0  0  0  0  0  0
   -4.2018   -2.5795    0.5613 H   0  0  0  0  0  0  0  0  0  0  0  0
   -6.1636   -1.0533    0.4906 H   0  0  0  0  0  0  0  0  0  0  0  0
   -5.1893   -0.8874   -0.9679 H   0  0  0  0  0  0  0  0  0  0  0  0
   -5.3649    1.0143    1.4118 H   0  0  0  0  0  0  0  0  0  0  0  0
   -5.7096    1.3426   -0.2892 H   0  0  0  0  0  0  0  0  0  0  0  0
  1  2  1  0
  2  3  1  0
  3  4  1  0
  4  5  1  0
  5  6  2  0
  5  7  1  0
  7  8  2  0
  8  9  1  0
  9 10  2  0
 10 11  1  0
 11 12  1  0
 12 13  2  0
 13 14  1  0
 14 15  1  0
 15 16  2  0
 13 17  1  0
 17 18  1  0
 18 19  1  0
 19 20  1  0
 15  7  1  0
 14 10  1  0
 20 12  1  0
  1 21  1  0
  1 22  1  0
  1 23  1  0
  2 24  1  0
  2 25  1  0
  3 26  1  0
  3 27  1  0
  4 28  1  0
  8 29  1  0
 17 30  1  0
 17 31  1  0
 18 32  1  0
 18 33  1  0
 19 34  1  0
 19 35  1  0
 20 36  1  0
 20 37  1  0
M  END
$$$$
