
     RDKit          3D

 58 61  0  0  0  0  0  0  0  0999 V2000
   -2.8445   -3.6938    4.1128 C   0  0  0  0  0  0  0  0  0  0  0  0
   -1.5898   -3.3720    3.3933 C   0  0  0  0  0  0  0  0  0  0  0  0
   -0.4793   -4.0389    3.7423 N   0  0  0  0  0  0  0  0  0  0  0  0
    0.5283   -3.5499    2.9435 O   0  0  0  0  0  0  0  0  0  0  0  0
    0.0322   -2.6000    2.1079 C   0  0  0  0  0  0  0  0  0  0  0  0
    0.9975   -2.0297    1.1800 C   0  0  0  0  0  0  0  0  0  0  0  0
    2.2654   -1.6381    1.6240 C   0  0  0  0  0  0  0  0  0  0  0  0
    3.1936   -1.0840    0.7347 C   0  0  0  0  0  0  0  0  0  0  0  0
    2.8830   -0.9100   -0.6229 C   0  0  0  0  0  0  0  0  0  0  0  0
    3.8619   -0.3335   -1.5590 C   0  0  0  0  0  0  0  0  0  0  0  0
    5.1562   -0.8644   -1.6700 C   0  0  0  0  0  0  0  0  0  0  0  0
    6.0882   -0.3194   -2.5587 C   0  0  0  0  0  0  0  0  0  0  0  0
    5.7464    0.7717   -3.3660 C   0  0  0  0  0  0  0  0  0  0  0  0
    6.7547    1.3688   -4.3174 C   0  0  0  0  0  0  0  0  0  0  0  0
    7.5352    2.5232   -3.7393 C   0  0  0  0  0  0  0  0  0  0  0  0
    7.3537    3.1133   -2.6889 O   0  0  0  0  0  0  0  0  0  0  0  0
    8.5353    2.9104   -4.5611 O   0  0  0  0  0  0  0  0  0  0  0  0
    4.4613    1.3145   -3.2574 C   0  0  0  0  0  0  0  0  0  0  0  0
    3.5323    0.7659   -2.3671 C   0  0  0  0  0  0  0  0  0  0  0  0
    1.6120   -1.3121   -1.0616 C   0  0  0  0  0  0  0  0  0  0  0  0
    0.6821   -1.8666   -0.1740 C   0  0  0  0  0  0  0  0  0  0  0  0
   -1.3185   -2.4286    2.3576 C   0  0  0  0  0  0  0  0  0  0  0  0
   -2.0937   -1.4965    1.6855 N   0  0  0  0  0  0  0  0  0  0  0  0
   -3.4246   -1.2483    1.8279 C   0  0  0  0  0  0  0  0  0  0  0  0
   -4.2218   -1.8144    2.5547 O   0  0  0  0  0  0  0  0  0  0  0  0
   -3.7500   -0.2339    0.9851 O   0  0  0  0  0  0  0  0  0  0  0  0
   -5.1102    0.2371    1.0567 C   0  0  2  0  0  0  0  0  0  0  0  0
   -5.9869   -0.6584    0.1767 C   0  0  0  0  0  0  0  0  0  0  0  0
   -5.0732    1.7086    0.6685 C   0  0  0  0  0  0  0  0  0  0  0  0
   -5.5049    2.1548   -0.5952 C   0  0  0  0  0  0  0  0  0  0  0  0
   -5.4569    3.5082   -0.9437 C   0  0  0  0  0  0  0  0  0  0  0  0
   -4.9662    4.4455   -0.0430 C   0  0  0  0  0  0  0  0  0  0  0  0
   -4.5211    4.0296    1.2086 C   0  0  0  0  0  0  0  0  0  0  0  0
   -4.5712    2.6762    1.5625 C   0  0  0  0  0  0  0  0  0  0  0  0
   -3.9826    2.2571    3.1350 Cl  0  0  0  0  0  0  0  0  0  0  0  0
   -3.2277   -2.8130    4.6370 H   0  0  0  0  0  0  0  0  0  0  0  0
   -2.6844   -4.4730    4.8670 H   0  0  0  0  0  0  0  0  0  0  0  0
   -3.6029   -4.0703    3.4198 H   0  0  0  0  0  0  0  0  0  0  0  0
    2.5422   -1.7547    2.6706 H   0  0  0  0  0  0  0  0  0  0  0  0
    4.1662   -0.7777    1.1162 H   0  0  0  0  0  0  0  0  0  0  0  0
    5.4485   -1.7203   -1.0644 H   0  0  0  0  0  0  0  0  0  0  0  0
    7.0824   -0.7572   -2.6121 H   0  0  0  0  0  0  0  0  0  0  0  0
    6.2406    1.7187   -5.2205 H   0  0  0  0  0  0  0  0  0  0  0  0
    7.4636    0.5905   -4.6247 H   0  0  0  0  0  0  0  0  0  0  0  0
    8.9518    3.6571   -4.0809 H   0  0  0  0  0  0  0  0  0  0  0  0
    4.1733    2.1754   -3.8571 H   0  0  0  0  0  0  0  0  0  0  0  0
    2.5459    1.2193   -2.2960 H   0  0  0  0  0  0  0  0  0  0  0  0
    1.3436   -1.2152   -2.1123 H   0  0  0  0  0  0  0  0  0  0  0  0
   -0.2791   -2.1945   -0.5636 H   0  0  0  0  0  0  0  0  0  0  0  0
   -1.6273   -0.8869    1.0270 H   0  0  0  0  0  0  0  0  0  0  0  0
   -5.5016    0.1700    2.0797 H   0  0  0  0  0  0  0  0  0  0  0  0
   -7.0135   -0.2829    0.1183 H   0  0  0  0  0  0  0  0  0  0  0  0
   -5.5815   -0.7505   -0.8369 H   0  0  0  0  0  0  0  0  0  0  0  0
   -6.0236   -1.6761    0.5797 H   0  0  0  0  0  0  0  0  0  0  0  0
   -5.8863    1.4588   -1.3386 H   0  0  0  0  0  0  0  0  0  0  0  0
   -5.7985    3.8270   -1.9259 H   0  0  0  0  0  0  0  0  0  0  0  0
   -4.9252    5.4976   -0.3152 H   0  0  0  0  0  0  0  0  0  0  0  0
   -4.1305    4.7656    1.9079 H   0  0  0  0  0  0  0  0  0  0  0  0
  1  2  1  0
  2  3  2  0
  3  4  1  0
  4  5  1  0
  5  6  1  0
  6  7  2  0
  7  8  1  0
  8  9  2  0
  9 10  1  0
 10 11  2  0
 11 12  1  0
 12 13  2  0
 13 14  1  0
 14 15  1  0
 15 16  2  0
 15 17  1  0
 13 18  1  0
 18 19  2  0
  9 20  1  0
 20 21  2  0
  5 22  2  0
 22 23  1  0
 23 24  1  0
 24 25  2  0
 24 26  1  0
 26 27  1  0
 27 28  1  0
 27 29  1  0
 29 30  2  0
 30 31  1  0
 31 32  2  0
 32 33  1  0
 33 34  2  0
 34 35  1  0
 22  2  1  0
 34 29  1  0
 21  6  1  0
 19 10  1  0
  1 36  1  0
  1 37  1  0
  1 38  1  0
  7 39  1  0
  8 40  1  0
 11 41  1  0
 12 42  1  0
 14 43  1  0
 14 44  1  0
 17 45  1  0
 18 46  1  0
 19 47  1  0
 20 48  1  0
 21 49  1  0
 23 50  1  0
 27 51  1  1
 28 52  1  0
 28 53  1  0
 28 54  1  0
 30 55  1  0
 31 56  1  0
 32 57  1  0
 33 58  1  0
M  END
$$$$
