
     RDKit          3D

 57 60  0  0  0  0  0  0  0  0999 V2000
   -8.5590    1.7173    1.4117 C   0  0  0  0  0  0  0  0  0  0  0  0
   -8.2172    0.3362    0.8611 C   0  0  0  0  0  0  0  0  0  0  0  0
   -9.0572    0.0286   -0.3750 C   0  0  0  0  0  0  0  0  0  0  0  0
   -6.8241    0.3594    0.4915 O   0  0  0  0  0  0  0  0  0  0  0  0
   -6.1681   -0.8348    0.5008 C   0  0  0  0  0  0  0  0  0  0  0  0
   -6.6893   -1.8978    0.8144 O   0  0  0  0  0  0  0  0  0  0  0  0
   -4.8434   -0.6982    0.1185 N   0  0  0  0  0  0  0  0  0  0  0  0
   -4.2981    0.5885   -0.2986 C   0  0  0  0  0  0  0  0  0  0  0  0
   -2.9220    0.4532   -0.9260 C   0  0  0  0  0  0  0  0  0  0  0  0
   -1.9640   -0.2699    0.0237 C   0  0  0  0  0  0  0  0  0  0  0  0
   -0.7923   -0.5893   -0.7443 O   0  0  0  0  0  0  0  0  0  0  0  0
    0.3821   -0.5179   -0.0234 C   0  0  0  0  0  0  0  0  0  0  0  0
    0.3753   -0.7388    1.3088 N   0  0  0  0  0  0  0  0  0  0  0  0
    1.5493   -0.6463    1.9561 C   0  0  0  0  0  0  0  0  0  0  0  0
    2.7609   -0.3690    1.4406 N   0  0  0  0  0  0  0  0  0  0  0  0
    2.7262   -0.1900    0.1033 C   0  0  0  0  0  0  0  0  0  0  0  0
    1.5800   -0.2486   -0.6738 C   0  0  0  0  0  0  0  0  0  0  0  0
    2.0068    0.0329   -1.9739 C   0  0  0  0  0  0  0  0  0  0  0  0
    3.3151    0.2664   -2.0434 N   0  0  0  0  0  0  0  0  0  0  0  0
    3.7738    0.1279   -0.7664 N   0  0  0  0  0  0  0  0  0  0  0  0
    5.1603    0.2953   -0.4730 C   0  0  0  0  0  0  0  0  0  0  0  0
    5.6970   -0.1050    0.7621 C   0  0  0  0  0  0  0  0  0  0  0  0
    7.0607    0.0620    1.0341 C   0  0  0  0  0  0  0  0  0  0  0  0
    7.8950    0.6286    0.0700 C   0  0  0  0  0  0  0  0  0  0  0  0
    9.6202    0.8770    0.4096 S   0  0  0  0  0  6  0  0  0  0  0  0
   10.4221   -0.3908   -0.5457 C   0  0  0  0  0  0  0  0  0  0  0  0
    9.8389    0.5776    1.8151 O   0  0  0  0  0  0  0  0  0  0  0  0
    9.9778    2.1708   -0.1467 O   0  0  0  0  0  0  0  0  0  0  0  0
    7.3791    1.0476   -1.1533 C   0  0  0  0  0  0  0  0  0  0  0  0
    6.0219    0.8724   -1.4190 C   0  0  0  0  0  0  0  0  0  0  0  0
    5.5859    1.3188   -2.6075 F   0  0  0  0  0  0  0  0  0  0  0  0
   -2.5816   -1.5397    0.6298 C   0  0  0  0  0  0  0  0  0  0  0  0
   -3.9678   -1.8624    0.0796 C   0  0  0  0  0  0  0  0  0  0  0  0
   -9.6172    1.7926    1.6699 H   0  0  0  0  0  0  0  0  0  0  0  0
   -8.3156    2.5027    0.6855 H   0  0  0  0  0  0  0  0  0  0  0  0
   -7.9647    1.9261    2.3065 H   0  0  0  0  0  0  0  0  0  0  0  0
   -8.4008   -0.4085    1.6478 H   0  0  0  0  0  0  0  0  0  0  0  0
  -10.1253    0.0390   -0.1415 H   0  0  0  0  0  0  0  0  0  0  0  0
   -8.8023   -0.9547   -0.7851 H   0  0  0  0  0  0  0  0  0  0  0  0
   -8.8668    0.7622   -1.1695 H   0  0  0  0  0  0  0  0  0  0  0  0
   -4.9867    1.0584   -1.0088 H   0  0  0  0  0  0  0  0  0  0  0  0
   -4.2543    1.2267    0.5919 H   0  0  0  0  0  0  0  0  0  0  0  0
   -2.9904   -0.0933   -1.8768 H   0  0  0  0  0  0  0  0  0  0  0  0
   -2.5194    1.4424   -1.1799 H   0  0  0  0  0  0  0  0  0  0  0  0
   -1.7234    0.4361    0.8323 H   0  0  0  0  0  0  0  0  0  0  0  0
    1.5105   -0.8075    3.0298 H   0  0  0  0  0  0  0  0  0  0  0  0
    1.4163    0.0867   -2.8796 H   0  0  0  0  0  0  0  0  0  0  0  0
    5.0904   -0.5670    1.5352 H   0  0  0  0  0  0  0  0  0  0  0  0
    7.4522   -0.2451    2.0041 H   0  0  0  0  0  0  0  0  0  0  0  0
   10.1743   -0.2569   -1.6031 H   0  0  0  0  0  0  0  0  0  0  0  0
   11.5017   -0.2927   -0.4055 H   0  0  0  0  0  0  0  0  0  0  0  0
   10.0893   -1.3702   -0.1877 H   0  0  0  0  0  0  0  0  0  0  0  0
    8.0060    1.5292   -1.8980 H   0  0  0  0  0  0  0  0  0  0  0  0
   -2.6836   -1.3775    1.7086 H   0  0  0  0  0  0  0  0  0  0  0  0
   -1.9250   -2.4059    0.5038 H   0  0  0  0  0  0  0  0  0  0  0  0
   -4.4084   -2.6907    0.6520 H   0  0  0  0  0  0  0  0  0  0  0  0
   -3.9010   -2.1938   -0.9624 H   0  0  0  0  0  0  0  0  0  0  0  0
  1  2  1  0
  2  3  1  0
  2  4  1  0
  4  5  1  0
  5  6  2  0
  5  7  1  0
  7  8  1  0
  8  9  1  0
  9 10  1  0
 10 11  1  0
 11 12  1  0
 12 13  2  0
 13 14  1  0
 14 15  2  0
 15 16  1  0
 16 17  2  0
 17 18  1  0
 18 19  2  0
 19 20  1  0
 20 21  1  0
 21 22  2  0
 22 23  1  0
 23 24  2  0
 24 25  1  0
 25 26  1  0
 25 27  2  0
 25 28  2  0
 24 29  1  0
 29 30  2  0
 30 31  1  0
 10 32  1  0
 32 33  1  0
 33  7  1  0
 17 12  1  0
 30 21  1  0
 20 16  1  0
  1 34  1  0
  1 35  1  0
  1 36  1  0
  2 37  1  0
  3 38  1  0
  3 39  1  0
  3 40  1  0
  8 41  1  0
  8 42  1  0
  9 43  1  0
  9 44  1  0
 10 45  1  0
 14 46  1  0
 18 47  1  0
 22 48  1  0
 23 49  1  0
 26 50  1  0
 26 51  1  0
 26 52  1  0
 29 53  1  0
 32 54  1  0
 32 55  1  0
 33 56  1  0
 33 57  1  0
M  END
$$$$
