
     RDKit          3D

 24 25  0  0  0  0  0  0  0  0999 V2000
    2.1548   -1.5514   -1.9058 O   0  0  0  0  0  0  0  0  0  0  0  0
    2.1663   -0.4281   -1.1273 C   0  0  0  0  0  0  0  0  0  0  0  0
    3.3943    0.0397   -0.6748 C   0  0  0  0  0  0  0  0  0  0  0  0
    3.4330    1.1897    0.1109 C   0  0  0  0  0  0  0  0  0  0  0  0
    4.9440    1.7854    0.6795 Cl  0  0  0  0  0  0  0  0  0  0  0  0
    2.2568    1.8698    0.4369 C   0  0  0  0  0  0  0  0  0  0  0  0
    1.0249    1.3924   -0.0190 C   0  0  0  0  0  0  0  0  0  0  0  0
    0.9797    0.2270   -0.7878 C   0  0  0  0  0  0  0  0  0  0  0  0
   -0.1957   -0.2864   -1.2899 O   0  0  0  0  0  0  0  0  0  0  0  0
   -1.2390   -0.4282   -0.4006 C   0  0  0  0  0  0  0  0  0  0  0  0
   -1.0813   -1.1684    0.7774 C   0  0  0  0  0  0  0  0  0  0  0  0
   -2.1641   -1.3338    1.6431 C   0  0  0  0  0  0  0  0  0  0  0  0
   -3.4010   -0.7740    1.3225 C   0  0  0  0  0  0  0  0  0  0  0  0
   -4.7314   -0.9815    2.3934 Cl  0  0  0  0  0  0  0  0  0  0  0  0
   -3.5714   -0.0540    0.1413 C   0  0  0  0  0  0  0  0  0  0  0  0
   -2.4897    0.1118   -0.7245 C   0  0  0  0  0  0  0  0  0  0  0  0
   -2.7282    1.0043   -2.1820 Cl  0  0  0  0  0  0  0  0  0  0  0  0
    1.2330   -1.6871   -2.1941 H   0  0  0  0  0  0  0  0  0  0  0  0
    4.3065   -0.4863   -0.9397 H   0  0  0  0  0  0  0  0  0  0  0  0
    2.2948    2.7745    1.0387 H   0  0  0  0  0  0  0  0  0  0  0  0
    0.1175    1.9393    0.2211 H   0  0  0  0  0  0  0  0  0  0  0  0
   -0.1246   -1.6228    1.0239 H   0  0  0  0  0  0  0  0  0  0  0  0
   -2.0386   -1.9039    2.5608 H   0  0  0  0  0  0  0  0  0  0  0  0
   -4.5406    0.3720   -0.1040 H   0  0  0  0  0  0  0  0  0  0  0  0
  1  2  1  0
  2  3  2  0
  3  4  1  0
  4  5  1  0
  4  6  2  0
  6  7  1  0
  7  8  2  0
  8  9  1  0
  9 10  1  0
 10 11  2  0
 11 12  1  0
 12 13  2  0
 13 14  1  0
 13 15  1  0
 15 16  2  0
 16 17  1  0
  8  2  1  0
 16 10  1  0
  1 18  1  0
  3 19  1  0
  6 20  1  0
  7 21  1  0
 11 22  1  0
 12 23  1  0
 15 24  1  0
M  END
$$$$
