
     RDKit          3D

 26 28  0  0  0  0  0  0  0  0999 V2000
   -0.7701    1.9037    0.0962 C   0  0  0  0  0  0  0  0  0  0  0  0
    0.1591    0.8303   -0.4575 C   0  0  2  0  0  0  0  0  0  0  0  0
    0.5839    1.2263   -1.8445 C   0  0  0  0  0  0  0  0  0  0  0  0
    1.0982    2.2950   -2.1395 O   0  0  0  0  0  0  0  0  0  0  0  0
    0.2965    0.2558   -2.7386 O   0  0  0  0  0  0  0  0  0  0  0  0
   -0.2462   -0.8181   -2.1254 C   0  0  0  0  0  0  0  0  0  0  0  0
   -0.5806   -1.8393   -2.7074 O   0  0  0  0  0  0  0  0  0  0  0  0
   -0.4118   -0.5755   -0.6506 C   0  0  2  0  0  0  0  0  0  0  0  0
   -1.8707   -0.8066   -0.2761 C   0  0  0  0  0  0  0  0  0  0  0  0
    0.6056   -1.4460    0.1023 C   0  0  2  0  0  0  0  0  0  0  0  0
    0.5295   -1.2711    1.6198 C   0  0  0  0  0  0  0  0  0  0  0  0
    1.1014    0.1372    1.8133 C   0  0  0  0  0  0  0  0  0  0  0  0
    1.4193    0.5579    0.3776 C   0  0  1  0  0  0  0  0  0  0  0  0
    1.8371   -0.7235   -0.1635 O   0  0  0  0  0  0  0  0  0  0  0  0
   -0.2266    2.8417    0.2585 H   0  0  0  0  0  0  0  0  0  0  0  0
   -1.5849    2.1228   -0.6036 H   0  0  0  0  0  0  0  0  0  0  0  0
   -1.2215    1.6171    1.0501 H   0  0  0  0  0  0  0  0  0  0  0  0
   -2.1374   -1.8640   -0.3879 H   0  0  0  0  0  0  0  0  0  0  0  0
   -2.5429   -0.2364   -0.9277 H   0  0  0  0  0  0  0  0  0  0  0  0
   -2.0896   -0.5207    0.7564 H   0  0  0  0  0  0  0  0  0  0  0  0
    0.6770   -2.4845   -0.2318 H   0  0  0  0  0  0  0  0  0  0  0  0
    1.1861   -1.9948    2.1172 H   0  0  0  0  0  0  0  0  0  0  0  0
   -0.4731   -1.3927    2.0352 H   0  0  0  0  0  0  0  0  0  0  0  0
    2.0247    0.0704    2.4009 H   0  0  0  0  0  0  0  0  0  0  0  0
    0.4223    0.8126    2.3381 H   0  0  0  0  0  0  0  0  0  0  0  0
    2.2147    1.3025    0.2884 H   0  0  0  0  0  0  0  0  0  0  0  0
  2  1  1  1
  2  3  1  0
  3  4  2  0
  3  5  1  0
  5  6  1  0
  6  7  2  0
  6  8  1  0
  8  9  1  1
  8 10  1  0
 10 11  1  0
 11 12  1  0
 12 13  1  0
 13 14  1  0
  8  2  1  0
 14 10  1  0
 13  2  1  0
  1 15  1  0
  1 16  1  0
  1 17  1  0
  9 18  1  0
  9 19  1  0
  9 20  1  0
 10 21  1  1
 11 22  1  0
 11 23  1  0
 12 24  1  0
 12 25  1  0
 13 26  1  1
M  END
$$$$
