
     RDKit          3D

 56 59  0  0  0  0  0  0  0  0999 V2000
   -8.7427    2.2000   -0.2138 C   0  0  0  0  0  0  0  0  0  0  0  0
   -7.3372    2.5731    0.1730 C   0  0  0  0  0  0  0  0  0  0  0  0
   -7.0470    3.7630    0.3166 O   0  0  0  0  0  0  0  0  0  0  0  0
   -6.3342    1.5226    0.3768 C   0  0  0  0  0  0  0  0  0  0  0  0
   -5.0167    1.8098    0.6937 C   0  0  0  0  0  0  0  0  0  0  0  0
   -4.3229    0.6410    0.8183 N   0  0  0  0  0  0  0  0  0  0  0  0
   -2.9123    0.5639    1.1572 C   0  0  0  0  0  0  0  0  0  0  0  0
   -2.0279    0.4031   -0.0745 C   0  0  0  0  0  0  0  0  0  0  0  0
   -0.6184    0.3002    0.2748 N   0  0  0  0  0  0  0  0  0  0  0  0
    0.3499    0.5100   -0.6888 C   0  0  0  0  0  0  0  0  0  0  0  0
    0.1025    0.9167   -1.8175 O   0  0  0  0  0  0  0  0  0  0  0  0
    1.7544    0.2316   -0.1865 C   0  0  0  0  0  0  0  0  0  0  0  0
    2.7704    0.2048   -1.3308 C   0  0  0  0  0  0  0  0  0  0  0  0
    4.2140    0.0147   -0.8452 C   0  0  2  0  0  0  0  0  0  0  0  0
    5.1397    0.2919   -1.9269 N   0  0  0  0  0  0  0  0  0  0  0  0
    6.4609    0.5907   -1.7700 C   0  0  0  0  0  0  0  0  0  0  0  0
    7.0435    1.1867   -2.6726 O   0  0  0  0  0  0  0  0  0  0  0  0
    7.1857    0.1985   -0.5349 C   0  0  0  0  0  0  0  0  0  0  0  0
    8.3726    0.9153   -0.2794 C   0  0  0  0  0  0  0  0  0  0  0  0
    9.2280    0.5522    0.7598 C   0  0  0  0  0  0  0  0  0  0  0  0
    8.9214   -0.5506    1.5442 C   0  0  0  0  0  0  0  0  0  0  0  0
    7.7522   -1.2730    1.2990 C   0  0  0  0  0  0  0  0  0  0  0  0
    6.8569   -0.8954    0.2807 C   0  0  0  0  0  0  0  0  0  0  0  0
    5.7106   -1.7017    0.1757 N   0  0  0  0  0  0  0  0  0  0  0  0
    4.4792   -1.4073   -0.3392 C   0  0  0  0  0  0  0  0  0  0  0  0
    3.5958   -2.2629   -0.2466 O   0  0  0  0  0  0  0  0  0  0  0  0
   -5.1586   -0.4317    0.5966 C   0  0  0  0  0  0  0  0  0  0  0  0
   -4.8982   -1.8132    0.6180 C   0  0  0  0  0  0  0  0  0  0  0  0
   -5.9482   -2.6914    0.3477 C   0  0  0  0  0  0  0  0  0  0  0  0
   -7.2189   -2.2101    0.0655 C   0  0  0  0  0  0  0  0  0  0  0  0
   -7.4703   -0.8331    0.0460 C   0  0  0  0  0  0  0  0  0  0  0  0
   -6.4307    0.0884    0.3134 C   0  0  0  0  0  0  0  0  0  0  0  0
   -9.3348    3.1099   -0.3541 H   0  0  0  0  0  0  0  0  0  0  0  0
   -8.7404    1.6508   -1.1585 H   0  0  0  0  0  0  0  0  0  0  0  0
   -9.2076    1.6126    0.5817 H   0  0  0  0  0  0  0  0  0  0  0  0
   -4.5341    2.7704    0.8335 H   0  0  0  0  0  0  0  0  0  0  0  0
   -2.6470    1.4766    1.7044 H   0  0  0  0  0  0  0  0  0  0  0  0
   -2.7784   -0.2705    1.8552 H   0  0  0  0  0  0  0  0  0  0  0  0
   -2.2883   -0.5045   -0.6311 H   0  0  0  0  0  0  0  0  0  0  0  0
   -2.1661    1.2502   -0.7569 H   0  0  0  0  0  0  0  0  0  0  0  0
   -0.3646   -0.3074    1.0443 H   0  0  0  0  0  0  0  0  0  0  0  0
    1.7473   -0.7217    0.3505 H   0  0  0  0  0  0  0  0  0  0  0  0
    2.0147    1.0221    0.5271 H   0  0  0  0  0  0  0  0  0  0  0  0
    2.5004   -0.5811   -2.0487 H   0  0  0  0  0  0  0  0  0  0  0  0
    2.7019    1.1528   -1.8817 H   0  0  0  0  0  0  0  0  0  0  0  0
    4.4199    0.7167   -0.0276 H   0  0  0  0  0  0  0  0  0  0  0  0
    4.7675    0.6725   -2.7905 H   0  0  0  0  0  0  0  0  0  0  0  0
    8.6500    1.7549   -0.9168 H   0  0  0  0  0  0  0  0  0  0  0  0
   10.1410    1.1159    0.9357 H   0  0  0  0  0  0  0  0  0  0  0  0
    9.5918   -0.8528    2.3454 H   0  0  0  0  0  0  0  0  0  0  0  0
    7.5382   -2.1295    1.9357 H   0  0  0  0  0  0  0  0  0  0  0  0
    5.7157   -2.5963    0.6523 H   0  0  0  0  0  0  0  0  0  0  0  0
   -3.9087   -2.2026    0.8351 H   0  0  0  0  0  0  0  0  0  0  0  0
   -5.7675   -3.7639    0.3574 H   0  0  0  0  0  0  0  0  0  0  0  0
   -8.0271   -2.9070   -0.1436 H   0  0  0  0  0  0  0  0  0  0  0  0
   -8.4776   -0.4992   -0.1792 H   0  0  0  0  0  0  0  0  0  0  0  0
  1  2  1  0
  2  3  2  0
  2  4  1  0
  4  5  2  0
  5  6  1  0
  6  7  1  0
  7  8  1  0
  8  9  1  0
  9 10  1  0
 10 11  2  0
 10 12  1  0
 12 13  1  0
 13 14  1  0
 14 15  1  0
 15 16  1  0
 16 17  2  0
 16 18  1  0
 18 19  2  0
 19 20  1  0
 20 21  2  0
 21 22  1  0
 22 23  2  0
 23 24  1  0
 24 25  1  0
 25 26  2  0
  6 27  1  0
 27 28  2  0
 28 29  1  0
 29 30  2  0
 30 31  1  0
 31 32  2  0
 32  4  1  0
 25 14  1  0
 32 27  1  0
 23 18  1  0
  1 33  1  0
  1 34  1  0
  1 35  1  0
  5 36  1  0
  7 37  1  0
  7 38  1  0
  8 39  1  0
  8 40  1  0
  9 41  1  0
 12 42  1  0
 12 43  1  0
 13 44  1  0
 13 45  1  0
 14 46  1  1
 15 47  1  0
 19 48  1  0
 20 49  1  0
 21 50  1  0
 22 51  1  0
 24 52  1  0
 28 53  1  0
 29 54  1  0
 30 55  1  0
 31 56  1  0
M  END
$$$$
