
     RDKit          3D

 42 45  0  0  0  0  0  0  0  0999 V2000
    1.3580   -0.2762    1.1142 O   0  0  0  0  0  0  0  0  0  0  0  0
    1.3589   -0.1468   -0.1008 C   0  0  0  0  0  0  0  0  0  0  0  0
    2.4740   -0.1304   -0.9101 N   0  0  0  0  0  0  0  0  0  0  0  0
    3.8276   -0.1763   -0.5141 C   0  0  0  0  0  0  0  0  0  0  0  0
    4.2619   -0.0748    0.8114 C   0  0  0  0  0  0  0  0  0  0  0  0
    5.6289   -0.1233    1.1113 C   0  0  0  0  0  0  0  0  0  0  0  0
    6.5593   -0.2684    0.0869 C   0  0  0  0  0  0  0  0  0  0  0  0
    7.8643   -0.3116    0.3867 F   0  0  0  0  0  0  0  0  0  0  0  0
    6.1422   -0.3636   -1.2319 C   0  0  0  0  0  0  0  0  0  0  0  0
    7.0416   -0.4985   -2.2171 F   0  0  0  0  0  0  0  0  0  0  0  0
    4.7860   -0.3159   -1.5278 C   0  0  0  0  0  0  0  0  0  0  0  0
    4.3817   -0.4043   -2.8064 F   0  0  0  0  0  0  0  0  0  0  0  0
    0.2141   -0.0095   -0.8614 N   0  0  0  0  0  0  0  0  0  0  0  0
   -1.1428    0.0363   -0.2991 C   0  0  0  0  0  0  0  0  0  0  0  0
   -1.4901   -1.2497    0.4943 C   0  0  0  0  0  0  0  0  0  0  0  0
   -2.9362   -1.1898    1.0182 C   0  0  0  0  0  0  0  0  0  0  0  0
   -3.9030   -1.0699   -0.1697 C   0  0  0  0  0  0  0  0  0  0  0  0
   -3.5962    0.2068   -0.9670 C   0  0  0  0  0  0  0  0  0  0  0  0
   -3.7560    1.4304   -0.0511 C   0  0  0  0  0  0  0  0  0  0  0  0
   -2.7892    1.3255    1.1391 C   0  0  0  0  0  0  0  0  0  0  0  0
   -3.0938    0.0406    1.9280 C   0  0  0  0  0  0  0  0  0  0  0  0
   -1.3427    1.2692    0.6164 C   0  0  0  0  0  0  0  0  0  0  0  0
   -2.1482    0.1456   -1.4784 C   0  0  0  0  0  0  0  0  0  0  0  0
    2.3041   -0.2548   -1.9002 H   0  0  0  0  0  0  0  0  0  0  0  0
    3.5618    0.0467    1.6337 H   0  0  0  0  0  0  0  0  0  0  0  0
    5.9688   -0.0471    2.1405 H   0  0  0  0  0  0  0  0  0  0  0  0
    0.3500    0.5440   -1.6945 H   0  0  0  0  0  0  0  0  0  0  0  0
   -1.3597   -2.1333   -0.1441 H   0  0  0  0  0  0  0  0  0  0  0  0
   -0.8138   -1.3849    1.3458 H   0  0  0  0  0  0  0  0  0  0  0  0
   -3.1605   -2.1000    1.5857 H   0  0  0  0  0  0  0  0  0  0  0  0
   -4.9389   -1.0475    0.1905 H   0  0  0  0  0  0  0  0  0  0  0  0
   -3.8106   -1.9492   -0.8188 H   0  0  0  0  0  0  0  0  0  0  0  0
   -4.2853    0.2874   -1.8151 H   0  0  0  0  0  0  0  0  0  0  0  0
   -3.5577    2.3500   -0.6153 H   0  0  0  0  0  0  0  0  0  0  0  0
   -4.7896    1.4954    0.3104 H   0  0  0  0  0  0  0  0  0  0  0  0
   -2.9114    2.1974    1.7915 H   0  0  0  0  0  0  0  0  0  0  0  0
   -4.1145    0.0810    2.3279 H   0  0  0  0  0  0  0  0  0  0  0  0
   -2.4180   -0.0401    2.7882 H   0  0  0  0  0  0  0  0  0  0  0  0
   -0.6545    1.2391    1.4694 H   0  0  0  0  0  0  0  0  0  0  0  0
   -1.1087    2.1898    0.0658 H   0  0  0  0  0  0  0  0  0  0  0  0
   -1.9324    1.0408   -2.0771 H   0  0  0  0  0  0  0  0  0  0  0  0
   -2.0293   -0.7107   -2.1558 H   0  0  0  0  0  0  0  0  0  0  0  0
  1  2  2  0
  2  3  1  0
  3  4  1  0
  4  5  2  0
  5  6  1  0
  6  7  2  0
  7  8  1  0
  7  9  1  0
  9 10  1  0
  9 11  2  0
 11 12  1  0
  2 13  1  0
 13 14  1  0
 14 15  1  0
 15 16  1  0
 16 17  1  0
 17 18  1  0
 18 19  1  0
 19 20  1  0
 20 21  1  0
 20 22  1  0
 18 23  1  0
 11  4  1  0
 22 14  1  0
 23 14  1  0
 21 16  1  0
  3 24  1  0
  5 25  1  0
  6 26  1  0
 13 27  1  0
 15 28  1  0
 15 29  1  0
 16 30  1  0
 17 31  1  0
 17 32  1  0
 18 33  1  0
 19 34  1  0
 19 35  1  0
 20 36  1  0
 21 37  1  0
 21 38  1  0
 22 39  1  0
 22 40  1  0
 23 41  1  0
 23 42  1  0
M  END
$$$$
