
     RDKit          3D

 39 39  0  0  0  0  0  0  0  0999 V2000
   -4.3183    0.1500    0.2168 C   0  0  0  0  0  0  0  0  0  0  0  0
   -3.1700    0.8984   -0.4677 C   0  0  0  0  0  0  0  0  0  0  0  0
   -2.4100    1.7353    0.5650 C   0  0  0  0  0  0  0  0  0  0  0  0
   -2.2131   -0.0060   -1.2801 C   0  0  2  0  0  0  0  0  0  0  0  0
   -2.9072   -0.7287   -2.3658 N   0  0  0  0  0  0  0  0  0  0  0  0
   -1.4695   -1.0457   -0.4039 C   0  0  0  0  0  0  0  0  0  0  0  0
   -2.0246   -2.0429    0.0544 O   0  0  0  0  0  0  0  0  0  0  0  0
   -0.1322   -0.7778   -0.2107 N   0  0  0  0  0  0  0  0  0  0  0  0
    0.6833   -1.5876    0.6983 C   0  0  1  0  0  0  0  0  0  0  0  0
    2.1168   -1.7816    0.1800 C   0  0  0  0  0  0  0  0  0  0  0  0
    2.8632   -0.5011   -0.1258 C   0  0  0  0  0  0  0  0  0  0  0  0
    3.5920    0.1586    0.8726 C   0  0  0  0  0  0  0  0  0  0  0  0
    4.2583    1.3519    0.5891 C   0  0  0  0  0  0  0  0  0  0  0  0
    4.2054    1.8950   -0.6931 C   0  0  0  0  0  0  0  0  0  0  0  0
    3.4883    1.2447   -1.6949 C   0  0  0  0  0  0  0  0  0  0  0  0
    2.8209    0.0521   -1.4139 C   0  0  0  0  0  0  0  0  0  0  0  0
    0.6733   -0.9580    2.0908 C   0  0  0  0  0  0  0  0  0  0  0  0
    0.3034    0.1693    2.3841 O   0  0  0  0  0  0  0  0  0  0  0  0
    1.1472   -1.7830    3.0483 O   0  0  0  0  0  0  0  0  0  0  0  0
   -4.9086   -0.4263   -0.5019 H   0  0  0  0  0  0  0  0  0  0  0  0
   -4.9989    0.8593    0.7010 H   0  0  0  0  0  0  0  0  0  0  0  0
   -3.9546   -0.5333    0.9903 H   0  0  0  0  0  0  0  0  0  0  0  0
   -3.6256    1.6068   -1.1739 H   0  0  0  0  0  0  0  0  0  0  0  0
   -1.5780    2.2735    0.0991 H   0  0  0  0  0  0  0  0  0  0  0  0
   -3.0733    2.4790    1.0200 H   0  0  0  0  0  0  0  0  0  0  0  0
   -2.0103    1.1131    1.3710 H   0  0  0  0  0  0  0  0  0  0  0  0
   -1.4666    0.6340   -1.7666 H   0  0  0  0  0  0  0  0  0  0  0  0
   -3.6443   -0.1436   -2.7535 H   0  0  0  0  0  0  0  0  0  0  0  0
   -3.3761   -1.5388   -1.9499 H   0  0  0  0  0  0  0  0  0  0  0  0
    0.1751    0.1788   -0.3479 H   0  0  0  0  0  0  0  0  0  0  0  0
    0.2102   -2.5722    0.7967 H   0  0  0  0  0  0  0  0  0  0  0  0
    2.0847   -2.3888   -0.7348 H   0  0  0  0  0  0  0  0  0  0  0  0
    2.7036   -2.3679    0.8992 H   0  0  0  0  0  0  0  0  0  0  0  0
    3.6498   -0.2505    1.8788 H   0  0  0  0  0  0  0  0  0  0  0  0
    4.8206    1.8580    1.3697 H   0  0  0  0  0  0  0  0  0  0  0  0
    4.7264    2.8234   -0.9121 H   0  0  0  0  0  0  0  0  0  0  0  0
    3.4513    1.6650   -2.6967 H   0  0  0  0  0  0  0  0  0  0  0  0
    2.2666   -0.4446   -2.2084 H   0  0  0  0  0  0  0  0  0  0  0  0
    1.0409   -1.2682    3.8763 H   0  0  0  0  0  0  0  0  0  0  0  0
  1  2  1  0
  2  3  1  0
  2  4  1  0
  4  5  1  0
  4  6  1  0
  6  7  2  0
  6  8  1  0
  8  9  1  0
  9 10  1  0
 10 11  1  0
 11 12  2  0
 12 13  1  0
 13 14  2  0
 14 15  1  0
 15 16  2  0
  9 17  1  0
 17 18  2  0
 17 19  1  0
 16 11  1  0
  1 20  1  0
  1 21  1  0
  1 22  1  0
  2 23  1  0
  3 24  1  0
  3 25  1  0
  3 26  1  0
  4 27  1  6
  5 28  1  0
  5 29  1  0
  8 30  1  0
  9 31  1  1
 10 32  1  0
 10 33  1  0
 12 34  1  0
 13 35  1  0
 14 36  1  0
 15 37  1  0
 16 38  1  0
 19 39  1  0
M  END
$$$$
