
     RDKit          3D

 45 47  0  0  0  0  0  0  0  0999 V2000
    6.0410    2.6450   -0.5449 C   0  0  0  0  0  0  0  0  0  0  0  0
    5.2749    1.5864   -1.3193 C   0  0  0  0  0  0  0  0  0  0  0  0
    4.9209    0.4950   -0.4721 O   0  0  0  0  0  0  0  0  0  0  0  0
    3.7391    0.5457    0.2124 C   0  0  0  0  0  0  0  0  0  0  0  0
    3.4334   -0.6171    0.9242 C   0  0  0  0  0  0  0  0  0  0  0  0
    2.2596   -0.7086    1.6758 C   0  0  0  0  0  0  0  0  0  0  0  0
    1.3738    0.3728    1.7375 C   0  0  0  0  0  0  0  0  0  0  0  0
    0.0975    0.2713    2.5323 C   0  0  0  0  0  0  0  0  0  0  0  0
   -1.0002   -0.1503    1.6975 N   0  0  0  0  0  0  0  0  0  0  0  0
   -1.3391   -1.4694    1.5489 C   0  0  0  0  0  0  0  0  0  0  0  0
   -0.8131   -2.3335    2.2497 O   0  0  0  0  0  0  0  0  0  0  0  0
   -2.3707   -1.8063    0.5380 C   0  0  0  0  0  0  0  0  0  0  0  0
   -2.9398   -3.0862    0.5158 C   0  0  0  0  0  0  0  0  0  0  0  0
   -2.6748   -4.2528    1.4218 C   0  0  0  0  0  0  0  0  0  0  0  0
   -4.0889   -3.2922   -0.7297 S   0  0  0  0  0  0  0  0  0  0  0  0
   -3.8756   -1.7084   -1.2779 C   0  0  0  0  0  0  0  0  0  0  0  0
   -4.5861   -1.1987   -2.3912 C   0  0  0  0  0  0  0  0  0  0  0  0
   -4.3305    0.0682   -2.7412 C   0  0  0  0  0  0  0  0  0  0  0  0
   -3.4218    0.8622   -2.0533 N   0  0  0  0  0  0  0  0  0  0  0  0
   -3.2180    2.2261   -2.5197 C   0  0  0  0  0  0  0  0  0  0  0  0
   -2.6934    0.4012   -0.9356 C   0  0  0  0  0  0  0  0  0  0  0  0
   -1.9046    1.1215   -0.3273 O   0  0  0  0  0  0  0  0  0  0  0  0
   -2.9487   -0.9950   -0.5338 C   0  0  0  0  0  0  0  0  0  0  0  0
    1.6760    1.5334    1.0132 C   0  0  0  0  0  0  0  0  0  0  0  0
    2.8536    1.6216    0.2608 C   0  0  0  0  0  0  0  0  0  0  0  0
    6.9210    2.2048   -0.0634 H   0  0  0  0  0  0  0  0  0  0  0  0
    5.4293    3.0805    0.2513 H   0  0  0  0  0  0  0  0  0  0  0  0
    6.3693    3.4487   -1.2096 H   0  0  0  0  0  0  0  0  0  0  0  0
    4.4137    2.0003   -1.8552 H   0  0  0  0  0  0  0  0  0  0  0  0
    5.9375    1.1767   -2.0905 H   0  0  0  0  0  0  0  0  0  0  0  0
    4.1136   -1.4646    0.8893 H   0  0  0  0  0  0  0  0  0  0  0  0
    2.0358   -1.6320    2.2075 H   0  0  0  0  0  0  0  0  0  0  0  0
   -0.1635    1.2513    2.9475 H   0  0  0  0  0  0  0  0  0  0  0  0
    0.2238   -0.4119    3.3799 H   0  0  0  0  0  0  0  0  0  0  0  0
   -1.3164    0.5207    1.0055 H   0  0  0  0  0  0  0  0  0  0  0  0
   -3.3415   -5.0980    1.2191 H   0  0  0  0  0  0  0  0  0  0  0  0
   -2.8264   -3.9664    2.4676 H   0  0  0  0  0  0  0  0  0  0  0  0
   -1.6472   -4.6091    1.2937 H   0  0  0  0  0  0  0  0  0  0  0  0
   -5.2988   -1.8083   -2.9368 H   0  0  0  0  0  0  0  0  0  0  0  0
   -4.8356    0.5229   -3.5892 H   0  0  0  0  0  0  0  0  0  0  0  0
   -4.1778    2.7533   -2.5131 H   0  0  0  0  0  0  0  0  0  0  0  0
   -2.5142    2.7767   -1.8895 H   0  0  0  0  0  0  0  0  0  0  0  0
   -2.8234    2.1960   -3.5405 H   0  0  0  0  0  0  0  0  0  0  0  0
    0.9914    2.3789    1.0279 H   0  0  0  0  0  0  0  0  0  0  0  0
    3.0450    2.5476   -0.2693 H   0  0  0  0  0  0  0  0  0  0  0  0
  1  2  1  0
  2  3  1  0
  3  4  1  0
  4  5  2  0
  5  6  1  0
  6  7  2  0
  7  8  1  0
  8  9  1  0
  9 10  1  0
 10 11  2  0
 10 12  1  0
 12 13  2  0
 13 14  1  0
 13 15  1  0
 15 16  1  0
 16 17  1  0
 17 18  2  0
 18 19  1  0
 19 20  1  0
 19 21  1  0
 21 22  2  0
 21 23  1  0
  7 24  1  0
 24 25  2  0
 25  4  1  0
 23 12  1  0
 23 16  2  0
  1 26  1  0
  1 27  1  0
  1 28  1  0
  2 29  1  0
  2 30  1  0
  5 31  1  0
  6 32  1  0
  8 33  1  0
  8 34  1  0
  9 35  1  0
 14 36  1  0
 14 37  1  0
 14 38  1  0
 17 39  1  0
 18 40  1  0
 20 41  1  0
 20 42  1  0
 20 43  1  0
 24 44  1  0
 25 45  1  0
M  END
$$$$
