
     RDKit          3D

 26 28  0  0  0  0  0  0  0  0999 V2000
    1.5113   -3.1385    0.0106 O   0  0  0  0  0  0  0  0  0  0  0  0
    1.2268   -1.9487   -0.0011 C   0  0  0  0  0  0  0  0  0  0  0  0
   -0.0743   -1.5695    0.0275 O   0  0  0  0  0  0  0  0  0  0  0  0
   -0.4201   -0.2757    0.0157 C   0  0  0  0  0  0  0  0  0  0  0  0
   -1.9028   -0.0539    0.0516 C   0  0  0  0  0  0  0  0  0  0  0  0
   -2.3076    1.3003    0.0407 C   0  0  0  0  0  0  0  0  0  0  0  0
   -3.6551    1.6674    0.0708 C   0  0  0  0  0  0  0  0  0  0  0  0
   -4.6348    0.6869    0.1126 C   0  0  0  0  0  0  0  0  0  0  0  0
   -4.2638   -0.6560    0.1243 C   0  0  0  0  0  0  0  0  0  0  0  0
   -2.9092   -1.0369    0.0942 C   0  0  0  0  0  0  0  0  0  0  0  0
   -2.6308   -2.9197    0.1169 Br  0  0  0  0  0  0  0  0  0  0  0  0
    0.4150    0.7102   -0.0227 N   0  0  0  0  0  0  0  0  0  0  0  0
    1.7742    0.4183   -0.0542 C   0  0  0  0  0  0  0  0  0  0  0  0
    2.6702    1.4923   -0.0955 C   0  0  0  0  0  0  0  0  0  0  0  0
    4.0431    1.2703   -0.1285 C   0  0  0  0  0  0  0  0  0  0  0  0
    4.5237   -0.0355   -0.1202 C   0  0  0  0  0  0  0  0  0  0  0  0
    3.6354   -1.1194   -0.0789 C   0  0  0  0  0  0  0  0  0  0  0  0
    4.3634   -2.6865   -0.0728 Cl  0  0  0  0  0  0  0  0  0  0  0  0
    2.2513   -0.8888   -0.0457 C   0  0  0  0  0  0  0  0  0  0  0  0
   -1.5666    2.0986    0.0081 H   0  0  0  0  0  0  0  0  0  0  0  0
   -3.9327    2.7189    0.0613 H   0  0  0  0  0  0  0  0  0  0  0  0
   -5.6862    0.9631    0.1362 H   0  0  0  0  0  0  0  0  0  0  0  0
   -5.0483   -1.4106    0.1573 H   0  0  0  0  0  0  0  0  0  0  0  0
    2.2861    2.5103   -0.1018 H   0  0  0  0  0  0  0  0  0  0  0  0
    4.7333    2.1098   -0.1606 H   0  0  0  0  0  0  0  0  0  0  0  0
    5.5984   -0.2066   -0.1461 H   0  0  0  0  0  0  0  0  0  0  0  0
  1  2  2  0
  2  3  1  0
  3  4  1  0
  4  5  1  0
  5  6  2  0
  6  7  1  0
  7  8  2  0
  8  9  1  0
  9 10  2  0
 10 11  1  0
  4 12  2  0
 12 13  1  0
 13 14  2  0
 14 15  1  0
 15 16  2  0
 16 17  1  0
 17 18  1  0
 17 19  2  0
 19  2  1  0
 10  5  1  0
 19 13  1  0
  6 20  1  0
  7 21  1  0
  8 22  1  0
  9 23  1  0
 14 24  1  0
 15 25  1  0
 16 26  1  0
M  END
$$$$
