
     RDKit          3D

 42 43  0  0  0  0  0  0  0  0999 V2000
    0.8157    2.4201    0.1185 N   0  0  0  0  0  0  0  0  0  0  0  0
    0.6681    1.0101   -0.0179 C   0  0  0  0  0  0  0  0  0  0  0  0
   -0.6133    0.4266    0.0303 C   0  0  0  0  0  0  0  0  0  0  0  0
   -0.6770   -0.9712    0.0096 C   0  0  0  0  0  0  0  0  0  0  0  0
    0.4187   -1.7684   -0.0253 N   0  0  0  0  0  0  0  0  0  0  0  0
    1.6345   -1.2040   -0.0188 C   0  0  0  0  0  0  0  0  0  0  0  0
    2.7511   -2.0310   -0.0200 C   0  0  0  0  0  0  0  0  0  0  0  0
    4.0508   -1.5187   -0.0059 C   0  0  0  0  0  0  0  0  0  0  0  0
    4.2466   -0.1453    0.0065 C   0  0  0  0  0  0  0  0  0  0  0  0
    3.1409    0.7031    0.0056 C   0  0  0  0  0  0  0  0  0  0  0  0
    1.8228    0.1896   -0.0044 C   0  0  0  0  0  0  0  0  0  0  0  0
   -1.9906   -1.7106   -0.0338 C   0  0  0  0  0  0  0  0  0  0  0  0
   -3.1736   -0.8854    0.4544 C   0  0  0  0  0  0  0  0  0  0  0  0
   -3.1493    0.4864   -0.1983 C   0  0  0  0  0  0  0  0  0  0  0  0
   -1.8795    1.2414    0.2017 C   0  0  0  0  0  0  0  0  0  0  0  0
   -1.8209    2.4620   -0.5419 O   0  0  0  0  0  0  0  0  0  0  0  0
    2.2138    1.0508   -1.0363 O   0  0  0  0  0  0  0  0  0  0  0  0
    1.4254    0.4860   -0.3011 C   0  0  0  0  0  0  0  0  0  0  0  0
    1.1536    0.9335    0.9334 O   0  0  0  0  0  0  0  0  0  0  0  0
    0.7876   -0.8006   -0.5942 C   0  0  0  0  0  0  0  0  0  0  0  0
   -0.4605   -1.1553   -0.2596 C   0  0  0  0  0  0  0  0  0  0  0  0
   -1.4572   -0.2952    0.3844 C   0  0  0  0  0  0  0  0  0  0  0  0
   -2.2765   -0.6762    1.1998 O   0  0  0  0  0  0  0  0  0  0  0  0
   -1.4687    0.9508   -0.1109 O   0  0  0  0  0  0  0  0  0  0  0  0
   -0.0388    2.8755   -0.2264 H   0  0  0  0  0  0  0  0  0  0  0  0
    0.9563    2.6664    1.0946 H   0  0  0  0  0  0  0  0  0  0  0  0
    2.6030   -3.1083   -0.0319 H   0  0  0  0  0  0  0  0  0  0  0  0
    4.9012   -2.1950   -0.0088 H   0  0  0  0  0  0  0  0  0  0  0  0
    5.2515    0.2680    0.0099 H   0  0  0  0  0  0  0  0  0  0  0  0
    3.3022    1.7792   -0.0020 H   0  0  0  0  0  0  0  0  0  0  0  0
   -1.9183   -2.6256    0.5660 H   0  0  0  0  0  0  0  0  0  0  0  0
   -2.1653   -2.0167   -1.0729 H   0  0  0  0  0  0  0  0  0  0  0  0
   -3.1320   -0.7769    1.5455 H   0  0  0  0  0  0  0  0  0  0  0  0
   -4.1097   -1.4030    0.2174 H   0  0  0  0  0  0  0  0  0  0  0  0
   -3.2070    0.3905   -1.2907 H   0  0  0  0  0  0  0  0  0  0  0  0
   -4.0328    1.0638    0.0999 H   0  0  0  0  0  0  0  0  0  0  0  0
   -1.9480    1.5154    1.2623 H   0  0  0  0  0  0  0  0  0  0  0  0
   -2.7073    2.8620   -0.5177 H   0  0  0  0  0  0  0  0  0  0  0  0
    1.6611    1.7687    0.9964 H   0  0  0  0  0  0  0  0  0  0  0  0
    1.4224   -1.4936   -1.1344 H   0  0  0  0  0  0  0  0  0  0  0  0
   -0.8112   -2.1611   -0.4609 H   0  0  0  0  0  0  0  0  0  0  0  0
   -2.1897    1.3923    0.3834 H   0  0  0  0  0  0  0  0  0  0  0  0
  1  2  1  0
  2  3  2  0
  3  4  1  0
  4  5  2  0
  5  6  1  0
  6  7  2  0
  7  8  1  0
  8  9  2  0
  9 10  1  0
 10 11  2  0
  4 12  1  0
 12 13  1  0
 13 14  1  0
 14 15  1  0
 15 16  1  0
 17 18  2  0
 18 19  1  0
 18 20  1  0
 20 21  2  0
 21 22  1  0
 22 23  2  0
 22 24  1  0
 11  2  1  0
 15  3  1  0
 11  6  1  0
  1 25  1  0
  1 26  1  0
  7 27  1  0
  8 28  1  0
  9 29  1  0
 10 30  1  0
 12 31  1  0
 12 32  1  0
 13 33  1  0
 13 34  1  0
 14 35  1  0
 14 36  1  0
 15 37  1  0
 16 38  1  0
 19 39  1  0
 20 40  1  0
 21 41  1  0
 24 42  1  0
M  END
$$$$
