
     RDKit          3D

 87 92  0  0  0  0  0  0  0  0999 V2000
   -4.1988   -2.1056   -2.2097 O   0  0  0  0  0  0  0  0  0  0  0  0
   -4.9389   -1.7561   -1.2967 C   0  0  0  0  0  0  0  0  0  0  0  0
   -4.4832   -1.2114   -0.1151 N   0  0  0  0  0  0  0  0  0  0  0  0
   -3.0629   -0.9847    0.1189 C   0  0  0  0  0  0  0  0  0  0  0  0
   -2.5698    0.3200   -0.5240 C   0  0  0  0  0  0  0  0  0  0  0  0
   -1.5239    1.0364    0.3416 C   0  0  0  0  0  0  0  0  0  0  0  0
   -0.5556    0.1421    0.9909 N   0  0  0  0  0  0  0  0  0  0  0  0
    0.4071   -0.4071    0.0174 C   0  0  0  0  0  0  0  0  0  0  0  0
    1.6544   -1.0102    0.6893 C   0  0  0  0  0  0  0  0  0  0  0  0
    2.6085   -1.6353   -0.3377 C   0  0  0  0  0  0  0  0  0  0  0  0
    3.6447   -0.6956   -0.9706 C   0  0  0  0  0  0  0  0  0  0  0  0
    4.7993   -0.1428   -0.0799 C   0  0  0  0  0  0  0  0  0  0  0  0
    4.4037    1.1247    0.7237 C   0  0  0  0  0  0  0  0  0  0  0  0
    3.4506    1.8392    0.4153 O   0  0  0  0  0  0  0  0  0  0  0  0
    5.2486    1.4661    1.7654 N   0  0  0  0  0  0  0  0  0  0  0  0
    5.1547    2.7762    2.4068 C   0  0  0  0  0  0  0  0  0  0  0  0
    5.9836    3.8741    1.7331 C   0  0  0  0  0  0  0  0  0  0  0  0
    5.8860    5.0325    2.4242 F   0  0  0  0  0  0  0  0  0  0  0  0
    7.2955    3.5271    1.7108 F   0  0  0  0  0  0  0  0  0  0  0  0
    5.6015    4.1213    0.4622 F   0  0  0  0  0  0  0  0  0  0  0  0
    5.5078   -1.2201    0.7686 C   0  0  0  0  0  0  0  0  0  0  0  0
    5.0367   -1.8972    1.8878 C   0  0  0  0  0  0  0  0  0  0  0  0
    5.8637   -2.8406    2.4990 C   0  0  0  0  0  0  0  0  0  0  0  0
    7.1567   -3.0801    2.0112 C   0  0  0  0  0  0  0  0  0  0  0  0
    7.6467   -2.3704    0.9121 C   0  0  0  0  0  0  0  0  0  0  0  0
    6.8218   -1.4375    0.3001 C   0  0  0  0  0  0  0  0  0  0  0  0
    7.0956   -0.5321   -0.7924 C   0  0  0  0  0  0  0  0  0  0  0  0
    8.2513   -0.3455   -1.5344 C   0  0  0  0  0  0  0  0  0  0  0  0
    8.2578    0.6438   -2.5250 C   0  0  0  0  0  0  0  0  0  0  0  0
    7.1216    1.4353   -2.7596 C   0  0  0  0  0  0  0  0  0  0  0  0
    5.9565    1.2482   -2.0109 C   0  0  0  0  0  0  0  0  0  0  0  0
    5.9544    0.2600   -1.0332 C   0  0  0  0  0  0  0  0  0  0  0  0
   -1.2187   -0.8881    1.8082 C   0  0  0  0  0  0  0  0  0  0  0  0
   -2.7352   -1.0105    1.6080 C   0  0  0  0  0  0  0  0  0  0  0  0
   -6.3993   -2.0068   -1.4059 C   0  0  0  0  0  0  0  0  0  0  0  0
   -6.7541   -3.2749   -1.9090 C   0  0  0  0  0  0  0  0  0  0  0  0
   -8.0900   -3.6397   -2.0456 C   0  0  0  0  0  0  0  0  0  0  0  0
   -9.0858   -2.7370   -1.6961 C   0  0  0  0  0  0  0  0  0  0  0  0
   -8.7421   -1.4695   -1.2156 C   0  0  0  0  0  0  0  0  0  0  0  0
   -7.3959   -1.0736   -1.0574 C   0  0  0  0  0  0  0  0  0  0  0  0
   -7.1339    0.3007   -0.5994 C   0  0  0  0  0  0  0  0  0  0  0  0
   -6.5159    1.2380   -1.4393 C   0  0  0  0  0  0  0  0  0  0  0  0
   -6.3237    2.5593   -1.0228 C   0  0  0  0  0  0  0  0  0  0  0  0
   -6.7556    2.9766    0.2423 C   0  0  0  0  0  0  0  0  0  0  0  0
   -6.5548    4.4068    0.6830 C   0  0  0  0  0  0  0  0  0  0  0  0
   -7.3853    4.7780    1.6989 F   0  0  0  0  0  0  0  0  0  0  0  0
   -6.7670    5.3054   -0.3197 F   0  0  0  0  0  0  0  0  0  0  0  0
   -5.2886    4.6353    1.1312 F   0  0  0  0  0  0  0  0  0  0  0  0
   -7.3576    2.0382    1.0920 C   0  0  0  0  0  0  0  0  0  0  0  0
   -7.5475    0.7179    0.6760 C   0  0  0  0  0  0  0  0  0  0  0  0
   -5.1464   -0.8574    0.5527 H   0  0  0  0  0  0  0  0  0  0  0  0
   -2.5290   -1.8218   -0.3560 H   0  0  0  0  0  0  0  0  0  0  0  0
   -3.4078    1.0074   -0.6988 H   0  0  0  0  0  0  0  0  0  0  0  0
   -2.1450    0.0875   -1.5087 H   0  0  0  0  0  0  0  0  0  0  0  0
   -2.0438    1.6040    1.1271 H   0  0  0  0  0  0  0  0  0  0  0  0
   -1.0124    1.8026   -0.2576 H   0  0  0  0  0  0  0  0  0  0  0  0
    0.7488    0.3972   -0.6479 H   0  0  0  0  0  0  0  0  0  0  0  0
   -0.0853   -1.1592   -0.6127 H   0  0  0  0  0  0  0  0  0  0  0  0
    2.1538   -0.2565    1.3031 H   0  0  0  0  0  0  0  0  0  0  0  0
    1.3556   -1.8083    1.3739 H   0  0  0  0  0  0  0  0  0  0  0  0
    2.0155   -2.0762   -1.1518 H   0  0  0  0  0  0  0  0  0  0  0  0
    3.1181   -2.4897    0.1206 H   0  0  0  0  0  0  0  0  0  0  0  0
    4.0912   -1.2751   -1.7923 H   0  0  0  0  0  0  0  0  0  0  0  0
    3.1165    0.1327   -1.4607 H   0  0  0  0  0  0  0  0  0  0  0  0
    6.1344    0.9726    1.8319 H   0  0  0  0  0  0  0  0  0  0  0  0
    4.1045    3.0863    2.4426 H   0  0  0  0  0  0  0  0  0  0  0  0
    5.5037    2.6428    3.4370 H   0  0  0  0  0  0  0  0  0  0  0  0
    4.0447   -1.7092    2.2857 H   0  0  0  0  0  0  0  0  0  0  0  0
    5.5038   -3.3938    3.3627 H   0  0  0  0  0  0  0  0  0  0  0  0
    7.7864   -3.8207    2.5005 H   0  0  0  0  0  0  0  0  0  0  0  0
    8.6576   -2.5454    0.5566 H   0  0  0  0  0  0  0  0  0  0  0  0
    9.1376   -0.9469   -1.3648 H   0  0  0  0  0  0  0  0  0  0  0  0
    9.1568    0.8086   -3.1165 H   0  0  0  0  0  0  0  0  0  0  0  0
    7.1534    2.2101   -3.5229 H   0  0  0  0  0  0  0  0  0  0  0  0
    5.0791    1.8638   -2.1910 H   0  0  0  0  0  0  0  0  0  0  0  0
   -0.7823   -1.8806    1.6401 H   0  0  0  0  0  0  0  0  0  0  0  0
   -1.0268   -0.6530    2.8637 H   0  0  0  0  0  0  0  0  0  0  0  0
   -3.2532   -0.1915    2.1241 H   0  0  0  0  0  0  0  0  0  0  0  0
   -3.0904   -1.9396    2.0700 H   0  0  0  0  0  0  0  0  0  0  0  0
   -5.9730   -3.9858   -2.1797 H   0  0  0  0  0  0  0  0  0  0  0  0
   -8.3472   -4.6254   -2.4232 H   0  0  0  0  0  0  0  0  0  0  0  0
  -10.1319   -3.0088   -1.8172 H   0  0  0  0  0  0  0  0  0  0  0  0
   -9.5430   -0.7702   -0.9776 H   0  0  0  0  0  0  0  0  0  0  0  0
   -6.1868    0.9498   -2.4370 H   0  0  0  0  0  0  0  0  0  0  0  0
   -5.8477    3.2652   -1.7036 H   0  0  0  0  0  0  0  0  0  0  0  0
   -7.7017    2.3383    2.0814 H   0  0  0  0  0  0  0  0  0  0  0  0
   -8.0327    0.0152    1.3520 H   0  0  0  0  0  0  0  0  0  0  0  0
  1  2  2  0
  2  3  1  0
  3  4  1  0
  4  5  1  0
  5  6  1  0
  6  7  1  0
  7  8  1  0
  8  9  1  0
  9 10  1  0
 10 11  1  0
 11 12  1  0
 12 13  1  0
 13 14  2  0
 13 15  1  0
 15 16  1  0
 16 17  1  0
 17 18  1  0
 17 19  1  0
 17 20  1  0
 12 21  1  0
 21 22  2  0
 22 23  1  0
 23 24  2  0
 24 25  1  0
 25 26  2  0
 26 27  1  0
 27 28  2  0
 28 29  1  0
 29 30  2  0
 30 31  1  0
 31 32  2  0
  7 33  1  0
 33 34  1  0
  2 35  1  0
 35 36  2  0
 36 37  1  0
 37 38  2  0
 38 39  1  0
 39 40  2  0
 40 41  1  0
 41 42  2  0
 42 43  1  0
 43 44  2  0
 44 45  1  0
 45 46  1  0
 45 47  1  0
 45 48  1  0
 44 49  1  0
 49 50  2  0
 34  4  1  0
 40 35  1  0
 50 41  1  0
 32 12  1  0
 26 21  1  0
 32 27  1  0
  3 51  1  0
  4 52  1  0
  5 53  1  0
  5 54  1  0
  6 55  1  0
  6 56  1  0
  8 57  1  0
  8 58  1  0
  9 59  1  0
  9 60  1  0
 10 61  1  0
 10 62  1  0
 11 63  1  0
 11 64  1  0
 15 65  1  0
 16 66  1  0
 16 67  1  0
 22 68  1  0
 23 69  1  0
 24 70  1  0
 25 71  1  0
 28 72  1  0
 29 73  1  0
 30 74  1  0
 31 75  1  0
 33 76  1  0
 33 77  1  0
 34 78  1  0
 34 79  1  0
 36 80  1  0
 37 81  1  0
 38 82  1  0
 39 83  1  0
 42 84  1  0
 43 85  1  0
 49 86  1  0
 50 87  1  0
M  END
$$$$
