
     RDKit          3D

 49 49  0  0  0  0  0  0  0  0999 V2000
   -4.2670    2.7714    0.1250 C   0  0  0  0  0  0  0  0  0  0  0  0
   -3.5062    1.5785    0.6496 C   0  0  0  0  0  0  0  0  0  0  0  0
   -3.0584    0.7111   -0.5029 C   0  0  0  0  0  0  0  0  0  0  0  0
   -2.3266   -0.4418   -0.0902 N   0  0  0  0  0  0  0  0  0  0  0  0
   -3.0799   -1.4247    0.6150 C   0  0  0  0  0  0  0  0  0  0  0  0
   -4.1011   -2.1094   -0.2757 C   0  0  0  0  0  0  0  0  0  0  0  0
   -4.8724   -3.1393    0.5107 C   0  0  0  0  0  0  0  0  0  0  0  0
   -1.0342   -0.1653    0.4503 C   0  0  0  0  0  0  0  0  0  0  0  0
   -0.0400    0.3596   -0.5857 C   0  0  0  0  0  0  0  0  0  0  0  0
    1.2562    0.6159    0.1916 C   0  0  0  0  0  0  0  0  0  0  0  0
    1.7289   -0.6074    0.8096 N   0  0  0  0  0  0  0  0  0  0  0  0
    3.1732   -0.2774    1.6690 S   0  0  0  0  0  6  0  0  0  0  0  0
    2.9454    0.7787    2.7143 O   0  0  0  0  0  0  0  0  0  0  0  0
    3.6294   -1.5227    2.4111 O   0  0  0  0  0  0  0  0  0  0  0  0
    4.4300    0.2855    0.6112 C   0  0  0  0  0  0  0  0  0  0  0  0
    4.9981    1.5026    0.7786 C   0  0  0  0  0  0  0  0  0  0  0  0
    6.0029    1.9121   -0.0739 C   0  0  0  0  0  0  0  0  0  0  0  0
    6.4316    1.0987   -1.0885 C   0  0  0  0  0  0  0  0  0  0  0  0
    5.8262   -0.1680   -1.2473 C   0  0  0  0  0  0  0  0  0  0  0  0
    6.2282   -1.0673   -2.2833 N   0  0  0  0  0  0  0  0  0  0  0  0
    5.1875   -2.4659   -2.0396 S   0  0  0  0  0  0  0  0  0  0  0  0
    4.3287   -1.8330   -0.6681 N   0  0  0  0  0  0  0  0  0  0  0  0
    4.8753   -0.5596   -0.4435 C   0  0  0  0  0  0  0  0  0  0  0  0
    0.6919    0.0000    0.0000 Cl  0  0  0  0  0  0  0  0  0  0  0  0
   -3.6107    3.6394   -0.0837 H   0  0  0  0  0  0  0  0  0  0  0  0
   -4.7861    2.5520   -0.8375 H   0  0  0  0  0  0  0  0  0  0  0  0
   -5.0156    3.1402    0.8760 H   0  0  0  0  0  0  0  0  0  0  0  0
   -2.6626    1.8998    1.2868 H   0  0  0  0  0  0  0  0  0  0  0  0
   -4.1818    0.9945    1.3065 H   0  0  0  0  0  0  0  0  0  0  0  0
   -3.9514    0.3920   -1.0728 H   0  0  0  0  0  0  0  0  0  0  0  0
   -2.4281    1.3051   -1.1945 H   0  0  0  0  0  0  0  0  0  0  0  0
   -3.6021   -1.0842    1.5105 H   0  0  0  0  0  0  0  0  0  0  0  0
   -2.3591   -2.2402    0.9056 H   0  0  0  0  0  0  0  0  0  0  0  0
   -3.6254   -2.5545   -1.1892 H   0  0  0  0  0  0  0  0  0  0  0  0
   -4.8549   -1.3661   -0.6556 H   0  0  0  0  0  0  0  0  0  0  0  0
   -4.6304   -3.0011    1.5901 H   0  0  0  0  0  0  0  0  0  0  0  0
   -5.9640   -3.0200    0.3731 H   0  0  0  0  0  0  0  0  0  0  0  0
   -4.5607   -4.1703    0.2436 H   0  0  0  0  0  0  0  0  0  0  0  0
   -1.0272    0.5292    1.3152 H   0  0  0  0  0  0  0  0  0  0  0  0
   -0.6128   -1.1232    0.8150 H   0  0  0  0  0  0  0  0  0  0  0  0
   -0.3649    1.2768   -1.0771 H   0  0  0  0  0  0  0  0  0  0  0  0
    0.1835   -0.4165   -1.3319 H   0  0  0  0  0  0  0  0  0  0  0  0
    1.0178    1.3506    0.9760 H   0  0  0  0  0  0  0  0  0  0  0  0
    2.0344    0.9514   -0.5198 H   0  0  0  0  0  0  0  0  0  0  0  0
    1.8336   -1.3818    0.1215 H   0  0  0  0  0  0  0  0  0  0  0  0
    4.7113    2.2078    1.5611 H   0  0  0  0  0  0  0  0  0  0  0  0
    6.4855    2.8891    0.0296 H   0  0  0  0  0  0  0  0  0  0  0  0
    7.2160    1.3977   -1.7636 H   0  0  0  0  0  0  0  0  0  0  0  0
   -0.6919    0.0000    0.0000 H   0  0  0  0  0  0  0  0  0  0  0  0
  1  2  1  0
  2  3  1  0
  3  4  1  0
  4  5  1  0
  5  6  1  0
  6  7  1  0
  4  8  1  0
  8  9  1  0
  9 10  1  0
 10 11  1  0
 11 12  1  0
 12 13  2  0
 12 14  2  0
 12 15  1  0
 15 16  2  0
 16 17  1  0
 17 18  2  0
 18 19  1  0
 19 20  2  0
 20 21  1  0
 21 22  1  0
 22 23  2  0
 23 15  1  0
 23 19  1  0
  1 25  1  0
  1 26  1  0
  1 27  1  0
  2 28  1  0
  2 29  1  0
  3 30  1  0
  3 31  1  0
  5 32  1  0
  5 33  1  0
  6 34  1  0
  6 35  1  0
  7 36  1  0
  7 37  1  0
  7 38  1  0
  8 39  1  0
  8 40  1  0
  9 41  1  0
  9 42  1  0
 10 43  1  0
 10 44  1  0
 11 45  1  0
 16 46  1  0
 17 47  1  0
 18 48  1  0
 24 49  1  0
M  END
$$$$
