
     RDKit          3D

 40 42  0  0  0  0  0  0  0  0999 V2000
   -0.4537    0.2091   -2.5443 C   0  0  0  0  0  0  0  0  0  0  0  0
   -0.9149    0.0095   -1.2132 O   0  0  0  0  0  0  0  0  0  0  0  0
    0.0044    0.1931   -0.2144 C   0  0  0  0  0  0  0  0  0  0  0  0
    1.3862    0.0575   -0.3891 C   0  0  0  0  0  0  0  0  0  0  0  0
    2.2694    0.2908    0.6768 C   0  0  0  0  0  0  0  0  0  0  0  0
    3.7205    0.1437    0.5148 C   0  0  0  0  0  0  0  0  0  0  0  0
    4.5029    0.8523   -0.3102 C   0  0  0  0  0  0  0  0  0  0  0  0
    4.0561    2.1192   -1.3911 S   0  0  0  0  0  0  0  0  0  0  0  0
    5.7079    2.3558   -1.9247 C   0  0  0  0  0  0  0  0  0  0  0  0
    6.0502    3.1757   -2.7590 O   0  0  0  0  0  0  0  0  0  0  0  0
    6.5277    1.4911   -1.2758 N   0  0  0  0  0  0  0  0  0  0  0  0
    5.9718    0.6298   -0.3785 C   0  0  0  0  0  0  0  0  0  0  0  0
    6.5917   -0.1988    0.2680 O   0  0  0  0  0  0  0  0  0  0  0  0
    1.7604    0.6379    1.9327 C   0  0  0  0  0  0  0  0  0  0  0  0
    0.3842    0.7571    2.1223 C   0  0  0  0  0  0  0  0  0  0  0  0
   -0.4894    0.5111    1.0606 C   0  0  0  0  0  0  0  0  0  0  0  0
   -1.8323    0.6835    1.3235 O   0  0  0  0  0  0  0  0  0  0  0  0
   -2.6594   -0.3968    1.0988 C   0  0  0  0  0  0  0  0  0  0  0  0
   -2.3284   -1.6831    1.5440 C   0  0  0  0  0  0  0  0  0  0  0  0
   -3.2026   -2.7486    1.3211 C   0  0  0  0  0  0  0  0  0  0  0  0
   -4.4167   -2.5322    0.6648 C   0  0  0  0  0  0  0  0  0  0  0  0
   -5.3132   -3.6273    0.4320 C   0  0  0  0  0  0  0  0  0  0  0  0
   -6.0386   -4.5132    0.2440 N   0  0  0  0  0  0  0  0  0  0  0  0
   -4.7562   -1.2416    0.2403 C   0  0  0  0  0  0  0  0  0  0  0  0
   -3.8847   -0.1577    0.4610 C   0  0  0  0  0  0  0  0  0  0  0  0
   -4.2521    1.2305    0.0044 C   0  0  0  0  0  0  0  0  0  0  0  0
   -5.5134    1.2957   -0.5167 F   0  0  0  0  0  0  0  0  0  0  0  0
   -4.2352    2.1471    1.0118 F   0  0  0  0  0  0  0  0  0  0  0  0
   -3.4359    1.7146   -0.9710 F   0  0  0  0  0  0  0  0  0  0  0  0
    0.1491   -0.6418   -2.8766 H   0  0  0  0  0  0  0  0  0  0  0  0
   -1.3311    0.2694   -3.1953 H   0  0  0  0  0  0  0  0  0  0  0  0
    0.1012    1.1484   -2.6437 H   0  0  0  0  0  0  0  0  0  0  0  0
    1.7934   -0.2384   -1.3509 H   0  0  0  0  0  0  0  0  0  0  0  0
    4.1719   -0.6076    1.1626 H   0  0  0  0  0  0  0  0  0  0  0  0
    7.5174    1.4856   -1.4590 H   0  0  0  0  0  0  0  0  0  0  0  0
    2.4290    0.8247    2.7705 H   0  0  0  0  0  0  0  0  0  0  0  0
   -0.0090    1.0382    3.0957 H   0  0  0  0  0  0  0  0  0  0  0  0
   -1.3925   -1.8653    2.0664 H   0  0  0  0  0  0  0  0  0  0  0  0
   -2.9284   -3.7446    1.6645 H   0  0  0  0  0  0  0  0  0  0  0  0
   -5.7075   -1.0744   -0.2667 H   0  0  0  0  0  0  0  0  0  0  0  0
  1  2  1  0
  2  3  1  0
  3  4  2  0
  4  5  1  0
  5  6  1  0
  6  7  2  0
  7  8  1  0
  8  9  1  0
  9 10  2  0
  9 11  1  0
 11 12  1  0
 12 13  2  0
  5 14  2  0
 14 15  1  0
 15 16  2  0
 16 17  1  0
 17 18  1  0
 18 19  2  0
 19 20  1  0
 20 21  2  0
 21 22  1  0
 22 23  3  0
 21 24  1  0
 24 25  2  0
 25 26  1  0
 26 27  1  0
 26 28  1  0
 26 29  1  0
 16  3  1  0
 25 18  1  0
 12  7  1  0
  1 30  1  0
  1 31  1  0
  1 32  1  0
  4 33  1  0
  6 34  1  0
 11 35  1  0
 14 36  1  0
 15 37  1  0
 19 38  1  0
 20 39  1  0
 24 40  1  0
M  END
$$$$
