
     RDKit          3D

 55 58  0  0  0  0  0  0  0  0999 V2000
   -4.2353   -1.2380   -0.3184 O   0  0  0  0  0  0  0  0  0  0  0  0
   -3.8291   -0.1043   -0.1070 C   0  0  0  0  0  0  0  0  0  0  0  0
   -2.5224    0.3004    0.0414 N   0  0  0  0  0  0  0  0  0  0  0  0
   -1.3675   -0.5085    0.0386 C   0  0  0  0  0  0  0  0  0  0  0  0
   -0.1287    0.1413    0.1455 C   0  0  0  0  0  0  0  0  0  0  0  0
    1.0669   -0.5880    0.1490 C   0  0  0  0  0  0  0  0  0  0  0  0
    1.0356   -1.9828    0.0375 C   0  0  0  0  0  0  0  0  0  0  0  0
    2.2748   -2.8103    0.0303 C   0  0  0  0  0  0  0  0  0  0  0  0
    2.2434   -3.9748    0.4116 O   0  0  0  0  0  0  0  0  0  0  0  0
    3.4117   -2.2041   -0.4541 N   0  0  0  0  0  0  0  0  0  0  0  0
    4.6914   -2.8894   -0.4547 C   0  0  0  0  0  0  0  0  0  0  0  0
    5.8448   -2.0031   -0.9370 C   0  0  0  0  0  0  0  0  0  0  0  0
    6.0296   -0.7780   -0.0902 C   0  0  0  0  0  0  0  0  0  0  0  0
    6.6275   -0.7284    1.1547 C   0  0  0  0  0  0  0  0  0  0  0  0
    6.5633    0.5607    1.6130 N   0  0  0  0  0  0  0  0  0  0  0  0
    5.9305    1.3626    0.6912 C   0  0  0  0  0  0  0  0  0  0  0  0
    5.6329    2.7297    0.7409 C   0  0  0  0  0  0  0  0  0  0  0  0
    4.9805    3.2911   -0.3610 C   0  0  0  0  0  0  0  0  0  0  0  0
    4.6431    2.5148   -1.4676 C   0  0  0  0  0  0  0  0  0  0  0  0
    4.9448    1.1481   -1.4990 C   0  0  0  0  0  0  0  0  0  0  0  0
    5.5989    0.5548   -0.3979 C   0  0  0  0  0  0  0  0  0  0  0  0
   -0.1994   -2.6348   -0.0470 C   0  0  0  0  0  0  0  0  0  0  0  0
   -1.3928   -1.9022   -0.0495 C   0  0  0  0  0  0  0  0  0  0  0  0
   -4.6967    0.9697    0.0034 N   0  0  0  0  0  0  0  0  0  0  0  0
   -6.1339    0.7389   -0.0351 C   0  0  0  0  0  0  0  0  0  0  0  0
   -6.9033    2.0350   -0.3111 C   0  0  0  0  0  0  0  0  0  0  0  0
   -8.3715    1.6777   -0.1315 C   0  0  0  0  0  0  0  0  0  0  0  0
   -8.4066    0.6015    1.2929 S   0  0  0  0  0  6  0  0  0  0  0  0
   -8.6653    1.4163    2.4651 O   0  0  0  0  0  0  0  0  0  0  0  0
   -9.1971   -0.5682    0.9755 O   0  0  0  0  0  0  0  0  0  0  0  0
   -6.6752    0.1710    1.2782 C   0  0  0  0  0  0  0  0  0  0  0  0
   -2.3688    1.2971    0.0587 H   0  0  0  0  0  0  0  0  0  0  0  0
   -0.0728    1.2238    0.2385 H   0  0  0  0  0  0  0  0  0  0  0  0
    2.0053   -0.0516    0.2684 H   0  0  0  0  0  0  0  0  0  0  0  0
    3.3677   -1.2715   -0.8415 H   0  0  0  0  0  0  0  0  0  0  0  0
    4.8784   -3.2571    0.5624 H   0  0  0  0  0  0  0  0  0  0  0  0
    4.5965   -3.7663   -1.1073 H   0  0  0  0  0  0  0  0  0  0  0  0
    6.7723   -2.5885   -0.9340 H   0  0  0  0  0  0  0  0  0  0  0  0
    5.6679   -1.7076   -1.9805 H   0  0  0  0  0  0  0  0  0  0  0  0
    7.0801   -1.5033    1.7591 H   0  0  0  0  0  0  0  0  0  0  0  0
    6.9194    0.8805    2.5047 H   0  0  0  0  0  0  0  0  0  0  0  0
    5.8997    3.3378    1.5997 H   0  0  0  0  0  0  0  0  0  0  0  0
    4.7403    4.3515   -0.3547 H   0  0  0  0  0  0  0  0  0  0  0  0
    4.1465    2.9739   -2.3196 H   0  0  0  0  0  0  0  0  0  0  0  0
    4.6839    0.5564   -2.3722 H   0  0  0  0  0  0  0  0  0  0  0  0
   -0.2410   -3.7212   -0.1157 H   0  0  0  0  0  0  0  0  0  0  0  0
   -2.3250   -2.4579   -0.1237 H   0  0  0  0  0  0  0  0  0  0  0  0
   -4.3637    1.7432    0.5621 H   0  0  0  0  0  0  0  0  0  0  0  0
   -6.3458    0.0285   -0.8485 H   0  0  0  0  0  0  0  0  0  0  0  0
   -6.7051    2.4228   -1.3184 H   0  0  0  0  0  0  0  0  0  0  0  0
   -6.6117    2.8165    0.4062 H   0  0  0  0  0  0  0  0  0  0  0  0
   -8.9993    2.5532    0.0500 H   0  0  0  0  0  0  0  0  0  0  0  0
   -8.7494    1.1140   -0.9903 H   0  0  0  0  0  0  0  0  0  0  0  0
   -6.2063    0.6378    2.1439 H   0  0  0  0  0  0  0  0  0  0  0  0
   -6.5639   -0.9107    1.3402 H   0  0  0  0  0  0  0  0  0  0  0  0
  1  2  2  0
  2  3  1  0
  3  4  1  0
  4  5  2  0
  5  6  1  0
  6  7  2  0
  7  8  1  0
  8  9  2  0
  8 10  1  0
 10 11  1  0
 11 12  1  0
 12 13  1  0
 13 14  2  0
 14 15  1  0
 15 16  1  0
 16 17  2  0
 17 18  1  0
 18 19  2  0
 19 20  1  0
 20 21  2  0
  7 22  1  0
 22 23  2  0
  2 24  1  0
 24 25  1  0
 25 26  1  0
 26 27  1  0
 27 28  1  0
 28 29  2  0
 28 30  2  0
 28 31  1  0
 23  4  1  0
 31 25  1  0
 21 13  1  0
 21 16  1  0
  3 32  1  0
  5 33  1  0
  6 34  1  0
 10 35  1  0
 11 36  1  0
 11 37  1  0
 12 38  1  0
 12 39  1  0
 14 40  1  0
 15 41  1  0
 17 42  1  0
 18 43  1  0
 19 44  1  0
 20 45  1  0
 22 46  1  0
 23 47  1  0
 24 48  1  0
 25 49  1  0
 26 50  1  0
 26 51  1  0
 27 52  1  0
 27 53  1  0
 31 54  1  0
 31 55  1  0
M  END
$$$$
