
     RDKit          3D

 68 71  0  0  0  0  0  0  0  0999 V2000
   -7.0335    3.2914   -0.3024 C   0  0  0  0  0  0  0  0  0  0  0  0
   -5.5800    3.3494   -0.2839 N   0  0  0  0  0  0  0  0  0  0  0  0
   -4.9646    2.0557   -0.6607 C   0  0  1  0  0  0  0  0  0  0  0  0
   -4.6854    2.0656   -2.1610 C   0  0  0  0  0  0  0  0  0  0  0  0
   -3.6675    1.8627    0.1747 C   0  0  0  0  0  0  0  0  0  0  0  0
   -3.3711    2.6087    1.1100 O   0  0  0  0  0  0  0  0  0  0  0  0
   -2.9214    0.7432   -0.1404 N   0  0  0  0  0  0  0  0  0  0  0  0
   -1.5711    0.5891    0.4132 C   0  0  2  0  0  0  0  0  0  0  0  0
   -0.6163    1.2488   -0.6127 C   0  0  0  0  0  0  0  0  0  0  0  0
   -0.8775    1.2103   -1.8212 O   0  0  0  0  0  0  0  0  0  0  0  0
    0.5555    1.8048   -0.1517 N   0  0  0  0  0  0  0  0  0  0  0  0
    0.7351    2.4326    1.1478 C   0  0  0  0  0  0  0  0  0  0  0  0
    1.6905    3.5830    0.8721 C   0  0  0  0  0  0  0  0  0  0  0  0
    2.5800    3.0264   -0.2307 C   0  0  0  0  0  0  0  0  0  0  0  0
    1.5973    2.2251   -1.0936 C   0  0  1  0  0  0  0  0  0  0  0  0
    2.2591    1.0127   -1.7017 C   0  0  0  0  0  0  0  0  0  0  0  0
    2.7511    0.0000   -1.0112 N   0  0  0  0  0  0  0  0  0  0  0  0
    3.2293   -0.9872   -1.8642 C   0  0  0  0  0  0  0  0  0  0  0  0
    3.7821   -2.2609   -1.3956 C   0  0  0  0  0  0  0  0  0  0  0  0
    3.9704   -3.1984   -2.1713 O   0  0  0  0  0  0  0  0  0  0  0  0
    4.1355   -2.4587    0.0411 C   0  0  0  0  0  0  0  0  0  0  0  0
    4.5306   -1.4078    0.8805 C   0  0  0  0  0  0  0  0  0  0  0  0
    4.9227   -1.6689    2.1981 C   0  0  0  0  0  0  0  0  0  0  0  0
    4.9258   -2.9764    2.6724 C   0  0  0  0  0  0  0  0  0  0  0  0
    5.3208   -3.2206    3.9293 F   0  0  0  0  0  0  0  0  0  0  0  0
    4.5426   -4.0315    1.8553 C   0  0  0  0  0  0  0  0  0  0  0  0
    4.1479   -3.7742    0.5399 C   0  0  0  0  0  0  0  0  0  0  0  0
    3.1072   -0.6764   -3.2069 C   0  0  0  0  0  0  0  0  0  0  0  0
    2.4072    0.8698   -3.4079 S   0  0  0  0  0  0  0  0  0  0  0  0
   -1.2559   -0.9058    0.6687 C   0  0  0  0  0  0  0  0  0  0  0  0
    0.0495   -1.1082    1.4486 C   0  0  0  0  0  0  0  0  0  0  0  0
    0.2379   -2.5607    1.8945 C   0  0  0  0  0  0  0  0  0  0  0  0
   -0.4197   -3.5793    0.9642 C   0  0  0  0  0  0  0  0  0  0  0  0
   -0.4672   -3.0797   -0.4712 C   0  0  0  0  0  0  0  0  0  0  0  0
   -1.2770   -1.7857   -0.6017 C   0  0  0  0  0  0  0  0  0  0  0  0
   -7.4132    3.0650   -1.3040 H   0  0  0  0  0  0  0  0  0  0  0  0
   -7.4410    4.2653   -0.0094 H   0  0  0  0  0  0  0  0  0  0  0  0
   -7.4168    2.5432    0.3999 H   0  0  0  0  0  0  0  0  0  0  0  0
   -5.2589    3.5811    0.6626 H   0  0  0  0  0  0  0  0  0  0  0  0
   -5.6226    1.2185   -0.3966 H   0  0  0  0  0  0  0  0  0  0  0  0
   -3.8990    2.7857   -2.4149 H   0  0  0  0  0  0  0  0  0  0  0  0
   -4.3554    1.0823   -2.5107 H   0  0  0  0  0  0  0  0  0  0  0  0
   -5.5812    2.3212   -2.7400 H   0  0  0  0  0  0  0  0  0  0  0  0
   -3.0092    0.4048   -1.0908 H   0  0  0  0  0  0  0  0  0  0  0  0
   -1.5263    1.1214    1.3661 H   0  0  0  0  0  0  0  0  0  0  0  0
    1.1868    1.6969    1.8196 H   0  0  0  0  0  0  0  0  0  0  0  0
   -0.2090    2.7913    1.5642 H   0  0  0  0  0  0  0  0  0  0  0  0
    1.1363    4.4513    0.4960 H   0  0  0  0  0  0  0  0  0  0  0  0
    2.2489    3.8876    1.7611 H   0  0  0  0  0  0  0  0  0  0  0  0
    3.3486    2.3780    0.2138 H   0  0  0  0  0  0  0  0  0  0  0  0
    3.0930    3.8095   -0.7976 H   0  0  0  0  0  0  0  0  0  0  0  0
    1.1338    2.8659   -1.8522 H   0  0  0  0  0  0  0  0  0  0  0  0
    4.5600   -0.3799    0.5247 H   0  0  0  0  0  0  0  0  0  0  0  0
    5.2376   -0.8627    2.8524 H   0  0  0  0  0  0  0  0  0  0  0  0
    4.5702   -5.0477    2.2376 H   0  0  0  0  0  0  0  0  0  0  0  0
    3.8683   -4.6081   -0.1012 H   0  0  0  0  0  0  0  0  0  0  0  0
    3.3935   -1.2845   -4.0536 H   0  0  0  0  0  0  0  0  0  0  0  0
   -2.0666   -1.2772    1.3158 H   0  0  0  0  0  0  0  0  0  0  0  0
    0.0783   -0.4589    2.3325 H   0  0  0  0  0  0  0  0  0  0  0  0
    0.9030   -0.8241    0.8219 H   0  0  0  0  0  0  0  0  0  0  0  0
    1.3123   -2.7669    1.9647 H   0  0  0  0  0  0  0  0  0  0  0  0
   -0.1559   -2.6995    2.9059 H   0  0  0  0  0  0  0  0  0  0  0  0
    0.1236   -4.5296    1.0196 H   0  0  0  0  0  0  0  0  0  0  0  0
   -1.4423   -3.7836    1.3079 H   0  0  0  0  0  0  0  0  0  0  0  0
    0.5563   -2.9051   -0.8248 H   0  0  0  0  0  0  0  0  0  0  0  0
   -0.8973   -3.8489   -1.1241 H   0  0  0  0  0  0  0  0  0  0  0  0
   -0.9043   -1.2507   -1.4785 H   0  0  0  0  0  0  0  0  0  0  0  0
   -2.3213   -2.0405   -0.8250 H   0  0  0  0  0  0  0  0  0  0  0  0
  1  2  1  0
  2  3  1  0
  3  4  1  0
  3  5  1  0
  5  6  2  0
  5  7  1  0
  7  8  1  0
  8  9  1  0
  9 10  2  0
  9 11  1  0
 11 12  1  0
 12 13  1  0
 13 14  1  0
 14 15  1  0
 15 16  1  0
 16 17  2  0
 17 18  1  0
 18 19  1  0
 19 20  2  0
 19 21  1  0
 21 22  2  0
 22 23  1  0
 23 24  2  0
 24 25  1  0
 24 26  1  0
 26 27  2  0
 18 28  2  0
 28 29  1  0
  8 30  1  0
 30 31  1  0
 31 32  1  0
 32 33  1  0
 33 34  1  0
 34 35  1  0
 15 11  1  0
 29 16  1  0
 35 30  1  0
 27 21  1  0
  1 36  1  0
  1 37  1  0
  1 38  1  0
  2 39  1  0
  3 40  1  6
  4 41  1  0
  4 42  1  0
  4 43  1  0
  7 44  1  0
  8 45  1  1
 12 46  1  0
 12 47  1  0
 13 48  1  0
 13 49  1  0
 14 50  1  0
 14 51  1  0
 15 52  1  6
 22 53  1  0
 23 54  1  0
 26 55  1  0
 27 56  1  0
 28 57  1  0
 30 58  1  0
 31 59  1  0
 31 60  1  0
 32 61  1  0
 32 62  1  0
 33 63  1  0
 33 64  1  0
 34 65  1  0
 34 66  1  0
 35 67  1  0
 35 68  1  0
M  END
$$$$
