
     RDKit          3D

 31 30  0  0  0  0  0  0  0  0999 V2000
    0.7598    0.0000    0.0000 Br  0  0  0  0  0  0  0  0  0  0  0  0
    0.7661    0.0000    0.0000 Br  0  0  0  0  0  0  0  0  0  0  0  0
    4.1740    0.0192    0.6758 C   0  0  0  0  0  0  0  0  0  0  0  0
    3.2139    0.9074    0.4483 N   0  0  0  0  0  0  0  0  0  0  0  0
    2.0838    0.2547    0.0382 C   0  0  0  0  0  0  0  0  0  0  0  0
    0.8859    1.0056   -0.3005 C   0  0  0  0  0  0  0  0  0  0  0  0
   -0.3536    0.2396   -0.5960 C   0  0  0  0  0  0  0  0  0  0  0  0
   -0.8078   -0.5650    0.5589 C   0  0  0  0  0  0  0  0  0  0  0  0
   -2.2744   -0.8995    0.6060 C   0  0  0  0  0  0  0  0  0  0  0  0
   -3.1549    0.0508    0.0342 N   0  0  0  0  0  0  0  0  0  0  0  0
   -2.6880    0.6058   -1.2196 C   0  0  0  0  0  0  0  0  0  0  0  0
   -1.4051    1.3090   -0.9424 C   0  0  0  0  0  0  0  0  0  0  0  0
    2.4267   -1.0619    0.0350 C   0  0  0  0  0  0  0  0  0  0  0  0
    3.6981   -1.1978    0.4239 N   0  0  0  0  0  0  0  0  0  0  0  0
   -0.7598    0.0000    0.0000 H   0  0  0  0  0  0  0  0  0  0  0  0
   -0.7661    0.0000    0.0000 H   0  0  0  0  0  0  0  0  0  0  0  0
    5.1855    0.2129    1.0104 H   0  0  0  0  0  0  0  0  0  0  0  0
    1.0828    1.6809   -1.1792 H   0  0  0  0  0  0  0  0  0  0  0  0
    0.6440    1.6516    0.5948 H   0  0  0  0  0  0  0  0  0  0  0  0
   -0.2105   -0.3858   -1.5331 H   0  0  0  0  0  0  0  0  0  0  0  0
   -0.4737   -0.0380    1.4973 H   0  0  0  0  0  0  0  0  0  0  0  0
   -0.2899   -1.5423    0.5946 H   0  0  0  0  0  0  0  0  0  0  0  0
   -2.4745   -1.9456    0.2269 H   0  0  0  0  0  0  0  0  0  0  0  0
   -2.5344   -0.9746    1.7046 H   0  0  0  0  0  0  0  0  0  0  0  0
   -4.0624   -0.4267   -0.1770 H   0  0  0  0  0  0  0  0  0  0  0  0
   -3.4466    1.3638   -1.5339 H   0  0  0  0  0  0  0  0  0  0  0  0
   -2.6361   -0.1360   -2.0269 H   0  0  0  0  0  0  0  0  0  0  0  0
   -1.5415    1.8891    0.0124 H   0  0  0  0  0  0  0  0  0  0  0  0
   -1.0494    1.9593   -1.7578 H   0  0  0  0  0  0  0  0  0  0  0  0
    1.8106   -1.8753   -0.2391 H   0  0  0  0  0  0  0  0  0  0  0  0
    4.1974   -2.1013    0.5054 H   0  0  0  0  0  0  0  0  0  0  0  0
  3  4  2  0
  4  5  1  0
  5  6  1  0
  6  7  1  0
  7  8  1  0
  8  9  1  0
  9 10  1  0
 10 11  1  0
 11 12  1  0
  5 13  2  0
 13 14  1  0
 14  3  1  0
 12  7  1  0
  1 15  1  0
  2 16  1  0
  3 17  1  0
  6 18  1  0
  6 19  1  0
  7 20  1  0
  8 21  1  0
  8 22  1  0
  9 23  1  0
  9 24  1  0
 10 25  1  0
 11 26  1  0
 11 27  1  0
 12 28  1  0
 12 29  1  0
 13 30  1  0
 14 31  1  0
M  END
$$$$
