
     RDKit          3D

 49 51  0  0  0  0  0  0  0  0999 V2000
   -7.0820   -0.2304   -0.9625 C   0  0  0  0  0  0  0  0  0  0  0  0
   -6.1025   -1.2603   -0.9930 O   0  0  0  0  0  0  0  0  0  0  0  0
   -4.9411   -1.0425   -0.3038 C   0  0  0  0  0  0  0  0  0  0  0  0
   -4.0308   -2.1024   -0.3612 C   0  0  0  0  0  0  0  0  0  0  0  0
   -2.7997   -2.0123    0.2836 C   0  0  0  0  0  0  0  0  0  0  0  0
   -2.4784   -0.8483    0.9879 C   0  0  0  0  0  0  0  0  0  0  0  0
   -1.1728   -0.8012    1.6732 C   0  0  0  0  0  0  0  0  0  0  0  0
   -1.0704   -1.3807    2.7513 O   0  0  0  0  0  0  0  0  0  0  0  0
   -0.1192   -0.1573    1.0375 N   0  0  0  0  0  0  0  0  0  0  0  0
    1.1992   -0.1570    1.6711 C   0  0  0  0  0  0  0  0  0  0  0  0
    2.3250   -0.2825    0.6384 C   0  0  0  0  0  0  0  0  0  0  0  0
    2.2894    0.8170   -0.3885 N   0  0  0  0  0  0  0  0  0  0  0  0
    2.9934    0.4199   -1.8942 S   0  0  0  0  0  6  0  0  0  0  0  0
    3.0460    1.6229   -2.6975 O   0  0  0  0  0  0  0  0  0  0  0  0
    2.3266   -0.7713   -2.3763 O   0  0  0  0  0  0  0  0  0  0  0  0
    4.6604    0.0062   -1.4512 C   0  0  0  0  0  0  0  0  0  0  0  0
    5.4777    0.9996   -0.9012 C   0  0  0  0  0  0  0  0  0  0  0  0
    6.7870    0.6876   -0.5379 C   0  0  0  0  0  0  0  0  0  0  0  0
    7.2737   -0.6070   -0.7306 C   0  0  0  0  0  0  0  0  0  0  0  0
    6.4552   -1.5926   -1.2890 C   0  0  0  0  0  0  0  0  0  0  0  0
    5.1430   -1.2890   -1.6538 C   0  0  0  0  0  0  0  0  0  0  0  0
    0.9469    1.4739   -0.5136 C   0  0  0  0  0  0  0  0  0  0  0  0
   -0.2059    0.4919   -0.2765 C   0  0  0  0  0  0  0  0  0  0  0  0
   -3.3879    0.2145    1.0812 C   0  0  0  0  0  0  0  0  0  0  0  0
   -2.9867    1.3178    1.7870 O   0  0  0  0  0  0  0  0  0  0  0  0
   -4.0182    2.1419    2.3180 C   0  0  0  0  0  0  0  0  0  0  0  0
   -4.6169    0.1142    0.4147 C   0  0  0  0  0  0  0  0  0  0  0  0
   -6.7056    0.6851   -1.4277 H   0  0  0  0  0  0  0  0  0  0  0  0
   -7.9431   -0.5687   -1.5455 H   0  0  0  0  0  0  0  0  0  0  0  0
   -7.4252   -0.0429    0.0587 H   0  0  0  0  0  0  0  0  0  0  0  0
   -4.2851   -3.0047   -0.9141 H   0  0  0  0  0  0  0  0  0  0  0  0
   -2.0983   -2.8424    0.2422 H   0  0  0  0  0  0  0  0  0  0  0  0
    1.2893    0.7884    2.2196 H   0  0  0  0  0  0  0  0  0  0  0  0
    1.2755   -0.9687    2.4022 H   0  0  0  0  0  0  0  0  0  0  0  0
    3.2903   -0.2401    1.1541 H   0  0  0  0  0  0  0  0  0  0  0  0
    2.2394   -1.2586    0.1489 H   0  0  0  0  0  0  0  0  0  0  0  0
    5.0972    2.0081   -0.7562 H   0  0  0  0  0  0  0  0  0  0  0  0
    7.4298    1.4524   -0.1080 H   0  0  0  0  0  0  0  0  0  0  0  0
    8.2967   -0.8477   -0.4496 H   0  0  0  0  0  0  0  0  0  0  0  0
    6.8439   -2.5968   -1.4431 H   0  0  0  0  0  0  0  0  0  0  0  0
    4.5129   -2.0592   -2.0941 H   0  0  0  0  0  0  0  0  0  0  0  0
    0.8289    1.9527   -1.4904 H   0  0  0  0  0  0  0  0  0  0  0  0
    0.9115    2.2818    0.2264 H   0  0  0  0  0  0  0  0  0  0  0  0
   -0.1916   -0.3054   -1.0284 H   0  0  0  0  0  0  0  0  0  0  0  0
   -1.1572    1.0216   -0.3696 H   0  0  0  0  0  0  0  0  0  0  0  0
   -4.7780    1.5513    2.8414 H   0  0  0  0  0  0  0  0  0  0  0  0
   -3.5628    2.8197    3.0454 H   0  0  0  0  0  0  0  0  0  0  0  0
   -4.4682    2.7547    1.5298 H   0  0  0  0  0  0  0  0  0  0  0  0
   -5.3115    0.9434    0.4448 H   0  0  0  0  0  0  0  0  0  0  0  0
  1  2  1  0
  2  3  1  0
  3  4  2  0
  4  5  1  0
  5  6  2  0
  6  7  1  0
  7  8  2  0
  7  9  1  0
  9 10  1  0
 10 11  1  0
 11 12  1  0
 12 13  1  0
 13 14  2  0
 13 15  2  0
 13 16  1  0
 16 17  2  0
 17 18  1  0
 18 19  2  0
 19 20  1  0
 20 21  2  0
 12 22  1  0
 22 23  1  0
  6 24  1  0
 24 25  1  0
 25 26  1  0
 24 27  2  0
 27  3  1  0
 23  9  1  0
 21 16  1  0
  1 28  1  0
  1 29  1  0
  1 30  1  0
  4 31  1  0
  5 32  1  0
 10 33  1  0
 10 34  1  0
 11 35  1  0
 11 36  1  0
 17 37  1  0
 18 38  1  0
 19 39  1  0
 20 40  1  0
 21 41  1  0
 22 42  1  0
 22 43  1  0
 23 44  1  0
 23 45  1  0
 26 46  1  0
 26 47  1  0
 26 48  1  0
 27 49  1  0
M  END
$$$$
