
     RDKit          3D

 59 61  0  0  0  0  0  0  0  0999 V2000
   -8.8015    1.4521   -0.4556 O   0  0  0  0  0  0  0  0  0  0  0  0
   -7.5875    1.6248   -0.3898 C   0  0  0  0  0  0  0  0  0  0  0  0
   -6.5503    0.5229   -0.4718 C   0  0  0  0  0  0  0  0  0  0  0  0
   -7.1766   -0.8351   -0.7705 C   0  0  0  0  0  0  0  0  0  0  0  0
   -6.1675   -1.9377   -1.1063 C   0  0  0  0  0  0  0  0  0  0  0  0
   -5.2365   -2.3353    0.0441 C   0  0  0  0  0  0  0  0  0  0  0  0
   -3.9002   -1.5898    0.1110 C   0  0  0  0  0  0  0  0  0  0  0  0
   -2.9857   -1.8659   -1.0839 C   0  0  0  0  0  0  0  0  0  0  0  0
   -1.6687   -1.2851   -0.8883 N   0  0  0  0  0  0  0  0  0  0  0  0
   -0.6902   -1.9627   -0.1877 C   0  0  0  0  0  0  0  0  0  0  0  0
   -0.8633   -3.0673    0.3136 O   0  0  0  0  0  0  0  0  0  0  0  0
    0.6287   -1.3191   -0.0733 C   0  0  0  0  0  0  0  0  0  0  0  0
    0.8531    0.0299   -0.1616 C   0  0  0  0  0  0  0  0  0  0  0  0
    2.0766    0.5960   -0.0532 N   0  0  0  0  0  0  0  0  0  0  0  0
    3.1468   -0.2043    0.1691 C   0  0  0  0  0  0  0  0  0  0  0  0
    4.4593    0.3795    0.2750 N   0  0  0  0  0  0  0  0  0  0  0  0
    5.6422   -0.4338    0.1200 C   0  0  0  0  0  0  0  0  0  0  0  0
    5.7215   -1.4469   -0.8523 C   0  0  0  0  0  0  0  0  0  0  0  0
    6.8770   -2.2212   -0.9982 C   0  0  0  0  0  0  0  0  0  0  0  0
    7.9790   -1.9952   -0.1788 C   0  0  0  0  0  0  0  0  0  0  0  0
    7.9271   -0.9955    0.7876 C   0  0  0  0  0  0  0  0  0  0  0  0
    6.7708   -0.2235    0.9346 C   0  0  0  0  0  0  0  0  0  0  0  0
    4.5976    1.7891    0.5485 C   0  0  0  0  0  0  0  0  0  0  0  0
    5.5317    2.5690   -0.1581 C   0  0  0  0  0  0  0  0  0  0  0  0
    5.6889    3.9303    0.1149 C   0  0  0  0  0  0  0  0  0  0  0  0
    4.9166    4.5364    1.1017 C   0  0  0  0  0  0  0  0  0  0  0  0
    3.9873    3.7833    1.8147 C   0  0  0  0  0  0  0  0  0  0  0  0
    3.8284    2.4220    1.5400 C   0  0  0  0  0  0  0  0  0  0  0  0
    2.9949   -1.5417    0.2841 N   0  0  0  0  0  0  0  0  0  0  0  0
    1.7524   -2.0680    0.1748 C   0  0  0  0  0  0  0  0  0  0  0  0
   -7.0370    2.8792   -0.2260 N   0  0  0  0  0  0  0  0  0  0  0  0
   -7.9784    3.9147   -0.0045 O   0  0  0  0  0  0  0  0  0  0  0  0
   -6.0287    0.4935    0.4908 H   0  0  0  0  0  0  0  0  0  0  0  0
   -5.8318    0.7867   -1.2561 H   0  0  0  0  0  0  0  0  0  0  0  0
   -7.8602   -0.7375   -1.6245 H   0  0  0  0  0  0  0  0  0  0  0  0
   -7.7958   -1.1487    0.0801 H   0  0  0  0  0  0  0  0  0  0  0  0
   -6.7536   -2.8281   -1.3766 H   0  0  0  0  0  0  0  0  0  0  0  0
   -5.6043   -1.6665   -2.0066 H   0  0  0  0  0  0  0  0  0  0  0  0
   -5.0135   -3.4052   -0.0509 H   0  0  0  0  0  0  0  0  0  0  0  0
   -5.7609   -2.2206    0.9999 H   0  0  0  0  0  0  0  0  0  0  0  0
   -3.3900   -1.9033    1.0317 H   0  0  0  0  0  0  0  0  0  0  0  0
   -4.0546   -0.5109    0.2095 H   0  0  0  0  0  0  0  0  0  0  0  0
   -2.8772   -2.9437   -1.2485 H   0  0  0  0  0  0  0  0  0  0  0  0
   -3.3904   -1.4201   -1.9975 H   0  0  0  0  0  0  0  0  0  0  0  0
   -1.4485   -0.4476   -1.4094 H   0  0  0  0  0  0  0  0  0  0  0  0
    0.0498    0.7452   -0.3047 H   0  0  0  0  0  0  0  0  0  0  0  0
    4.8841   -1.6378   -1.5168 H   0  0  0  0  0  0  0  0  0  0  0  0
    6.9092   -3.0037   -1.7511 H   0  0  0  0  0  0  0  0  0  0  0  0
    8.8740   -2.6013   -0.2911 H   0  0  0  0  0  0  0  0  0  0  0  0
    8.7810   -0.8187    1.4345 H   0  0  0  0  0  0  0  0  0  0  0  0
    6.7513    0.5390    1.7111 H   0  0  0  0  0  0  0  0  0  0  0  0
    6.1387    2.1175   -0.9395 H   0  0  0  0  0  0  0  0  0  0  0  0
    6.4146    4.5146   -0.4437 H   0  0  0  0  0  0  0  0  0  0  0  0
    5.0402    5.5947    1.3158 H   0  0  0  0  0  0  0  0  0  0  0  0
    3.3872    4.2513    2.5899 H   0  0  0  0  0  0  0  0  0  0  0  0
    3.1099    1.8512    2.1222 H   0  0  0  0  0  0  0  0  0  0  0  0
    1.7012   -3.1478    0.2857 H   0  0  0  0  0  0  0  0  0  0  0  0
   -6.1310    3.0073    0.2110 H   0  0  0  0  0  0  0  0  0  0  0  0
   -8.8374    3.4398   -0.0795 H   0  0  0  0  0  0  0  0  0  0  0  0
  1  2  2  0
  2  3  1  0
  3  4  1  0
  4  5  1  0
  5  6  1  0
  6  7  1  0
  7  8  1  0
  8  9  1  0
  9 10  1  0
 10 11  2  0
 10 12  1  0
 12 13  2  0
 13 14  1  0
 14 15  2  0
 15 16  1  0
 16 17  1  0
 17 18  2  0
 18 19  1  0
 19 20  2  0
 20 21  1  0
 21 22  2  0
 16 23  1  0
 23 24  2  0
 24 25  1  0
 25 26  2  0
 26 27  1  0
 27 28  2  0
 15 29  1  0
 29 30  2  0
  2 31  1  0
 31 32  1  0
 30 12  1  0
 22 17  1  0
 28 23  1  0
  3 33  1  0
  3 34  1  0
  4 35  1  0
  4 36  1  0
  5 37  1  0
  5 38  1  0
  6 39  1  0
  6 40  1  0
  7 41  1  0
  7 42  1  0
  8 43  1  0
  8 44  1  0
  9 45  1  0
 13 46  1  0
 18 47  1  0
 19 48  1  0
 20 49  1  0
 21 50  1  0
 22 51  1  0
 24 52  1  0
 25 53  1  0
 26 54  1  0
 27 55  1  0
 28 56  1  0
 30 57  1  0
 31 58  1  0
 32 59  1  0
M  END
$$$$
