
     RDKit          3D

 59 61  0  0  0  0  0  0  0  0999 V2000
   -2.9923    3.0984    2.6707 C   0  0  0  0  0  0  0  0  0  0  0  0
   -2.7980    2.3645    1.3767 C   0  0  0  0  0  0  0  0  0  0  0  0
   -2.3811    3.0471    0.2239 C   0  0  0  0  0  0  0  0  0  0  0  0
   -2.1800    2.3687   -0.9882 C   0  0  0  0  0  0  0  0  0  0  0  0
   -1.7286    3.1083   -2.2121 C   0  0  0  0  0  0  0  0  0  0  0  0
   -2.3652    0.9826   -1.0321 C   0  0  0  0  0  0  0  0  0  0  0  0
   -2.7435    0.2941    0.1255 C   0  0  0  0  0  0  0  0  0  0  0  0
   -2.9220   -1.1747    0.1005 C   0  0  0  0  0  0  0  0  0  0  0  0
   -4.0594   -1.6009    0.2832 O   0  0  0  0  0  0  0  0  0  0  0  0
   -1.7936   -1.9680   -0.1486 N   0  0  0  0  0  0  0  0  0  0  0  0
   -0.5022   -1.3825   -0.1714 N   0  0  0  0  0  0  0  0  0  0  0  0
    0.0899   -0.9956    1.0214 C   0  0  0  0  0  0  0  0  0  0  0  0
   -0.2780   -1.3233    2.1422 O   0  0  0  0  0  0  0  0  0  0  0  0
    1.2030   -0.0252    0.8560 C   0  0  0  0  0  0  0  0  0  0  0  0
    1.0240    1.2140    1.4815 C   0  0  0  0  0  0  0  0  0  0  0  0
    1.9579    2.2257    1.2963 C   0  0  0  0  0  0  0  0  0  0  0  0
    3.0744    2.0034    0.4929 C   0  0  0  0  0  0  0  0  0  0  0  0
    3.3116    0.7436   -0.0894 C   0  0  0  0  0  0  0  0  0  0  0  0
    2.3618   -0.2954    0.0913 C   0  0  0  0  0  0  0  0  0  0  0  0
    2.5623   -1.6522   -0.5337 C   0  0  0  0  0  0  0  0  0  0  0  0
    4.5616    0.5393   -0.9121 C   0  0  0  0  0  0  0  0  0  0  0  0
    5.5560    1.6785   -0.7366 C   0  0  0  0  0  0  0  0  0  0  0  0
    4.8071    2.9941   -0.7550 C   0  0  0  0  0  0  0  0  0  0  0  0
    3.9054    3.0841    0.3481 O   0  0  0  0  0  0  0  0  0  0  0  0
   -1.8276   -3.4588   -0.1829 C   0  0  0  0  0  0  0  0  0  0  0  0
   -2.7972   -3.9290   -1.2882 C   0  0  0  0  0  0  0  0  0  0  0  0
   -0.4516   -4.0900   -0.5039 C   0  0  0  0  0  0  0  0  0  0  0  0
   -2.2926   -4.0229    1.1740 C   0  0  0  0  0  0  0  0  0  0  0  0
   -2.9735    0.9779    1.3215 C   0  0  0  0  0  0  0  0  0  0  0  0
   -3.2831    4.1387    2.4917 H   0  0  0  0  0  0  0  0  0  0  0  0
   -3.7887    2.6365    3.2634 H   0  0  0  0  0  0  0  0  0  0  0  0
   -2.0645    3.0854    3.2505 H   0  0  0  0  0  0  0  0  0  0  0  0
   -2.2212    4.1237    0.2697 H   0  0  0  0  0  0  0  0  0  0  0  0
   -0.6489    2.9875   -2.3443 H   0  0  0  0  0  0  0  0  0  0  0  0
   -2.2427    2.7297   -3.1019 H   0  0  0  0  0  0  0  0  0  0  0  0
   -1.9532    4.1776   -2.1360 H   0  0  0  0  0  0  0  0  0  0  0  0
   -2.2243    0.4392   -1.9626 H   0  0  0  0  0  0  0  0  0  0  0  0
   -0.2574   -0.8952   -1.0269 H   0  0  0  0  0  0  0  0  0  0  0  0
    0.1430    1.3988    2.0925 H   0  0  0  0  0  0  0  0  0  0  0  0
    1.8077    3.1958    1.7626 H   0  0  0  0  0  0  0  0  0  0  0  0
    2.1054   -1.6794   -1.5274 H   0  0  0  0  0  0  0  0  0  0  0  0
    3.6179   -1.9162   -0.6276 H   0  0  0  0  0  0  0  0  0  0  0  0
    2.1268   -2.4403    0.0875 H   0  0  0  0  0  0  0  0  0  0  0  0
    4.2729    0.4617   -1.9670 H   0  0  0  0  0  0  0  0  0  0  0  0
    5.0699   -0.3866   -0.6244 H   0  0  0  0  0  0  0  0  0  0  0  0
    6.0679    1.5640    0.2278 H   0  0  0  0  0  0  0  0  0  0  0  0
    6.3156    1.6444   -1.5248 H   0  0  0  0  0  0  0  0  0  0  0  0
    4.2534    3.1367   -1.6911 H   0  0  0  0  0  0  0  0  0  0  0  0
    5.5158    3.8240   -0.6640 H   0  0  0  0  0  0  0  0  0  0  0  0
   -3.8315   -3.6338   -1.0883 H   0  0  0  0  0  0  0  0  0  0  0  0
   -2.7910   -5.0208   -1.3858 H   0  0  0  0  0  0  0  0  0  0  0  0
   -2.5169   -3.5032   -2.2583 H   0  0  0  0  0  0  0  0  0  0  0  0
   -0.5276   -5.1797   -0.5984 H   0  0  0  0  0  0  0  0  0  0  0  0
    0.2756   -3.8910    0.2902 H   0  0  0  0  0  0  0  0  0  0  0  0
   -0.0438   -3.7060   -1.4459 H   0  0  0  0  0  0  0  0  0  0  0  0
   -2.2856   -5.1189    1.1691 H   0  0  0  0  0  0  0  0  0  0  0  0
   -3.3098   -3.7090    1.4256 H   0  0  0  0  0  0  0  0  0  0  0  0
   -1.6368   -3.6896    1.9852 H   0  0  0  0  0  0  0  0  0  0  0  0
   -3.2735    0.4201    2.2071 H   0  0  0  0  0  0  0  0  0  0  0  0
  1  2  1  0
  2  3  2  0
  3  4  1  0
  4  5  1  0
  4  6  2  0
  6  7  1  0
  7  8  1  0
  8  9  2  0
  8 10  1  0
 10 11  1  0
 11 12  1  0
 12 13  2  0
 12 14  1  0
 14 15  2  0
 15 16  1  0
 16 17  2  0
 17 18  1  0
 18 19  2  0
 19 20  1  0
 18 21  1  0
 21 22  1  0
 22 23  1  0
 23 24  1  0
 10 25  1  0
 25 26  1  0
 25 27  1  0
 25 28  1  0
  7 29  2  0
 29  2  1  0
 19 14  1  0
 24 17  1  0
  1 30  1  0
  1 31  1  0
  1 32  1  0
  3 33  1  0
  5 34  1  0
  5 35  1  0
  5 36  1  0
  6 37  1  0
 11 38  1  0
 15 39  1  0
 16 40  1  0
 20 41  1  0
 20 42  1  0
 20 43  1  0
 21 44  1  0
 21 45  1  0
 22 46  1  0
 22 47  1  0
 23 48  1  0
 23 49  1  0
 26 50  1  0
 26 51  1  0
 26 52  1  0
 27 53  1  0
 27 54  1  0
 27 55  1  0
 28 56  1  0
 28 57  1  0
 28 58  1  0
 29 59  1  0
M  END
$$$$
