
     RDKit          3D

 45 48  0  0  0  0  0  0  0  0999 V2000
    6.1976    3.0980    3.7616 N   0  0  0  0  0  0  0  0  0  0  0  0
    5.9810    2.0551    3.3008 C   0  0  0  0  0  0  0  0  0  0  0  0
    5.7147    0.7662    2.7328 C   0  0  0  0  0  0  0  0  0  0  0  0
    4.5697    0.0540    3.1085 C   0  0  0  0  0  0  0  0  0  0  0  0
    4.3130   -1.2045    2.5562 C   0  0  0  0  0  0  0  0  0  0  0  0
    5.2053   -1.7563    1.6380 C   0  0  0  0  0  0  0  0  0  0  0  0
    4.9168   -3.0233    1.0485 N   0  0  0  0  0  0  0  0  0  0  0  0
    4.0296   -2.9922   -0.4018 S   0  0  0  0  0  6  0  0  0  0  0  0
    3.9893   -4.3515   -0.8952 O   0  0  0  0  0  0  0  0  0  0  0  0
    4.5293   -1.9151   -1.2295 O   0  0  0  0  0  0  0  0  0  0  0  0
    2.3455   -2.5595   -0.0402 C   0  0  0  0  0  0  0  0  0  0  0  0
    1.5348   -1.5340   -0.4907 C   0  0  0  0  0  0  0  0  0  0  0  0
    0.2312   -1.5787    0.0880 C   0  0  0  0  0  0  0  0  0  0  0  0
   -0.8217   -0.6096   -0.2224 C   0  0  0  0  0  0  0  0  0  0  0  0
   -0.7076    0.3807   -1.1165 N   0  0  0  0  0  0  0  0  0  0  0  0
   -1.9503    1.0126   -1.0492 O   0  0  0  0  0  0  0  0  0  0  0  0
   -2.6944    0.3214   -0.1338 C   0  0  0  0  0  0  0  0  0  0  0  0
   -4.0453    0.7513    0.1997 C   0  0  0  0  0  0  0  0  0  0  0  0
   -4.5510    0.5027    1.2976 O   0  0  0  0  0  0  0  0  0  0  0  0
   -4.7890    1.4690   -0.7489 N   0  0  0  0  0  0  0  0  0  0  0  0
   -4.4845    1.5527   -2.1823 C   0  0  0  0  0  0  0  0  0  0  0  0
   -5.7649    1.6942   -3.0140 C   0  0  0  0  0  0  0  0  0  0  0  0
   -6.5532    2.8358   -2.6574 O   0  0  0  0  0  0  0  0  0  0  0  0
   -6.4893    3.1826   -1.2675 C   0  0  0  0  0  0  0  0  0  0  0  0
   -6.0870    2.0209   -0.3543 C   0  0  0  0  0  0  0  0  0  0  0  0
   -2.0317   -0.6782    0.4144 N   0  0  0  0  0  0  0  0  0  0  0  0
    0.0967   -2.6363    0.9627 C   0  0  0  0  0  0  0  0  0  0  0  0
    1.5238   -3.5730    1.0667 S   0  0  0  0  0  0  0  0  0  0  0  0
    6.3419   -1.0452    1.2484 C   0  0  0  0  0  0  0  0  0  0  0  0
    6.5995    0.2136    1.7999 C   0  0  0  0  0  0  0  0  0  0  0  0
    3.8722    0.4714    3.8330 H   0  0  0  0  0  0  0  0  0  0  0  0
    3.4250   -1.7504    2.8646 H   0  0  0  0  0  0  0  0  0  0  0  0
    5.7415   -3.6069    0.8931 H   0  0  0  0  0  0  0  0  0  0  0  0
    1.8776   -0.7914   -1.2043 H   0  0  0  0  0  0  0  0  0  0  0  0
   -3.9335    0.6644   -2.5057 H   0  0  0  0  0  0  0  0  0  0  0  0
   -3.8544    2.4383   -2.3200 H   0  0  0  0  0  0  0  0  0  0  0  0
   -5.5182    1.7806   -4.0771 H   0  0  0  0  0  0  0  0  0  0  0  0
   -6.3947    0.8051   -2.8980 H   0  0  0  0  0  0  0  0  0  0  0  0
   -5.7683    4.0028   -1.1704 H   0  0  0  0  0  0  0  0  0  0  0  0
   -7.4701    3.5730   -0.9781 H   0  0  0  0  0  0  0  0  0  0  0  0
   -6.0488    2.3552    0.6877 H   0  0  0  0  0  0  0  0  0  0  0  0
   -6.8163    1.2053   -0.4260 H   0  0  0  0  0  0  0  0  0  0  0  0
   -0.7773   -2.9095    1.5405 H   0  0  0  0  0  0  0  0  0  0  0  0
    7.0253   -1.4504    0.5062 H   0  0  0  0  0  0  0  0  0  0  0  0
    7.4899    0.7593    1.4912 H   0  0  0  0  0  0  0  0  0  0  0  0
  1  2  3  0
  2  3  1  0
  3  4  2  0
  4  5  1  0
  5  6  2  0
  6  7  1  0
  7  8  1  0
  8  9  2  0
  8 10  2  0
  8 11  1  0
 11 12  2  0
 12 13  1  0
 13 14  1  0
 14 15  2  0
 15 16  1  0
 16 17  1  0
 17 18  1  0
 18 19  2  0
 18 20  1  0
 20 21  1  0
 21 22  1  0
 22 23  1  0
 23 24  1  0
 24 25  1  0
 17 26  2  0
 13 27  2  0
 27 28  1  0
  6 29  1  0
 29 30  2  0
 30  3  1  0
 28 11  1  0
 26 14  1  0
 25 20  1  0
  4 31  1  0
  5 32  1  0
  7 33  1  0
 12 34  1  0
 21 35  1  0
 21 36  1  0
 22 37  1  0
 22 38  1  0
 24 39  1  0
 24 40  1  0
 25 41  1  0
 25 42  1  0
 27 43  1  0
 29 44  1  0
 30 45  1  0
M  END
$$$$
