
     RDKit          3D

 49 51  0  0  0  0  0  0  0  0999 V2000
   -0.8315   -2.0441   -1.0991 C   0  0  0  0  0  0  0  0  0  0  0  0
   -2.0822   -1.4364   -0.5246 C   0  0  0  0  0  0  0  0  0  0  0  0
   -3.0275   -2.1866   -0.2686 O   0  0  0  0  0  0  0  0  0  0  0  0
   -2.1472   -0.0557   -0.3204 N   0  0  0  0  0  0  0  0  0  0  0  0
   -3.4153    0.4981    0.2227 C   0  0  0  0  0  0  0  0  0  0  0  0
   -3.6910    0.0567    1.6694 C   0  0  0  0  0  0  0  0  0  0  0  0
   -5.1833    0.0667    1.9754 C   0  0  0  0  0  0  0  0  0  0  0  0
   -5.8021    1.1595    1.3023 O   0  0  0  0  0  0  0  0  0  0  0  0
   -5.8636    0.9655   -0.1127 C   0  0  0  0  0  0  0  0  0  0  0  0
   -4.6310    0.2643   -0.6831 C   0  0  0  0  0  0  0  0  0  0  0  0
   -1.0063    0.8906   -0.3891 C   0  0  0  0  0  0  0  0  0  0  0  0
   -0.3651    1.0594   -1.7717 C   0  0  0  0  0  0  0  0  0  0  0  0
    1.0875    0.6332   -1.6270 C   0  0  0  0  0  0  0  0  0  0  0  0
    1.3519    0.5591   -0.2045 N   0  0  0  0  0  0  0  0  0  0  0  0
    2.5726    0.3132    0.4003 C   0  0  0  0  0  0  0  0  0  0  0  0
    2.6640    0.2086    1.6226 O   0  0  0  0  0  0  0  0  0  0  0  0
    3.7708    0.2004   -0.5359 C   0  0  0  0  0  0  0  0  0  0  0  0
    5.0641   -0.1737    0.1463 C   0  0  0  0  0  0  0  0  0  0  0  0
    5.9031    0.8093    0.6785 C   0  0  0  0  0  0  0  0  0  0  0  0
    7.0797    0.4155    1.2980 C   0  0  0  0  0  0  0  0  0  0  0  0
    7.4720   -0.8701    1.4214 N   0  0  0  0  0  0  0  0  0  0  0  0
    6.6376   -1.8051    0.9202 C   0  0  0  0  0  0  0  0  0  0  0  0
    5.4404   -1.5127    0.2841 C   0  0  0  0  0  0  0  0  0  0  0  0
    0.1401    0.6256    0.5924 C   0  0  0  0  0  0  0  0  0  0  0  0
   -0.9655   -3.1298   -1.1642 H   0  0  0  0  0  0  0  0  0  0  0  0
   -0.6630   -1.6825   -2.1137 H   0  0  0  0  0  0  0  0  0  0  0  0
    0.0313   -1.8716   -0.4585 H   0  0  0  0  0  0  0  0  0  0  0  0
   -3.3046    1.5904    0.2505 H   0  0  0  0  0  0  0  0  0  0  0  0
   -3.1763    0.7592    2.3380 H   0  0  0  0  0  0  0  0  0  0  0  0
   -3.2803   -0.9296    1.9086 H   0  0  0  0  0  0  0  0  0  0  0  0
   -5.6636   -0.8729    1.6766 H   0  0  0  0  0  0  0  0  0  0  0  0
   -5.3441    0.1881    3.0513 H   0  0  0  0  0  0  0  0  0  0  0  0
   -6.7724    0.4037   -0.3554 H   0  0  0  0  0  0  0  0  0  0  0  0
   -5.9694    1.9582   -0.5631 H   0  0  0  0  0  0  0  0  0  0  0  0
   -4.4399    0.6095   -1.7060 H   0  0  0  0  0  0  0  0  0  0  0  0
   -4.8611   -0.8028   -0.7669 H   0  0  0  0  0  0  0  0  0  0  0  0
   -1.4041    1.8797   -0.1305 H   0  0  0  0  0  0  0  0  0  0  0  0
   -0.3913    2.1215   -2.0486 H   0  0  0  0  0  0  0  0  0  0  0  0
   -0.8819    0.5240   -2.5735 H   0  0  0  0  0  0  0  0  0  0  0  0
    1.7709    1.3432   -2.1027 H   0  0  0  0  0  0  0  0  0  0  0  0
    1.2668   -0.3532   -2.0647 H   0  0  0  0  0  0  0  0  0  0  0  0
    3.9031    1.1616   -1.0474 H   0  0  0  0  0  0  0  0  0  0  0  0
    3.5517   -0.5483   -1.3065 H   0  0  0  0  0  0  0  0  0  0  0  0
    5.6481    1.8622    0.6242 H   0  0  0  0  0  0  0  0  0  0  0  0
    7.7572    1.1483    1.7266 H   0  0  0  0  0  0  0  0  0  0  0  0
    6.9654   -2.8326    1.0487 H   0  0  0  0  0  0  0  0  0  0  0  0
    4.8170   -2.3188   -0.0875 H   0  0  0  0  0  0  0  0  0  0  0  0
    0.2466    1.4489    1.3084 H   0  0  0  0  0  0  0  0  0  0  0  0
    0.0217   -0.2977    1.1686 H   0  0  0  0  0  0  0  0  0  0  0  0
  1  2  1  0
  2  3  2  0
  2  4  1  0
  4  5  1  0
  5  6  1  0
  6  7  1  0
  7  8  1  0
  8  9  1  0
  9 10  1  0
  4 11  1  0
 11 12  1  0
 12 13  1  0
 13 14  1  0
 14 15  1  0
 15 16  2  0
 15 17  1  0
 17 18  1  0
 18 19  2  0
 19 20  1  0
 20 21  2  0
 21 22  1  0
 22 23  2  0
 14 24  1  0
 10  5  1  0
 24 11  1  0
 23 18  1  0
  1 25  1  0
  1 26  1  0
  1 27  1  0
  5 28  1  0
  6 29  1  0
  6 30  1  0
  7 31  1  0
  7 32  1  0
  9 33  1  0
  9 34  1  0
 10 35  1  0
 10 36  1  0
 11 37  1  0
 12 38  1  0
 12 39  1  0
 13 40  1  0
 13 41  1  0
 17 42  1  0
 17 43  1  0
 19 44  1  0
 20 45  1  0
 22 46  1  0
 23 47  1  0
 24 48  1  0
 24 49  1  0
M  END
$$$$
