
     RDKit          3D

 40 41  0  0  0  0  0  0  0  0999 V2000
    0.6897    0.0000    0.0000 Cl  0  0  0  0  0  0  0  0  0  0  0  0
    0.4159   -0.9499    2.0565 O   0  0  0  0  0  0  0  0  0  0  0  0
    0.4090    0.2759    1.1778 S   0  0  0  0  0  6  0  0  0  0  0  0
    1.1598    1.3371    1.9554 O   0  0  0  0  0  0  0  0  0  0  0  0
   -1.2313    0.7993    0.9488 C   0  0  0  0  0  0  0  0  0  0  0  0
   -1.5665    2.1325    1.2278 C   0  0  0  0  0  0  0  0  0  0  0  0
   -2.8351    2.6013    1.0168 C   0  0  0  0  0  0  0  0  0  0  0  0
   -3.7713    1.7281    0.5239 C   0  0  0  0  0  0  0  0  0  0  0  0
   -3.4943    0.4112    0.2350 C   0  0  0  0  0  0  0  0  0  0  0  0
   -4.4963   -0.3981   -0.2443 C   0  0  0  0  0  0  0  0  0  0  0  0
   -6.4437    0.3140   -0.5737 I   0  0  0  0  0  0  0  0  0  0  0  0
   -4.2055   -1.7226   -0.5161 C   0  0  0  0  0  0  0  0  0  0  0  0
   -2.9470   -2.2310   -0.3154 C   0  0  0  0  0  0  0  0  0  0  0  0
   -1.9641   -1.3702    0.1720 C   0  0  0  0  0  0  0  0  0  0  0  0
   -2.1914   -0.0452    0.4591 C   0  0  0  0  0  0  0  0  0  0  0  0
    1.1530   -0.0591   -0.2859 N   0  0  0  0  0  0  0  0  0  0  0  0
    1.5797   -1.3631   -0.5772 C   0  0  0  0  0  0  0  0  0  0  0  0
    2.9515   -1.3391   -1.2105 C   0  0  0  0  0  0  0  0  0  0  0  0
    4.0006   -1.0138   -0.1832 C   0  0  0  0  0  0  0  0  0  0  0  0
    3.7316    0.2805    0.3593 N   0  0  0  0  0  0  0  0  0  0  0  0
    3.2193    1.2306   -0.6027 C   0  0  0  0  0  0  0  0  0  0  0  0
    1.7897    1.0183   -0.9469 C   0  0  0  0  0  0  0  0  0  0  0  0
   -0.6897    0.0000    0.0000 H   0  0  0  0  0  0  0  0  0  0  0  0
   -0.7815    2.7666    1.6141 H   0  0  0  0  0  0  0  0  0  0  0  0
   -3.1209    3.6100    1.2190 H   0  0  0  0  0  0  0  0  0  0  0  0
   -4.7885    2.0669    0.3437 H   0  0  0  0  0  0  0  0  0  0  0  0
   -4.9611   -2.3759   -0.8892 H   0  0  0  0  0  0  0  0  0  0  0  0
   -2.6567   -3.2399   -0.5036 H   0  0  0  0  0  0  0  0  0  0  0  0
   -0.9800   -1.7364    0.3568 H   0  0  0  0  0  0  0  0  0  0  0  0
    0.8946   -1.7898   -1.3681 H   0  0  0  0  0  0  0  0  0  0  0  0
    1.5199   -2.0873    0.2580 H   0  0  0  0  0  0  0  0  0  0  0  0
    2.9697   -0.6106   -2.0242 H   0  0  0  0  0  0  0  0  0  0  0  0
    3.1465   -2.3349   -1.6676 H   0  0  0  0  0  0  0  0  0  0  0  0
    3.8522   -1.7526    0.6584 H   0  0  0  0  0  0  0  0  0  0  0  0
    5.0210   -1.1598   -0.5320 H   0  0  0  0  0  0  0  0  0  0  0  0
    4.5623    0.7123    0.8208 H   0  0  0  0  0  0  0  0  0  0  0  0
    3.3878    2.2302   -0.2001 H   0  0  0  0  0  0  0  0  0  0  0  0
    3.8144    1.1854   -1.5618 H   0  0  0  0  0  0  0  0  0  0  0  0
    1.6316    0.9246   -2.0604 H   0  0  0  0  0  0  0  0  0  0  0  0
    1.2249    1.9542   -0.6846 H   0  0  0  0  0  0  0  0  0  0  0  0
  2  3  2  0
  3  4  2  0
  3  5  1  0
  5  6  2  0
  6  7  1  0
  7  8  2  0
  8  9  1  0
  9 10  2  0
 10 11  1  0
 10 12  1  0
 12 13  2  0
 13 14  1  0
 14 15  2  0
  3 16  1  0
 16 17  1  0
 17 18  1  0
 18 19  1  0
 19 20  1  0
 20 21  1  0
 21 22  1  0
 15  5  1  0
 22 16  1  0
 15  9  1  0
  1 23  1  0
  6 24  1  0
  7 25  1  0
  8 26  1  0
 12 27  1  0
 13 28  1  0
 14 29  1  0
 17 30  1  0
 17 31  1  0
 18 32  1  0
 18 33  1  0
 19 34  1  0
 19 35  1  0
 20 36  1  0
 21 37  1  0
 21 38  1  0
 22 39  1  0
 22 40  1  0
M  END
$$$$
