
     RDKit          3D

 68 71  0  0  0  0  0  0  0  0999 V2000
   -1.4581   -1.7377   -4.0183 C   0  0  0  0  0  0  0  0  0  0  0  0
   -1.6477   -1.4511   -2.6180 N   0  0  0  0  0  0  0  0  0  0  0  0
   -0.9226   -2.1382   -1.6512 C   0  0  0  0  0  0  0  0  0  0  0  0
   -0.0399   -2.9396   -1.9571 O   0  0  0  0  0  0  0  0  0  0  0  0
   -1.3254   -1.7899   -0.1862 C   0  0  1  0  0  0  0  0  0  0  0  0
   -1.8894   -3.0538    0.4697 C   0  0  0  0  0  0  0  0  0  0  0  0
   -1.0542   -4.1363    0.7935 C   0  0  0  0  0  0  0  0  0  0  0  0
   -1.5773   -5.2859    1.3850 C   0  0  0  0  0  0  0  0  0  0  0  0
   -2.9404   -5.3707    1.6608 C   0  0  0  0  0  0  0  0  0  0  0  0
   -3.7815   -4.3058    1.3453 C   0  0  0  0  0  0  0  0  0  0  0  0
   -3.2617   -3.1531    0.7527 C   0  0  0  0  0  0  0  0  0  0  0  0
   -0.1982   -1.1839    0.5998 N   0  0  0  0  0  0  0  0  0  0  0  0
   -0.6226   -0.8300    1.9774 C   0  0  0  0  0  0  0  0  0  0  0  0
   -1.6658    0.2988    2.0554 C   0  0  0  0  0  0  0  0  0  0  0  0
   -1.5703    1.3235    0.9412 C   0  0  0  0  0  0  0  0  0  0  0  0
   -2.5040    2.3725    0.9060 C   0  0  0  0  0  0  0  0  0  0  0  0
   -2.5165    3.2821   -0.1539 C   0  0  0  0  0  0  0  0  0  0  0  0
   -3.3981    4.3269   -0.2727 O   0  0  0  0  0  0  0  0  0  0  0  0
   -4.3343    4.5258    0.7763 C   0  0  0  0  0  0  0  0  0  0  0  0
   -1.5801    3.1416   -1.1928 C   0  0  0  0  0  0  0  0  0  0  0  0
   -1.6589    4.0621   -2.2106 O   0  0  0  0  0  0  0  0  0  0  0  0
   -0.5253    4.1901   -3.0588 C   0  0  0  0  0  0  0  0  0  0  0  0
   -0.6560    2.0887   -1.1622 C   0  0  0  0  0  0  0  0  0  0  0  0
   -0.6229    1.1782   -0.0952 C   0  0  0  0  0  0  0  0  0  0  0  0
    0.4095    0.0547    0.0250 C   0  0  2  0  0  0  0  0  0  0  0  0
    1.3376   -0.2319   -1.1829 C   0  0  0  0  0  0  0  0  0  0  0  0
    2.5176    0.7466   -1.3301 C   0  0  0  0  0  0  0  0  0  0  0  0
    3.5724    0.6182   -0.2569 C   0  0  0  0  0  0  0  0  0  0  0  0
    4.3637   -0.5341   -0.1712 C   0  0  0  0  0  0  0  0  0  0  0  0
    5.3476   -0.6495    0.8151 C   0  0  0  0  0  0  0  0  0  0  0  0
    5.5658    0.3901    1.7296 C   0  0  0  0  0  0  0  0  0  0  0  0
    6.6234    0.2619    2.7973 C   0  0  0  0  0  0  0  0  0  0  0  0
    7.1128    1.4643    3.2101 F   0  0  0  0  0  0  0  0  0  0  0  0
    7.7080   -0.4580    2.3916 F   0  0  0  0  0  0  0  0  0  0  0  0
    6.1619   -0.3578    3.9185 F   0  0  0  0  0  0  0  0  0  0  0  0
    4.7634    1.5387    1.6501 C   0  0  0  0  0  0  0  0  0  0  0  0
    3.7800    1.6537    0.6640 C   0  0  0  0  0  0  0  0  0  0  0  0
   -0.3923   -1.7890   -4.2523 H   0  0  0  0  0  0  0  0  0  0  0  0
   -1.9310   -0.9449   -4.6037 H   0  0  0  0  0  0  0  0  0  0  0  0
   -1.9277   -2.6984   -4.2478 H   0  0  0  0  0  0  0  0  0  0  0  0
   -2.4868   -0.9520   -2.3441 H   0  0  0  0  0  0  0  0  0  0  0  0
   -2.1486   -1.0677   -0.2484 H   0  0  0  0  0  0  0  0  0  0  0  0
    0.0133   -4.0812    0.5788 H   0  0  0  0  0  0  0  0  0  0  0  0
   -0.9178   -6.1154    1.6291 H   0  0  0  0  0  0  0  0  0  0  0  0
   -3.3465   -6.2671    2.1221 H   0  0  0  0  0  0  0  0  0  0  0  0
   -4.8452   -4.3746    1.5600 H   0  0  0  0  0  0  0  0  0  0  0  0
   -3.9371   -2.3345    0.5176 H   0  0  0  0  0  0  0  0  0  0  0  0
   -0.9783   -1.7051    2.5314 H   0  0  0  0  0  0  0  0  0  0  0  0
    0.2682   -0.5166    2.5396 H   0  0  0  0  0  0  0  0  0  0  0  0
   -1.5741    0.8066    3.0227 H   0  0  0  0  0  0  0  0  0  0  0  0
   -2.6676   -0.1487    2.0109 H   0  0  0  0  0  0  0  0  0  0  0  0
   -3.2235    2.4454    1.7155 H   0  0  0  0  0  0  0  0  0  0  0  0
   -4.9508    5.3915    0.5157 H   0  0  0  0  0  0  0  0  0  0  0  0
   -5.0021    3.6648    0.8796 H   0  0  0  0  0  0  0  0  0  0  0  0
   -3.8266    4.7501    1.7193 H   0  0  0  0  0  0  0  0  0  0  0  0
   -0.6661    5.0819   -3.6758 H   0  0  0  0  0  0  0  0  0  0  0  0
    0.3957    4.3259   -2.4815 H   0  0  0  0  0  0  0  0  0  0  0  0
   -0.4446    3.3314   -3.7320 H   0  0  0  0  0  0  0  0  0  0  0  0
    0.0345    1.9648   -1.9868 H   0  0  0  0  0  0  0  0  0  0  0  0
    1.1012    0.4243    0.7953 H   0  0  0  0  0  0  0  0  0  0  0  0
    0.7707   -0.2097   -2.1188 H   0  0  0  0  0  0  0  0  0  0  0  0
    1.7551   -1.2423   -1.0875 H   0  0  0  0  0  0  0  0  0  0  0  0
    2.1630    1.7821   -1.3741 H   0  0  0  0  0  0  0  0  0  0  0  0
    3.0057    0.5629   -2.2964 H   0  0  0  0  0  0  0  0  0  0  0  0
    4.2193   -1.3537   -0.8748 H   0  0  0  0  0  0  0  0  0  0  0  0
    5.9491   -1.5567    0.8601 H   0  0  0  0  0  0  0  0  0  0  0  0
    4.9045    2.3574    2.3556 H   0  0  0  0  0  0  0  0  0  0  0  0
    3.1739    2.5575    0.6247 H   0  0  0  0  0  0  0  0  0  0  0  0
  1  2  1  0
  2  3  1  0
  3  4  2  0
  3  5  1  0
  5  6  1  0
  6  7  2  0
  7  8  1  0
  8  9  2  0
  9 10  1  0
 10 11  2  0
  5 12  1  0
 12 13  1  0
 13 14  1  0
 14 15  1  0
 15 16  2  0
 16 17  1  0
 17 18  1  0
 18 19  1  0
 17 20  2  0
 20 21  1  0
 21 22  1  0
 20 23  1  0
 23 24  2  0
 24 25  1  0
 25 26  1  0
 26 27  1  0
 27 28  1  0
 28 29  2  0
 29 30  1  0
 30 31  2  0
 31 32  1  0
 32 33  1  0
 32 34  1  0
 32 35  1  0
 31 36  1  0
 36 37  2  0
 11  6  1  0
 25 12  1  0
 37 28  1  0
 24 15  1  0
  1 38  1  0
  1 39  1  0
  1 40  1  0
  2 41  1  0
  5 42  1  6
  7 43  1  0
  8 44  1  0
  9 45  1  0
 10 46  1  0
 11 47  1  0
 13 48  1  0
 13 49  1  0
 14 50  1  0
 14 51  1  0
 16 52  1  0
 19 53  1  0
 19 54  1  0
 19 55  1  0
 22 56  1  0
 22 57  1  0
 22 58  1  0
 23 59  1  0
 25 60  1  1
 26 61  1  0
 26 62  1  0
 27 63  1  0
 27 64  1  0
 29 65  1  0
 30 66  1  0
 36 67  1  0
 37 68  1  0
M  END
$$$$
