
     RDKit          3D

 38 41  0  0  0  0  0  0  0  0999 V2000
   -6.0596    0.6408    0.0529 N   0  0  0  0  0  0  0  0  0  0  0  0
   -4.7516    0.6935    0.5499 C   0  0  0  0  0  0  0  0  0  0  0  0
   -4.5282    0.8008    1.9235 C   0  0  0  0  0  0  0  0  0  0  0  0
   -3.2346    0.7297    2.4406 C   0  0  0  0  0  0  0  0  0  0  0  0
   -2.1533    0.5096    1.5874 C   0  0  0  0  0  0  0  0  0  0  0  0
   -2.3559    0.3429    0.2124 C   0  0  0  0  0  0  0  0  0  0  0  0
   -1.2187    0.0833   -0.6728 C   0  0  0  0  0  0  0  0  0  0  0  0
   -0.0343   -0.6044   -0.4448 C   0  0  0  0  0  0  0  0  0  0  0  0
    0.7572   -0.5481   -1.6247 C   0  0  0  0  0  0  0  0  0  0  0  0
    2.0060   -1.0085   -2.0579 C   0  0  0  0  0  0  0  0  0  0  0  0
    2.8635   -1.7763   -1.2852 O   0  0  0  0  0  0  0  0  0  0  0  0
    3.2316   -1.2434   -0.0711 C   0  0  0  0  0  0  0  0  0  0  0  0
    3.2313   -2.1115    1.0233 C   0  0  0  0  0  0  0  0  0  0  0  0
    3.6079   -1.6440    2.2827 C   0  0  0  0  0  0  0  0  0  0  0  0
    3.9995   -0.3147    2.4413 C   0  0  0  0  0  0  0  0  0  0  0  0
    4.0233    0.5349    1.3396 C   0  0  0  0  0  0  0  0  0  0  0  0
    4.4285    1.8217    1.5411 O   0  0  0  0  0  0  0  0  0  0  0  0
    3.6508    0.0820    0.0776 C   0  0  0  0  0  0  0  0  0  0  0  0
    2.4091   -0.7672   -3.3268 N   0  0  0  0  0  0  0  0  0  0  0  0
    1.5874   -0.0529   -4.1174 C   0  0  0  0  0  0  0  0  0  0  0  0
    0.3844    0.4653   -3.8120 N   0  0  0  0  0  0  0  0  0  0  0  0
    0.0270    0.1727   -2.5528 C   0  0  0  0  0  0  0  0  0  0  0  0
   -1.1496    0.5497   -1.9693 N   0  0  0  0  0  0  0  0  0  0  0  0
   -3.6660    0.4139   -0.2887 C   0  0  0  0  0  0  0  0  0  0  0  0
   -6.1418    0.8734   -0.9313 H   0  0  0  0  0  0  0  0  0  0  0  0
   -6.7376    1.1350    0.6247 H   0  0  0  0  0  0  0  0  0  0  0  0
   -5.3627    0.9395    2.6056 H   0  0  0  0  0  0  0  0  0  0  0  0
   -3.0705    0.8335    3.5099 H   0  0  0  0  0  0  0  0  0  0  0  0
   -1.1522    0.4628    2.0100 H   0  0  0  0  0  0  0  0  0  0  0  0
    0.2321   -1.1004    0.4802 H   0  0  0  0  0  0  0  0  0  0  0  0
    2.9325   -3.1487    0.8958 H   0  0  0  0  0  0  0  0  0  0  0  0
    3.6016   -2.3143    3.1380 H   0  0  0  0  0  0  0  0  0  0  0  0
    4.2965    0.0558    3.4186 H   0  0  0  0  0  0  0  0  0  0  0  0
    4.4178    2.2881    0.6889 H   0  0  0  0  0  0  0  0  0  0  0  0
    3.6922    0.7407   -0.7835 H   0  0  0  0  0  0  0  0  0  0  0  0
    1.9406    0.1280   -5.1284 H   0  0  0  0  0  0  0  0  0  0  0  0
   -1.8495    1.1073   -2.4347 H   0  0  0  0  0  0  0  0  0  0  0  0
   -3.8546    0.2296   -1.3427 H   0  0  0  0  0  0  0  0  0  0  0  0
  1  2  1  0
  2  3  2  0
  3  4  1  0
  4  5  2  0
  5  6  1  0
  6  7  1  0
  7  8  2  0
  8  9  1  0
  9 10  2  0
 10 11  1  0
 11 12  1  0
 12 13  2  0
 13 14  1  0
 14 15  2  0
 15 16  1  0
 16 17  1  0
 16 18  2  0
 10 19  1  0
 19 20  2  0
 20 21  1  0
 21 22  2  0
 22 23  1  0
  6 24  2  0
 24  2  1  0
 23  7  1  0
 22  9  1  0
 18 12  1  0
  1 25  1  0
  1 26  1  0
  3 27  1  0
  4 28  1  0
  5 29  1  0
  8 30  1  0
 13 31  1  0
 14 32  1  0
 15 33  1  0
 17 34  1  0
 18 35  1  0
 20 36  1  0
 23 37  1  0
 24 38  1  0
M  END
$$$$
