
     RDKit          3D

 48 51  0  0  0  0  0  0  0  0999 V2000
    0.6926    0.0000    0.0000 Cl  0  0  0  0  0  0  0  0  0  0  0  0
   -0.2407    1.9725   -2.1155 O   0  0  0  0  0  0  0  0  0  0  0  0
    0.3393    1.2396   -1.2695 C   0  0  0  0  0  0  0  0  0  0  0  0
    1.7859    1.2009   -1.2344 C   0  0  0  0  0  0  0  0  0  0  0  0
    2.5204    1.9556   -2.1446 C   0  0  0  0  0  0  0  0  0  0  0  0
    3.8967    1.8998   -2.1189 C   0  0  0  0  0  0  0  0  0  0  0  0
    4.5031    1.0863   -1.1785 C   0  0  0  0  0  0  0  0  0  0  0  0
    3.7809    0.3385   -0.2765 C   0  0  0  0  0  0  0  0  0  0  0  0
    2.3827    0.4049   -0.3132 C   0  0  0  0  0  0  0  0  0  0  0  0
    1.6986   -0.4092    0.6875 C   0  0  2  0  0  0  0  0  0  0  0  0
    2.3268   -1.7808    0.6566 C   0  0  0  0  0  0  0  0  0  0  0  0
    3.7465   -1.7267    1.1001 C   0  0  0  0  0  0  0  0  0  0  0  0
    4.5025   -0.5019    0.6820 C   0  0  0  0  0  0  0  0  0  0  0  0
    0.2117   -0.4544    0.5855 C   0  0  0  0  0  0  0  0  0  0  0  0
   -0.3988    0.4403   -0.3377 N   0  0  0  0  0  0  0  0  0  0  0  0
   -1.8378    0.5639   -0.3472 C   0  0  2  0  0  0  0  0  0  0  0  0
   -2.4536    1.0616    0.9246 C   0  0  0  0  0  0  0  0  0  0  0  0
   -3.8936    0.7534    0.8578 N   0  0  0  0  0  0  0  0  0  0  0  0
   -4.3625    0.9684   -0.4966 C   0  0  0  0  0  0  0  0  0  0  0  0
   -3.8767   -0.1705   -1.4028 C   0  0  0  0  0  0  0  0  0  0  0  0
   -2.5847   -0.6879   -0.7152 C   0  0  0  0  0  0  0  0  0  0  0  0
   -2.9604   -1.4289    0.5398 C   0  0  0  0  0  0  0  0  0  0  0  0
   -4.1379   -0.6588    1.1547 C   0  0  0  0  0  0  0  0  0  0  0  0
   -0.6926    0.0000    0.0000 H   0  0  0  0  0  0  0  0  0  0  0  0
    2.0104    2.5846   -2.8706 H   0  0  0  0  0  0  0  0  0  0  0  0
    4.5223    2.4709   -2.8096 H   0  0  0  0  0  0  0  0  0  0  0  0
    5.5826    1.0483   -1.1656 H   0  0  0  0  0  0  0  0  0  0  0  0
    1.9699    0.0122    1.7000 H   0  0  0  0  0  0  0  0  0  0  0  0
    2.2027   -2.2391   -0.3554 H   0  0  0  0  0  0  0  0  0  0  0  0
    1.7492   -2.4048    1.3912 H   0  0  0  0  0  0  0  0  0  0  0  0
    3.7716   -1.8366    2.2097 H   0  0  0  0  0  0  0  0  0  0  0  0
    4.2552   -2.6489    0.6935 H   0  0  0  0  0  0  0  0  0  0  0  0
    4.7543    0.0991    1.6010 H   0  0  0  0  0  0  0  0  0  0  0  0
    5.4739   -0.8029    0.2562 H   0  0  0  0  0  0  0  0  0  0  0  0
   -0.0533   -1.4941    0.3055 H   0  0  0  0  0  0  0  0  0  0  0  0
   -0.2357   -0.2326    1.5977 H   0  0  0  0  0  0  0  0  0  0  0  0
   -2.1106    1.3426   -1.1439 H   0  0  0  0  0  0  0  0  0  0  0  0
   -2.4019    2.1793    0.9542 H   0  0  0  0  0  0  0  0  0  0  0  0
   -2.0155    0.6948    1.8483 H   0  0  0  0  0  0  0  0  0  0  0  0
   -5.4839    0.9964   -0.5248 H   0  0  0  0  0  0  0  0  0  0  0  0
   -4.0004    1.9173   -0.8912 H   0  0  0  0  0  0  0  0  0  0  0  0
   -4.6091   -0.9720   -1.4786 H   0  0  0  0  0  0  0  0  0  0  0  0
   -3.5276    0.2337   -2.3757 H   0  0  0  0  0  0  0  0  0  0  0  0
   -2.0910   -1.3054   -1.4641 H   0  0  0  0  0  0  0  0  0  0  0  0
   -2.1662   -1.4608    1.2949 H   0  0  0  0  0  0  0  0  0  0  0  0
   -3.2691   -2.4805    0.3229 H   0  0  0  0  0  0  0  0  0  0  0  0
   -4.2070   -0.8102    2.2304 H   0  0  0  0  0  0  0  0  0  0  0  0
   -5.0691   -0.9581    0.6170 H   0  0  0  0  0  0  0  0  0  0  0  0
  2  3  2  0
  3  4  1  0
  4  5  2  0
  5  6  1  0
  6  7  2  0
  7  8  1  0
  8  9  2  0
  9 10  1  0
 10 11  1  0
 11 12  1  0
 12 13  1  0
 10 14  1  0
 14 15  1  0
 15 16  1  0
 16 17  1  0
 17 18  1  0
 18 19  1  0
 19 20  1  0
 20 21  1  0
 21 22  1  0
 22 23  1  0
 15  3  1  0
 21 16  1  0
  9  4  1  0
 23 18  1  0
 13  8  1  0
  1 24  1  0
  5 25  1  0
  6 26  1  0
  7 27  1  0
 10 28  1  1
 11 29  1  0
 11 30  1  0
 12 31  1  0
 12 32  1  0
 13 33  1  0
 13 34  1  0
 14 35  1  0
 14 36  1  0
 16 37  1  6
 17 38  1  0
 17 39  1  0
 19 40  1  0
 19 41  1  0
 20 42  1  0
 20 43  1  0
 21 44  1  0
 22 45  1  0
 22 46  1  0
 23 47  1  0
 23 48  1  0
M  END
$$$$
