
     RDKit          3D

 42 43  0  0  0  0  0  0  0  0999 V2000
   -4.8992    2.8579   -1.3136 C   0  0  0  0  0  0  0  0  0  0  0  0
   -4.8974    1.8394   -0.2147 C   0  0  0  0  0  0  0  0  0  0  0  0
   -5.8279    1.6660    0.5604 O   0  0  0  0  0  0  0  0  0  0  0  0
   -3.7096    1.1854   -0.1997 O   0  0  0  0  0  0  0  0  0  0  0  0
   -3.6540    0.0756    0.7052 C   0  0  0  0  0  0  0  0  0  0  0  0
   -2.2300   -0.4407    0.7196 C   0  0  0  0  0  0  0  0  0  0  0  0
   -1.8898   -1.6493    0.2084 C   0  0  0  0  0  0  0  0  0  0  0  0
   -2.9770   -2.5086   -0.5063 C   0  0  0  0  0  0  0  0  0  0  0  0
   -3.5143   -3.3791    0.2370 O   0  0  0  0  0  0  0  0  0  0  0  0
   -3.2351   -2.1590   -1.6926 O   0  0  0  0  0  1  0  0  0  0  0  0
   -0.6052   -2.0914    0.2860 N   0  0  0  0  0  0  0  0  0  0  0  0
    0.1349   -3.1090   -0.1951 C   0  0  0  0  0  0  0  0  0  0  0  0
   -0.0685   -4.0520   -0.9217 O   0  0  0  0  0  0  0  0  0  0  0  0
    1.4080   -2.4816    0.4750 C   0  0  1  0  0  0  0  0  0  0  0  0
    2.3619   -1.8582   -0.4928 N   0  0  0  0  0  0  0  0  0  0  0  0
    3.6400   -1.5008   -0.1255 C   0  0  0  0  0  0  0  0  0  0  0  0
    4.1068   -1.7457    0.9847 O   0  0  0  0  0  0  0  0  0  0  0  0
    4.4289   -0.7958   -1.2156 C   0  0  0  0  0  0  0  0  0  0  0  0
    4.4562    0.6794   -0.9606 C   0  0  0  0  0  0  0  0  0  0  0  0
    3.4647    1.6098   -1.2063 C   0  0  0  0  0  0  0  0  0  0  0  0
    3.8523    2.9282   -0.8304 C   0  0  0  0  0  0  0  0  0  0  0  0
    5.1303    2.9636   -0.3212 C   0  0  0  0  0  0  0  0  0  0  0  0
    5.8553    1.4159   -0.2986 S   0  0  0  0  0  0  0  0  0  0  0  0
    0.3829   -1.5534    1.1897 C   0  0  1  0  0  0  0  0  0  0  0  0
    0.4947    0.2337    0.9014 S   0  0  0  0  0  0  0  0  0  0  0  0
   -1.2485    0.5222    1.3509 C   0  0  0  0  0  0  0  0  0  0  0  0
    0.0000    0.0000    0.0000 Na  0  0  0  0  0 15  0  0  0  0  0  0
   -4.6966    2.3715   -2.2713 H   0  0  0  0  0  0  0  0  0  0  0  0
   -5.8844    3.3297   -1.3691 H   0  0  0  0  0  0  0  0  0  0  0  0
   -4.1511    3.6271   -1.1066 H   0  0  0  0  0  0  0  0  0  0  0  0
   -3.9181    0.4047    1.7186 H   0  0  0  0  0  0  0  0  0  0  0  0
   -4.3897   -0.6727    0.3970 H   0  0  0  0  0  0  0  0  0  0  0  0
    1.9122   -3.1869    1.1462 H   0  0  0  0  0  0  0  0  0  0  0  0
    1.9738   -1.4792   -1.3512 H   0  0  0  0  0  0  0  0  0  0  0  0
    3.9808   -0.9954   -2.1963 H   0  0  0  0  0  0  0  0  0  0  0  0
    5.4343   -1.2317   -1.2418 H   0  0  0  0  0  0  0  0  0  0  0  0
    2.4950    1.3591   -1.6213 H   0  0  0  0  0  0  0  0  0  0  0  0
    3.2205    3.8026   -0.9237 H   0  0  0  0  0  0  0  0  0  0  0  0
    5.6744    3.8234    0.0433 H   0  0  0  0  0  0  0  0  0  0  0  0
    0.2034   -1.8311    2.2357 H   0  0  0  0  0  0  0  0  0  0  0  0
   -1.4708    1.5492    1.0442 H   0  0  0  0  0  0  0  0  0  0  0  0
   -1.3442    0.4771    2.4413 H   0  0  0  0  0  0  0  0  0  0  0  0
  1  2  1  0
  2  3  2  0
  2  4  1  0
  4  5  1  0
  5  6  1  0
  6  7  2  0
  7  8  1  0
  8  9  2  0
  8 10  1  0
  7 11  1  0
 11 12  1  0
 12 13  2  0
 12 14  1  0
 14 15  1  0
 15 16  1  0
 16 17  2  0
 16 18  1  0
 18 19  1  0
 19 20  2  0
 20 21  1  0
 21 22  2  0
 22 23  1  0
 14 24  1  0
 24 25  1  0
 25 26  1  0
 26  6  1  0
 24 11  1  0
 23 19  1  0
  1 28  1  0
  1 29  1  0
  1 30  1  0
  5 31  1  0
  5 32  1  0
 14 33  1  1
 15 34  1  0
 18 35  1  0
 18 36  1  0
 20 37  1  0
 21 38  1  0
 22 39  1  0
 24 40  1  1
 26 41  1  0
 26 42  1  0
M  CHG  2  10  -1  27   1
M  END
$$$$
