
     RDKit          3D

 36 37  0  0  0  0  0  0  0  0999 V2000
   -5.0708   -0.4116    2.7631 C   0  0  0  0  0  0  0  0  0  0  0  0
   -5.0821   -0.9801    1.3514 C   0  0  0  0  0  0  0  0  0  0  0  0
   -3.6993   -1.0231    0.7539 C   0  0  0  0  0  0  0  0  0  0  0  0
   -2.8792   -2.1409    0.9339 C   0  0  0  0  0  0  0  0  0  0  0  0
   -1.5897   -2.1670    0.3944 C   0  0  0  0  0  0  0  0  0  0  0  0
   -1.0929   -1.0771   -0.3314 C   0  0  0  0  0  0  0  0  0  0  0  0
    0.2198   -1.1866   -0.8366 N   0  0  0  0  0  0  0  0  0  0  0  0
    0.9257   -0.2444   -1.5758 C   0  0  0  0  0  0  0  0  0  0  0  0
    0.5084    0.8517   -1.9370 O   0  0  0  0  0  0  0  0  0  0  0  0
    2.3419   -0.7366   -1.9316 C   0  0  0  0  0  0  0  0  0  0  0  0
    3.2531    0.2822   -2.3284 O   0  0  0  0  0  0  0  0  0  0  0  0
    3.7344    0.9987   -1.2653 C   0  0  0  0  0  0  0  0  0  0  0  0
    3.4467    2.3617   -1.2288 C   0  0  0  0  0  0  0  0  0  0  0  0
    3.9415    3.1515   -0.1882 C   0  0  0  0  0  0  0  0  0  0  0  0
    4.7381    2.5820    0.8072 C   0  0  0  0  0  0  0  0  0  0  0  0
    5.0506    1.2231    0.7562 C   0  0  0  0  0  0  0  0  0  0  0  0
    4.5535    0.4409   -0.2826 C   0  0  0  0  0  0  0  0  0  0  0  0
    4.8811   -0.8598   -0.3254 F   0  0  0  0  0  0  0  0  0  0  0  0
   -1.9093    0.0394   -0.5064 C   0  0  0  0  0  0  0  0  0  0  0  0
   -3.2006    0.0675    0.0338 C   0  0  0  0  0  0  0  0  0  0  0  0
   -4.4420   -1.0124    3.4287 H   0  0  0  0  0  0  0  0  0  0  0  0
   -6.0846   -0.3995    3.1751 H   0  0  0  0  0  0  0  0  0  0  0  0
   -4.6880    0.6145    2.7751 H   0  0  0  0  0  0  0  0  0  0  0  0
   -5.5097   -1.9901    1.3619 H   0  0  0  0  0  0  0  0  0  0  0  0
   -5.7414   -0.3779    0.7146 H   0  0  0  0  0  0  0  0  0  0  0  0
   -3.2378   -2.9995    1.4979 H   0  0  0  0  0  0  0  0  0  0  0  0
   -0.9831   -3.0538    0.5555 H   0  0  0  0  0  0  0  0  0  0  0  0
    0.6972   -2.0539   -0.6237 H   0  0  0  0  0  0  0  0  0  0  0  0
    2.7430   -1.3505   -1.1159 H   0  0  0  0  0  0  0  0  0  0  0  0
    2.2262   -1.4040   -2.7945 H   0  0  0  0  0  0  0  0  0  0  0  0
    2.8243    2.8038   -2.0036 H   0  0  0  0  0  0  0  0  0  0  0  0
    3.7041    4.2122   -0.1566 H   0  0  0  0  0  0  0  0  0  0  0  0
    5.1223    3.1996    1.6155 H   0  0  0  0  0  0  0  0  0  0  0  0
    5.6859    0.7721    1.5117 H   0  0  0  0  0  0  0  0  0  0  0  0
   -1.5746    0.9129   -1.0566 H   0  0  0  0  0  0  0  0  0  0  0  0
   -3.8124    0.9550   -0.1143 H   0  0  0  0  0  0  0  0  0  0  0  0
  1  2  1  0
  2  3  1  0
  3  4  2  0
  4  5  1  0
  5  6  2  0
  6  7  1  0
  7  8  1  0
  8  9  2  0
  8 10  1  0
 10 11  1  0
 11 12  1  0
 12 13  2  0
 13 14  1  0
 14 15  2  0
 15 16  1  0
 16 17  2  0
 17 18  1  0
  6 19  1  0
 19 20  2  0
 20  3  1  0
 17 12  1  0
  1 21  1  0
  1 22  1  0
  1 23  1  0
  2 24  1  0
  2 25  1  0
  4 26  1  0
  5 27  1  0
  7 28  1  0
 10 29  1  0
 10 30  1  0
 13 31  1  0
 14 32  1  0
 15 33  1  0
 16 34  1  0
 19 35  1  0
 20 36  1  0
M  END
$$$$
