
     RDKit          3D

 86 94  0  0  0  0  0  0  0  0999 V2000
   -2.7777   -1.5536   -2.1569 C   0  0  0  0  0  0  0  0  0  0  0  0
   -3.2902   -0.2324   -1.7090 C   0  0  0  0  0  0  0  0  0  0  0  0
   -2.6726    1.0027   -1.6310 C   0  0  0  0  0  0  0  0  0  0  0  0
   -1.3098    1.2969   -2.0095 C   0  0  0  0  0  0  0  0  0  0  0  0
   -1.0825    1.9742   -3.2089 C   0  0  0  0  0  0  0  0  0  0  0  0
    0.2157    2.3560   -3.5603 C   0  0  0  0  0  0  0  0  0  0  0  0
    1.2932    2.0459   -2.7293 C   0  0  0  0  0  0  0  0  0  0  0  0
    2.5905    2.4704   -3.0399 N   0  0  0  0  0  0  0  0  0  0  0  0
    3.0749    2.2283   -4.3989 C   0  0  0  0  0  0  0  0  0  0  0  0
    4.2293    3.1951   -4.6762 C   0  0  0  0  0  0  0  0  0  0  0  0
    5.3076    3.0776   -3.6305 C   0  0  0  0  0  0  0  0  0  0  0  0
    6.6150    3.4852   -3.9380 C   0  0  0  0  0  0  0  0  0  0  0  0
    7.6303    3.3785   -2.9918 C   0  0  0  0  0  0  0  0  0  0  0  0
    7.3497    2.8571   -1.7319 C   0  0  0  0  0  0  0  0  0  0  0  0
    6.0432    2.4533   -1.4121 C   0  0  0  0  0  0  0  0  0  0  0  0
    5.8171    1.8451   -0.0746 C   0  0  0  0  0  0  0  0  0  0  0  0
    5.0266    2.3812    0.6877 O   0  0  0  0  0  0  0  0  0  0  0  0
    6.5655    0.7081    0.1247 N   0  0  0  0  0  0  0  0  0  0  0  0
    6.5291   -0.0015    1.2923 C   0  0  0  0  0  0  0  0  0  0  0  0
    5.8350    0.2149    2.3762 N   0  0  0  0  0  0  0  0  0  0  0  0
    6.1407   -0.7468    3.3231 C   0  0  0  0  0  0  0  0  0  0  0  0
    5.5959   -0.8379    4.6190 C   0  0  0  0  0  0  0  0  0  0  0  0
    6.0203   -1.8548    5.4827 C   0  0  0  0  0  0  0  0  0  0  0  0
    6.9710   -2.7852    5.0659 C   0  0  0  0  0  0  0  0  0  0  0  0
    7.5149   -2.7265    3.7809 C   0  0  0  0  0  0  0  0  0  0  0  0
    7.0883   -1.6949    2.9257 C   0  0  0  0  0  0  0  0  0  0  0  0
    7.5701   -1.3517    1.3055 S   0  0  0  0  0  0  0  0  0  0  0  0
    4.9941    2.5914   -2.3423 C   0  0  0  0  0  0  0  0  0  0  0  0
    3.5737    2.1793   -1.9732 C   0  0  0  0  0  0  0  0  0  0  0  0
    1.0779    1.3880   -1.5703 N   0  0  0  0  0  0  0  0  0  0  0  0
   -0.1951    1.0335   -1.2179 C   0  0  0  0  0  0  0  0  0  0  0  0
   -0.3025    0.3418    0.1047 C   0  0  0  0  0  0  0  0  0  0  0  0
   -1.0269   -0.5909    0.4031 O   0  0  0  0  0  0  0  0  0  0  0  0
    0.5545    0.8737    1.0037 O   0  0  0  0  0  0  0  0  0  0  0  0
   -3.6790    1.8875   -1.1965 C   0  0  0  0  0  0  0  0  0  0  0  0
   -4.8382    1.2715   -0.9810 N   0  0  0  0  0  0  0  0  0  0  0  0
   -4.5599   -0.0299   -1.2097 N   0  0  0  0  0  0  0  0  0  0  0  0
   -5.6089   -1.0081   -0.9846 C   0  0  0  0  0  0  0  0  0  0  0  0
   -5.8286   -1.4555    0.4824 C   0  0  0  0  0  0  0  0  0  0  0  0
   -6.9445   -2.5400    0.4962 C   0  0  0  0  0  0  0  0  0  0  0  0
   -7.2183   -3.0347    1.9268 C   0  0  0  0  0  0  0  0  0  0  0  0
   -7.6708   -1.8457    2.7904 C   0  0  0  0  0  0  0  0  0  0  0  0
   -6.5705   -0.7719    2.8210 C   0  0  0  0  0  0  0  0  0  0  0  0
   -5.2815   -1.3784    3.3998 C   0  0  0  0  0  0  0  0  0  0  0  0
   -4.8201   -2.5643    2.5354 C   0  0  0  0  0  0  0  0  0  0  0  0
   -5.9271   -3.6310    2.5124 C   0  0  0  0  0  0  0  0  0  0  0  0
   -4.5494   -2.0743    1.1011 C   0  0  0  0  0  0  0  0  0  0  0  0
   -6.2927   -0.2827    1.3878 C   0  0  0  0  0  0  0  0  0  0  0  0
   -3.5049   -2.0697   -2.7987 H   0  0  0  0  0  0  0  0  0  0  0  0
   -2.5525   -2.1963   -1.2945 H   0  0  0  0  0  0  0  0  0  0  0  0
   -1.8572   -1.4422   -2.7407 H   0  0  0  0  0  0  0  0  0  0  0  0
   -1.9110    2.2358   -3.8660 H   0  0  0  0  0  0  0  0  0  0  0  0
    0.3596    2.9422   -4.4628 H   0  0  0  0  0  0  0  0  0  0  0  0
    3.4112    1.1866   -4.5008 H   0  0  0  0  0  0  0  0  0  0  0  0
    2.3127    2.3952   -5.1678 H   0  0  0  0  0  0  0  0  0  0  0  0
    3.8609    4.2308   -4.6744 H   0  0  0  0  0  0  0  0  0  0  0  0
    4.6398    2.9795   -5.6703 H   0  0  0  0  0  0  0  0  0  0  0  0
    6.8471    3.8931   -4.9214 H   0  0  0  0  0  0  0  0  0  0  0  0
    8.6379    3.7055   -3.2382 H   0  0  0  0  0  0  0  0  0  0  0  0
    8.1439    2.7901   -0.9927 H   0  0  0  0  0  0  0  0  0  0  0  0
    7.1839    0.3657   -0.5959 H   0  0  0  0  0  0  0  0  0  0  0  0
    4.8538   -0.1078    4.9370 H   0  0  0  0  0  0  0  0  0  0  0  0
    5.6138   -1.9068    6.4887 H   0  0  0  0  0  0  0  0  0  0  0  0
    7.2945   -3.5702    5.7499 H   0  0  0  0  0  0  0  0  0  0  0  0
    8.2558   -3.4511    3.4579 H   0  0  0  0  0  0  0  0  0  0  0  0
    3.5887    1.1019   -1.7589 H   0  0  0  0  0  0  0  0  0  0  0  0
    3.2809    2.7349   -1.0752 H   0  0  0  0  0  0  0  0  0  0  0  0
    0.4418    0.3454    1.8179 H   0  0  0  0  0  0  0  0  0  0  0  0
   -3.6152    2.9562   -1.0383 H   0  0  0  0  0  0  0  0  0  0  0  0
   -6.5302   -0.5716   -1.3891 H   0  0  0  0  0  0  0  0  0  0  0  0
   -5.3884   -1.8788   -1.6063 H   0  0  0  0  0  0  0  0  0  0  0  0
   -6.6561   -3.3902   -0.1356 H   0  0  0  0  0  0  0  0  0  0  0  0
   -7.8682   -2.1326    0.0650 H   0  0  0  0  0  0  0  0  0  0  0  0
   -8.0037   -3.7995    1.9095 H   0  0  0  0  0  0  0  0  0  0  0  0
   -8.5983   -1.4205    2.3858 H   0  0  0  0  0  0  0  0  0  0  0  0
   -7.8953   -2.1835    3.8101 H   0  0  0  0  0  0  0  0  0  0  0  0
   -6.8933    0.0712    3.4435 H   0  0  0  0  0  0  0  0  0  0  0  0
   -4.4931   -0.6157    3.4385 H   0  0  0  0  0  0  0  0  0  0  0  0
   -5.4588   -1.7104    4.4303 H   0  0  0  0  0  0  0  0  0  0  0  0
   -3.9028   -2.9945    2.9528 H   0  0  0  0  0  0  0  0  0  0  0  0
   -5.6035   -4.4930    1.9144 H   0  0  0  0  0  0  0  0  0  0  0  0
   -6.1092   -3.9988    3.5311 H   0  0  0  0  0  0  0  0  0  0  0  0
   -3.7381   -1.3350    1.1273 H   0  0  0  0  0  0  0  0  0  0  0  0
   -4.2030   -2.9158    0.4878 H   0  0  0  0  0  0  0  0  0  0  0  0
   -5.5228    0.4971    1.4330 H   0  0  0  0  0  0  0  0  0  0  0  0
   -7.1976    0.1807    0.9731 H   0  0  0  0  0  0  0  0  0  0  0  0
  1  2  1  0
  2  3  2  0
  3  4  1  0
  4  5  2  0
  5  6  1  0
  6  7  2  0
  7  8  1  0
  8  9  1  0
  9 10  1  0
 10 11  1  0
 11 12  2  0
 12 13  1  0
 13 14  2  0
 14 15  1  0
 15 16  1  0
 16 17  2  0
 16 18  1  0
 18 19  1  0
 19 20  2  0
 20 21  1  0
 21 22  2  0
 22 23  1  0
 23 24  2  0
 24 25  1  0
 25 26  2  0
 26 27  1  0
 15 28  2  0
 28 29  1  0
  7 30  1  0
 30 31  2  0
 31 32  1  0
 32 33  2  0
 32 34  1  0
  3 35  1  0
 35 36  2  0
 36 37  1  0
 37 38  1  0
 38 39  1  0
 39 40  1  0
 40 41  1  0
 41 42  1  0
 42 43  1  0
 43 44  1  0
 44 45  1  0
 45 46  1  0
 45 47  1  0
 43 48  1  0
 37  2  1  0
 47 39  1  0
 31  4  1  0
 48 39  1  0
 29  8  1  0
 46 41  1  0
 28 11  1  0
 27 19  1  0
 26 21  1  0
  1 49  1  0
  1 50  1  0
  1 51  1  0
  5 52  1  0
  6 53  1  0
  9 54  1  0
  9 55  1  0
 10 56  1  0
 10 57  1  0
 12 58  1  0
 13 59  1  0
 14 60  1  0
 18 61  1  0
 22 62  1  0
 23 63  1  0
 24 64  1  0
 25 65  1  0
 29 66  1  0
 29 67  1  0
 34 68  1  0
 35 69  1  0
 38 70  1  0
 38 71  1  0
 40 72  1  0
 40 73  1  0
 41 74  1  0
 42 75  1  0
 42 76  1  0
 43 77  1  0
 44 78  1  0
 44 79  1  0
 45 80  1  0
 46 81  1  0
 46 82  1  0
 47 83  1  0
 47 84  1  0
 48 85  1  0
 48 86  1  0
M  END
$$$$
