
     RDKit          3D

 53 55  0  0  0  0  0  0  0  0999 V2000
    6.5340    0.8753    0.2576 C   0  0  0  0  0  0  0  0  0  0  0  0
    5.0513    0.5230    0.3931 C   0  0  0  0  0  0  0  0  0  0  0  0
    4.8361   -0.3504    1.6304 C   0  0  0  0  0  0  0  0  0  0  0  0
    4.5585   -0.1630   -0.8957 C   0  0  0  0  0  0  0  0  0  0  0  0
    3.1106   -0.3742   -0.9220 N   0  0  0  0  0  0  0  0  0  0  0  0
    2.5877   -1.6298   -0.6258 C   0  0  0  0  0  0  0  0  0  0  0  0
    3.2847   -2.6076   -0.3660 O   0  0  0  0  0  0  0  0  0  0  0  0
    1.1030   -1.7777   -0.5911 C   0  0  0  0  0  0  0  0  0  0  0  0
    0.5572   -3.0028   -0.1760 C   0  0  0  0  0  0  0  0  0  0  0  0
   -0.8253   -3.1537   -0.0584 C   0  0  0  0  0  0  0  0  0  0  0  0
   -1.6667   -2.0810   -0.3588 C   0  0  0  0  0  0  0  0  0  0  0  0
   -3.1315   -2.2329   -0.1586 C   0  0  0  0  0  0  0  0  0  0  0  0
   -3.6638   -3.3142   -0.3770 O   0  0  0  0  0  0  0  0  0  0  0  0
   -3.7972   -1.1139    0.2997 N   0  0  0  0  0  0  0  0  0  0  0  0
   -5.2455   -1.0847    0.4366 C   0  0  0  0  0  0  0  0  0  0  0  0
   -5.8957   -0.7363   -0.9002 C   0  0  0  0  0  0  0  0  0  0  0  0
   -5.6528   -0.0838    1.5130 C   0  0  0  0  0  0  0  0  0  0  0  0
   -1.1296   -0.8789   -0.8382 C   0  0  0  0  0  0  0  0  0  0  0  0
    0.2543   -0.7137   -0.9339 C   0  0  0  0  0  0  0  0  0  0  0  0
    0.8717    0.5016   -1.2966 N   0  0  0  0  0  0  0  0  0  0  0  0
    0.4160    1.7407   -1.7043 C   0  0  0  0  0  0  0  0  0  0  0  0
   -1.1977    2.1795   -2.1479 S   0  0  0  0  0  0  0  0  0  0  0  0
   -1.6030    3.3032   -0.7805 C   0  0  0  0  0  0  0  0  0  0  0  0
   -1.6388    2.5337    0.5292 C   0  0  0  0  0  0  0  0  0  0  0  0
   -0.7205    2.9171    1.4638 N   0  0  0  0  0  0  0  0  0  0  0  0
   -2.4075    1.6011    0.7554 O   0  0  0  0  0  0  0  0  0  0  0  0
    1.4123    2.5964   -1.7495 N   0  0  0  0  0  0  0  0  0  0  0  0
    2.5636    1.9137   -1.4671 N   0  0  0  0  0  0  0  0  0  0  0  0
    2.2434    0.6613   -1.2265 C   0  0  0  0  0  0  0  0  0  0  0  0
    7.1447   -0.0226    0.1150 H   0  0  0  0  0  0  0  0  0  0  0  0
    6.6998    1.5384   -0.5982 H   0  0  0  0  0  0  0  0  0  0  0  0
    6.8949    1.3919    1.1534 H   0  0  0  0  0  0  0  0  0  0  0  0
    4.4967    1.4580    0.5405 H   0  0  0  0  0  0  0  0  0  0  0  0
    5.2365    0.1391    2.5247 H   0  0  0  0  0  0  0  0  0  0  0  0
    5.3343   -1.3202    1.5248 H   0  0  0  0  0  0  0  0  0  0  0  0
    3.7712   -0.5301    1.8078 H   0  0  0  0  0  0  0  0  0  0  0  0
    5.0718   -1.1238   -1.0250 H   0  0  0  0  0  0  0  0  0  0  0  0
    4.8198    0.4449   -1.7716 H   0  0  0  0  0  0  0  0  0  0  0  0
    1.2069   -3.8384    0.0814 H   0  0  0  0  0  0  0  0  0  0  0  0
   -1.2437   -4.0976    0.2865 H   0  0  0  0  0  0  0  0  0  0  0  0
   -3.2908   -0.2498    0.4908 H   0  0  0  0  0  0  0  0  0  0  0  0
   -5.5825   -2.0835    0.7389 H   0  0  0  0  0  0  0  0  0  0  0  0
   -5.5665    0.2469   -1.2553 H   0  0  0  0  0  0  0  0  0  0  0  0
   -6.9869   -0.7209   -0.8123 H   0  0  0  0  0  0  0  0  0  0  0  0
   -5.6297   -1.4698   -1.6686 H   0  0  0  0  0  0  0  0  0  0  0  0
   -5.1940   -0.3411    2.4741 H   0  0  0  0  0  0  0  0  0  0  0  0
   -6.7394   -0.0743    1.6471 H   0  0  0  0  0  0  0  0  0  0  0  0
   -5.3316    0.9315    1.2551 H   0  0  0  0  0  0  0  0  0  0  0  0
   -1.8305   -0.1027   -1.1079 H   0  0  0  0  0  0  0  0  0  0  0  0
   -2.5941    3.7364   -0.9467 H   0  0  0  0  0  0  0  0  0  0  0  0
   -0.8813    4.1249   -0.7394 H   0  0  0  0  0  0  0  0  0  0  0  0
    0.0618    3.5238    1.2461 H   0  0  0  0  0  0  0  0  0  0  0  0
   -0.6762    2.3910    2.3283 H   0  0  0  0  0  0  0  0  0  0  0  0
  1  2  1  0
  2  3  1  0
  2  4  1  0
  4  5  1  0
  5  6  1  0
  6  7  2  0
  6  8  1  0
  8  9  2  0
  9 10  1  0
 10 11  2  0
 11 12  1  0
 12 13  2  0
 12 14  1  0
 14 15  1  0
 15 16  1  0
 15 17  1  0
 11 18  1  0
 18 19  2  0
 19 20  1  0
 20 21  1  0
 21 22  1  0
 22 23  1  0
 23 24  1  0
 24 25  1  0
 24 26  2  0
 21 27  2  0
 27 28  1  0
 28 29  2  0
 29  5  1  0
 19  8  1  0
 29 20  1  0
  1 30  1  0
  1 31  1  0
  1 32  1  0
  2 33  1  0
  3 34  1  0
  3 35  1  0
  3 36  1  0
  4 37  1  0
  4 38  1  0
  9 39  1  0
 10 40  1  0
 14 41  1  0
 15 42  1  0
 16 43  1  0
 16 44  1  0
 16 45  1  0
 17 46  1  0
 17 47  1  0
 17 48  1  0
 18 49  1  0
 23 50  1  0
 23 51  1  0
 25 52  1  0
 25 53  1  0
M  END
$$$$
