
     RDKit          3D

 52 55  0  0  0  0  0  0  0  0999 V2000
   -6.0128    1.9675    0.5489 C   0  0  0  0  0  0  0  0  0  0  0  0
   -4.7271    1.8337    1.3469 C   0  0  0  0  0  0  0  0  0  0  0  0
   -4.3533    0.3873    1.5298 C   0  0  0  0  0  0  0  0  0  0  0  0
   -4.6983   -0.2735    2.5976 N   0  0  0  0  0  0  0  0  0  0  0  0
   -4.3259   -1.5984    2.6827 N   0  0  0  0  0  0  0  0  0  0  0  0
   -3.6193   -2.3135    1.7310 C   0  0  0  0  0  0  0  0  0  0  0  0
   -3.3299   -3.4938    1.8930 O   0  0  0  0  0  0  0  0  0  0  0  0
   -3.2686   -1.5421    0.5707 C   0  0  0  0  0  0  0  0  0  0  0  0
   -2.5923   -1.8892   -0.5812 C   0  0  0  0  0  0  0  0  0  0  0  0
   -2.5315   -0.7283   -1.3885 C   0  0  0  0  0  0  0  0  0  0  0  0
   -1.7800   -0.6106   -2.9481 S   0  0  0  0  0  6  0  0  0  0  0  0
   -1.9198   -1.9349   -3.5102 O   0  0  0  0  0  0  0  0  0  0  0  0
   -2.4064    0.5506   -3.5420 O   0  0  0  0  0  0  0  0  0  0  0  0
   -0.1408   -0.2826   -2.7218 N   0  0  0  0  0  0  0  0  0  0  0  0
    0.7037   -1.4211   -2.2574 C   0  0  0  0  0  0  0  0  0  0  0  0
    2.0769   -0.9559   -1.7393 C   0  0  0  0  0  0  0  0  0  0  0  0
    1.9179   -0.0036   -0.6270 N   0  0  0  0  0  0  0  0  0  0  0  0
    2.9353    0.2153    0.2915 C   0  0  0  0  0  0  0  0  0  0  0  0
    2.6895    0.8585    1.5146 C   0  0  0  0  0  0  0  0  0  0  0  0
    3.7041    1.0762    2.4529 C   0  0  0  0  0  0  0  0  0  0  0  0
    5.0040    0.6505    2.1933 C   0  0  0  0  0  0  0  0  0  0  0  0
    5.2862    0.0039    0.9951 C   0  0  0  0  0  0  0  0  0  0  0  0
    6.5111   -0.4669    0.6049 O   0  0  0  0  0  0  0  0  0  0  0  0
    7.5881   -0.2901    1.5164 C   0  0  0  0  0  0  0  0  0  0  0  0
    4.2560   -0.2073    0.0658 C   0  0  0  0  0  0  0  0  0  0  0  0
    0.7729    0.9200   -0.7035 C   0  0  0  0  0  0  0  0  0  0  0  0
    0.2232    1.0378   -2.1371 C   0  0  0  0  0  0  0  0  0  0  0  0
   -3.1743    0.2891   -0.7048 C   0  0  0  0  0  0  0  0  0  0  0  0
   -3.6345   -0.2178    0.4903 N   0  0  0  0  0  0  0  0  0  0  0  0
   -6.8317    1.4233    1.0312 H   0  0  0  0  0  0  0  0  0  0  0  0
   -6.3023    3.0197    0.4683 H   0  0  0  0  0  0  0  0  0  0  0  0
   -5.9010    1.5666   -0.4633 H   0  0  0  0  0  0  0  0  0  0  0  0
   -3.9140    2.3973    0.8804 H   0  0  0  0  0  0  0  0  0  0  0  0
   -4.8806    2.2724    2.3404 H   0  0  0  0  0  0  0  0  0  0  0  0
   -4.6051   -2.0975    3.5214 H   0  0  0  0  0  0  0  0  0  0  0  0
   -2.1983   -2.8727   -0.8117 H   0  0  0  0  0  0  0  0  0  0  0  0
    0.1927   -1.9600   -1.4526 H   0  0  0  0  0  0  0  0  0  0  0  0
    0.8525   -2.1106   -3.0954 H   0  0  0  0  0  0  0  0  0  0  0  0
    2.6223   -1.8490   -1.4118 H   0  0  0  0  0  0  0  0  0  0  0  0
    2.6451   -0.4829   -2.5495 H   0  0  0  0  0  0  0  0  0  0  0  0
    1.6855    1.1817    1.7753 H   0  0  0  0  0  0  0  0  0  0  0  0
    3.4730    1.5728    3.3918 H   0  0  0  0  0  0  0  0  0  0  0  0
    5.7653    0.8348    2.9428 H   0  0  0  0  0  0  0  0  0  0  0  0
    7.4022   -0.8217    2.4555 H   0  0  0  0  0  0  0  0  0  0  0  0
    7.7838    0.7725    1.6947 H   0  0  0  0  0  0  0  0  0  0  0  0
    8.4850   -0.7217    1.0618 H   0  0  0  0  0  0  0  0  0  0  0  0
    4.5251   -0.7005   -0.8640 H   0  0  0  0  0  0  0  0  0  0  0  0
   -0.0140    0.5592   -0.0314 H   0  0  0  0  0  0  0  0  0  0  0  0
    1.0572    1.9291   -0.3807 H   0  0  0  0  0  0  0  0  0  0  0  0
    0.9817    1.4861   -2.7910 H   0  0  0  0  0  0  0  0  0  0  0  0
   -0.6286    1.7253   -2.1406 H   0  0  0  0  0  0  0  0  0  0  0  0
   -3.3497    1.3148   -1.0014 H   0  0  0  0  0  0  0  0  0  0  0  0
  1  2  1  0
  2  3  1  0
  3  4  2  0
  4  5  1  0
  5  6  1  0
  6  7  2  0
  6  8  1  0
  8  9  2  0
  9 10  1  0
 10 11  1  0
 11 12  2  0
 11 13  2  0
 11 14  1  0
 14 15  1  0
 15 16  1  0
 16 17  1  0
 17 18  1  0
 18 19  2  0
 19 20  1  0
 20 21  2  0
 21 22  1  0
 22 23  1  0
 23 24  1  0
 22 25  2  0
 17 26  1  0
 26 27  1  0
 10 28  2  0
 28 29  1  0
 29  3  1  0
 29  8  1  0
 27 14  1  0
 25 18  1  0
  1 30  1  0
  1 31  1  0
  1 32  1  0
  2 33  1  0
  2 34  1  0
  5 35  1  0
  9 36  1  0
 15 37  1  0
 15 38  1  0
 16 39  1  0
 16 40  1  0
 19 41  1  0
 20 42  1  0
 21 43  1  0
 24 44  1  0
 24 45  1  0
 24 46  1  0
 25 47  1  0
 26 48  1  0
 26 49  1  0
 27 50  1  0
 27 51  1  0
 28 52  1  0
M  END
$$$$
