
     RDKit          3D

 33 28  0  0  0  0  0  0  0  0999 V2000
    3.5070    0.3467   -1.2298 N   0  0  0  0  0  0  0  0  0  0  0  0
    2.1318   -0.1282   -1.5153 C   0  0  0  0  0  0  0  0  0  0  0  0
    1.2217    0.1601   -0.3233 C   0  0  0  0  0  0  0  0  0  0  0  0
   -0.2218   -0.2479   -0.6005 C   0  0  0  0  0  0  0  0  0  0  0  0
   -1.1439   -0.2087    0.6422 C   0  0  0  0  0  0  0  0  0  0  0  0
   -0.7270   -1.2143    1.6403 O   0  0  0  0  0  0  0  0  0  0  0  0
   -2.9623   -1.1695    0.0172 P   0  0  0  0  0  5  0  0  0  0  0  0
   -3.9309   -0.1465   -0.5663 O   0  0  0  0  0  0  0  0  0  0  0  0
   -2.4943   -2.1994   -1.0343 O   0  0  0  0  0  1  0  0  0  0  0  0
   -3.4009   -1.8781    1.3121 O   0  0  0  0  0  1  0  0  0  0  0  0
   -0.9192    1.6460    1.6245 P   0  0  0  0  0  5  0  0  0  0  0  0
    0.5029    1.5849    2.2361 O   0  0  0  0  0  0  0  0  0  0  0  0
   -0.9798    2.7180    0.5227 O   0  0  0  0  0  1  0  0  0  0  0  0
   -1.9866    1.7716    2.7144 O   0  0  0  0  0  1  0  0  0  0  0  0
   -0.0285    0.3968    0.0000 O   0  0  0  0  0  0  0  0  0  0  0  0
    0.0094    0.3977    0.0000 O   0  0  0  0  0  0  0  0  0  0  0  0
   -0.0193    0.3973    0.0000 O   0  0  0  0  0  0  0  0  0  0  0  0
    0.0000    0.0000    0.0000 Na  0  0  0  0  0 15  0  0  0  0  0  0
    3.3773    1.3381   -0.9957 H   0  0  0  0  0  0  0  0  0  0  0  0
    3.7235   -0.0493   -0.3099 H   0  0  0  0  0  0  0  0  0  0  0  0
    2.1673   -1.2028   -1.7227 H   0  0  0  0  0  0  0  0  0  0  0  0
    1.7653    0.3768   -2.4153 H   0  0  0  0  0  0  0  0  0  0  0  0
    1.5978   -0.3704    0.5596 H   0  0  0  0  0  0  0  0  0  0  0  0
    1.2629    1.2333   -0.1122 H   0  0  0  0  0  0  0  0  0  0  0  0
   -0.6468    0.3978   -1.3769 H   0  0  0  0  0  0  0  0  0  0  0  0
   -0.2075   -1.2693   -0.9954 H   0  0  0  0  0  0  0  0  0  0  0  0
   -1.6367   -1.4890    1.9285 H   0  0  0  0  0  0  0  0  0  0  0  0
   -0.7473   -0.2531    0.0000 H   0  0  0  0  0  0  0  0  0  0  0  0
    0.7758   -0.1437    0.0000 H   0  0  0  0  0  0  0  0  0  0  0  0
    0.7585   -0.2170    0.0000 H   0  0  0  0  0  0  0  0  0  0  0  0
   -0.7680   -0.1807    0.0000 H   0  0  0  0  0  0  0  0  0  0  0  0
    0.7722   -0.1615    0.0000 H   0  0  0  0  0  0  0  0  0  0  0  0
   -0.7529   -0.2358    0.0000 H   0  0  0  0  0  0  0  0  0  0  0  0
  1  2  1  0
  2  3  1  0
  3  4  1  0
  4  5  1  0
  5  6  1  0
  5  7  1  0
  7  8  2  0
  7  9  1  0
  7 10  1  0
  5 11  1  0
 11 12  2  0
 11 13  1  0
 11 14  1  0
  1 19  1  0
  1 20  1  0
  2 21  1  0
  2 22  1  0
  3 23  1  0
  3 24  1  0
  4 25  1  0
  4 26  1  0
  6 27  1  0
 15 28  1  0
 15 29  1  0
 16 30  1  0
 16 31  1  0
 17 32  1  0
 17 33  1  0
M  CHG  5   9  -1  10  -1  13  -1  14  -1  18   1
M  END
$$$$
