
     RDKit          3D

 47 48  0  0  0  0  0  0  0  0999 V2000
    0.7680    0.0000    0.0000 Br  0  0  0  0  0  0  0  0  0  0  0  0
    5.2971   -0.6408   -0.0685 C   0  0  0  0  0  0  0  0  0  0  0  0
    3.9353   -0.5201   -0.6124 N   0  0  0  0  0  0  0  0  0  0  0  0
    3.9165    0.7326   -1.3445 C   0  0  0  0  0  0  0  0  0  0  0  0
    3.0234   -0.4746    0.5231 C   0  0  0  0  0  0  0  0  0  0  0  0
    1.5907   -0.3504    0.0201 C   0  0  0  0  0  0  0  0  0  0  0  0
    0.6484   -0.3031    1.1639 C   0  0  0  0  0  0  0  0  0  0  0  0
   -0.7963   -0.1785    0.8389 C   0  0  0  0  0  0  0  0  0  0  0  0
   -1.2921   -1.2919   -0.0116 C   0  0  0  0  0  0  0  0  0  0  0  0
   -1.5023   -2.5137    0.5885 C   0  0  0  0  0  0  0  0  0  0  0  0
   -1.9594   -3.6137   -0.1031 C   0  0  0  0  0  0  0  0  0  0  0  0
   -2.2109   -3.4663   -1.4490 C   0  0  0  0  0  0  0  0  0  0  0  0
   -2.6653   -4.5398   -2.1619 F   0  0  0  0  0  0  0  0  0  0  0  0
   -2.0125   -2.2696   -2.0711 C   0  0  0  0  0  0  0  0  0  0  0  0
   -1.5542   -1.1849   -1.3545 C   0  0  0  0  0  0  0  0  0  0  0  0
   -1.4843   -0.3791    2.0863 O   0  0  0  0  0  0  0  0  0  0  0  0
   -2.7894   -0.0894    1.6970 C   0  0  0  0  0  0  0  0  0  0  0  0
   -2.5951    1.2177    1.0184 C   0  0  0  0  0  0  0  0  0  0  0  0
   -3.3424    2.3550    0.8417 C   0  0  0  0  0  0  0  0  0  0  0  0
   -2.8932    3.4559    0.1506 C   0  0  0  0  0  0  0  0  0  0  0  0
   -3.7189    4.6223   -0.0045 C   0  0  0  0  0  0  0  0  0  0  0  0
   -4.3854    5.5728   -0.1114 N   0  0  0  0  0  0  0  0  0  0  0  0
   -1.6239    3.3710   -0.3745 C   0  0  0  0  0  0  0  0  0  0  0  0
   -0.8296    2.2264   -0.2155 C   0  0  0  0  0  0  0  0  0  0  0  0
   -1.3021    1.1351    0.4814 C   0  0  0  0  0  0  0  0  0  0  0  0
   -0.7680    0.0000    0.0000 H   0  0  0  0  0  0  0  0  0  0  0  0
    5.5460    0.3278    0.4147 H   0  0  0  0  0  0  0  0  0  0  0  0
    5.3797   -1.4619    0.6513 H   0  0  0  0  0  0  0  0  0  0  0  0
    5.9829   -0.7835   -0.9351 H   0  0  0  0  0  0  0  0  0  0  0  0
    3.9045    1.5779   -0.6269 H   0  0  0  0  0  0  0  0  0  0  0  0
    4.8478    0.7687   -1.9820 H   0  0  0  0  0  0  0  0  0  0  0  0
    3.0312    0.8301   -2.0070 H   0  0  0  0  0  0  0  0  0  0  0  0
    3.2945    0.4071    1.1381 H   0  0  0  0  0  0  0  0  0  0  0  0
    3.1531   -1.3884    1.1267 H   0  0  0  0  0  0  0  0  0  0  0  0
    1.4906    0.4176   -0.7368 H   0  0  0  0  0  0  0  0  0  0  0  0
    1.3877   -1.3291   -0.5183 H   0  0  0  0  0  0  0  0  0  0  0  0
    0.8994    0.4934    1.8966 H   0  0  0  0  0  0  0  0  0  0  0  0
    0.7587   -1.2593    1.7600 H   0  0  0  0  0  0  0  0  0  0  0  0
   -1.3140   -2.6710    1.6565 H   0  0  0  0  0  0  0  0  0  0  0  0
   -2.1220   -4.5676    0.3723 H   0  0  0  0  0  0  0  0  0  0  0  0
   -2.2038   -2.1194   -3.1435 H   0  0  0  0  0  0  0  0  0  0  0  0
   -1.3868   -0.2158   -1.8278 H   0  0  0  0  0  0  0  0  0  0  0  0
   -3.4565    0.0129    2.5852 H   0  0  0  0  0  0  0  0  0  0  0  0
   -3.1925   -0.8101    0.9681 H   0  0  0  0  0  0  0  0  0  0  0  0
   -4.3276    2.3741    1.2702 H   0  0  0  0  0  0  0  0  0  0  0  0
   -1.2572    4.2381   -0.9244 H   0  0  0  0  0  0  0  0  0  0  0  0
    0.1302    2.2853   -0.6654 H   0  0  0  0  0  0  0  0  0  0  0  0
  2  3  1  0
  3  4  1  0
  3  5  1  0
  5  6  1  0
  6  7  1  0
  7  8  1  0
  8  9  1  0
  9 10  2  0
 10 11  1  0
 11 12  2  0
 12 13  1  0
 12 14  1  0
 14 15  2  0
  8 16  1  0
 16 17  1  0
 17 18  1  0
 18 19  2  0
 19 20  1  0
 20 21  1  0
 21 22  3  0
 20 23  2  0
 23 24  1  0
 24 25  2  0
 25  8  1  0
 15  9  1  0
 25 18  1  0
  1 26  1  0
  2 27  1  0
  2 28  1  0
  2 29  1  0
  4 30  1  0
  4 31  1  0
  4 32  1  0
  5 33  1  0
  5 34  1  0
  6 35  1  0
  6 36  1  0
  7 37  1  0
  7 38  1  0
 10 39  1  0
 11 40  1  0
 14 41  1  0
 15 42  1  0
 17 43  1  0
 17 44  1  0
 19 45  1  0
 23 46  1  0
 24 47  1  0
M  END
$$$$
