
     RDKit          3D

 34 35  0  0  0  0  0  0  0  0999 V2000
   -1.7621    0.9686    2.6678 C   0  0  0  0  0  0  0  0  0  0  0  0
   -1.0237    0.7215    1.3512 C   0  0  0  0  0  0  0  0  0  0  0  0
   -1.4444    1.7625    0.2819 C   0  0  0  0  0  0  0  0  0  0  0  0
   -2.3739    1.2532   -0.7299 N   0  0  0  0  0  0  0  0  0  0  0  0
   -1.9107    0.0292   -1.4068 C   0  0  0  0  0  0  0  0  0  0  0  0
   -0.8913   -0.8306   -0.6261 C   0  0  0  0  0  0  0  0  0  0  0  0
   -0.9654   -2.2941   -1.0725 C   0  0  0  0  0  0  0  0  0  0  0  0
    0.5583   -0.2969   -0.7847 C   0  0  0  0  0  0  0  0  0  0  0  0
    1.2525    0.0565    0.4690 N   0  0  0  0  0  0  0  0  0  0  0  0
    2.6499    0.0726    0.6115 C   0  0  0  0  0  0  0  0  0  0  0  0
    3.1729    0.5325    1.6269 O   0  0  0  0  0  0  0  0  0  0  0  0
    3.4691   -0.5088   -0.5236 C   0  0  0  0  0  0  0  0  0  0  0  0
    4.9112   -0.3608   -0.3076 C   0  0  0  0  0  0  0  0  0  0  0  0
    6.0647   -0.2723   -0.2087 N   0  0  0  0  0  0  0  0  0  0  0  0
    0.4954    0.7283    1.5443 C   0  0  0  0  0  0  0  0  0  0  0  0
   -1.3049   -0.6667    0.8174 C   0  0  0  0  0  0  0  0  0  0  0  0
   -1.8154   -1.5636    1.4828 O   0  0  0  0  0  0  0  0  0  0  0  0
   -1.5202    1.9562    3.0755 H   0  0  0  0  0  0  0  0  0  0  0  0
   -2.8477    0.9149    2.5266 H   0  0  0  0  0  0  0  0  0  0  0  0
   -1.4960    0.2227    3.4254 H   0  0  0  0  0  0  0  0  0  0  0  0
   -1.9140    2.6289    0.7644 H   0  0  0  0  0  0  0  0  0  0  0  0
   -0.5738    2.1854   -0.2340 H   0  0  0  0  0  0  0  0  0  0  0  0
   -3.2818    1.0722   -0.2921 H   0  0  0  0  0  0  0  0  0  0  0  0
   -1.4921    0.3088   -2.3814 H   0  0  0  0  0  0  0  0  0  0  0  0
   -2.8057   -0.5641   -1.6350 H   0  0  0  0  0  0  0  0  0  0  0  0
   -1.9702   -2.7083   -0.9300 H   0  0  0  0  0  0  0  0  0  0  0  0
   -0.2744   -2.9176   -0.4935 H   0  0  0  0  0  0  0  0  0  0  0  0
   -0.7097   -2.3960   -2.1329 H   0  0  0  0  0  0  0  0  0  0  0  0
    1.1576   -1.0350   -1.3265 H   0  0  0  0  0  0  0  0  0  0  0  0
    0.5885    0.6030   -1.4112 H   0  0  0  0  0  0  0  0  0  0  0  0
    3.1990    0.0016   -1.4540 H   0  0  0  0  0  0  0  0  0  0  0  0
    3.2259   -1.5726   -0.6171 H   0  0  0  0  0  0  0  0  0  0  0  0
    0.7636    0.2124    2.4764 H   0  0  0  0  0  0  0  0  0  0  0  0
    0.8689    1.7564    1.6373 H   0  0  0  0  0  0  0  0  0  0  0  0
  1  2  1  0
  2  3  1  0
  3  4  1  0
  4  5  1  0
  5  6  1  0
  6  7  1  0
  6  8  1  0
  8  9  1  0
  9 10  1  0
 10 11  2  0
 10 12  1  0
 12 13  1  0
 13 14  3  0
  9 15  1  0
  6 16  1  0
 16 17  2  0
 15  2  1  0
 16  2  1  0
  1 18  1  0
  1 19  1  0
  1 20  1  0
  3 21  1  0
  3 22  1  0
  4 23  1  0
  5 24  1  0
  5 25  1  0
  7 26  1  0
  7 27  1  0
  7 28  1  0
  8 29  1  0
  8 30  1  0
 12 31  1  0
 12 32  1  0
 15 33  1  0
 15 34  1  0
M  END
$$$$
