
     RDKit          3D

 46 48  0  0  0  0  0  0  0  0999 V2000
    5.0792    2.9534   -1.0708 C   0  0  0  0  0  0  0  0  0  0  0  0
    3.7332    2.2886   -0.8491 C   0  0  0  0  0  0  0  0  0  0  0  0
    3.7538    1.0192   -1.5138 O   0  0  0  0  0  0  0  0  0  0  0  0
    2.6532    0.2707   -1.1632 C   0  0  0  0  0  0  0  0  0  0  0  0
    1.4298    0.5832   -1.7497 C   0  0  0  0  0  0  0  0  0  0  0  0
    0.3096   -0.1670   -1.4260 C   0  0  0  0  0  0  0  0  0  0  0  0
    0.4116   -1.2356   -0.5175 C   0  0  0  0  0  0  0  0  0  0  0  0
   -1.1166   -2.0737   -0.1195 S   0  0  0  0  0  6  0  0  0  0  0  0
   -1.4043   -2.9510   -1.2335 O   0  0  0  0  0  0  0  0  0  0  0  0
   -1.0805   -2.5626    1.2431 O   0  0  0  0  0  0  0  0  0  0  0  0
   -2.2901   -0.7987   -0.1133 N   0  0  0  0  0  0  0  0  0  0  0  0
   -2.1172    0.1647    1.0179 C   0  0  0  0  0  0  0  0  0  0  0  0
   -2.5488    1.5553    0.5669 C   0  0  0  0  0  0  0  0  0  0  0  0
   -4.0329    1.8607    0.7593 C   0  0  0  0  0  0  0  0  0  0  0  0
   -5.0159    0.7143    0.5360 C   0  0  0  0  0  0  0  0  0  0  0  0
   -4.6694   -0.2187   -0.6201 C   0  0  0  0  0  0  0  0  0  0  0  0
   -3.6818   -1.3180   -0.2274 C   0  0  0  0  0  0  0  0  0  0  0  0
    1.6642   -1.6175    0.0452 C   0  0  0  0  0  0  0  0  0  0  0  0
    1.8825   -2.7330    0.8968 C   0  0  0  0  0  0  0  0  0  0  0  0
    3.1430   -3.0444    1.4132 C   0  0  0  0  0  0  0  0  0  0  0  0
    4.2355   -2.2600    1.0868 C   0  0  0  0  0  0  0  0  0  0  0  0
    4.0650   -1.1700    0.2384 C   0  0  0  0  0  0  0  0  0  0  0  0
    2.8015   -0.8331   -0.2937 C   0  0  0  0  0  0  0  0  0  0  0  0
    5.1187    3.9282   -0.5768 H   0  0  0  0  0  0  0  0  0  0  0  0
    5.2697    3.0900   -2.1405 H   0  0  0  0  0  0  0  0  0  0  0  0
    5.8877    2.3260   -0.6807 H   0  0  0  0  0  0  0  0  0  0  0  0
    3.5637    2.1611    0.2272 H   0  0  0  0  0  0  0  0  0  0  0  0
    2.9430    2.9220   -1.2681 H   0  0  0  0  0  0  0  0  0  0  0  0
    1.3527    1.4002   -2.4615 H   0  0  0  0  0  0  0  0  0  0  0  0
   -0.6438    0.0796   -1.8897 H   0  0  0  0  0  0  0  0  0  0  0  0
   -2.6582   -0.1672    1.9109 H   0  0  0  0  0  0  0  0  0  0  0  0
   -1.0583    0.2267    1.2921 H   0  0  0  0  0  0  0  0  0  0  0  0
   -1.9822    2.3049    1.1341 H   0  0  0  0  0  0  0  0  0  0  0  0
   -2.2810    1.7092   -0.4864 H   0  0  0  0  0  0  0  0  0  0  0  0
   -4.1884    2.2427    1.7765 H   0  0  0  0  0  0  0  0  0  0  0  0
   -4.2953    2.6910    0.0910 H   0  0  0  0  0  0  0  0  0  0  0  0
   -6.0034    1.1555    0.3499 H   0  0  0  0  0  0  0  0  0  0  0  0
   -5.1208    0.1353    1.4619 H   0  0  0  0  0  0  0  0  0  0  0  0
   -4.3063    0.3485   -1.4851 H   0  0  0  0  0  0  0  0  0  0  0  0
   -5.5978   -0.7126   -0.9343 H   0  0  0  0  0  0  0  0  0  0  0  0
   -3.9843   -1.8075    0.7053 H   0  0  0  0  0  0  0  0  0  0  0  0
   -3.7197   -2.0705   -1.0227 H   0  0  0  0  0  0  0  0  0  0  0  0
    1.0736   -3.4058    1.1699 H   0  0  0  0  0  0  0  0  0  0  0  0
    3.2638   -3.9067    2.0638 H   0  0  0  0  0  0  0  0  0  0  0  0
    5.2204   -2.4989    1.4784 H   0  0  0  0  0  0  0  0  0  0  0  0
    4.9415   -0.5782   -0.0206 H   0  0  0  0  0  0  0  0  0  0  0  0
  1  2  1  0
  2  3  1  0
  3  4  1  0
  4  5  2  0
  5  6  1  0
  6  7  2  0
  7  8  1  0
  8  9  2  0
  8 10  2  0
  8 11  1  0
 11 12  1  0
 12 13  1  0
 13 14  1  0
 14 15  1  0
 15 16  1  0
 16 17  1  0
  7 18  1  0
 18 19  2  0
 19 20  1  0
 20 21  2  0
 21 22  1  0
 22 23  2  0
 23  4  1  0
 17 11  1  0
 23 18  1  0
  1 24  1  0
  1 25  1  0
  1 26  1  0
  2 27  1  0
  2 28  1  0
  5 29  1  0
  6 30  1  0
 12 31  1  0
 12 32  1  0
 13 33  1  0
 13 34  1  0
 14 35  1  0
 14 36  1  0
 15 37  1  0
 15 38  1  0
 16 39  1  0
 16 40  1  0
 17 41  1  0
 17 42  1  0
 19 43  1  0
 20 44  1  0
 21 45  1  0
 22 46  1  0
M  END
$$$$
