
     RDKit          3D

 53 56  0  0  0  0  0  0  0  0999 V2000
    2.3726   -3.1433   -0.5764 O   0  0  0  0  0  0  0  0  0  0  0  0
    2.0285   -2.2629    0.2119 C   0  0  0  0  0  0  0  0  0  0  0  0
    2.6104   -2.1843    1.6083 C   0  0  0  0  0  0  0  0  0  0  0  0
    4.1188   -1.9555    1.5615 C   0  0  0  0  0  0  0  0  0  0  0  0
    4.4761   -0.5565    1.1203 C   0  0  0  0  0  0  0  0  0  0  0  0
    4.4948    0.4971    2.0433 C   0  0  0  0  0  0  0  0  0  0  0  0
    4.7939    1.7947    1.6266 C   0  0  0  0  0  0  0  0  0  0  0  0
    5.0739    2.0511    0.2856 C   0  0  0  0  0  0  0  0  0  0  0  0
    5.0562    1.0104   -0.6404 C   0  0  0  0  0  0  0  0  0  0  0  0
    4.7583   -0.2879   -0.2260 C   0  0  0  0  0  0  0  0  0  0  0  0
    1.0978   -1.3196   -0.1155 N   0  0  0  0  0  0  0  0  0  0  0  0
    0.7675   -0.0276    0.4698 C   0  0  0  0  0  0  0  0  0  0  0  0
   -0.0121    0.2760   -0.8235 C   0  0  0  0  0  0  0  0  0  0  0  0
   -1.4889    0.2167   -0.6202 N   0  0  0  0  0  0  0  0  0  0  0  0
   -2.0065   -1.0732   -0.1216 C   0  0  0  0  0  0  0  0  0  0  0  0
   -3.3866   -0.9500    0.4956 C   0  0  0  0  0  0  0  0  0  0  0  0
   -4.4157   -1.8213    0.1268 C   0  0  0  0  0  0  0  0  0  0  0  0
   -5.6547   -1.6826    0.7342 C   0  0  0  0  0  0  0  0  0  0  0  0
   -5.9324   -0.7554    1.6750 N   0  0  0  0  0  0  0  0  0  0  0  0
   -4.9232    0.0700    2.0254 C   0  0  0  0  0  0  0  0  0  0  0  0
   -3.6520    0.0100    1.4777 C   0  0  0  0  0  0  0  0  0  0  0  0
   -2.1750    0.6103   -1.8650 C   0  0  0  0  0  0  0  0  0  0  0  0
   -2.1331    2.1042   -2.0370 C   0  0  0  0  0  0  0  0  0  0  0  0
   -3.3127    2.8343   -2.6313 C   0  0  0  0  0  0  0  0  0  0  0  0
   -2.9857    3.0018   -1.1741 C   0  0  0  0  0  0  0  0  0  0  0  0
    0.6155   -0.9820   -1.4487 C   0  0  0  0  0  0  0  0  0  0  0  0
    2.3996   -3.1460    2.0911 H   0  0  0  0  0  0  0  0  0  0  0  0
    2.1131   -1.4188    2.2116 H   0  0  0  0  0  0  0  0  0  0  0  0
    4.5420   -2.1278    2.5595 H   0  0  0  0  0  0  0  0  0  0  0  0
    4.6044   -2.6851    0.9011 H   0  0  0  0  0  0  0  0  0  0  0  0
    4.2776    0.3131    3.0929 H   0  0  0  0  0  0  0  0  0  0  0  0
    4.8111    2.6060    2.3492 H   0  0  0  0  0  0  0  0  0  0  0  0
    5.3109    3.0611   -0.0377 H   0  0  0  0  0  0  0  0  0  0  0  0
    5.2780    1.2077   -1.6863 H   0  0  0  0  0  0  0  0  0  0  0  0
    4.7448   -1.0909   -0.9610 H   0  0  0  0  0  0  0  0  0  0  0  0
    0.2027   -0.0839    1.4036 H   0  0  0  0  0  0  0  0  0  0  0  0
    1.6473    0.6056    0.6193 H   0  0  0  0  0  0  0  0  0  0  0  0
    0.3373    1.2078   -1.2828 H   0  0  0  0  0  0  0  0  0  0  0  0
   -2.0256   -1.8211   -0.9238 H   0  0  0  0  0  0  0  0  0  0  0  0
   -1.3826   -1.4878    0.6767 H   0  0  0  0  0  0  0  0  0  0  0  0
   -4.2649   -2.5936   -0.6198 H   0  0  0  0  0  0  0  0  0  0  0  0
   -6.4818   -2.3365    0.4723 H   0  0  0  0  0  0  0  0  0  0  0  0
   -5.1700    0.8070    2.7840 H   0  0  0  0  0  0  0  0  0  0  0  0
   -2.8845    0.7060    1.8006 H   0  0  0  0  0  0  0  0  0  0  0  0
   -3.2274    0.3025   -1.8447 H   0  0  0  0  0  0  0  0  0  0  0  0
   -1.7333    0.1194   -2.7410 H   0  0  0  0  0  0  0  0  0  0  0  0
   -1.1518    2.4634   -2.3240 H   0  0  0  0  0  0  0  0  0  0  0  0
   -4.2048    2.2732   -2.8862 H   0  0  0  0  0  0  0  0  0  0  0  0
   -3.1128    3.6676   -3.2949 H   0  0  0  0  0  0  0  0  0  0  0  0
   -3.6504    2.5439   -0.4501 H   0  0  0  0  0  0  0  0  0  0  0  0
   -2.5583    3.9435   -0.8505 H   0  0  0  0  0  0  0  0  0  0  0  0
   -0.0427   -1.7336   -1.8883 H   0  0  0  0  0  0  0  0  0  0  0  0
    1.4364   -0.7768   -2.1446 H   0  0  0  0  0  0  0  0  0  0  0  0
  1  2  2  0
  2  3  1  0
  3  4  1  0
  4  5  1  0
  5  6  2  0
  6  7  1  0
  7  8  2  0
  8  9  1  0
  9 10  2  0
  2 11  1  0
 11 12  1  0
 12 13  1  0
 13 14  1  0
 14 15  1  0
 15 16  1  0
 16 17  2  0
 17 18  1  0
 18 19  2  0
 19 20  1  0
 20 21  2  0
 14 22  1  0
 22 23  1  0
 23 24  1  0
 24 25  1  0
 13 26  1  0
 10  5  1  0
 26 11  1  0
 21 16  1  0
 25 23  1  0
  3 27  1  0
  3 28  1  0
  4 29  1  0
  4 30  1  0
  6 31  1  0
  7 32  1  0
  8 33  1  0
  9 34  1  0
 10 35  1  0
 12 36  1  0
 12 37  1  0
 13 38  1  0
 15 39  1  0
 15 40  1  0
 17 41  1  0
 18 42  1  0
 20 43  1  0
 21 44  1  0
 22 45  1  0
 22 46  1  0
 23 47  1  0
 24 48  1  0
 24 49  1  0
 25 50  1  0
 25 51  1  0
 26 52  1  0
 26 53  1  0
M  END
$$$$
