
     RDKit          3D

 50 53  0  0  0  0  0  0  0  0999 V2000
   -6.3595   -0.9022    2.5673 C   0  0  0  0  0  0  0  0  0  0  0  0
   -6.1679   -0.3238    1.1901 C   0  0  0  0  0  0  0  0  0  0  0  0
   -4.8585   -0.1628    0.6915 C   0  0  0  0  0  0  0  0  0  0  0  0
   -4.6048    0.3632   -0.5871 C   0  0  0  0  0  0  0  0  0  0  0  0
   -3.2256    0.4687   -1.0523 C   0  0  0  0  0  0  0  0  0  0  0  0
   -2.5821    0.2782   -2.2529 C   0  0  0  0  0  0  0  0  0  0  0  0
   -1.2133    0.5568   -2.0180 C   0  0  0  0  0  0  0  0  0  0  0  0
   -1.0608    0.8827   -0.6769 C   0  0  0  0  0  0  0  0  0  0  0  0
    0.0697    1.2811    0.0839 C   0  0  0  0  0  0  0  0  0  0  0  0
    1.3140    0.7934   -0.0108 C   0  0  0  0  0  0  0  0  0  0  0  0
    2.5955    1.4106    0.9811 S   0  0  0  0  0  0  0  0  0  0  0  0
    3.7298    0.3140    0.2145 C   0  0  0  0  0  0  0  0  0  0  0  0
    5.0124    0.4306    0.6640 N   0  0  0  0  0  0  0  0  0  0  0  0
    6.1651   -0.2672    0.2694 C   0  0  0  0  0  0  0  0  0  0  0  0
    6.1822   -1.2532   -0.7201 C   0  0  0  0  0  0  0  0  0  0  0  0
    7.3675   -1.9151   -1.0649 C   0  0  0  0  0  0  0  0  0  0  0  0
    8.5687   -1.6088   -0.4225 C   0  0  0  0  0  0  0  0  0  0  0  0
    9.9797   -2.4478   -0.9550 Cl  0  0  0  0  0  0  0  0  0  0  0  0
    8.5793   -0.6314    0.5743 C   0  0  0  0  0  0  0  0  0  0  0  0
    9.8149   -0.2834    1.3130 C   0  0  0  0  0  0  0  0  0  0  0  0
   10.7387   -1.0143    1.6065 O   0  0  0  0  0  0  0  0  0  0  0  0
    9.8269    1.0184    1.6619 O   0  0  0  0  0  0  0  0  0  0  0  0
    7.3797    0.0284    0.9110 C   0  0  0  0  0  0  0  0  0  0  0  0
    3.2256   -0.4655   -0.6758 N   0  0  0  0  0  0  0  0  0  0  0  0
    1.8706   -0.3057   -0.8627 C   0  0  0  0  0  0  0  0  0  0  0  0
    1.2120   -0.9964   -1.6220 O   0  0  0  0  0  0  0  0  0  0  0  0
   -2.3156    0.8391   -0.1079 O   0  0  0  0  0  0  0  0  0  0  0  0
   -5.7191    0.7339   -1.3458 C   0  0  0  0  0  0  0  0  0  0  0  0
   -5.5559    1.3369   -2.6492 N   0  0  0  0  0  4  0  0  0  0  0  0
   -5.1724    2.5130   -2.6865 O   0  0  0  0  0  0  0  0  0  0  0  0
   -5.8411    0.6356   -3.6293 O   0  0  0  0  0  1  0  0  0  0  0  0
   -7.0347    0.5798   -0.8818 C   0  0  0  0  0  0  0  0  0  0  0  0
   -7.2683    0.0438    0.3907 C   0  0  0  0  0  0  0  0  0  0  0  0
   -8.6828   -0.1137    0.8787 C   0  0  0  0  0  0  0  0  0  0  0  0
   -5.4011   -1.0789    3.0668 H   0  0  0  0  0  0  0  0  0  0  0  0
   -6.8835   -1.8611    2.5053 H   0  0  0  0  0  0  0  0  0  0  0  0
   -6.9320   -0.2117    3.1946 H   0  0  0  0  0  0  0  0  0  0  0  0
   -4.0151   -0.4657    1.3135 H   0  0  0  0  0  0  0  0  0  0  0  0
   -3.0261   -0.0264   -3.1909 H   0  0  0  0  0  0  0  0  0  0  0  0
   -0.4236    0.5207   -2.7566 H   0  0  0  0  0  0  0  0  0  0  0  0
   -0.1407    2.0448    0.8295 H   0  0  0  0  0  0  0  0  0  0  0  0
    5.1544    1.1365    1.3753 H   0  0  0  0  0  0  0  0  0  0  0  0
    5.2792   -1.5349   -1.2560 H   0  0  0  0  0  0  0  0  0  0  0  0
    7.3393   -2.6717   -1.8470 H   0  0  0  0  0  0  0  0  0  0  0  0
   10.6945    1.1272    2.1082 H   0  0  0  0  0  0  0  0  0  0  0  0
    7.4000    0.7823    1.6963 H   0  0  0  0  0  0  0  0  0  0  0  0
   -7.8705    0.8825   -1.5107 H   0  0  0  0  0  0  0  0  0  0  0  0
   -8.8816   -1.1572    1.1430 H   0  0  0  0  0  0  0  0  0  0  0  0
   -9.4073    0.1724    0.1087 H   0  0  0  0  0  0  0  0  0  0  0  0
   -8.8560    0.5245    1.7510 H   0  0  0  0  0  0  0  0  0  0  0  0
  1  2  1  0
  2  3  2  0
  3  4  1  0
  4  5  1  0
  5  6  2  0
  6  7  1  0
  7  8  2  0
  8  9  1  0
  9 10  2  0
 10 11  1  0
 11 12  1  0
 12 13  1  0
 13 14  1  0
 14 15  2  0
 15 16  1  0
 16 17  2  0
 17 18  1  0
 17 19  1  0
 19 20  1  0
 20 21  2  0
 20 22  1  0
 19 23  2  0
 12 24  2  0
 24 25  1  0
 25 26  2  0
  8 27  1  0
  4 28  2  0
 28 29  1  0
 29 30  2  0
 29 31  1  0
 28 32  1  0
 32 33  2  0
 33 34  1  0
 33  2  1  0
 27  5  1  0
 25 10  1  0
 23 14  1  0
  1 35  1  0
  1 36  1  0
  1 37  1  0
  3 38  1  0
  6 39  1  0
  7 40  1  0
  9 41  1  0
 13 42  1  0
 15 43  1  0
 16 44  1  0
 22 45  1  0
 23 46  1  0
 32 47  1  0
 34 48  1  0
 34 49  1  0
 34 50  1  0
M  CHG  2  29   1  31  -1
M  END
$$$$
