
     RDKit          3D

 48 50  0  0  0  0  0  0  0  0999 V2000
    0.6877    0.0000    0.0000 Cl  0  0  0  0  0  0  0  0  0  0  0  0
    4.4699   -1.7032    2.9273 C   0  0  0  0  0  0  0  0  0  0  0  0
    3.4017   -0.8885    2.3436 N   0  0  0  0  0  0  0  0  0  0  0  0
    3.1346   -0.7748    1.0183 C   0  0  0  0  0  0  0  0  0  0  0  0
    2.0716    0.0654    0.8114 C   0  0  0  0  0  0  0  0  0  0  0  0
    1.4402    0.5005   -0.4391 C   0  0  0  0  0  0  0  0  0  0  0  0
    0.0916    0.4078   -0.5849 N   0  0  0  0  0  0  0  0  0  0  0  0
   -0.5398    0.7956   -1.6967 C   0  0  0  0  0  0  0  0  0  0  0  0
   -1.9580    0.6634   -1.7566 N   0  0  0  0  0  0  0  0  0  0  0  0
   -2.7751    0.1384   -0.7199 C   0  0  2  0  0  0  0  0  0  0  0  0
   -2.6760    0.8611    0.6001 C   0  0  0  0  0  0  0  0  0  0  0  0
   -3.9386    0.5302    1.3675 C   0  0  0  0  0  0  0  0  0  0  0  0
   -3.9810   -0.9415    1.6056 C   0  0  0  0  0  0  0  0  0  0  0  0
   -3.7783   -1.7761    0.3683 C   0  0  0  0  0  0  0  0  0  0  0  0
   -2.5637   -1.3352   -0.4252 C   0  0  2  0  0  0  0  0  0  0  0  0
   -1.4188   -1.5880    0.4185 N   0  0  0  0  0  0  0  0  0  0  0  0
    0.1523    1.3150   -2.7636 C   0  0  0  0  0  0  0  0  0  0  0  0
   -0.5124    1.7054   -3.8922 F   0  0  0  0  0  0  0  0  0  0  0  0
    1.5212    1.4296   -2.6632 C   0  0  0  0  0  0  0  0  0  0  0  0
    2.1440    1.0220   -1.5042 C   0  0  0  0  0  0  0  0  0  0  0  0
    3.5704    1.2773   -1.6588 C   0  0  0  0  0  0  0  0  0  0  0  0
    4.4587    1.0353   -0.8007 O   0  0  0  0  0  0  0  0  0  0  0  0
    3.7474    1.8475   -2.9552 N   0  0  0  0  0  0  0  0  0  0  0  0
    2.5022    1.9507   -3.6563 C   0  0  0  0  0  0  0  0  0  0  0  0
    1.6882    0.4711    2.0941 C   0  0  0  0  0  0  0  0  0  0  0  0
    2.5220   -0.1342    2.9548 N   0  0  0  0  0  0  0  0  0  0  0  0
   -0.6877    0.0000    0.0000 H   0  0  0  0  0  0  0  0  0  0  0  0
    5.4457   -1.1712    2.7907 H   0  0  0  0  0  0  0  0  0  0  0  0
    4.2629   -1.7931    4.0020 H   0  0  0  0  0  0  0  0  0  0  0  0
    4.5687   -2.6661    2.4111 H   0  0  0  0  0  0  0  0  0  0  0  0
    3.6842   -1.2944    0.2294 H   0  0  0  0  0  0  0  0  0  0  0  0
   -2.4190    0.9846   -2.6457 H   0  0  0  0  0  0  0  0  0  0  0  0
   -3.8536    0.2202   -1.0218 H   0  0  0  0  0  0  0  0  0  0  0  0
   -2.6090    1.9458    0.5090 H   0  0  0  0  0  0  0  0  0  0  0  0
   -1.8297    0.4333    1.1928 H   0  0  0  0  0  0  0  0  0  0  0  0
   -3.8820    1.0549    2.3255 H   0  0  0  0  0  0  0  0  0  0  0  0
   -4.8360    0.9154    0.8395 H   0  0  0  0  0  0  0  0  0  0  0  0
   -3.3056   -1.1991    2.4293 H   0  0  0  0  0  0  0  0  0  0  0  0
   -5.0191   -1.1827    1.9775 H   0  0  0  0  0  0  0  0  0  0  0  0
   -3.5779   -2.8151    0.7085 H   0  0  0  0  0  0  0  0  0  0  0  0
   -4.6677   -1.7841   -0.2623 H   0  0  0  0  0  0  0  0  0  0  0  0
   -2.5428   -1.9389   -1.3476 H   0  0  0  0  0  0  0  0  0  0  0  0
   -1.6663   -1.8306    1.3913 H   0  0  0  0  0  0  0  0  0  0  0  0
   -0.7555   -2.2751   -0.0016 H   0  0  0  0  0  0  0  0  0  0  0  0
    4.6756    2.1381   -3.3097 H   0  0  0  0  0  0  0  0  0  0  0  0
    2.2222    2.9744   -3.9392 H   0  0  0  0  0  0  0  0  0  0  0  0
    2.4664    1.2613   -4.5246 H   0  0  0  0  0  0  0  0  0  0  0  0
    0.8641    1.1477    2.2756 H   0  0  0  0  0  0  0  0  0  0  0  0
  2  3  1  0
  3  4  1  0
  4  5  2  0
  5  6  1  0
  6  7  2  0
  7  8  1  0
  8  9  1  0
  9 10  1  0
 10 11  1  0
 11 12  1  0
 12 13  1  0
 13 14  1  0
 14 15  1  0
 15 16  1  0
  8 17  2  0
 17 18  1  0
 17 19  1  0
 19 20  2  0
 20 21  1  0
 21 22  2  0
 21 23  1  0
 23 24  1  0
  5 25  1  0
 25 26  2  0
 26  3  1  0
 20  6  1  0
 15 10  1  0
 24 19  1  0
  1 27  1  0
  2 28  1  0
  2 29  1  0
  2 30  1  0
  4 31  1  0
  9 32  1  0
 10 33  1  6
 11 34  1  0
 11 35  1  0
 12 36  1  0
 12 37  1  0
 13 38  1  0
 13 39  1  0
 14 40  1  0
 14 41  1  0
 15 42  1  6
 16 43  1  0
 16 44  1  0
 23 45  1  0
 24 46  1  0
 24 47  1  0
 25 48  1  0
M  END
$$$$
