
     RDKit          3D

 44 47  0  0  0  0  0  0  0  0999 V2000
    2.2066   -2.3489   -0.0404 N   0  0  0  0  0  0  0  0  0  0  0  0
    1.2575   -1.2397   -0.2929 C   0  0  0  0  0  0  0  0  0  0  0  0
    1.9496   -0.1626   -1.1928 C   0  0  0  0  0  0  0  0  0  0  0  0
    3.1959    0.4962   -0.6330 C   0  0  0  0  0  0  0  0  0  0  0  0
    4.4510   -0.1107   -0.7918 C   0  0  0  0  0  0  0  0  0  0  0  0
    5.6023    0.4901   -0.2786 C   0  0  0  0  0  0  0  0  0  0  0  0
    5.5064    1.7066    0.3916 C   0  0  0  0  0  0  0  0  0  0  0  0
    6.9236    2.4483    1.0254 Cl  0  0  0  0  0  0  0  0  0  0  0  0
    4.2701    2.3284    0.5492 C   0  0  0  0  0  0  0  0  0  0  0  0
    3.1187    1.7266    0.0357 C   0  0  0  0  0  0  0  0  0  0  0  0
    0.0426   -1.8430   -1.0379 C   0  0  0  0  0  0  0  0  0  0  0  0
   -1.1215   -0.8561   -1.1618 C   0  0  0  0  0  0  0  0  0  0  0  0
   -1.4867   -0.3556    0.1711 N   0  0  0  0  0  0  0  0  0  0  0  0
   -2.6440    0.4495    0.1023 C   0  0  0  0  0  0  0  0  0  0  0  0
   -2.5569    1.7964    0.2766 N   0  0  0  0  0  0  0  0  0  0  0  0
   -3.6777    2.5419    0.2021 C   0  0  0  0  0  0  0  0  0  0  0  0
   -4.9355    2.1325   -0.0265 N   0  0  0  0  0  0  0  0  0  0  0  0
   -4.9893    0.8016   -0.1710 C   0  0  0  0  0  0  0  0  0  0  0  0
   -6.1378    0.0921   -0.3937 N   0  0  0  0  0  0  0  0  0  0  0  0
   -5.8490   -1.2462   -0.4733 C   0  0  0  0  0  0  0  0  0  0  0  0
   -4.4881   -1.3899   -0.3003 C   0  0  0  0  0  0  0  0  0  0  0  0
   -3.9291   -0.0901   -0.1201 C   0  0  0  0  0  0  0  0  0  0  0  0
   -0.3888    0.3056    0.8884 C   0  0  0  0  0  0  0  0  0  0  0  0
    0.7694   -0.6791    1.0605 C   0  0  0  0  0  0  0  0  0  0  0  0
    1.7507   -3.0660    0.5251 H   0  0  0  0  0  0  0  0  0  0  0  0
    2.9767   -2.0027    0.5346 H   0  0  0  0  0  0  0  0  0  0  0  0
    1.2426    0.6323   -1.4579 H   0  0  0  0  0  0  0  0  0  0  0  0
    2.2187   -0.6188   -2.1568 H   0  0  0  0  0  0  0  0  0  0  0  0
    4.5358   -1.0597   -1.3194 H   0  0  0  0  0  0  0  0  0  0  0  0
    6.5663    0.0057   -0.4082 H   0  0  0  0  0  0  0  0  0  0  0  0
    4.1956    3.2814    1.0660 H   0  0  0  0  0  0  0  0  0  0  0  0
    2.1631    2.2312    0.1579 H   0  0  0  0  0  0  0  0  0  0  0  0
   -0.3209   -2.7282   -0.4963 H   0  0  0  0  0  0  0  0  0  0  0  0
    0.3339   -2.1890   -2.0378 H   0  0  0  0  0  0  0  0  0  0  0  0
   -0.8581   -0.0270   -1.8303 H   0  0  0  0  0  0  0  0  0  0  0  0
   -1.9571   -1.3893   -1.6302 H   0  0  0  0  0  0  0  0  0  0  0  0
   -3.5443    3.6101    0.3442 H   0  0  0  0  0  0  0  0  0  0  0  0
   -7.0514    0.5148   -0.4704 H   0  0  0  0  0  0  0  0  0  0  0  0
   -6.6317   -1.9751   -0.6364 H   0  0  0  0  0  0  0  0  0  0  0  0
   -3.9443   -2.3256   -0.2952 H   0  0  0  0  0  0  0  0  0  0  0  0
   -0.0490    1.2041    0.3602 H   0  0  0  0  0  0  0  0  0  0  0  0
   -0.7223    0.6127    1.8883 H   0  0  0  0  0  0  0  0  0  0  0  0
    1.5852   -0.1982    1.6121 H   0  0  0  0  0  0  0  0  0  0  0  0
    0.4213   -1.5067    1.6953 H   0  0  0  0  0  0  0  0  0  0  0  0
  1  2  1  0
  2  3  1  0
  3  4  1  0
  4  5  2  0
  5  6  1  0
  6  7  2  0
  7  8  1  0
  7  9  1  0
  9 10  2  0
  2 11  1  0
 11 12  1  0
 12 13  1  0
 13 14  1  0
 14 15  2  0
 15 16  1  0
 16 17  2  0
 17 18  1  0
 18 19  1  0
 19 20  1  0
 20 21  2  0
 21 22  1  0
 13 23  1  0
 23 24  1  0
 24  2  1  0
 10  4  1  0
 22 14  1  0
 22 18  2  0
  1 25  1  0
  1 26  1  0
  3 27  1  0
  3 28  1  0
  5 29  1  0
  6 30  1  0
  9 31  1  0
 10 32  1  0
 11 33  1  0
 11 34  1  0
 12 35  1  0
 12 36  1  0
 16 37  1  0
 19 38  1  0
 20 39  1  0
 21 40  1  0
 23 41  1  0
 23 42  1  0
 24 43  1  0
 24 44  1  0
M  END
$$$$
