
     RDKit          3D

 46 47  0  0  0  0  0  0  0  0999 V2000
   -4.3642   -1.1710    1.9293 C   0  0  0  0  0  0  0  0  0  0  0  0
   -4.3760    0.3361    1.6920 C   0  0  0  0  0  0  0  0  0  0  0  0
   -3.9545    0.8036    0.3731 N   0  0  0  0  0  0  0  0  0  0  0  0
   -4.8909    0.4882   -0.7039 C   0  0  0  0  0  0  0  0  0  0  0  0
   -4.1088    0.8112   -1.9705 C   0  0  0  0  0  0  0  0  0  0  0  0
   -2.6460    0.8595   -1.5421 C   0  0  0  0  0  0  0  0  0  0  0  0
   -2.6381    0.3531   -0.0976 C   0  0  1  0  0  0  0  0  0  0  0  0
   -1.4383    0.8956    0.6958 C   0  0  0  0  0  0  0  0  0  0  0  0
   -0.1764    0.3721    0.2001 N   0  0  0  0  0  0  0  0  0  0  0  0
    1.0205    0.9851    0.4867 C   0  0  0  0  0  0  0  0  0  0  0  0
    1.1019    2.0758    1.0425 O   0  0  0  0  0  0  0  0  0  0  0  0
    2.2717    0.2697    0.0822 C   0  0  0  0  0  0  0  0  0  0  0  0
    3.4164    1.0728   -0.0664 C   0  0  0  0  0  0  0  0  0  0  0  0
    4.6376    0.4932   -0.4102 C   0  0  0  0  0  0  0  0  0  0  0  0
    6.0644    1.5287   -0.5914 S   0  0  0  0  0  6  0  0  0  0  0  0
    6.3097    2.0765    0.9796 N   0  0  0  0  0  0  0  0  0  0  0  0
    7.2024    0.6862   -0.8821 O   0  0  0  0  0  0  0  0  0  0  0  0
    5.6960    2.6519   -1.4172 O   0  0  0  0  0  0  0  0  0  0  0  0
    4.7334   -0.8798   -0.6259 C   0  0  0  0  0  0  0  0  0  0  0  0
    3.5974   -1.6830   -0.4852 C   0  0  0  0  0  0  0  0  0  0  0  0
    2.3609   -1.1250   -0.1246 C   0  0  0  0  0  0  0  0  0  0  0  0
    1.2184   -1.8670    0.0423 O   0  0  0  0  0  0  0  0  0  0  0  0
    1.3296   -3.2858   -0.0187 C   0  0  0  0  0  0  0  0  0  0  0  0
   -3.3538   -1.5846    1.8569 H   0  0  0  0  0  0  0  0  0  0  0  0
   -4.7313   -1.3858    2.9383 H   0  0  0  0  0  0  0  0  0  0  0  0
   -5.0106   -1.7028    1.2252 H   0  0  0  0  0  0  0  0  0  0  0  0
   -3.7413    0.8098    2.4516 H   0  0  0  0  0  0  0  0  0  0  0  0
   -5.3867    0.7155    1.8924 H   0  0  0  0  0  0  0  0  0  0  0  0
   -5.8059    1.0849   -0.6386 H   0  0  0  0  0  0  0  0  0  0  0  0
   -5.1719   -0.5715   -0.7144 H   0  0  0  0  0  0  0  0  0  0  0  0
   -4.4112    1.7789   -2.3870 H   0  0  0  0  0  0  0  0  0  0  0  0
   -4.2719    0.0476   -2.7378 H   0  0  0  0  0  0  0  0  0  0  0  0
   -2.0190    0.2417   -2.1927 H   0  0  0  0  0  0  0  0  0  0  0  0
   -2.2816    1.8919   -1.6093 H   0  0  0  0  0  0  0  0  0  0  0  0
   -2.5920   -0.7441   -0.1251 H   0  0  0  0  0  0  0  0  0  0  0  0
   -1.5017    0.5946    1.7471 H   0  0  0  0  0  0  0  0  0  0  0  0
   -1.4111    1.9911    0.6692 H   0  0  0  0  0  0  0  0  0  0  0  0
   -0.1304   -0.6101   -0.0512 H   0  0  0  0  0  0  0  0  0  0  0  0
    3.3469    2.1520    0.0752 H   0  0  0  0  0  0  0  0  0  0  0  0
    5.5328    1.8974    1.6138 H   0  0  0  0  0  0  0  0  0  0  0  0
    7.1941    1.7087    1.3320 H   0  0  0  0  0  0  0  0  0  0  0  0
    5.6806   -1.3348   -0.9104 H   0  0  0  0  0  0  0  0  0  0  0  0
    3.7146   -2.7471   -0.6696 H   0  0  0  0  0  0  0  0  0  0  0  0
    1.6089   -3.6143   -1.0249 H   0  0  0  0  0  0  0  0  0  0  0  0
    0.3446   -3.7056    0.2055 H   0  0  0  0  0  0  0  0  0  0  0  0
    2.0307   -3.6613    0.7340 H   0  0  0  0  0  0  0  0  0  0  0  0
  1  2  1  0
  2  3  1  0
  3  4  1  0
  4  5  1  0
  5  6  1  0
  6  7  1  0
  7  8  1  0
  8  9  1  0
  9 10  1  0
 10 11  2  0
 10 12  1  0
 12 13  2  0
 13 14  1  0
 14 15  1  0
 15 16  1  0
 15 17  2  0
 15 18  2  0
 14 19  2  0
 19 20  1  0
 20 21  2  0
 21 22  1  0
 22 23  1  0
  7  3  1  0
 21 12  1  0
  1 24  1  0
  1 25  1  0
  1 26  1  0
  2 27  1  0
  2 28  1  0
  4 29  1  0
  4 30  1  0
  5 31  1  0
  5 32  1  0
  6 33  1  0
  6 34  1  0
  7 35  1  6
  8 36  1  0
  8 37  1  0
  9 38  1  0
 13 39  1  0
 16 40  1  0
 16 41  1  0
 19 42  1  0
 20 43  1  0
 23 44  1  0
 23 45  1  0
 23 46  1  0
M  END
$$$$
