
     RDKit          3D

 76 78  0  0  0  0  0  0  0  0999 V2000
   -8.9327    0.9305    0.2311 C   0  0  0  0  0  0  0  0  0  0  0  0
   -8.3557   -0.1062   -0.5695 N   0  0  0  0  0  0  0  0  0  0  0  0
   -7.5624   -1.0579    0.1679 C   0  0  0  0  0  0  0  0  0  0  0  0
   -6.2308   -0.4509    0.5867 C   0  0  0  0  0  0  0  0  0  0  0  0
   -5.5525   -0.0125   -0.5921 N   0  0  0  0  0  0  0  0  0  0  0  0
   -4.1685    0.2752   -0.3886 C   0  0  1  0  0  0  0  0  0  0  0  0
   -3.3873   -0.9343    0.0122 C   0  0  0  0  0  0  0  0  0  0  0  0
   -2.2361   -1.2792   -0.8900 C   0  0  0  0  0  0  0  0  0  0  0  0
   -1.3715   -0.1093   -1.2570 C   0  0  2  0  0  0  0  0  0  0  0  0
   -0.1111   -0.1255   -0.5231 N   0  0  0  0  0  0  0  0  0  0  0  0
    1.0998   -0.4536   -1.0065 C   0  0  0  0  0  0  0  0  0  0  0  0
    2.0629   -0.3547   -0.0190 C   0  0  0  0  0  0  0  0  0  0  0  0
    3.4928   -0.5976   -0.1381 C   0  0  0  0  0  0  0  0  0  0  0  0
    3.9512   -1.8220   -0.6334 C   0  0  0  0  0  0  0  0  0  0  0  0
    5.2843   -2.0980   -0.7849 C   0  0  0  0  0  0  0  0  0  0  0  0
    6.2337   -1.1467   -0.4425 C   0  0  0  0  0  0  0  0  0  0  0  0
    7.5864   -1.4097   -0.5893 O   0  0  0  0  0  0  0  0  0  0  0  0
    8.4981   -0.4344   -0.2243 C   0  0  0  0  0  0  0  0  0  0  0  0
    8.9393    0.5150   -1.0962 C   0  0  0  0  0  0  0  0  0  0  0  0
    9.8561    1.4868   -0.7106 C   0  0  0  0  0  0  0  0  0  0  0  0
   10.3269    1.4876    0.5811 C   0  0  0  0  0  0  0  0  0  0  0  0
    9.8753    0.5198    1.4651 C   0  0  0  0  0  0  0  0  0  0  0  0
    8.9679   -0.4410    1.0812 C   0  0  0  0  0  0  0  0  0  0  0  0
    5.8007    0.0640    0.0462 C   0  0  0  0  0  0  0  0  0  0  0  0
    4.4494    0.3348    0.1960 C   0  0  0  0  0  0  0  0  0  0  0  0
    1.4025    0.0504    1.1106 C   0  0  0  0  0  0  0  0  0  0  0  0
    1.7708    0.3221    2.4129 C   0  0  0  0  0  0  0  0  0  0  0  0
    3.1179    0.1894    2.8361 N   0  0  0  0  0  0  0  0  0  0  0  0
    0.8475    0.7117    3.3355 N   0  0  0  0  0  0  0  0  0  0  0  0
   -0.4378    0.8302    2.9650 C   0  0  0  0  0  0  0  0  0  0  0  0
   -0.8204    0.5702    1.7032 N   0  0  0  0  0  0  0  0  0  0  0  0
    0.0616    0.1839    0.7679 C   0  0  0  0  0  0  0  0  0  0  0  0
   -2.0458    1.2153   -1.0915 C   0  0  0  0  0  0  0  0  0  0  0  0
   -3.5131    1.0337   -1.5184 C   0  0  0  0  0  0  0  0  0  0  0  0
   -6.3045    1.0001   -1.2763 C   0  0  0  0  0  0  0  0  0  0  0  0
   -7.6326    0.3673   -1.7073 C   0  0  0  0  0  0  0  0  0  0  0  0
    0.6918    0.0000    0.0000 Cl  0  0  0  0  0  0  0  0  0  0  0  0
    0.6857    0.0000    0.0000 Cl  0  0  0  0  0  0  0  0  0  0  0  0
    0.6895    0.0000    0.0000 Cl  0  0  0  0  0  0  0  0  0  0  0  0
   -9.8374    0.5466    0.7643 H   0  0  0  0  0  0  0  0  0  0  0  0
   -8.2137    1.3210    0.9556 H   0  0  0  0  0  0  0  0  0  0  0  0
   -9.2299    1.7607   -0.4721 H   0  0  0  0  0  0  0  0  0  0  0  0
   -8.1159   -1.4480    1.0469 H   0  0  0  0  0  0  0  0  0  0  0  0
   -7.3374   -1.9115   -0.4867 H   0  0  0  0  0  0  0  0  0  0  0  0
   -5.6620   -1.2618    1.0621 H   0  0  0  0  0  0  0  0  0  0  0  0
   -6.4399    0.3787    1.2962 H   0  0  0  0  0  0  0  0  0  0  0  0
   -4.1250    0.9958    0.4915 H   0  0  0  0  0  0  0  0  0  0  0  0
   -4.0876   -1.8209   -0.0686 H   0  0  0  0  0  0  0  0  0  0  0  0
   -3.1165   -0.9040    1.0853 H   0  0  0  0  0  0  0  0  0  0  0  0
   -2.5943   -1.8383   -1.7792 H   0  0  0  0  0  0  0  0  0  0  0  0
   -1.5884   -1.9934   -0.3208 H   0  0  0  0  0  0  0  0  0  0  0  0
   -1.1167   -0.2164   -2.3319 H   0  0  0  0  0  0  0  0  0  0  0  0
    1.2752   -0.7530   -2.0369 H   0  0  0  0  0  0  0  0  0  0  0  0
    3.1986   -2.5557   -0.8972 H   0  0  0  0  0  0  0  0  0  0  0  0
    5.6353   -3.0529   -1.1704 H   0  0  0  0  0  0  0  0  0  0  0  0
    8.5962    0.5525   -2.1200 H   0  0  0  0  0  0  0  0  0  0  0  0
   10.2049    2.2363   -1.3981 H   0  0  0  0  0  0  0  0  0  0  0  0
   11.0507    2.2247    0.9509 H   0  0  0  0  0  0  0  0  0  0  0  0
   10.2379    0.5122    2.4773 H   0  0  0  0  0  0  0  0  0  0  0  0
    8.6271   -1.1804    1.7688 H   0  0  0  0  0  0  0  0  0  0  0  0
    6.5282    0.8066    0.3141 H   0  0  0  0  0  0  0  0  0  0  0  0
    4.1429    1.3203    0.5771 H   0  0  0  0  0  0  0  0  0  0  0  0
    3.6408    1.0271    3.1805 H   0  0  0  0  0  0  0  0  0  0  0  0
    3.5873   -0.7405    2.8047 H   0  0  0  0  0  0  0  0  0  0  0  0
   -1.2161    1.1421    3.6758 H   0  0  0  0  0  0  0  0  0  0  0  0
   -1.6198    1.9760   -1.7788 H   0  0  0  0  0  0  0  0  0  0  0  0
   -2.0432    1.6113   -0.0767 H   0  0  0  0  0  0  0  0  0  0  0  0
   -3.5263    0.4709   -2.4507 H   0  0  0  0  0  0  0  0  0  0  0  0
   -3.9954    2.0336   -1.6173 H   0  0  0  0  0  0  0  0  0  0  0  0
   -5.7650    1.3051   -2.2011 H   0  0  0  0  0  0  0  0  0  0  0  0
   -6.4702    1.9010   -0.6675 H   0  0  0  0  0  0  0  0  0  0  0  0
   -8.2397    1.0651   -2.3002 H   0  0  0  0  0  0  0  0  0  0  0  0
   -7.3472   -0.5326   -2.3164 H   0  0  0  0  0  0  0  0  0  0  0  0
   -0.6918    0.0000    0.0000 H   0  0  0  0  0  0  0  0  0  0  0  0
   -0.6857    0.0000    0.0000 H   0  0  0  0  0  0  0  0  0  0  0  0
   -0.6895    0.0000    0.0000 H   0  0  0  0  0  0  0  0  0  0  0  0
  1  2  1  0
  2  3  1  0
  3  4  1  0
  4  5  1  0
  5  6  1  0
  6  7  1  0
  7  8  1  0
  8  9  1  0
  9 10  1  0
 10 11  1  0
 11 12  2  0
 12 13  1  0
 13 14  2  0
 14 15  1  0
 15 16  2  0
 16 17  1  0
 17 18  1  0
 18 19  2  0
 19 20  1  0
 20 21  2  0
 21 22  1  0
 22 23  2  0
 16 24  1  0
 24 25  2  0
 12 26  1  0
 26 27  2  0
 27 28  1  0
 27 29  1  0
 29 30  2  0
 30 31  1  0
 31 32  2  0
  9 33  1  0
 33 34  1  0
  5 35  1  0
 35 36  1  0
 36  2  1  0
 34  6  1  0
 32 10  1  0
 25 13  1  0
 32 26  1  0
 23 18  1  0
  1 40  1  0
  1 41  1  0
  1 42  1  0
  3 43  1  0
  3 44  1  0
  4 45  1  0
  4 46  1  0
  6 47  1  1
  7 48  1  0
  7 49  1  0
  8 50  1  0
  8 51  1  0
  9 52  1  6
 11 53  1  0
 14 54  1  0
 15 55  1  0
 19 56  1  0
 20 57  1  0
 21 58  1  0
 22 59  1  0
 23 60  1  0
 24 61  1  0
 25 62  1  0
 28 63  1  0
 28 64  1  0
 30 65  1  0
 33 66  1  0
 33 67  1  0
 34 68  1  0
 34 69  1  0
 35 70  1  0
 35 71  1  0
 36 72  1  0
 36 73  1  0
 37 74  1  0
 38 75  1  0
 39 76  1  0
M  END
$$$$
