
     RDKit          3D

 56 58  0  0  0  0  0  0  0  0999 V2000
    3.4173    2.7310    1.4627 C   0  0  0  0  0  0  0  0  0  0  0  0
    4.5352    1.8689    1.6224 O   0  0  0  0  0  0  0  0  0  0  0  0
    4.6485    0.7993    0.7732 C   0  0  0  0  0  0  0  0  0  0  0  0
    3.7344    0.4765   -0.2300 C   0  0  0  0  0  0  0  0  0  0  0  0
    3.9530   -0.6521   -1.0334 C   0  0  0  0  0  0  0  0  0  0  0  0
    2.9930   -1.0289   -2.1041 C   0  0  0  0  0  0  0  0  0  0  0  0
    3.4447   -1.3915   -3.1806 O   0  0  0  0  0  0  0  0  0  0  0  0
    1.6500   -0.9299   -1.7388 N   0  0  0  0  0  0  0  0  0  0  0  0
    0.4784   -1.3103   -2.4254 C   0  0  0  0  0  0  0  0  0  0  0  0
    0.4393   -1.9929   -3.9486 S   0  0  0  0  0  0  0  0  0  0  0  0
   -0.6261   -0.9698   -1.6355 N   0  0  0  0  0  0  0  0  0  0  0  0
   -1.9733   -1.4003   -1.6886 C   0  0  0  0  0  0  0  0  0  0  0  0
   -2.3948   -2.5979   -2.2626 C   0  0  0  0  0  0  0  0  0  0  0  0
   -3.7454   -2.9516   -2.2423 C   0  0  0  0  0  0  0  0  0  0  0  0
   -4.6816   -2.1187   -1.6298 C   0  0  0  0  0  0  0  0  0  0  0  0
   -4.2760   -0.9284   -1.0200 C   0  0  0  0  0  0  0  0  0  0  0  0
   -5.2745   -0.1475   -0.3987 N   0  0  0  0  0  0  0  0  0  0  0  0
   -5.1155    1.0740    0.2321 C   0  0  0  0  0  0  0  0  0  0  0  0
   -4.0816    1.7257    0.3222 O   0  0  0  0  0  0  0  0  0  0  0  0
   -6.3612    1.6390    0.8235 C   0  0  0  0  0  0  0  0  0  0  0  0
   -7.3192    0.8241    1.4419 C   0  0  0  0  0  0  0  0  0  0  0  0
   -8.4727    1.3950    1.9846 C   0  0  0  0  0  0  0  0  0  0  0  0
   -8.6675    2.7750    1.9196 C   0  0  0  0  0  0  0  0  0  0  0  0
   -7.7070    3.5907    1.3217 C   0  0  0  0  0  0  0  0  0  0  0  0
   -6.5522    3.0255    0.7789 C   0  0  0  0  0  0  0  0  0  0  0  0
   -2.9213   -0.5848   -1.0481 C   0  0  0  0  0  0  0  0  0  0  0  0
    5.0946   -1.4473   -0.8638 C   0  0  0  0  0  0  0  0  0  0  0  0
    6.0152   -1.1415    0.1371 C   0  0  0  0  0  0  0  0  0  0  0  0
    7.1497   -1.8617    0.4051 O   0  0  0  0  0  0  0  0  0  0  0  0
    7.3986   -3.0148   -0.3883 C   0  0  0  0  0  0  0  0  0  0  0  0
    5.7865   -0.0120    0.9443 C   0  0  0  0  0  0  0  0  0  0  0  0
    6.6603    0.2728    1.9714 O   0  0  0  0  0  0  0  0  0  0  0  0
    7.7104    1.1141    1.4963 C   0  0  0  0  0  0  0  0  0  0  0  0
    3.4257    3.2085    0.4773 H   0  0  0  0  0  0  0  0  0  0  0  0
    2.4782    2.1949    1.6343 H   0  0  0  0  0  0  0  0  0  0  0  0
    3.4926    3.5207    2.2163 H   0  0  0  0  0  0  0  0  0  0  0  0
    2.8688    1.1014   -0.4180 H   0  0  0  0  0  0  0  0  0  0  0  0
    1.4891   -0.7602   -0.7574 H   0  0  0  0  0  0  0  0  0  0  0  0
   -0.4913   -0.1366   -1.0755 H   0  0  0  0  0  0  0  0  0  0  0  0
   -1.6968   -3.2972   -2.7096 H   0  0  0  0  0  0  0  0  0  0  0  0
   -4.0637   -3.8851   -2.7005 H   0  0  0  0  0  0  0  0  0  0  0  0
   -5.7252   -2.4216   -1.6307 H   0  0  0  0  0  0  0  0  0  0  0  0
   -6.2190   -0.5011   -0.4817 H   0  0  0  0  0  0  0  0  0  0  0  0
   -7.1697   -0.2479    1.5366 H   0  0  0  0  0  0  0  0  0  0  0  0
   -9.2160    0.7663    2.4695 H   0  0  0  0  0  0  0  0  0  0  0  0
   -9.5646    3.2179    2.3462 H   0  0  0  0  0  0  0  0  0  0  0  0
   -7.8545    4.6673    1.2822 H   0  0  0  0  0  0  0  0  0  0  0  0
   -5.8022    3.6662    0.3192 H   0  0  0  0  0  0  0  0  0  0  0  0
   -2.5854    0.3340   -0.5804 H   0  0  0  0  0  0  0  0  0  0  0  0
    5.2304   -2.2994   -1.5239 H   0  0  0  0  0  0  0  0  0  0  0  0
    7.5344   -2.7474   -1.4415 H   0  0  0  0  0  0  0  0  0  0  0  0
    8.3313   -3.4669   -0.0373 H   0  0  0  0  0  0  0  0  0  0  0  0
    6.6027   -3.7570   -0.2667 H   0  0  0  0  0  0  0  0  0  0  0  0
    8.3127    0.6096    0.7330 H   0  0  0  0  0  0  0  0  0  0  0  0
    8.3635    1.3438    2.3436 H   0  0  0  0  0  0  0  0  0  0  0  0
    7.3197    2.0599    1.1052 H   0  0  0  0  0  0  0  0  0  0  0  0
  1  2  1  0
  2  3  1  0
  3  4  2  0
  4  5  1  0
  5  6  1  0
  6  7  2  0
  6  8  1  0
  8  9  1  0
  9 10  2  0
  9 11  1  0
 11 12  1  0
 12 13  2  0
 13 14  1  0
 14 15  2  0
 15 16  1  0
 16 17  1  0
 17 18  1  0
 18 19  2  0
 18 20  1  0
 20 21  2  0
 21 22  1  0
 22 23  2  0
 23 24  1  0
 24 25  2  0
 16 26  2  0
  5 27  2  0
 27 28  1  0
 28 29  1  0
 29 30  1  0
 28 31  2  0
 31 32  1  0
 32 33  1  0
 31  3  1  0
 26 12  1  0
 25 20  1  0
  1 34  1  0
  1 35  1  0
  1 36  1  0
  4 37  1  0
  8 38  1  0
 11 39  1  0
 13 40  1  0
 14 41  1  0
 15 42  1  0
 17 43  1  0
 21 44  1  0
 22 45  1  0
 23 46  1  0
 24 47  1  0
 25 48  1  0
 26 49  1  0
 27 50  1  0
 30 51  1  0
 30 52  1  0
 30 53  1  0
 33 54  1  0
 33 55  1  0
 33 56  1  0
M  END
$$$$
