
     RDKit          3D

 33 34  0  0  0  0  0  0  0  0999 V2000
   -5.8073   -1.1128   -1.1609 C   0  0  0  0  0  0  0  0  0  0  0  0
   -4.5988   -1.0682   -0.2554 C   0  0  0  0  0  0  0  0  0  0  0  0
   -4.5833   -1.7194    0.7830 O   0  0  0  0  0  0  0  0  0  0  0  0
   -3.5896   -0.2602   -0.7457 N   0  0  0  0  0  0  0  0  0  0  0  0
   -2.3246   -0.0222   -0.1699 C   0  0  0  0  0  0  0  0  0  0  0  0
   -1.4453    0.8027   -0.8792 C   0  0  0  0  0  0  0  0  0  0  0  0
   -0.1647    1.0726   -0.3835 C   0  0  0  0  0  0  0  0  0  0  0  0
    0.2611    0.5254    0.8320 C   0  0  0  0  0  0  0  0  0  0  0  0
    1.5725    0.8314    1.2448 N   0  0  0  0  0  0  0  0  0  0  0  0
    2.2670    0.3057    2.3202 C   0  0  0  0  0  0  0  0  0  0  0  0
    1.8325   -0.4993    3.1411 O   0  0  0  0  0  0  0  0  0  0  0  0
    3.7104    0.7928    2.3982 C   0  0  0  0  0  0  0  0  0  0  0  0
    4.7866   -0.2753    1.3868 S   0  0  0  0  0  0  0  0  0  0  0  0
    4.2562    0.1702   -0.1831 C   0  0  0  0  0  0  0  0  0  0  0  0
    3.7889    1.3334   -0.5765 N   0  0  0  0  0  0  0  0  0  0  0  0
    3.3576    1.1798   -1.8752 N   0  0  0  0  0  0  0  0  0  0  0  0
    3.5778   -0.0705   -2.2235 C   0  0  0  0  0  0  0  0  0  0  0  0
    4.1698   -0.7350   -1.1937 N   0  0  0  0  0  0  0  0  0  0  0  0
   -0.6194   -0.2840    1.5445 C   0  0  0  0  0  0  0  0  0  0  0  0
   -1.9025   -0.5579    1.0467 C   0  0  0  0  0  0  0  0  0  0  0  0
   -5.7348   -0.3982   -1.9844 H   0  0  0  0  0  0  0  0  0  0  0  0
   -5.9022   -2.1195   -1.5787 H   0  0  0  0  0  0  0  0  0  0  0  0
   -6.6989   -0.8722   -0.5752 H   0  0  0  0  0  0  0  0  0  0  0  0
   -3.7583    0.1975   -1.6332 H   0  0  0  0  0  0  0  0  0  0  0  0
   -1.7369    1.2465   -1.8277 H   0  0  0  0  0  0  0  0  0  0  0  0
    0.4980    1.7080   -0.9680 H   0  0  0  0  0  0  0  0  0  0  0  0
    2.1110    1.4096    0.5947 H   0  0  0  0  0  0  0  0  0  0  0  0
    3.7862    1.8421    2.0909 H   0  0  0  0  0  0  0  0  0  0  0  0
    4.0373    0.7396    3.4418 H   0  0  0  0  0  0  0  0  0  0  0  0
    3.3361   -0.5289   -3.1716 H   0  0  0  0  0  0  0  0  0  0  0  0
    4.4110   -1.7140   -1.1427 H   0  0  0  0  0  0  0  0  0  0  0  0
   -0.3464   -0.7244    2.4990 H   0  0  0  0  0  0  0  0  0  0  0  0
   -2.5468   -1.1956    1.6473 H   0  0  0  0  0  0  0  0  0  0  0  0
  1  2  1  0
  2  3  2  0
  2  4  1  0
  4  5  1  0
  5  6  2  0
  6  7  1  0
  7  8  2  0
  8  9  1  0
  9 10  1  0
 10 11  2  0
 10 12  1  0
 12 13  1  0
 13 14  1  0
 14 15  2  0
 15 16  1  0
 16 17  2  0
 17 18  1  0
  8 19  1  0
 19 20  2  0
 20  5  1  0
 18 14  1  0
  1 21  1  0
  1 22  1  0
  1 23  1  0
  4 24  1  0
  6 25  1  0
  7 26  1  0
  9 27  1  0
 12 28  1  0
 12 29  1  0
 17 30  1  0
 18 31  1  0
 19 32  1  0
 20 33  1  0
M  END
$$$$
