
     RDKit          3D

 43 45  0  0  0  0  0  0  0  0999 V2000
    4.9415   -2.7529    1.9713 C   0  0  0  0  0  0  0  0  0  0  0  0
    3.8639   -2.1189    1.1072 C   0  0  0  0  0  0  0  0  0  0  0  0
    3.9012   -0.5928    1.1975 C   0  0  0  0  0  0  0  0  0  0  0  0
    2.8656    0.0276    0.3711 N   0  0  0  0  0  0  0  0  0  0  0  0
    1.6038    0.2454    0.9535 C   0  0  0  0  0  0  0  0  0  0  0  0
    1.3476   -0.1125    2.1034 O   0  0  0  0  0  0  0  0  0  0  0  0
    0.5394    0.8934    0.1120 C   0  0  0  0  0  0  0  0  0  0  0  0
   -0.7498    1.2862    0.7437 C   0  0  0  0  0  0  0  0  0  0  0  0
   -0.7500    2.0266    1.7209 O   0  0  0  0  0  0  0  0  0  0  0  0
   -1.8557    0.7439    0.1241 N   0  0  0  0  0  0  0  0  0  0  0  0
   -3.2163    0.8817    0.4796 C   0  0  0  0  0  0  0  0  0  0  0  0
   -3.6525    1.5766    1.6101 C   0  0  0  0  0  0  0  0  0  0  0  0
   -5.0161    1.6620    1.8872 C   0  0  0  0  0  0  0  0  0  0  0  0
   -5.5578    2.5193    3.2788 Cl  0  0  0  0  0  0  0  0  0  0  0  0
   -5.9512    1.0590    1.0492 C   0  0  0  0  0  0  0  0  0  0  0  0
   -5.5254    0.3585   -0.0813 C   0  0  0  0  0  0  0  0  0  0  0  0
   -4.1612    0.2645   -0.3722 C   0  0  0  0  0  0  0  0  0  0  0  0
   -3.6327   -0.4014   -1.4548 O   0  0  0  0  0  0  0  0  0  0  0  0
   -4.5513   -1.0330   -2.3384 C   0  0  0  0  0  0  0  0  0  0  0  0
    0.7599    1.1743   -1.1848 C   0  0  0  0  0  0  0  0  0  0  0  0
   -0.1690    1.7654   -2.0137 O   0  0  0  0  0  0  0  0  0  0  0  0
    2.0320    0.8613   -1.7250 C   0  0  0  0  0  0  0  0  0  0  0  0
    2.4815    1.1210   -3.3533 S   0  0  0  0  0  0  0  0  0  0  0  0
    4.0530    0.5055   -3.0811 C   0  0  0  0  0  0  0  0  0  0  0  0
    4.2322    0.1084   -1.7734 C   0  0  0  0  0  0  0  0  0  0  0  0
    3.0614    0.3148   -0.9873 C   0  0  0  0  0  0  0  0  0  0  0  0
    5.9382   -2.4290    1.6552 H   0  0  0  0  0  0  0  0  0  0  0  0
    4.8095   -2.4830    3.0239 H   0  0  0  0  0  0  0  0  0  0  0  0
    4.8977   -3.8436    1.8923 H   0  0  0  0  0  0  0  0  0  0  0  0
    4.0010   -2.4388    0.0677 H   0  0  0  0  0  0  0  0  0  0  0  0
    2.8818   -2.4898    1.4231 H   0  0  0  0  0  0  0  0  0  0  0  0
    3.7583   -0.2837    2.2402 H   0  0  0  0  0  0  0  0  0  0  0  0
    4.8817   -0.2057    0.8978 H   0  0  0  0  0  0  0  0  0  0  0  0
   -1.7101    0.2180   -0.7327 H   0  0  0  0  0  0  0  0  0  0  0  0
   -2.9525    2.0535    2.2879 H   0  0  0  0  0  0  0  0  0  0  0  0
   -7.0128    1.1296    1.2722 H   0  0  0  0  0  0  0  0  0  0  0  0
   -6.2820   -0.0997   -0.7090 H   0  0  0  0  0  0  0  0  0  0  0  0
   -3.9727   -1.5089   -3.1360 H   0  0  0  0  0  0  0  0  0  0  0  0
   -5.2188   -0.3004   -2.8037 H   0  0  0  0  0  0  0  0  0  0  0  0
   -5.1171   -1.8173   -1.8249 H   0  0  0  0  0  0  0  0  0  0  0  0
    0.2693    1.9625   -2.8627 H   0  0  0  0  0  0  0  0  0  0  0  0
    4.7701    0.4630   -3.8900 H   0  0  0  0  0  0  0  0  0  0  0  0
    5.1643   -0.3105   -1.4161 H   0  0  0  0  0  0  0  0  0  0  0  0
  1  2  1  0
  2  3  1  0
  3  4  1  0
  4  5  1  0
  5  6  2  0
  5  7  1  0
  7  8  1  0
  8  9  2  0
  8 10  1  0
 10 11  1  0
 11 12  2  0
 12 13  1  0
 13 14  1  0
 13 15  2  0
 15 16  1  0
 16 17  2  0
 17 18  1  0
 18 19  1  0
  7 20  2  0
 20 21  1  0
 20 22  1  0
 22 23  1  0
 23 24  1  0
 24 25  2  0
 25 26  1  0
 26  4  1  0
 17 11  1  0
 26 22  2  0
  1 27  1  0
  1 28  1  0
  1 29  1  0
  2 30  1  0
  2 31  1  0
  3 32  1  0
  3 33  1  0
 10 34  1  0
 12 35  1  0
 15 36  1  0
 16 37  1  0
 19 38  1  0
 19 39  1  0
 19 40  1  0
 21 41  1  0
 24 42  1  0
 25 43  1  0
M  END
$$$$
