
     RDKit          3D

 45 49  0  0  0  0  0  0  0  0999 V2000
    4.1710   -1.9753   -1.6459 O   0  0  0  0  0  0  0  0  0  0  0  0
    4.0917   -0.9895   -0.9099 C   0  0  0  0  0  0  0  0  0  0  0  0
    5.2591   -0.0487   -0.8642 C   0  0  0  0  0  0  0  0  0  0  0  0
    6.5296   -0.5425   -1.1449 C   0  0  0  0  0  0  0  0  0  0  0  0
    7.6011    0.3460   -1.1503 C   0  0  0  0  0  0  0  0  0  0  0  0
    7.3695    1.6924   -0.8907 C   0  0  0  0  0  0  0  0  0  0  0  0
    6.0697    2.1007   -0.6367 C   0  0  0  0  0  0  0  0  0  0  0  0
    5.0083    1.2659   -0.6182 N   0  0  0  0  0  0  0  0  0  0  0  0
    2.9457   -0.7211   -0.1566 N   0  0  0  0  0  0  0  0  0  0  0  0
    2.9505    0.0085    1.1089 C   0  0  0  0  0  0  0  0  0  0  0  0
    1.7733    0.9754    1.1622 C   0  0  0  0  0  0  0  0  0  0  0  0
    0.5076    0.3026    0.7177 C   0  0  0  0  0  0  0  0  0  0  0  0
    0.4821   -0.8627    0.0278 C   0  0  0  0  0  0  0  0  0  0  0  0
   -0.6775   -1.5107   -0.3763 N   0  0  0  0  0  0  0  0  0  0  0  0
   -1.7826   -0.9593   -0.0179 C   0  0  0  0  0  0  0  0  0  0  0  0
   -3.1678   -1.3698   -0.3177 C   0  0  0  0  0  0  0  0  0  0  0  0
   -3.9224   -0.4023    0.2330 C   0  0  0  0  0  0  0  0  0  0  0  0
   -5.3748   -0.2798    0.0959 C   0  0  0  0  0  0  0  0  0  0  0  0
   -5.8846    0.8018   -0.6433 C   0  0  0  0  0  0  0  0  0  0  0  0
   -7.2613    0.9667   -0.8144 C   0  0  0  0  0  0  0  0  0  0  0  0
   -8.1483    0.0540   -0.2498 C   0  0  0  0  0  0  0  0  0  0  0  0
   -7.6597   -1.0250    0.4863 C   0  0  0  0  0  0  0  0  0  0  0  0
   -6.2813   -1.1942    0.6597 C   0  0  0  0  0  0  0  0  0  0  0  0
   -5.7590   -2.5490    1.6012 Cl  0  0  0  0  0  0  0  0  0  0  0  0
   -3.1856    0.5433    0.9316 N   0  0  0  0  0  0  0  0  0  0  0  0
   -1.8565    0.2017    0.7173 N   0  0  0  0  0  0  0  0  0  0  0  0
   -0.7774    0.9599    1.0820 C   0  0  0  0  0  0  0  0  0  0  0  0
   -0.8243    2.0612    1.6197 O   0  0  0  0  0  0  0  0  0  0  0  0
    1.7714   -1.5568   -0.3949 C   0  0  0  0  0  0  0  0  0  0  0  0
    6.6795   -1.5954   -1.3625 H   0  0  0  0  0  0  0  0  0  0  0  0
    8.6053   -0.0088   -1.3652 H   0  0  0  0  0  0  0  0  0  0  0  0
    8.1832    2.4098   -0.8943 H   0  0  0  0  0  0  0  0  0  0  0  0
    5.8419    3.1445   -0.4377 H   0  0  0  0  0  0  0  0  0  0  0  0
    3.8890    0.5277    1.3046 H   0  0  0  0  0  0  0  0  0  0  0  0
    2.8607   -0.7420    1.9061 H   0  0  0  0  0  0  0  0  0  0  0  0
    1.6759    1.3547    2.1857 H   0  0  0  0  0  0  0  0  0  0  0  0
    1.9653    1.8326    0.5056 H   0  0  0  0  0  0  0  0  0  0  0  0
   -3.4469   -2.2145   -0.9186 H   0  0  0  0  0  0  0  0  0  0  0  0
   -5.2108    1.5218   -1.1039 H   0  0  0  0  0  0  0  0  0  0  0  0
   -7.6405    1.8075   -1.3910 H   0  0  0  0  0  0  0  0  0  0  0  0
   -9.2201    0.1818   -0.3816 H   0  0  0  0  0  0  0  0  0  0  0  0
   -8.3589   -1.7317    0.9269 H   0  0  0  0  0  0  0  0  0  0  0  0
   -3.4089    1.5155    0.7237 H   0  0  0  0  0  0  0  0  0  0  0  0
    1.7195   -1.8098   -1.4605 H   0  0  0  0  0  0  0  0  0  0  0  0
    1.8980   -2.4870    0.1717 H   0  0  0  0  0  0  0  0  0  0  0  0
  1  2  2  0
  2  3  1  0
  3  4  2  0
  4  5  1  0
  5  6  2  0
  6  7  1  0
  7  8  2  0
  2  9  1  0
  9 10  1  0
 10 11  1  0
 11 12  1  0
 12 13  2  0
 13 14  1  0
 14 15  2  0
 15 16  1  0
 16 17  2  0
 17 18  1  0
 18 19  2  0
 19 20  1  0
 20 21  2  0
 21 22  1  0
 22 23  2  0
 23 24  1  0
 17 25  1  0
 25 26  1  0
 26 27  1  0
 27 28  2  0
 13 29  1  0
  8  3  1  0
 29  9  1  0
 27 12  1  0
 26 15  1  0
 23 18  1  0
  4 30  1  0
  5 31  1  0
  6 32  1  0
  7 33  1  0
 10 34  1  0
 10 35  1  0
 11 36  1  0
 11 37  1  0
 16 38  1  0
 19 39  1  0
 20 40  1  0
 21 41  1  0
 22 42  1  0
 25 43  1  0
 29 44  1  0
 29 45  1  0
M  END
$$$$
