
     RDKit          3D

 43 44  0  0  0  0  0  0  0  0999 V2000
    4.3688   -0.5667   -0.6393 C   0  0  0  0  0  0  0  0  0  0  0  0
    3.4235   -0.5487    0.4888 N   0  0  0  0  0  0  0  0  0  0  0  0
    2.7539    0.7520    0.4964 C   0  0  0  0  0  0  0  0  0  0  0  0
    1.8861    0.7684   -0.7297 C   0  0  0  0  0  0  0  0  0  0  0  0
    0.8863   -0.3215   -0.6675 C   0  0  0  0  0  0  0  0  0  0  0  0
   -0.0703   -0.1190    0.4957 C   0  0  0  0  0  0  0  0  0  0  0  0
   -0.9994   -1.3016    0.4426 C   0  0  0  0  0  0  0  0  0  0  0  0
   -0.7645   -2.1873    1.4702 C   0  0  0  0  0  0  0  0  0  0  0  0
   -1.4807   -3.3720    1.6238 C   0  0  0  0  0  0  0  0  0  0  0  0
   -2.4582   -3.6379    0.6912 C   0  0  0  0  0  0  0  0  0  0  0  0
   -2.7156   -2.7730   -0.3449 C   0  0  0  0  0  0  0  0  0  0  0  0
   -1.9868   -1.6137   -0.4618 C   0  0  0  0  0  0  0  0  0  0  0  0
   -2.3812   -0.7890   -1.6037 C   0  0  0  0  0  0  0  0  0  0  0  0
   -2.2815    0.5530   -1.6823 C   0  0  0  0  0  0  0  0  0  0  0  0
   -1.7713    1.4738   -0.6757 C   0  0  0  0  0  0  0  0  0  0  0  0
   -2.3460    2.7206   -0.7402 C   0  0  0  0  0  0  0  0  0  0  0  0
   -1.9888    3.6875    0.1681 C   0  0  0  0  0  0  0  0  0  0  0  0
   -1.0613    3.4199    1.1427 C   0  0  0  0  0  0  0  0  0  0  0  0
   -0.4780    2.1445    1.2030 C   0  0  0  0  0  0  0  0  0  0  0  0
   -0.8219    1.1656    0.3015 C   0  0  0  0  0  0  0  0  0  0  0  0
    0.6867    0.0000    0.0000 Cl  0  0  0  0  0  0  0  0  0  0  0  0
    5.2982   -1.0958   -0.3894 H   0  0  0  0  0  0  0  0  0  0  0  0
    4.6653    0.4900   -0.9110 H   0  0  0  0  0  0  0  0  0  0  0  0
    3.8577   -0.9821   -1.5336 H   0  0  0  0  0  0  0  0  0  0  0  0
    3.8705   -0.7604    1.3888 H   0  0  0  0  0  0  0  0  0  0  0  0
    3.4853    1.5908    0.4659 H   0  0  0  0  0  0  0  0  0  0  0  0
    2.2014    0.8586    1.4288 H   0  0  0  0  0  0  0  0  0  0  0  0
    1.4371    1.7760   -0.8905 H   0  0  0  0  0  0  0  0  0  0  0  0
    2.5658    0.5967   -1.6195 H   0  0  0  0  0  0  0  0  0  0  0  0
    0.3327   -0.3546   -1.6279 H   0  0  0  0  0  0  0  0  0  0  0  0
    1.3477   -1.3182   -0.5306 H   0  0  0  0  0  0  0  0  0  0  0  0
    0.4513   -0.1340    1.4283 H   0  0  0  0  0  0  0  0  0  0  0  0
    0.0070   -1.9926    2.2242 H   0  0  0  0  0  0  0  0  0  0  0  0
   -1.2875   -4.0675    2.4399 H   0  0  0  0  0  0  0  0  0  0  0  0
   -3.0542   -4.5585    0.7592 H   0  0  0  0  0  0  0  0  0  0  0  0
   -3.4848   -2.9475   -1.1120 H   0  0  0  0  0  0  0  0  0  0  0  0
   -2.7859   -1.3208   -2.4310 H   0  0  0  0  0  0  0  0  0  0  0  0
   -2.6182    1.0413   -2.5817 H   0  0  0  0  0  0  0  0  0  0  0  0
   -3.0714    2.9572   -1.4921 H   0  0  0  0  0  0  0  0  0  0  0  0
   -2.4291    4.6902    0.1412 H   0  0  0  0  0  0  0  0  0  0  0  0
   -0.7389    4.1474    1.8910 H   0  0  0  0  0  0  0  0  0  0  0  0
    0.2368    1.9287    1.9731 H   0  0  0  0  0  0  0  0  0  0  0  0
   -0.6867    0.0000    0.0000 H   0  0  0  0  0  0  0  0  0  0  0  0
  1  2  1  0
  2  3  1  0
  3  4  1  0
  4  5  1  0
  5  6  1  0
  6  7  1  0
  7  8  2  0
  8  9  1  0
  9 10  2  0
 10 11  1  0
 11 12  2  0
 12 13  1  0
 13 14  2  0
 14 15  1  0
 15 16  2  0
 16 17  1  0
 17 18  2  0
 18 19  1  0
 19 20  2  0
 20  6  1  0
 12  7  1  0
 20 15  1  0
  1 22  1  0
  1 23  1  0
  1 24  1  0
  2 25  1  0
  3 26  1  0
  3 27  1  0
  4 28  1  0
  4 29  1  0
  5 30  1  0
  5 31  1  0
  6 32  1  0
  8 33  1  0
  9 34  1  0
 10 35  1  0
 11 36  1  0
 13 37  1  0
 14 38  1  0
 16 39  1  0
 17 40  1  0
 18 41  1  0
 19 42  1  0
 21 43  1  0
M  END
$$$$
