
     RDKit          3D

 54 57  0  0  0  0  0  0  0  0999 V2000
    7.9485    1.8300   -1.3373 C   0  0  0  0  0  0  0  0  0  0  0  0
    7.3545    2.2207    0.2877 S   0  0  0  0  0  6  0  0  0  0  0  0
    6.5007    3.3890    0.1831 O   0  0  0  0  0  0  0  0  0  0  0  0
    8.4804    2.2006    1.2014 O   0  0  0  0  0  0  0  0  0  0  0  0
    6.3186    0.8328    0.6873 C   0  0  0  0  0  0  0  0  0  0  0  0
    6.9001   -0.3265    1.2059 C   0  0  0  0  0  0  0  0  0  0  0  0
    6.0895   -1.4147    1.5216 C   0  0  0  0  0  0  0  0  0  0  0  0
    4.7076   -1.3354    1.3337 C   0  0  0  0  0  0  0  0  0  0  0  0
    4.1145   -0.1619    0.8397 C   0  0  0  0  0  0  0  0  0  0  0  0
    2.6159   -0.0898    0.6488 C   0  0  0  0  0  0  0  0  0  0  0  0
    2.2582   -0.8741   -0.5280 N   0  0  0  0  0  0  0  0  0  0  0  0
    0.8923   -0.9022   -0.8433 C   0  0  0  0  0  0  0  0  0  0  0  0
    0.0227   -0.2898   -0.0151 N   0  0  0  0  0  0  0  0  0  0  0  0
   -1.2926   -0.3456   -0.2828 C   0  0  0  0  0  0  0  0  0  0  0  0
   -2.1058    0.3276    0.6235 N   0  0  0  0  0  0  0  0  0  0  0  0
   -3.4885    0.4930    0.7571 C   0  0  0  0  0  0  0  0  0  0  0  0
   -3.9686    1.2656    1.8291 C   0  0  0  0  0  0  0  0  0  0  0  0
   -5.3367    1.4877    2.0172 C   0  0  0  0  0  0  0  0  0  0  0  0
   -6.2500    0.9248    1.1339 C   0  0  0  0  0  0  0  0  0  0  0  0
   -5.8061    0.1617    0.0535 C   0  0  0  0  0  0  0  0  0  0  0  0
   -4.4290   -0.0402   -0.1318 C   0  0  0  0  0  0  0  0  0  0  0  0
   -6.8049   -0.3331   -0.9550 C   0  0  0  0  0  0  0  0  0  0  0  0
   -8.1487   -0.6179   -0.3048 C   0  0  0  0  0  0  0  0  0  0  0  0
   -8.5967    0.5125    0.5928 C   0  0  0  0  0  0  0  0  0  0  0  0
   -9.7821    0.7941    0.7543 O   0  0  0  0  0  0  0  0  0  0  0  0
   -7.6179    1.1463    1.3111 N   0  0  0  0  0  0  0  0  0  0  0  0
   -1.7869   -0.9952   -1.3399 N   0  0  0  0  0  0  0  0  0  0  0  0
   -0.9074   -1.6152   -2.1445 C   0  0  0  0  0  0  0  0  0  0  0  0
    0.4541   -1.6004   -1.9481 C   0  0  0  0  0  0  0  0  0  0  0  0
    1.3609   -2.3337   -2.8652 C   0  0  0  0  0  0  0  0  0  0  0  0
    1.7828   -3.5270   -2.3660 F   0  0  0  0  0  0  0  0  0  0  0  0
    2.4893   -1.6324   -3.1799 F   0  0  0  0  0  0  0  0  0  0  0  0
    0.7803   -2.6268   -4.0655 F   0  0  0  0  0  0  0  0  0  0  0  0
    4.9339    0.9271    0.5109 C   0  0  0  0  0  0  0  0  0  0  0  0
    7.0974    1.7345   -2.0143 H   0  0  0  0  0  0  0  0  0  0  0  0
    8.5186    0.9001   -1.2962 H   0  0  0  0  0  0  0  0  0  0  0  0
    8.5948    2.6464   -1.6668 H   0  0  0  0  0  0  0  0  0  0  0  0
    7.9735   -0.3885    1.3719 H   0  0  0  0  0  0  0  0  0  0  0  0
    6.5303   -2.3255    1.9206 H   0  0  0  0  0  0  0  0  0  0  0  0
    4.0853   -2.1951    1.5790 H   0  0  0  0  0  0  0  0  0  0  0  0
    2.1293   -0.4810    1.5516 H   0  0  0  0  0  0  0  0  0  0  0  0
    2.3096    0.9574    0.5295 H   0  0  0  0  0  0  0  0  0  0  0  0
    2.8178   -0.5996   -1.3340 H   0  0  0  0  0  0  0  0  0  0  0  0
   -1.5277    0.7177    1.3530 H   0  0  0  0  0  0  0  0  0  0  0  0
   -3.2718    1.7110    2.5357 H   0  0  0  0  0  0  0  0  0  0  0  0
   -5.6682    2.0912    2.8568 H   0  0  0  0  0  0  0  0  0  0  0  0
   -4.1055   -0.6174   -0.9928 H   0  0  0  0  0  0  0  0  0  0  0  0
   -6.4412   -1.2456   -1.4414 H   0  0  0  0  0  0  0  0  0  0  0  0
   -6.9184    0.4356   -1.7294 H   0  0  0  0  0  0  0  0  0  0  0  0
   -8.0948   -1.5235    0.3116 H   0  0  0  0  0  0  0  0  0  0  0  0
   -8.9059   -0.7798   -1.0795 H   0  0  0  0  0  0  0  0  0  0  0  0
   -7.9408    1.8089    2.0041 H   0  0  0  0  0  0  0  0  0  0  0  0
   -1.3575   -2.1444   -2.9819 H   0  0  0  0  0  0  0  0  0  0  0  0
    4.4923    1.8458    0.1284 H   0  0  0  0  0  0  0  0  0  0  0  0
  1  2  1  0
  2  3  2  0
  2  4  2  0
  2  5  1  0
  5  6  2  0
  6  7  1  0
  7  8  2  0
  8  9  1  0
  9 10  1  0
 10 11  1  0
 11 12  1  0
 12 13  2  0
 13 14  1  0
 14 15  1  0
 15 16  1  0
 16 17  2  0
 17 18  1  0
 18 19  2  0
 19 20  1  0
 20 21  2  0
 20 22  1  0
 22 23  1  0
 23 24  1  0
 24 25  2  0
 24 26  1  0
 14 27  2  0
 27 28  1  0
 28 29  2  0
 29 30  1  0
 30 31  1  0
 30 32  1  0
 30 33  1  0
  9 34  2  0
 34  5  1  0
 29 12  1  0
 21 16  1  0
 26 19  1  0
  1 35  1  0
  1 36  1  0
  1 37  1  0
  6 38  1  0
  7 39  1  0
  8 40  1  0
 10 41  1  0
 10 42  1  0
 11 43  1  0
 15 44  1  0
 17 45  1  0
 18 46  1  0
 21 47  1  0
 22 48  1  0
 22 49  1  0
 23 50  1  0
 23 51  1  0
 26 52  1  0
 28 53  1  0
 34 54  1  0
M  END
$$$$
