
     RDKit          3D

 30 30  0  0  0  0  0  0  0  0999 V2000
    0.6680   -2.5570    0.4511 O   0  0  0  0  0  0  0  0  0  0  0  0
    1.1832   -1.7086   -0.6012 S   0  0  0  0  0  6  0  0  0  0  0  0
    1.7334   -2.2406   -1.8265 O   0  0  0  0  0  0  0  0  0  0  0  0
   -0.0397   -0.6285   -1.0694 N   0  0  0  0  0  0  0  0  0  0  0  0
   -1.1235   -0.3202   -0.0744 C   0  0  2  0  0  0  0  0  0  0  0  0
   -2.3347   -1.2423   -0.3454 C   0  0  0  0  0  0  0  0  0  0  0  0
   -1.9420   -2.6080   -0.4456 O   0  0  0  0  0  0  0  0  0  0  0  0
   -1.3961    1.1905   -0.0945 C   0  0  0  0  0  0  0  0  0  0  0  0
   -2.2783    1.6477   -1.2126 C   0  0  0  0  0  0  0  0  0  0  0  0
   -2.3382    2.9937   -1.2799 F   0  0  0  0  0  0  0  0  0  0  0  0
   -1.7980    1.2201   -2.4037 F   0  0  0  0  0  0  0  0  0  0  0  0
   -3.5392    1.1871   -1.1070 F   0  0  0  0  0  0  0  0  0  0  0  0
   -2.0653    1.6254    1.1734 C   0  0  0  0  0  0  0  0  0  0  0  0
   -3.2530    1.0209    1.3640 F   0  0  0  0  0  0  0  0  0  0  0  0
   -1.2886    1.3105    2.2372 F   0  0  0  0  0  0  0  0  0  0  0  0
   -2.2612    2.9570    1.2171 F   0  0  0  0  0  0  0  0  0  0  0  0
    2.5118   -0.7686    0.1103 C   0  0  0  0  0  0  0  0  0  0  0  0
    3.8337   -0.6060   -0.2705 C   0  0  0  0  0  0  0  0  0  0  0  0
    4.5509    0.2583    0.6088 C   0  0  0  0  0  0  0  0  0  0  0  0
    3.7403    0.7121    1.6161 C   0  0  0  0  0  0  0  0  0  0  0  0
    4.1845    1.7746    2.8889 Cl  0  0  0  0  0  0  0  0  0  0  0  0
    2.1568    0.1263    1.5272 S   0  0  0  0  0  0  0  0  0  0  0  0
   -0.3967   -0.9481   -1.9794 H   0  0  0  0  0  0  0  0  0  0  0  0
   -0.7377   -0.5734    0.9194 H   0  0  0  0  0  0  0  0  0  0  0  0
   -2.8159   -1.0015   -1.2967 H   0  0  0  0  0  0  0  0  0  0  0  0
   -3.0801   -1.1618    0.4500 H   0  0  0  0  0  0  0  0  0  0  0  0
   -1.2880   -2.8133    0.2551 H   0  0  0  0  0  0  0  0  0  0  0  0
   -0.4381    1.7205   -0.1710 H   0  0  0  0  0  0  0  0  0  0  0  0
    4.2564   -1.0919   -1.1434 H   0  0  0  0  0  0  0  0  0  0  0  0
    5.5954    0.5249    0.5025 H   0  0  0  0  0  0  0  0  0  0  0  0
  1  2  2  0
  2  3  2  0
  2  4  1  0
  4  5  1  0
  5  6  1  0
  6  7  1  0
  5  8  1  0
  8  9  1  0
  9 10  1  0
  9 11  1  0
  9 12  1  0
  8 13  1  0
 13 14  1  0
 13 15  1  0
 13 16  1  0
  2 17  1  0
 17 18  2  0
 18 19  1  0
 19 20  2  0
 20 21  1  0
 20 22  1  0
 22 17  1  0
  4 23  1  0
  5 24  1  1
  6 25  1  0
  6 26  1  0
  7 27  1  0
  8 28  1  0
 18 29  1  0
 19 30  1  0
M  END
$$$$
