
     RDKit          3D

 42 43  0  0  0  0  0  0  0  0999 V2000
    5.3979   -2.2213   -1.1399 C   0  0  0  0  0  0  0  0  0  0  0  0
    5.0590   -0.8267   -0.9108 N   0  0  0  0  0  0  0  0  0  0  0  0
    5.8099    0.1354   -1.7073 C   0  0  0  0  0  0  0  0  0  0  0  0
    3.8031   -0.5639   -0.3541 C   0  0  0  0  0  0  0  0  0  0  0  0
    2.9948   -1.4631   -0.1372 O   0  0  0  0  0  0  0  0  0  0  0  0
    3.5984    0.7636   -0.0485 N   0  0  0  0  0  0  0  0  0  0  0  0
    2.3934    1.3690    0.3640 C   0  0  0  0  0  0  0  0  0  0  0  0
    2.4733    2.6547    0.9082 C   0  0  0  0  0  0  0  0  0  0  0  0
    1.3204    3.3177    1.3271 C   0  0  0  0  0  0  0  0  0  0  0  0
    0.0756    2.7017    1.1966 C   0  0  0  0  0  0  0  0  0  0  0  0
   -0.0404    1.4179    0.6398 C   0  0  0  0  0  0  0  0  0  0  0  0
   -1.3555    0.7674    0.4976 C   0  0  0  0  0  0  0  0  0  0  0  0
   -1.5697   -0.5439    0.9333 C   0  0  0  0  0  0  0  0  0  0  0  0
   -2.8241   -1.1628    0.8005 C   0  0  0  0  0  0  0  0  0  0  0  0
   -3.9235   -0.5147    0.2149 C   0  0  0  0  0  0  0  0  0  0  0  0
   -5.1801   -1.1235    0.0924 N   0  0  0  0  0  0  0  0  0  0  0  0
   -5.3129   -2.5449    0.4063 C   0  0  0  0  0  0  0  0  0  0  0  0
   -6.0881   -0.6231   -0.9390 C   0  0  0  0  0  0  0  0  0  0  0  0
   -3.6959    0.8073   -0.2026 C   0  0  0  0  0  0  0  0  0  0  0  0
   -2.4450    1.4338   -0.0714 C   0  0  0  0  0  0  0  0  0  0  0  0
    1.1381    0.7682    0.2229 C   0  0  0  0  0  0  0  0  0  0  0  0
    5.0177   -2.5218   -2.1210 H   0  0  0  0  0  0  0  0  0  0  0  0
    4.9566   -2.8651   -0.3734 H   0  0  0  0  0  0  0  0  0  0  0  0
    6.4851   -2.3392   -1.1110 H   0  0  0  0  0  0  0  0  0  0  0  0
    5.6733   -0.1094   -2.7657 H   0  0  0  0  0  0  0  0  0  0  0  0
    6.8698    0.0533   -1.4497 H   0  0  0  0  0  0  0  0  0  0  0  0
    5.4859    1.1664   -1.5588 H   0  0  0  0  0  0  0  0  0  0  0  0
    4.4411    1.2829    0.1387 H   0  0  0  0  0  0  0  0  0  0  0  0
    3.4315    3.1538    1.0212 H   0  0  0  0  0  0  0  0  0  0  0  0
    1.3899    4.3119    1.7604 H   0  0  0  0  0  0  0  0  0  0  0  0
   -0.8108    3.2280    1.5456 H   0  0  0  0  0  0  0  0  0  0  0  0
   -0.7598   -1.1056    1.3962 H   0  0  0  0  0  0  0  0  0  0  0  0
   -2.9031   -2.1800    1.1712 H   0  0  0  0  0  0  0  0  0  0  0  0
   -6.3570   -2.8675    0.3268 H   0  0  0  0  0  0  0  0  0  0  0  0
   -4.7214   -3.1582   -0.2826 H   0  0  0  0  0  0  0  0  0  0  0  0
   -5.0135   -2.7554    1.4390 H   0  0  0  0  0  0  0  0  0  0  0  0
   -6.9980   -1.2312   -0.9963 H   0  0  0  0  0  0  0  0  0  0  0  0
   -5.6155   -0.6462   -1.9273 H   0  0  0  0  0  0  0  0  0  0  0  0
   -6.4219    0.3953   -0.7147 H   0  0  0  0  0  0  0  0  0  0  0  0
   -4.4945    1.3990   -0.6389 H   0  0  0  0  0  0  0  0  0  0  0  0
   -2.3358    2.4543   -0.4318 H   0  0  0  0  0  0  0  0  0  0  0  0
    1.0515   -0.2141   -0.2348 H   0  0  0  0  0  0  0  0  0  0  0  0
  1  2  1  0
  2  3  1  0
  2  4  1  0
  4  5  2  0
  4  6  1  0
  6  7  1  0
  7  8  2  0
  8  9  1  0
  9 10  2  0
 10 11  1  0
 11 12  1  0
 12 13  2  0
 13 14  1  0
 14 15  2  0
 15 16  1  0
 16 17  1  0
 16 18  1  0
 15 19  1  0
 19 20  2  0
 11 21  2  0
 21  7  1  0
 20 12  1  0
  1 22  1  0
  1 23  1  0
  1 24  1  0
  3 25  1  0
  3 26  1  0
  3 27  1  0
  6 28  1  0
  8 29  1  0
  9 30  1  0
 10 31  1  0
 13 32  1  0
 14 33  1  0
 17 34  1  0
 17 35  1  0
 17 36  1  0
 18 37  1  0
 18 38  1  0
 18 39  1  0
 19 40  1  0
 20 41  1  0
 21 42  1  0
M  END
$$$$
