
     RDKit          3D

 56 59  0  0  0  0  0  0  0  0999 V2000
    9.9651   -0.9511   -0.9602 C   0  0  0  0  0  0  0  0  0  0  0  0
    8.9252   -1.6706   -0.3083 O   0  0  0  0  0  0  0  0  0  0  0  0
    7.7085   -1.0561   -0.2272 C   0  0  0  0  0  0  0  0  0  0  0  0
    6.7299   -1.7738    0.4536 C   0  0  0  0  0  0  0  0  0  0  0  0
    5.4350   -1.2576    0.6113 C   0  0  0  0  0  0  0  0  0  0  0  0
    5.0746   -0.0045    0.0934 C   0  0  0  0  0  0  0  0  0  0  0  0
    3.7565    0.5280    0.2509 N   0  0  0  0  0  0  0  0  0  0  0  0
    3.3605    1.8007   -0.1043 C   0  0  0  0  0  0  0  0  0  0  0  0
    4.0084    2.7410   -0.5373 O   0  0  0  0  0  0  0  0  0  0  0  0
    2.0097    1.9304    0.1321 N   0  0  0  0  0  0  0  0  0  0  0  0
    1.4802    0.8117    0.8497 C   0  0  0  0  0  0  0  0  0  0  0  0
    0.2501    0.1934    0.2042 C   0  0  0  0  0  0  0  0  0  0  0  0
   -0.9882    1.0262    0.4749 C   0  0  0  0  0  0  0  0  0  0  0  0
   -0.9027    2.1386    0.9968 O   0  0  0  0  0  0  0  0  0  0  0  0
   -2.2069    0.4783    0.0907 N   0  0  0  0  0  0  0  0  0  0  0  0
   -2.3518   -0.8134   -0.5827 C   0  0  0  0  0  0  0  0  0  0  0  0
   -3.6856   -0.9275   -1.3135 C   0  0  0  0  0  0  0  0  0  0  0  0
   -4.8652   -0.7841   -0.3379 C   0  0  0  0  0  0  0  0  0  0  0  0
   -5.0447   -2.0591    0.3036 O   0  0  0  0  0  0  0  0  0  0  0  0
   -6.1579   -0.4596   -1.1046 C   0  0  0  0  0  0  0  0  0  0  0  0
   -7.3841   -0.3768   -0.1910 C   0  0  0  0  0  0  0  0  0  0  0  0
   -7.0807    0.2038    1.1891 C   0  0  0  0  0  0  0  0  0  0  0  0
   -5.8267    1.0663    1.1803 C   0  0  0  0  0  0  0  0  0  0  0  0
   -4.5807    0.2524    0.7835 C   0  0  0  0  0  0  0  0  0  0  0  0
   -3.4371    1.2037    0.4079 C   0  0  0  0  0  0  0  0  0  0  0  0
    2.6757   -0.1356    0.8038 C   0  0  0  0  0  0  0  0  0  0  0  0
    2.6029   -1.2845    1.2257 O   0  0  0  0  0  0  0  0  0  0  0  0
    6.0776    0.7001   -0.5940 C   0  0  0  0  0  0  0  0  0  0  0  0
    7.3758    0.1857   -0.7531 C   0  0  0  0  0  0  0  0  0  0  0  0
   10.8709   -1.5633   -0.9204 H   0  0  0  0  0  0  0  0  0  0  0  0
    9.7248   -0.7800   -2.0147 H   0  0  0  0  0  0  0  0  0  0  0  0
   10.1773   -0.0088   -0.4443 H   0  0  0  0  0  0  0  0  0  0  0  0
    6.9708   -2.7479    0.8736 H   0  0  0  0  0  0  0  0  0  0  0  0
    4.7373   -1.8780    1.1651 H   0  0  0  0  0  0  0  0  0  0  0  0
    1.5790    2.8490    0.1212 H   0  0  0  0  0  0  0  0  0  0  0  0
    1.3158    1.1127    1.8903 H   0  0  0  0  0  0  0  0  0  0  0  0
    0.0848   -0.8093    0.6141 H   0  0  0  0  0  0  0  0  0  0  0  0
    0.3913    0.1100   -0.8796 H   0  0  0  0  0  0  0  0  0  0  0  0
   -1.5354   -0.9463   -1.2987 H   0  0  0  0  0  0  0  0  0  0  0  0
   -2.2556   -1.5950    0.1801 H   0  0  0  0  0  0  0  0  0  0  0  0
   -3.7321   -0.1458   -2.0829 H   0  0  0  0  0  0  0  0  0  0  0  0
   -3.7284   -1.8949   -1.8285 H   0  0  0  0  0  0  0  0  0  0  0  0
   -5.3864   -2.6900   -0.3541 H   0  0  0  0  0  0  0  0  0  0  0  0
   -6.0405    0.4955   -1.6338 H   0  0  0  0  0  0  0  0  0  0  0  0
   -6.3533   -1.2209   -1.8710 H   0  0  0  0  0  0  0  0  0  0  0  0
   -7.8259   -1.3732   -0.0664 H   0  0  0  0  0  0  0  0  0  0  0  0
   -8.1486    0.2326   -0.6887 H   0  0  0  0  0  0  0  0  0  0  0  0
   -6.9504   -0.6140    1.9093 H   0  0  0  0  0  0  0  0  0  0  0  0
   -7.9397    0.7878    1.5391 H   0  0  0  0  0  0  0  0  0  0  0  0
   -5.9725    1.9078    0.4910 H   0  0  0  0  0  0  0  0  0  0  0  0
   -5.6731    1.5032    2.1744 H   0  0  0  0  0  0  0  0  0  0  0  0
   -4.2634   -0.2999    1.6811 H   0  0  0  0  0  0  0  0  0  0  0  0
   -3.2574    1.9104    1.2263 H   0  0  0  0  0  0  0  0  0  0  0  0
   -3.6975    1.7965   -0.4780 H   0  0  0  0  0  0  0  0  0  0  0  0
    5.8903    1.6711   -1.0434 H   0  0  0  0  0  0  0  0  0  0  0  0
    8.0943    0.7888   -1.2988 H   0  0  0  0  0  0  0  0  0  0  0  0
  1  2  1  0
  2  3  1  0
  3  4  2  0
  4  5  1  0
  5  6  2  0
  6  7  1  0
  7  8  1  0
  8  9  2  0
  8 10  1  0
 10 11  1  0
 11 12  1  0
 12 13  1  0
 13 14  2  0
 13 15  1  0
 15 16  1  0
 16 17  1  0
 17 18  1  0
 18 19  1  0
 18 20  1  0
 20 21  1  0
 21 22  1  0
 22 23  1  0
 23 24  1  0
 24 25  1  0
 11 26  1  0
 26 27  2  0
  6 28  1  0
 28 29  2  0
 29  3  1  0
 26  7  1  0
 25 15  1  0
 24 18  1  0
  1 30  1  0
  1 31  1  0
  1 32  1  0
  4 33  1  0
  5 34  1  0
 10 35  1  0
 11 36  1  0
 12 37  1  0
 12 38  1  0
 16 39  1  0
 16 40  1  0
 17 41  1  0
 17 42  1  0
 19 43  1  0
 20 44  1  0
 20 45  1  0
 21 46  1  0
 21 47  1  0
 22 48  1  0
 22 49  1  0
 23 50  1  0
 23 51  1  0
 24 52  1  0
 25 53  1  0
 25 54  1  0
 28 55  1  0
 29 56  1  0
M  END
$$$$
