
     RDKit          3D

 49 51  0  0  0  0  0  0  0  0999 V2000
    5.6872   -4.7620    5.8730 C   0  0  0  0  0  0  0  0  0  0  0  0
    4.5169   -4.1471    6.3945 O   0  0  0  0  0  0  0  0  0  0  0  0
    3.6053   -3.7262    5.3768 C   0  0  0  0  0  0  0  0  0  0  0  0
    3.9473   -2.3217    4.8680 C   0  0  0  0  0  0  0  0  0  0  0  0
    3.1694   -1.9248    3.7082 N   0  0  0  0  0  0  0  0  0  0  0  0
    1.8392   -1.5823    3.8072 C   0  0  0  0  0  0  0  0  0  0  0  0
    1.2031   -1.6342    4.8527 O   0  0  0  0  0  0  0  0  0  0  0  0
    1.2410   -1.1469    2.4896 C   0  0  0  0  0  0  0  0  0  0  0  0
   -0.2246   -0.7603    2.6488 C   0  0  0  0  0  0  0  0  0  0  0  0
   -0.8039   -0.3372    1.3538 C   0  0  0  0  0  0  0  0  0  0  0  0
   -0.3378    0.5092    0.4661 N   0  0  0  0  0  0  0  0  0  0  0  0
   -1.2962    0.4715   -0.5272 C   0  0  0  0  0  0  0  0  0  0  0  0
   -1.2330    1.2651   -1.7478 C   0  0  0  0  0  0  0  0  0  0  0  0
   -2.3089    1.3790   -2.4645 N   0  0  0  0  0  0  0  0  0  0  0  0
   -2.3039    2.1758   -3.5936 N   0  0  0  0  0  0  0  0  0  0  0  0
   -3.5312    2.0764   -4.3549 C   0  0  0  0  0  0  0  0  0  0  0  0
   -3.7771    2.8066   -5.5272 C   0  0  0  0  0  0  0  0  0  0  0  0
   -4.9815    2.6771   -6.2347 C   0  0  0  0  0  0  0  0  0  0  0  0
   -5.9718    1.8112   -5.7873 C   0  0  0  0  0  0  0  0  0  0  0  0
   -5.7592    1.0730   -4.6312 C   0  0  0  0  0  0  0  0  0  0  0  0
   -4.5562    1.2054   -3.9273 C   0  0  0  0  0  0  0  0  0  0  0  0
   -1.2329    3.0406   -3.9139 C   0  0  0  0  0  0  0  0  0  0  0  0
   -1.1885    3.7877   -4.8931 O   0  0  0  0  0  0  0  0  0  0  0  0
   -0.1407    2.9911   -3.0472 N   0  0  0  0  0  0  0  0  0  0  0  0
    1.0212    3.7898   -3.3845 C   0  0  0  0  0  0  0  0  0  0  0  0
    0.0383    1.9497   -2.1638 C   0  0  0  0  0  0  0  0  0  0  0  0
    1.1232    1.5454   -1.7665 O   0  0  0  0  0  0  0  0  0  0  0  0
   -2.3252   -0.3503   -0.2454 N   0  0  0  0  0  0  0  0  0  0  0  0
   -1.9954   -0.8896    0.9955 O   0  0  0  0  0  0  0  0  0  0  0  0
    6.3278   -5.0454    6.7125 H   0  0  0  0  0  0  0  0  0  0  0  0
    5.4271   -5.6672    5.3155 H   0  0  0  0  0  0  0  0  0  0  0  0
    6.2427   -4.0722    5.2318 H   0  0  0  0  0  0  0  0  0  0  0  0
    2.6057   -3.7208    5.8243 H   0  0  0  0  0  0  0  0  0  0  0  0
    3.5806   -4.4549    4.5569 H   0  0  0  0  0  0  0  0  0  0  0  0
    5.0019   -2.2566    4.5824 H   0  0  0  0  0  0  0  0  0  0  0  0
    3.7900   -1.5897    5.6689 H   0  0  0  0  0  0  0  0  0  0  0  0
    3.6494   -1.7984    2.8257 H   0  0  0  0  0  0  0  0  0  0  0  0
    1.3416   -1.9712    1.7735 H   0  0  0  0  0  0  0  0  0  0  0  0
    1.8221   -0.2972    2.1114 H   0  0  0  0  0  0  0  0  0  0  0  0
   -0.3233    0.0626    3.3663 H   0  0  0  0  0  0  0  0  0  0  0  0
   -0.7932   -1.6047    3.0561 H   0  0  0  0  0  0  0  0  0  0  0  0
   -3.0552    3.5003   -5.9426 H   0  0  0  0  0  0  0  0  0  0  0  0
   -5.1375    3.2593   -7.1398 H   0  0  0  0  0  0  0  0  0  0  0  0
   -6.9035    1.7130   -6.3373 H   0  0  0  0  0  0  0  0  0  0  0  0
   -6.5243    0.3914   -4.2691 H   0  0  0  0  0  0  0  0  0  0  0  0
   -4.4397    0.6052   -3.0268 H   0  0  0  0  0  0  0  0  0  0  0  0
    1.5507    3.3080   -4.2129 H   0  0  0  0  0  0  0  0  0  0  0  0
    0.7159    4.7947   -3.6924 H   0  0  0  0  0  0  0  0  0  0  0  0
    1.6970    3.8718   -2.5276 H   0  0  0  0  0  0  0  0  0  0  0  0
  1  2  1  0
  2  3  1  0
  3  4  1  0
  4  5  1  0
  5  6  1  0
  6  7  2  0
  6  8  1  0
  8  9  1  0
  9 10  1  0
 10 11  2  0
 11 12  1  0
 12 13  1  0
 13 14  2  0
 14 15  1  0
 15 16  1  0
 16 17  2  0
 17 18  1  0
 18 19  2  0
 19 20  1  0
 20 21  2  0
 15 22  1  0
 22 23  2  0
 22 24  1  0
 24 25  1  0
 24 26  1  0
 26 27  2  0
 12 28  2  0
 28 29  1  0
 29 10  1  0
 26 13  1  0
 21 16  1  0
  1 30  1  0
  1 31  1  0
  1 32  1  0
  3 33  1  0
  3 34  1  0
  4 35  1  0
  4 36  1  0
  5 37  1  0
  8 38  1  0
  8 39  1  0
  9 40  1  0
  9 41  1  0
 17 42  1  0
 18 43  1  0
 19 44  1  0
 20 45  1  0
 21 46  1  0
 25 47  1  0
 25 48  1  0
 25 49  1  0
M  END
$$$$
