
     RDKit          3D

 67 73  0  0  0  0  0  0  0  0999 V2000
   10.2863   -0.6426    0.7477 O   0  0  0  0  0  0  0  0  0  0  0  0
    9.8039    0.0156   -0.1540 C   0  0  0  0  0  0  0  0  0  0  0  0
   10.5737    0.7052   -1.0119 O   0  0  0  0  0  0  0  0  0  0  0  0
    8.3558    0.1577   -0.4419 C   0  0  0  0  0  0  0  0  0  0  0  0
    7.8891    1.0037   -1.4480 C   0  0  0  0  0  0  0  0  0  0  0  0
    6.5183    1.1201   -1.6782 C   0  0  0  0  0  0  0  0  0  0  0  0
    6.0988    1.9415   -2.6521 F   0  0  0  0  0  0  0  0  0  0  0  0
    5.5866    0.3954   -0.9061 C   0  0  0  0  0  0  0  0  0  0  0  0
    4.2063    0.4212   -1.0197 N   0  0  0  0  0  0  0  0  0  0  0  0
    3.6318   -0.3638   -0.1363 C   0  0  0  0  0  0  0  0  0  0  0  0
    2.2781   -0.5396   -0.0518 N   0  0  0  0  0  0  0  0  0  0  0  0
    1.6094   -0.7119    1.2411 C   0  0  1  0  0  0  0  0  0  0  0  0
    1.1861    0.7179    1.6116 C   0  0  0  0  0  0  0  0  0  0  0  0
    1.0557    1.4500    0.2709 C   0  0  0  0  0  0  0  0  0  0  0  0
    1.4099    0.3942   -0.7869 C   0  0  2  0  0  0  0  0  0  0  0  0
    0.1907   -0.4190   -1.2533 C   0  0  0  0  0  0  0  0  0  0  0  0
   -0.5434   -1.1295   -0.1032 C   0  0  2  0  0  0  0  0  0  0  0  0
   -1.4876   -0.2056    0.4602 O   0  0  0  0  0  0  0  0  0  0  0  0
   -2.6672   -0.8242    0.9852 C   0  0  0  0  0  0  0  0  0  0  0  0
   -3.6596   -1.1310   -0.0740 C   0  0  0  0  0  0  0  0  0  0  0  0
   -4.3397   -0.2152   -0.9344 C   0  0  0  0  0  0  0  0  0  0  0  0
   -4.2317    1.2401   -0.9826 C   0  0  0  0  0  0  0  0  0  0  0  0
   -3.6544    1.8248   -2.1216 C   0  0  0  0  0  0  0  0  0  0  0  0
   -3.5337    3.2087   -2.2222 C   0  0  0  0  0  0  0  0  0  0  0  0
   -3.9943    4.0160   -1.1871 C   0  0  0  0  0  0  0  0  0  0  0  0
   -4.5783    3.4463   -0.0508 C   0  0  0  0  0  0  0  0  0  0  0  0
   -4.7047    2.0556    0.0659 C   0  0  0  0  0  0  0  0  0  0  0  0
   -5.2728    1.4079    1.1309 O   0  0  0  0  0  0  0  0  0  0  0  0
   -5.8197    2.1858    2.1795 C   0  0  0  0  0  0  0  0  0  0  0  0
   -6.8137    2.9825    1.7363 F   0  0  0  0  0  0  0  0  0  0  0  0
   -4.8650    2.9384    2.7689 F   0  0  0  0  0  0  0  0  0  0  0  0
   -6.3293    1.3529    3.1147 F   0  0  0  0  0  0  0  0  0  0  0  0
   -5.1218   -0.8672   -1.8068 N   0  0  0  0  0  0  0  0  0  0  0  0
   -4.9880   -2.2080   -1.5133 O   0  0  0  0  0  0  0  0  0  0  0  0
   -4.1204   -2.3643   -0.4829 C   0  0  0  0  0  0  0  0  0  0  0  0
   -3.6963   -3.7446    0.0822 C   0  0  0  0  0  0  0  0  0  0  0  0
   -4.0857   -4.1267    1.4857 C   0  0  0  0  0  0  0  0  0  0  0  0
   -4.7589   -4.7867    0.3179 C   0  0  0  0  0  0  0  0  0  0  0  0
    0.4097   -1.6458    0.9900 C   0  0  0  0  0  0  0  0  0  0  0  0
    4.7556   -1.2194    0.8642 S   0  0  0  0  0  0  0  0  0  0  0  0
    6.0782   -0.4467    0.0884 C   0  0  0  0  0  0  0  0  0  0  0  0
    7.4556   -0.5834    0.3407 C   0  0  0  0  0  0  0  0  0  0  0  0
   11.4900    0.5365   -0.7103 H   0  0  0  0  0  0  0  0  0  0  0  0
    8.5709    1.5860   -2.0624 H   0  0  0  0  0  0  0  0  0  0  0  0
    2.2320   -1.1513    2.0261 H   0  0  0  0  0  0  0  0  0  0  0  0
    0.2677    0.7540    2.2061 H   0  0  0  0  0  0  0  0  0  0  0  0
    1.9747    1.1983    2.2050 H   0  0  0  0  0  0  0  0  0  0  0  0
    1.7838    2.2700    0.2386 H   0  0  0  0  0  0  0  0  0  0  0  0
    0.0653    1.8907    0.1218 H   0  0  0  0  0  0  0  0  0  0  0  0
    1.8808    0.8513   -1.6642 H   0  0  0  0  0  0  0  0  0  0  0  0
   -0.5030    0.2330   -1.7984 H   0  0  0  0  0  0  0  0  0  0  0  0
    0.5465   -1.1834   -1.9573 H   0  0  0  0  0  0  0  0  0  0  0  0
   -1.0891   -1.9776   -0.5327 H   0  0  0  0  0  0  0  0  0  0  0  0
   -3.1050   -0.1149    1.6957 H   0  0  0  0  0  0  0  0  0  0  0  0
   -2.3981   -1.7107    1.5710 H   0  0  0  0  0  0  0  0  0  0  0  0
   -3.2997    1.1966   -2.9368 H   0  0  0  0  0  0  0  0  0  0  0  0
   -3.0851    3.6536   -3.1073 H   0  0  0  0  0  0  0  0  0  0  0  0
   -3.9050    5.0982   -1.2646 H   0  0  0  0  0  0  0  0  0  0  0  0
   -4.9251    4.1296    0.7197 H   0  0  0  0  0  0  0  0  0  0  0  0
   -2.7448   -4.1049   -0.2945 H   0  0  0  0  0  0  0  0  0  0  0  0
   -4.6726   -3.4316    2.0749 H   0  0  0  0  0  0  0  0  0  0  0  0
   -3.3833   -4.7154    2.0638 H   0  0  0  0  0  0  0  0  0  0  0  0
   -4.5065   -5.8187    0.0985 H   0  0  0  0  0  0  0  0  0  0  0  0
   -5.7939   -4.5313    0.1199 H   0  0  0  0  0  0  0  0  0  0  0  0
   -0.1257   -1.8050    1.9316 H   0  0  0  0  0  0  0  0  0  0  0  0
    0.8002   -2.6202    0.6689 H   0  0  0  0  0  0  0  0  0  0  0  0
    7.8118   -1.2489    1.1244 H   0  0  0  0  0  0  0  0  0  0  0  0
  1  2  2  0
  2  3  1  0
  2  4  1  0
  4  5  2  0
  5  6  1  0
  6  7  1  0
  6  8  2  0
  8  9  1  0
  9 10  2  0
 10 11  1  0
 11 12  1  0
 12 13  1  0
 13 14  1  0
 14 15  1  0
 15 16  1  0
 16 17  1  0
 17 18  1  0
 18 19  1  0
 19 20  1  0
 20 21  1  0
 21 22  1  0
 22 23  2  0
 23 24  1  0
 24 25  2  0
 25 26  1  0
 26 27  2  0
 27 28  1  0
 28 29  1  0
 29 30  1  0
 29 31  1  0
 29 32  1  0
 21 33  2  0
 33 34  1  0
 34 35  1  0
 35 36  1  0
 36 37  1  0
 37 38  1  0
 17 39  1  0
 10 40  1  0
 40 41  1  0
 41 42  2  0
 42  4  1  0
 41  8  1  0
 15 11  1  0
 35 20  2  0
 38 36  1  0
 39 12  1  0
 27 22  1  0
  3 43  1  0
  5 44  1  0
 12 45  1  1
 13 46  1  0
 13 47  1  0
 14 48  1  0
 14 49  1  0
 15 50  1  6
 16 51  1  0
 16 52  1  0
 17 53  1  6
 19 54  1  0
 19 55  1  0
 23 56  1  0
 24 57  1  0
 25 58  1  0
 26 59  1  0
 36 60  1  0
 37 61  1  0
 37 62  1  0
 38 63  1  0
 38 64  1  0
 39 65  1  0
 39 66  1  0
 42 67  1  0
M  END
$$$$
