
     RDKit          3D

 95 98  0  0  0  0  0  0  0  0999 V2000
    1.8759    0.3451   -2.5424 C   0  0  0  0  0  0  0  0  0  0  0  0
    2.1500   -0.6905   -1.4597 C   0  0  0  0  0  0  0  0  0  0  0  0
    1.6485   -0.2446   -0.1582 N   0  0  0  0  0  0  0  0  0  0  0  0
    0.2654   -0.1740    0.0337 C   0  0  0  0  0  0  0  0  0  0  0  0
   -0.3126    1.0876    0.2840 C   0  0  0  0  0  0  0  0  0  0  0  0
   -1.6883    1.2499    0.4646 C   0  0  0  0  0  0  0  0  0  0  0  0
   -2.2289    2.5462    0.7458 C   0  0  0  0  0  0  0  0  0  0  0  0
   -2.6758    3.6296    1.0114 C   0  0  0  0  0  0  0  0  0  0  0  0
   -3.2147    4.9479    1.3761 C   0  0  0  0  0  0  0  0  0  0  0  0
   -2.9007    5.9687    0.3678 N   0  0  0  0  0  0  0  0  0  0  0  0
   -1.4544    6.2840    0.3398 C   0  0  0  0  0  0  0  0  0  0  0  0
   -1.1493    7.4174   -0.6541 C   0  0  0  0  0  0  0  0  0  0  0  0
   -1.8844    8.6048   -0.3276 O   0  0  0  0  0  0  0  0  0  0  0  0
   -3.2905    8.3283   -0.3447 C   0  0  0  0  0  0  0  0  0  0  0  0
   -3.6465    7.2141    0.6537 C   0  0  0  0  0  0  0  0  0  0  0  0
   -2.5277    0.1471    0.3833 C   0  0  0  0  0  0  0  0  0  0  0  0
   -1.9759   -1.1181    0.1488 C   0  0  0  0  0  0  0  0  0  0  0  0
   -2.9028   -2.2750    0.0994 C   0  0  0  0  0  0  0  0  0  0  0  0
   -2.9235   -3.0112   -0.8781 O   0  0  0  0  0  0  0  0  0  0  0  0
   -3.6586   -2.4495    1.2424 N   0  0  0  0  0  0  0  0  0  0  0  0
   -4.3327   -3.7089    1.4969 C   0  0  0  0  0  0  0  0  0  0  0  0
   -5.5675   -3.8979    0.6596 C   0  0  0  0  0  0  0  0  0  0  0  0
   -6.5389   -2.9961    0.3774 C   0  0  0  0  0  0  0  0  0  0  0  0
   -6.6038   -1.5916    0.9091 C   0  0  0  0  0  0  0  0  0  0  0  0
   -7.6469   -3.3585   -0.4984 C   0  0  0  0  0  0  0  0  0  0  0  0
   -7.7425   -4.5894   -1.0210 C   0  0  0  0  0  0  0  0  0  0  0  0
   -8.8451   -5.0259   -1.9338 C   0  0  0  0  0  0  0  0  0  0  0  0
   -6.7870   -5.5219   -0.7099 N   0  0  0  0  0  0  0  0  0  0  0  0
   -5.7128   -5.2901    0.1094 C   0  0  0  0  0  0  0  0  0  0  0  0
   -4.9392   -6.2007    0.3992 O   0  0  0  0  0  0  0  0  0  0  0  0
   -0.5807   -1.3041   -0.0044 C   0  0  0  0  0  0  0  0  0  0  0  0
   -0.0417   -2.7026   -0.1736 C   0  0  0  0  0  0  0  0  0  0  0  0
    2.5226    0.1314    0.9726 C   0  0  1  0  0  0  0  0  0  0  0  0
    2.8687   -1.0924    1.8226 C   0  0  0  0  0  0  0  0  0  0  0  0
    4.0065   -1.9471    1.2706 C   0  0  0  0  0  0  0  0  0  0  0  0
    5.2161   -1.1509    0.7112 C   0  0  2  0  0  0  0  0  0  0  0  0
    6.4834   -1.7846    1.1507 N   0  0  0  0  0  0  0  0  0  0  0  0
    6.6356   -3.1500    0.6270 C   0  0  0  0  0  0  0  0  0  0  0  0
    7.7089   -1.0027    0.8932 C   0  0  0  0  0  0  0  0  0  0  0  0
    8.0411   -0.6631   -0.5711 C   0  0  0  0  0  0  0  0  0  0  0  0
    9.2573    0.0903   -0.5986 O   0  0  0  0  0  0  0  0  0  0  0  0
    9.5877    0.5080   -1.9170 C   0  0  0  0  0  0  0  0  0  0  0  0
    5.0836    0.3395    1.0836 C   0  0  0  0  0  0  0  0  0  0  0  0
    3.7683    0.9351    0.5663 C   0  0  0  0  0  0  0  0  0  0  0  0
    2.2854    1.3240   -2.2762 H   0  0  0  0  0  0  0  0  0  0  0  0
    0.8019    0.4691   -2.7156 H   0  0  0  0  0  0  0  0  0  0  0  0
    2.3303    0.0322   -3.4876 H   0  0  0  0  0  0  0  0  0  0  0  0
    1.7073   -1.6422   -1.7633 H   0  0  0  0  0  0  0  0  0  0  0  0
    3.2270   -0.8763   -1.4174 H   0  0  0  0  0  0  0  0  0  0  0  0
    0.3315    1.9655    0.3186 H   0  0  0  0  0  0  0  0  0  0  0  0
   -4.3041    4.8477    1.4638 H   0  0  0  0  0  0  0  0  0  0  0  0
   -2.8431    5.2402    2.3670 H   0  0  0  0  0  0  0  0  0  0  0  0
   -0.8734    5.4035    0.0421 H   0  0  0  0  0  0  0  0  0  0  0  0
   -1.1191    6.5925    1.3398 H   0  0  0  0  0  0  0  0  0  0  0  0
   -1.3829    7.1184   -1.6839 H   0  0  0  0  0  0  0  0  0  0  0  0
   -0.0841    7.6679   -0.6115 H   0  0  0  0  0  0  0  0  0  0  0  0
   -3.5969    8.0636   -1.3649 H   0  0  0  0  0  0  0  0  0  0  0  0
   -3.8121    9.2515   -0.0694 H   0  0  0  0  0  0  0  0  0  0  0  0
   -4.7245    7.0249    0.5975 H   0  0  0  0  0  0  0  0  0  0  0  0
   -3.4155    7.5621    1.6693 H   0  0  0  0  0  0  0  0  0  0  0  0
   -3.6031    0.2682    0.4924 H   0  0  0  0  0  0  0  0  0  0  0  0
   -3.3980   -1.9039    2.0535 H   0  0  0  0  0  0  0  0  0  0  0  0
   -4.6066   -3.7308    2.5573 H   0  0  0  0  0  0  0  0  0  0  0  0
   -3.5877   -4.4939    1.3313 H   0  0  0  0  0  0  0  0  0  0  0  0
   -6.3933   -0.8757    0.1116 H   0  0  0  0  0  0  0  0  0  0  0  0
   -7.6023   -1.3766    1.3107 H   0  0  0  0  0  0  0  0  0  0  0  0
   -5.9037   -1.4094    1.7282 H   0  0  0  0  0  0  0  0  0  0  0  0
   -8.3916   -2.6012   -0.7297 H   0  0  0  0  0  0  0  0  0  0  0  0
   -9.5771   -4.2301   -2.1056 H   0  0  0  0  0  0  0  0  0  0  0  0
   -8.4358   -5.3229   -2.9061 H   0  0  0  0  0  0  0  0  0  0  0  0
   -9.3778   -5.8824   -1.5056 H   0  0  0  0  0  0  0  0  0  0  0  0
   -6.8461   -6.4633   -1.0783 H   0  0  0  0  0  0  0  0  0  0  0  0
    1.0099   -2.7779    0.1124 H   0  0  0  0  0  0  0  0  0  0  0  0
   -0.1518   -3.0267   -1.2127 H   0  0  0  0  0  0  0  0  0  0  0  0
   -0.5707   -3.4081    0.4759 H   0  0  0  0  0  0  0  0  0  0  0  0
    1.9524    0.7946    1.6380 H   0  0  0  0  0  0  0  0  0  0  0  0
    1.9867   -1.7195    1.9974 H   0  0  0  0  0  0  0  0  0  0  0  0
    3.1706   -0.7369    2.8171 H   0  0  0  0  0  0  0  0  0  0  0  0
    3.6254   -2.6109    0.4845 H   0  0  0  0  0  0  0  0  0  0  0  0
    4.3182   -2.6049    2.0925 H   0  0  0  0  0  0  0  0  0  0  0  0
    5.1780   -1.2090   -0.3831 H   0  0  0  0  0  0  0  0  0  0  0  0
    5.8275   -3.8073    0.9622 H   0  0  0  0  0  0  0  0  0  0  0  0
    7.5593   -3.6061    1.0011 H   0  0  0  0  0  0  0  0  0  0  0  0
    6.6547   -3.1751   -0.4681 H   0  0  0  0  0  0  0  0  0  0  0  0
    7.6870   -0.0772    1.4817 H   0  0  0  0  0  0  0  0  0  0  0  0
    8.5676   -1.5393    1.3225 H   0  0  0  0  0  0  0  0  0  0  0  0
    8.1810   -1.5779   -1.1571 H   0  0  0  0  0  0  0  0  0  0  0  0
    7.2395   -0.0698   -1.0261 H   0  0  0  0  0  0  0  0  0  0  0  0
   10.5589    1.0088   -1.8847 H   0  0  0  0  0  0  0  0  0  0  0  0
    9.6501   -0.3495   -2.5912 H   0  0  0  0  0  0  0  0  0  0  0  0
    8.8407    1.2180   -2.2846 H   0  0  0  0  0  0  0  0  0  0  0  0
    5.1507    0.4657    2.1712 H   0  0  0  0  0  0  0  0  0  0  0  0
    5.8957    0.9335    0.6508 H   0  0  0  0  0  0  0  0  0  0  0  0
    3.6746    1.9539    0.9648 H   0  0  0  0  0  0  0  0  0  0  0  0
    3.8430    1.0654   -0.5160 H   0  0  0  0  0  0  0  0  0  0  0  0
  1  2  1  0
  2  3  1  0
  3  4  1  0
  4  5  2  0
  5  6  1  0
  6  7  1  0
  7  8  3  0
  8  9  1  0
  9 10  1  0
 10 11  1  0
 11 12  1  0
 12 13  1  0
 13 14  1  0
 14 15  1  0
  6 16  2  0
 16 17  1  0
 17 18  1  0
 18 19  2  0
 18 20  1  0
 20 21  1  0
 21 22  1  0
 22 23  2  0
 23 24  1  0
 23 25  1  0
 25 26  2  0
 26 27  1  0
 26 28  1  0
 28 29  1  0
 29 30  2  0
 17 31  2  0
 31 32  1  0
  3 33  1  0
 33 34  1  0
 34 35  1  0
 35 36  1  0
 36 37  1  0
 37 38  1  0
 37 39  1  0
 39 40  1  0
 40 41  1  0
 41 42  1  0
 36 43  1  0
 43 44  1  0
 31  4  1  0
 44 33  1  0
 15 10  1  0
 29 22  1  0
  1 45  1  0
  1 46  1  0
  1 47  1  0
  2 48  1  0
  2 49  1  0
  5 50  1  0
  9 51  1  0
  9 52  1  0
 11 53  1  0
 11 54  1  0
 12 55  1  0
 12 56  1  0
 14 57  1  0
 14 58  1  0
 15 59  1  0
 15 60  1  0
 16 61  1  0
 20 62  1  0
 21 63  1  0
 21 64  1  0
 24 65  1  0
 24 66  1  0
 24 67  1  0
 25 68  1  0
 27 69  1  0
 27 70  1  0
 27 71  1  0
 28 72  1  0
 32 73  1  0
 32 74  1  0
 32 75  1  0
 33 76  1  1
 34 77  1  0
 34 78  1  0
 35 79  1  0
 35 80  1  0
 36 81  1  6
 38 82  1  0
 38 83  1  0
 38 84  1  0
 39 85  1  0
 39 86  1  0
 40 87  1  0
 40 88  1  0
 42 89  1  0
 42 90  1  0
 42 91  1  0
 43 92  1  0
 43 93  1  0
 44 94  1  0
 44 95  1  0
M  END
$$$$
