
     RDKit          3D

 87 90  0  0  0  0  0  0  0  0999 V2000
    2.8960   -1.8506   -1.8143 C   0  0  0  0  0  0  0  0  0  0  0  0
    2.6553   -0.4483   -1.2379 C   0  0  1  0  0  0  0  0  0  0  0  0
    1.2902   -0.3139   -0.8454 O   0  0  0  0  0  0  0  0  0  0  0  0
    0.8789   -1.0028    0.3276 C   0  0  2  0  0  0  0  0  0  0  0  0
    0.0071   -0.1080    1.0306 O   0  0  0  0  0  0  0  0  0  0  0  0
   -1.3908   -0.3999    0.9216 C   0  0  2  0  0  0  0  0  0  0  0  0
   -2.0810    0.5847   -0.0420 C   0  0  1  0  0  0  0  0  0  0  0  0
   -2.0507    0.0661   -1.4884 C   0  0  0  0  0  0  0  0  0  0  0  0
   -2.5586    1.0415   -2.4023 O   0  0  0  0  0  0  0  0  0  0  0  0
   -3.4515    0.8534    0.3067 O   0  0  0  0  0  0  0  0  0  0  0  0
   -4.1015   -0.2159    0.9768 C   0  0  2  0  0  0  0  0  0  0  0  0
   -5.4980    0.0797    1.1070 O   0  0  0  0  0  0  0  0  0  0  0  0
   -6.2052    0.0142   -0.1437 C   0  0  2  0  0  0  0  0  0  0  0  0
   -6.8645    1.3615   -0.4989 C   0  0  1  0  0  0  0  0  0  0  0  0
   -5.8480    2.4726   -0.7762 C   0  0  0  0  0  0  0  0  0  0  0  0
   -5.0478    2.1352   -1.9172 O   0  0  0  0  0  0  0  0  0  0  0  0
   -7.6562    1.2375   -1.6975 O   0  0  0  0  0  0  0  0  0  0  0  0
   -8.7229    0.3003   -1.5684 C   0  0  0  0  0  0  0  0  0  0  0  0
   -9.6530    0.7315   -0.5755 O   0  0  0  0  0  0  0  0  0  0  0  0
   -8.1948   -1.1049   -1.2316 C   0  0  2  0  0  0  0  0  0  0  0  0
   -9.2928   -1.9957   -0.9843 O   0  0  0  0  0  0  0  0  0  0  0  0
   -7.3130   -1.0409    0.0148 C   0  0  1  0  0  0  0  0  0  0  0  0
   -6.7369   -2.3420    0.2383 O   0  0  0  0  0  0  0  0  0  0  0  0
   -3.4924   -0.3557    2.3856 C   0  0  2  0  0  0  0  0  0  0  0  0
   -3.9762    0.6854    3.2610 O   0  0  0  0  0  0  0  0  0  0  0  0
   -1.9598   -0.2623    2.3403 C   0  0  1  0  0  0  0  0  0  0  0  0
   -1.3908   -1.3050    3.1578 O   0  0  0  0  0  0  0  0  0  0  0  0
    2.0190   -1.3898    1.2900 C   0  0  2  0  0  0  0  0  0  0  0  0
    1.5236   -1.6310    2.6201 O   0  0  0  0  0  0  0  0  0  0  0  0
    3.0618   -0.2775    1.2997 C   0  0  1  0  0  0  0  0  0  0  0  0
    4.0619   -0.5988    2.2868 O   0  0  0  0  0  0  0  0  0  0  0  0
    3.6637   -0.0469   -0.1187 C   0  0  2  0  0  0  0  0  0  0  0  0
    4.0370    1.3910   -0.2749 N   0  0  0  0  0  0  0  0  0  0  0  0
    5.4822    1.6762   -0.4052 C   0  0  1  0  0  0  0  0  0  0  0  0
    6.2735    1.1134    0.7441 C   0  0  0  0  0  0  0  0  0  0  0  0
    7.4404    0.4556    0.6085 C   0  0  0  0  0  0  0  0  0  0  0  0
    8.1136   -0.1921    1.7808 C   0  0  0  0  0  0  0  0  0  0  0  0
    7.9387   -1.6033    1.6931 O   0  0  0  0  0  0  0  0  0  0  0  0
    8.1294    0.3190   -0.7221 C   0  0  1  0  0  0  0  0  0  0  0  0
    8.0096   -1.0619   -1.0826 O   0  0  0  0  0  0  0  0  0  0  0  0
    7.5957    1.3029   -1.8031 C   0  0  2  0  0  0  0  0  0  0  0  0
    8.1187    2.6246   -1.6134 O   0  0  0  0  0  0  0  0  0  0  0  0
    6.0601    1.3541   -1.8235 C   0  0  1  0  0  0  0  0  0  0  0  0
    5.5811    0.1168   -2.3789 O   0  0  0  0  0  0  0  0  0  0  0  0
    2.8178   -2.6429   -1.0643 H   0  0  0  0  0  0  0  0  0  0  0  0
    3.8840   -1.9237   -2.2760 H   0  0  0  0  0  0  0  0  0  0  0  0
    2.1469   -2.0711   -2.5802 H   0  0  0  0  0  0  0  0  0  0  0  0
    2.7825    0.2372   -2.0862 H   0  0  0  0  0  0  0  0  0  0  0  0
    0.3501   -1.9138    0.0317 H   0  0  0  0  0  0  0  0  0  0  0  0
   -1.5435   -1.4373    0.6043 H   0  0  0  0  0  0  0  0  0  0  0  0
   -1.5713    1.5570   -0.0118 H   0  0  0  0  0  0  0  0  0  0  0  0
   -1.0341   -0.1708   -1.8015 H   0  0  0  0  0  0  0  0  0  0  0  0
   -2.6675   -0.8333   -1.6042 H   0  0  0  0  0  0  0  0  0  0  0  0
   -3.3767    1.4252   -1.9966 H   0  0  0  0  0  0  0  0  0  0  0  0
   -3.9853   -1.1571    0.4227 H   0  0  0  0  0  0  0  0  0  0  0  0
   -5.5439   -0.3127   -0.9554 H   0  0  0  0  0  0  0  0  0  0  0  0
   -7.4948    1.7048    0.3336 H   0  0  0  0  0  0  0  0  0  0  0  0
   -6.3640    3.4072   -1.0141 H   0  0  0  0  0  0  0  0  0  0  0  0
   -5.2050    2.6683    0.0791 H   0  0  0  0  0  0  0  0  0  0  0  0
   -5.6810    2.0762   -2.6585 H   0  0  0  0  0  0  0  0  0  0  0  0
   -9.2615    0.2689   -2.5218 H   0  0  0  0  0  0  0  0  0  0  0  0
  -10.1895   -0.0649   -0.3761 H   0  0  0  0  0  0  0  0  0  0  0  0
   -7.6198   -1.5023   -2.0791 H   0  0  0  0  0  0  0  0  0  0  0  0
   -8.8821   -2.8245   -0.6649 H   0  0  0  0  0  0  0  0  0  0  0  0
   -7.9252   -0.8273    0.9006 H   0  0  0  0  0  0  0  0  0  0  0  0
   -6.3193   -2.2934    1.1164 H   0  0  0  0  0  0  0  0  0  0  0  0
   -3.8299   -1.2885    2.8453 H   0  0  0  0  0  0  0  0  0  0  0  0
   -4.5975    1.2235    2.7259 H   0  0  0  0  0  0  0  0  0  0  0  0
   -1.6170    0.6800    2.7858 H   0  0  0  0  0  0  0  0  0  0  0  0
   -0.4124   -1.2103    3.0808 H   0  0  0  0  0  0  0  0  0  0  0  0
    2.4893   -2.3278    0.9841 H   0  0  0  0  0  0  0  0  0  0  0  0
    2.2996   -1.5079    3.2053 H   0  0  0  0  0  0  0  0  0  0  0  0
    2.5759    0.6323    1.6724 H   0  0  0  0  0  0  0  0  0  0  0  0
    4.8317   -1.0027    1.8445 H   0  0  0  0  0  0  0  0  0  0  0  0
    4.5602   -0.6672   -0.2365 H   0  0  0  0  0  0  0  0  0  0  0  0
    3.6793    1.9355    0.5150 H   0  0  0  0  0  0  0  0  0  0  0  0
    5.5798    2.7663   -0.2948 H   0  0  0  0  0  0  0  0  0  0  0  0
    5.8480    1.2354    1.7410 H   0  0  0  0  0  0  0  0  0  0  0  0
    7.6914    0.1414    2.7365 H   0  0  0  0  0  0  0  0  0  0  0  0
    9.1859    0.0293    1.8055 H   0  0  0  0  0  0  0  0  0  0  0  0
    8.0229   -1.8227    0.7335 H   0  0  0  0  0  0  0  0  0  0  0  0
    9.2020    0.5163   -0.5910 H   0  0  0  0  0  0  0  0  0  0  0  0
    7.9177   -1.1097   -2.0563 H   0  0  0  0  0  0  0  0  0  0  0  0
    7.9439    0.9580   -2.7857 H   0  0  0  0  0  0  0  0  0  0  0  0
    9.0879    2.5693   -1.6345 H   0  0  0  0  0  0  0  0  0  0  0  0
    5.7320    2.1553   -2.4991 H   0  0  0  0  0  0  0  0  0  0  0  0
    5.1420    0.3548   -3.2197 H   0  0  0  0  0  0  0  0  0  0  0  0
  1  2  1  0
  2  3  1  0
  3  4  1  0
  4  5  1  0
  5  6  1  0
  6  7  1  0
  7  8  1  0
  8  9  1  0
  7 10  1  0
 10 11  1  0
 11 12  1  0
 12 13  1  0
 13 14  1  0
 14 15  1  0
 15 16  1  0
 14 17  1  0
 17 18  1  0
 18 19  1  0
 18 20  1  0
 20 21  1  0
 20 22  1  0
 22 23  1  0
 11 24  1  0
 24 25  1  0
 24 26  1  0
 26 27  1  0
  4 28  1  0
 28 29  1  0
 28 30  1  0
 30 31  1  0
 30 32  1  0
 32 33  1  0
 33 34  1  0
 34 35  1  0
 35 36  2  0
 36 37  1  0
 37 38  1  0
 36 39  1  0
 39 40  1  0
 39 41  1  0
 41 42  1  0
 41 43  1  0
 43 44  1  0
 32  2  1  0
 43 34  1  0
 26  6  1  0
 22 13  1  0
  1 45  1  0
  1 46  1  0
  1 47  1  0
  2 48  1  6
  4 49  1  6
  6 50  1  6
  7 51  1  6
  8 52  1  0
  8 53  1  0
  9 54  1  0
 11 55  1  6
 13 56  1  6
 14 57  1  1
 15 58  1  0
 15 59  1  0
 16 60  1  0
 18 61  1  0
 19 62  1  0
 20 63  1  6
 21 64  1  0
 22 65  1  1
 23 66  1  0
 24 67  1  1
 25 68  1  0
 26 69  1  1
 27 70  1  0
 28 71  1  6
 29 72  1  0
 30 73  1  1
 31 74  1  0
 32 75  1  1
 33 76  1  0
 34 77  1  1
 35 78  1  0
 37 79  1  0
 37 80  1  0
 38 81  1  0
 39 82  1  1
 40 83  1  0
 41 84  1  6
 42 85  1  0
 43 86  1  6
 44 87  1  0
M  END
$$$$
