
     RDKit          3D

 48 51  0  0  0  0  0  0  0  0999 V2000
   -6.0877   -1.7011    2.5103 C   0  0  0  0  0  0  0  0  0  0  0  0
   -5.5163   -0.5057    1.8074 C   0  0  0  0  0  0  0  0  0  0  0  0
   -6.1175    0.7468    1.9260 C   0  0  0  0  0  0  0  0  0  0  0  0
   -5.5495    1.8480    1.2946 C   0  0  0  0  0  0  0  0  0  0  0  0
   -4.3731    1.7050    0.5489 C   0  0  0  0  0  0  0  0  0  0  0  0
   -3.7308    0.4653    0.4075 C   0  0  0  0  0  0  0  0  0  0  0  0
   -2.5520    0.3113   -0.3162 N   0  0  0  0  0  0  0  0  0  0  0  0
   -2.3143   -0.9670   -1.0247 C   0  0  0  0  0  0  0  0  0  0  0  0
   -1.4273   -0.7717   -2.2677 C   0  0  0  0  0  0  0  0  0  0  0  0
   -0.1695   -0.0999   -1.9315 N   0  0  0  0  0  0  0  0  0  0  0  0
    1.0211   -0.8377   -1.9971 C   0  0  0  0  0  0  0  0  0  0  0  0
    1.0054   -2.0315   -2.3045 O   0  0  0  0  0  0  0  0  0  0  0  0
    2.2621   -0.1808   -1.6540 C   0  0  0  0  0  0  0  0  0  0  0  0
    2.7979    1.2051   -2.4881 S   0  0  0  0  0  0  0  0  0  0  0  0
    4.2115    1.3888   -1.6543 N   0  0  0  0  0  0  0  0  0  0  0  0
    4.3459    0.3886   -0.7738 C   0  0  0  0  0  0  0  0  0  0  0  0
    5.5404    0.3514    0.0771 C   0  0  0  0  0  0  0  0  0  0  0  0
    5.4384    0.0789    1.4428 C   0  0  0  0  0  0  0  0  0  0  0  0
    6.5981    0.0572    2.1982 C   0  0  0  0  0  0  0  0  0  0  0  0
    7.8280    0.2836    1.6913 N   0  0  0  0  0  0  0  0  0  0  0  0
    7.9010    0.5623    0.3720 C   0  0  0  0  0  0  0  0  0  0  0  0
    6.8009    0.6099   -0.4663 C   0  0  0  0  0  0  0  0  0  0  0  0
    3.2581   -0.5731   -0.7814 C   0  0  0  0  0  0  0  0  0  0  0  0
    3.1995   -1.7154   -0.0412 N   0  0  0  0  0  0  0  0  0  0  0  0
   -0.3111    1.0850   -1.0684 C   0  0  0  0  0  0  0  0  0  0  0  0
   -1.7742    1.4759   -0.7680 C   0  0  0  0  0  0  0  0  0  0  0  0
   -4.3289   -0.6271    1.0633 C   0  0  0  0  0  0  0  0  0  0  0  0
   -7.1437   -1.5467    2.7600 H   0  0  0  0  0  0  0  0  0  0  0  0
   -6.0316   -2.5884    1.8678 H   0  0  0  0  0  0  0  0  0  0  0  0
   -5.5322   -1.8929    3.4359 H   0  0  0  0  0  0  0  0  0  0  0  0
   -7.0255    0.8730    2.5096 H   0  0  0  0  0  0  0  0  0  0  0  0
   -6.0201    2.8246    1.3784 H   0  0  0  0  0  0  0  0  0  0  0  0
   -3.9828    2.5947    0.0636 H   0  0  0  0  0  0  0  0  0  0  0  0
   -1.8250   -1.6646   -0.3343 H   0  0  0  0  0  0  0  0  0  0  0  0
   -3.2593   -1.4134   -1.3570 H   0  0  0  0  0  0  0  0  0  0  0  0
   -1.9411   -0.1342   -2.9978 H   0  0  0  0  0  0  0  0  0  0  0  0
   -1.2513   -1.7355   -2.7560 H   0  0  0  0  0  0  0  0  0  0  0  0
    4.4791   -0.0977    1.9182 H   0  0  0  0  0  0  0  0  0  0  0  0
    6.5675   -0.1474    3.2649 H   0  0  0  0  0  0  0  0  0  0  0  0
    8.9009    0.7528   -0.0070 H   0  0  0  0  0  0  0  0  0  0  0  0
    6.9260    0.8418   -1.5193 H   0  0  0  0  0  0  0  0  0  0  0  0
    2.5611   -2.4516   -0.3523 H   0  0  0  0  0  0  0  0  0  0  0  0
    4.0700   -2.1241    0.2953 H   0  0  0  0  0  0  0  0  0  0  0  0
    0.2054    0.8743   -0.1237 H   0  0  0  0  0  0  0  0  0  0  0  0
    0.1877    1.9311   -1.5484 H   0  0  0  0  0  0  0  0  0  0  0  0
   -1.7496    2.2587   -0.0004 H   0  0  0  0  0  0  0  0  0  0  0  0
   -2.2392    1.8974   -1.6676 H   0  0  0  0  0  0  0  0  0  0  0  0
   -3.8524   -1.6040    1.0223 H   0  0  0  0  0  0  0  0  0  0  0  0
  1  2  1  0
  2  3  2  0
  3  4  1  0
  4  5  2  0
  5  6  1  0
  6  7  1  0
  7  8  1  0
  8  9  1  0
  9 10  1  0
 10 11  1  0
 11 12  2  0
 11 13  1  0
 13 14  1  0
 14 15  1  0
 15 16  2  0
 16 17  1  0
 17 18  2  0
 18 19  1  0
 19 20  2  0
 20 21  1  0
 21 22  2  0
 16 23  1  0
 23 24  1  0
 10 25  1  0
 25 26  1  0
  6 27  2  0
 27  2  1  0
 26  7  1  0
 23 13  2  0
 22 17  1  0
  1 28  1  0
  1 29  1  0
  1 30  1  0
  3 31  1  0
  4 32  1  0
  5 33  1  0
  8 34  1  0
  8 35  1  0
  9 36  1  0
  9 37  1  0
 18 38  1  0
 19 39  1  0
 21 40  1  0
 22 41  1  0
 24 42  1  0
 24 43  1  0
 25 44  1  0
 25 45  1  0
 26 46  1  0
 26 47  1  0
 27 48  1  0
M  END
$$$$
