
     RDKit          3D

 82 84  0  0  0  0  0  0  0  0999 V2000
   -2.4012    4.1186    0.3770 C   0  0  0  0  0  0  0  0  0  0  0  0
   -2.9426    3.3440    1.5909 C   0  0  0  0  0  0  0  0  0  0  0  0
   -1.9598    3.4650    2.7723 C   0  0  0  0  0  0  0  0  0  0  0  0
   -4.2823    3.9702    2.0235 C   0  0  0  0  0  0  0  0  0  0  0  0
   -3.2036    1.9422    1.2345 N   0  0  0  0  0  0  0  0  0  0  0  0
   -2.2247    1.0315    0.9177 C   0  0  0  0  0  0  0  0  0  0  0  0
   -1.0167    1.2260    0.9566 O   0  0  0  0  0  0  0  0  0  0  0  0
   -2.7779   -0.1693    0.5691 N   0  0  0  0  0  0  0  0  0  0  0  0
   -1.9816   -1.2819    0.0416 C   0  0  2  0  0  0  0  0  0  0  0  0
   -1.9464   -1.0627   -1.5003 C   0  0  0  0  0  0  0  0  0  0  0  0
   -2.9817   -0.7316   -2.0946 O   0  0  0  0  0  0  0  0  0  0  0  0
   -0.7705   -1.2568   -2.1951 N   0  0  0  0  0  0  0  0  0  0  0  0
   -0.7351   -1.0172   -3.6336 C   0  0  0  0  0  0  0  0  0  0  0  0
    0.5334   -1.6651   -4.0992 C   0  0  1  0  0  0  0  0  0  0  0  0
    1.3079   -2.1071   -2.8930 C   0  0  1  0  0  0  0  0  0  0  0  0
    0.5495   -1.6187   -1.6701 C   0  0  1  0  0  0  0  0  0  0  0  0
    1.3231   -0.3953   -1.0934 C   0  0  0  0  0  0  0  0  0  0  0  0
    1.3876    0.6901   -1.6695 O   0  0  0  0  0  0  0  0  0  0  0  0
    2.0546   -0.6800    0.0454 N   0  0  0  0  0  0  0  0  0  0  0  0
    2.9951    0.2843    0.6324 C   0  0  0  0  0  0  0  0  0  0  0  0
    2.2599    1.3694    1.4222 C   0  0  0  0  0  0  0  0  0  0  0  0
    3.1845    2.5093    1.8666 C   0  0  0  0  0  0  0  0  0  0  0  0
    2.4522    3.7005    2.5408 C   0  0  0  0  0  0  0  0  0  0  0  0
    2.4963    4.4320    1.1859 C   0  0  0  0  0  0  0  0  0  0  0  0
    3.6623    3.5135    0.7802 C   0  0  0  0  0  0  0  0  0  0  0  0
    3.8942   -0.5485    1.5497 C   0  0  0  0  0  0  0  0  0  0  0  0
    3.5159   -1.5244    2.2039 O   0  0  0  0  0  0  0  0  0  0  0  0
    5.3581   -0.1257    1.6532 C   0  0  0  0  0  0  0  0  0  0  0  0
    6.0511   -0.7118    2.6856 N   0  0  0  0  0  0  0  0  0  0  0  0
    5.8691    0.6633    0.8770 O   0  0  0  0  0  0  0  0  0  0  0  0
    0.8449   -3.1435   -3.9193 C   0  0  0  0  0  0  0  0  0  0  0  0
    1.9079   -3.7268   -4.8168 C   0  0  0  0  0  0  0  0  0  0  0  0
   -0.2469   -4.1206   -3.5811 C   0  0  0  0  0  0  0  0  0  0  0  0
   -2.5778   -2.6590    0.4942 C   0  0  0  0  0  0  0  0  0  0  0  0
   -1.6215   -3.8180    0.1581 C   0  0  0  0  0  0  0  0  0  0  0  0
   -3.9476   -2.9581   -0.1595 C   0  0  0  0  0  0  0  0  0  0  0  0
   -2.7847   -2.6618    2.0306 C   0  0  0  0  0  0  0  0  0  0  0  0
   -2.2450    5.1755    0.6217 H   0  0  0  0  0  0  0  0  0  0  0  0
   -1.4362    3.7177    0.0434 H   0  0  0  0  0  0  0  0  0  0  0  0
   -3.0912    4.0594   -0.4763 H   0  0  0  0  0  0  0  0  0  0  0  0
   -0.9692    3.0720    2.5239 H   0  0  0  0  0  0  0  0  0  0  0  0
   -2.3183    2.9052    3.6480 H   0  0  0  0  0  0  0  0  0  0  0  0
   -1.8291    4.5109    3.0793 H   0  0  0  0  0  0  0  0  0  0  0  0
   -4.1661    5.0359    2.2666 H   0  0  0  0  0  0  0  0  0  0  0  0
   -5.0406    3.8846    1.2308 H   0  0  0  0  0  0  0  0  0  0  0  0
   -4.6785    3.4620    2.9151 H   0  0  0  0  0  0  0  0  0  0  0  0
   -4.0237    1.8153    0.6500 H   0  0  0  0  0  0  0  0  0  0  0  0
   -3.7839   -0.2810    0.6722 H   0  0  0  0  0  0  0  0  0  0  0  0
   -0.9716   -1.1773    0.4482 H   0  0  0  0  0  0  0  0  0  0  0  0
   -1.6214   -1.4308   -4.1270 H   0  0  0  0  0  0  0  0  0  0  0  0
   -0.7075    0.0669   -3.7988 H   0  0  0  0  0  0  0  0  0  0  0  0
    1.0327   -1.1006   -4.8790 H   0  0  0  0  0  0  0  0  0  0  0  0
    2.3682   -1.8954   -2.8367 H   0  0  0  0  0  0  0  0  0  0  0  0
    0.4595   -2.4044   -0.9208 H   0  0  0  0  0  0  0  0  0  0  0  0
    1.7971   -1.4745    0.6278 H   0  0  0  0  0  0  0  0  0  0  0  0
    3.5799    0.7033   -0.1921 H   0  0  0  0  0  0  0  0  0  0  0  0
    1.7962    0.9187    2.3079 H   0  0  0  0  0  0  0  0  0  0  0  0
    1.4487    1.7804    0.8122 H   0  0  0  0  0  0  0  0  0  0  0  0
    4.0047    2.1397    2.4968 H   0  0  0  0  0  0  0  0  0  0  0  0
    1.4451    3.5105    2.9332 H   0  0  0  0  0  0  0  0  0  0  0  0
    3.0441    4.2037    3.3274 H   0  0  0  0  0  0  0  0  0  0  0  0
    2.7260    5.4980    1.2311 H   0  0  0  0  0  0  0  0  0  0  0  0
    1.5971    4.2946    0.5676 H   0  0  0  0  0  0  0  0  0  0  0  0
    3.6434    3.1721   -0.2576 H   0  0  0  0  0  0  0  0  0  0  0  0
    4.6524    3.9448    0.9906 H   0  0  0  0  0  0  0  0  0  0  0  0
    7.0502   -0.5768    2.7161 H   0  0  0  0  0  0  0  0  0  0  0  0
    5.6390   -1.4833    3.2060 H   0  0  0  0  0  0  0  0  0  0  0  0
    2.7221   -3.0205   -4.9989 H   0  0  0  0  0  0  0  0  0  0  0  0
    2.3486   -4.6196   -4.3624 H   0  0  0  0  0  0  0  0  0  0  0  0
    1.4789   -3.9927   -5.7891 H   0  0  0  0  0  0  0  0  0  0  0  0
   -0.6078   -4.6141   -4.4866 H   0  0  0  0  0  0  0  0  0  0  0  0
   -1.1163   -3.6611   -3.1043 H   0  0  0  0  0  0  0  0  0  0  0  0
    0.1335   -4.8927   -2.9044 H   0  0  0  0  0  0  0  0  0  0  0  0
   -0.6427   -3.6803    0.6313 H   0  0  0  0  0  0  0  0  0  0  0  0
   -1.4775   -3.9258   -0.9176 H   0  0  0  0  0  0  0  0  0  0  0  0
   -2.0220   -4.7710    0.5136 H   0  0  0  0  0  0  0  0  0  0  0  0
   -3.8817   -3.0411   -1.2522 H   0  0  0  0  0  0  0  0  0  0  0  0
   -4.3560   -3.9059    0.2081 H   0  0  0  0  0  0  0  0  0  0  0  0
   -4.6928   -2.1874    0.0787 H   0  0  0  0  0  0  0  0  0  0  0  0
   -3.0424   -3.6651    2.3954 H   0  0  0  0  0  0  0  0  0  0  0  0
   -1.8838   -2.3446    2.5557 H   0  0  0  0  0  0  0  0  0  0  0  0
   -3.6071   -2.0012    2.3214 H   0  0  0  0  0  0  0  0  0  0  0  0
  1  2  1  0
  2  3  1  0
  2  4  1  0
  2  5  1  0
  5  6  1  0
  6  7  2  0
  6  8  1  0
  8  9  1  0
  9 10  1  0
 10 11  2  0
 10 12  1  0
 12 13  1  0
 13 14  1  0
 14 15  1  0
 15 16  1  0
 16 17  1  0
 17 18  2  0
 17 19  1  0
 19 20  1  0
 20 21  1  0
 21 22  1  0
 22 23  1  0
 23 24  1  0
 24 25  1  0
 20 26  1  0
 26 27  2  0
 26 28  1  0
 28 29  1  0
 28 30  2  0
 15 31  1  0
 31 32  1  0
 31 33  1  0
  9 34  1  0
 34 35  1  0
 34 36  1  0
 34 37  1  0
 16 12  1  0
 25 22  1  0
 31 14  1  0
  1 38  1  0
  1 39  1  0
  1 40  1  0
  3 41  1  0
  3 42  1  0
  3 43  1  0
  4 44  1  0
  4 45  1  0
  4 46  1  0
  5 47  1  0
  8 48  1  0
  9 49  1  1
 13 50  1  0
 13 51  1  0
 14 52  1  6
 15 53  1  6
 16 54  1  1
 19 55  1  0
 20 56  1  0
 21 57  1  0
 21 58  1  0
 22 59  1  0
 23 60  1  0
 23 61  1  0
 24 62  1  0
 24 63  1  0
 25 64  1  0
 25 65  1  0
 29 66  1  0
 29 67  1  0
 32 68  1  0
 32 69  1  0
 32 70  1  0
 33 71  1  0
 33 72  1  0
 33 73  1  0
 35 74  1  0
 35 75  1  0
 35 76  1  0
 36 77  1  0
 36 78  1  0
 36 79  1  0
 37 80  1  0
 37 81  1  0
 37 82  1  0
M  END
$$$$
