
     RDKit          3D

 44 46  0  0  0  0  0  0  0  0999 V2000
    6.2737    2.9847   -0.6215 C   0  0  0  0  0  0  0  0  0  0  0  0
    6.0904    1.6156   -1.0451 N   0  0  0  0  0  0  0  0  0  0  0  0
    7.0553    1.0978   -1.8381 N   0  0  0  0  0  0  0  0  0  0  0  0
    6.4988   -0.0038   -2.3364 C   0  0  0  0  0  0  0  0  0  0  0  0
    5.1993   -0.2141   -1.8463 C   0  0  0  0  0  0  0  0  0  0  0  0
    4.2553   -1.5598   -2.2693 Cl  0  0  0  0  0  0  0  0  0  0  0  0
    4.9678    0.8185   -0.9518 C   0  0  0  0  0  0  0  0  0  0  0  0
    3.6799    1.0155   -0.0643 C   0  0  0  0  0  0  0  0  0  0  0  0
    2.4049    0.4326   -0.3244 C   0  0  0  0  0  0  0  0  0  0  0  0
    1.5398    0.8626    0.6630 C   0  0  0  0  0  0  0  0  0  0  0  0
    0.1292    0.6391    0.9170 C   0  0  0  0  0  0  0  0  0  0  0  0
   -0.5001    1.1990    1.8116 O   0  0  0  0  0  0  0  0  0  0  0  0
   -0.4736   -0.2811    0.0804 N   0  0  0  0  0  0  0  0  0  0  0  0
   -1.8241   -0.7881    0.3385 C   0  0  2  0  0  0  0  0  0  0  0  0
   -2.0366   -2.0765   -0.4971 C   0  0  0  0  0  0  0  0  0  0  0  0
   -0.8631   -2.9634   -0.4161 N   0  0  0  0  0  0  0  0  0  0  0  0
   -2.9036    0.2690    0.0203 C   0  0  0  0  0  0  0  0  0  0  0  0
   -4.2842   -0.1247    0.4922 C   0  0  0  0  0  0  0  0  0  0  0  0
   -4.6038   -0.0685    1.8595 C   0  0  0  0  0  0  0  0  0  0  0  0
   -5.8743   -0.4388    2.3070 C   0  0  0  0  0  0  0  0  0  0  0  0
   -6.8279   -0.8648    1.3894 C   0  0  0  0  0  0  0  0  0  0  0  0
   -8.0443   -1.2227    1.8229 F   0  0  0  0  0  0  0  0  0  0  0  0
   -6.5229   -0.9202    0.0354 C   0  0  0  0  0  0  0  0  0  0  0  0
   -7.4426   -1.3332   -0.8477 F   0  0  0  0  0  0  0  0  0  0  0  0
   -5.2594   -0.5525   -0.4203 C   0  0  0  0  0  0  0  0  0  0  0  0
    2.2306    1.6537    1.5332 O   0  0  0  0  0  0  0  0  0  0  0  0
    3.5264    1.7239    1.1162 C   0  0  0  0  0  0  0  0  0  0  0  0
    4.7015    2.5014    2.1048 Cl  0  0  0  0  0  0  0  0  0  0  0  0
    6.8347    3.5204   -1.3938 H   0  0  0  0  0  0  0  0  0  0  0  0
    6.8479    2.9840    0.3066 H   0  0  0  0  0  0  0  0  0  0  0  0
    5.3033    3.4707   -0.5097 H   0  0  0  0  0  0  0  0  0  0  0  0
    7.0648   -0.6103   -3.0316 H   0  0  0  0  0  0  0  0  0  0  0  0
    2.1238   -0.1872   -1.1626 H   0  0  0  0  0  0  0  0  0  0  0  0
    0.1253   -0.9482   -0.3963 H   0  0  0  0  0  0  0  0  0  0  0  0
   -1.8588   -1.0520    1.4040 H   0  0  0  0  0  0  0  0  0  0  0  0
   -2.1834   -1.8184   -1.5522 H   0  0  0  0  0  0  0  0  0  0  0  0
   -2.9258   -2.6166   -0.1558 H   0  0  0  0  0  0  0  0  0  0  0  0
   -0.7537   -3.2786    0.5500 H   0  0  0  0  0  0  0  0  0  0  0  0
   -1.0548   -3.8094   -0.9560 H   0  0  0  0  0  0  0  0  0  0  0  0
   -2.9182    0.4728   -1.0587 H   0  0  0  0  0  0  0  0  0  0  0  0
   -2.6568    1.2319    0.4842 H   0  0  0  0  0  0  0  0  0  0  0  0
   -3.8626    0.2733    2.5822 H   0  0  0  0  0  0  0  0  0  0  0  0
   -6.1252   -0.3939    3.3623 H   0  0  0  0  0  0  0  0  0  0  0  0
   -5.0527   -0.6021   -1.4856 H   0  0  0  0  0  0  0  0  0  0  0  0
  1  2  1  0
  2  3  1  0
  3  4  2  0
  4  5  1  0
  5  6  1  0
  5  7  2  0
  7  8  1  0
  8  9  1  0
  9 10  2  0
 10 11  1  0
 11 12  2  0
 11 13  1  0
 13 14  1  0
 14 15  1  0
 15 16  1  0
 14 17  1  0
 17 18  1  0
 18 19  2  0
 19 20  1  0
 20 21  2  0
 21 22  1  0
 21 23  1  0
 23 24  1  0
 23 25  2  0
 10 26  1  0
 26 27  1  0
 27 28  1  0
  7  2  1  0
 27  8  2  0
 25 18  1  0
  1 29  1  0
  1 30  1  0
  1 31  1  0
  4 32  1  0
  9 33  1  0
 13 34  1  0
 14 35  1  1
 15 36  1  0
 15 37  1  0
 16 38  1  0
 16 39  1  0
 17 40  1  0
 17 41  1  0
 19 42  1  0
 20 43  1  0
 25 44  1  0
M  END
$$$$
