
     RDKit          3D

 38 40  0  0  0  0  0  0  0  0999 V2000
   -6.7275   -0.9067   -0.2428 C   0  0  0  0  0  0  0  0  0  0  0  0
   -6.3933    0.2698    0.6547 C   0  0  0  0  0  0  0  0  0  0  0  0
   -5.5162    1.1825   -0.0299 O   0  0  0  0  0  0  0  0  0  0  0  0
   -4.1836    0.9513    0.0380 C   0  0  0  0  0  0  0  0  0  0  0  0
   -3.4861    2.0082   -0.7241 C   0  0  0  0  0  0  0  0  0  0  0  0
   -2.1494    1.9317   -0.7650 C   0  0  0  0  0  0  0  0  0  0  0  0
   -1.4984    0.8711   -0.0937 C   0  0  0  0  0  0  0  0  0  0  0  0
   -0.2217    0.5712    0.0211 N   0  0  0  0  0  0  0  0  0  0  0  0
   -0.1883   -0.5829    0.7967 C   0  0  0  0  0  0  0  0  0  0  0  0
    1.0551   -1.2541    1.1718 C   0  0  0  0  0  0  0  0  0  0  0  0
    1.0966   -2.2443    1.8936 O   0  0  0  0  0  0  0  0  0  0  0  0
    2.1646   -0.6430    0.6386 N   0  0  0  0  0  0  0  0  0  0  0  0
    3.4918   -0.9957    1.0661 C   0  0  0  0  0  0  0  0  0  0  0  0
    4.5327   -0.4512    0.1246 C   0  0  0  0  0  0  0  0  0  0  0  0
    5.0026   -1.2734   -0.9155 C   0  0  0  0  0  0  0  0  0  0  0  0
    5.9568   -0.8089   -1.8226 C   0  0  0  0  0  0  0  0  0  0  0  0
    6.4509    0.4875   -1.7107 C   0  0  0  0  0  0  0  0  0  0  0  0
    5.9854    1.3216   -0.6950 C   0  0  0  0  0  0  0  0  0  0  0  0
    5.0290    0.8587    0.2148 C   0  0  0  0  0  0  0  0  0  0  0  0
    4.4807    1.9605    1.4276 Cl  0  0  0  0  0  0  0  0  0  0  0  0
   -1.4684   -0.9631    1.1450 C   0  0  0  0  0  0  0  0  0  0  0  0
   -2.2993   -0.0411    0.5783 N   0  0  0  0  0  0  0  0  0  0  0  0
   -3.6575   -0.0421    0.6726 N   0  0  0  0  0  0  0  0  0  0  0  0
   -5.8291   -1.4785   -0.4951 H   0  0  0  0  0  0  0  0  0  0  0  0
   -7.4414   -1.5761    0.2454 H   0  0  0  0  0  0  0  0  0  0  0  0
   -7.1586   -0.5588   -1.1874 H   0  0  0  0  0  0  0  0  0  0  0  0
   -7.3078    0.8245    0.8888 H   0  0  0  0  0  0  0  0  0  0  0  0
   -5.9641   -0.0576    1.6082 H   0  0  0  0  0  0  0  0  0  0  0  0
   -4.0565    2.7870   -1.2105 H   0  0  0  0  0  0  0  0  0  0  0  0
   -1.5516    2.6610   -1.2988 H   0  0  0  0  0  0  0  0  0  0  0  0
    1.9962    0.2566    0.1971 H   0  0  0  0  0  0  0  0  0  0  0  0
    3.6395   -0.6292    2.0879 H   0  0  0  0  0  0  0  0  0  0  0  0
    3.5679   -2.0885    1.1295 H   0  0  0  0  0  0  0  0  0  0  0  0
    4.6203   -2.2874   -1.0247 H   0  0  0  0  0  0  0  0  0  0  0  0
    6.3110   -1.4599   -2.6185 H   0  0  0  0  0  0  0  0  0  0  0  0
    7.1930    0.8511   -2.4168 H   0  0  0  0  0  0  0  0  0  0  0  0
    6.3692    2.3360   -0.6195 H   0  0  0  0  0  0  0  0  0  0  0  0
   -1.8445   -1.7880    1.7316 H   0  0  0  0  0  0  0  0  0  0  0  0
  1  2  1  0
  2  3  1  0
  3  4  1  0
  4  5  1  0
  5  6  2  0
  6  7  1  0
  7  8  2  0
  8  9  1  0
  9 10  1  0
 10 11  2  0
 10 12  1  0
 12 13  1  0
 13 14  1  0
 14 15  2  0
 15 16  1  0
 16 17  2  0
 17 18  1  0
 18 19  2  0
 19 20  1  0
  9 21  2  0
 21 22  1  0
 22 23  1  0
 23  4  2  0
 22  7  1  0
 19 14  1  0
  1 24  1  0
  1 25  1  0
  1 26  1  0
  2 27  1  0
  2 28  1  0
  5 29  1  0
  6 30  1  0
 12 31  1  0
 13 32  1  0
 13 33  1  0
 15 34  1  0
 16 35  1  0
 17 36  1  0
 18 37  1  0
 21 38  1  0
M  END
$$$$
