
     RDKit          3D

 51 53  0  0  0  0  0  0  0  0999 V2000
   -1.2593    4.4119   -0.8033 C   0  0  0  0  0  0  0  0  0  0  0  0
   -1.4187    3.3219   -1.7056 O   0  0  0  0  0  0  0  0  0  0  0  0
   -0.4461    2.3226   -1.3584 N   0  0  0  0  0  0  0  0  0  0  0  0
    0.2806    2.0454   -2.5831 C   0  0  0  0  0  0  0  0  0  0  0  0
   -1.1076    1.2282   -0.7563 C   0  0  0  0  0  0  0  0  0  0  0  0
   -2.3358    1.1483   -0.6632 O   0  0  0  0  0  0  0  0  0  0  0  0
   -0.2575    0.2480   -0.2199 N   0  0  0  0  0  0  0  0  0  0  0  0
    1.1183    0.4275   -0.1705 N   0  0  0  0  0  0  0  0  0  0  0  0
    1.7219   -0.5942    0.3487 C   0  0  0  0  0  0  0  0  0  0  0  0
    3.1835   -0.6619    0.5300 C   0  0  0  0  0  0  0  0  0  0  0  0
    3.8808   -1.8736    0.4374 C   0  0  0  0  0  0  0  0  0  0  0  0
    5.2640   -1.8840    0.5962 C   0  0  0  0  0  0  0  0  0  0  0  0
    5.9258   -3.0439    0.5019 F   0  0  0  0  0  0  0  0  0  0  0  0
    5.9724   -0.7133    0.8450 C   0  0  0  0  0  0  0  0  0  0  0  0
    5.2846    0.4945    0.9374 C   0  0  0  0  0  0  0  0  0  0  0  0
    3.8983    0.5155    0.7784 C   0  0  0  0  0  0  0  0  0  0  0  0
    3.2736    1.6949    0.9017 F   0  0  0  0  0  0  0  0  0  0  0  0
    0.7260   -1.9413    0.8464 S   0  0  0  0  0  0  0  0  0  0  0  0
   -0.7985   -0.9498    0.4525 C   0  0  2  0  0  0  0  0  0  0  0  0
   -1.6819   -1.7874   -0.5171 C   0  0  0  0  0  0  0  0  0  0  0  0
   -1.0517   -2.1212   -1.8858 C   0  0  0  0  0  0  0  0  0  0  0  0
   -2.0708   -2.0878   -3.0260 C   0  0  0  0  0  0  0  0  0  0  0  0
   -2.3914   -0.7165   -3.3989 N   0  0  0  0  0  0  0  0  0  0  0  0
   -1.4715   -0.6074    1.8023 C   0  0  0  0  0  0  0  0  0  0  0  0
   -2.5440   -1.3589    2.3186 C   0  0  0  0  0  0  0  0  0  0  0  0
   -3.1223   -1.0468    3.5539 C   0  0  0  0  0  0  0  0  0  0  0  0
   -2.6387    0.0183    4.3063 C   0  0  0  0  0  0  0  0  0  0  0  0
   -1.5735    0.7718    3.8273 C   0  0  0  0  0  0  0  0  0  0  0  0
   -0.9949    0.4609    2.5939 C   0  0  0  0  0  0  0  0  0  0  0  0
   -1.9908    5.1817   -1.0626 H   0  0  0  0  0  0  0  0  0  0  0  0
   -0.2551    4.8382   -0.8932 H   0  0  0  0  0  0  0  0  0  0  0  0
   -1.4427    4.0883    0.2263 H   0  0  0  0  0  0  0  0  0  0  0  0
    1.0710    1.3101   -2.4261 H   0  0  0  0  0  0  0  0  0  0  0  0
    0.7291    2.9743   -2.9482 H   0  0  0  0  0  0  0  0  0  0  0  0
   -0.4091    1.6523   -3.3374 H   0  0  0  0  0  0  0  0  0  0  0  0
    3.3794   -2.8137    0.2290 H   0  0  0  0  0  0  0  0  0  0  0  0
    7.0510   -0.7506    0.9647 H   0  0  0  0  0  0  0  0  0  0  0  0
    5.8150    1.4215    1.1353 H   0  0  0  0  0  0  0  0  0  0  0  0
   -2.6390   -1.2734   -0.6630 H   0  0  0  0  0  0  0  0  0  0  0  0
   -1.9525   -2.7459   -0.0532 H   0  0  0  0  0  0  0  0  0  0  0  0
   -0.6236   -3.1305   -1.8327 H   0  0  0  0  0  0  0  0  0  0  0  0
   -0.2191   -1.4540   -2.1347 H   0  0  0  0  0  0  0  0  0  0  0  0
   -1.6472   -2.5915   -3.9013 H   0  0  0  0  0  0  0  0  0  0  0  0
   -2.9821   -2.6264   -2.7444 H   0  0  0  0  0  0  0  0  0  0  0  0
   -3.1469   -0.7122   -4.0829 H   0  0  0  0  0  0  0  0  0  0  0  0
   -2.7466   -0.1885   -2.5953 H   0  0  0  0  0  0  0  0  0  0  0  0
   -2.9576   -2.2040    1.7760 H   0  0  0  0  0  0  0  0  0  0  0  0
   -3.9545   -1.6387    3.9266 H   0  0  0  0  0  0  0  0  0  0  0  0
   -3.0919    0.2608    5.2635 H   0  0  0  0  0  0  0  0  0  0  0  0
   -1.1907    1.6058    4.4095 H   0  0  0  0  0  0  0  0  0  0  0  0
   -0.1618    1.0745    2.2543 H   0  0  0  0  0  0  0  0  0  0  0  0
  1  2  1  0
  2  3  1  0
  3  4  1  0
  3  5  1  0
  5  6  2  0
  5  7  1  0
  7  8  1  0
  8  9  2  0
  9 10  1  0
 10 11  2  0
 11 12  1  0
 12 13  1  0
 12 14  2  0
 14 15  1  0
 15 16  2  0
 16 17  1  0
  9 18  1  0
 18 19  1  0
 19 20  1  6
 20 21  1  0
 21 22  1  0
 22 23  1  0
 19 24  1  0
 24 25  2  0
 25 26  1  0
 26 27  2  0
 27 28  1  0
 28 29  2  0
 19  7  1  0
 29 24  1  0
 16 10  1  0
  1 30  1  0
  1 31  1  0
  1 32  1  0
  4 33  1  0
  4 34  1  0
  4 35  1  0
 11 36  1  0
 14 37  1  0
 15 38  1  0
 20 39  1  0
 20 40  1  0
 21 41  1  0
 21 42  1  0
 22 43  1  0
 22 44  1  0
 23 45  1  0
 23 46  1  0
 25 47  1  0
 26 48  1  0
 27 49  1  0
 28 50  1  0
 29 51  1  0
M  END
$$$$
