
     RDKit          3D

 60 62  0  0  0  0  0  0  0  0999 V2000
   -8.6944    0.9826   -1.5366 C   0  0  0  0  0  0  0  0  0  0  0  0
   -7.5777    0.8233   -2.5546 C   0  0  0  0  0  0  0  0  0  0  0  0
   -6.9962   -0.4763   -2.4719 O   0  0  0  0  0  0  0  0  0  0  0  0
   -5.9317   -0.6699   -1.6393 C   0  0  0  0  0  0  0  0  0  0  0  0
   -5.3260   -1.9219   -1.7543 C   0  0  0  0  0  0  0  0  0  0  0  0
   -4.2233   -2.2594   -0.9645 C   0  0  0  0  0  0  0  0  0  0  0  0
   -3.7159   -1.3486   -0.0347 C   0  0  0  0  0  0  0  0  0  0  0  0
   -2.5773   -1.7336    0.7004 N   0  0  0  0  0  0  0  0  0  0  0  0
   -2.0663   -1.1144    1.8190 C   0  0  0  0  0  0  0  0  0  0  0  0
   -2.6772   -0.2851    2.4881 O   0  0  0  0  0  0  0  0  0  0  0  0
   -0.7745   -1.5111    2.1519 N   0  0  0  0  0  0  0  0  0  0  0  0
   -0.2367   -1.0477    3.4261 C   0  0  0  0  0  0  0  0  0  0  0  0
    0.1870   -2.0917    1.2104 C   0  0  0  0  0  0  0  0  0  0  0  0
    1.3062   -1.1416    0.8997 C   0  0  0  0  0  0  0  0  0  0  0  0
    2.5211   -1.2345    1.4123 N   0  0  0  0  0  0  0  0  0  0  0  0
    3.2451   -0.2092    0.8647 C   0  0  0  0  0  0  0  0  0  0  0  0
    4.5854    0.1395    1.0783 C   0  0  0  0  0  0  0  0  0  0  0  0
    5.1102    1.2257    0.3634 C   0  0  0  0  0  0  0  0  0  0  0  0
    6.5133    1.6553    0.5728 C   0  0  0  0  0  0  0  0  0  0  0  0
    6.7096    2.8471    0.8039 O   0  0  0  0  0  0  0  0  0  0  0  0
    7.5347    0.7084    0.5099 N   0  0  0  0  0  0  0  0  0  0  0  0
    8.8725    1.1107    0.9084 C   0  0  0  0  0  0  0  0  0  0  0  0
    7.4174   -0.5998   -0.1202 C   0  0  0  0  0  0  0  0  0  0  0  0
    4.3063    1.9749   -0.5045 C   0  0  0  0  0  0  0  0  0  0  0  0
    2.9644    1.6396   -0.7174 C   0  0  0  0  0  0  0  0  0  0  0  0
    2.4666    0.5342   -0.0153 C   0  0  0  0  0  0  0  0  0  0  0  0
    1.2254   -0.0655    0.0382 N   0  0  0  0  0  0  0  0  0  0  0  0
    0.0629    0.3840   -0.7047 C   0  0  0  0  0  0  0  0  0  0  0  0
   -0.6216    1.5756   -0.0573 C   0  0  0  0  0  0  0  0  0  0  0  0
   -4.3231   -0.0981    0.0823 C   0  0  0  0  0  0  0  0  0  0  0  0
   -5.4279    0.2385   -0.7123 C   0  0  0  0  0  0  0  0  0  0  0  0
   -9.4417    0.1926   -1.6602 H   0  0  0  0  0  0  0  0  0  0  0  0
   -9.1878    1.9528   -1.6512 H   0  0  0  0  0  0  0  0  0  0  0  0
   -8.3171    0.9048   -0.5134 H   0  0  0  0  0  0  0  0  0  0  0  0
   -6.8324    1.6222   -2.4860 H   0  0  0  0  0  0  0  0  0  0  0  0
   -8.0123    0.9040   -3.5572 H   0  0  0  0  0  0  0  0  0  0  0  0
   -5.7149   -2.6422   -2.4699 H   0  0  0  0  0  0  0  0  0  0  0  0
   -3.7772   -3.2417   -1.0906 H   0  0  0  0  0  0  0  0  0  0  0  0
   -2.2655   -2.6829    0.5606 H   0  0  0  0  0  0  0  0  0  0  0  0
    0.2759   -0.0924    3.2775 H   0  0  0  0  0  0  0  0  0  0  0  0
    0.4623   -1.7910    3.8203 H   0  0  0  0  0  0  0  0  0  0  0  0
   -1.0367   -0.9038    4.1578 H   0  0  0  0  0  0  0  0  0  0  0  0
    0.5955   -2.9911    1.6851 H   0  0  0  0  0  0  0  0  0  0  0  0
   -0.2824   -2.4157    0.2794 H   0  0  0  0  0  0  0  0  0  0  0  0
    5.1860   -0.4226    1.7837 H   0  0  0  0  0  0  0  0  0  0  0  0
    8.8606    2.0311    1.4971 H   0  0  0  0  0  0  0  0  0  0  0  0
    9.3187    0.3148    1.5120 H   0  0  0  0  0  0  0  0  0  0  0  0
    9.4737    1.2716    0.0083 H   0  0  0  0  0  0  0  0  0  0  0  0
    6.4856   -0.7143   -0.6762 H   0  0  0  0  0  0  0  0  0  0  0  0
    7.4837   -1.3669    0.6570 H   0  0  0  0  0  0  0  0  0  0  0  0
    8.2449   -0.7286   -0.8257 H   0  0  0  0  0  0  0  0  0  0  0  0
    4.7299    2.8368   -1.0173 H   0  0  0  0  0  0  0  0  0  0  0  0
    2.3464    2.2236   -1.3907 H   0  0  0  0  0  0  0  0  0  0  0  0
   -0.6301   -0.4526   -0.8102 H   0  0  0  0  0  0  0  0  0  0  0  0
    0.3961    0.6400   -1.7168 H   0  0  0  0  0  0  0  0  0  0  0  0
    0.0316    2.4533   -0.0574 H   0  0  0  0  0  0  0  0  0  0  0  0
   -0.8925    1.3704    0.9818 H   0  0  0  0  0  0  0  0  0  0  0  0
   -1.5323    1.8340   -0.6055 H   0  0  0  0  0  0  0  0  0  0  0  0
   -3.9568    0.6449    0.7850 H   0  0  0  0  0  0  0  0  0  0  0  0
   -5.8695    1.2182   -0.5680 H   0  0  0  0  0  0  0  0  0  0  0  0
  1  2  1  0
  2  3  1  0
  3  4  1  0
  4  5  2  0
  5  6  1  0
  6  7  2  0
  7  8  1  0
  8  9  1  0
  9 10  2  0
  9 11  1  0
 11 12  1  0
 11 13  1  0
 13 14  1  0
 14 15  2  0
 15 16  1  0
 16 17  2  0
 17 18  1  0
 18 19  1  0
 19 20  2  0
 19 21  1  0
 21 22  1  0
 21 23  1  0
 18 24  2  0
 24 25  1  0
 25 26  2  0
 26 27  1  0
 27 28  1  0
 28 29  1  0
  7 30  1  0
 30 31  2  0
 31  4  1  0
 27 14  1  0
 26 16  1  0
  1 32  1  0
  1 33  1  0
  1 34  1  0
  2 35  1  0
  2 36  1  0
  5 37  1  0
  6 38  1  0
  8 39  1  0
 12 40  1  0
 12 41  1  0
 12 42  1  0
 13 43  1  0
 13 44  1  0
 17 45  1  0
 22 46  1  0
 22 47  1  0
 22 48  1  0
 23 49  1  0
 23 50  1  0
 23 51  1  0
 24 52  1  0
 25 53  1  0
 28 54  1  0
 28 55  1  0
 29 56  1  0
 29 57  1  0
 29 58  1  0
 30 59  1  0
 31 60  1  0
M  END
$$$$
