
     RDKit          3D

 55 58  0  0  0  0  0  0  0  0999 V2000
    0.0603    0.3723    1.4480 N   0  0  0  0  0  0  0  0  0  0  0  0
   -0.1195   -0.4125    0.1928 C   0  0  0  0  0  0  0  0  0  0  0  0
    1.2877   -0.9304   -0.2304 C   0  0  0  0  0  0  0  0  0  0  0  0
    1.5103   -2.0654   -0.6428 O   0  0  0  0  0  0  0  0  0  0  0  0
    2.2671    0.0380   -0.1265 N   0  0  0  0  0  0  0  0  0  0  0  0
    3.6778   -0.2508   -0.3297 C   0  0  1  0  0  0  0  0  0  0  0  0
    4.1170   -0.0586   -1.7945 C   0  0  0  0  0  0  0  0  0  0  0  0
    3.4485   -0.9954   -2.7949 C   0  0  0  0  0  0  0  0  0  0  0  0
    3.5964   -2.3536   -2.4104 O   0  0  0  0  0  0  0  0  0  0  0  0
    4.5081    0.6210    0.6060 C   0  0  0  0  0  0  0  0  0  0  0  0
    5.2862    0.0230    1.6108 C   0  0  0  0  0  0  0  0  0  0  0  0
    6.0459    0.8053    2.4845 C   0  0  0  0  0  0  0  0  0  0  0  0
    6.0316    2.1923    2.3630 C   0  0  0  0  0  0  0  0  0  0  0  0
    6.9649    3.1553    3.4406 Cl  0  0  0  0  0  0  0  0  0  0  0  0
    5.2641    2.8048    1.3755 C   0  0  0  0  0  0  0  0  0  0  0  0
    4.5047    2.0231    0.5013 C   0  0  0  0  0  0  0  0  0  0  0  0
   -1.0762   -1.5941    0.3832 C   0  0  0  0  0  0  0  0  0  0  0  0
   -2.5250   -1.1665    0.5950 C   0  0  0  0  0  0  0  0  0  0  0  0
   -2.9645   -0.2447   -0.4452 N   0  0  0  0  0  0  0  0  0  0  0  0
   -4.3347    0.0778   -0.5294 C   0  0  0  0  0  0  0  0  0  0  0  0
   -4.6942    0.9732   -1.5001 N   0  0  0  0  0  0  0  0  0  0  0  0
   -5.9827    1.3102   -1.6808 C   0  0  0  0  0  0  0  0  0  0  0  0
   -7.0446    0.8795   -0.9947 N   0  0  0  0  0  0  0  0  0  0  0  0
   -6.6832    0.0119   -0.0418 C   0  0  0  0  0  0  0  0  0  0  0  0
   -7.5774   -0.5795    0.8065 N   0  0  0  0  0  0  0  0  0  0  0  0
   -6.9164   -1.3984    1.6779 C   0  0  0  0  0  0  0  0  0  0  0  0
   -5.5739   -1.3300    1.3690 C   0  0  0  0  0  0  0  0  0  0  0  0
   -5.4009   -0.4381    0.2614 C   0  0  0  0  0  0  0  0  0  0  0  0
   -2.0991    0.9140   -0.7149 C   0  0  0  0  0  0  0  0  0  0  0  0
   -0.6509    0.4875   -0.9298 C   0  0  0  0  0  0  0  0  0  0  0  0
    0.3875   -0.2589    2.1832 H   0  0  0  0  0  0  0  0  0  0  0  0
   -0.8419    0.7220    1.7711 H   0  0  0  0  0  0  0  0  0  0  0  0
    2.0063    0.8141    0.4789 H   0  0  0  0  0  0  0  0  0  0  0  0
    3.8431   -1.2994   -0.0520 H   0  0  0  0  0  0  0  0  0  0  0  0
    5.2012   -0.2265   -1.8488 H   0  0  0  0  0  0  0  0  0  0  0  0
    3.9400    0.9730   -2.1228 H   0  0  0  0  0  0  0  0  0  0  0  0
    3.9194   -0.8751   -3.7760 H   0  0  0  0  0  0  0  0  0  0  0  0
    2.3848   -0.7673   -2.9187 H   0  0  0  0  0  0  0  0  0  0  0  0
    2.8537   -2.5464   -1.7951 H   0  0  0  0  0  0  0  0  0  0  0  0
    5.3083   -1.0601    1.7194 H   0  0  0  0  0  0  0  0  0  0  0  0
    6.6447    0.3262    3.2546 H   0  0  0  0  0  0  0  0  0  0  0  0
    5.2519    3.8873    1.2808 H   0  0  0  0  0  0  0  0  0  0  0  0
    3.9077    2.5177   -0.2623 H   0  0  0  0  0  0  0  0  0  0  0  0
   -1.0387   -2.2400   -0.5055 H   0  0  0  0  0  0  0  0  0  0  0  0
   -0.7523   -2.2232    1.2225 H   0  0  0  0  0  0  0  0  0  0  0  0
   -2.6428   -0.7126    1.5861 H   0  0  0  0  0  0  0  0  0  0  0  0
   -3.1155   -2.0879    0.5582 H   0  0  0  0  0  0  0  0  0  0  0  0
   -6.1805    2.0177   -2.4795 H   0  0  0  0  0  0  0  0  0  0  0  0
   -8.5725   -0.4111    0.7740 H   0  0  0  0  0  0  0  0  0  0  0  0
   -7.4506   -1.9543    2.4371 H   0  0  0  0  0  0  0  0  0  0  0  0
   -4.8104   -1.8735    1.9055 H   0  0  0  0  0  0  0  0  0  0  0  0
   -2.3985    1.4485   -1.6247 H   0  0  0  0  0  0  0  0  0  0  0  0
   -2.1658    1.6274    0.1164 H   0  0  0  0  0  0  0  0  0  0  0  0
   -0.0258    1.3824   -1.0476 H   0  0  0  0  0  0  0  0  0  0  0  0
   -0.5805   -0.0511   -1.8856 H   0  0  0  0  0  0  0  0  0  0  0  0
  1  2  1  0
  2  3  1  0
  3  4  2  0
  3  5  1  0
  5  6  1  0
  6  7  1  0
  7  8  1  0
  8  9  1  0
  6 10  1  0
 10 11  2  0
 11 12  1  0
 12 13  2  0
 13 14  1  0
 13 15  1  0
 15 16  2  0
  2 17  1  0
 17 18  1  0
 18 19  1  0
 19 20  1  0
 20 21  2  0
 21 22  1  0
 22 23  2  0
 23 24  1  0
 24 25  1  0
 25 26  1  0
 26 27  2  0
 27 28  1  0
 19 29  1  0
 29 30  1  0
 30  2  1  0
 16 10  1  0
 28 20  1  0
 28 24  2  0
  1 31  1  0
  1 32  1  0
  5 33  1  0
  6 34  1  1
  7 35  1  0
  7 36  1  0
  8 37  1  0
  8 38  1  0
  9 39  1  0
 11 40  1  0
 12 41  1  0
 15 42  1  0
 16 43  1  0
 17 44  1  0
 17 45  1  0
 18 46  1  0
 18 47  1  0
 22 48  1  0
 25 49  1  0
 26 50  1  0
 27 51  1  0
 29 52  1  0
 29 53  1  0
 30 54  1  0
 30 55  1  0
M  END
$$$$
