
     RDKit          3D

 48 51  0  0  0  0  0  0  0  0999 V2000
    0.2266   -4.6712    0.4495 C   0  0  0  0  0  0  0  0  0  0  0  0
   -0.4859   -3.4646    0.1630 O   0  0  0  0  0  0  0  0  0  0  0  0
    0.3634   -2.4187   -0.0618 C   0  0  0  0  0  0  0  0  0  0  0  0
    1.1207   -2.3999   -1.2304 C   0  0  0  0  0  0  0  0  0  0  0  0
    1.9353   -1.3009   -1.5332 C   0  0  0  0  0  0  0  0  0  0  0  0
    2.0044   -0.1798   -0.6911 C   0  0  0  0  0  0  0  0  0  0  0  0
    2.8420    0.9389   -1.0023 N   0  0  0  0  0  0  0  0  0  0  0  0
    2.7308    2.1857   -0.4231 C   0  0  0  0  0  0  0  0  0  0  0  0
    1.8767    2.6151    0.3393 O   0  0  0  0  0  0  0  0  0  0  0  0
    3.8725    3.0402   -0.8814 C   0  0  0  0  0  0  0  0  0  0  0  0
    4.4170    2.3044   -2.0765 C   0  0  0  0  0  0  0  0  0  0  0  0
    3.8583    0.9217   -1.9346 C   0  0  0  0  0  0  0  0  0  0  0  0
    4.2950   -0.0133   -2.5926 O   0  0  0  0  0  0  0  0  0  0  0  0
    1.2185   -0.2101    0.4726 C   0  0  0  0  0  0  0  0  0  0  0  0
    0.3940   -1.3122    0.7820 C   0  0  0  0  0  0  0  0  0  0  0  0
   -0.4800   -1.2939    2.3372 S   0  0  0  0  0  6  0  0  0  0  0  0
   -0.6695   -2.6621    2.7802 O   0  0  0  0  0  0  0  0  0  0  0  0
    0.2532   -0.3938    3.2076 O   0  0  0  0  0  0  0  0  0  0  0  0
   -2.0133   -0.6218    1.9450 N   0  0  0  0  0  0  0  0  0  0  0  0
   -2.9968   -1.5521    1.3321 C   0  0  0  0  0  0  0  0  0  0  0  0
   -3.1314   -1.3076   -0.1617 C   0  0  0  0  0  0  0  0  0  0  0  0
   -3.5911    0.1149   -0.4193 C   0  0  0  0  0  0  0  0  0  0  0  0
   -2.8007    1.1243    0.3697 C   0  0  0  0  0  0  0  0  0  0  0  0
   -2.8612    2.4724   -0.0239 C   0  0  0  0  0  0  0  0  0  0  0  0
   -2.2322    3.4605    0.7276 C   0  0  0  0  0  0  0  0  0  0  0  0
   -1.5634    3.1145    1.8948 C   0  0  0  0  0  0  0  0  0  0  0  0
   -1.5042    1.7785    2.2984 C   0  0  0  0  0  0  0  0  0  0  0  0
   -2.0847    0.7655    1.5276 C   0  0  0  0  0  0  0  0  0  0  0  0
   -0.4831   -5.3815    0.8843 H   0  0  0  0  0  0  0  0  0  0  0  0
    1.0323   -4.5067    1.1749 H   0  0  0  0  0  0  0  0  0  0  0  0
    0.6249   -5.1120   -0.4705 H   0  0  0  0  0  0  0  0  0  0  0  0
    1.0710   -3.2294   -1.9319 H   0  0  0  0  0  0  0  0  0  0  0  0
    2.4864   -1.3492   -2.4693 H   0  0  0  0  0  0  0  0  0  0  0  0
    4.6120    3.1075   -0.0769 H   0  0  0  0  0  0  0  0  0  0  0  0
    3.5277    4.0429   -1.1488 H   0  0  0  0  0  0  0  0  0  0  0  0
    5.5099    2.2863   -2.0745 H   0  0  0  0  0  0  0  0  0  0  0  0
    4.0570    2.7372   -3.0154 H   0  0  0  0  0  0  0  0  0  0  0  0
    1.2486    0.6123    1.1843 H   0  0  0  0  0  0  0  0  0  0  0  0
   -2.7389   -2.5983    1.5136 H   0  0  0  0  0  0  0  0  0  0  0  0
   -3.9625   -1.3960    1.8311 H   0  0  0  0  0  0  0  0  0  0  0  0
   -3.8498   -2.0124   -0.5956 H   0  0  0  0  0  0  0  0  0  0  0  0
   -2.1781   -1.4730   -0.6713 H   0  0  0  0  0  0  0  0  0  0  0  0
   -4.6481    0.2151   -0.1381 H   0  0  0  0  0  0  0  0  0  0  0  0
   -3.5125    0.3265   -1.4930 H   0  0  0  0  0  0  0  0  0  0  0  0
   -3.4119    2.7582   -0.9167 H   0  0  0  0  0  0  0  0  0  0  0  0
   -2.2787    4.5000    0.4142 H   0  0  0  0  0  0  0  0  0  0  0  0
   -1.0895    3.8814    2.5029 H   0  0  0  0  0  0  0  0  0  0  0  0
   -1.0106    1.5565    3.2394 H   0  0  0  0  0  0  0  0  0  0  0  0
  1  2  1  0
  2  3  1  0
  3  4  2  0
  4  5  1  0
  5  6  2  0
  6  7  1  0
  7  8  1  0
  8  9  2  0
  8 10  1  0
 10 11  1  0
 11 12  1  0
 12 13  2  0
  6 14  1  0
 14 15  2  0
 15 16  1  0
 16 17  2  0
 16 18  2  0
 16 19  1  0
 19 20  1  0
 20 21  1  0
 21 22  1  0
 22 23  1  0
 23 24  2  0
 24 25  1  0
 25 26  2  0
 26 27  1  0
 27 28  2  0
 15  3  1  0
 28 19  1  0
 12  7  1  0
 28 23  1  0
  1 29  1  0
  1 30  1  0
  1 31  1  0
  4 32  1  0
  5 33  1  0
 10 34  1  0
 10 35  1  0
 11 36  1  0
 11 37  1  0
 14 38  1  0
 20 39  1  0
 20 40  1  0
 21 41  1  0
 21 42  1  0
 22 43  1  0
 22 44  1  0
 24 45  1  0
 25 46  1  0
 26 47  1  0
 27 48  1  0
M  END
$$$$
