
     RDKit          3D

 60 63  0  0  0  0  0  0  0  0999 V2000
   -6.3117   -2.7669    2.9406 C   0  0  0  0  0  0  0  0  0  0  0  0
   -5.5860   -3.1403    1.6632 C   0  0  0  0  0  0  0  0  0  0  0  0
   -4.2609   -2.6003    1.7289 O   0  0  0  0  0  0  0  0  0  0  0  0
   -3.5060   -2.8452    0.6318 C   0  0  0  0  0  0  0  0  0  0  0  0
   -3.8526   -3.4564   -0.3667 O   0  0  0  0  0  0  0  0  0  0  0  0
   -2.1937   -2.1837    0.7515 C   0  0  0  0  0  0  0  0  0  0  0  0
   -1.3815   -2.3042    1.8210 C   0  0  0  0  0  0  0  0  0  0  0  0
   -1.6795   -3.1600    3.0255 C   0  0  0  0  0  0  0  0  0  0  0  0
   -0.1502   -1.6825    1.8756 N   0  0  0  0  0  0  0  0  0  0  0  0
    0.2700   -1.1018    0.8045 C   0  0  0  0  0  0  0  0  0  0  0  0
    1.8548   -0.3973    0.6785 S   0  0  0  0  0  0  0  0  0  0  0  0
    1.6343   -0.0428   -0.9940 C   0  0  0  0  0  0  0  0  0  0  0  0
    2.5051    0.5218   -1.8413 C   0  0  0  0  0  0  0  0  0  0  0  0
    3.8655    0.9484   -1.5056 C   0  0  0  0  0  0  0  0  0  0  0  0
    4.8698    0.0131   -1.2359 C   0  0  0  0  0  0  0  0  0  0  0  0
    6.1687    0.4321   -0.9221 C   0  0  0  0  0  0  0  0  0  0  0  0
    6.4747    1.7924   -0.8782 C   0  0  0  0  0  0  0  0  0  0  0  0
    7.6911    2.3427   -0.5851 O   0  0  0  0  0  0  0  0  0  0  0  0
    8.7516    1.4713   -0.2276 C   0  0  0  0  0  0  0  0  0  0  0  0
    8.6568    0.8602    1.1599 C   0  0  0  0  0  0  0  0  0  0  0  0
    8.8530   -0.3134    1.4372 O   0  0  0  0  0  0  0  0  0  0  0  0
    8.3622    1.7519    2.1261 O   0  0  0  0  0  0  0  0  0  0  0  0
    5.4719    2.7249   -1.1577 C   0  0  0  0  0  0  0  0  0  0  0  0
    4.1750    2.3096   -1.4720 C   0  0  0  0  0  0  0  0  0  0  0  0
    0.2644   -0.4436   -1.4270 C   0  0  0  0  0  0  0  0  0  0  0  0
   -0.1566   -0.3171   -2.5679 O   0  0  0  0  0  0  0  0  0  0  0  0
   -0.4185   -0.9778   -0.3620 N   0  0  0  0  0  0  0  0  0  0  0  0
   -1.8153   -1.3622   -0.4480 C   0  0  0  0  0  0  0  0  0  0  0  0
   -2.7112   -0.1293   -0.5837 C   0  0  0  0  0  0  0  0  0  0  0  0
   -3.5393    0.0110   -1.7075 C   0  0  0  0  0  0  0  0  0  0  0  0
   -4.3703    1.1265   -1.8466 C   0  0  0  0  0  0  0  0  0  0  0  0
   -4.3843    2.1251   -0.8705 C   0  0  0  0  0  0  0  0  0  0  0  0
   -5.4392    3.5557   -1.0112 S   0  0  0  0  0  0  0  0  0  0  0  0
   -4.8467    4.2233   -2.5891 C   0  0  0  0  0  0  0  0  0  0  0  0
   -3.5757    1.9849    0.2594 C   0  0  0  0  0  0  0  0  0  0  0  0
   -2.7426    0.8717    0.4020 C   0  0  0  0  0  0  0  0  0  0  0  0
   -5.7795   -3.1550    3.8150 H   0  0  0  0  0  0  0  0  0  0  0  0
   -6.3571   -1.6790    3.0523 H   0  0  0  0  0  0  0  0  0  0  0  0
   -7.3306   -3.1646    2.9414 H   0  0  0  0  0  0  0  0  0  0  0  0
   -5.5349   -4.2310    1.5707 H   0  0  0  0  0  0  0  0  0  0  0  0
   -6.1151   -2.7202    0.8005 H   0  0  0  0  0  0  0  0  0  0  0  0
   -2.0687   -2.5411    3.8399 H   0  0  0  0  0  0  0  0  0  0  0  0
   -0.7657   -3.6515    3.3785 H   0  0  0  0  0  0  0  0  0  0  0  0
   -2.3962   -3.9586    2.8140 H   0  0  0  0  0  0  0  0  0  0  0  0
    2.2121    0.7098   -2.8734 H   0  0  0  0  0  0  0  0  0  0  0  0
    4.6534   -1.0529   -1.2661 H   0  0  0  0  0  0  0  0  0  0  0  0
    6.9068   -0.3375   -0.7204 H   0  0  0  0  0  0  0  0  0  0  0  0
    9.6762    2.0597   -0.2457 H   0  0  0  0  0  0  0  0  0  0  0  0
    8.8849    0.6822   -0.9768 H   0  0  0  0  0  0  0  0  0  0  0  0
    8.3122    1.2203    2.9471 H   0  0  0  0  0  0  0  0  0  0  0  0
    5.7018    3.7877   -1.1269 H   0  0  0  0  0  0  0  0  0  0  0  0
    3.4144    3.0581   -1.6815 H   0  0  0  0  0  0  0  0  0  0  0  0
   -1.9042   -1.9738   -1.3559 H   0  0  0  0  0  0  0  0  0  0  0  0
   -3.5460   -0.7490   -2.4877 H   0  0  0  0  0  0  0  0  0  0  0  0
   -5.0113    1.1978   -2.7217 H   0  0  0  0  0  0  0  0  0  0  0  0
   -5.0883    3.5497   -3.4156 H   0  0  0  0  0  0  0  0  0  0  0  0
   -5.3348    5.1840   -2.7753 H   0  0  0  0  0  0  0  0  0  0  0  0
   -3.7651    4.3846   -2.5538 H   0  0  0  0  0  0  0  0  0  0  0  0
   -3.5855    2.7435    1.0393 H   0  0  0  0  0  0  0  0  0  0  0  0
   -2.1260    0.7948    1.2957 H   0  0  0  0  0  0  0  0  0  0  0  0
  1  2  1  0
  2  3  1  0
  3  4  1  0
  4  5  2  0
  4  6  1  0
  6  7  2  0
  7  8  1  0
  7  9  1  0
  9 10  2  0
 10 11  1  0
 11 12  1  0
 12 13  2  0
 13 14  1  0
 14 15  2  0
 15 16  1  0
 16 17  2  0
 17 18  1  0
 18 19  1  0
 19 20  1  0
 20 21  2  0
 20 22  1  0
 17 23  1  0
 23 24  2  0
 12 25  1  0
 25 26  2  0
 25 27  1  0
 27 28  1  0
 28 29  1  0
 29 30  2  0
 30 31  1  0
 31 32  2  0
 32 33  1  0
 33 34  1  0
 32 35  1  0
 35 36  2  0
 28  6  1  0
 36 29  1  0
 27 10  1  0
 24 14  1  0
  1 37  1  0
  1 38  1  0
  1 39  1  0
  2 40  1  0
  2 41  1  0
  8 42  1  0
  8 43  1  0
  8 44  1  0
 13 45  1  0
 15 46  1  0
 16 47  1  0
 19 48  1  0
 19 49  1  0
 22 50  1  0
 23 51  1  0
 24 52  1  0
 28 53  1  0
 30 54  1  0
 31 55  1  0
 34 56  1  0
 34 57  1  0
 34 58  1  0
 35 59  1  0
 36 60  1  0
M  END
$$$$
