
     RDKit          3D

 26 26  0  0  0  0  0  0  0  0999 V2000
    4.2850   -1.1192   -0.9999 O   0  0  0  0  0  0  0  0  0  0  0  0
    3.9141   -0.2256   -0.2589 C   0  0  0  0  0  0  0  0  0  0  0  0
    4.8092    0.5106    0.4287 O   0  0  0  0  0  0  0  0  0  0  0  0
    2.4989    0.1973    0.0322 C   0  0  0  0  0  0  0  0  0  0  0  0
    1.4979   -0.5560   -0.8438 C   0  0  0  0  0  0  0  0  0  0  0  0
    0.0548   -0.0652   -0.6806 C   0  0  0  0  0  0  0  0  0  0  0  0
   -0.5516   -0.4223    0.6803 C   0  0  0  0  0  0  0  0  0  0  0  0
   -1.9816    0.0785    0.9547 C   0  0  0  0  0  0  0  0  0  0  0  0
   -3.0414   -0.3635   -0.0664 C   0  0  0  0  0  0  0  0  0  0  0  0
   -3.2274    0.6448   -1.1957 C   0  0  0  0  0  0  0  0  0  0  0  0
   -3.3817    2.2579   -0.4056 S   0  0  0  0  0  0  0  0  0  0  0  0
   -2.0540    1.8962    1.1080 S   0  0  0  0  0  0  0  0  0  0  0  0
    5.6772    0.1426    0.1605 H   0  0  0  0  0  0  0  0  0  0  0  0
    2.4181    1.2733   -0.1576 H   0  0  0  0  0  0  0  0  0  0  0  0
    2.3060    0.0040    1.0918 H   0  0  0  0  0  0  0  0  0  0  0  0
    1.5516   -1.6316   -0.6339 H   0  0  0  0  0  0  0  0  0  0  0  0
    1.7832   -0.4343   -1.8968 H   0  0  0  0  0  0  0  0  0  0  0  0
   -0.5392   -0.5392   -1.4696 H   0  0  0  0  0  0  0  0  0  0  0  0
    0.0216    1.0157   -0.8534 H   0  0  0  0  0  0  0  0  0  0  0  0
    0.0988   -0.0588    1.4850 H   0  0  0  0  0  0  0  0  0  0  0  0
   -0.5544   -1.5167    0.7727 H   0  0  0  0  0  0  0  0  0  0  0  0
   -2.2688   -0.3267    1.9330 H   0  0  0  0  0  0  0  0  0  0  0  0
   -4.0015   -0.4899    0.4550 H   0  0  0  0  0  0  0  0  0  0  0  0
   -2.7994   -1.3512   -0.4764 H   0  0  0  0  0  0  0  0  0  0  0  0
   -2.3845    0.6563   -1.8902 H   0  0  0  0  0  0  0  0  0  0  0  0
   -4.1310    0.4228   -1.7713 H   0  0  0  0  0  0  0  0  0  0  0  0
  1  2  2  0
  2  3  1  0
  2  4  1  0
  4  5  1  0
  5  6  1  0
  6  7  1  0
  7  8  1  0
  8  9  1  0
  9 10  1  0
 10 11  1  0
 11 12  1  0
 12  8  1  0
  3 13  1  0
  4 14  1  0
  4 15  1  0
  5 16  1  0
  5 17  1  0
  6 18  1  0
  6 19  1  0
  7 20  1  0
  7 21  1  0
  8 22  1  0
  9 23  1  0
  9 24  1  0
 10 25  1  0
 10 26  1  0
M  END
$$$$
