
     RDKit          3D

 49 52  0  0  0  0  0  0  0  0999 V2000
   -3.7100    3.7980   -0.1181 C   0  0  0  0  0  0  0  0  0  0  0  0
   -2.5726    2.9846    0.4301 C   0  0  0  0  0  0  0  0  0  0  0  0
   -1.9317    3.3688    1.6055 C   0  0  0  0  0  0  0  0  0  0  0  0
   -0.8671    2.6157    2.0791 C   0  0  0  0  0  0  0  0  0  0  0  0
   -0.4450    1.4830    1.3648 C   0  0  0  0  0  0  0  0  0  0  0  0
   -1.0351    1.0563    0.1744 C   0  0  0  0  0  0  0  0  0  0  0  0
   -2.1104    1.8530   -0.2727 C   0  0  0  0  0  0  0  0  0  0  0  0
   -0.5971   -0.0783   -0.5350 N   0  0  0  0  0  0  0  0  0  0  0  0
   -1.3674   -0.6010   -1.6911 C   0  0  0  0  0  0  0  0  0  0  0  0
   -2.6313   -1.3118   -1.2697 C   0  0  0  0  0  0  0  0  0  0  0  0
   -2.6319   -2.2720   -0.2454 C   0  0  0  0  0  0  0  0  0  0  0  0
   -3.8108   -2.9343    0.1070 C   0  0  0  0  0  0  0  0  0  0  0  0
   -5.0005   -2.6556   -0.5652 C   0  0  0  0  0  0  0  0  0  0  0  0
   -5.0106   -1.7129   -1.5909 C   0  0  0  0  0  0  0  0  0  0  0  0
   -3.8319   -1.0568   -1.9372 C   0  0  0  0  0  0  0  0  0  0  0  0
   -3.8642   -0.1588   -2.9331 F   0  0  0  0  0  0  0  0  0  0  0  0
    0.5232   -0.8131   -0.2526 N   0  0  0  0  0  0  0  0  0  0  0  0
    1.2216   -0.6133    0.8240 C   0  0  0  0  0  0  0  0  0  0  0  0
    2.4389   -1.4491    1.0575 C   0  0  0  0  0  0  0  0  0  0  0  0
    2.3229   -2.4311    1.7819 O   0  0  0  0  0  0  0  0  0  0  0  0
    3.6185   -1.0728    0.4179 N   0  0  0  0  0  0  0  0  0  0  0  0
    3.6694   -0.0875   -0.6688 C   0  0  0  0  0  0  0  0  0  0  0  0
    5.0570    0.5510   -0.7861 C   0  0  0  0  0  0  0  0  0  0  0  0
    6.0799   -0.4493   -0.8818 O   0  0  0  0  0  0  0  0  0  0  0  0
    6.0847   -1.2726    0.2946 C   0  0  0  0  0  0  0  0  0  0  0  0
    4.7490   -1.9998    0.4637 C   0  0  0  0  0  0  0  0  0  0  0  0
    0.8882    0.5732    2.0249 S   0  0  0  0  0  6  0  0  0  0  0  0
    0.4042   -0.1009    3.2148 O   0  0  0  0  0  0  0  0  0  0  0  0
    2.0349    1.4667    2.0595 O   0  0  0  0  0  0  0  0  0  0  0  0
   -4.4572    3.1506   -0.5913 H   0  0  0  0  0  0  0  0  0  0  0  0
   -3.3367    4.5126   -0.8588 H   0  0  0  0  0  0  0  0  0  0  0  0
   -4.2183    4.3505    0.6794 H   0  0  0  0  0  0  0  0  0  0  0  0
   -2.2593    4.2464    2.1575 H   0  0  0  0  0  0  0  0  0  0  0  0
   -0.3687    2.9033    3.0029 H   0  0  0  0  0  0  0  0  0  0  0  0
   -2.6308    1.6160   -1.1972 H   0  0  0  0  0  0  0  0  0  0  0  0
   -0.7563   -1.3288   -2.2440 H   0  0  0  0  0  0  0  0  0  0  0  0
   -1.5607    0.2024   -2.4107 H   0  0  0  0  0  0  0  0  0  0  0  0
   -1.7114   -2.5080    0.2860 H   0  0  0  0  0  0  0  0  0  0  0  0
   -3.7970   -3.6708    0.9082 H   0  0  0  0  0  0  0  0  0  0  0  0
   -5.9156   -3.1734   -0.2902 H   0  0  0  0  0  0  0  0  0  0  0  0
   -5.9277   -1.4880   -2.1271 H   0  0  0  0  0  0  0  0  0  0  0  0
    3.4293   -0.6321   -1.5899 H   0  0  0  0  0  0  0  0  0  0  0  0
    2.9141    0.6900   -0.5297 H   0  0  0  0  0  0  0  0  0  0  0  0
    5.1081    1.1707   -1.6870 H   0  0  0  0  0  0  0  0  0  0  0  0
    5.2664    1.1963    0.0748 H   0  0  0  0  0  0  0  0  0  0  0  0
    6.8966   -1.9994    0.1924 H   0  0  0  0  0  0  0  0  0  0  0  0
    6.3044   -0.6452    1.1663 H   0  0  0  0  0  0  0  0  0  0  0  0
    4.7440   -2.5639    1.4014 H   0  0  0  0  0  0  0  0  0  0  0  0
    4.6019   -2.7088   -0.3594 H   0  0  0  0  0  0  0  0  0  0  0  0
  1  2  1  0
  2  3  2  0
  3  4  1  0
  4  5  2  0
  5  6  1  0
  6  7  2  0
  6  8  1  0
  8  9  1  0
  9 10  1  0
 10 11  2  0
 11 12  1  0
 12 13  2  0
 13 14  1  0
 14 15  2  0
 15 16  1  0
  8 17  1  0
 17 18  2  0
 18 19  1  0
 19 20  2  0
 19 21  1  0
 21 22  1  0
 22 23  1  0
 23 24  1  0
 24 25  1  0
 25 26  1  0
 18 27  1  0
 27 28  2  0
 27 29  2  0
  7  2  1  0
 15 10  1  0
 26 21  1  0
 27  5  1  0
  1 30  1  0
  1 31  1  0
  1 32  1  0
  3 33  1  0
  4 34  1  0
  7 35  1  0
  9 36  1  0
  9 37  1  0
 11 38  1  0
 12 39  1  0
 13 40  1  0
 14 41  1  0
 22 42  1  0
 22 43  1  0
 23 44  1  0
 23 45  1  0
 25 46  1  0
 25 47  1  0
 26 48  1  0
 26 49  1  0
M  END
$$$$
