
     RDKit          3D

 53 54  0  0  0  0  0  0  0  0999 V2000
    3.9930    1.4957    1.4860 C   0  0  0  0  0  0  0  0  0  0  0  0
    4.4522    0.0543    1.7310 C   0  0  0  0  0  0  0  0  0  0  0  0
    5.5928    0.0516    2.7537 C   0  0  0  0  0  0  0  0  0  0  0  0
    4.8880   -0.6500    0.4308 C   0  0  2  0  0  0  0  0  0  0  0  0
    5.9497    0.0737   -0.1916 O   0  0  0  0  0  0  0  0  0  0  0  0
    3.7155   -0.8359   -0.5538 C   0  0  0  0  0  0  0  0  0  0  0  0
    3.6736   -0.2126   -1.6145 O   0  0  0  0  0  0  0  0  0  0  0  0
    2.7599   -1.7506   -0.1690 N   0  0  0  0  0  0  0  0  0  0  0  0
    1.4814   -1.8071   -0.8708 C   0  0  1  0  0  0  0  0  0  0  0  0
    0.9394   -3.2294   -0.8771 C   0  0  0  0  0  0  0  0  0  0  0  0
    0.5000   -0.8713   -0.1367 C   0  0  0  0  0  0  0  0  0  0  0  0
    0.6703   -0.5281    1.0332 O   0  0  0  0  0  0  0  0  0  0  0  0
   -0.5917   -0.4881   -0.8839 N   0  0  0  0  0  0  0  0  0  0  0  0
   -1.7424    0.1543   -0.2411 C   0  0  2  0  0  0  0  0  0  0  0  0
   -2.6794   -1.0270    0.1343 C   0  0  0  0  0  0  0  0  0  0  0  0
   -2.5696   -2.1319   -0.4103 O   0  0  0  0  0  0  0  0  0  0  0  0
   -3.6496   -0.7729    1.0982 N   0  0  0  0  0  0  0  0  0  0  0  0
   -4.6222   -1.8091    1.4004 C   0  0  0  0  0  0  0  0  0  0  0  0
   -3.9867    0.5963    1.4598 C   0  0  0  0  0  0  0  0  0  0  0  0
   -4.6011    1.3587    0.2888 C   0  0  0  0  0  0  0  0  0  0  0  0
   -3.7049    1.7175   -0.8837 C   0  0  0  0  0  0  0  0  0  0  0  0
   -4.2498    2.6651   -1.7806 C   0  0  0  0  0  0  0  0  0  0  0  0
   -3.5399    3.1187   -2.8885 C   0  0  0  0  0  0  0  0  0  0  0  0
   -2.2623    2.6390   -3.1222 C   0  0  0  0  0  0  0  0  0  0  0  0
   -1.7095    1.6924   -2.2593 C   0  0  0  0  0  0  0  0  0  0  0  0
   -2.4202    1.1839   -1.1459 C   0  0  0  0  0  0  0  0  0  0  0  0
    4.7974    2.1119    1.0707 H   0  0  0  0  0  0  0  0  0  0  0  0
    3.6675    1.9599    2.4234 H   0  0  0  0  0  0  0  0  0  0  0  0
    3.1462    1.5288    0.7932 H   0  0  0  0  0  0  0  0  0  0  0  0
    3.6108   -0.4919    2.1742 H   0  0  0  0  0  0  0  0  0  0  0  0
    6.4574    0.6213    2.3971 H   0  0  0  0  0  0  0  0  0  0  0  0
    5.9224   -0.9714    2.9641 H   0  0  0  0  0  0  0  0  0  0  0  0
    5.2651    0.4961    3.6996 H   0  0  0  0  0  0  0  0  0  0  0  0
    5.2778   -1.6489    0.6601 H   0  0  0  0  0  0  0  0  0  0  0  0
    5.5535    0.5055   -0.9763 H   0  0  0  0  0  0  0  0  0  0  0  0
    2.7064   -1.9565    0.8223 H   0  0  0  0  0  0  0  0  0  0  0  0
    1.6073   -1.4510   -1.8993 H   0  0  0  0  0  0  0  0  0  0  0  0
    1.6522   -3.9146   -1.3482 H   0  0  0  0  0  0  0  0  0  0  0  0
   -0.0058   -3.2919   -1.4257 H   0  0  0  0  0  0  0  0  0  0  0  0
    0.7548   -3.5887    0.1418 H   0  0  0  0  0  0  0  0  0  0  0  0
   -0.8391   -1.0833   -1.6666 H   0  0  0  0  0  0  0  0  0  0  0  0
   -1.3874    0.6565    0.6638 H   0  0  0  0  0  0  0  0  0  0  0  0
   -4.9103   -1.7376    2.4530 H   0  0  0  0  0  0  0  0  0  0  0  0
   -5.5005   -1.6660    0.7643 H   0  0  0  0  0  0  0  0  0  0  0  0
   -4.2103   -2.8055    1.2179 H   0  0  0  0  0  0  0  0  0  0  0  0
   -4.6950    0.5666    2.2962 H   0  0  0  0  0  0  0  0  0  0  0  0
   -3.0925    1.1065    1.8318 H   0  0  0  0  0  0  0  0  0  0  0  0
   -4.9990    2.2969    0.6987 H   0  0  0  0  0  0  0  0  0  0  0  0
   -5.4543    0.7909   -0.1051 H   0  0  0  0  0  0  0  0  0  0  0  0
   -5.2476    3.0672   -1.6081 H   0  0  0  0  0  0  0  0  0  0  0  0
   -3.9800    3.8531   -3.5575 H   0  0  0  0  0  0  0  0  0  0  0  0
   -1.6890    3.0000   -3.9722 H   0  0  0  0  0  0  0  0  0  0  0  0
   -0.6945    1.3594   -2.4714 H   0  0  0  0  0  0  0  0  0  0  0  0
  1  2  1  0
  2  3  1  0
  2  4  1  0
  4  5  1  0
  4  6  1  0
  6  7  2  0
  6  8  1  0
  8  9  1  0
  9 10  1  0
  9 11  1  0
 11 12  2  0
 11 13  1  0
 13 14  1  0
 14 15  1  0
 15 16  2  0
 15 17  1  0
 17 18  1  0
 17 19  1  0
 19 20  1  0
 20 21  1  0
 21 22  2  0
 22 23  1  0
 23 24  2  0
 24 25  1  0
 25 26  2  0
 26 14  1  0
 26 21  1  0
  1 27  1  0
  1 28  1  0
  1 29  1  0
  2 30  1  0
  3 31  1  0
  3 32  1  0
  3 33  1  0
  4 34  1  1
  5 35  1  0
  8 36  1  0
  9 37  1  6
 10 38  1  0
 10 39  1  0
 10 40  1  0
 13 41  1  0
 14 42  1  1
 18 43  1  0
 18 44  1  0
 18 45  1  0
 19 46  1  0
 19 47  1  0
 20 48  1  0
 20 49  1  0
 22 50  1  0
 23 51  1  0
 24 52  1  0
 25 53  1  0
M  END
$$$$
