
     RDKit          3D

 53 56  0  0  0  0  0  0  0  0999 V2000
    1.4985    1.1130    1.9940 O   0  0  0  0  0  0  0  0  0  0  0  0
    1.8136    0.7295    0.8696 C   0  0  0  0  0  0  0  0  0  0  0  0
    3.2596    0.5249    0.4727 C   0  0  0  0  0  0  0  0  0  0  0  0
    4.1910    0.8155    1.6432 C   0  0  0  0  0  0  0  0  0  0  0  0
    5.5816    0.6694    1.2613 N   0  0  0  0  0  0  0  0  0  0  0  0
    6.3039   -0.4915    1.2609 C   0  0  0  0  0  0  0  0  0  0  0  0
    7.5467   -0.1318    0.7951 C   0  0  0  0  0  0  0  0  0  0  0  0
    7.5928    1.2108    0.5186 N   0  0  0  0  0  0  0  0  0  0  0  0
    6.3992    1.6691    0.8220 C   0  0  0  0  0  0  0  0  0  0  0  0
    0.8770    0.4815   -0.1076 N   0  0  0  0  0  0  0  0  0  0  0  0
    1.1186    0.0367   -1.4640 C   0  0  0  0  0  0  0  0  0  0  0  0
   -0.2678   -0.2258   -2.0707 C   0  0  1  0  0  0  0  0  0  0  0  0
   -0.6755   -1.6957   -1.9653 C   0  0  0  0  0  0  0  0  0  0  0  0
   -1.8749   -2.0498   -2.8456 C   0  0  0  0  0  0  0  0  0  0  0  0
   -2.6799   -0.8669   -3.3648 C   0  0  0  0  0  0  0  0  0  0  0  0
   -3.3983   -0.1191   -2.2693 C   0  0  0  0  0  0  0  0  0  0  0  0
   -4.6305   -0.0632   -2.3091 O   0  0  0  0  0  0  0  0  0  0  0  0
   -2.6562    0.4675   -1.2505 N   0  0  0  0  0  0  0  0  0  0  0  0
   -3.4385    1.2235   -0.2539 C   0  0  0  0  0  0  0  0  0  0  0  0
   -3.6500    0.4671    1.0395 C   0  0  0  0  0  0  0  0  0  0  0  0
   -4.2731   -0.7902    1.0438 C   0  0  0  0  0  0  0  0  0  0  0  0
   -4.4833   -1.4780    2.2410 C   0  0  0  0  0  0  0  0  0  0  0  0
   -4.0859   -0.9117    3.4495 C   0  0  0  0  0  0  0  0  0  0  0  0
   -3.4747    0.3391    3.4619 C   0  0  0  0  0  0  0  0  0  0  0  0
   -3.2633    1.0277    2.2650 C   0  0  0  0  0  0  0  0  0  0  0  0
   -1.1962    0.7144   -1.2654 C   0  0  1  0  0  0  0  0  0  0  0  0
   -0.5373    0.6839    0.1331 C   0  0  0  0  0  0  0  0  0  0  0  0
    3.3959   -0.5098    0.1353 H   0  0  0  0  0  0  0  0  0  0  0  0
    3.4921    1.1958   -0.3646 H   0  0  0  0  0  0  0  0  0  0  0  0
    4.0046    0.1331    2.4811 H   0  0  0  0  0  0  0  0  0  0  0  0
    4.0573    1.8379    2.0157 H   0  0  0  0  0  0  0  0  0  0  0  0
    5.8940   -1.4398    1.5751 H   0  0  0  0  0  0  0  0  0  0  0  0
    8.4105   -0.7666    0.6434 H   0  0  0  0  0  0  0  0  0  0  0  0
    6.0810    2.7007    0.7393 H   0  0  0  0  0  0  0  0  0  0  0  0
    1.7743   -0.8387   -1.4748 H   0  0  0  0  0  0  0  0  0  0  0  0
    1.6226    0.8549   -1.9909 H   0  0  0  0  0  0  0  0  0  0  0  0
   -0.2143    0.0603   -3.1269 H   0  0  0  0  0  0  0  0  0  0  0  0
   -0.9002   -1.9592   -0.9235 H   0  0  0  0  0  0  0  0  0  0  0  0
    0.1628   -2.3407   -2.2596 H   0  0  0  0  0  0  0  0  0  0  0  0
   -1.5138   -2.6207   -3.7123 H   0  0  0  0  0  0  0  0  0  0  0  0
   -2.5300   -2.7320   -2.2873 H   0  0  0  0  0  0  0  0  0  0  0  0
   -2.0970   -0.1670   -3.9691 H   0  0  0  0  0  0  0  0  0  0  0  0
   -3.4480   -1.2586   -4.0454 H   0  0  0  0  0  0  0  0  0  0  0  0
   -2.9269    2.1773   -0.0729 H   0  0  0  0  0  0  0  0  0  0  0  0
   -4.4247    1.4978   -0.6476 H   0  0  0  0  0  0  0  0  0  0  0  0
   -4.6087   -1.2395    0.1118 H   0  0  0  0  0  0  0  0  0  0  0  0
   -4.9661   -2.4523    2.2301 H   0  0  0  0  0  0  0  0  0  0  0  0
   -4.2543   -1.4457    4.3816 H   0  0  0  0  0  0  0  0  0  0  0  0
   -3.1671    0.7848    4.4059 H   0  0  0  0  0  0  0  0  0  0  0  0
   -2.7877    2.0053    2.3025 H   0  0  0  0  0  0  0  0  0  0  0  0
   -1.0714    1.7252   -1.6805 H   0  0  0  0  0  0  0  0  0  0  0  0
   -0.6970    1.6098    0.6937 H   0  0  0  0  0  0  0  0  0  0  0  0
   -0.8851   -0.1621    0.7349 H   0  0  0  0  0  0  0  0  0  0  0  0
  1  2  2  0
  2  3  1  0
  3  4  1  0
  4  5  1  0
  5  6  1  0
  6  7  2  0
  7  8  1  0
  8  9  2  0
  2 10  1  0
 10 11  1  0
 11 12  1  0
 12 13  1  0
 13 14  1  0
 14 15  1  0
 15 16  1  0
 16 17  2  0
 16 18  1  0
 18 19  1  0
 19 20  1  0
 20 21  2  0
 21 22  1  0
 22 23  2  0
 23 24  1  0
 24 25  2  0
 18 26  1  0
 26 27  1  0
  9  5  1  0
 27 10  1  0
 26 12  1  0
 25 20  1  0
  3 28  1  0
  3 29  1  0
  4 30  1  0
  4 31  1  0
  6 32  1  0
  7 33  1  0
  9 34  1  0
 11 35  1  0
 11 36  1  0
 12 37  1  6
 13 38  1  0
 13 39  1  0
 14 40  1  0
 14 41  1  0
 15 42  1  0
 15 43  1  0
 19 44  1  0
 19 45  1  0
 21 46  1  0
 22 47  1  0
 23 48  1  0
 24 49  1  0
 25 50  1  0
 26 51  1  6
 27 52  1  0
 27 53  1  0
M  END
$$$$
