
     RDKit          3D

 48 51  0  0  0  0  0  0  0  0999 V2000
    5.1578    1.0947    1.7110 C   0  0  0  0  0  0  0  0  0  0  0  0
    5.2951    0.2025    0.6151 O   0  0  0  0  0  0  0  0  0  0  0  0
    4.1479   -0.2827    0.0438 C   0  0  0  0  0  0  0  0  0  0  0  0
    2.8513   -0.0508    0.5183 C   0  0  0  0  0  0  0  0  0  0  0  0
    1.7164   -0.5781   -0.1339 C   0  0  0  0  0  0  0  0  0  0  0  0
    1.9125   -1.4000   -1.2640 C   0  0  0  0  0  0  0  0  0  0  0  0
    3.2128   -1.6306   -1.7429 C   0  0  0  0  0  0  0  0  0  0  0  0
    4.3130   -1.0767   -1.0928 C   0  0  0  0  0  0  0  0  0  0  0  0
    5.5751   -1.3124   -1.5701 O   0  0  0  0  0  0  0  0  0  0  0  0
    0.7633   -2.0116   -2.0293 C   0  0  0  0  0  0  0  0  0  0  0  0
   -0.5693   -1.9700   -1.2878 C   0  0  0  0  0  0  0  0  0  0  0  0
   -0.7751   -0.5850   -0.6721 C   0  0  2  0  0  0  0  0  0  0  0  0
    0.3107   -0.3493    0.4217 C   0  0  2  0  0  0  0  0  0  0  0  0
    0.0972    1.0119    1.1380 C   0  0  0  0  0  0  0  0  0  0  0  0
   -1.3441    1.2282    1.6384 C   0  0  0  0  0  0  0  0  0  0  0  0
   -2.3758    0.9927    0.5287 C   0  0  2  0  0  0  0  0  0  0  0  0
   -2.2725    2.1320   -0.5173 C   0  0  0  0  0  0  0  0  0  0  0  0
   -3.8306    0.8436    1.0158 C   0  0  1  0  0  0  0  0  0  0  0  0
   -4.4866    2.0755    1.2433 O   0  0  0  0  0  0  0  0  0  0  0  0
   -4.5222    0.0536   -0.1116 C   0  0  0  0  0  0  0  0  0  0  0  0
   -3.4017   -0.6686   -0.8818 C   0  0  0  0  0  0  0  0  0  0  0  0
   -2.1555   -0.4253   -0.0352 C   0  0  1  0  0  0  0  0  0  0  0  0
    6.1595    1.4289    1.9985 H   0  0  0  0  0  0  0  0  0  0  0  0
    4.5797    1.9822    1.4320 H   0  0  0  0  0  0  0  0  0  0  0  0
    4.7159    0.5894    2.5762 H   0  0  0  0  0  0  0  0  0  0  0  0
    2.7138    0.5388    1.4162 H   0  0  0  0  0  0  0  0  0  0  0  0
    3.3527   -2.2472   -2.6266 H   0  0  0  0  0  0  0  0  0  0  0  0
    5.5155   -1.8782   -2.3547 H   0  0  0  0  0  0  0  0  0  0  0  0
    0.6624   -1.4642   -2.9751 H   0  0  0  0  0  0  0  0  0  0  0  0
    0.9944   -3.0547   -2.2763 H   0  0  0  0  0  0  0  0  0  0  0  0
   -0.5863   -2.7378   -0.5037 H   0  0  0  0  0  0  0  0  0  0  0  0
   -1.3724   -2.2155   -1.9920 H   0  0  0  0  0  0  0  0  0  0  0  0
   -0.6544    0.1534   -1.4753 H   0  0  0  0  0  0  0  0  0  0  0  0
    0.1810   -1.1261    1.1913 H   0  0  0  0  0  0  0  0  0  0  0  0
    0.3883    1.8314    0.4698 H   0  0  0  0  0  0  0  0  0  0  0  0
    0.7517    1.0862    2.0140 H   0  0  0  0  0  0  0  0  0  0  0  0
   -1.4419    2.2395    2.0512 H   0  0  0  0  0  0  0  0  0  0  0  0
   -1.5275    0.5372    2.4716 H   0  0  0  0  0  0  0  0  0  0  0  0
   -2.4465    3.1059   -0.0449 H   0  0  0  0  0  0  0  0  0  0  0  0
   -3.0080    2.0298   -1.3215 H   0  0  0  0  0  0  0  0  0  0  0  0
   -1.2887    2.1837   -0.9910 H   0  0  0  0  0  0  0  0  0  0  0  0
   -3.8765    0.2594    1.9435 H   0  0  0  0  0  0  0  0  0  0  0  0
   -3.9833    2.5543    1.9238 H   0  0  0  0  0  0  0  0  0  0  0  0
   -5.2293   -0.6672    0.3140 H   0  0  0  0  0  0  0  0  0  0  0  0
   -5.0964    0.7048   -0.7801 H   0  0  0  0  0  0  0  0  0  0  0  0
   -3.6204   -1.7355   -0.9928 H   0  0  0  0  0  0  0  0  0  0  0  0
   -3.2942   -0.2456   -1.8867 H   0  0  0  0  0  0  0  0  0  0  0  0
   -2.2086   -1.1466    0.7976 H   0  0  0  0  0  0  0  0  0  0  0  0
  1  2  1  0
  2  3  1  0
  3  4  2  0
  4  5  1  0
  5  6  2  0
  6  7  1  0
  7  8  2  0
  8  9  1  0
  6 10  1  0
 10 11  1  0
 11 12  1  0
 12 13  1  0
 13 14  1  0
 14 15  1  0
 15 16  1  0
 16 17  1  6
 16 18  1  0
 18 19  1  0
 18 20  1  0
 20 21  1  0
 21 22  1  0
  8  3  1  0
 22 12  1  0
 13  5  1  0
 22 16  1  0
  1 23  1  0
  1 24  1  0
  1 25  1  0
  4 26  1  0
  7 27  1  0
  9 28  1  0
 10 29  1  0
 10 30  1  0
 11 31  1  0
 11 32  1  0
 12 33  1  6
 13 34  1  1
 14 35  1  0
 14 36  1  0
 15 37  1  0
 15 38  1  0
 17 39  1  0
 17 40  1  0
 17 41  1  0
 18 42  1  1
 19 43  1  0
 20 44  1  0
 20 45  1  0
 21 46  1  0
 21 47  1  0
 22 48  1  1
M  END
$$$$
