
     RDKit          3D

 78 82  0  0  0  0  0  0  0  0999 V2000
   -6.5939    5.7834   -0.4052 C   0  0  0  0  0  0  0  0  0  0  0  0
   -6.5961    4.7208   -1.3513 O   0  0  0  0  0  0  0  0  0  0  0  0
   -5.6950    3.7107   -1.1598 C   0  0  0  0  0  0  0  0  0  0  0  0
   -5.7082    2.7288   -2.1539 C   0  0  0  0  0  0  0  0  0  0  0  0
   -4.8390    1.6408   -2.0905 C   0  0  0  0  0  0  0  0  0  0  0  0
   -3.9207    1.5435   -1.0350 C   0  0  0  0  0  0  0  0  0  0  0  0
   -3.0174    0.4428   -1.0150 N   0  0  0  0  0  0  0  0  0  0  0  0
   -3.4837   -0.8440   -0.7219 C   0  0  0  0  0  0  0  0  0  0  0  0
   -2.8371   -1.8853   -0.8092 O   0  0  0  0  0  0  0  0  0  0  0  0
   -4.8266   -0.8264   -0.3047 O   0  0  0  0  0  0  0  0  0  0  0  0
   -5.3129   -2.0474    0.1856 C   0  0  0  0  0  0  0  0  0  0  0  0
   -6.1297   -2.8298   -0.6436 C   0  0  0  0  0  0  0  0  0  0  0  0
   -6.4458   -2.4182   -2.0488 C   0  0  0  0  0  0  0  0  0  0  0  0
   -6.6230   -4.0401   -0.1359 C   0  0  0  0  0  0  0  0  0  0  0  0
   -6.3304   -4.4338    1.1710 C   0  0  0  0  0  0  0  0  0  0  0  0
   -5.5461   -3.6237    1.9921 C   0  0  0  0  0  0  0  0  0  0  0  0
   -5.0406   -2.4091    1.5169 C   0  0  0  0  0  0  0  0  0  0  0  0
   -4.2036   -1.5450    2.4141 C   0  0  0  0  0  0  0  0  0  0  0  0
   -1.6200    0.7158   -1.1899 C   0  0  0  0  0  0  0  0  0  0  0  0
   -1.1905    1.9071   -1.7537 C   0  0  0  0  0  0  0  0  0  0  0  0
    0.1650    2.0709   -1.8950 C   0  0  0  0  0  0  0  0  0  0  0  0
    1.0622    1.1586   -1.5093 N   0  0  0  0  0  0  0  0  0  0  0  0
    0.5873    0.0340   -0.9549 C   0  0  0  0  0  0  0  0  0  0  0  0
    1.4350   -0.9491   -0.4498 N   0  0  0  0  0  0  0  0  0  0  0  0
    2.8221   -1.0172   -0.3093 C   0  0  0  0  0  0  0  0  0  0  0  0
    3.7141   -0.3093   -1.1104 C   0  0  0  0  0  0  0  0  0  0  0  0
    5.0994   -0.3577   -0.8809 C   0  0  0  0  0  0  0  0  0  0  0  0
    5.6600   -1.0850    0.1800 C   0  0  0  0  0  0  0  0  0  0  0  0
    7.0239   -1.0949    0.4242 N   0  0  0  0  0  0  0  0  0  0  0  0
    7.9171   -0.0572   -0.1286 C   0  0  0  0  0  0  0  0  0  0  0  0
    9.0576    0.2826    0.8595 C   0  0  0  0  0  0  0  0  0  0  0  0
    9.9122   -0.8668    1.2319 N   0  0  0  0  0  0  0  0  0  0  0  0
   10.5566   -0.6270    2.5171 C   0  0  0  0  0  0  0  0  0  0  0  0
    9.1490   -2.1318    1.2169 C   0  0  0  0  0  0  0  0  0  0  0  0
    7.6219   -2.0002    1.4201 C   0  0  0  0  0  0  0  0  0  0  0  0
    4.7512   -1.8046    0.9714 C   0  0  0  0  0  0  0  0  0  0  0  0
    3.3672   -1.7756    0.7320 C   0  0  0  0  0  0  0  0  0  0  0  0
   -0.7232   -0.2080   -0.7937 N   0  0  0  0  0  0  0  0  0  0  0  0
   -3.9024    2.5246   -0.0197 C   0  0  0  0  0  0  0  0  0  0  0  0
   -3.0062    2.3251    1.0020 O   0  0  0  0  0  0  0  0  0  0  0  0
   -2.7923    3.3968    1.9097 C   0  0  0  0  0  0  0  0  0  0  0  0
   -4.8022    3.5974   -0.0855 C   0  0  0  0  0  0  0  0  0  0  0  0
   -6.9006    5.4271    0.5822 H   0  0  0  0  0  0  0  0  0  0  0  0
   -5.6149    6.2792   -0.3631 H   0  0  0  0  0  0  0  0  0  0  0  0
   -7.3283    6.5223   -0.7358 H   0  0  0  0  0  0  0  0  0  0  0  0
   -6.4034    2.8215   -2.9861 H   0  0  0  0  0  0  0  0  0  0  0  0
   -4.8660    0.8860   -2.8744 H   0  0  0  0  0  0  0  0  0  0  0  0
   -5.5822   -2.5827   -2.6989 H   0  0  0  0  0  0  0  0  0  0  0  0
   -6.7338   -1.3622   -2.0850 H   0  0  0  0  0  0  0  0  0  0  0  0
   -7.2875   -2.9924   -2.4487 H   0  0  0  0  0  0  0  0  0  0  0  0
   -7.2355   -4.6905   -0.7547 H   0  0  0  0  0  0  0  0  0  0  0  0
   -6.7139   -5.3790    1.5518 H   0  0  0  0  0  0  0  0  0  0  0  0
   -5.3331   -3.9472    3.0091 H   0  0  0  0  0  0  0  0  0  0  0  0
   -4.2887   -1.8584    3.4607 H   0  0  0  0  0  0  0  0  0  0  0  0
   -4.5304   -0.5003    2.3629 H   0  0  0  0  0  0  0  0  0  0  0  0
   -3.1492   -1.6099    2.1245 H   0  0  0  0  0  0  0  0  0  0  0  0
   -1.8582    2.6831   -2.0971 H   0  0  0  0  0  0  0  0  0  0  0  0
    0.5809    2.9685   -2.3425 H   0  0  0  0  0  0  0  0  0  0  0  0
    0.8836   -1.6535    0.0225 H   0  0  0  0  0  0  0  0  0  0  0  0
    3.3520    0.2817   -1.9484 H   0  0  0  0  0  0  0  0  0  0  0  0
    5.7300    0.1925   -1.5745 H   0  0  0  0  0  0  0  0  0  0  0  0
    7.3808    0.8796   -0.3170 H   0  0  0  0  0  0  0  0  0  0  0  0
    8.3350   -0.4067   -1.0809 H   0  0  0  0  0  0  0  0  0  0  0  0
    9.6926    1.0600    0.4185 H   0  0  0  0  0  0  0  0  0  0  0  0
    8.5953    0.7213    1.7548 H   0  0  0  0  0  0  0  0  0  0  0  0
    9.8334   -0.5051    3.3311 H   0  0  0  0  0  0  0  0  0  0  0  0
   11.2243   -1.4565    2.7775 H   0  0  0  0  0  0  0  0  0  0  0  0
   11.1810    0.2754    2.4670 H   0  0  0  0  0  0  0  0  0  0  0  0
    9.3166   -2.5863    0.2302 H   0  0  0  0  0  0  0  0  0  0  0  0
    9.5540   -2.8487    1.9420 H   0  0  0  0  0  0  0  0  0  0  0  0
    7.4132   -1.6200    2.4282 H   0  0  0  0  0  0  0  0  0  0  0  0
    7.1946   -3.0078    1.3364 H   0  0  0  0  0  0  0  0  0  0  0  0
    5.0891   -2.3865    1.8225 H   0  0  0  0  0  0  0  0  0  0  0  0
    2.7160   -2.3355    1.4000 H   0  0  0  0  0  0  0  0  0  0  0  0
   -3.6776    3.5649    2.5325 H   0  0  0  0  0  0  0  0  0  0  0  0
   -1.9664    3.1210    2.5722 H   0  0  0  0  0  0  0  0  0  0  0  0
   -2.5021    4.3072    1.3802 H   0  0  0  0  0  0  0  0  0  0  0  0
   -4.8158    4.3410    0.7063 H   0  0  0  0  0  0  0  0  0  0  0  0
  1  2  1  0
  2  3  1  0
  3  4  2  0
  4  5  1  0
  5  6  2  0
  6  7  1  0
  7  8  1  0
  8  9  2  0
  8 10  1  0
 10 11  1  0
 11 12  2  0
 12 13  1  0
 12 14  1  0
 14 15  2  0
 15 16  1  0
 16 17  2  0
 17 18  1  0
  7 19  1  0
 19 20  2  0
 20 21  1  0
 21 22  2  0
 22 23  1  0
 23 24  1  0
 24 25  1  0
 25 26  2  0
 26 27  1  0
 27 28  2  0
 28 29  1  0
 29 30  1  0
 30 31  1  0
 31 32  1  0
 32 33  1  0
 32 34  1  0
 34 35  1  0
 28 36  1  0
 36 37  2  0
 23 38  2  0
  6 39  1  0
 39 40  1  0
 40 41  1  0
 39 42  2  0
 42  3  1  0
 17 11  1  0
 38 19  1  0
 37 25  1  0
 35 29  1  0
  1 43  1  0
  1 44  1  0
  1 45  1  0
  4 46  1  0
  5 47  1  0
 13 48  1  0
 13 49  1  0
 13 50  1  0
 14 51  1  0
 15 52  1  0
 16 53  1  0
 18 54  1  0
 18 55  1  0
 18 56  1  0
 20 57  1  0
 21 58  1  0
 24 59  1  0
 26 60  1  0
 27 61  1  0
 30 62  1  0
 30 63  1  0
 31 64  1  0
 31 65  1  0
 33 66  1  0
 33 67  1  0
 33 68  1  0
 34 69  1  0
 34 70  1  0
 35 71  1  0
 35 72  1  0
 36 73  1  0
 37 74  1  0
 41 75  1  0
 41 76  1  0
 41 77  1  0
 42 78  1  0
M  END
$$$$
