
     RDKit          3D

 85 90  0  0  0  0  0  0  0  0999 V2000
    6.7312    2.5432    1.9617 C   0  0  0  0  0  0  0  0  0  0  0  0
    6.5993    1.2322    1.1946 C   0  0  0  0  0  0  0  0  0  0  0  0
    5.1993    0.9806    1.0317 O   0  0  0  0  0  0  0  0  0  0  0  0
    4.9441   -0.3103    0.4619 C   0  0  0  0  0  0  0  0  0  0  0  0
    3.5203   -0.4545    0.4223 O   0  0  0  0  0  0  0  0  0  0  0  0
    3.0544   -1.7960    0.2417 C   0  0  0  0  0  0  0  0  0  0  0  0
    2.2711   -2.1773    1.4981 C   0  0  0  0  0  0  0  0  0  0  0  0
    0.9662   -1.3748    1.6591 C   0  0  0  0  0  0  0  0  0  0  0  0
    0.3541   -1.8222    2.8676 O   0  0  0  0  0  0  0  0  0  0  0  0
    0.0200   -1.4899    0.4097 C   0  0  0  0  0  0  0  0  0  0  0  0
   -0.3744   -2.9901    0.1868 C   0  0  0  0  0  0  0  0  0  0  0  0
   -1.0428   -3.5803    1.3000 O   0  0  0  0  0  0  0  0  0  0  0  0
   -1.2454   -0.4929    0.5973 C   0  0  0  0  0  0  0  0  0  0  0  0
   -2.5154   -1.0569    1.3181 C   0  0  0  0  0  0  0  0  0  0  0  0
   -3.0369   -2.2137    0.6798 O   0  0  0  0  0  0  0  0  0  0  0  0
   -3.6985   -0.0698    1.4224 C   0  0  0  0  0  0  0  0  0  0  0  0
   -4.1076    0.4980    0.0465 C   0  0  0  0  0  0  0  0  0  0  0  0
   -4.7325   -0.5924   -0.8658 C   0  0  0  0  0  0  0  0  0  0  0  0
   -5.0699    1.7332    0.0981 C   0  0  0  0  0  0  0  0  0  0  0  0
   -6.5334    1.5746    0.4119 C   0  0  0  0  0  0  0  0  0  0  0  0
   -7.1855    0.5494    0.9572 C   0  0  0  0  0  0  0  0  0  0  0  0
   -8.5845    0.9479    1.1100 C   0  0  0  0  0  0  0  0  0  0  0  0
   -9.4591    0.2493    1.5849 O   0  0  0  0  0  0  0  0  0  0  0  0
   -8.7388    2.2196    0.6545 O   0  0  0  0  0  0  0  0  0  0  0  0
   -7.4797    2.6999    0.1896 C   0  0  0  0  0  0  0  0  0  0  0  0
   -4.7887    2.4296   -1.2720 C   0  0  0  0  0  0  0  0  0  0  0  0
   -3.4141    1.9197   -1.7674 C   0  0  0  0  0  0  0  0  0  0  0  0
   -2.8516    1.1698   -0.5622 C   0  0  0  0  0  0  0  0  0  0  0  0
   -2.4271    2.2130    0.3692 O   0  0  0  0  0  0  0  0  0  0  0  0
   -1.5989    0.2876   -0.7281 C   0  0  0  0  0  0  0  0  0  0  0  0
   -1.4415   -0.6023   -1.9572 C   0  0  0  0  0  0  0  0  0  0  0  0
    0.0237   -1.0612   -2.1342 C   0  0  0  0  0  0  0  0  0  0  0  0
    0.8680   -1.0144   -0.8369 C   0  0  0  0  0  0  0  0  0  0  0  0
    1.2525    0.3666   -0.6619 O   0  0  0  0  0  0  0  0  0  0  0  0
    2.1768   -1.8205   -1.0188 C   0  0  0  0  0  0  0  0  0  0  0  0
    5.5607   -0.4170   -0.9588 C   0  0  0  0  0  0  0  0  0  0  0  0
    4.8713    0.4400   -1.8862 O   0  0  0  0  0  0  0  0  0  0  0  0
    7.0556   -0.0566   -0.9280 C   0  0  0  0  0  0  0  0  0  0  0  0
    7.7890   -1.1069   -0.2889 O   0  0  0  0  0  0  0  0  0  0  0  0
    7.2902    1.2752   -0.1872 C   0  0  0  0  0  0  0  0  0  0  0  0
    6.7677    2.3359   -1.0000 O   0  0  0  0  0  0  0  0  0  0  0  0
    7.7801    2.8369    2.0749 H   0  0  0  0  0  0  0  0  0  0  0  0
    6.2968    2.4349    2.9617 H   0  0  0  0  0  0  0  0  0  0  0  0
    6.1828    3.3545    1.4708 H   0  0  0  0  0  0  0  0  0  0  0  0
    7.0363    0.4349    1.8111 H   0  0  0  0  0  0  0  0  0  0  0  0
    5.3666   -1.0684    1.1385 H   0  0  0  0  0  0  0  0  0  0  0  0
    3.8943   -2.4893    0.1134 H   0  0  0  0  0  0  0  0  0  0  0  0
    2.8926   -1.9989    2.3855 H   0  0  0  0  0  0  0  0  0  0  0  0
    2.0625   -3.2537    1.5055 H   0  0  0  0  0  0  0  0  0  0  0  0
    1.2361   -0.3234    1.8223 H   0  0  0  0  0  0  0  0  0  0  0  0
   -0.2127   -1.0981    3.1898 H   0  0  0  0  0  0  0  0  0  0  0  0
   -1.0345   -3.1039   -0.6765 H   0  0  0  0  0  0  0  0  0  0  0  0
    0.4933   -3.6203   -0.0256 H   0  0  0  0  0  0  0  0  0  0  0  0
   -0.5371   -4.3731    1.5728 H   0  0  0  0  0  0  0  0  0  0  0  0
   -0.8927    0.3030    1.2734 H   0  0  0  0  0  0  0  0  0  0  0  0
   -2.2465   -1.3450    2.3404 H   0  0  0  0  0  0  0  0  0  0  0  0
   -2.5257   -2.9638    1.0505 H   0  0  0  0  0  0  0  0  0  0  0  0
   -3.4308    0.7408    2.1119 H   0  0  0  0  0  0  0  0  0  0  0  0
   -4.5545   -0.5842    1.8755 H   0  0  0  0  0  0  0  0  0  0  0  0
   -5.3059   -0.1715   -1.6980 H   0  0  0  0  0  0  0  0  0  0  0  0
   -3.9940   -1.2497   -1.3155 H   0  0  0  0  0  0  0  0  0  0  0  0
   -5.4183   -1.2371   -0.3075 H   0  0  0  0  0  0  0  0  0  0  0  0
   -4.7102    2.4202    0.8801 H   0  0  0  0  0  0  0  0  0  0  0  0
   -6.8248   -0.4087    1.2866 H   0  0  0  0  0  0  0  0  0  0  0  0
   -7.2035    3.5859    0.7683 H   0  0  0  0  0  0  0  0  0  0  0  0
   -7.5723    2.9630   -0.8685 H   0  0  0  0  0  0  0  0  0  0  0  0
   -5.5561    2.2028   -2.0211 H   0  0  0  0  0  0  0  0  0  0  0  0
   -4.7698    3.5186   -1.1435 H   0  0  0  0  0  0  0  0  0  0  0  0
   -3.5590    1.2647   -2.6324 H   0  0  0  0  0  0  0  0  0  0  0  0
   -2.7853    2.7601   -2.0760 H   0  0  0  0  0  0  0  0  0  0  0  0
   -1.6730    2.6829   -0.0325 H   0  0  0  0  0  0  0  0  0  0  0  0
   -0.8138    1.0421   -0.8614 H   0  0  0  0  0  0  0  0  0  0  0  0
   -2.0702   -1.4915   -1.8850 H   0  0  0  0  0  0  0  0  0  0  0  0
   -1.7517   -0.0836   -2.8700 H   0  0  0  0  0  0  0  0  0  0  0  0
    0.0171   -2.0708   -2.5615 H   0  0  0  0  0  0  0  0  0  0  0  0
    0.4932   -0.4141   -2.8887 H   0  0  0  0  0  0  0  0  0  0  0  0
    2.1550    0.4020   -0.2784 H   0  0  0  0  0  0  0  0  0  0  0  0
    2.7474   -1.3784   -1.8457 H   0  0  0  0  0  0  0  0  0  0  0  0
    1.9690   -2.8570   -1.3035 H   0  0  0  0  0  0  0  0  0  0  0  0
    5.4345   -1.4394   -1.3289 H   0  0  0  0  0  0  0  0  0  0  0  0
    4.9849    1.3535   -1.5522 H   0  0  0  0  0  0  0  0  0  0  0  0
    7.4124    0.0317   -1.9630 H   0  0  0  0  0  0  0  0  0  0  0  0
    8.6865   -1.0983   -0.6747 H   0  0  0  0  0  0  0  0  0  0  0  0
    8.3662    1.4431   -0.0588 H   0  0  0  0  0  0  0  0  0  0  0  0
    6.9454    3.1813   -0.5455 H   0  0  0  0  0  0  0  0  0  0  0  0
  1  2  1  0
  2  3  1  0
  3  4  1  0
  4  5  1  0
  5  6  1  0
  6  7  1  0
  7  8  1  0
  8  9  1  0
  8 10  1  0
 10 11  1  0
 11 12  1  0
 10 13  1  0
 13 14  1  0
 14 15  1  0
 14 16  1  0
 16 17  1  0
 17 18  1  0
 17 19  1  0
 19 20  1  0
 20 21  2  0
 21 22  1  0
 22 23  2  0
 22 24  1  0
 24 25  1  0
 19 26  1  0
 26 27  1  0
 27 28  1  0
 28 29  1  0
 28 30  1  0
 30 31  1  0
 31 32  1  0
 32 33  1  0
 33 34  1  0
 33 35  1  0
  4 36  1  0
 36 37  1  0
 36 38  1  0
 38 39  1  0
 38 40  1  0
 40 41  1  0
 40  2  1  0
 35  6  1  0
 33 10  1  0
 30 13  1  0
 28 17  1  0
 25 20  1  0
  1 42  1  0
  1 43  1  0
  1 44  1  0
  2 45  1  0
  4 46  1  0
  6 47  1  0
  7 48  1  0
  7 49  1  0
  8 50  1  0
  9 51  1  0
 11 52  1  0
 11 53  1  0
 12 54  1  0
 13 55  1  0
 14 56  1  0
 15 57  1  0
 16 58  1  0
 16 59  1  0
 18 60  1  0
 18 61  1  0
 18 62  1  0
 19 63  1  0
 21 64  1  0
 25 65  1  0
 25 66  1  0
 26 67  1  0
 26 68  1  0
 27 69  1  0
 27 70  1  0
 29 71  1  0
 30 72  1  0
 31 73  1  0
 31 74  1  0
 32 75  1  0
 32 76  1  0
 34 77  1  0
 35 78  1  0
 35 79  1  0
 36 80  1  0
 37 81  1  0
 38 82  1  0
 39 83  1  0
 40 84  1  0
 41 85  1  0
M  END
$$$$
