
     RDKit          3D

 63 66  0  0  0  0  0  0  0  0999 V2000
    7.4424    1.1131   -0.7720 C   0  0  0  0  0  0  0  0  0  0  0  0
    6.9370   -0.0306    0.1022 C   0  0  0  0  0  0  0  0  0  0  0  0
    5.5516   -0.4024   -0.2161 N   0  0  0  0  0  0  0  0  0  0  0  0
    4.5653    0.5902    0.2391 C   0  0  0  0  0  0  0  0  0  0  0  0
    3.7148    0.1344    1.4262 C   0  0  0  0  0  0  0  0  0  0  0  0
    2.9687   -1.1830    1.1419 C   0  0  0  0  0  0  0  0  0  0  0  0
    1.5548   -0.9503    0.5828 C   0  0  0  0  0  0  0  0  0  0  0  0
    0.5644   -0.4450    1.6203 C   0  0  0  0  0  0  0  0  0  0  0  0
    0.8524   -0.2608    2.7993 O   0  0  0  0  0  0  0  0  0  0  0  0
   -0.7004   -0.2356    1.1403 N   0  0  0  0  0  0  0  0  0  0  0  0
   -1.7859    0.5033    1.7672 C   0  0  0  0  0  0  0  0  0  0  0  0
   -2.5853    0.2062    0.4778 C   0  0  0  0  0  0  0  0  0  0  0  0
   -1.2175   -0.0761   -0.2070 C   0  0  0  0  0  0  0  0  0  0  0  0
   -3.4862   -1.0318    0.5541 C   0  0  0  0  0  0  0  0  0  0  0  0
   -4.4243   -0.9068   -0.5998 N   0  0  0  0  0  0  0  0  0  0  0  0
   -6.0215   -1.4241   -0.3668 S   0  0  0  0  0  6  0  0  0  0  0  0
   -6.7204   -1.2447   -1.6208 O   0  0  0  0  0  0  0  0  0  0  0  0
   -6.4954   -0.7864    0.8424 O   0  0  0  0  0  0  0  0  0  0  0  0
   -5.8320   -3.1785   -0.0604 C   0  0  0  0  0  0  0  0  0  0  0  0
   -5.1798   -3.9114   -1.2145 C   0  0  0  0  0  0  0  0  0  0  0  0
   -4.2857    0.4775   -1.1542 C   0  0  0  0  0  0  0  0  0  0  0  0
   -3.5101    1.2704   -0.0985 C   0  0  0  0  0  0  0  0  0  0  0  0
   -2.8459    2.4877   -0.6110 C   0  0  0  0  0  0  0  0  0  0  0  0
   -2.2850    3.4610    0.0693 N   0  0  0  0  0  0  0  0  0  0  0  0
   -1.8398    4.2922   -0.9261 C   0  0  0  0  0  0  0  0  0  0  0  0
   -1.1421    5.5620   -0.6541 C   0  0  0  0  0  0  0  0  0  0  0  0
   -2.0855    3.8604   -2.1688 N   0  0  0  0  0  0  0  0  0  0  0  0
   -2.7588    2.6584   -1.9624 O   0  0  0  0  0  0  0  0  0  0  0  0
    3.7723   -2.0737    0.1775 C   0  0  0  0  0  0  0  0  0  0  0  0
    5.2656   -1.7674    0.2491 C   0  0  0  0  0  0  0  0  0  0  0  0
    7.3570    0.8611   -1.8346 H   0  0  0  0  0  0  0  0  0  0  0  0
    8.4993    1.3051   -0.5577 H   0  0  0  0  0  0  0  0  0  0  0  0
    6.8969    2.0448   -0.5953 H   0  0  0  0  0  0  0  0  0  0  0  0
    7.6001   -0.8854   -0.0841 H   0  0  0  0  0  0  0  0  0  0  0  0
    7.0423    0.2254    1.1646 H   0  0  0  0  0  0  0  0  0  0  0  0
    5.0317    1.5485    0.4945 H   0  0  0  0  0  0  0  0  0  0  0  0
    3.8993    0.8042   -0.6061 H   0  0  0  0  0  0  0  0  0  0  0  0
    3.0199    0.9334    1.7067 H   0  0  0  0  0  0  0  0  0  0  0  0
    4.3720   -0.0114    2.2933 H   0  0  0  0  0  0  0  0  0  0  0  0
    2.8780   -1.7165    2.0981 H   0  0  0  0  0  0  0  0  0  0  0  0
    1.1549   -1.8980    0.1990 H   0  0  0  0  0  0  0  0  0  0  0  0
    1.5934   -0.2368   -0.2488 H   0  0  0  0  0  0  0  0  0  0  0  0
   -2.1625    0.0429    2.6844 H   0  0  0  0  0  0  0  0  0  0  0  0
   -1.5279    1.5499    1.9538 H   0  0  0  0  0  0  0  0  0  0  0  0
   -0.7435    0.7560   -0.7358 H   0  0  0  0  0  0  0  0  0  0  0  0
   -1.1610   -0.9806   -0.8179 H   0  0  0  0  0  0  0  0  0  0  0  0
   -4.0393   -1.0323    1.4997 H   0  0  0  0  0  0  0  0  0  0  0  0
   -2.9298   -1.9711    0.4785 H   0  0  0  0  0  0  0  0  0  0  0  0
   -6.8394   -3.5699    0.1158 H   0  0  0  0  0  0  0  0  0  0  0  0
   -5.2562   -3.2989    0.8620 H   0  0  0  0  0  0  0  0  0  0  0  0
   -4.1684   -3.5404   -1.4038 H   0  0  0  0  0  0  0  0  0  0  0  0
   -5.7581   -3.7919   -2.1357 H   0  0  0  0  0  0  0  0  0  0  0  0
   -5.1112   -4.9804   -0.9920 H   0  0  0  0  0  0  0  0  0  0  0  0
   -3.7376    0.3822   -2.0995 H   0  0  0  0  0  0  0  0  0  0  0  0
   -5.2471    0.9526   -1.3737 H   0  0  0  0  0  0  0  0  0  0  0  0
   -4.2194    1.5805    0.6822 H   0  0  0  0  0  0  0  0  0  0  0  0
   -1.0721    5.7472    0.4223 H   0  0  0  0  0  0  0  0  0  0  0  0
   -1.6788    6.4009   -1.1082 H   0  0  0  0  0  0  0  0  0  0  0  0
   -0.1271    5.5381   -1.0619 H   0  0  0  0  0  0  0  0  0  0  0  0
    3.4278   -1.9394   -0.8565 H   0  0  0  0  0  0  0  0  0  0  0  0
    3.5970   -3.1276    0.4242 H   0  0  0  0  0  0  0  0  0  0  0  0
    5.8032   -2.4816   -0.3863 H   0  0  0  0  0  0  0  0  0  0  0  0
    5.6186   -1.9185    1.2779 H   0  0  0  0  0  0  0  0  0  0  0  0
  1  2  1  0
  2  3  1  0
  3  4  1  0
  4  5  1  0
  5  6  1  0
  6  7  1  0
  7  8  1  0
  8  9  2  0
  8 10  1  0
 10 11  1  0
 11 12  1  0
 12 13  1  0
 12 14  1  0
 14 15  1  0
 15 16  1  0
 16 17  2  0
 16 18  2  0
 16 19  1  0
 19 20  1  0
 15 21  1  0
 21 22  1  0
 22 23  1  0
 23 24  2  0
 24 25  1  0
 25 26  1  0
 25 27  2  0
 27 28  1  0
  6 29  1  0
 29 30  1  0
 30  3  1  0
 13 10  1  0
 28 23  1  0
 22 12  1  0
  1 31  1  0
  1 32  1  0
  1 33  1  0
  2 34  1  0
  2 35  1  0
  4 36  1  0
  4 37  1  0
  5 38  1  0
  5 39  1  0
  6 40  1  0
  7 41  1  0
  7 42  1  0
 11 43  1  0
 11 44  1  0
 13 45  1  0
 13 46  1  0
 14 47  1  0
 14 48  1  0
 19 49  1  0
 19 50  1  0
 20 51  1  0
 20 52  1  0
 20 53  1  0
 21 54  1  0
 21 55  1  0
 22 56  1  0
 26 57  1  0
 26 58  1  0
 26 59  1  0
 29 60  1  0
 29 61  1  0
 30 62  1  0
 30 63  1  0
M  END
$$$$
