
     RDKit          3D

 57 60  0  0  0  0  0  0  0  0999 V2000
   -2.7011    5.6791   -0.4806 C   0  0  0  0  0  0  0  0  0  0  0  0
   -2.4062    4.3638    0.1173 C   0  0  0  0  0  0  0  0  0  0  0  0
   -2.6203    4.0996    1.4121 N   0  0  0  0  0  0  0  0  0  0  0  0
   -2.2127    2.7725    1.5393 O   0  0  0  0  0  0  0  0  0  0  0  0
   -1.7923    2.3753    0.3009 C   0  0  0  0  0  0  0  0  0  0  0  0
   -1.3116    0.9737    0.1790 C   0  0  2  0  0  0  0  0  0  0  0  0
   -0.1391    0.6993    1.1331 C   0  0  0  0  0  0  0  0  0  0  0  0
    0.5778   -0.4848    0.4977 C   0  0  2  0  0  0  0  0  0  0  0  0
    1.9134   -0.6638    1.0217 N   0  0  0  0  0  0  0  0  0  0  0  0
    2.5823   -1.8619    0.8523 C   0  0  0  0  0  0  0  0  0  0  0  0
    2.0557   -2.8703    0.3911 O   0  0  0  0  0  0  0  0  0  0  0  0
    4.0294   -1.8382    1.3127 C   0  0  0  0  0  0  0  0  0  0  0  0
    4.9020   -0.9476    0.4604 C   0  0  0  0  0  0  0  0  0  0  0  0
    5.1007   -1.2396   -0.8989 C   0  0  0  0  0  0  0  0  0  0  0  0
    5.9025   -0.4164   -1.6944 C   0  0  0  0  0  0  0  0  0  0  0  0
    6.5167    0.7042   -1.1383 C   0  0  0  0  0  0  0  0  0  0  0  0
    6.3259    0.9903    0.2086 C   0  0  0  0  0  0  0  0  0  0  0  0
    6.9165    2.0646    0.7465 F   0  0  0  0  0  0  0  0  0  0  0  0
    5.5292    0.1783    1.0110 C   0  0  0  0  0  0  0  0  0  0  0  0
    0.5692   -0.1322   -0.9875 C   0  0  0  0  0  0  0  0  0  0  0  0
   -0.7433    0.6369   -1.2275 C   0  0  1  0  0  0  0  0  0  0  0  0
   -1.8203   -0.2125   -1.8889 C   0  0  0  0  0  0  0  0  0  0  0  0
   -2.4966   -0.8724   -0.7925 N   0  0  0  0  0  0  0  0  0  0  0  0
   -3.3272   -1.9408   -1.0552 C   0  0  0  0  0  0  0  0  0  0  0  0
   -3.4624   -2.3643   -2.2077 O   0  0  0  0  0  0  0  0  0  0  0  0
   -4.0506   -2.6633    0.0835 C   0  0  0  0  0  0  0  0  0  0  0  0
   -5.0400   -1.7996    0.8556 C   0  0  0  0  0  0  0  0  0  0  0  0
   -3.0791   -3.4063    0.9955 C   0  0  0  0  0  0  0  0  0  0  0  0
   -2.4779   -0.0203    0.3837 C   0  0  0  0  0  0  0  0  0  0  0  0
   -1.8917    3.3195   -0.6068 N   0  0  0  0  0  0  0  0  0  0  0  0
   -3.7446    5.9596   -0.3019 H   0  0  0  0  0  0  0  0  0  0  0  0
   -2.5334    5.6629   -1.5619 H   0  0  0  0  0  0  0  0  0  0  0  0
   -2.0566    6.4501   -0.0473 H   0  0  0  0  0  0  0  0  0  0  0  0
    0.5328    1.5680    1.1898 H   0  0  0  0  0  0  0  0  0  0  0  0
   -0.4622    0.4804    2.1577 H   0  0  0  0  0  0  0  0  0  0  0  0
    0.0091   -1.4083    0.6636 H   0  0  0  0  0  0  0  0  0  0  0  0
    2.4858    0.1614    1.1633 H   0  0  0  0  0  0  0  0  0  0  0  0
    4.4257   -2.8602    1.2870 H   0  0  0  0  0  0  0  0  0  0  0  0
    4.0490   -1.5222    2.3625 H   0  0  0  0  0  0  0  0  0  0  0  0
    4.6283   -2.1138   -1.3481 H   0  0  0  0  0  0  0  0  0  0  0  0
    6.0481   -0.6529   -2.7465 H   0  0  0  0  0  0  0  0  0  0  0  0
    7.1410    1.3540   -1.7426 H   0  0  0  0  0  0  0  0  0  0  0  0
    5.4159    0.4325    2.0614 H   0  0  0  0  0  0  0  0  0  0  0  0
    1.4147    0.5283   -1.2213 H   0  0  0  0  0  0  0  0  0  0  0  0
    0.6777   -1.0189   -1.6202 H   0  0  0  0  0  0  0  0  0  0  0  0
   -0.5243    1.5095   -1.8536 H   0  0  0  0  0  0  0  0  0  0  0  0
   -2.5582    0.4219   -2.3946 H   0  0  0  0  0  0  0  0  0  0  0  0
   -1.4290   -0.9324   -2.6141 H   0  0  0  0  0  0  0  0  0  0  0  0
   -4.6538   -3.4345   -0.4183 H   0  0  0  0  0  0  0  0  0  0  0  0
   -4.5582   -1.2101    1.6406 H   0  0  0  0  0  0  0  0  0  0  0  0
   -5.5723   -1.1130    0.1889 H   0  0  0  0  0  0  0  0  0  0  0  0
   -5.7843   -2.4331    1.3524 H   0  0  0  0  0  0  0  0  0  0  0  0
   -2.3763   -4.0071    0.4075 H   0  0  0  0  0  0  0  0  0  0  0  0
   -3.6224   -4.0825    1.6649 H   0  0  0  0  0  0  0  0  0  0  0  0
   -2.4887   -2.7306    1.6196 H   0  0  0  0  0  0  0  0  0  0  0  0
   -3.4481    0.4886    0.4309 H   0  0  0  0  0  0  0  0  0  0  0  0
   -2.3650   -0.6206    1.2884 H   0  0  0  0  0  0  0  0  0  0  0  0
  1  2  1  0
  2  3  2  0
  3  4  1  0
  4  5  1  0
  6  5  1  6
  6  7  1  0
  7  8  1  0
  8  9  1  0
  9 10  1  0
 10 11  2  0
 10 12  1  0
 12 13  1  0
 13 14  2  0
 14 15  1  0
 15 16  2  0
 16 17  1  0
 17 18  1  0
 17 19  2  0
  8 20  1  0
 20 21  1  0
 21 22  1  0
 22 23  1  0
 23 24  1  0
 24 25  2  0
 24 26  1  0
 26 27  1  0
 26 28  1  0
 23 29  1  0
  5 30  2  0
 30  2  1  0
 21  6  1  0
 29  6  1  0
 19 13  1  0
  1 31  1  0
  1 32  1  0
  1 33  1  0
  7 34  1  0
  7 35  1  0
  8 36  1  6
  9 37  1  0
 12 38  1  0
 12 39  1  0
 14 40  1  0
 15 41  1  0
 16 42  1  0
 19 43  1  0
 20 44  1  0
 20 45  1  0
 21 46  1  6
 22 47  1  0
 22 48  1  0
 26 49  1  0
 27 50  1  0
 27 51  1  0
 27 52  1  0
 28 53  1  0
 28 54  1  0
 28 55  1  0
 29 56  1  0
 29 57  1  0
M  END
$$$$
