
     RDKit          3D

 60 63  0  0  0  0  0  0  0  0999 V2000
    2.1753    1.5117    0.9761 O   0  0  0  0  0  0  0  0  0  0  0  0
    2.0604    0.5739    0.1887 C   0  0  0  0  0  0  0  0  0  0  0  0
    3.2580   -0.0567   -0.5058 C   0  0  0  0  0  0  0  0  0  0  0  0
    4.5644    0.6711   -0.1825 C   0  0  0  0  0  0  0  0  0  0  0  0
    5.7646    0.0959   -0.9388 C   0  0  0  0  0  0  0  0  0  0  0  0
    7.0657    0.8611   -0.6491 C   0  0  0  0  0  0  0  0  0  0  0  0
    8.1741   -0.1897   -0.5647 C   0  0  0  0  0  0  0  0  0  0  0  0
    7.5402   -1.4941   -1.0236 C   0  0  0  0  0  0  0  0  0  0  0  0
    6.0913   -1.3556   -0.5868 C   0  0  0  0  0  0  0  0  0  0  0  0
    0.8334    0.0300   -0.1215 N   0  0  0  0  0  0  0  0  0  0  0  0
    0.5597   -1.0559   -1.0519 C   0  0  0  0  0  0  0  0  0  0  0  0
   -0.9173   -1.3872   -0.8627 C   0  0  0  0  0  0  0  0  0  0  0  0
   -1.5071   -0.0484   -0.3948 C   0  0  0  0  0  0  0  0  0  0  0  0
   -2.8550   -0.1022    0.2042 N   0  0  0  0  0  0  0  0  0  0  0  0
   -3.0231   -0.8869    1.3558 C   0  0  0  0  0  0  0  0  0  0  0  0
   -2.1167   -1.5505    1.8492 O   0  0  0  0  0  0  0  0  0  0  0  0
   -4.3605   -0.9459    2.0138 C   0  0  0  0  0  0  0  0  0  0  0  0
   -4.6626   -2.0482    3.0114 C   0  0  0  0  0  0  0  0  0  0  0  0
   -5.3184   -2.0663    1.6677 C   0  0  0  0  0  0  0  0  0  0  0  0
   -3.8129    0.9207   -0.2827 C   0  0  0  0  0  0  0  0  0  0  0  0
   -3.8983    2.1491    0.6345 C   0  0  0  0  0  0  0  0  0  0  0  0
   -5.2250    2.8802    0.4522 C   0  0  0  0  0  0  0  0  0  0  0  0
   -5.6194    2.8356   -0.9157 O   0  0  0  0  0  0  0  0  0  0  0  0
   -5.9896    1.5260   -1.3571 C   0  0  0  0  0  0  0  0  0  0  0  0
   -5.2020    0.4096   -0.6690 C   0  0  0  0  0  0  0  0  0  0  0  0
   -0.3912    0.5334    0.4836 C   0  0  0  0  0  0  0  0  0  0  0  0
    3.0878   -0.0323   -1.5878 H   0  0  0  0  0  0  0  0  0  0  0  0
    3.3250   -1.1007   -0.1814 H   0  0  0  0  0  0  0  0  0  0  0  0
    4.4598    1.7339   -0.4368 H   0  0  0  0  0  0  0  0  0  0  0  0
    4.7479    0.6288    0.8991 H   0  0  0  0  0  0  0  0  0  0  0  0
    5.5664    0.1570   -2.0181 H   0  0  0  0  0  0  0  0  0  0  0  0
    7.2693    1.5793   -1.4523 H   0  0  0  0  0  0  0  0  0  0  0  0
    7.0154    1.4293    0.2868 H   0  0  0  0  0  0  0  0  0  0  0  0
    9.0464    0.0785   -1.1691 H   0  0  0  0  0  0  0  0  0  0  0  0
    8.5083   -0.2839    0.4754 H   0  0  0  0  0  0  0  0  0  0  0  0
    8.0267   -2.3697   -0.5848 H   0  0  0  0  0  0  0  0  0  0  0  0
    7.6012   -1.5794   -2.1154 H   0  0  0  0  0  0  0  0  0  0  0  0
    6.0016   -1.5308    0.4924 H   0  0  0  0  0  0  0  0  0  0  0  0
    5.4420   -2.0670   -1.1057 H   0  0  0  0  0  0  0  0  0  0  0  0
    1.2081   -1.9137   -0.8552 H   0  0  0  0  0  0  0  0  0  0  0  0
    0.7553   -0.6872   -2.0644 H   0  0  0  0  0  0  0  0  0  0  0  0
   -1.0174   -2.1812   -0.1180 H   0  0  0  0  0  0  0  0  0  0  0  0
   -1.3821   -1.7490   -1.7857 H   0  0  0  0  0  0  0  0  0  0  0  0
   -1.5602    0.5730   -1.2994 H   0  0  0  0  0  0  0  0  0  0  0  0
   -4.7765    0.0150    2.2917 H   0  0  0  0  0  0  0  0  0  0  0  0
   -3.8985   -2.7920    3.2128 H   0  0  0  0  0  0  0  0  0  0  0  0
   -5.2663   -1.7958    3.8756 H   0  0  0  0  0  0  0  0  0  0  0  0
   -6.3767   -1.8392    1.6210 H   0  0  0  0  0  0  0  0  0  0  0  0
   -4.9925   -2.8195    0.9588 H   0  0  0  0  0  0  0  0  0  0  0  0
   -3.4019    1.2859   -1.2344 H   0  0  0  0  0  0  0  0  0  0  0  0
   -3.7540    1.9064    1.6923 H   0  0  0  0  0  0  0  0  0  0  0  0
   -3.0723    2.8235    0.3717 H   0  0  0  0  0  0  0  0  0  0  0  0
   -5.1180    3.9296    0.7471 H   0  0  0  0  0  0  0  0  0  0  0  0
   -6.0143    2.4436    1.0775 H   0  0  0  0  0  0  0  0  0  0  0  0
   -5.8156    1.4960   -2.4375 H   0  0  0  0  0  0  0  0  0  0  0  0
   -7.0650    1.3899   -1.1985 H   0  0  0  0  0  0  0  0  0  0  0  0
   -5.1485   -0.4754   -1.3121 H   0  0  0  0  0  0  0  0  0  0  0  0
   -5.7722    0.1200    0.2147 H   0  0  0  0  0  0  0  0  0  0  0  0
   -0.4168    0.1880    1.5210 H   0  0  0  0  0  0  0  0  0  0  0  0
   -0.4005    1.6285    0.4883 H   0  0  0  0  0  0  0  0  0  0  0  0
  1  2  2  0
  2  3  1  0
  3  4  1  0
  4  5  1  0
  5  6  1  0
  6  7  1  0
  7  8  1  0
  8  9  1  0
  2 10  1  0
 10 11  1  0
 11 12  1  0
 12 13  1  0
 13 14  1  0
 14 15  1  0
 15 16  2  0
 15 17  1  0
 17 18  1  0
 18 19  1  0
 14 20  1  0
 20 21  1  0
 21 22  1  0
 22 23  1  0
 23 24  1  0
 24 25  1  0
 13 26  1  0
  9  5  1  0
 26 10  1  0
 19 17  1  0
 25 20  1  0
  3 27  1  0
  3 28  1  0
  4 29  1  0
  4 30  1  0
  5 31  1  0
  6 32  1  0
  6 33  1  0
  7 34  1  0
  7 35  1  0
  8 36  1  0
  8 37  1  0
  9 38  1  0
  9 39  1  0
 11 40  1  0
 11 41  1  0
 12 42  1  0
 12 43  1  0
 13 44  1  0
 17 45  1  0
 18 46  1  0
 18 47  1  0
 19 48  1  0
 19 49  1  0
 20 50  1  0
 21 51  1  0
 21 52  1  0
 22 53  1  0
 22 54  1  0
 24 55  1  0
 24 56  1  0
 25 57  1  0
 25 58  1  0
 26 59  1  0
 26 60  1  0
M  END
$$$$
