
     RDKit          3D

 44 46  0  0  0  0  0  0  0  0999 V2000
   -2.0556    1.7171   -3.7432 C   0  0  0  0  0  0  0  0  0  0  0  0
   -1.3998    1.9658   -2.5034 O   0  0  0  0  0  0  0  0  0  0  0  0
   -1.4791    0.9757   -1.5524 C   0  0  0  0  0  0  0  0  0  0  0  0
   -2.3274   -0.1350   -1.6201 C   0  0  0  0  0  0  0  0  0  0  0  0
   -2.2852   -1.0254   -0.5647 C   0  0  0  0  0  0  0  0  0  0  0  0
   -1.4433   -0.8395    0.5345 C   0  0  0  0  0  0  0  0  0  0  0  0
   -0.6029    0.2458    0.6328 C   0  0  0  0  0  0  0  0  0  0  0  0
   -0.6299    1.1596   -0.4246 C   0  0  0  0  0  0  0  0  0  0  0  0
    0.2664    2.2791   -0.4191 N   0  0  0  0  0  0  0  0  0  0  0  0
    1.8837    1.9526   -0.8337 S   0  0  0  0  0  6  0  0  0  0  0  0
    2.4661    3.2194   -1.2188 O   0  0  0  0  0  0  0  0  0  0  0  0
    1.9107    0.8153   -1.7229 O   0  0  0  0  0  0  0  0  0  0  0  0
    2.5974    1.5314    0.7528 C   0  0  0  0  0  0  0  0  0  0  0  0
    2.4505    2.4940    1.7699 C   0  0  0  0  0  0  0  0  0  0  0  0
    2.9283    2.2444    3.0553 C   0  0  0  0  0  0  0  0  0  0  0  0
    3.5563    1.0352    3.3275 C   0  0  0  0  0  0  0  0  0  0  0  0
    4.1940    0.6809    5.0712 Br  0  0  0  0  0  0  0  0  0  0  0  0
    3.7205    0.0795    2.3218 C   0  0  0  0  0  0  0  0  0  0  0  0
    3.2528    0.3147    1.0145 C   0  0  0  0  0  0  0  0  0  0  0  0
    3.4759   -0.7564   -0.0162 C   0  0  0  0  0  0  0  0  0  0  0  0
   -1.6460   -1.9061    1.4189 N   0  0  0  0  0  0  0  0  0  0  0  0
   -0.9758   -2.0830    2.6743 C   0  0  0  0  0  0  0  0  0  0  0  0
   -2.6233   -2.7729    0.8826 C   0  0  0  0  0  0  0  0  0  0  0  0
   -3.0557   -3.7968    1.3871 O   0  0  0  0  0  0  0  0  0  0  0  0
   -3.0048   -2.2092   -0.3556 N   0  0  0  0  0  0  0  0  0  0  0  0
   -3.9884   -2.7543   -1.2458 C   0  0  0  0  0  0  0  0  0  0  0  0
   -3.1432    1.7077   -3.6121 H   0  0  0  0  0  0  0  0  0  0  0  0
   -1.8071    2.5389   -4.4234 H   0  0  0  0  0  0  0  0  0  0  0  0
   -1.7014    0.7872   -4.1987 H   0  0  0  0  0  0  0  0  0  0  0  0
   -2.9979   -0.3085   -2.4504 H   0  0  0  0  0  0  0  0  0  0  0  0
    0.0352    0.3880    1.4938 H   0  0  0  0  0  0  0  0  0  0  0  0
   -0.0569    3.0584   -0.9990 H   0  0  0  0  0  0  0  0  0  0  0  0
    1.9587    3.4418    1.5612 H   0  0  0  0  0  0  0  0  0  0  0  0
    2.8047    2.9934    3.8317 H   0  0  0  0  0  0  0  0  0  0  0  0
    4.2235   -0.8580    2.5572 H   0  0  0  0  0  0  0  0  0  0  0  0
    4.1185   -1.5555    0.3695 H   0  0  0  0  0  0  0  0  0  0  0  0
    3.9865   -0.3497   -0.8940 H   0  0  0  0  0  0  0  0  0  0  0  0
    2.5253   -1.2171   -0.3012 H   0  0  0  0  0  0  0  0  0  0  0  0
    0.1023   -2.1641    2.5009 H   0  0  0  0  0  0  0  0  0  0  0  0
   -1.1829   -1.2224    3.3182 H   0  0  0  0  0  0  0  0  0  0  0  0
   -1.3269   -2.9941    3.1708 H   0  0  0  0  0  0  0  0  0  0  0  0
   -4.8262   -2.0567   -1.3261 H   0  0  0  0  0  0  0  0  0  0  0  0
   -4.3562   -3.7107   -0.8669 H   0  0  0  0  0  0  0  0  0  0  0  0
   -3.5414   -2.9105   -2.2307 H   0  0  0  0  0  0  0  0  0  0  0  0
  1  2  1  0
  2  3  1  0
  3  4  2  0
  4  5  1  0
  5  6  2  0
  6  7  1  0
  7  8  2  0
  8  9  1  0
  9 10  1  0
 10 11  2  0
 10 12  2  0
 10 13  1  0
 13 14  2  0
 14 15  1  0
 15 16  2  0
 16 17  1  0
 16 18  1  0
 18 19  2  0
 19 20  1  0
  6 21  1  0
 21 22  1  0
 21 23  1  0
 23 24  2  0
 23 25  1  0
 25 26  1  0
  8  3  1  0
 19 13  1  0
 25  5  1  0
  1 27  1  0
  1 28  1  0
  1 29  1  0
  4 30  1  0
  7 31  1  0
  9 32  1  0
 14 33  1  0
 15 34  1  0
 18 35  1  0
 20 36  1  0
 20 37  1  0
 20 38  1  0
 22 39  1  0
 22 40  1  0
 22 41  1  0
 26 42  1  0
 26 43  1  0
 26 44  1  0
M  END
$$$$
