
     RDKit          3D

 21 21  0  0  0  0  0  0  0  0999 V2000
    2.2733   -2.4037    0.1010 O   0  0  0  0  0  0  0  0  0  0  0  0
    3.0270   -1.1637    0.2826 S   0  0  0  0  0  6  0  0  0  0  0  0
    4.4247   -1.2624   -0.1397 O   0  0  0  0  0  0  0  0  0  0  0  0
    2.8552   -0.5288    1.5887 O   0  0  0  0  0  1  0  0  0  0  0  0
    2.3862   -0.1129   -0.7911 O   0  0  0  0  0  0  0  0  0  0  0  0
    1.1077    0.3174   -0.8333 C   0  0  0  0  0  0  0  0  0  0  0  0
    0.7395    1.2109   -1.8153 C   0  0  0  0  0  0  0  0  0  0  0  0
   -0.5849    1.4930   -1.6528 N   0  0  0  0  0  0  0  0  0  0  0  0
   -1.0946    0.7995   -0.5794 C   0  0  0  0  0  0  0  0  0  0  0  0
   -2.3972    0.7920   -0.0604 C   0  0  0  0  0  0  0  0  0  0  0  0
   -2.6517   -0.0119    1.0522 C   0  0  0  0  0  0  0  0  0  0  0  0
   -1.6401   -0.7771    1.6208 C   0  0  0  0  0  0  0  0  0  0  0  0
   -0.3442   -0.7573    1.0890 C   0  0  0  0  0  0  0  0  0  0  0  0
   -0.0469    0.0428   -0.0356 C   0  0  0  0  0  0  0  0  0  0  0  0
    0.0000    0.0000    0.0000 K   0  0  0  0  0 15  0  0  0  0  0  0
    1.3190    1.6605   -2.6086 H   0  0  0  0  0  0  0  0  0  0  0  0
   -1.1208    2.1202   -2.2335 H   0  0  0  0  0  0  0  0  0  0  0  0
   -3.1855    1.3892   -0.5046 H   0  0  0  0  0  0  0  0  0  0  0  0
   -3.6502   -0.0408    1.4792 H   0  0  0  0  0  0  0  0  0  0  0  0
   -1.8435   -1.4010    2.4867 H   0  0  0  0  0  0  0  0  0  0  0  0
    0.4269   -1.3657    1.5541 H   0  0  0  0  0  0  0  0  0  0  0  0
  1  2  2  0
  2  3  2  0
  2  4  1  0
  2  5  1  0
  5  6  1  0
  6  7  2  0
  7  8  1  0
  8  9  1  0
  9 10  2  0
 10 11  1  0
 11 12  2  0
 12 13  1  0
 13 14  2  0
 14  6  1  0
 14  9  1  0
  7 16  1  0
  8 17  1  0
 10 18  1  0
 11 19  1  0
 12 20  1  0
 13 21  1  0
M  CHG  2   4  -1  15   1
M  END
$$$$
