
     RDKit          3D

 52 54  0  0  0  0  0  0  0  0999 V2000
   -3.6373   -1.7725   -1.6699 C   0  0  0  0  0  0  0  0  0  0  0  0
   -3.4545   -1.7938   -0.1470 C   0  0  0  0  0  0  0  0  0  0  0  0
   -4.5700   -0.9835    0.5207 C   0  0  0  0  0  0  0  0  0  0  0  0
   -2.0179   -1.3472    0.2569 C   0  0  2  0  0  0  0  0  0  0  0  0
   -1.7546   -1.4775    1.7766 C   0  0  0  0  0  0  0  0  0  0  0  0
   -2.1201   -2.7652    2.2644 O   0  0  0  0  0  0  0  0  0  0  0  0
   -1.7788    0.0214   -0.2065 N   0  0  0  0  0  0  0  0  0  0  0  0
   -0.4822    0.5041   -0.1779 C   0  0  0  0  0  0  0  0  0  0  0  0
    0.5515   -0.3540   -0.2783 N   0  0  0  0  0  0  0  0  0  0  0  0
    1.8344    0.0986   -0.2497 C   0  0  0  0  0  0  0  0  0  0  0  0
    2.9523   -0.7456   -0.3327 N   0  0  0  0  0  0  0  0  0  0  0  0
    3.0970   -2.1249   -0.5365 C   0  0  0  0  0  0  0  0  0  0  0  0
    2.0272   -2.9913   -0.7867 C   0  0  0  0  0  0  0  0  0  0  0  0
    2.2260   -4.3666   -0.9550 C   0  0  0  0  0  0  0  0  0  0  0  0
    3.5074   -4.9021   -0.8691 C   0  0  0  0  0  0  0  0  0  0  0  0
    4.5814   -4.0569   -0.6140 C   0  0  0  0  0  0  0  0  0  0  0  0
    6.1712   -4.7082   -0.4996 Cl  0  0  0  0  0  0  0  0  0  0  0  0
    4.3818   -2.6847   -0.4465 C   0  0  0  0  0  0  0  0  0  0  0  0
    2.0193    1.4837   -0.1053 C   0  0  0  0  0  0  0  0  0  0  0  0
    3.1581    2.2603   -0.0330 N   0  0  0  0  0  0  0  0  0  0  0  0
    2.7118    3.4921    0.0980 C   0  0  0  0  0  0  0  0  0  0  0  0
    1.3405    3.5443    0.1194 N   0  0  0  0  0  0  0  0  0  0  0  0
    0.5479    4.7587    0.2479 C   0  0  0  0  0  0  0  0  0  0  0  0
   -0.3151    5.0171   -0.9872 C   0  0  0  0  0  0  0  0  0  0  0  0
   -0.2855    4.7695    1.5294 C   0  0  0  0  0  0  0  0  0  0  0  0
    0.8814    2.2605   -0.0050 C   0  0  0  0  0  0  0  0  0  0  0  0
   -0.3879    1.8341   -0.0257 N   0  0  0  0  0  0  0  0  0  0  0  0
   -2.8596   -2.3646   -2.1638 H   0  0  0  0  0  0  0  0  0  0  0  0
   -4.6066   -2.2011   -1.9470 H   0  0  0  0  0  0  0  0  0  0  0  0
   -3.5977   -0.7540   -2.0698 H   0  0  0  0  0  0  0  0  0  0  0  0
   -3.5808   -2.8383    0.1673 H   0  0  0  0  0  0  0  0  0  0  0  0
   -4.5128   -1.0462    1.6113 H   0  0  0  0  0  0  0  0  0  0  0  0
   -5.5517   -1.3709    0.2261 H   0  0  0  0  0  0  0  0  0  0  0  0
   -4.5341    0.0723    0.2348 H   0  0  0  0  0  0  0  0  0  0  0  0
   -1.3407   -2.0421   -0.2583 H   0  0  0  0  0  0  0  0  0  0  0  0
   -2.3145   -0.7236    2.3404 H   0  0  0  0  0  0  0  0  0  0  0  0
   -0.6919   -1.3276    1.9950 H   0  0  0  0  0  0  0  0  0  0  0  0
   -1.8089   -2.8163    3.1847 H   0  0  0  0  0  0  0  0  0  0  0  0
   -2.3813    0.7413    0.1727 H   0  0  0  0  0  0  0  0  0  0  0  0
    3.8153   -0.2112   -0.2865 H   0  0  0  0  0  0  0  0  0  0  0  0
    1.0132   -2.6126   -0.8681 H   0  0  0  0  0  0  0  0  0  0  0  0
    1.3749   -5.0133   -1.1531 H   0  0  0  0  0  0  0  0  0  0  0  0
    3.6595   -5.9695   -0.9997 H   0  0  0  0  0  0  0  0  0  0  0  0
    5.2381   -2.0478   -0.2406 H   0  0  0  0  0  0  0  0  0  0  0  0
    3.3315    4.3765    0.1807 H   0  0  0  0  0  0  0  0  0  0  0  0
    1.2692    5.5836    0.3206 H   0  0  0  0  0  0  0  0  0  0  0  0
   -1.0993    4.2619   -1.1031 H   0  0  0  0  0  0  0  0  0  0  0  0
   -0.8029    5.9952   -0.9176 H   0  0  0  0  0  0  0  0  0  0  0  0
    0.2933    5.0081   -1.8983 H   0  0  0  0  0  0  0  0  0  0  0  0
    0.3438    4.5844    2.4069 H   0  0  0  0  0  0  0  0  0  0  0  0
   -0.7727    5.7412    1.6631 H   0  0  0  0  0  0  0  0  0  0  0  0
   -1.0686    4.0043    1.5141 H   0  0  0  0  0  0  0  0  0  0  0  0
  1  2  1  0
  2  3  1  0
  2  4  1  0
  4  5  1  0
  5  6  1  0
  4  7  1  0
  7  8  1  0
  8  9  2  0
  9 10  1  0
 10 11  1  0
 11 12  1  0
 12 13  2  0
 13 14  1  0
 14 15  2  0
 15 16  1  0
 16 17  1  0
 16 18  2  0
 10 19  2  0
 19 20  1  0
 20 21  2  0
 21 22  1  0
 22 23  1  0
 23 24  1  0
 23 25  1  0
 22 26  1  0
 26 27  2  0
 27  8  1  0
 18 12  1  0
 26 19  1  0
  1 28  1  0
  1 29  1  0
  1 30  1  0
  2 31  1  0
  3 32  1  0
  3 33  1  0
  3 34  1  0
  4 35  1  6
  5 36  1  0
  5 37  1  0
  6 38  1  0
  7 39  1  0
 11 40  1  0
 13 41  1  0
 14 42  1  0
 15 43  1  0
 18 44  1  0
 21 45  1  0
 23 46  1  0
 24 47  1  0
 24 48  1  0
 24 49  1  0
 25 50  1  0
 25 51  1  0
 25 52  1  0
M  END
$$$$
