
     RDKit          3D

 59 60  0  0  0  0  0  0  0  0999 V2000
    8.1589   -2.0638    1.7327 C   0  0  0  0  0  0  0  0  0  0  0  0
    6.6861   -1.8934    1.4042 C   0  0  0  0  0  0  0  0  0  0  0  0
    6.3405   -0.4348    1.1212 C   0  0  0  0  0  0  0  0  0  0  0  0
    4.9404   -0.2811    0.7915 N   0  0  0  0  0  0  0  0  0  0  0  0
    4.4741   -0.4189   -0.4962 C   0  0  0  0  0  0  0  0  0  0  0  0
    5.1808   -0.5934   -1.4783 O   0  0  0  0  0  0  0  0  0  0  0  0
    3.0029   -0.3540   -0.6490 C   0  0  1  0  0  0  0  0  0  0  0  0
    2.2538    0.0699    0.5091 O   0  0  0  0  0  0  0  0  0  0  0  0
    2.3183    0.9869   -0.6043 C   0  0  2  0  0  0  0  0  0  0  0  0
    1.0670    1.1877   -1.3670 C   0  0  0  0  0  0  0  0  0  0  0  0
    1.0876    1.7834   -2.4340 O   0  0  0  0  0  0  0  0  0  0  0  0
   -0.0642    0.6846   -0.7811 N   0  0  0  0  0  0  0  0  0  0  0  0
   -1.3869    0.7717   -1.4045 C   0  0  2  0  0  0  0  0  0  0  0  0
   -2.4968    0.8500   -0.3144 C   0  0  0  0  0  0  0  0  0  0  0  0
   -3.6781    0.5904   -0.5397 O   0  0  0  0  0  0  0  0  0  0  0  0
   -2.0798    1.3557    0.9342 N   0  0  0  0  0  0  0  0  0  0  0  0
   -1.5911    2.7357    0.9054 C   0  0  0  0  0  0  0  0  0  0  0  0
   -2.5529    3.5390    1.7917 C   0  0  0  0  0  0  0  0  0  0  0  0
   -3.7348    2.5991    2.0292 C   0  0  0  0  0  0  0  0  0  0  0  0
   -3.0316    1.2501    2.0492 C   0  0  1  0  0  0  0  0  0  0  0  0
   -3.8734   -0.0275    2.1552 C   0  0  0  0  0  0  0  0  0  0  0  0
   -3.4247   -1.1559    1.9767 O   0  0  0  0  0  0  0  0  0  0  0  0
   -5.1482    0.2532    2.5492 O   0  0  0  0  0  0  0  0  0  0  0  0
   -6.0095   -0.8848    2.6059 C   0  0  0  0  0  0  0  0  0  0  0  0
   -1.5782   -0.3819   -2.4261 C   0  0  1  0  0  0  0  0  0  0  0  0
   -1.7111   -1.7467   -1.7363 C   0  0  0  0  0  0  0  0  0  0  0  0
   -2.7501   -0.1045   -3.3931 C   0  0  0  0  0  0  0  0  0  0  0  0
   -2.7735   -1.0390   -4.5975 C   0  0  0  0  0  0  0  0  0  0  0  0
    8.7873   -1.7588    0.8878 H   0  0  0  0  0  0  0  0  0  0  0  0
    8.4374   -1.4660    2.6054 H   0  0  0  0  0  0  0  0  0  0  0  0
    8.3781   -3.1106    1.9549 H   0  0  0  0  0  0  0  0  0  0  0  0
    6.4339   -2.5180    0.5401 H   0  0  0  0  0  0  0  0  0  0  0  0
    6.0817   -2.2598    2.2446 H   0  0  0  0  0  0  0  0  0  0  0  0
    6.5321    0.1864    2.0036 H   0  0  0  0  0  0  0  0  0  0  0  0
    6.9485   -0.0526    0.2937 H   0  0  0  0  0  0  0  0  0  0  0  0
    4.2538   -0.2504    1.5333 H   0  0  0  0  0  0  0  0  0  0  0  0
    2.5688   -1.1294   -1.2713 H   0  0  0  0  0  0  0  0  0  0  0  0
    2.9343    1.8712   -0.4908 H   0  0  0  0  0  0  0  0  0  0  0  0
    0.0164    0.2057    0.1104 H   0  0  0  0  0  0  0  0  0  0  0  0
   -1.4215    1.7229   -1.9481 H   0  0  0  0  0  0  0  0  0  0  0  0
   -1.5737    3.1436   -0.1094 H   0  0  0  0  0  0  0  0  0  0  0  0
   -0.5783    2.7515    1.3185 H   0  0  0  0  0  0  0  0  0  0  0  0
   -2.8488    4.4905    1.3365 H   0  0  0  0  0  0  0  0  0  0  0  0
   -2.0634    3.7689    2.7486 H   0  0  0  0  0  0  0  0  0  0  0  0
   -4.4542    2.6662    1.2025 H   0  0  0  0  0  0  0  0  0  0  0  0
   -4.2591    2.8234    2.9632 H   0  0  0  0  0  0  0  0  0  0  0  0
   -2.4082    1.2229    2.9560 H   0  0  0  0  0  0  0  0  0  0  0  0
   -5.5519   -1.7144    3.1546 H   0  0  0  0  0  0  0  0  0  0  0  0
   -6.2793   -1.1956    1.5921 H   0  0  0  0  0  0  0  0  0  0  0  0
   -6.9215   -0.5936    3.1344 H   0  0  0  0  0  0  0  0  0  0  0  0
   -0.6652   -0.4261   -3.0372 H   0  0  0  0  0  0  0  0  0  0  0  0
   -1.6550   -2.5612   -2.4654 H   0  0  0  0  0  0  0  0  0  0  0  0
   -2.6639   -1.8408   -1.2060 H   0  0  0  0  0  0  0  0  0  0  0  0
   -0.9022   -1.9075   -1.0161 H   0  0  0  0  0  0  0  0  0  0  0  0
   -2.6777    0.9262   -3.7644 H   0  0  0  0  0  0  0  0  0  0  0  0
   -3.7122   -0.1911   -2.8755 H   0  0  0  0  0  0  0  0  0  0  0  0
   -1.8330   -0.9857   -5.1582 H   0  0  0  0  0  0  0  0  0  0  0  0
   -3.5887   -0.7555   -5.2737 H   0  0  0  0  0  0  0  0  0  0  0  0
   -2.9397   -2.0801   -4.2978 H   0  0  0  0  0  0  0  0  0  0  0  0
  1  2  1  0
  2  3  1  0
  3  4  1  0
  4  5  1  0
  5  6  2  0
  5  7  1  0
  7  8  1  0
  8  9  1  0
  9 10  1  0
 10 11  2  0
 10 12  1  0
 12 13  1  0
 13 14  1  0
 14 15  2  0
 14 16  1  0
 16 17  1  0
 17 18  1  0
 18 19  1  0
 19 20  1  0
 20 21  1  0
 21 22  2  0
 21 23  1  0
 23 24  1  0
 13 25  1  0
 25 26  1  0
 25 27  1  0
 27 28  1  0
  9  7  1  0
 20 16  1  0
  1 29  1  0
  1 30  1  0
  1 31  1  0
  2 32  1  0
  2 33  1  0
  3 34  1  0
  3 35  1  0
  4 36  1  0
  7 37  1  6
  9 38  1  1
 12 39  1  0
 13 40  1  6
 17 41  1  0
 17 42  1  0
 18 43  1  0
 18 44  1  0
 19 45  1  0
 19 46  1  0
 20 47  1  1
 24 48  1  0
 24 49  1  0
 24 50  1  0
 25 51  1  6
 26 52  1  0
 26 53  1  0
 26 54  1  0
 27 55  1  0
 27 56  1  0
 28 57  1  0
 28 58  1  0
 28 59  1  0
M  END
$$$$
