
     RDKit          3D

 58 60  0  0  0  0  0  0  0  0999 V2000
    5.6872   -2.2189    0.7252 C   0  0  0  0  0  0  0  0  0  0  0  0
    6.1189   -0.8127    0.4219 C   0  0  0  0  0  0  0  0  0  0  0  0
    7.4316   -0.6072   -0.0418 C   0  0  0  0  0  0  0  0  0  0  0  0
    7.9085    0.6744   -0.3277 C   0  0  0  0  0  0  0  0  0  0  0  0
    7.0839    1.7805   -0.1541 C   0  0  0  0  0  0  0  0  0  0  0  0
    5.7783    1.6025    0.2967 C   0  0  0  0  0  0  0  0  0  0  0  0
    5.2888    0.3129    0.5742 C   0  0  0  0  0  0  0  0  0  0  0  0
    3.5865    0.2255    1.1171 S   0  0  0  0  0  6  0  0  0  0  0  0
    3.1187   -1.1428    1.0852 O   0  0  0  0  0  0  0  0  0  0  0  0
    3.5027    1.0093    2.3320 O   0  0  0  0  0  0  0  0  0  0  0  0
    2.7646    1.0671   -0.1188 N   0  0  0  0  0  0  0  0  0  0  0  0
    2.7922    0.4952   -1.4873 C   0  0  0  0  0  0  0  0  0  0  0  0
    1.6846   -0.5284   -1.7014 C   0  0  0  0  0  0  0  0  0  0  0  0
    0.3142    0.0223   -1.3158 C   0  0  0  0  0  0  0  0  0  0  0  0
    0.3229    0.5907    0.1100 C   0  0  0  0  0  0  0  0  0  0  0  0
   -1.0224    1.2257    0.5232 C   0  0  0  0  0  0  0  0  0  0  0  0
   -2.2093    0.2537    0.5232 C   0  0  0  0  0  0  0  0  0  0  0  0
   -2.9749    0.2012   -0.7952 C   0  0  0  0  0  0  0  0  0  0  0  0
   -2.6728    0.9380   -1.7348 O   0  0  0  0  0  0  0  0  0  0  0  0
   -4.0232   -0.7100   -0.8840 N   0  0  0  0  0  0  0  0  0  0  0  0
   -4.7545   -0.7990   -2.1418 C   0  0  0  0  0  0  0  0  0  0  0  0
   -4.5808   -1.4558    0.2479 C   0  0  0  0  0  0  0  0  0  0  0  0
   -5.8810   -0.8996    0.7678 C   0  0  0  0  0  0  0  0  0  0  0  0
   -6.1096    0.4696    0.9376 C   0  0  0  0  0  0  0  0  0  0  0  0
   -7.3239    0.9126    1.4559 C   0  0  0  0  0  0  0  0  0  0  0  0
   -8.2738   -0.0322    1.8023 C   0  0  0  0  0  0  0  0  0  0  0  0
   -8.0884   -1.3620    1.6694 N   0  0  0  0  0  0  0  0  0  0  0  0
   -6.9005   -1.7628    1.1620 C   0  0  0  0  0  0  0  0  0  0  0  0
    1.4422    1.6343    0.2407 C   0  0  0  0  0  0  0  0  0  0  0  0
    4.9377   -2.5536    0.0016 H   0  0  0  0  0  0  0  0  0  0  0  0
    5.2982   -2.2925    1.7454 H   0  0  0  0  0  0  0  0  0  0  0  0
    6.5295   -2.9175    0.6627 H   0  0  0  0  0  0  0  0  0  0  0  0
    8.1043   -1.4533   -0.1768 H   0  0  0  0  0  0  0  0  0  0  0  0
    8.9292    0.8069   -0.6785 H   0  0  0  0  0  0  0  0  0  0  0  0
    7.4566    2.7793   -0.3654 H   0  0  0  0  0  0  0  0  0  0  0  0
    5.1383    2.4725    0.4351 H   0  0  0  0  0  0  0  0  0  0  0  0
    3.7654    0.0446   -1.7042 H   0  0  0  0  0  0  0  0  0  0  0  0
    2.6783    1.3222   -2.1993 H   0  0  0  0  0  0  0  0  0  0  0  0
    1.6712   -0.8362   -2.7535 H   0  0  0  0  0  0  0  0  0  0  0  0
    1.8861   -1.4330   -1.1176 H   0  0  0  0  0  0  0  0  0  0  0  0
    0.0293    0.8058   -2.0287 H   0  0  0  0  0  0  0  0  0  0  0  0
   -0.4210   -0.7842   -1.4061 H   0  0  0  0  0  0  0  0  0  0  0  0
    0.5305   -0.2341    0.8044 H   0  0  0  0  0  0  0  0  0  0  0  0
   -0.9067    1.5994    1.5497 H   0  0  0  0  0  0  0  0  0  0  0  0
   -1.2324    2.1049   -0.0977 H   0  0  0  0  0  0  0  0  0  0  0  0
   -2.9169    0.5934    1.2886 H   0  0  0  0  0  0  0  0  0  0  0  0
   -1.8642   -0.7512    0.7877 H   0  0  0  0  0  0  0  0  0  0  0  0
   -4.9786   -1.8490   -2.3547 H   0  0  0  0  0  0  0  0  0  0  0  0
   -5.6869   -0.2325   -2.0562 H   0  0  0  0  0  0  0  0  0  0  0  0
   -4.1752   -0.3940   -2.9768 H   0  0  0  0  0  0  0  0  0  0  0  0
   -3.8761   -1.5032    1.0816 H   0  0  0  0  0  0  0  0  0  0  0  0
   -4.7205   -2.4876   -0.0984 H   0  0  0  0  0  0  0  0  0  0  0  0
   -5.3543    1.2007    0.6611 H   0  0  0  0  0  0  0  0  0  0  0  0
   -7.5233    1.9704    1.5861 H   0  0  0  0  0  0  0  0  0  0  0  0
   -9.2363    0.2639    2.2096 H   0  0  0  0  0  0  0  0  0  0  0  0
   -6.7927   -2.8415    1.0801 H   0  0  0  0  0  0  0  0  0  0  0  0
    1.4704    2.0505    1.2536 H   0  0  0  0  0  0  0  0  0  0  0  0
    1.2496    2.4874   -0.4231 H   0  0  0  0  0  0  0  0  0  0  0  0
  1  2  1  0
  2  3  2  0
  3  4  1  0
  4  5  2  0
  5  6  1  0
  6  7  2  0
  7  8  1  0
  8  9  2  0
  8 10  2  0
  8 11  1  0
 11 12  1  0
 12 13  1  0
 13 14  1  0
 14 15  1  0
 15 16  1  0
 16 17  1  0
 17 18  1  0
 18 19  2  0
 18 20  1  0
 20 21  1  0
 20 22  1  0
 22 23  1  0
 23 24  2  0
 24 25  1  0
 25 26  2  0
 26 27  1  0
 27 28  2  0
 15 29  1  0
  7  2  1  0
 29 11  1  0
 28 23  1  0
  1 30  1  0
  1 31  1  0
  1 32  1  0
  3 33  1  0
  4 34  1  0
  5 35  1  0
  6 36  1  0
 12 37  1  0
 12 38  1  0
 13 39  1  0
 13 40  1  0
 14 41  1  0
 14 42  1  0
 15 43  1  0
 16 44  1  0
 16 45  1  0
 17 46  1  0
 17 47  1  0
 21 48  1  0
 21 49  1  0
 21 50  1  0
 22 51  1  0
 22 52  1  0
 24 53  1  0
 25 54  1  0
 26 55  1  0
 28 56  1  0
 29 57  1  0
 29 58  1  0
M  END
$$$$
