
     RDKit          3D

 65 69  0  0  0  0  0  0  0  0999 V2000
   -1.2582    2.7129    1.9560 C   0  0  0  0  0  0  0  0  0  0  0  0
   -0.5211    1.6825    1.3101 O   0  0  0  0  0  0  0  0  0  0  0  0
   -1.2389    0.6592    0.7268 C   0  0  0  0  0  0  0  0  0  0  0  0
   -2.6342    0.5264    0.7924 C   0  0  0  0  0  0  0  0  0  0  0  0
   -3.2655   -0.5497    0.1708 C   0  0  0  0  0  0  0  0  0  0  0  0
   -4.6069   -0.8072    0.1503 O   0  0  0  0  0  0  0  0  0  0  0  0
   -5.4943   -0.0185    0.9539 C   0  0  0  0  0  0  0  0  0  0  0  0
   -6.6971   -0.9004    1.3084 C   0  0  0  0  0  0  0  0  0  0  0  0
   -7.5632   -1.2024    0.0819 C   0  0  0  0  0  0  0  0  0  0  0  0
   -7.9968   -0.0062   -0.6503 N   0  0  0  0  0  0  0  0  0  0  0  0
   -9.0462    0.7312    0.0459 C   0  0  0  0  0  0  0  0  0  0  0  0
   -6.8509    0.8387   -1.0061 C   0  0  0  0  0  0  0  0  0  0  0  0
   -5.9625    1.2185    0.1820 C   0  0  0  0  0  0  0  0  0  0  0  0
   -2.4950   -1.4797   -0.5260 C   0  0  0  0  0  0  0  0  0  0  0  0
   -1.1047   -1.3537   -0.5954 C   0  0  0  0  0  0  0  0  0  0  0  0
   -0.4521   -0.2905    0.0304 C   0  0  0  0  0  0  0  0  0  0  0  0
    0.9394   -0.1046   -0.0019 N   0  0  0  0  0  0  0  0  0  0  0  0
    2.0042   -0.7567   -0.6069 C   0  0  0  0  0  0  0  0  0  0  0  0
    1.8109   -1.8412   -1.3976 N   0  0  0  0  0  0  0  0  0  0  0  0
    2.8844   -2.4192   -1.9753 C   0  0  0  0  0  0  0  0  0  0  0  0
    4.1319   -1.9330   -1.7604 C   0  0  0  0  0  0  0  0  0  0  0  0
    4.2432   -0.8405   -0.9341 C   0  0  0  0  0  0  0  0  0  0  0  0
    3.2144   -0.2204   -0.3541 N   0  0  0  0  0  0  0  0  0  0  0  0
    5.6087   -0.5011   -0.8523 N   0  0  0  0  0  0  0  0  0  0  0  0
    6.0950    0.7336   -0.2664 C   0  0  0  0  0  0  0  0  0  0  0  0
    7.5959    0.7479    0.0419 C   0  0  0  0  0  0  0  0  0  0  0  0
    7.7546    1.9409    0.9686 C   0  0  0  0  0  0  0  0  0  0  0  0
    6.5320    1.8795    1.8697 C   0  0  0  0  0  0  0  0  0  0  0  0
    5.4736    1.0925    1.0950 C   0  0  0  0  0  0  0  0  0  0  0  0
    6.3207   -1.3430   -1.7426 C   0  0  0  0  0  0  0  0  0  0  0  0
    7.5000   -1.2794   -2.0499 O   0  0  0  0  0  0  0  0  0  0  0  0
    5.3910   -2.2786   -2.2405 N   0  0  0  0  0  0  0  0  0  0  0  0
    5.6568   -3.2838   -3.2285 C   0  0  0  0  0  0  0  0  0  0  0  0
   -1.8129    2.3217    2.8157 H   0  0  0  0  0  0  0  0  0  0  0  0
   -0.5424    3.4512    2.3316 H   0  0  0  0  0  0  0  0  0  0  0  0
   -1.9237    3.2242    1.2517 H   0  0  0  0  0  0  0  0  0  0  0  0
   -3.2212    1.2642    1.3204 H   0  0  0  0  0  0  0  0  0  0  0  0
   -5.0159    0.2637    1.8988 H   0  0  0  0  0  0  0  0  0  0  0  0
   -6.3474   -1.8507    1.7300 H   0  0  0  0  0  0  0  0  0  0  0  0
   -7.2997   -0.4059    2.0798 H   0  0  0  0  0  0  0  0  0  0  0  0
   -7.0017   -1.8463   -0.6080 H   0  0  0  0  0  0  0  0  0  0  0  0
   -8.4347   -1.7965    0.3859 H   0  0  0  0  0  0  0  0  0  0  0  0
   -9.9180    0.0885    0.2091 H   0  0  0  0  0  0  0  0  0  0  0  0
   -8.7287    1.1254    1.0161 H   0  0  0  0  0  0  0  0  0  0  0  0
   -9.3931    1.5722   -0.5654 H   0  0  0  0  0  0  0  0  0  0  0  0
   -7.1957    1.7495   -1.5119 H   0  0  0  0  0  0  0  0  0  0  0  0
   -6.2467    0.3060   -1.7519 H   0  0  0  0  0  0  0  0  0  0  0  0
   -5.1044    1.7831   -0.1991 H   0  0  0  0  0  0  0  0  0  0  0  0
   -6.5094    1.8862    0.8579 H   0  0  0  0  0  0  0  0  0  0  0  0
   -2.9790   -2.3186   -1.0209 H   0  0  0  0  0  0  0  0  0  0  0  0
   -0.5514   -2.1074   -1.1452 H   0  0  0  0  0  0  0  0  0  0  0  0
    1.2593    0.6968    0.5284 H   0  0  0  0  0  0  0  0  0  0  0  0
    2.6818   -3.2708   -2.6120 H   0  0  0  0  0  0  0  0  0  0  0  0
    5.8783    1.5344   -0.9866 H   0  0  0  0  0  0  0  0  0  0  0  0
    7.9029   -0.1739    0.5524 H   0  0  0  0  0  0  0  0  0  0  0  0
    8.2082    0.8636   -0.8578 H   0  0  0  0  0  0  0  0  0  0  0  0
    8.6911    1.9092    1.5336 H   0  0  0  0  0  0  0  0  0  0  0  0
    7.7432    2.8713    0.3874 H   0  0  0  0  0  0  0  0  0  0  0  0
    6.1824    2.8831    2.1338 H   0  0  0  0  0  0  0  0  0  0  0  0
    6.7707    1.3598    2.8049 H   0  0  0  0  0  0  0  0  0  0  0  0
    4.5611    1.6859    0.9711 H   0  0  0  0  0  0  0  0  0  0  0  0
    5.2070    0.1934    1.6638 H   0  0  0  0  0  0  0  0  0  0  0  0
    6.7348   -3.4179   -3.3510 H   0  0  0  0  0  0  0  0  0  0  0  0
    5.2272   -2.9676   -4.1841 H   0  0  0  0  0  0  0  0  0  0  0  0
    5.2087   -4.2318   -2.9179 H   0  0  0  0  0  0  0  0  0  0  0  0
  1  2  1  0
  2  3  1  0
  3  4  2  0
  4  5  1  0
  5  6  1  0
  6  7  1  0
  7  8  1  0
  8  9  1  0
  9 10  1  0
 10 11  1  0
 10 12  1  0
 12 13  1  0
  5 14  2  0
 14 15  1  0
 15 16  2  0
 16 17  1  0
 17 18  1  0
 18 19  2  0
 19 20  1  0
 20 21  2  0
 21 22  1  0
 22 23  2  0
 22 24  1  0
 24 25  1  0
 25 26  1  0
 26 27  1  0
 27 28  1  0
 28 29  1  0
 24 30  1  0
 30 31  2  0
 30 32  1  0
 32 33  1  0
 16  3  1  0
 23 18  1  0
 29 25  1  0
 13  7  1  0
 32 21  1  0
  1 34  1  0
  1 35  1  0
  1 36  1  0
  4 37  1  0
  7 38  1  0
  8 39  1  0
  8 40  1  0
  9 41  1  0
  9 42  1  0
 11 43  1  0
 11 44  1  0
 11 45  1  0
 12 46  1  0
 12 47  1  0
 13 48  1  0
 13 49  1  0
 14 50  1  0
 15 51  1  0
 17 52  1  0
 20 53  1  0
 25 54  1  0
 26 55  1  0
 26 56  1  0
 27 57  1  0
 27 58  1  0
 28 59  1  0
 28 60  1  0
 29 61  1  0
 29 62  1  0
 33 63  1  0
 33 64  1  0
 33 65  1  0
M  END
$$$$
