
     RDKit          3D

 72 77  0  0  0  0  0  0  0  0999 V2000
   -8.3276    0.6520    2.0478 C   0  0  0  0  0  0  0  0  0  0  0  0
   -8.2730    0.4697    0.5350 C   0  0  1  0  0  0  0  0  0  0  0  0
   -6.8938    0.8900   -0.0249 C   0  0  0  0  0  0  0  0  0  0  0  0
   -6.8248    0.6462   -1.4784 N   0  0  0  0  0  0  0  0  0  0  0  0
   -5.5630    1.1069   -2.0918 C   0  0  0  0  0  0  0  0  0  0  0  0
   -4.2746    0.5781   -1.4291 C   0  0  0  0  0  0  0  0  0  0  0  0
   -4.1171   -0.6098   -1.1503 O   0  0  0  0  0  0  0  0  0  0  0  0
   -3.3346    1.5808   -1.2169 N   0  0  0  0  0  0  0  0  0  0  0  0
   -2.1027    1.4622   -0.5377 C   0  0  0  0  0  0  0  0  0  0  0  0
   -1.2250    2.5491   -0.5975 C   0  0  0  0  0  0  0  0  0  0  0  0
    0.0075    2.5027    0.0616 C   0  0  0  0  0  0  0  0  0  0  0  0
    0.3785    1.3720    0.7938 C   0  0  0  0  0  0  0  0  0  0  0  0
   -0.4962    0.2840    0.8716 C   0  0  0  0  0  0  0  0  0  0  0  0
   -1.7355    0.3410    0.2081 C   0  0  0  0  0  0  0  0  0  0  0  0
   -0.1613   -0.9122    1.7251 C   0  0  0  0  0  0  0  0  0  0  0  0
    1.2865   -1.3408    1.6573 C   0  0  0  0  0  0  0  0  0  0  0  0
    1.5814   -2.7145    1.6488 C   0  0  0  0  0  0  0  0  0  0  0  0
    2.8994   -3.1566    1.6369 C   0  0  0  0  0  0  0  0  0  0  0  0
    3.9382   -2.2324    1.6558 C   0  0  0  0  0  0  0  0  0  0  0  0
    3.6793   -0.8500    1.6802 C   0  0  0  0  0  0  0  0  0  0  0  0
    4.8579    0.0366    1.6986 C   0  0  0  0  0  0  0  0  0  0  0  0
    5.1083    0.8750    2.7108 C   0  0  0  0  0  0  0  0  0  0  0  0
    6.3204    1.6999    2.6374 C   0  0  0  0  0  0  0  0  0  0  0  0
    6.5905    2.5177    3.5108 O   0  0  0  0  0  0  0  0  0  0  0  0
    7.2053    1.5004    1.4795 C   0  0  0  0  0  0  0  0  0  0  0  0
    6.8877    0.6039    0.5290 C   0  0  0  0  0  0  0  0  0  0  0  0
    7.6731    0.3229   -0.5917 N   0  0  0  0  0  0  0  0  0  0  0  0
    8.9135    1.0454   -0.9391 C   0  0  0  0  0  0  0  0  0  0  0  0
    9.2433    0.8968   -2.4358 C   0  0  0  0  0  0  0  0  0  0  0  0
    9.4110   -0.4627   -2.8641 O   0  0  0  0  0  0  0  0  0  0  0  0
    8.6191   -1.3923   -2.1125 C   0  0  0  0  0  0  0  0  0  0  0  0
    7.3400   -0.7825   -1.5189 C   0  0  0  0  0  0  0  0  0  0  0  0
    5.7031   -0.1256    0.6152 O   0  0  0  0  0  0  0  0  0  0  0  0
    2.3380   -0.3980    1.6656 C   0  0  0  0  0  0  0  0  0  0  0  0
    1.9480    1.3598    1.6329 S   0  0  0  0  0  0  0  0  0  0  0  0
   -7.1200   -0.7752   -1.7489 C   0  0  0  0  0  0  0  0  0  0  0  0
   -8.4997   -1.1601   -1.1641 C   0  0  1  0  0  0  0  0  0  0  0  0
   -8.7906   -2.6391   -1.3800 C   0  0  0  0  0  0  0  0  0  0  0  0
   -8.5447   -0.9146    0.2527 O   0  0  0  0  0  0  0  0  0  0  0  0
   -9.2840    0.2943    2.4446 H   0  0  0  0  0  0  0  0  0  0  0  0
   -8.2085    1.7053    2.3228 H   0  0  0  0  0  0  0  0  0  0  0  0
   -7.5428    0.0699    2.5434 H   0  0  0  0  0  0  0  0  0  0  0  0
   -9.0651    1.0850    0.0818 H   0  0  0  0  0  0  0  0  0  0  0  0
   -6.7332    1.9550    0.1833 H   0  0  0  0  0  0  0  0  0  0  0  0
   -6.1114    0.3258    0.4943 H   0  0  0  0  0  0  0  0  0  0  0  0
   -5.5269    0.8383   -3.1559 H   0  0  0  0  0  0  0  0  0  0  0  0
   -5.5670    2.2045   -2.0583 H   0  0  0  0  0  0  0  0  0  0  0  0
   -3.5188    2.4814   -1.6408 H   0  0  0  0  0  0  0  0  0  0  0  0
   -1.4761    3.4428   -1.1620 H   0  0  0  0  0  0  0  0  0  0  0  0
    0.6767    3.3584   -0.0023 H   0  0  0  0  0  0  0  0  0  0  0  0
   -2.4072   -0.5071    0.3082 H   0  0  0  0  0  0  0  0  0  0  0  0
   -0.7945   -1.7543    1.4186 H   0  0  0  0  0  0  0  0  0  0  0  0
   -0.4145   -0.6878    2.7695 H   0  0  0  0  0  0  0  0  0  0  0  0
    0.7784   -3.4485    1.6493 H   0  0  0  0  0  0  0  0  0  0  0  0
    3.1175   -4.2220    1.6197 H   0  0  0  0  0  0  0  0  0  0  0  0
    4.9653   -2.5963    1.6563 H   0  0  0  0  0  0  0  0  0  0  0  0
    4.4729    0.9957    3.5783 H   0  0  0  0  0  0  0  0  0  0  0  0
    8.1086    2.0926    1.4697 H   0  0  0  0  0  0  0  0  0  0  0  0
    9.7335    0.6415   -0.3309 H   0  0  0  0  0  0  0  0  0  0  0  0
    8.8118    2.1155   -0.7195 H   0  0  0  0  0  0  0  0  0  0  0  0
   10.1709    1.4305   -2.6711 H   0  0  0  0  0  0  0  0  0  0  0  0
    8.4480    1.3427   -3.0468 H   0  0  0  0  0  0  0  0  0  0  0  0
    9.2539   -1.7958   -1.3138 H   0  0  0  0  0  0  0  0  0  0  0  0
    8.3652   -2.2228   -2.7786 H   0  0  0  0  0  0  0  0  0  0  0  0
    6.7904   -1.5789   -1.0034 H   0  0  0  0  0  0  0  0  0  0  0  0
    6.7021   -0.3858   -2.3184 H   0  0  0  0  0  0  0  0  0  0  0  0
   -7.1317   -0.9531   -2.8314 H   0  0  0  0  0  0  0  0  0  0  0  0
   -6.3600   -1.4252   -1.3036 H   0  0  0  0  0  0  0  0  0  0  0  0
   -9.2925   -0.5715   -1.6450 H   0  0  0  0  0  0  0  0  0  0  0  0
   -8.0447   -3.2666   -0.8759 H   0  0  0  0  0  0  0  0  0  0  0  0
   -8.7956   -2.8901   -2.4460 H   0  0  0  0  0  0  0  0  0  0  0  0
   -9.7666   -2.9000   -0.9532 H   0  0  0  0  0  0  0  0  0  0  0  0
  1  2  1  0
  2  3  1  0
  3  4  1  0
  4  5  1  0
  5  6  1  0
  6  7  2  0
  6  8  1  0
  8  9  1  0
  9 10  2  0
 10 11  1  0
 11 12  2  0
 12 13  1  0
 13 14  2  0
 13 15  1  0
 15 16  1  0
 16 17  2  0
 17 18  1  0
 18 19  2  0
 19 20  1  0
 20 21  1  0
 21 22  2  0
 22 23  1  0
 23 24  2  0
 23 25  1  0
 25 26  2  0
 26 27  1  0
 27 28  1  0
 28 29  1  0
 29 30  1  0
 30 31  1  0
 31 32  1  0
 26 33  1  0
 20 34  2  0
 34 35  1  0
  4 36  1  0
 36 37  1  0
 37 38  1  0
 37 39  1  0
 39  2  1  0
 14  9  1  0
 34 16  1  0
 35 12  1  0
 33 21  1  0
 32 27  1  0
  1 40  1  0
  1 41  1  0
  1 42  1  0
  2 43  1  6
  3 44  1  0
  3 45  1  0
  5 46  1  0
  5 47  1  0
  8 48  1  0
 10 49  1  0
 11 50  1  0
 14 51  1  0
 15 52  1  0
 15 53  1  0
 17 54  1  0
 18 55  1  0
 19 56  1  0
 22 57  1  0
 25 58  1  0
 28 59  1  0
 28 60  1  0
 29 61  1  0
 29 62  1  0
 31 63  1  0
 31 64  1  0
 32 65  1  0
 32 66  1  0
 36 67  1  0
 36 68  1  0
 37 69  1  6
 38 70  1  0
 38 71  1  0
 38 72  1  0
M  END
$$$$
