
     RDKit          3D

 46 49  0  0  0  0  0  0  0  0999 V2000
   -4.8627    2.8761   -2.6911 C   0  0  0  0  0  0  0  0  0  0  0  0
   -4.7163    2.3983   -1.3562 O   0  0  0  0  0  0  0  0  0  0  0  0
   -3.7199    1.4883   -1.1317 C   0  0  0  0  0  0  0  0  0  0  0  0
   -2.8855    0.9358   -2.0971 C   0  0  0  0  0  0  0  0  0  0  0  0
   -1.9072    0.0003   -1.7360 C   0  0  0  0  0  0  0  0  0  0  0  0
   -1.7506   -0.3876   -0.4070 C   0  0  0  0  0  0  0  0  0  0  0  0
   -0.8034   -1.3489    0.0210 N   0  0  0  0  0  0  0  0  0  0  0  0
    0.1439   -2.0118   -0.7338 C   0  0  0  0  0  0  0  0  0  0  0  0
    0.3821   -1.8059   -1.9217 O   0  0  0  0  0  0  0  0  0  0  0  0
    0.9283   -3.0666    0.0379 C   0  0  0  0  0  0  0  0  0  0  0  0
    2.1091   -2.5832    0.8024 N   0  0  0  0  0  0  0  0  0  0  0  0
    2.9769   -1.6443    0.1185 C   0  0  0  0  0  0  0  0  0  0  0  0
    3.6129   -1.8678   -1.0924 C   0  0  0  0  0  0  0  0  0  0  0  0
    4.3568   -0.8237   -1.6645 C   0  0  0  0  0  0  0  0  0  0  0  0
    4.4551    0.4315   -1.0315 C   0  0  0  0  0  0  0  0  0  0  0  0
    3.8103    0.6588    0.1993 C   0  0  0  0  0  0  0  0  0  0  0  0
    3.8174    1.8568    0.9450 C   0  0  0  0  0  0  0  0  0  0  0  0
    3.1282    1.9440    2.1750 C   0  0  0  0  0  0  0  0  0  0  0  0
    2.4294    0.8466    2.6889 C   0  0  0  0  0  0  0  0  0  0  0  0
    2.4363   -0.3139    1.9387 C   0  0  0  0  0  0  0  0  0  0  0  0
    3.0913   -0.4103    0.7353 C   0  0  0  0  0  0  0  0  0  0  0  0
    1.7449   -1.8611    2.3399 S   0  0  0  0  0  6  0  0  0  0  0  0
    0.3095   -1.7362    2.4762 O   0  0  0  0  0  0  0  0  0  0  0  0
    2.5831   -2.4579    3.3512 O   0  0  0  0  0  0  0  0  0  0  0  0
   -2.5897    0.1788    0.5758 C   0  0  0  0  0  0  0  0  0  0  0  0
   -2.3587   -0.2423    1.8628 O   0  0  0  0  0  0  0  0  0  0  0  0
   -3.2055    0.2751    2.8835 C   0  0  0  0  0  0  0  0  0  0  0  0
   -3.5694    1.1063    0.2048 C   0  0  0  0  0  0  0  0  0  0  0  0
   -5.6879    3.5926   -2.7009 H   0  0  0  0  0  0  0  0  0  0  0  0
   -3.9605    3.4036   -3.0217 H   0  0  0  0  0  0  0  0  0  0  0  0
   -5.1207    2.0636   -3.3792 H   0  0  0  0  0  0  0  0  0  0  0  0
   -2.9677    1.2021   -3.1427 H   0  0  0  0  0  0  0  0  0  0  0  0
   -1.2859   -0.4099   -2.5235 H   0  0  0  0  0  0  0  0  0  0  0  0
   -0.8264   -1.5271    1.0292 H   0  0  0  0  0  0  0  0  0  0  0  0
    1.2804   -3.8138   -0.6894 H   0  0  0  0  0  0  0  0  0  0  0  0
    0.2523   -3.6196    0.6948 H   0  0  0  0  0  0  0  0  0  0  0  0
    3.5325   -2.8229   -1.6029 H   0  0  0  0  0  0  0  0  0  0  0  0
    4.8572   -0.9801   -2.6188 H   0  0  0  0  0  0  0  0  0  0  0  0
    5.0339    1.2219   -1.5050 H   0  0  0  0  0  0  0  0  0  0  0  0
    4.3577    2.7322    0.5760 H   0  0  0  0  0  0  0  0  0  0  0  0
    3.1470    2.8802    2.7358 H   0  0  0  0  0  0  0  0  0  0  0  0
    1.9153    0.9000    3.6449 H   0  0  0  0  0  0  0  0  0  0  0  0
   -4.2410   -0.0306    2.7259 H   0  0  0  0  0  0  0  0  0  0  0  0
   -3.1211    1.3688    2.9587 H   0  0  0  0  0  0  0  0  0  0  0  0
   -2.8760   -0.1497    3.8392 H   0  0  0  0  0  0  0  0  0  0  0  0
   -4.2357    1.5536    0.9320 H   0  0  0  0  0  0  0  0  0  0  0  0
  1  2  1  0
  2  3  1  0
  3  4  2  0
  4  5  1  0
  5  6  2  0
  6  7  1  0
  7  8  1  0
  8  9  2  0
  8 10  1  0
 10 11  1  0
 11 12  1  0
 12 13  2  0
 13 14  1  0
 14 15  2  0
 15 16  1  0
 16 17  2  0
 17 18  1  0
 18 19  2  0
 19 20  1  0
 20 21  2  0
 20 22  1  0
 22 23  2  0
 22 24  2  0
  6 25  1  0
 25 26  1  0
 26 27  1  0
 25 28  2  0
 28  3  1  0
 22 11  1  0
 21 12  1  0
 21 16  1  0
  1 29  1  0
  1 30  1  0
  1 31  1  0
  4 32  1  0
  5 33  1  0
  7 34  1  0
 10 35  1  0
 10 36  1  0
 13 37  1  0
 14 38  1  0
 15 39  1  0
 17 40  1  0
 18 41  1  0
 19 42  1  0
 27 43  1  0
 27 44  1  0
 27 45  1  0
 28 46  1  0
M  END
$$$$
