
     RDKit          3D

 53 56  0  0  0  0  0  0  0  0999 V2000
    1.7567    3.5074    1.5348 C   0  0  0  0  0  0  0  0  0  0  0  0
    2.8035    3.1281    0.6446 O   0  0  0  0  0  0  0  0  0  0  0  0
    2.8355    1.8219    0.2284 C   0  0  0  0  0  0  0  0  0  0  0  0
    1.9063    0.8323    0.5631 C   0  0  0  0  0  0  0  0  0  0  0  0
    2.0626   -0.4790    0.0883 C   0  0  0  0  0  0  0  0  0  0  0  0
    1.0813   -1.4235    0.4459 N   0  0  0  0  0  0  0  0  0  0  0  0
    1.1347   -2.7932    0.2560 C   0  0  0  0  0  0  0  0  0  0  0  0
    2.1119   -3.4510   -0.1038 O   0  0  0  0  0  0  0  0  0  0  0  0
   -0.2030   -3.5061    0.4799 C   0  0  0  0  0  0  0  0  0  0  0  0
   -1.1752   -3.1689   -0.6556 C   0  0  0  0  0  0  0  0  0  0  0  0
   -1.8740   -1.8229   -0.5113 C   0  0  0  0  0  0  0  0  0  0  0  0
   -2.1822   -1.4825    0.9205 N   0  0  0  0  0  0  0  0  0  0  0  0
   -3.6384   -0.5528    1.1063 S   0  0  0  0  0  6  0  0  0  0  0  0
   -3.7647   -0.2312    2.5157 O   0  0  0  0  0  0  0  0  0  0  0  0
   -4.6979   -1.2622    0.4219 O   0  0  0  0  0  0  0  0  0  0  0  0
   -3.2597    0.9437    0.2878 C   0  0  0  0  0  0  0  0  0  0  0  0
   -2.5023    1.9368    0.9449 C   0  0  0  0  0  0  0  0  0  0  0  0
   -2.2320    3.2042    0.3642 C   0  0  0  0  0  0  0  0  0  0  0  0
   -2.6826    3.5799   -0.9144 C   0  0  0  0  0  0  0  0  0  0  0  0
   -3.4625    2.6088   -1.5688 C   0  0  0  0  0  0  0  0  0  0  0  0
   -4.0819    2.6794   -2.7539 N   0  0  0  0  0  0  0  0  0  0  0  0
   -4.7355    1.4735   -2.9142 O   0  0  0  0  0  0  0  0  0  0  0  0
   -4.4958    0.6185   -1.8534 N   0  0  0  0  0  0  0  0  0  0  0  0
   -3.7458    1.2972   -0.9804 C   0  0  0  0  0  0  0  0  0  0  0  0
   -2.2020   -2.6817    1.8046 C   0  0  0  0  0  0  0  0  0  0  0  0
   -0.7998   -3.2734    1.8710 C   0  0  0  0  0  0  0  0  0  0  0  0
    3.1431   -0.7782   -0.7435 C   0  0  0  0  0  0  0  0  0  0  0  0
    4.0690    0.2084   -1.0990 C   0  0  0  0  0  0  0  0  0  0  0  0
    5.0591   -0.2171   -1.9487 O   0  0  0  0  0  0  0  0  0  0  0  0
    6.1298    0.6892   -2.1926 C   0  0  0  0  0  0  0  0  0  0  0  0
    3.9140    1.5036   -0.6077 C   0  0  0  0  0  0  0  0  0  0  0  0
    1.7438    2.8790    2.4296 H   0  0  0  0  0  0  0  0  0  0  0  0
    0.7898    3.4857    1.0168 H   0  0  0  0  0  0  0  0  0  0  0  0
    1.9429    4.5359    1.8523 H   0  0  0  0  0  0  0  0  0  0  0  0
    1.0618    1.0632    1.2063 H   0  0  0  0  0  0  0  0  0  0  0  0
    0.2705   -1.0594    0.9378 H   0  0  0  0  0  0  0  0  0  0  0  0
    0.0210   -4.5803    0.4014 H   0  0  0  0  0  0  0  0  0  0  0  0
   -0.6557   -3.1979   -1.6215 H   0  0  0  0  0  0  0  0  0  0  0  0
   -1.9443   -3.9564   -0.7035 H   0  0  0  0  0  0  0  0  0  0  0  0
   -2.7781   -1.8306   -1.1350 H   0  0  0  0  0  0  0  0  0  0  0  0
   -1.2269   -1.0282   -0.9037 H   0  0  0  0  0  0  0  0  0  0  0  0
   -2.1008    1.7345    1.9426 H   0  0  0  0  0  0  0  0  0  0  0  0
   -1.6499    3.9170    0.9422 H   0  0  0  0  0  0  0  0  0  0  0  0
   -2.4998    4.5638   -1.3428 H   0  0  0  0  0  0  0  0  0  0  0  0
   -2.4912   -2.4007    2.8199 H   0  0  0  0  0  0  0  0  0  0  0  0
   -2.9270   -3.4171    1.4404 H   0  0  0  0  0  0  0  0  0  0  0  0
   -0.1551   -2.6220    2.4787 H   0  0  0  0  0  0  0  0  0  0  0  0
   -0.8469   -4.2272    2.4169 H   0  0  0  0  0  0  0  0  0  0  0  0
    3.2870   -1.7772   -1.1502 H   0  0  0  0  0  0  0  0  0  0  0  0
    6.6299    0.9770   -1.2615 H   0  0  0  0  0  0  0  0  0  0  0  0
    6.8591    0.1689   -2.8139 H   0  0  0  0  0  0  0  0  0  0  0  0
    5.7875    1.5676   -2.7457 H   0  0  0  0  0  0  0  0  0  0  0  0
    4.6099    2.2955   -0.8711 H   0  0  0  0  0  0  0  0  0  0  0  0
  1  2  1  0
  2  3  1  0
  3  4  2  0
  4  5  1  0
  5  6  1  0
  6  7  1  0
  7  8  2  0
  7  9  1  0
  9 10  1  0
 10 11  1  0
 11 12  1  0
 12 13  1  0
 13 14  2  0
 13 15  2  0
 13 16  1  0
 16 17  2  0
 17 18  1  0
 18 19  2  0
 19 20  1  0
 20 21  2  0
 21 22  1  0
 22 23  1  0
 23 24  2  0
 12 25  1  0
 25 26  1  0
  5 27  2  0
 27 28  1  0
 28 29  1  0
 29 30  1  0
 28 31  2  0
 31  3  1  0
 26  9  1  0
 24 16  1  0
 24 20  1  0
  1 32  1  0
  1 33  1  0
  1 34  1  0
  4 35  1  0
  6 36  1  0
  9 37  1  0
 10 38  1  0
 10 39  1  0
 11 40  1  0
 11 41  1  0
 17 42  1  0
 18 43  1  0
 19 44  1  0
 25 45  1  0
 25 46  1  0
 26 47  1  0
 26 48  1  0
 27 49  1  0
 30 50  1  0
 30 51  1  0
 30 52  1  0
 31 53  1  0
M  END
$$$$
