
     RDKit          3D

 62 65  0  0  0  0  0  0  0  0999 V2000
    1.6153    1.2554    2.0014 C   0  0  0  0  0  0  0  0  0  0  0  0
    1.3203   -0.0543    1.4060 N   0  0  0  0  0  0  0  0  0  0  0  0
   -0.0148   -0.1275    0.9330 C   0  0  0  0  0  0  0  0  0  0  0  0
   -0.3218   -0.1146   -0.4333 C   0  0  0  0  0  0  0  0  0  0  0  0
   -1.6489   -0.1912   -0.8726 C   0  0  0  0  0  0  0  0  0  0  0  0
   -2.7022   -0.2784    0.0442 C   0  0  0  0  0  0  0  0  0  0  0  0
   -4.0082   -0.3682   -0.4795 N   0  0  0  0  0  0  0  0  0  0  0  0
   -5.2060   -0.3069    0.2204 C   0  0  0  0  0  0  0  0  0  0  0  0
   -5.3099   -0.0591    1.4139 O   0  0  0  0  0  0  0  0  0  0  0  0
   -6.2684   -0.5697   -0.6348 N   0  0  0  0  0  0  0  0  0  0  0  0
   -7.6463   -0.4930   -0.3429 C   0  0  0  0  0  0  0  0  0  0  0  0
   -8.1654    0.0470    0.8361 C   0  0  0  0  0  0  0  0  0  0  0  0
   -9.5477    0.1013    1.0453 C   0  0  0  0  0  0  0  0  0  0  0  0
  -10.4167   -0.3644    0.0635 C   0  0  0  0  0  0  0  0  0  0  0  0
  -11.7673   -0.3637    0.2590 O   0  0  0  0  0  0  0  0  0  0  0  0
  -12.3150    0.9389    0.0851 C   0  0  0  0  0  0  0  0  0  0  0  0
  -12.0004    1.4443   -1.1281 F   0  0  0  0  0  0  0  0  0  0  0  0
  -13.6617    0.8522    0.1646 F   0  0  0  0  0  0  0  0  0  0  0  0
  -11.8930    1.7843    1.0503 F   0  0  0  0  0  0  0  0  0  0  0  0
   -9.9150   -0.9257   -1.1067 C   0  0  0  0  0  0  0  0  0  0  0  0
   -8.5340   -0.9773   -1.3135 C   0  0  0  0  0  0  0  0  0  0  0  0
   -2.4042   -0.2957    1.4057 C   0  0  0  0  0  0  0  0  0  0  0  0
   -1.0757   -0.2163    1.8435 C   0  0  0  0  0  0  0  0  0  0  0  0
    2.4450   -0.6442    0.7639 C   0  0  0  0  0  0  0  0  0  0  0  0
    2.3269   -1.9226    0.2491 C   0  0  0  0  0  0  0  0  0  0  0  0
    3.4414   -2.4555   -0.3440 C   0  0  0  0  0  0  0  0  0  0  0  0
    4.6087   -1.8025   -0.4389 N   0  0  0  0  0  0  0  0  0  0  0  0
    4.6651   -0.5762    0.0934 C   0  0  0  0  0  0  0  0  0  0  0  0
    5.8279    0.1898    0.0608 N   0  0  0  0  0  0  0  0  0  0  0  0
    7.1018    0.0056   -0.4858 C   0  0  0  0  0  0  0  0  0  0  0  0
    7.4951   -1.1435   -1.1826 C   0  0  0  0  0  0  0  0  0  0  0  0
    8.7859   -1.2753   -1.7111 C   0  0  0  0  0  0  0  0  0  0  0  0
    9.7171   -0.2561   -1.5448 C   0  0  0  0  0  0  0  0  0  0  0  0
    9.3482    0.8869   -0.8378 C   0  0  0  0  0  0  0  0  0  0  0  0
   10.5048    2.2071   -0.6397 S   0  0  0  0  0  6  0  0  0  0  0  0
   11.2076    1.8344    0.8384 N   0  0  0  0  0  0  0  0  0  0  0  0
   11.5558    2.0757   -1.6218 O   0  0  0  0  0  0  0  0  0  0  0  0
    9.7846    3.4427   -0.4373 O   0  0  0  0  0  0  0  0  0  0  0  0
    8.0538    1.0234   -0.3200 C   0  0  0  0  0  0  0  0  0  0  0  0
    3.6206    0.0156    0.6973 N   0  0  0  0  0  0  0  0  0  0  0  0
    2.4974    1.2050    2.6517 H   0  0  0  0  0  0  0  0  0  0  0  0
    1.7876    2.0137    1.2274 H   0  0  0  0  0  0  0  0  0  0  0  0
    0.7980    1.6101    2.6412 H   0  0  0  0  0  0  0  0  0  0  0  0
    0.4705   -0.0240   -1.1727 H   0  0  0  0  0  0  0  0  0  0  0  0
   -1.8392   -0.1737   -1.9423 H   0  0  0  0  0  0  0  0  0  0  0  0
   -4.0835   -0.3212   -1.4834 H   0  0  0  0  0  0  0  0  0  0  0  0
   -6.0272   -1.0015   -1.5130 H   0  0  0  0  0  0  0  0  0  0  0  0
   -7.5199    0.4368    1.6172 H   0  0  0  0  0  0  0  0  0  0  0  0
   -9.9274    0.5053    1.9804 H   0  0  0  0  0  0  0  0  0  0  0  0
  -10.5910   -1.3178   -1.8613 H   0  0  0  0  0  0  0  0  0  0  0  0
   -8.1656   -1.4087   -2.2405 H   0  0  0  0  0  0  0  0  0  0  0  0
   -3.1809   -0.3806    2.1597 H   0  0  0  0  0  0  0  0  0  0  0  0
   -0.8733   -0.2448    2.9120 H   0  0  0  0  0  0  0  0  0  0  0  0
    1.4079   -2.4887    0.3216 H   0  0  0  0  0  0  0  0  0  0  0  0
    3.4289   -3.4544   -0.7691 H   0  0  0  0  0  0  0  0  0  0  0  0
    5.6395    1.0764    0.5051 H   0  0  0  0  0  0  0  0  0  0  0  0
    6.8010   -1.9650   -1.3373 H   0  0  0  0  0  0  0  0  0  0  0  0
    9.0543   -2.1777   -2.2553 H   0  0  0  0  0  0  0  0  0  0  0  0
   10.7150   -0.3589   -1.9639 H   0  0  0  0  0  0  0  0  0  0  0  0
   11.0157    2.5757    1.5122 H   0  0  0  0  0  0  0  0  0  0  0  0
   12.2011    1.6391    0.7106 H   0  0  0  0  0  0  0  0  0  0  0  0
    7.7874    1.9323    0.2155 H   0  0  0  0  0  0  0  0  0  0  0  0
  1  2  1  0
  2  3  1  0
  3  4  2  0
  4  5  1  0
  5  6  2  0
  6  7  1  0
  7  8  1  0
  8  9  2  0
  8 10  1  0
 10 11  1  0
 11 12  2  0
 12 13  1  0
 13 14  2  0
 14 15  1  0
 15 16  1  0
 16 17  1  0
 16 18  1  0
 16 19  1  0
 14 20  1  0
 20 21  2  0
  6 22  1  0
 22 23  2  0
  2 24  1  0
 24 25  2  0
 25 26  1  0
 26 27  2  0
 27 28  1  0
 28 29  1  0
 29 30  1  0
 30 31  2  0
 31 32  1  0
 32 33  2  0
 33 34  1  0
 34 35  1  0
 35 36  1  0
 35 37  2  0
 35 38  2  0
 34 39  2  0
 28 40  2  0
 23  3  1  0
 40 24  1  0
 21 11  1  0
 39 30  1  0
  1 41  1  0
  1 42  1  0
  1 43  1  0
  4 44  1  0
  5 45  1  0
  7 46  1  0
 10 47  1  0
 12 48  1  0
 13 49  1  0
 20 50  1  0
 21 51  1  0
 22 52  1  0
 23 53  1  0
 25 54  1  0
 26 55  1  0
 29 56  1  0
 31 57  1  0
 32 58  1  0
 33 59  1  0
 36 60  1  0
 36 61  1  0
 39 62  1  0
M  END
$$$$
