
     RDKit          3D

 56 58  0  0  0  0  0  0  0  0999 V2000
    3.5522    3.8721   -1.4386 C   0  0  0  0  0  0  0  0  0  0  0  0
    2.6123    2.8301   -1.6597 O   0  0  0  0  0  0  0  0  0  0  0  0
    3.2178    1.5506   -1.8522 C   0  0  0  0  0  0  0  0  0  0  0  0
    3.6932    0.8879   -0.5476 C   0  0  0  0  0  0  0  0  0  0  0  0
    2.5909    0.6306    0.3911 N   0  0  0  0  0  0  0  0  0  0  0  0
    2.3243    1.5800    1.3627 C   0  0  0  0  0  0  0  0  0  0  0  0
    3.0790    2.5213    1.6105 O   0  0  0  0  0  0  0  0  0  0  0  0
    1.0000    1.4787    2.0835 C   0  0  0  0  0  0  0  0  0  0  0  0
    0.4992    0.0597    2.2539 C   0  0  0  0  0  0  0  0  0  0  0  0
    0.4629   -0.6678    0.9116 C   0  0  1  0  0  0  0  0  0  0  0  0
   -0.6088   -0.1196   -0.0308 C   0  0  0  0  0  0  0  0  0  0  0  0
   -0.3749    0.2624   -1.1726 O   0  0  0  0  0  0  0  0  0  0  0  0
   -1.8866   -0.1426    0.4891 N   0  0  0  0  0  0  0  0  0  0  0  0
   -3.0304    0.2982   -0.2858 C   0  0  0  0  0  0  0  0  0  0  0  0
   -3.5209   -0.7936   -1.2335 C   0  0  0  0  0  0  0  0  0  0  0  0
   -4.6430   -0.3070   -2.1482 C   0  0  0  0  0  0  0  0  0  0  0  0
   -5.8243    0.1405   -1.4363 N   0  0  0  0  0  0  0  0  0  0  0  0
   -6.3859    1.3841   -1.4826 C   0  0  0  0  0  0  0  0  0  0  0  0
   -7.4780    1.3391   -0.6484 C   0  0  0  0  0  0  0  0  0  0  0  0
   -7.4877    0.0260   -0.1449 C   0  0  0  0  0  0  0  0  0  0  0  0
   -6.4766   -0.7069   -0.6177 N   0  0  0  0  0  0  0  0  0  0  0  0
    1.8555   -0.6402    0.2447 C   0  0  2  0  0  0  0  0  0  0  0  0
    2.6889   -1.8309    0.7414 C   0  0  0  0  0  0  0  0  0  0  0  0
    2.5732   -3.0688    0.0804 C   0  0  0  0  0  0  0  0  0  0  0  0
    3.3015   -4.1781    0.5134 C   0  0  0  0  0  0  0  0  0  0  0  0
    4.1465   -4.0579    1.6088 C   0  0  0  0  0  0  0  0  0  0  0  0
    4.8446   -5.1229    2.0237 F   0  0  0  0  0  0  0  0  0  0  0  0
    4.2772   -2.8494    2.2801 C   0  0  0  0  0  0  0  0  0  0  0  0
    3.5496   -1.7379    1.8498 C   0  0  0  0  0  0  0  0  0  0  0  0
    3.0003    4.8068   -1.3064 H   0  0  0  0  0  0  0  0  0  0  0  0
    4.1467    3.6945   -0.5399 H   0  0  0  0  0  0  0  0  0  0  0  0
    4.2106    3.9797   -2.3059 H   0  0  0  0  0  0  0  0  0  0  0  0
    4.0518    1.6387   -2.5584 H   0  0  0  0  0  0  0  0  0  0  0  0
    2.4625    0.9167   -2.3286 H   0  0  0  0  0  0  0  0  0  0  0  0
    4.1876   -0.0615   -0.7804 H   0  0  0  0  0  0  0  0  0  0  0  0
    4.4407    1.5206   -0.0595 H   0  0  0  0  0  0  0  0  0  0  0  0
    0.2746    2.0844    1.5285 H   0  0  0  0  0  0  0  0  0  0  0  0
    1.1172    1.9328    3.0744 H   0  0  0  0  0  0  0  0  0  0  0  0
    1.1558   -0.4786    2.9476 H   0  0  0  0  0  0  0  0  0  0  0  0
   -0.4883    0.0814    2.7275 H   0  0  0  0  0  0  0  0  0  0  0  0
    0.1617   -1.7099    1.0921 H   0  0  0  0  0  0  0  0  0  0  0  0
   -2.0683   -0.6350    1.3547 H   0  0  0  0  0  0  0  0  0  0  0  0
   -2.7475    1.1952   -0.8482 H   0  0  0  0  0  0  0  0  0  0  0  0
   -3.8076    0.5766    0.4329 H   0  0  0  0  0  0  0  0  0  0  0  0
   -2.6925   -1.1457   -1.8603 H   0  0  0  0  0  0  0  0  0  0  0  0
   -3.8518   -1.6611   -0.6488 H   0  0  0  0  0  0  0  0  0  0  0  0
   -4.2931    0.5205   -2.7758 H   0  0  0  0  0  0  0  0  0  0  0  0
   -4.9664   -1.1152   -2.8140 H   0  0  0  0  0  0  0  0  0  0  0  0
   -5.9758    2.1772   -2.0923 H   0  0  0  0  0  0  0  0  0  0  0  0
   -8.1716    2.1399   -0.4356 H   0  0  0  0  0  0  0  0  0  0  0  0
   -8.1873   -0.4263    0.5463 H   0  0  0  0  0  0  0  0  0  0  0  0
    1.7431   -0.7857   -0.8374 H   0  0  0  0  0  0  0  0  0  0  0  0
    1.9143   -3.1754   -0.7799 H   0  0  0  0  0  0  0  0  0  0  0  0
    3.2160   -5.1327    0.0041 H   0  0  0  0  0  0  0  0  0  0  0  0
    4.9456   -2.7775    3.1324 H   0  0  0  0  0  0  0  0  0  0  0  0
    3.6699   -0.7982    2.3851 H   0  0  0  0  0  0  0  0  0  0  0  0
  1  2  1  0
  2  3  1  0
  3  4  1  0
  4  5  1  0
  5  6  1  0
  6  7  2  0
  6  8  1  0
  8  9  1  0
  9 10  1  0
 10 11  1  0
 11 12  2  0
 11 13  1  0
 13 14  1  0
 14 15  1  0
 15 16  1  0
 16 17  1  0
 17 18  1  0
 18 19  2  0
 19 20  1  0
 20 21  2  0
 10 22  1  0
 22 23  1  0
 23 24  2  0
 24 25  1  0
 25 26  2  0
 26 27  1  0
 26 28  1  0
 28 29  2  0
 22  5  1  0
 29 23  1  0
 21 17  1  0
  1 30  1  0
  1 31  1  0
  1 32  1  0
  3 33  1  0
  3 34  1  0
  4 35  1  0
  4 36  1  0
  8 37  1  0
  8 38  1  0
  9 39  1  0
  9 40  1  0
 10 41  1  1
 13 42  1  0
 14 43  1  0
 14 44  1  0
 15 45  1  0
 15 46  1  0
 16 47  1  0
 16 48  1  0
 18 49  1  0
 19 50  1  0
 20 51  1  0
 22 52  1  6
 24 53  1  0
 25 54  1  0
 28 55  1  0
 29 56  1  0
M  END
$$$$
