
     RDKit          3D

 44 46  0  0  0  0  0  0  0  0999 V2000
    4.9108   -2.0077   -1.9952 C   0  0  0  0  0  0  0  0  0  0  0  0
    4.5026   -0.7511   -2.5200 O   0  0  0  0  0  0  0  0  0  0  0  0
    3.6040   -0.0318   -1.7838 C   0  0  0  0  0  0  0  0  0  0  0  0
    3.2199    1.1801   -2.3524 C   0  0  0  0  0  0  0  0  0  0  0  0
    2.3065    2.0130   -1.6989 C   0  0  0  0  0  0  0  0  0  0  0  0
    1.7563    1.6656   -0.4754 C   0  0  0  0  0  0  0  0  0  0  0  0
    0.8802    2.4945    0.1108 N   0  0  0  0  0  0  0  0  0  0  0  0
    0.3579    2.1332    1.2968 C   0  0  0  0  0  0  0  0  0  0  0  0
   -0.5344    3.0355    1.7941 O   0  0  0  0  0  0  0  0  0  0  0  0
    0.6662    0.9543    1.9675 C   0  0  0  0  0  0  0  0  0  0  0  0
    0.0567    0.5642    3.2917 C   0  0  0  0  0  0  0  0  0  0  0  0
   -1.0884   -0.4409    3.1342 C   0  0  0  0  0  0  0  0  0  0  0  0
   -2.2629    0.1764    2.4045 C   0  0  0  0  0  0  0  0  0  0  0  0
   -2.5041    1.3804    2.4577 O   0  0  0  0  0  0  0  0  0  0  0  0
   -3.0143   -0.7218    1.6860 N   0  0  0  0  0  0  0  0  0  0  0  0
   -3.9709   -0.2678    0.6979 C   0  0  0  0  0  0  0  0  0  0  0  0
   -3.3362   -0.2591   -0.6682 C   0  0  0  0  0  0  0  0  0  0  0  0
   -3.5658   -1.2966   -1.5760 C   0  0  0  0  0  0  0  0  0  0  0  0
   -2.9171   -1.2627   -2.8012 C   0  0  0  0  0  0  0  0  0  0  0  0
   -2.0608   -0.2886   -3.1728 N   0  0  0  0  0  0  0  0  0  0  0  0
   -1.8478    0.7041   -2.2822 C   0  0  0  0  0  0  0  0  0  0  0  0
   -2.4571    0.7643   -1.0394 C   0  0  0  0  0  0  0  0  0  0  0  0
    1.5795    0.0991    1.3413 C   0  0  0  0  0  0  0  0  0  0  0  0
    2.1421    0.4409    0.1032 C   0  0  0  0  0  0  0  0  0  0  0  0
    3.0637   -0.4006   -0.5530 C   0  0  0  0  0  0  0  0  0  0  0  0
    5.4324   -1.8853   -1.0403 H   0  0  0  0  0  0  0  0  0  0  0  0
    4.0598   -2.6898   -1.8967 H   0  0  0  0  0  0  0  0  0  0  0  0
    5.6147   -2.4538   -2.7043 H   0  0  0  0  0  0  0  0  0  0  0  0
    3.6311    1.4837   -3.3121 H   0  0  0  0  0  0  0  0  0  0  0  0
    2.0189    2.9562   -2.1571 H   0  0  0  0  0  0  0  0  0  0  0  0
   -1.3019    2.5334    2.1364 H   0  0  0  0  0  0  0  0  0  0  0  0
    0.8395    0.1178    3.9187 H   0  0  0  0  0  0  0  0  0  0  0  0
   -0.2774    1.4549    3.8374 H   0  0  0  0  0  0  0  0  0  0  0  0
   -0.7420   -1.3338    2.6014 H   0  0  0  0  0  0  0  0  0  0  0  0
   -1.4424   -0.7547    4.1226 H   0  0  0  0  0  0  0  0  0  0  0  0
   -2.6587   -1.6608    1.5671 H   0  0  0  0  0  0  0  0  0  0  0  0
   -4.8190   -0.9606    0.7249 H   0  0  0  0  0  0  0  0  0  0  0  0
   -4.3507    0.7292    0.9469 H   0  0  0  0  0  0  0  0  0  0  0  0
   -4.2338   -2.1186   -1.3428 H   0  0  0  0  0  0  0  0  0  0  0  0
   -3.0708   -2.0460   -3.5381 H   0  0  0  0  0  0  0  0  0  0  0  0
   -1.1500    1.4756   -2.5973 H   0  0  0  0  0  0  0  0  0  0  0  0
   -2.2364    1.5944   -0.3746 H   0  0  0  0  0  0  0  0  0  0  0  0
    1.8580   -0.8366    1.8210 H   0  0  0  0  0  0  0  0  0  0  0  0
    3.3419   -1.3365   -0.0803 H   0  0  0  0  0  0  0  0  0  0  0  0
  1  2  1  0
  2  3  1  0
  3  4  2  0
  4  5  1  0
  5  6  2  0
  6  7  1  0
  7  8  2  0
  8  9  1  0
  8 10  1  0
 10 11  1  0
 11 12  1  0
 12 13  1  0
 13 14  2  0
 13 15  1  0
 15 16  1  0
 16 17  1  0
 17 18  2  0
 18 19  1  0
 19 20  2  0
 20 21  1  0
 21 22  2  0
 10 23  2  0
 23 24  1  0
 24 25  2  0
 25  3  1  0
 24  6  1  0
 22 17  1  0
  1 26  1  0
  1 27  1  0
  1 28  1  0
  4 29  1  0
  5 30  1  0
  9 31  1  0
 11 32  1  0
 11 33  1  0
 12 34  1  0
 12 35  1  0
 15 36  1  0
 16 37  1  0
 16 38  1  0
 18 39  1  0
 19 40  1  0
 21 41  1  0
 22 42  1  0
 23 43  1  0
 25 44  1  0
M  END
$$$$
