
     RDKit          3D

 40 44  0  0  0  0  0  0  0  0999 V2000
   -3.4627   -1.9589    1.9735 C   0  0  0  0  0  0  0  0  0  0  0  0
   -3.1119   -0.9935    0.9402 N   0  0  0  0  0  0  0  0  0  0  0  0
   -1.8187   -1.0272    0.4223 C   0  0  0  0  0  0  0  0  0  0  0  0
   -0.9927   -1.8698    0.7745 O   0  0  0  0  0  0  0  0  0  0  0  0
   -1.4600   -0.0111   -0.6130 C   0  0  0  0  0  0  0  0  0  0  0  0
   -0.1210    0.0160   -1.0954 C   0  0  0  0  0  0  0  0  0  0  0  0
    0.9961   -0.0521   -0.3921 N   0  0  0  0  0  0  0  0  0  0  0  0
    2.0015    0.0526   -1.3231 C   0  0  0  0  0  0  0  0  0  0  0  0
    3.4127   -0.0026   -0.9577 C   0  0  0  0  0  0  0  0  0  0  0  0
    4.4227    0.1615   -1.9366 C   0  0  0  0  0  0  0  0  0  0  0  0
    5.7791    0.1114   -1.5930 C   0  0  0  0  0  0  0  0  0  0  0  0
    6.0961   -0.1035   -0.2704 C   0  0  0  0  0  0  0  0  0  0  0  0
    5.1249   -0.2653    0.6887 C   0  0  0  0  0  0  0  0  0  0  0  0
    3.7808   -0.2213    0.3805 C   0  0  0  0  0  0  0  0  0  0  0  0
    5.6492   -0.4658    1.9276 O   0  0  0  0  0  0  0  0  0  0  0  0
    7.0612   -0.4175    1.6369 C   0  0  0  0  0  0  0  0  0  0  0  0
    7.3522   -0.1820    0.2434 O   0  0  0  0  0  0  0  0  0  0  0  0
    1.5509    0.2305   -2.5717 N   0  0  0  0  0  0  0  0  0  0  0  0
    0.1731    0.1968   -2.4353 O   0  0  0  0  0  0  0  0  0  0  0  0
   -2.3836    0.8489   -1.0831 C   0  0  0  0  0  0  0  0  0  0  0  0
   -2.1544    1.8209   -2.0449 O   0  0  0  0  0  0  0  0  0  0  0  0
   -3.7571    0.8270   -0.5533 C   0  0  0  0  0  0  0  0  0  0  0  0
   -4.7336    1.7162   -1.0382 C   0  0  0  0  0  0  0  0  0  0  0  0
   -6.0315    1.7063   -0.5296 C   0  0  0  0  0  0  0  0  0  0  0  0
   -6.3699    0.8070    0.4722 C   0  0  0  0  0  0  0  0  0  0  0  0
   -5.4115   -0.0824    0.9631 C   0  0  0  0  0  0  0  0  0  0  0  0
   -4.0993   -0.0845    0.4585 C   0  0  0  0  0  0  0  0  0  0  0  0
   -2.6112   -2.5796    2.2659 H   0  0  0  0  0  0  0  0  0  0  0  0
   -3.8052   -1.4279    2.8674 H   0  0  0  0  0  0  0  0  0  0  0  0
   -4.2478   -2.6228    1.5980 H   0  0  0  0  0  0  0  0  0  0  0  0
    4.1546    0.3291   -2.9787 H   0  0  0  0  0  0  0  0  0  0  0  0
    6.5538    0.2362   -2.3411 H   0  0  0  0  0  0  0  0  0  0  0  0
    3.0367   -0.3572    1.1598 H   0  0  0  0  0  0  0  0  0  0  0  0
    7.5139    0.3855    2.2299 H   0  0  0  0  0  0  0  0  0  0  0  0
    7.5133   -1.3711    1.9333 H   0  0  0  0  0  0  0  0  0  0  0  0
   -1.2355    1.7920   -2.3644 H   0  0  0  0  0  0  0  0  0  0  0  0
   -4.4887    2.4313   -1.8213 H   0  0  0  0  0  0  0  0  0  0  0  0
   -6.7725    2.4013   -0.9162 H   0  0  0  0  0  0  0  0  0  0  0  0
   -7.3803    0.7943    0.8737 H   0  0  0  0  0  0  0  0  0  0  0  0
   -5.7238   -0.7687    1.7443 H   0  0  0  0  0  0  0  0  0  0  0  0
  1  2  1  0
  2  3  1  0
  3  4  2  0
  3  5  1  0
  5  6  1  0
  6  7  2  0
  7  8  1  0
  8  9  1  0
  9 10  2  0
 10 11  1  0
 11 12  2  0
 12 13  1  0
 13 14  2  0
 13 15  1  0
 15 16  1  0
 16 17  1  0
  8 18  2  0
 18 19  1  0
  5 20  2  0
 20 21  1  0
 20 22  1  0
 22 23  2  0
 23 24  1  0
 24 25  2  0
 25 26  1  0
 26 27  2  0
 27  2  1  0
 19  6  1  0
 27 22  1  0
 14  9  1  0
 17 12  1  0
  1 28  1  0
  1 29  1  0
  1 30  1  0
 10 31  1  0
 11 32  1  0
 14 33  1  0
 16 34  1  0
 16 35  1  0
 21 36  1  0
 23 37  1  0
 24 38  1  0
 25 39  1  0
 26 40  1  0
M  END
$$$$
