
     RDKit          3D

 56 59  0  0  0  0  0  0  0  0999 V2000
   -4.9280   -2.9998   -0.1761 C   0  0  0  0  0  0  0  0  0  0  0  0
   -4.3874   -2.0050    0.6830 O   0  0  0  0  0  0  0  0  0  0  0  0
   -2.9660   -2.0951    0.8449 C   0  0  1  0  0  0  0  0  0  0  0  0
   -2.2425   -1.5267   -0.3770 C   0  0  0  0  0  0  0  0  0  0  0  0
   -2.6674   -0.0847   -0.6663 C   0  0  0  0  0  0  0  0  0  0  0  0
   -2.8382    0.7594    0.6164 C   0  0  2  0  0  0  0  0  0  0  0  0
   -2.4899    2.1806    0.4438 N   0  0  0  0  0  0  0  0  0  0  0  0
   -3.4132    3.1661    0.8033 C   0  0  0  0  0  0  0  0  0  0  0  0
   -4.5478    2.9148    1.2172 O   0  0  0  0  0  0  0  0  0  0  0  0
   -2.9220    4.6212    0.7716 C   0  0  0  0  0  0  0  0  0  0  0  0
   -1.9285    4.8726   -0.2602 N   0  0  0  0  0  0  0  0  0  0  0  0
   -0.9195    3.9123   -0.2738 C   0  0  0  0  0  0  0  0  0  0  0  0
    0.3017    4.3385   -0.6479 N   0  0  0  0  0  0  0  0  0  0  0  0
    1.2525    3.3779   -0.7510 C   0  0  0  0  0  0  0  0  0  0  0  0
    1.0189    2.0287   -0.4957 C   0  0  0  0  0  0  0  0  0  0  0  0
    2.0424    0.9810   -0.6286 C   0  0  0  0  0  0  0  0  0  0  0  0
    3.1391    1.0790   -1.4938 C   0  0  0  0  0  0  0  0  0  0  0  0
    4.0784    0.0471   -1.5734 C   0  0  0  0  0  0  0  0  0  0  0  0
    3.9168   -1.0932   -0.7875 C   0  0  0  0  0  0  0  0  0  0  0  0
    4.9433   -2.2256   -0.8519 C   0  0  0  0  0  0  0  0  0  0  0  0
    4.4037   -3.5446   -0.2832 C   0  0  0  0  0  0  0  0  0  0  0  0
    6.2203   -1.8254   -0.1085 C   0  0  0  0  0  0  0  0  0  0  0  0
    5.2975   -2.4778   -2.2219 O   0  0  0  0  0  0  0  0  0  0  0  0
    2.8661   -1.2195    0.0561 N   0  0  0  0  0  0  0  0  0  0  0  0
    1.9689   -0.2003    0.1093 C   0  0  0  0  0  0  0  0  0  0  0  0
   -0.2109    1.6159   -0.0929 N   0  0  0  0  0  0  0  0  0  0  0  0
   -1.1816    2.5568    0.0175 C   0  0  0  0  0  0  0  0  0  0  0  0
   -2.1626    0.1384    1.8500 C   0  0  0  0  0  0  0  0  0  0  0  0
   -2.6071   -1.3055    2.1131 C   0  0  0  0  0  0  0  0  0  0  0  0
   -6.0164   -2.8950   -0.1749 H   0  0  0  0  0  0  0  0  0  0  0  0
   -4.6767   -4.0013    0.1858 H   0  0  0  0  0  0  0  0  0  0  0  0
   -4.5742   -2.8676   -1.2017 H   0  0  0  0  0  0  0  0  0  0  0  0
   -2.6917   -3.1454    1.0022 H   0  0  0  0  0  0  0  0  0  0  0  0
   -1.1589   -1.5658   -0.2100 H   0  0  0  0  0  0  0  0  0  0  0  0
   -2.4407   -2.1341   -1.2667 H   0  0  0  0  0  0  0  0  0  0  0  0
   -1.9582    0.3519   -1.3764 H   0  0  0  0  0  0  0  0  0  0  0  0
   -3.6266   -0.0888   -1.2017 H   0  0  0  0  0  0  0  0  0  0  0  0
   -3.9138    0.7240    0.8363 H   0  0  0  0  0  0  0  0  0  0  0  0
   -2.5199    4.8684    1.7613 H   0  0  0  0  0  0  0  0  0  0  0  0
   -3.7862    5.2664    0.5816 H   0  0  0  0  0  0  0  0  0  0  0  0
   -1.5098    5.7967   -0.2879 H   0  0  0  0  0  0  0  0  0  0  0  0
    2.2290    3.7468   -1.0465 H   0  0  0  0  0  0  0  0  0  0  0  0
    3.2783    1.9458   -2.1352 H   0  0  0  0  0  0  0  0  0  0  0  0
    4.9263    0.1340   -2.2482 H   0  0  0  0  0  0  0  0  0  0  0  0
    3.4982   -3.8609   -0.8148 H   0  0  0  0  0  0  0  0  0  0  0  0
    5.1349   -4.3512   -0.4122 H   0  0  0  0  0  0  0  0  0  0  0  0
    4.1651   -3.4659    0.7830 H   0  0  0  0  0  0  0  0  0  0  0  0
    6.6815   -0.9373   -0.5563 H   0  0  0  0  0  0  0  0  0  0  0  0
    6.9714   -2.6217   -0.1674 H   0  0  0  0  0  0  0  0  0  0  0  0
    6.0238   -1.6111    0.9476 H   0  0  0  0  0  0  0  0  0  0  0  0
    4.4661   -2.6797   -2.6873 H   0  0  0  0  0  0  0  0  0  0  0  0
    1.1515   -0.3728    0.8065 H   0  0  0  0  0  0  0  0  0  0  0  0
   -2.3649    0.7465    2.7407 H   0  0  0  0  0  0  0  0  0  0  0  0
   -1.0739    0.1424    1.7336 H   0  0  0  0  0  0  0  0  0  0  0  0
   -3.4616   -1.2965    2.8012 H   0  0  0  0  0  0  0  0  0  0  0  0
   -1.7890   -1.8148    2.6375 H   0  0  0  0  0  0  0  0  0  0  0  0
  1  2  1  0
  2  3  1  0
  3  4  1  0
  4  5  1  0
  5  6  1  0
  6  7  1  0
  7  8  1  0
  8  9  2  0
  8 10  1  0
 10 11  1  0
 11 12  1  0
 12 13  2  0
 13 14  1  0
 14 15  2  0
 15 16  1  0
 16 17  2  0
 17 18  1  0
 18 19  2  0
 19 20  1  0
 20 21  1  0
 20 22  1  0
 20 23  1  0
 19 24  1  0
 24 25  2  0
 15 26  1  0
 26 27  2  0
  6 28  1  0
 28 29  1  0
 29  3  1  0
 27  7  1  0
 27 12  1  0
 25 16  1  0
  1 30  1  0
  1 31  1  0
  1 32  1  0
  3 33  1  1
  4 34  1  0
  4 35  1  0
  5 36  1  0
  5 37  1  0
  6 38  1  1
 10 39  1  0
 10 40  1  0
 11 41  1  0
 14 42  1  0
 17 43  1  0
 18 44  1  0
 21 45  1  0
 21 46  1  0
 21 47  1  0
 22 48  1  0
 22 49  1  0
 22 50  1  0
 23 51  1  0
 25 52  1  0
 28 53  1  0
 28 54  1  0
 29 55  1  0
 29 56  1  0
M  END
$$$$
