
     RDKit          3D

 43 45  0  0  0  0  0  0  0  0999 V2000
    1.2864    3.3834   -1.1981 C   0  0  0  0  0  0  0  0  0  0  0  0
    0.1896    2.4282   -0.7534 C   0  0  0  0  0  0  0  0  0  0  0  0
    0.7965    1.2205   -0.1436 N   0  0  0  0  0  0  0  0  0  0  0  0
    1.2679    0.2082   -1.1382 C   0  0  0  0  0  0  0  0  0  0  0  0
    2.6478   -0.3457   -0.8141 C   0  0  0  0  0  0  0  0  0  0  0  0
    3.0730   -1.3698   -1.3449 O   0  0  0  0  0  0  0  0  0  0  0  0
    3.3828    0.4439    0.0491 N   0  0  0  0  0  0  0  0  0  0  0  0
    4.6379    0.0289    0.5832 C   0  0  0  0  0  0  0  0  0  0  0  0
    5.2621    0.7672    1.7353 C   0  0  0  0  0  0  0  0  0  0  0  0
    4.7086   -0.6122    1.9411 C   0  0  0  0  0  0  0  0  0  0  0  0
    0.0424    0.5934    1.2540 S   0  0  0  0  0  6  0  0  0  0  0  0
    0.8117   -0.5516    1.6877 O   0  0  0  0  0  0  0  0  0  0  0  0
   -0.2047    1.7027    2.1500 O   0  0  0  0  0  0  0  0  0  0  0  0
   -1.5312    0.0085    0.6671 C   0  0  0  0  0  0  0  0  0  0  0  0
   -2.6213    0.8794    0.6302 C   0  0  0  0  0  0  0  0  0  0  0  0
   -3.8603    0.4121    0.1892 C   0  0  0  0  0  0  0  0  0  0  0  0
   -4.0253   -0.9273   -0.2007 C   0  0  0  0  0  0  0  0  0  0  0  0
   -5.2653   -1.4093   -0.6486 C   0  0  0  0  0  0  0  0  0  0  0  0
   -5.4178   -2.7450   -1.0242 C   0  0  0  0  0  0  0  0  0  0  0  0
   -4.3345   -3.6160   -0.9547 C   0  0  0  0  0  0  0  0  0  0  0  0
   -3.0947   -3.1541   -0.5107 C   0  0  0  0  0  0  0  0  0  0  0  0
   -2.9233   -1.8133   -0.1325 C   0  0  0  0  0  0  0  0  0  0  0  0
   -1.6819   -1.3365    0.3142 C   0  0  0  0  0  0  0  0  0  0  0  0
    1.9292    2.9342   -1.9615 H   0  0  0  0  0  0  0  0  0  0  0  0
    0.8483    4.2939   -1.6185 H   0  0  0  0  0  0  0  0  0  0  0  0
    1.9217    3.6678   -0.3525 H   0  0  0  0  0  0  0  0  0  0  0  0
   -0.4460    2.1486   -1.6008 H   0  0  0  0  0  0  0  0  0  0  0  0
   -0.4411    2.9584   -0.0337 H   0  0  0  0  0  0  0  0  0  0  0  0
    1.3343    0.6545   -2.1367 H   0  0  0  0  0  0  0  0  0  0  0  0
    0.5638   -0.6243   -1.2098 H   0  0  0  0  0  0  0  0  0  0  0  0
    2.8538    1.1600    0.5394 H   0  0  0  0  0  0  0  0  0  0  0  0
    5.3186   -0.3543   -0.1746 H   0  0  0  0  0  0  0  0  0  0  0  0
    4.7247    1.5967    2.1788 H   0  0  0  0  0  0  0  0  0  0  0  0
    6.3393    0.8859    1.7340 H   0  0  0  0  0  0  0  0  0  0  0  0
    3.7886   -0.7190    2.5051 H   0  0  0  0  0  0  0  0  0  0  0  0
    5.4049   -1.4320    2.0723 H   0  0  0  0  0  0  0  0  0  0  0  0
   -2.5219    1.9140    0.9506 H   0  0  0  0  0  0  0  0  0  0  0  0
   -4.7038    1.0995    0.1612 H   0  0  0  0  0  0  0  0  0  0  0  0
   -6.1265   -0.7471   -0.7059 H   0  0  0  0  0  0  0  0  0  0  0  0
   -6.3841   -3.1056   -1.3677 H   0  0  0  0  0  0  0  0  0  0  0  0
   -4.4538   -4.6571   -1.2440 H   0  0  0  0  0  0  0  0  0  0  0  0
   -2.2618   -3.8529   -0.4614 H   0  0  0  0  0  0  0  0  0  0  0  0
   -0.8348   -2.0169    0.3886 H   0  0  0  0  0  0  0  0  0  0  0  0
  1  2  1  0
  2  3  1  0
  3  4  1  0
  4  5  1  0
  5  6  2  0
  5  7  1  0
  7  8  1  0
  8  9  1  0
  9 10  1  0
  3 11  1  0
 11 12  2  0
 11 13  2  0
 11 14  1  0
 14 15  2  0
 15 16  1  0
 16 17  2  0
 17 18  1  0
 18 19  2  0
 19 20  1  0
 20 21  2  0
 21 22  1  0
 22 23  2  0
 10  8  1  0
 23 14  1  0
 22 17  1  0
  1 24  1  0
  1 25  1  0
  1 26  1  0
  2 27  1  0
  2 28  1  0
  4 29  1  0
  4 30  1  0
  7 31  1  0
  8 32  1  0
  9 33  1  0
  9 34  1  0
 10 35  1  0
 10 36  1  0
 15 37  1  0
 16 38  1  0
 18 39  1  0
 19 40  1  0
 20 41  1  0
 21 42  1  0
 23 43  1  0
M  END
$$$$
