
     RDKit          3D

 51 53  0  0  0  0  0  0  0  0999 V2000
    3.8301   -3.1303   -2.1837 C   0  0  0  0  0  0  0  0  0  0  0  0
    2.7298   -2.4808   -1.3640 C   0  0  0  0  0  0  0  0  0  0  0  0
    3.1978   -1.2031   -0.9368 O   0  0  0  0  0  0  0  0  0  0  0  0
    2.3404   -0.4117   -0.2190 C   0  0  0  0  0  0  0  0  0  0  0  0
    1.0625   -0.7937    0.2012 C   0  0  0  0  0  0  0  0  0  0  0  0
    0.2503    0.1017    0.9124 C   0  0  0  0  0  0  0  0  0  0  0  0
   -1.0882   -0.3043    1.3335 C   0  0  0  0  0  0  0  0  0  0  0  0
   -2.2137   -0.1555    0.6232 C   0  0  0  0  0  0  0  0  0  0  0  0
   -3.5282   -0.6118    1.1424 C   0  0  0  0  0  0  0  0  0  0  0  0
   -3.7025   -1.1436    2.2241 O   0  0  0  0  0  0  0  0  0  0  0  0
   -4.4067   -0.2753    0.1023 N   0  0  0  0  0  0  0  0  0  0  0  0
   -5.8087   -0.4820    0.0511 C   0  0  0  0  0  0  0  0  0  0  0  0
   -6.5409   -0.0801   -1.0788 C   0  0  0  0  0  0  0  0  0  0  0  0
   -7.9239   -0.2736   -1.1525 C   0  0  0  0  0  0  0  0  0  0  0  0
   -8.5997   -0.8734   -0.0949 C   0  0  0  0  0  0  0  0  0  0  0  0
   -7.8924   -1.2781    1.0335 C   0  0  0  0  0  0  0  0  0  0  0  0
   -6.5080   -1.0837    1.1057 C   0  0  0  0  0  0  0  0  0  0  0  0
   -3.7858    0.3325   -0.9895 N   0  0  0  0  0  0  0  0  0  0  0  0
   -2.5147    0.4096   -0.7007 C   0  0  0  0  0  0  0  0  0  0  0  0
   -1.5104    1.0063   -1.6282 C   0  0  0  0  0  0  0  0  0  0  0  0
    0.7196    1.3820    1.2172 C   0  0  0  0  0  0  0  0  0  0  0  0
    1.9940    1.7700    0.8048 C   0  0  0  0  0  0  0  0  0  0  0  0
    2.5294    3.3664    1.1864 Cl  0  0  0  0  0  0  0  0  0  0  0  0
    2.8095    0.8735    0.1037 C   0  0  0  0  0  0  0  0  0  0  0  0
    4.0436    1.2864   -0.3410 O   0  0  0  0  0  0  0  0  0  0  0  0
    5.0730    0.8305    0.5375 C   0  0  0  0  0  0  0  0  0  0  0  0
    6.4295    1.3932    0.1463 C   0  0  0  0  0  0  0  0  0  0  0  0
    7.4827    0.7778    0.2731 O   0  0  0  0  0  0  0  0  0  0  0  0
    6.3306    2.6783   -0.2956 O   0  0  0  0  0  0  0  0  0  0  0  0
    7.5761    3.2695   -0.6637 C   0  0  0  0  0  0  0  0  0  0  0  0
    3.5216   -4.1180   -2.5378 H   0  0  0  0  0  0  0  0  0  0  0  0
    4.0851   -2.5081   -3.0480 H   0  0  0  0  0  0  0  0  0  0  0  0
    4.7426   -3.2371   -1.5877 H   0  0  0  0  0  0  0  0  0  0  0  0
    1.8354   -2.3706   -1.9880 H   0  0  0  0  0  0  0  0  0  0  0  0
    2.5097   -3.1128   -0.4961 H   0  0  0  0  0  0  0  0  0  0  0  0
    0.6728   -1.7837   -0.0179 H   0  0  0  0  0  0  0  0  0  0  0  0
   -1.1328   -0.7680    2.3191 H   0  0  0  0  0  0  0  0  0  0  0  0
   -6.0402    0.3918   -1.9210 H   0  0  0  0  0  0  0  0  0  0  0  0
   -8.4683    0.0458   -2.0372 H   0  0  0  0  0  0  0  0  0  0  0  0
   -9.6744   -1.0248   -0.1490 H   0  0  0  0  0  0  0  0  0  0  0  0
   -8.4149   -1.7466    1.8638 H   0  0  0  0  0  0  0  0  0  0  0  0
   -6.0015   -1.4158    2.0070 H   0  0  0  0  0  0  0  0  0  0  0  0
   -0.7663    0.2571   -1.9076 H   0  0  0  0  0  0  0  0  0  0  0  0
   -2.0069    1.3539   -2.5391 H   0  0  0  0  0  0  0  0  0  0  0  0
   -1.0244    1.8623   -1.1548 H   0  0  0  0  0  0  0  0  0  0  0  0
    0.0943    2.0804    1.7694 H   0  0  0  0  0  0  0  0  0  0  0  0
    5.1512   -0.2616    0.4885 H   0  0  0  0  0  0  0  0  0  0  0  0
    4.8772    1.1401    1.5714 H   0  0  0  0  0  0  0  0  0  0  0  0
    8.0502    2.6989   -1.4683 H   0  0  0  0  0  0  0  0  0  0  0  0
    8.2379    3.3393    0.2055 H   0  0  0  0  0  0  0  0  0  0  0  0
    7.3765    4.2808   -1.0286 H   0  0  0  0  0  0  0  0  0  0  0  0
  1  2  1  0
  2  3  1  0
  3  4  1  0
  4  5  2  0
  5  6  1  0
  6  7  1  0
  7  8  2  0
  8  9  1  0
  9 10  2  0
  9 11  1  0
 11 12  1  0
 12 13  2  0
 13 14  1  0
 14 15  2  0
 15 16  1  0
 16 17  2  0
 11 18  1  0
 18 19  2  0
 19 20  1  0
  6 21  2  0
 21 22  1  0
 22 23  1  0
 22 24  2  0
 24 25  1  0
 25 26  1  0
 26 27  1  0
 27 28  2  0
 27 29  1  0
 29 30  1  0
 24  4  1  0
 19  8  1  0
 17 12  1  0
  1 31  1  0
  1 32  1  0
  1 33  1  0
  2 34  1  0
  2 35  1  0
  5 36  1  0
  7 37  1  0
 13 38  1  0
 14 39  1  0
 15 40  1  0
 16 41  1  0
 17 42  1  0
 20 43  1  0
 20 44  1  0
 20 45  1  0
 21 46  1  0
 26 47  1  0
 26 48  1  0
 30 49  1  0
 30 50  1  0
 30 51  1  0
M  END
$$$$
