
     RDKit          3D

 35 37  0  0  0  0  0  0  0  0999 V2000
   -4.5996    1.8996   -1.0269 C   0  0  0  0  0  0  0  0  0  0  0  0
   -3.6789    0.8522   -0.4710 C   0  0  0  0  0  0  0  0  0  0  0  0
   -4.1664   -0.1357    0.3850 C   0  0  0  0  0  0  0  0  0  0  0  0
   -3.3002   -1.0854    0.9275 C   0  0  0  0  0  0  0  0  0  0  0  0
   -3.8254   -2.1731    1.8189 C   0  0  0  0  0  0  0  0  0  0  0  0
   -1.9356   -1.0460    0.5908 C   0  0  0  0  0  0  0  0  0  0  0  0
   -1.4037   -0.0584   -0.2562 C   0  0  0  0  0  0  0  0  0  0  0  0
   -0.0077   -0.0191   -0.5797 N   0  0  0  0  0  0  0  0  0  0  0  0
    0.6317    1.0487   -1.1744 C   0  0  0  0  0  0  0  0  0  0  0  0
    0.2028    2.1626   -1.4451 O   0  0  0  0  0  0  0  0  0  0  0  0
    2.0394    0.6572   -1.5041 C   0  0  0  0  0  0  0  0  0  0  0  0
    2.2800   -0.5653   -0.6507 C   0  0  0  0  0  0  0  0  0  0  0  0
    3.1256   -0.1916    0.9286 S   0  0  0  0  0  0  0  0  0  0  0  0
    4.7353    0.0150    0.3660 C   0  0  0  0  0  0  0  0  0  0  0  0
    5.1736    0.0160   -0.8683 N   0  0  0  0  0  0  0  0  0  0  0  0
    6.5353    0.2256   -0.8172 N   0  0  0  0  0  0  0  0  0  0  0  0
    6.8740    0.3437    0.4475 C   0  0  0  0  0  0  0  0  0  0  0  0
    5.7659    0.2177    1.2290 N   0  0  0  0  0  0  0  0  0  0  0  0
    0.8850   -1.0465   -0.3397 C   0  0  0  0  0  0  0  0  0  0  0  0
    0.6646   -2.1853    0.0564 O   0  0  0  0  0  0  0  0  0  0  0  0
   -2.3054    0.8898   -0.7693 C   0  0  0  0  0  0  0  0  0  0  0  0
   -4.2917    2.1924   -2.0362 H   0  0  0  0  0  0  0  0  0  0  0  0
   -4.5925    2.7836   -0.3819 H   0  0  0  0  0  0  0  0  0  0  0  0
   -5.6256    1.5234   -1.0979 H   0  0  0  0  0  0  0  0  0  0  0  0
   -5.2262   -0.1656    0.6306 H   0  0  0  0  0  0  0  0  0  0  0  0
   -3.0896   -2.4370    2.5858 H   0  0  0  0  0  0  0  0  0  0  0  0
   -4.7336   -1.8508    2.3390 H   0  0  0  0  0  0  0  0  0  0  0  0
   -4.0562   -3.0632    1.2258 H   0  0  0  0  0  0  0  0  0  0  0  0
   -1.2998   -1.8044    1.0394 H   0  0  0  0  0  0  0  0  0  0  0  0
    2.0747    0.4041   -2.5698 H   0  0  0  0  0  0  0  0  0  0  0  0
    2.7283    1.4846   -1.3132 H   0  0  0  0  0  0  0  0  0  0  0  0
    2.8187   -1.3416   -1.2039 H   0  0  0  0  0  0  0  0  0  0  0  0
    7.8685    0.5144    0.8341 H   0  0  0  0  0  0  0  0  0  0  0  0
    5.7076    0.2614    2.2349 H   0  0  0  0  0  0  0  0  0  0  0  0
   -1.9728    1.6767   -1.4409 H   0  0  0  0  0  0  0  0  0  0  0  0
  1  2  1  0
  2  3  2  0
  3  4  1  0
  4  5  1  0
  4  6  2  0
  6  7  1  0
  7  8  1  0
  8  9  1  0
  9 10  2  0
  9 11  1  0
 11 12  1  0
 12 13  1  0
 13 14  1  0
 14 15  2  0
 15 16  1  0
 16 17  2  0
 17 18  1  0
 12 19  1  0
 19 20  2  0
  7 21  2  0
 21  2  1  0
 19  8  1  0
 18 14  1  0
  1 22  1  0
  1 23  1  0
  1 24  1  0
  3 25  1  0
  5 26  1  0
  5 27  1  0
  5 28  1  0
  6 29  1  0
 11 30  1  0
 11 31  1  0
 12 32  1  0
 17 33  1  0
 18 34  1  0
 21 35  1  0
M  END
$$$$
