
     RDKit          3D

 48 50  0  0  0  0  0  0  0  0999 V2000
   -1.8897   -2.9964    1.9722 C   0  0  0  0  0  0  0  0  0  0  0  0
   -0.9329   -2.7327    0.8054 C   0  0  0  0  0  0  0  0  0  0  0  0
   -0.9917   -3.8609   -0.2253 C   0  0  0  0  0  0  0  0  0  0  0  0
   -1.1289   -1.3659    0.1787 C   0  0  0  0  0  0  0  0  0  0  0  0
   -0.1423   -0.5141   -0.1642 C   0  0  0  0  0  0  0  0  0  0  0  0
    1.2107   -0.7298   -0.1130 N   0  0  0  0  0  0  0  0  0  0  0  0
    2.1487    0.2665    0.1185 C   0  0  0  0  0  0  0  0  0  0  0  0
    1.8778    1.3692    0.5707 O   0  0  0  0  0  0  0  0  0  0  0  0
    3.4179   -0.2065   -0.1739 N   0  0  0  0  0  0  0  0  0  0  0  0
    4.6468    0.4453    0.0507 C   0  0  0  0  0  0  0  0  0  0  0  0
    5.7938   -0.1392   -0.5041 C   0  0  0  0  0  0  0  0  0  0  0  0
    7.0522    0.4409   -0.3155 C   0  0  0  0  0  0  0  0  0  0  0  0
    7.1696    1.6080    0.4337 C   0  0  0  0  0  0  0  0  0  0  0  0
    8.7165    2.3221    0.6687 Cl  0  0  0  0  0  0  0  0  0  0  0  0
    6.0401    2.1956    0.9952 C   0  0  0  0  0  0  0  0  0  0  0  0
    4.7815    1.6132    0.8056 C   0  0  0  0  0  0  0  0  0  0  0  0
   -0.8159    0.7209   -0.6910 C   0  0  0  0  0  0  0  0  0  0  0  0
   -0.2469    1.6541   -1.2328 O   0  0  0  0  0  0  0  0  0  0  0  0
   -2.1841    0.5274   -0.4586 N   0  0  0  0  0  0  0  0  0  0  0  0
   -3.1659    1.5390   -0.2928 C   0  0  0  0  0  0  0  0  0  0  0  0
   -4.3522    1.2867    0.4156 C   0  0  0  0  0  0  0  0  0  0  0  0
   -5.3218    2.2807    0.5844 C   0  0  0  0  0  0  0  0  0  0  0  0
   -5.1184    3.5491    0.0510 C   0  0  0  0  0  0  0  0  0  0  0  0
   -3.9442    3.8233   -0.6434 C   0  0  0  0  0  0  0  0  0  0  0  0
   -2.9753    2.8273   -0.8099 C   0  0  0  0  0  0  0  0  0  0  0  0
   -2.4105   -0.8175   -0.0283 N   0  0  0  0  0  0  0  0  0  0  0  0
   -3.3405   -1.5379   -0.9204 C   0  0  0  0  0  0  0  0  0  0  0  0
   -1.6235   -3.9298    2.4804 H   0  0  0  0  0  0  0  0  0  0  0  0
   -1.8378   -2.1897    2.7118 H   0  0  0  0  0  0  0  0  0  0  0  0
   -2.9292   -3.0881    1.6430 H   0  0  0  0  0  0  0  0  0  0  0  0
    0.0731   -2.7651    1.2441 H   0  0  0  0  0  0  0  0  0  0  0  0
   -0.6959   -4.8111    0.2330 H   0  0  0  0  0  0  0  0  0  0  0  0
   -0.3077   -3.6691   -1.0593 H   0  0  0  0  0  0  0  0  0  0  0  0
   -1.9962   -3.9965   -0.6358 H   0  0  0  0  0  0  0  0  0  0  0  0
    1.5217   -1.6502    0.1554 H   0  0  0  0  0  0  0  0  0  0  0  0
    3.4408   -1.0118   -0.7815 H   0  0  0  0  0  0  0  0  0  0  0  0
    5.7261   -1.0498   -1.0935 H   0  0  0  0  0  0  0  0  0  0  0  0
    7.9319   -0.0212   -0.7552 H   0  0  0  0  0  0  0  0  0  0  0  0
    6.1238    3.1067    1.5817 H   0  0  0  0  0  0  0  0  0  0  0  0
    3.9241    2.0981    1.2639 H   0  0  0  0  0  0  0  0  0  0  0  0
   -4.5264    0.3188    0.8771 H   0  0  0  0  0  0  0  0  0  0  0  0
   -6.2286    2.0643    1.1430 H   0  0  0  0  0  0  0  0  0  0  0  0
   -5.8671    4.3254    0.1838 H   0  0  0  0  0  0  0  0  0  0  0  0
   -3.7730    4.8142   -1.0565 H   0  0  0  0  0  0  0  0  0  0  0  0
   -2.0762    3.0850   -1.3636 H   0  0  0  0  0  0  0  0  0  0  0  0
   -2.8504   -1.8003   -1.8652 H   0  0  0  0  0  0  0  0  0  0  0  0
   -4.2276   -0.9444   -1.1602 H   0  0  0  0  0  0  0  0  0  0  0  0
   -3.6965   -2.4536   -0.4407 H   0  0  0  0  0  0  0  0  0  0  0  0
  1  2  1  0
  2  3  1  0
  2  4  1  0
  4  5  2  0
  5  6  1  0
  6  7  1  0
  7  8  2  0
  7  9  1  0
  9 10  1  0
 10 11  2  0
 11 12  1  0
 12 13  2  0
 13 14  1  0
 13 15  1  0
 15 16  2  0
  5 17  1  0
 17 18  2  0
 17 19  1  0
 19 20  1  0
 20 21  2  0
 21 22  1  0
 22 23  2  0
 23 24  1  0
 24 25  2  0
 19 26  1  0
 26 27  1  0
 26  4  1  0
 16 10  1  0
 25 20  1  0
  1 28  1  0
  1 29  1  0
  1 30  1  0
  2 31  1  0
  3 32  1  0
  3 33  1  0
  3 34  1  0
  6 35  1  0
  9 36  1  0
 11 37  1  0
 12 38  1  0
 15 39  1  0
 16 40  1  0
 21 41  1  0
 22 42  1  0
 23 43  1  0
 24 44  1  0
 25 45  1  0
 27 46  1  0
 27 47  1  0
 27 48  1  0
M  END
$$$$
