
     RDKit          3D

134136  0  0  0  0  0  0  0  0999 V2000
    0.2566   -2.6622   -5.9469 C   0  0  0  0  0  0  0  0  0  0  0  0
    0.0081   -3.0733   -4.5058 C   0  0  0  0  0  0  0  0  0  0  0  0
    0.7214   -2.2018   -3.4530 C   0  0  1  0  0  0  0  0  0  0  0  0
    0.2806   -2.6848   -2.1556 O   0  0  0  0  0  0  0  0  0  0  0  0
   -0.6790   -1.9559   -1.5056 C   0  0  0  0  0  0  0  0  0  0  0  0
   -1.3587   -1.0841   -2.0293 O   0  0  0  0  0  0  0  0  0  0  0  0
   -0.7581   -2.3995   -0.0478 C   0  0  2  0  0  0  0  0  0  0  0  0
   -1.3840   -3.8048   -0.0461 C   0  0  0  0  0  0  0  0  0  0  0  0
   -1.5009   -1.3628    0.8545 C   0  0  1  0  0  0  0  0  0  0  0  0
   -2.3632   -2.0882    1.7534 O   0  0  0  0  0  0  0  0  0  0  0  0
   -3.7607   -1.9675    1.4618 C   0  0  1  0  0  0  0  0  0  0  0  0
   -4.4404   -3.1298    2.1780 C   0  0  0  0  0  0  0  0  0  0  0  0
   -5.9716   -3.0599    2.1371 C   0  0  1  0  0  0  0  0  0  0  0  0
   -6.5281   -3.6610    0.8340 C   0  0  0  0  0  0  0  0  0  0  0  0
   -6.5201   -3.7380    3.2959 O   0  0  0  0  0  0  0  0  0  0  0  0
   -6.3367   -5.1472    3.3556 C   0  0  0  0  0  0  0  0  0  0  0  0
   -6.4478   -1.5794    2.2484 C   0  0  1  0  0  0  0  0  0  0  0  0
   -7.6253   -1.4852    3.0521 O   0  0  0  0  0  0  0  0  0  0  0  0
   -5.3185   -0.6938    2.7914 C   0  0  2  0  0  0  0  0  0  0  0  0
   -5.7559    0.7567    2.9796 C   0  0  0  0  0  0  0  0  0  0  0  0
   -4.2374   -0.6841    1.8578 O   0  0  0  0  0  0  0  0  0  0  0  0
   -0.5277   -0.5048    1.7492 C   0  0  2  0  0  0  0  0  0  0  0  0
   -1.3465    0.2150    2.8489 C   0  0  0  0  0  0  0  0  0  0  0  0
    0.3896    0.5032    0.9590 C   0  0  1  0  0  0  0  0  0  0  0  0
   -0.3015    1.7679    0.8576 O   0  0  0  0  0  0  0  0  0  0  0  0
   -1.0556    1.9968   -0.3408 C   0  0  2  0  0  0  0  0  0  0  0  0
   -0.3580    2.9357   -1.1491 O   0  0  0  0  0  0  0  0  0  0  0  0
   -0.9803    3.1501   -2.4159 C   0  0  2  0  0  0  0  0  0  0  0  0
   -0.3469    4.3956   -3.0274 C   0  0  0  0  0  0  0  0  0  0  0  0
   -2.5073    3.2436   -2.3299 C   0  0  0  0  0  0  0  0  0  0  0  0
   -3.0067    3.6282   -0.9203 C   0  0  2  0  0  0  0  0  0  0  0  0
   -2.6970    5.0386   -0.5690 N   0  0  0  0  0  0  0  0  0  0  0  0
   -3.0985    5.3730    0.8034 C   0  0  0  0  0  0  0  0  0  0  0  0
   -3.3395    5.9885   -1.4848 C   0  0  0  0  0  0  0  0  0  0  0  0
   -2.4617    2.5296    0.0446 C   0  0  1  0  0  0  0  0  0  0  0  0
   -3.3842    1.4161   -0.0173 O   0  0  0  0  0  0  0  0  0  0  0  0
    1.7962    0.7865    1.6631 C   0  0  2  0  0  0  0  0  0  0  0  0
    2.7003   -0.4448    1.8102 C   0  0  0  0  0  0  0  0  0  0  0  0
    1.5947    1.2416    3.0253 O   0  0  0  0  0  0  0  0  0  0  0  0
    2.5948    1.9456    1.0040 C   0  0  0  0  0  0  0  0  0  0  0  0
    2.8035    1.9579   -0.5258 C   0  0  1  0  0  0  0  0  0  0  0  0
    3.3959    3.3103   -0.9516 C   0  0  0  0  0  0  0  0  0  0  0  0
    3.6301    0.8516   -1.2228 C   0  0  0  0  0  0  0  0  0  0  0  0
    4.8295    0.4671   -0.8787 N   0  0  0  0  0  0  0  0  0  0  0  0
    5.3008    1.1537    0.2456 O   0  0  0  0  0  0  0  0  0  0  0  0
    6.6565    0.7928    0.4878 C   0  0  0  0  0  0  0  0  0  0  0  0
    7.1432    1.4743    1.6421 O   0  0  0  0  0  0  0  0  0  0  0  0
    8.4320    1.0232    2.0416 C   0  0  0  0  0  0  0  0  0  0  0  0
    8.3309   -0.1540    3.0111 C   0  0  0  0  0  0  0  0  0  0  0  0
    9.6148   -0.6374    3.4060 O   0  0  0  0  0  0  0  0  0  0  0  0
   10.2055    0.1371    4.4404 C   0  0  0  0  0  0  0  0  0  0  0  0
    3.0751    0.1832   -2.5218 C   0  0  2  0  0  0  0  0  0  0  0  0
    1.8490    0.8686   -3.1134 C   0  0  0  0  0  0  0  0  0  0  0  0
    2.9379   -1.3475   -2.3097 C   0  0  1  0  0  0  0  0  0  0  0  0
    2.2762   -1.5923   -1.0742 O   0  0  0  0  0  0  0  0  0  0  0  0
    2.2988   -2.2038   -3.4705 C   0  0  1  0  0  0  0  0  0  0  0  0
    2.8090   -3.6556   -3.3415 C   0  0  0  0  0  0  0  0  0  0  0  0
    2.7896   -1.7116   -4.7239 O   0  0  0  0  0  0  0  0  0  0  0  0
   -0.4446   -3.1846   -6.6098 H   0  0  0  0  0  0  0  0  0  0  0  0
    0.1047   -1.5863   -6.0859 H   0  0  0  0  0  0  0  0  0  0  0  0
    1.2663   -2.9260   -6.2759 H   0  0  0  0  0  0  0  0  0  0  0  0
   -1.0732   -3.0133   -4.3165 H   0  0  0  0  0  0  0  0  0  0  0  0
    0.2561   -4.1341   -4.3704 H   0  0  0  0  0  0  0  0  0  0  0  0
    0.3713   -1.1821   -3.6151 H   0  0  0  0  0  0  0  0  0  0  0  0
    0.2653   -2.4972    0.3231 H   0  0  0  0  0  0  0  0  0  0  0  0
   -0.7901   -4.4967   -0.6554 H   0  0  0  0  0  0  0  0  0  0  0  0
   -2.3925   -3.7916   -0.4672 H   0  0  0  0  0  0  0  0  0  0  0  0
   -1.4207   -4.2242    0.9633 H   0  0  0  0  0  0  0  0  0  0  0  0
   -2.0993   -0.6808    0.2486 H   0  0  0  0  0  0  0  0  0  0  0  0
   -3.9117   -2.0782    0.3830 H   0  0  0  0  0  0  0  0  0  0  0  0
   -4.0761   -4.0822    1.7717 H   0  0  0  0  0  0  0  0  0  0  0  0
   -4.1016   -3.1483    3.2271 H   0  0  0  0  0  0  0  0  0  0  0  0
   -6.2389   -3.0667   -0.0391 H   0  0  0  0  0  0  0  0  0  0  0  0
   -6.1566   -4.6782    0.6691 H   0  0  0  0  0  0  0  0  0  0  0  0
   -7.6229   -3.7215    0.8726 H   0  0  0  0  0  0  0  0  0  0  0  0
   -6.6906   -5.4914    4.3308 H   0  0  0  0  0  0  0  0  0  0  0  0
   -5.2819   -5.4193    3.2600 H   0  0  0  0  0  0  0  0  0  0  0  0
   -6.9310   -5.6505    2.5916 H   0  0  0  0  0  0  0  0  0  0  0  0
   -6.7093   -1.1940    1.2501 H   0  0  0  0  0  0  0  0  0  0  0  0
   -7.5836   -2.2708    3.6435 H   0  0  0  0  0  0  0  0  0  0  0  0
   -4.9658   -1.0575    3.7608 H   0  0  0  0  0  0  0  0  0  0  0  0
   -6.5651    0.8485    3.7126 H   0  0  0  0  0  0  0  0  0  0  0  0
   -4.9146    1.3677    3.3268 H   0  0  0  0  0  0  0  0  0  0  0  0
   -6.0900    1.1918    2.0355 H   0  0  0  0  0  0  0  0  0  0  0  0
    0.1022   -1.2308    2.2737 H   0  0  0  0  0  0  0  0  0  0  0  0
   -0.7639    0.9334    3.4282 H   0  0  0  0  0  0  0  0  0  0  0  0
   -1.7576   -0.5056    3.5668 H   0  0  0  0  0  0  0  0  0  0  0  0
   -2.1865    0.7703    2.4220 H   0  0  0  0  0  0  0  0  0  0  0  0
    0.6024    0.1128   -0.0385 H   0  0  0  0  0  0  0  0  0  0  0  0
   -1.1494    1.0667   -0.8992 H   0  0  0  0  0  0  0  0  0  0  0  0
   -0.7248    2.3087   -3.0709 H   0  0  0  0  0  0  0  0  0  0  0  0
   -0.7845    4.6265   -4.0060 H   0  0  0  0  0  0  0  0  0  0  0  0
    0.7299    4.2493   -3.1563 H   0  0  0  0  0  0  0  0  0  0  0  0
   -0.4576    5.2682   -2.3757 H   0  0  0  0  0  0  0  0  0  0  0  0
   -2.9167    3.8854   -3.1161 H   0  0  0  0  0  0  0  0  0  0  0  0
   -2.9104    2.2462   -2.5547 H   0  0  0  0  0  0  0  0  0  0  0  0
   -4.1007    3.5358   -0.9335 H   0  0  0  0  0  0  0  0  0  0  0  0
   -4.1504    5.1213    0.9915 H   0  0  0  0  0  0  0  0  0  0  0  0
   -2.4732    4.8677    1.5388 H   0  0  0  0  0  0  0  0  0  0  0  0
   -2.9713    6.4425    1.0065 H   0  0  0  0  0  0  0  0  0  0  0  0
   -3.1979    7.0260   -1.1508 H   0  0  0  0  0  0  0  0  0  0  0  0
   -2.8865    5.9497   -2.4776 H   0  0  0  0  0  0  0  0  0  0  0  0
   -4.4144    5.8091   -1.5832 H   0  0  0  0  0  0  0  0  0  0  0  0
   -2.4645    2.8554    1.0899 H   0  0  0  0  0  0  0  0  0  0  0  0
   -3.9572    1.4623    0.7790 H   0  0  0  0  0  0  0  0  0  0  0  0
    3.5513   -0.2125    2.4639 H   0  0  0  0  0  0  0  0  0  0  0  0
    2.1842   -1.2853    2.2892 H   0  0  0  0  0  0  0  0  0  0  0  0
    3.1070   -0.7922    0.8680 H   0  0  0  0  0  0  0  0  0  0  0  0
    1.2444    0.4975    3.5433 H   0  0  0  0  0  0  0  0  0  0  0  0
    2.0613    2.8755    1.2606 H   0  0  0  0  0  0  0  0  0  0  0  0
    3.5497    2.0589    1.5301 H   0  0  0  0  0  0  0  0  0  0  0  0
    1.8050    1.9168   -0.9488 H   0  0  0  0  0  0  0  0  0  0  0  0
    2.7053    4.1259   -0.7240 H   0  0  0  0  0  0  0  0  0  0  0  0
    3.5993    3.3374   -2.0287 H   0  0  0  0  0  0  0  0  0  0  0  0
    4.3413    3.5211   -0.4399 H   0  0  0  0  0  0  0  0  0  0  0  0
    6.7113   -0.2874    0.6346 H   0  0  0  0  0  0  0  0  0  0  0  0
    7.2588    1.0808   -0.3744 H   0  0  0  0  0  0  0  0  0  0  0  0
    8.9221    1.8670    2.5380 H   0  0  0  0  0  0  0  0  0  0  0  0
    9.0536    0.7712    1.1722 H   0  0  0  0  0  0  0  0  0  0  0  0
    7.7200    0.0996    3.8867 H   0  0  0  0  0  0  0  0  0  0  0  0
    7.8154   -0.9883    2.5230 H   0  0  0  0  0  0  0  0  0  0  0  0
    9.5512    0.1825    5.3164 H   0  0  0  0  0  0  0  0  0  0  0  0
   11.1438   -0.3432    4.7341 H   0  0  0  0  0  0  0  0  0  0  0  0
   10.4341    1.1479    4.0928 H   0  0  0  0  0  0  0  0  0  0  0  0
    3.8678    0.3266   -3.2661 H   0  0  0  0  0  0  0  0  0  0  0  0
    0.9550    0.6820   -2.5112 H   0  0  0  0  0  0  0  0  0  0  0  0
    1.6561    0.5311   -4.1356 H   0  0  0  0  0  0  0  0  0  0  0  0
    1.9931    1.9516   -3.1882 H   0  0  0  0  0  0  0  0  0  0  0  0
    3.9634   -1.7050   -2.1651 H   0  0  0  0  0  0  0  0  0  0  0  0
    2.4973   -2.5000   -0.8016 H   0  0  0  0  0  0  0  0  0  0  0  0
    2.5295   -4.2523   -4.2133 H   0  0  0  0  0  0  0  0  0  0  0  0
    3.9050   -3.6894   -3.3026 H   0  0  0  0  0  0  0  0  0  0  0  0
    2.4253   -4.1453   -2.4400 H   0  0  0  0  0  0  0  0  0  0  0  0
    3.7545   -1.8228   -4.7439 H   0  0  0  0  0  0  0  0  0  0  0  0
  1  2  1  0
  2  3  1  0
  3  4  1  0
  4  5  1  0
  5  6  2  0
  5  7  1  0
  7  8  1  0
  7  9  1  0
  9 10  1  0
 10 11  1  0
 11 12  1  0
 12 13  1  0
 13 14  1  0
 13 15  1  1
 15 16  1  0
 13 17  1  0
 17 18  1  0
 17 19  1  0
 19 20  1  0
 19 21  1  0
  9 22  1  0
 22 23  1  0
 22 24  1  0
 24 25  1  0
 25 26  1  0
 26 27  1  0
 27 28  1  0
 28 29  1  0
 28 30  1  0
 30 31  1  0
 31 32  1  0
 32 33  1  0
 32 34  1  0
 31 35  1  0
 35 36  1  0
 24 37  1  0
 37 38  1  0
 37 39  1  1
 37 40  1  0
 40 41  1  0
 41 42  1  0
 41 43  1  0
 43 44  2  0
 44 45  1  0
 45 46  1  0
 46 47  1  0
 47 48  1  0
 48 49  1  0
 49 50  1  0
 50 51  1  0
 43 52  1  0
 52 53  1  0
 52 54  1  0
 54 55  1  0
 54 56  1  0
 56 57  1  0
 56 58  1  6
 56  3  1  0
 21 11  1  0
 35 26  1  0
  1 59  1  0
  1 60  1  0
  1 61  1  0
  2 62  1  0
  2 63  1  0
  3 64  1  6
  7 65  1  1
  8 66  1  0
  8 67  1  0
  8 68  1  0
  9 69  1  6
 11 70  1  6
 12 71  1  0
 12 72  1  0
 14 73  1  0
 14 74  1  0
 14 75  1  0
 16 76  1  0
 16 77  1  0
 16 78  1  0
 17 79  1  6
 18 80  1  0
 19 81  1  1
 20 82  1  0
 20 83  1  0
 20 84  1  0
 22 85  1  1
 23 86  1  0
 23 87  1  0
 23 88  1  0
 24 89  1  6
 26 90  1  6
 28 91  1  6
 29 92  1  0
 29 93  1  0
 29 94  1  0
 30 95  1  0
 30 96  1  0
 31 97  1  6
 33 98  1  0
 33 99  1  0
 33100  1  0
 34101  1  0
 34102  1  0
 34103  1  0
 35104  1  1
 36105  1  0
 38106  1  0
 38107  1  0
 38108  1  0
 39109  1  0
 40110  1  0
 40111  1  0
 41112  1  6
 42113  1  0
 42114  1  0
 42115  1  0
 46116  1  0
 46117  1  0
 48118  1  0
 48119  1  0
 49120  1  0
 49121  1  0
 51122  1  0
 51123  1  0
 51124  1  0
 52125  1  6
 53126  1  0
 53127  1  0
 53128  1  0
 54129  1  1
 55130  1  0
 57131  1  0
 57132  1  0
 57133  1  0
 58134  1  0
M  END
$$$$
