
     RDKit          3D

 36 38  0  0  0  0  0  0  0  0999 V2000
    7.4602    1.2632   -0.4506 C   0  0  0  0  0  0  0  0  0  0  0  0
    5.9835    1.4054   -0.7249 C   0  0  0  0  0  0  0  0  0  0  0  0
    5.5761    2.2074   -1.5574 O   0  0  0  0  0  0  0  0  0  0  0  0
    5.2250    0.5318    0.0330 N   0  0  0  0  0  0  0  0  0  0  0  0
    3.8226    0.3891    0.0316 C   0  0  0  0  0  0  0  0  0  0  0  0
    2.9598    1.1462   -0.7582 C   0  0  0  0  0  0  0  0  0  0  0  0
    1.5753    0.9392   -0.6968 C   0  0  0  0  0  0  0  0  0  0  0  0
    1.0304   -0.0266    0.1544 C   0  0  0  0  0  0  0  0  0  0  0  0
   -0.3661   -0.1700    0.1551 N   0  0  0  0  0  0  0  0  0  0  0  0
   -1.1399   -1.0399    0.8950 C   0  0  0  0  0  0  0  0  0  0  0  0
   -0.7513   -1.8693    1.7084 O   0  0  0  0  0  0  0  0  0  0  0  0
   -2.5642   -0.8625    0.5927 C   0  0  0  0  0  0  0  0  0  0  0  0
   -3.6214   -1.5599    1.1439 C   0  0  0  0  0  0  0  0  0  0  0  0
   -4.7510   -1.0521    0.5607 N   0  0  0  0  0  0  0  0  0  0  0  0
   -6.0823   -1.4022    0.7606 C   0  0  0  0  0  0  0  0  0  0  0  0
   -7.0320   -0.7563    0.0655 C   0  0  0  0  0  0  0  0  0  0  0  0
   -8.6972   -1.1305    0.2560 Cl  0  0  0  0  0  0  0  0  0  0  0  0
   -6.6460    0.2866   -0.8732 C   0  0  0  0  0  0  0  0  0  0  0  0
   -5.3527    0.6181   -1.0594 C   0  0  0  0  0  0  0  0  0  0  0  0
   -4.3381   -0.0613   -0.3266 C   0  0  0  0  0  0  0  0  0  0  0  0
   -3.0285    0.0720   -0.3259 N   0  0  0  0  0  0  0  0  0  0  0  0
    1.8917   -0.7840    0.9452 C   0  0  0  0  0  0  0  0  0  0  0  0
    3.2762   -0.5770    0.8836 C   0  0  0  0  0  0  0  0  0  0  0  0
    7.8619    0.4411   -1.0487 H   0  0  0  0  0  0  0  0  0  0  0  0
    7.9707    2.1923   -0.7203 H   0  0  0  0  0  0  0  0  0  0  0  0
    7.6448    1.0715    0.6103 H   0  0  0  0  0  0  0  0  0  0  0  0
    5.7293   -0.0844    0.6578 H   0  0  0  0  0  0  0  0  0  0  0  0
    3.3273    1.9100   -1.4363 H   0  0  0  0  0  0  0  0  0  0  0  0
    0.9343    1.5495   -1.3286 H   0  0  0  0  0  0  0  0  0  0  0  0
   -0.9053    0.4338   -0.4614 H   0  0  0  0  0  0  0  0  0  0  0  0
   -3.6498   -2.3504    1.8807 H   0  0  0  0  0  0  0  0  0  0  0  0
   -6.2906   -2.1877    1.4756 H   0  0  0  0  0  0  0  0  0  0  0  0
   -7.4283    0.7978   -1.4265 H   0  0  0  0  0  0  0  0  0  0  0  0
   -5.0596    1.3942   -1.7574 H   0  0  0  0  0  0  0  0  0  0  0  0
    1.5214   -1.5466    1.6232 H   0  0  0  0  0  0  0  0  0  0  0  0
    3.9138   -1.1886    1.5167 H   0  0  0  0  0  0  0  0  0  0  0  0
  1  2  1  0
  2  3  2  0
  2  4  1  0
  4  5  1  0
  5  6  2  0
  6  7  1  0
  7  8  2  0
  8  9  1  0
  9 10  1  0
 10 11  2  0
 10 12  1  0
 12 13  2  0
 13 14  1  0
 14 15  1  0
 15 16  2  0
 16 17  1  0
 16 18  1  0
 18 19  2  0
 19 20  1  0
 20 21  2  0
  8 22  1  0
 22 23  2  0
 23  5  1  0
 21 12  1  0
 20 14  1  0
  1 24  1  0
  1 25  1  0
  1 26  1  0
  4 27  1  0
  6 28  1  0
  7 29  1  0
  9 30  1  0
 13 31  1  0
 15 32  1  0
 18 33  1  0
 19 34  1  0
 22 35  1  0
 23 36  1  0
M  END
$$$$
