
     RDKit          3D

 43 45  0  0  0  0  0  0  0  0999 V2000
    4.8416   -0.0949   -2.3788 C   0  0  0  0  0  0  0  0  0  0  0  0
    4.1962   -0.1435   -1.1091 O   0  0  0  0  0  0  0  0  0  0  0  0
    4.9783   -0.3458    0.0026 C   0  0  0  0  0  0  0  0  0  0  0  0
    6.3614   -0.5788   -0.0671 C   0  0  0  0  0  0  0  0  0  0  0  0
    7.1159   -0.7804    1.0914 C   0  0  0  0  0  0  0  0  0  0  0  0
    6.5017   -0.7537    2.3362 C   0  0  0  0  0  0  0  0  0  0  0  0
    5.1293   -0.5261    2.4229 C   0  0  0  0  0  0  0  0  0  0  0  0
    4.3486   -0.3210    1.2678 C   0  0  0  0  0  0  0  0  0  0  0  0
    2.8761   -0.0854    1.4975 C   0  0  0  0  0  0  0  0  0  0  0  0
    2.4615   -0.0650    2.6526 O   0  0  0  0  0  0  0  0  0  0  0  0
    2.1078    0.0840    0.3724 N   0  0  0  0  0  0  0  0  0  0  0  0
    0.7636    0.3195    0.4061 C   0  0  0  0  0  0  0  0  0  0  0  0
   -0.0380    0.4376    1.4299 N   0  0  0  0  0  0  0  0  0  0  0  0
   -1.3238    0.6812    0.9878 C   0  0  0  0  0  0  0  0  0  0  0  0
   -2.4543    0.8808    1.8071 C   0  0  0  0  0  0  0  0  0  0  0  0
   -3.7054    1.1116    1.2261 C   0  0  0  0  0  0  0  0  0  0  0  0
   -3.8346    1.1259   -0.1630 C   0  0  0  0  0  0  0  0  0  0  0  0
   -5.4339    1.4407   -0.8913 S   0  0  0  0  0  6  0  0  0  0  0  0
   -6.2105    2.1831    0.0786 O   0  0  0  0  0  0  0  0  0  0  0  0
   -5.2030    1.9635   -2.2216 O   0  0  0  0  0  0  0  0  0  0  0  0
   -6.1022   -0.1163   -1.0379 N   0  0  0  0  0  0  0  0  0  0  0  0
   -5.4945   -1.0154   -2.0331 C   0  0  0  0  0  0  0  0  0  0  0  0
   -6.4850   -0.8017    0.2082 C   0  0  0  0  0  0  0  0  0  0  0  0
   -2.7259    0.9587   -1.0052 C   0  0  0  0  0  0  0  0  0  0  0  0
   -1.4791    0.7306   -0.4006 C   0  0  0  0  0  0  0  0  0  0  0  0
    0.0583    0.4776   -1.1390 S   0  0  0  0  0  0  0  0  0  0  0  0
    4.0749    0.1103   -3.1321 H   0  0  0  0  0  0  0  0  0  0  0  0
    5.2986   -1.0589   -2.6243 H   0  0  0  0  0  0  0  0  0  0  0  0
    5.5736    0.7183   -2.4197 H   0  0  0  0  0  0  0  0  0  0  0  0
    6.8922   -0.6127   -1.0134 H   0  0  0  0  0  0  0  0  0  0  0  0
    8.1864   -0.9589    1.0190 H   0  0  0  0  0  0  0  0  0  0  0  0
    7.0847   -0.9093    3.2407 H   0  0  0  0  0  0  0  0  0  0  0  0
    4.6643   -0.5088    3.4083 H   0  0  0  0  0  0  0  0  0  0  0  0
    2.5453    0.0431   -0.5382 H   0  0  0  0  0  0  0  0  0  0  0  0
   -2.3368    0.8602    2.8871 H   0  0  0  0  0  0  0  0  0  0  0  0
   -4.5673    1.2817    1.8685 H   0  0  0  0  0  0  0  0  0  0  0  0
   -5.3161   -0.4975   -2.9793 H   0  0  0  0  0  0  0  0  0  0  0  0
   -4.5544   -1.4340   -1.6630 H   0  0  0  0  0  0  0  0  0  0  0  0
   -6.1799   -1.8416   -2.2489 H   0  0  0  0  0  0  0  0  0  0  0  0
   -5.6092   -1.2183    0.7134 H   0  0  0  0  0  0  0  0  0  0  0  0
   -7.0118   -0.1264    0.8877 H   0  0  0  0  0  0  0  0  0  0  0  0
   -7.1745   -1.6210   -0.0209 H   0  0  0  0  0  0  0  0  0  0  0  0
   -2.8204    1.0066   -2.0864 H   0  0  0  0  0  0  0  0  0  0  0  0
  1  2  1  0
  2  3  1  0
  3  4  2  0
  4  5  1  0
  5  6  2  0
  6  7  1  0
  7  8  2  0
  8  9  1  0
  9 10  2  0
  9 11  1  0
 11 12  1  0
 12 13  2  0
 13 14  1  0
 14 15  2  0
 15 16  1  0
 16 17  2  0
 17 18  1  0
 18 19  2  0
 18 20  2  0
 18 21  1  0
 21 22  1  0
 21 23  1  0
 17 24  1  0
 24 25  2  0
 25 26  1  0
  8  3  1  0
 26 12  1  0
 25 14  1  0
  1 27  1  0
  1 28  1  0
  1 29  1  0
  4 30  1  0
  5 31  1  0
  6 32  1  0
  7 33  1  0
 11 34  1  0
 15 35  1  0
 16 36  1  0
 22 37  1  0
 22 38  1  0
 22 39  1  0
 23 40  1  0
 23 41  1  0
 23 42  1  0
 24 43  1  0
M  END
$$$$
