
     RDKit          3D

 24 24  0  0  0  0  0  0  0  0999 V2000
    2.2732   -0.2039   -1.7867 O   0  0  0  0  0  0  0  0  0  0  0  0
    2.3347   -0.0286   -0.3737 C   0  0  0  0  0  0  0  0  0  0  0  0
    0.9252    0.1516    0.2323 C   0  0  1  0  0  0  0  0  0  0  0  0
    0.2805    1.3704   -0.2980 N   0  0  0  0  0  0  0  0  0  0  0  0
   -0.9970    1.6355    0.3831 C   0  0  0  0  0  0  0  0  0  0  0  0
   -1.9028    0.3913    0.5145 C   0  0  2  0  0  0  0  0  0  0  0  0
   -1.9710   -0.0152    1.8883 O   0  0  0  0  0  0  0  0  0  0  0  0
   -1.4007   -0.7609   -0.3757 C   0  0  1  0  0  0  0  0  0  0  0  0
   -1.5017   -0.4130   -1.7602 O   0  0  0  0  0  0  0  0  0  0  0  0
    0.0609   -1.1188   -0.0182 C   0  0  2  0  0  0  0  0  0  0  0  0
    0.0644   -1.8914    1.1975 O   0  0  0  0  0  0  0  0  0  0  0  0
    3.1890   -0.2319   -2.1125 H   0  0  0  0  0  0  0  0  0  0  0  0
    2.8242   -0.9074    0.0598 H   0  0  0  0  0  0  0  0  0  0  0  0
    2.9558    0.8490   -0.1626 H   0  0  0  0  0  0  0  0  0  0  0  0
    1.0743    0.2873    1.3126 H   0  0  0  0  0  0  0  0  0  0  0  0
    0.8997    2.1735   -0.1869 H   0  0  0  0  0  0  0  0  0  0  0  0
   -0.8048    2.0771    1.3682 H   0  0  0  0  0  0  0  0  0  0  0  0
   -1.5212    2.3924   -0.2114 H   0  0  0  0  0  0  0  0  0  0  0  0
   -2.9188    0.6708    0.2131 H   0  0  0  0  0  0  0  0  0  0  0  0
   -1.1821   -0.5625    2.0780 H   0  0  0  0  0  0  0  0  0  0  0  0
   -2.0361   -1.6388   -0.2105 H   0  0  0  0  0  0  0  0  0  0  0  0
   -0.8192    0.2770   -1.9097 H   0  0  0  0  0  0  0  0  0  0  0  0
    0.4881   -1.7413   -0.8126 H   0  0  0  0  0  0  0  0  0  0  0  0
   -0.3146   -2.7621    0.9713 H   0  0  0  0  0  0  0  0  0  0  0  0
  1  2  1  0
  2  3  1  0
  3  4  1  0
  4  5  1  0
  5  6  1  0
  6  7  1  0
  6  8  1  0
  8  9  1  0
  8 10  1  0
 10 11  1  0
 10  3  1  0
  1 12  1  0
  2 13  1  0
  2 14  1  0
  3 15  1  1
  4 16  1  0
  5 17  1  0
  5 18  1  0
  6 19  1  6
  7 20  1  0
  8 21  1  6
  9 22  1  0
 10 23  1  6
 11 24  1  0
M  END
$$$$
