
     RDKit          3D

 40 43  0  0  0  0  0  0  0  0999 V2000
   -3.5969    4.2279    0.9848 F   0  0  0  0  0  0  0  0  0  0  0  0
   -2.9017    3.0594    1.0843 C   0  0  0  0  0  0  0  0  0  0  0  0
   -3.4668    2.3795    2.1199 F   0  0  0  0  0  0  0  0  0  0  0  0
   -1.6523    3.4082    1.5007 F   0  0  0  0  0  0  0  0  0  0  0  0
   -2.8861    2.2596   -0.1933 C   0  0  0  0  0  0  0  0  0  0  0  0
   -3.6275    2.6572   -1.3126 C   0  0  0  0  0  0  0  0  0  0  0  0
   -3.6074    1.8888   -2.4741 C   0  0  0  0  0  0  0  0  0  0  0  0
   -2.8350    0.7260   -2.5306 C   0  0  0  0  0  0  0  0  0  0  0  0
   -2.0528    0.3211   -1.4393 C   0  0  0  0  0  0  0  0  0  0  0  0
   -1.3293   -0.8905   -1.5228 N   0  0  0  0  0  0  0  0  0  0  0  0
   -0.1559   -1.2612   -0.8092 C   0  0  0  0  0  0  0  0  0  0  0  0
    0.5212   -0.3264   -0.1292 N   0  0  0  0  0  0  0  0  0  0  0  0
    1.6363   -0.7035    0.5106 C   0  0  0  0  0  0  0  0  0  0  0  0
    2.3770    0.3267    1.2679 C   0  0  0  0  0  0  0  0  0  0  0  0
    3.5615    0.0177    1.9652 C   0  0  0  0  0  0  0  0  0  0  0  0
    4.2621    0.9903    2.6865 C   0  0  0  0  0  0  0  0  0  0  0  0
    3.7928    2.2995    2.7285 C   0  0  0  0  0  0  0  0  0  0  0  0
    2.6259    2.6364    2.0500 C   0  0  0  0  0  0  0  0  0  0  0  0
    1.9289    1.6615    1.3288 C   0  0  0  0  0  0  0  0  0  0  0  0
    2.1193   -1.9505    0.5088 N   0  0  0  0  0  0  0  0  0  0  0  0
    1.4478   -2.8798   -0.1484 C   0  0  0  0  0  0  0  0  0  0  0  0
    1.9505   -4.1164   -0.1215 N   0  0  0  0  0  0  0  0  0  0  0  0
    1.3018   -5.1142   -0.7602 C   0  0  0  0  0  0  0  0  0  0  0  0
    0.1269   -4.9390   -1.4562 C   0  0  0  0  0  0  0  0  0  0  0  0
   -0.4005   -3.6585   -1.4966 C   0  0  0  0  0  0  0  0  0  0  0  0
    0.2693   -2.5971   -0.8399 C   0  0  0  0  0  0  0  0  0  0  0  0
   -2.1217    1.0812   -0.2653 C   0  0  0  0  0  0  0  0  0  0  0  0
   -4.2315    3.5627   -1.2809 H   0  0  0  0  0  0  0  0  0  0  0  0
   -4.1954    2.1923   -3.3370 H   0  0  0  0  0  0  0  0  0  0  0  0
   -2.8472    0.1410   -3.4469 H   0  0  0  0  0  0  0  0  0  0  0  0
   -1.2375   -1.1978   -2.4860 H   0  0  0  0  0  0  0  0  0  0  0  0
    3.9512   -0.9998    1.9514 H   0  0  0  0  0  0  0  0  0  0  0  0
    5.1726    0.7199    3.2148 H   0  0  0  0  0  0  0  0  0  0  0  0
    4.3351    3.0557    3.2898 H   0  0  0  0  0  0  0  0  0  0  0  0
    2.2520    3.6567    2.0798 H   0  0  0  0  0  0  0  0  0  0  0  0
    1.0189    1.9564    0.8081 H   0  0  0  0  0  0  0  0  0  0  0  0
    1.7730   -6.0906   -0.6859 H   0  0  0  0  0  0  0  0  0  0  0  0
   -0.3644   -5.7725   -1.9449 H   0  0  0  0  0  0  0  0  0  0  0  0
   -1.3376   -3.4894   -2.0202 H   0  0  0  0  0  0  0  0  0  0  0  0
   -1.5765    0.7615    0.6214 H   0  0  0  0  0  0  0  0  0  0  0  0
  1  2  1  0
  2  3  1  0
  2  4  1  0
  2  5  1  0
  5  6  2  0
  6  7  1  0
  7  8  2  0
  8  9  1  0
  9 10  1  0
 10 11  1  0
 11 12  2  0
 12 13  1  0
 13 14  1  0
 14 15  2  0
 15 16  1  0
 16 17  2  0
 17 18  1  0
 18 19  2  0
 13 20  2  0
 20 21  1  0
 21 22  2  0
 22 23  1  0
 23 24  2  0
 24 25  1  0
 25 26  2  0
  9 27  2  0
 27  5  1  0
 26 11  1  0
 19 14  1  0
 26 21  1  0
  6 28  1  0
  7 29  1  0
  8 30  1  0
 10 31  1  0
 15 32  1  0
 16 33  1  0
 17 34  1  0
 18 35  1  0
 19 36  1  0
 23 37  1  0
 24 38  1  0
 25 39  1  0
 27 40  1  0
M  END
$$$$
