
     RDKit          3D

 46 48  0  0  0  0  0  0  0  0999 V2000
    7.4640   -0.3840    1.3651 C   0  0  0  0  0  0  0  0  0  0  0  0
    6.3912   -0.9793    0.5008 C   0  0  0  0  0  0  0  0  0  0  0  0
    6.7104   -1.9326   -0.4708 C   0  0  0  0  0  0  0  0  0  0  0  0
    5.7135   -2.4573   -1.2897 C   0  0  0  0  0  0  0  0  0  0  0  0
    4.3935   -2.0244   -1.1489 C   0  0  0  0  0  0  0  0  0  0  0  0
    4.0555   -1.0591   -0.1919 C   0  0  0  0  0  0  0  0  0  0  0  0
    2.7003   -0.6736   -0.1215 N   0  0  0  0  0  0  0  0  0  0  0  0
    2.1243    0.2606    0.7335 C   0  0  0  0  0  0  0  0  0  0  0  0
    2.7114    0.9199    1.5854 O   0  0  0  0  0  0  0  0  0  0  0  0
    0.6156    0.3843    0.4934 C   0  0  0  0  0  0  0  0  0  0  0  0
    0.0411    1.3789    1.3296 O   0  0  0  0  0  0  0  0  0  0  0  0
   -1.3157    1.5344    1.1285 C   0  0  0  0  0  0  0  0  0  0  0  0
   -1.9218    2.5248    1.8566 C   0  0  0  0  0  0  0  0  0  0  0  0
   -3.2702    2.6693    1.6433 C   0  0  0  0  0  0  0  0  0  0  0  0
   -4.0458    3.7215    2.3749 C   0  0  0  0  0  0  0  0  0  0  0  0
   -3.9481    1.8867    0.7790 N   0  0  0  0  0  0  0  0  0  0  0  0
   -3.2740    0.9337    0.1114 C   0  0  0  0  0  0  0  0  0  0  0  0
   -3.9603    0.1490   -0.7786 N   0  0  0  0  0  0  0  0  0  0  0  0
   -3.4148   -1.1224   -1.2211 C   0  0  0  0  0  0  0  0  0  0  0  0
   -4.6525   -1.9821   -1.4907 C   0  0  0  0  0  0  0  0  0  0  0  0
   -5.7493   -0.9626   -1.7630 C   0  0  0  0  0  0  0  0  0  0  0  0
   -5.4115    0.1593   -0.7851 C   0  0  0  0  0  0  0  0  0  0  0  0
   -1.9570    0.7328    0.2621 N   0  0  0  0  0  0  0  0  0  0  0  0
    5.0625   -0.5392    0.6246 C   0  0  0  0  0  0  0  0  0  0  0  0
    8.2932   -1.0864    1.5005 H   0  0  0  0  0  0  0  0  0  0  0  0
    7.0749   -0.1462    2.3607 H   0  0  0  0  0  0  0  0  0  0  0  0
    7.8490    0.5315    0.9057 H   0  0  0  0  0  0  0  0  0  0  0  0
    7.7367   -2.2710   -0.5933 H   0  0  0  0  0  0  0  0  0  0  0  0
    5.9649   -3.2020   -2.0403 H   0  0  0  0  0  0  0  0  0  0  0  0
    3.6377   -2.4513   -1.8025 H   0  0  0  0  0  0  0  0  0  0  0  0
    2.0800   -1.1330   -0.7766 H   0  0  0  0  0  0  0  0  0  0  0  0
    0.1730   -0.5965    0.7099 H   0  0  0  0  0  0  0  0  0  0  0  0
    0.4733    0.6486   -0.5626 H   0  0  0  0  0  0  0  0  0  0  0  0
   -1.3658    3.1454    2.5450 H   0  0  0  0  0  0  0  0  0  0  0  0
   -3.6529    4.7151    2.1379 H   0  0  0  0  0  0  0  0  0  0  0  0
   -3.9812    3.5573    3.4551 H   0  0  0  0  0  0  0  0  0  0  0  0
   -5.1025    3.6962    2.0895 H   0  0  0  0  0  0  0  0  0  0  0  0
   -2.7774   -1.6135   -0.4768 H   0  0  0  0  0  0  0  0  0  0  0  0
   -2.8373   -0.9763   -2.1405 H   0  0  0  0  0  0  0  0  0  0  0  0
   -4.9023   -2.5650   -0.5957 H   0  0  0  0  0  0  0  0  0  0  0  0
   -4.5043   -2.6799   -2.3196 H   0  0  0  0  0  0  0  0  0  0  0  0
   -5.6754   -0.6007   -2.7956 H   0  0  0  0  0  0  0  0  0  0  0  0
   -6.7537   -1.3664   -1.6089 H   0  0  0  0  0  0  0  0  0  0  0  0
   -5.8223    1.1157   -1.1251 H   0  0  0  0  0  0  0  0  0  0  0  0
   -5.8127   -0.0759    0.2086 H   0  0  0  0  0  0  0  0  0  0  0  0
    4.8428    0.2160    1.3734 H   0  0  0  0  0  0  0  0  0  0  0  0
  1  2  1  0
  2  3  2  0
  3  4  1  0
  4  5  2  0
  5  6  1  0
  6  7  1  0
  7  8  1  0
  8  9  2  0
  8 10  1  0
 10 11  1  0
 11 12  1  0
 12 13  2  0
 13 14  1  0
 14 15  1  0
 14 16  2  0
 16 17  1  0
 17 18  1  0
 18 19  1  0
 19 20  1  0
 20 21  1  0
 21 22  1  0
 17 23  2  0
  6 24  2  0
 24  2  1  0
 23 12  1  0
 22 18  1  0
  1 25  1  0
  1 26  1  0
  1 27  1  0
  3 28  1  0
  4 29  1  0
  5 30  1  0
  7 31  1  0
 10 32  1  0
 10 33  1  0
 13 34  1  0
 15 35  1  0
 15 36  1  0
 15 37  1  0
 19 38  1  0
 19 39  1  0
 20 40  1  0
 20 41  1  0
 21 42  1  0
 21 43  1  0
 22 44  1  0
 22 45  1  0
 24 46  1  0
M  END
$$$$
