
     RDKit          3D

 37 38  0  0  0  0  0  0  0  0999 V2000
   -4.0003   -0.5943    1.4810 C   0  0  0  0  0  0  0  0  0  0  0  0
   -3.8760    0.7403    0.8546 N   0  0  0  0  0  0  0  0  0  0  0  0
   -4.8539    1.6985    1.4189 C   0  0  0  0  0  0  0  0  0  0  0  0
   -3.8560    0.7392   -0.8575 S   0  0  0  0  0  6  0  0  0  0  0  0
   -4.9381   -0.1176   -1.2969 O   0  0  0  0  0  0  0  0  0  0  0  0
   -3.7408    2.1043   -1.3203 O   0  0  0  0  0  0  0  0  0  0  0  0
   -2.3188   -0.0670   -1.2302 C   0  0  0  0  0  0  0  0  0  0  0  0
   -2.3063   -1.2269   -2.0096 C   0  0  0  0  0  0  0  0  0  0  0  0
   -1.0899   -1.8429   -2.3033 C   0  0  0  0  0  0  0  0  0  0  0  0
    0.1041   -1.3076   -1.8106 C   0  0  0  0  0  0  0  0  0  0  0  0
    0.0852   -0.1531   -1.0126 C   0  0  0  0  0  0  0  0  0  0  0  0
    1.3376    0.4453   -0.4674 C   0  0  0  0  0  0  0  0  0  0  0  0
    1.3913    1.6624   -0.3466 O   0  0  0  0  0  0  0  0  0  0  0  0
    2.3135   -0.4673   -0.1081 N   0  0  0  0  0  0  0  0  0  0  0  0
    3.6025   -0.1867    0.3955 C   0  0  0  0  0  0  0  0  0  0  0  0
    4.3908   -1.2834    0.7735 C   0  0  0  0  0  0  0  0  0  0  0  0
    5.6809   -1.0979    1.2774 C   0  0  0  0  0  0  0  0  0  0  0  0
    6.1977    0.1884    1.4061 C   0  0  0  0  0  0  0  0  0  0  0  0
    5.4196    1.2802    1.0279 C   0  0  0  0  0  0  0  0  0  0  0  0
    6.1254    3.0276    1.1987 Br  0  0  0  0  0  0  0  0  0  0  0  0
    4.1290    1.1003    0.5236 C   0  0  0  0  0  0  0  0  0  0  0  0
   -1.1311    0.4805   -0.7364 C   0  0  0  0  0  0  0  0  0  0  0  0
   -3.8403   -0.5084    2.5609 H   0  0  0  0  0  0  0  0  0  0  0  0
   -3.2395   -1.2811    1.1016 H   0  0  0  0  0  0  0  0  0  0  0  0
   -4.9939   -1.0197    1.3105 H   0  0  0  0  0  0  0  0  0  0  0  0
   -5.8751    1.4333    1.1290 H   0  0  0  0  0  0  0  0  0  0  0  0
   -4.6286    2.7162    1.0874 H   0  0  0  0  0  0  0  0  0  0  0  0
   -4.7908    1.6966    2.5120 H   0  0  0  0  0  0  0  0  0  0  0  0
   -3.2317   -1.6434   -2.4030 H   0  0  0  0  0  0  0  0  0  0  0  0
   -1.0709   -2.7320   -2.9302 H   0  0  0  0  0  0  0  0  0  0  0  0
    1.0420   -1.7820   -2.0883 H   0  0  0  0  0  0  0  0  0  0  0  0
    2.0634   -1.4463   -0.1427 H   0  0  0  0  0  0  0  0  0  0  0  0
    4.0126   -2.2986    0.6840 H   0  0  0  0  0  0  0  0  0  0  0  0
    6.2812   -1.9561    1.5688 H   0  0  0  0  0  0  0  0  0  0  0  0
    7.2012    0.3305    1.7981 H   0  0  0  0  0  0  0  0  0  0  0  0
    3.5573    1.9759    0.2342 H   0  0  0  0  0  0  0  0  0  0  0  0
   -1.1532    1.3928   -0.1414 H   0  0  0  0  0  0  0  0  0  0  0  0
  1  2  1  0
  2  3  1  0
  2  4  1  0
  4  5  2  0
  4  6  2  0
  4  7  1  0
  7  8  2  0
  8  9  1  0
  9 10  2  0
 10 11  1  0
 11 12  1  0
 12 13  2  0
 12 14  1  0
 14 15  1  0
 15 16  2  0
 16 17  1  0
 17 18  2  0
 18 19  1  0
 19 20  1  0
 19 21  2  0
 11 22  2  0
 22  7  1  0
 21 15  1  0
  1 23  1  0
  1 24  1  0
  1 25  1  0
  3 26  1  0
  3 27  1  0
  3 28  1  0
  8 29  1  0
  9 30  1  0
 10 31  1  0
 14 32  1  0
 16 33  1  0
 17 34  1  0
 18 35  1  0
 21 36  1  0
 22 37  1  0
M  END
$$$$
