
     RDKit          3D

 50 53  0  0  0  0  0  0  0  0999 V2000
    7.0936   -1.7295   -1.9425 C   0  0  0  0  0  0  0  0  0  0  0  0
    6.4332   -1.4650   -0.6494 C   0  0  0  0  0  0  0  0  0  0  0  0
    6.8956   -1.2960    0.6374 C   0  0  0  0  0  0  0  0  0  0  0  0
    5.7551   -1.0656    1.4441 C   0  0  0  0  0  0  0  0  0  0  0  0
    4.6655   -1.1027    0.5984 C   0  0  0  0  0  0  0  0  0  0  0  0
    3.1988   -0.9395    0.8082 C   0  0  0  0  0  0  0  0  0  0  0  0
    2.7296    0.3963    0.4105 N   0  0  0  0  0  0  0  0  0  0  0  0
    3.2345    1.4641    1.3114 C   0  0  0  0  0  0  0  0  0  0  0  0
    2.0939    2.4633    1.4718 C   0  0  0  0  0  0  0  0  0  0  0  0
    1.5662    2.3629    2.7181 F   0  0  0  0  0  0  0  0  0  0  0  0
    2.4878    3.7381    1.2973 F   0  0  0  0  0  0  0  0  0  0  0  0
    1.0652    2.0468    0.4524 C   0  0  0  0  0  0  0  0  0  0  0  0
    1.2547    0.5287    0.3967 C   0  0  1  0  0  0  0  0  0  0  0  0
    0.6089   -0.0857   -0.8550 C   0  0  0  0  0  0  0  0  0  0  0  0
   -0.8374   -0.0378   -0.8049 N   0  0  0  0  0  0  0  0  0  0  0  0
   -1.6864   -0.9662   -0.2916 C   0  0  0  0  0  0  0  0  0  0  0  0
   -2.9454   -0.4250   -0.4815 C   0  0  0  0  0  0  0  0  0  0  0  0
   -4.2105   -1.0534   -0.0987 C   0  0  0  0  0  0  0  0  0  0  0  0
   -4.2178   -2.1899    0.3798 O   0  0  0  0  0  0  0  0  0  0  0  0
   -5.3950   -0.3566   -0.2828 N   0  0  0  0  0  0  0  0  0  0  0  0
   -6.6717   -0.9736    0.0268 C   0  0  0  0  0  0  0  0  0  0  0  0
   -7.7019   -0.0508   -0.6045 C   0  0  0  0  0  0  0  0  0  0  0  0
   -7.0435    1.3167   -0.4871 C   0  0  0  0  0  0  0  0  0  0  0  0
   -5.5710    1.0151   -0.7396 C   0  0  0  0  0  0  0  0  0  0  0  0
   -2.7964    0.7912   -1.1074 N   0  0  0  0  0  0  0  0  0  0  0  0
   -1.5039    1.0166   -1.2982 N   0  0  0  0  0  0  0  0  0  0  0  0
    5.0766   -1.3536   -0.6787 O   0  0  0  0  0  0  0  0  0  0  0  0
    6.9252   -0.8991   -2.6348 H   0  0  0  0  0  0  0  0  0  0  0  0
    8.1735   -1.8533   -1.8145 H   0  0  0  0  0  0  0  0  0  0  0  0
    6.6973   -2.6438   -2.3947 H   0  0  0  0  0  0  0  0  0  0  0  0
    7.9289   -1.3335    0.9534 H   0  0  0  0  0  0  0  0  0  0  0  0
    5.7293   -0.8905    2.5104 H   0  0  0  0  0  0  0  0  0  0  0  0
    2.9428   -1.1509    1.8543 H   0  0  0  0  0  0  0  0  0  0  0  0
    2.6991   -1.7083    0.2068 H   0  0  0  0  0  0  0  0  0  0  0  0
    3.5156    1.0793    2.2988 H   0  0  0  0  0  0  0  0  0  0  0  0
    4.1094    1.9363    0.8532 H   0  0  0  0  0  0  0  0  0  0  0  0
    1.2704    2.5201   -0.5153 H   0  0  0  0  0  0  0  0  0  0  0  0
    0.0549    2.3222    0.7698 H   0  0  0  0  0  0  0  0  0  0  0  0
    0.8269    0.0819    1.3062 H   0  0  0  0  0  0  0  0  0  0  0  0
    0.9298    0.4267   -1.7700 H   0  0  0  0  0  0  0  0  0  0  0  0
    0.8784   -1.1422   -0.9638 H   0  0  0  0  0  0  0  0  0  0  0  0
   -1.3615   -1.8970    0.1496 H   0  0  0  0  0  0  0  0  0  0  0  0
   -6.7757   -1.0020    1.1172 H   0  0  0  0  0  0  0  0  0  0  0  0
   -6.7229   -1.9947   -0.3624 H   0  0  0  0  0  0  0  0  0  0  0  0
   -7.8388   -0.3066   -1.6621 H   0  0  0  0  0  0  0  0  0  0  0  0
   -8.6752   -0.1026   -0.1091 H   0  0  0  0  0  0  0  0  0  0  0  0
   -7.1768    1.7047    0.5304 H   0  0  0  0  0  0  0  0  0  0  0  0
   -7.4494    2.0509   -1.1886 H   0  0  0  0  0  0  0  0  0  0  0  0
   -4.9216    1.7008   -0.1893 H   0  0  0  0  0  0  0  0  0  0  0  0
   -5.3377    1.0528   -1.8086 H   0  0  0  0  0  0  0  0  0  0  0  0
  1  2  1  0
  2  3  2  0
  3  4  1  0
  4  5  2  0
  5  6  1  0
  6  7  1  0
  7  8  1  0
  8  9  1  0
  9 10  1  0
  9 11  1  0
  9 12  1  0
 12 13  1  0
 13 14  1  0
 14 15  1  0
 15 16  1  0
 16 17  2  0
 17 18  1  0
 18 19  2  0
 18 20  1  0
 20 21  1  0
 21 22  1  0
 22 23  1  0
 23 24  1  0
 17 25  1  0
 25 26  2  0
  5 27  1  0
 27  2  1  0
 13  7  1  0
 26 15  1  0
 24 20  1  0
  1 28  1  0
  1 29  1  0
  1 30  1  0
  3 31  1  0
  4 32  1  0
  6 33  1  0
  6 34  1  0
  8 35  1  0
  8 36  1  0
 12 37  1  0
 12 38  1  0
 13 39  1  1
 14 40  1  0
 14 41  1  0
 16 42  1  0
 21 43  1  0
 21 44  1  0
 22 45  1  0
 22 46  1  0
 23 47  1  0
 23 48  1  0
 24 49  1  0
 24 50  1  0
M  END
$$$$
