
     RDKit          3D

 22 23  0  0  0  0  0  0  0  0999 V2000
    0.0000    0.0000    0.0000 Cl  0  0  0  0  0 15  0  0  0  0  0  0
   -3.5384   -0.1079    0.0272 C   0  0  0  0  0  0  0  0  0  0  0  0
   -2.8479   -1.2898    0.0441 C   0  0  0  0  0  0  0  0  0  0  0  0
   -1.4847   -1.2899    0.0607 C   0  0  0  0  0  0  0  0  0  0  0  0
   -0.7055   -0.1201    0.0619 C   0  0  0  0  0  0  0  0  0  0  0  0
   -1.4706    0.9927    0.0446 C   0  0  0  0  0  0  0  0  0  0  0  0
   -2.8307    1.0649    0.0275 C   0  0  0  0  0  0  0  0  0  0  0  0
   -0.2096    2.7186    0.0477 I   0  0  0  0  0  2  0  0  0  0  0  0
    1.2988    1.2071    0.0769 C   0  0  0  0  0  0  0  0  0  0  0  0
    2.6350    1.4820    0.0913 C   0  0  0  0  0  0  0  0  0  0  0  0
    3.5145    0.4352    0.1095 C   0  0  0  0  0  0  0  0  0  0  0  0
    3.0051   -0.8384    0.1124 C   0  0  0  0  0  0  0  0  0  0  0  0
    1.6673   -1.0393    0.0975 C   0  0  0  0  0  0  0  0  0  0  0  0
    0.7126   -0.0062    0.0784 C   0  0  0  0  0  0  0  0  0  0  0  0
   -4.6379   -0.0712    0.0135 H   0  0  0  0  0  0  0  0  0  0  0  0
   -3.4194   -2.2348    0.0439 H   0  0  0  0  0  0  0  0  0  0  0  0
   -1.0049   -2.2914    0.0738 H   0  0  0  0  0  0  0  0  0  0  0  0
   -3.3346    2.0350    0.0144 H   0  0  0  0  0  0  0  0  0  0  0  0
    2.9874    2.5067    0.0883 H   0  0  0  0  0  0  0  0  0  0  0  0
    4.5929    0.6359    0.1212 H   0  0  0  0  0  0  0  0  0  0  0  0
    3.7191   -1.6855    0.1272 H   0  0  0  0  0  0  0  0  0  0  0  0
    1.3514   -2.1034    0.1012 H   0  0  0  0  0  0  0  0  0  0  0  0
  2  3  2  0
  3  4  1  0
  4  5  2  0
  5  6  1  0
  6  7  2  0
  6  8  1  0
  8  9  1  0
  9 10  2  0
 10 11  1  0
 11 12  2  0
 12 13  1  0
 13 14  2  0
  7  2  1  0
 14  9  1  0
 14  5  1  0
  2 15  1  0
  3 16  1  0
  4 17  1  0
  7 18  1  0
 10 19  1  0
 11 20  1  0
 12 21  1  0
 13 22  1  0
M  CHG  2   1  -1   8   1
M  END
$$$$
