
     RDKit          3D

 53 55  0  0  0  0  0  0  0  0999 V2000
    6.4464    0.8310   -2.7651 C   0  0  0  0  0  0  0  0  0  0  0  0
    5.3018    0.9940   -1.9398 O   0  0  0  0  0  0  0  0  0  0  0  0
    5.5091    0.5981   -0.5856 C   0  0  0  0  0  0  0  0  0  0  0  0
    5.4918   -0.9203   -0.4234 C   0  0  0  0  0  0  0  0  0  0  0  0
    5.6105   -1.3451    1.0378 C   0  0  0  0  0  0  0  0  0  0  0  0
    4.4194   -1.0476    1.8098 N   0  0  0  0  0  0  0  0  0  0  0  0
    3.3290   -1.8911    1.8072 C   0  0  0  0  0  0  0  0  0  0  0  0
    3.3111   -2.9730    1.2317 O   0  0  0  0  0  0  0  0  0  0  0  0
    2.1738   -1.3777    2.6392 C   0  0  0  0  0  0  0  0  0  0  0  0
    0.8899   -2.1557    2.3743 C   0  0  0  0  0  0  0  0  0  0  0  0
    0.2217   -1.7303    1.1582 N   0  0  0  0  0  0  0  0  0  0  0  0
    0.3620   -2.3158   -0.0690 C   0  0  0  0  0  0  0  0  0  0  0  0
   -0.3775   -1.7203   -0.9767 N   0  0  0  0  0  0  0  0  0  0  0  0
   -1.0189   -0.7053   -0.3139 C   0  0  0  0  0  0  0  0  0  0  0  0
   -1.9217    0.2429   -0.8093 C   0  0  0  0  0  0  0  0  0  0  0  0
   -2.4544    1.1743    0.0921 C   0  0  0  0  0  0  0  0  0  0  0  0
   -3.6215    2.3625   -0.5177 S   0  0  0  0  0  6  0  0  0  0  0  0
   -4.2099    3.0494    0.6145 O   0  0  0  0  0  0  0  0  0  0  0  0
   -2.9790    3.0956   -1.5863 O   0  0  0  0  0  0  0  0  0  0  0  0
   -4.8307    1.3842   -1.1935 N   0  0  0  0  0  0  0  0  0  0  0  0
   -5.5768    0.4813   -0.2762 C   0  0  0  0  0  0  0  0  0  0  0  0
   -7.0494    0.7704   -0.5353 C   0  0  0  0  0  0  0  0  0  0  0  0
   -7.0612    1.2361   -1.9769 C   0  0  0  0  0  0  0  0  0  0  0  0
   -5.8133    2.1020   -2.0440 C   0  0  0  0  0  0  0  0  0  0  0  0
   -2.0984    1.1786    1.4452 C   0  0  0  0  0  0  0  0  0  0  0  0
   -1.1901    0.2399    1.9460 C   0  0  0  0  0  0  0  0  0  0  0  0
   -0.6705   -0.6903    1.0364 C   0  0  0  0  0  0  0  0  0  0  0  0
    6.6901   -0.2269   -2.8921 H   0  0  0  0  0  0  0  0  0  0  0  0
    6.2188    1.2486   -3.7498 H   0  0  0  0  0  0  0  0  0  0  0  0
    7.3032    1.3703   -2.3500 H   0  0  0  0  0  0  0  0  0  0  0  0
    4.6897    1.0389   -0.0078 H   0  0  0  0  0  0  0  0  0  0  0  0
    6.4415    1.0315   -0.2046 H   0  0  0  0  0  0  0  0  0  0  0  0
    6.3300   -1.3546   -0.9797 H   0  0  0  0  0  0  0  0  0  0  0  0
    4.5812   -1.3284   -0.8785 H   0  0  0  0  0  0  0  0  0  0  0  0
    5.7944   -2.4243    1.0875 H   0  0  0  0  0  0  0  0  0  0  0  0
    6.4515   -0.8401    1.5245 H   0  0  0  0  0  0  0  0  0  0  0  0
    4.3312   -0.1280    2.2238 H   0  0  0  0  0  0  0  0  0  0  0  0
    2.4593   -1.5053    3.6901 H   0  0  0  0  0  0  0  0  0  0  0  0
    2.0332   -0.3072    2.4515 H   0  0  0  0  0  0  0  0  0  0  0  0
    0.1833   -1.9981    3.1973 H   0  0  0  0  0  0  0  0  0  0  0  0
    1.0587   -3.2363    2.3048 H   0  0  0  0  0  0  0  0  0  0  0  0
    1.0150   -3.1625   -0.2450 H   0  0  0  0  0  0  0  0  0  0  0  0
   -2.1947    0.2426   -1.8594 H   0  0  0  0  0  0  0  0  0  0  0  0
   -5.3307   -0.5522   -0.5437 H   0  0  0  0  0  0  0  0  0  0  0  0
   -5.3303    0.6295    0.7786 H   0  0  0  0  0  0  0  0  0  0  0  0
   -7.3951    1.5768    0.1228 H   0  0  0  0  0  0  0  0  0  0  0  0
   -7.6830   -0.1042   -0.3646 H   0  0  0  0  0  0  0  0  0  0  0  0
   -7.9685    1.7871   -2.2390 H   0  0  0  0  0  0  0  0  0  0  0  0
   -6.9684    0.3779   -2.6533 H   0  0  0  0  0  0  0  0  0  0  0  0
   -5.4444    2.1952   -3.0690 H   0  0  0  0  0  0  0  0  0  0  0  0
   -6.0250    3.0986   -1.6404 H   0  0  0  0  0  0  0  0  0  0  0  0
   -2.5245    1.9171    2.1226 H   0  0  0  0  0  0  0  0  0  0  0  0
   -0.9096    0.2412    2.9937 H   0  0  0  0  0  0  0  0  0  0  0  0
  1  2  1  0
  2  3  1  0
  3  4  1  0
  4  5  1  0
  5  6  1  0
  6  7  1  0
  7  8  2  0
  7  9  1  0
  9 10  1  0
 10 11  1  0
 11 12  1  0
 12 13  2  0
 13 14  1  0
 14 15  2  0
 15 16  1  0
 16 17  1  0
 17 18  2  0
 17 19  2  0
 17 20  1  0
 20 21  1  0
 21 22  1  0
 22 23  1  0
 23 24  1  0
 16 25  2  0
 25 26  1  0
 26 27  2  0
 27 11  1  0
 27 14  1  0
 24 20  1  0
  1 28  1  0
  1 29  1  0
  1 30  1  0
  3 31  1  0
  3 32  1  0
  4 33  1  0
  4 34  1  0
  5 35  1  0
  5 36  1  0
  6 37  1  0
  9 38  1  0
  9 39  1  0
 10 40  1  0
 10 41  1  0
 12 42  1  0
 15 43  1  0
 21 44  1  0
 21 45  1  0
 22 46  1  0
 22 47  1  0
 23 48  1  0
 23 49  1  0
 24 50  1  0
 24 51  1  0
 25 52  1  0
 26 53  1  0
M  END
$$$$
