
     RDKit          3D

 49 51  0  0  0  0  0  0  0  0999 V2000
    6.2195   -0.6285    1.7222 C   0  0  0  0  0  0  0  0  0  0  0  0
    6.5096    0.2713    0.5932 N   0  0  0  0  0  0  0  0  0  0  0  0
    6.6520   -0.4361   -0.6906 C   0  0  0  0  0  0  0  0  0  0  0  0
    5.6881    1.7616    0.5648 S   0  0  0  0  0  6  0  0  0  0  0  0
    5.7262    2.3253    1.8980 O   0  0  0  0  0  0  0  0  0  0  0  0
    6.1547    2.5185   -0.5776 O   0  0  0  0  0  0  0  0  0  0  0  0
    4.0001    1.2874    0.2387 C   0  0  0  0  0  0  0  0  0  0  0  0
    3.5538    1.1899   -1.0909 C   0  0  0  0  0  0  0  0  0  0  0  0
    2.2281    0.8359   -1.3631 C   0  0  0  0  0  0  0  0  0  0  0  0
    1.3704    0.6082   -0.2985 C   0  0  0  0  0  0  0  0  0  0  0  0
    1.8142    0.7316    1.0204 C   0  0  0  0  0  0  0  0  0  0  0  0
    3.1265    1.0743    1.3111 C   0  0  0  0  0  0  0  0  0  0  0  0
    0.7239    0.4177    1.9937 C   0  0  0  0  0  0  0  0  0  0  0  0
   -0.4873    0.2352    1.0702 C   0  0  0  0  0  0  0  0  0  0  0  0
    0.0074    0.2626   -0.3210 N   0  0  0  0  0  0  0  0  0  0  0  0
   -0.7253   -0.0358   -1.4572 C   0  0  0  0  0  0  0  0  0  0  0  0
   -0.2915   -0.1358   -2.6006 O   0  0  0  0  0  0  0  0  0  0  0  0
   -2.1672   -0.2958   -1.2695 C   0  0  0  0  0  0  0  0  0  0  0  0
   -3.0362    0.7510   -0.9481 C   0  0  0  0  0  0  0  0  0  0  0  0
   -4.3928    0.4835   -0.7587 C   0  0  0  0  0  0  0  0  0  0  0  0
   -4.8723   -0.8194   -0.9120 C   0  0  0  0  0  0  0  0  0  0  0  0
   -6.2444   -1.1068   -0.6503 N   0  0  0  0  0  0  0  0  0  0  0  0
   -6.6875   -1.2594    0.9807 S   0  0  0  0  0  6  0  0  0  0  0  0
   -7.8375    0.0885    1.1282 C   0  0  0  0  0  0  0  0  0  0  0  0
   -7.4381   -2.4938    1.0640 O   0  0  0  0  0  0  0  0  0  0  0  0
   -5.5576   -0.9947    1.8433 O   0  0  0  0  0  0  0  0  0  0  0  0
   -4.0033   -1.8616   -1.2448 C   0  0  0  0  0  0  0  0  0  0  0  0
   -2.6463   -1.5983   -1.4370 C   0  0  0  0  0  0  0  0  0  0  0  0
    5.2587   -1.1330    1.5864 H   0  0  0  0  0  0  0  0  0  0  0  0
    7.0033   -1.3905    1.7961 H   0  0  0  0  0  0  0  0  0  0  0  0
    6.2165   -0.0858    2.6720 H   0  0  0  0  0  0  0  0  0  0  0  0
    6.9536    0.2468   -1.4895 H   0  0  0  0  0  0  0  0  0  0  0  0
    5.7216   -0.9376   -0.9692 H   0  0  0  0  0  0  0  0  0  0  0  0
    7.4397   -1.1915   -0.6073 H   0  0  0  0  0  0  0  0  0  0  0  0
    4.2308    1.3937   -1.9183 H   0  0  0  0  0  0  0  0  0  0  0  0
    1.8920    0.7636   -2.3925 H   0  0  0  0  0  0  0  0  0  0  0  0
    3.4614    1.1754    2.3400 H   0  0  0  0  0  0  0  0  0  0  0  0
    0.5626    1.2302    2.7085 H   0  0  0  0  0  0  0  0  0  0  0  0
    0.9469   -0.5091    2.5321 H   0  0  0  0  0  0  0  0  0  0  0  0
   -1.0096   -0.7077    1.2662 H   0  0  0  0  0  0  0  0  0  0  0  0
   -1.1983    1.0589    1.2021 H   0  0  0  0  0  0  0  0  0  0  0  0
   -2.6610    1.7657   -0.8431 H   0  0  0  0  0  0  0  0  0  0  0  0
   -5.0665    1.2918   -0.4927 H   0  0  0  0  0  0  0  0  0  0  0  0
   -6.6121   -1.9150   -1.1596 H   0  0  0  0  0  0  0  0  0  0  0  0
   -8.6472   -0.0562    0.4101 H   0  0  0  0  0  0  0  0  0  0  0  0
   -8.2358    0.0789    2.1447 H   0  0  0  0  0  0  0  0  0  0  0  0
   -7.3116    1.0274    0.9454 H   0  0  0  0  0  0  0  0  0  0  0  0
   -4.3674   -2.8803   -1.3471 H   0  0  0  0  0  0  0  0  0  0  0  0
   -1.9648   -2.4020   -1.7053 H   0  0  0  0  0  0  0  0  0  0  0  0
  1  2  1  0
  2  3  1  0
  2  4  1  0
  4  5  2  0
  4  6  2  0
  4  7  1  0
  7  8  2  0
  8  9  1  0
  9 10  2  0
 10 11  1  0
 11 12  2  0
 11 13  1  0
 13 14  1  0
 14 15  1  0
 15 16  1  0
 16 17  2  0
 16 18  1  0
 18 19  2  0
 19 20  1  0
 20 21  2  0
 21 22  1  0
 22 23  1  0
 23 24  1  0
 23 25  2  0
 23 26  2  0
 21 27  1  0
 27 28  2  0
 12  7  1  0
 28 18  1  0
 15 10  1  0
  1 29  1  0
  1 30  1  0
  1 31  1  0
  3 32  1  0
  3 33  1  0
  3 34  1  0
  8 35  1  0
  9 36  1  0
 12 37  1  0
 13 38  1  0
 13 39  1  0
 14 40  1  0
 14 41  1  0
 19 42  1  0
 20 43  1  0
 22 44  1  0
 24 45  1  0
 24 46  1  0
 24 47  1  0
 27 48  1  0
 28 49  1  0
M  END
$$$$
