
     RDKit          3D

 49 50  0  0  0  0  0  0  0  0999 V2000
    6.9356   -2.0426   -2.0090 C   0  0  0  0  0  0  0  0  0  0  0  0
    6.3056   -1.2773   -0.8569 C   0  0  0  0  0  0  0  0  0  0  0  0
    6.0797    0.1886   -1.2183 C   0  0  0  0  0  0  0  0  0  0  0  0
    5.5191    0.9413   -0.1124 N   0  0  0  0  0  0  0  0  0  0  0  0
    4.1847    0.8517    0.1872 C   0  0  0  0  0  0  0  0  0  0  0  0
    3.3840    0.1207   -0.3780 O   0  0  0  0  0  0  0  0  0  0  0  0
    3.8528    1.7028    1.2142 N   0  0  0  0  0  0  0  0  0  0  0  0
    2.5091    1.6597    1.7700 C   0  0  0  0  0  0  0  0  0  0  0  0
    1.4496    2.2230    0.8271 C   0  0  0  0  0  0  0  0  0  0  0  0
    0.1221    2.0417    1.3688 N   0  0  0  0  0  0  0  0  0  0  0  0
   -0.4130    2.9803    2.1714 N   0  0  0  0  0  0  0  0  0  0  0  0
   -1.6166    2.5551    2.5336 N   0  0  0  0  0  0  0  0  0  0  0  0
   -1.8300    1.3330    1.9539 C   0  0  0  0  0  0  0  0  0  0  0  0
   -2.9305    0.4712    2.0267 C   0  0  0  0  0  0  0  0  0  0  0  0
   -2.8615   -0.7326    1.3104 C   0  0  0  0  0  0  0  0  0  0  0  0
   -4.2305   -1.8604    1.3801 S   0  0  0  0  0  6  0  0  0  0  0  0
   -3.6941   -3.2027    1.3400 O   0  0  0  0  0  0  0  0  0  0  0  0
   -5.1371   -1.4327    2.4212 O   0  0  0  0  0  0  0  0  0  0  0  0
   -4.9615   -1.6010   -0.1014 N   0  0  0  0  0  0  0  0  0  0  0  0
   -5.8292   -0.4403   -0.3147 C   0  0  0  0  0  0  0  0  0  0  0  0
   -5.5653    0.1008   -1.7156 C   0  0  0  0  0  0  0  0  0  0  0  0
   -7.2845   -0.8638   -0.1589 C   0  0  0  0  0  0  0  0  0  0  0  0
   -1.7281   -1.0850    0.5647 C   0  0  0  0  0  0  0  0  0  0  0  0
   -0.6245   -0.2286    0.4902 C   0  0  0  0  0  0  0  0  0  0  0  0
   -0.7201    0.9754    1.1964 C   0  0  0  0  0  0  0  0  0  0  0  0
    7.0916   -3.0890   -1.7288 H   0  0  0  0  0  0  0  0  0  0  0  0
    6.2910   -2.0200   -2.8934 H   0  0  0  0  0  0  0  0  0  0  0  0
    7.9064   -1.6153   -2.2797 H   0  0  0  0  0  0  0  0  0  0  0  0
    6.9559   -1.3458    0.0236 H   0  0  0  0  0  0  0  0  0  0  0  0
    5.3572   -1.7542   -0.5842 H   0  0  0  0  0  0  0  0  0  0  0  0
    5.4109    0.2786   -2.0819 H   0  0  0  0  0  0  0  0  0  0  0  0
    7.0327    0.6637   -1.4755 H   0  0  0  0  0  0  0  0  0  0  0  0
    5.9228    1.8501    0.0635 H   0  0  0  0  0  0  0  0  0  0  0  0
    4.6035    1.8297    1.8796 H   0  0  0  0  0  0  0  0  0  0  0  0
    2.5299    2.2368    2.7015 H   0  0  0  0  0  0  0  0  0  0  0  0
    2.2863    0.6187    2.0346 H   0  0  0  0  0  0  0  0  0  0  0  0
    1.6064    3.2958    0.6637 H   0  0  0  0  0  0  0  0  0  0  0  0
    1.4703    1.7473   -0.1582 H   0  0  0  0  0  0  0  0  0  0  0  0
   -3.7974    0.7402    2.6209 H   0  0  0  0  0  0  0  0  0  0  0  0
   -5.0826   -2.4380   -0.6689 H   0  0  0  0  0  0  0  0  0  0  0  0
   -5.6003    0.3519    0.4061 H   0  0  0  0  0  0  0  0  0  0  0  0
   -4.5170    0.4005   -1.8239 H   0  0  0  0  0  0  0  0  0  0  0  0
   -5.7734   -0.6535   -2.4828 H   0  0  0  0  0  0  0  0  0  0  0  0
   -6.1904    0.9762   -1.9199 H   0  0  0  0  0  0  0  0  0  0  0  0
   -7.5493   -1.6540   -0.8704 H   0  0  0  0  0  0  0  0  0  0  0  0
   -7.9566   -0.0159   -0.3269 H   0  0  0  0  0  0  0  0  0  0  0  0
   -7.4761   -1.2510    0.8474 H   0  0  0  0  0  0  0  0  0  0  0  0
   -1.6969   -2.0365    0.0348 H   0  0  0  0  0  0  0  0  0  0  0  0
    0.2593   -0.4945   -0.0836 H   0  0  0  0  0  0  0  0  0  0  0  0
  1  2  1  0
  2  3  1  0
  3  4  1  0
  4  5  1  0
  5  6  2  0
  5  7  1  0
  7  8  1  0
  8  9  1  0
  9 10  1  0
 10 11  1  0
 11 12  2  0
 12 13  1  0
 13 14  2  0
 14 15  1  0
 15 16  1  0
 16 17  2  0
 16 18  2  0
 16 19  1  0
 19 20  1  0
 20 21  1  0
 20 22  1  0
 15 23  2  0
 23 24  1  0
 24 25  2  0
 25 10  1  0
 25 13  1  0
  1 26  1  0
  1 27  1  0
  1 28  1  0
  2 29  1  0
  2 30  1  0
  3 31  1  0
  3 32  1  0
  4 33  1  0
  7 34  1  0
  8 35  1  0
  8 36  1  0
  9 37  1  0
  9 38  1  0
 14 39  1  0
 19 40  1  0
 20 41  1  0
 21 42  1  0
 21 43  1  0
 21 44  1  0
 22 45  1  0
 22 46  1  0
 22 47  1  0
 23 48  1  0
 24 49  1  0
M  END
$$$$
