
     RDKit          3D

 31 32  0  0  0  0  0  0  0  0999 V2000
   -4.0558    1.1040   -0.4830 C   0  0  0  0  0  0  0  0  0  0  0  0
   -3.3966   -0.0644    0.2531 C   0  0  0  0  0  0  0  0  0  0  0  0
   -3.9360   -1.3848   -0.2656 C   0  0  0  0  0  0  0  0  0  0  0  0
   -4.2844   -1.6390   -1.4077 O   0  0  0  0  0  0  0  0  0  0  0  0
   -3.9874   -2.3379    0.6884 O   0  0  0  0  0  0  0  0  0  0  0  0
   -1.8824   -0.0036    0.1710 C   0  0  0  0  0  0  0  0  0  0  0  0
   -1.2086   -0.0983   -1.0546 C   0  0  0  0  0  0  0  0  0  0  0  0
    0.1898   -0.0407   -1.1103 C   0  0  0  0  0  0  0  0  0  0  0  0
    0.9621    0.1123    0.0536 C   0  0  0  0  0  0  0  0  0  0  0  0
    2.4334    0.1719   -0.0178 C   0  0  0  0  0  0  0  0  0  0  0  0
    3.1526    1.1992    0.6162 C   0  0  0  0  0  0  0  0  0  0  0  0
    4.5471    1.2604    0.5398 C   0  0  0  0  0  0  0  0  0  0  0  0
    5.2496    0.2930   -0.1732 C   0  0  0  0  0  0  0  0  0  0  0  0
    4.5593   -0.7356   -0.8080 C   0  0  0  0  0  0  0  0  0  0  0  0
    3.1647   -0.7947   -0.7306 C   0  0  0  0  0  0  0  0  0  0  0  0
    0.2722    0.2064    1.2707 C   0  0  0  0  0  0  0  0  0  0  0  0
    0.9461    0.3466    2.4234 F   0  0  0  0  0  0  0  0  0  0  0  0
   -1.1216    0.1488    1.3363 C   0  0  0  0  0  0  0  0  0  0  0  0
   -3.7094    2.0639   -0.0843 H   0  0  0  0  0  0  0  0  0  0  0  0
   -3.8389    1.0902   -1.5570 H   0  0  0  0  0  0  0  0  0  0  0  0
   -5.1452    1.0636   -0.3722 H   0  0  0  0  0  0  0  0  0  0  0  0
   -3.7105    0.0155    1.3030 H   0  0  0  0  0  0  0  0  0  0  0  0
   -4.3122   -3.1327    0.2155 H   0  0  0  0  0  0  0  0  0  0  0  0
   -1.7640   -0.2197   -1.9842 H   0  0  0  0  0  0  0  0  0  0  0  0
    0.6754   -0.1048   -2.0829 H   0  0  0  0  0  0  0  0  0  0  0  0
    2.6261    1.9686    1.1779 H   0  0  0  0  0  0  0  0  0  0  0  0
    5.0814    2.0640    1.0396 H   0  0  0  0  0  0  0  0  0  0  0  0
    6.3338    0.3391   -0.2309 H   0  0  0  0  0  0  0  0  0  0  0  0
    5.1043   -1.4962   -1.3609 H   0  0  0  0  0  0  0  0  0  0  0  0
    2.6499   -1.6164   -1.2245 H   0  0  0  0  0  0  0  0  0  0  0  0
   -1.5949    0.2216    2.3119 H   0  0  0  0  0  0  0  0  0  0  0  0
  1  2  1  0
  2  3  1  0
  3  4  2  0
  3  5  1  0
  2  6  1  0
  6  7  2  0
  7  8  1  0
  8  9  2  0
  9 10  1  0
 10 11  2  0
 11 12  1  0
 12 13  2  0
 13 14  1  0
 14 15  2  0
  9 16  1  0
 16 17  1  0
 16 18  2  0
 18  6  1  0
 15 10  1  0
  1 19  1  0
  1 20  1  0
  1 21  1  0
  2 22  1  0
  5 23  1  0
  7 24  1  0
  8 25  1  0
 11 26  1  0
 12 27  1  0
 13 28  1  0
 14 29  1  0
 15 30  1  0
 18 31  1  0
M  END
$$$$
