
     RDKit          3D

 38 38  0  0  0  0  0  0  0  0999 V2000
   -1.1682   -1.5341   -2.4984 N   0  0  0  0  0  0  0  0  0  0  0  0
   -1.7757   -0.6988   -1.6187 C   0  0  0  0  0  0  0  0  0  0  0  0
   -1.4868   -0.7646   -0.3532 N   0  0  0  0  0  0  0  0  0  0  0  0
   -1.9409    0.2678    0.3702 C   0  0  0  0  0  0  0  0  0  0  0  0
   -2.8830    1.1973    0.0074 C   0  0  0  0  0  0  0  0  0  0  0  0
   -3.0745    2.1208    1.0101 N   0  0  0  0  0  0  0  0  0  0  0  0
   -2.1206    1.8380    1.8818 C   0  0  0  0  0  0  0  0  0  0  0  0
   -1.3503    0.7587    1.4954 N   0  0  0  0  0  0  0  0  0  0  0  0
   -0.0269    0.4582    2.0251 C   0  0  2  0  0  0  0  0  0  0  0  0
    0.8546    1.5369    1.5946 O   0  0  0  0  0  0  0  0  0  0  0  0
    1.9573    0.9280    0.8605 C   0  0  2  0  0  0  0  0  0  0  0  0
    1.6581    0.9633   -0.6430 C   0  0  0  0  0  0  0  0  0  0  0  0
    2.6032    0.2183   -1.3787 O   0  0  0  0  0  0  0  0  0  0  0  0
    2.0125   -0.9796   -2.3255 P   0  0  0  0  0  5  0  0  0  0  0  0
    0.9755   -0.3031   -3.2166 O   0  0  0  0  0  0  0  0  0  0  0  0
    1.3615   -1.9411   -1.3403 O   0  0  0  0  0  1  0  0  0  0  0  0
    3.2298   -1.5243   -3.0393 O   0  0  0  0  0  1  0  0  0  0  0  0
    2.1021   -0.4621    1.4604 C   0  0  1  0  0  0  0  0  0  0  0  0
    2.7302   -0.3736    2.7677 O   0  0  0  0  0  0  0  0  0  0  0  0
    0.6561   -0.8793    1.6655 C   0  0  1  0  0  0  0  0  0  0  0  0
    0.5693   -1.8727    2.7099 O   0  0  0  0  0  0  0  0  0  0  0  0
   -3.3817    1.1332   -1.3590 C   0  0  0  0  0  0  0  0  0  0  0  0
   -4.2910    1.8272   -1.8110 O   0  0  0  0  0  0  0  0  0  0  0  0
   -2.6880    0.2037   -2.1274 N   0  0  0  0  0  0  0  0  0  0  0  0
    0.0000    0.0000    0.0000 Na  0  0  0  0  0 15  0  0  0  0  0  0
    0.0000    0.0000    0.0000 Na  0  0  0  0  0 15  0  0  0  0  0  0
   -0.4867   -0.9740   -3.0730 H   0  0  0  0  0  0  0  0  0  0  0  0
   -0.4153   -2.0271   -1.9694 H   0  0  0  0  0  0  0  0  0  0  0  0
   -1.8931    2.4074    2.7726 H   0  0  0  0  0  0  0  0  0  0  0  0
   -0.1237    0.5402    3.1152 H   0  0  0  0  0  0  0  0  0  0  0  0
    2.8539    1.5238    1.0654 H   0  0  0  0  0  0  0  0  0  0  0  0
    1.7031    2.0028   -0.9879 H   0  0  0  0  0  0  0  0  0  0  0  0
    0.6387    0.6412   -0.8510 H   0  0  0  0  0  0  0  0  0  0  0  0
    2.6932   -1.1665    0.8714 H   0  0  0  0  0  0  0  0  0  0  0  0
    2.4000   -1.1677    3.2316 H   0  0  0  0  0  0  0  0  0  0  0  0
    0.2848   -1.3411    0.7617 H   0  0  0  0  0  0  0  0  0  0  0  0
    0.6913   -2.7115    2.2183 H   0  0  0  0  0  0  0  0  0  0  0  0
   -2.8686    0.1546   -3.1139 H   0  0  0  0  0  0  0  0  0  0  0  0
  1  2  1  0
  2  3  2  0
  3  4  1  0
  4  5  2  0
  5  6  1  0
  6  7  2  0
  7  8  1  0
  8  9  1  0
  9 10  1  0
 10 11  1  0
 11 12  1  0
 12 13  1  0
 13 14  1  0
 14 15  2  0
 14 16  1  0
 14 17  1  0
 11 18  1  0
 18 19  1  0
 18 20  1  0
 20 21  1  0
  5 22  1  0
 22 23  2  0
 22 24  1  0
 24  2  1  0
  8  4  1  0
 20  9  1  0
  1 27  1  0
  1 28  1  0
  7 29  1  0
  9 30  1  1
 11 31  1  6
 12 32  1  0
 12 33  1  0
 18 34  1  6
 19 35  1  0
 20 36  1  6
 21 37  1  0
 24 38  1  0
M  CHG  4  16  -1  17  -1  25   1  26   1
M  END
$$$$
