
     RDKit          3D

 18 18  0  0  0  0  0  0  0  0999 V2000
    4.1039    0.9789   -0.2658 O   0  0  0  0  0  0  0  0  0  0  0  0
    3.7028   -0.1671   -0.1116 C   0  0  0  0  0  0  0  0  0  0  0  0
    2.2704   -0.5366   -0.0154 C   0  0  0  0  0  0  0  0  0  0  0  0
    1.3247    0.4108   -0.0974 C   0  0  0  0  0  0  0  0  0  0  0  0
   -0.1324    0.1988   -0.0195 C   0  0  0  0  0  0  0  0  0  0  0  0
   -0.7281   -1.0581    0.1552 C   0  0  0  0  0  0  0  0  0  0  0  0
   -2.1196   -1.1894    0.2208 C   0  0  0  0  0  0  0  0  0  0  0  0
   -2.9353   -0.0665    0.1127 C   0  0  0  0  0  0  0  0  0  0  0  0
   -2.3612    1.1890   -0.0611 C   0  0  0  0  0  0  0  0  0  0  0  0
   -0.9710    1.3195   -0.1265 C   0  0  0  0  0  0  0  0  0  0  0  0
    4.3978   -1.0195   -0.0323 H   0  0  0  0  0  0  0  0  0  0  0  0
    2.0655   -1.5890    0.1203 H   0  0  0  0  0  0  0  0  0  0  0  0
    1.6367    1.4467   -0.2349 H   0  0  0  0  0  0  0  0  0  0  0  0
   -0.1305   -1.9598    0.2441 H   0  0  0  0  0  0  0  0  0  0  0  0
   -2.5652   -2.1716    0.3567 H   0  0  0  0  0  0  0  0  0  0  0  0
   -4.0160   -0.1697    0.1639 H   0  0  0  0  0  0  0  0  0  0  0  0
   -2.9926    2.0697   -0.1461 H   0  0  0  0  0  0  0  0  0  0  0  0
   -0.5500    2.3138   -0.2630 H   0  0  0  0  0  0  0  0  0  0  0  0
  1  2  2  0
  2  3  1  0
  3  4  2  0
  4  5  1  0
  5  6  2  0
  6  7  1  0
  7  8  2  0
  8  9  1  0
  9 10  2  0
 10  5  1  0
  2 11  1  0
  3 12  1  0
  4 13  1  0
  6 14  1  0
  7 15  1  0
  8 16  1  0
  9 17  1  0
 10 18  1  0
M  END
$$$$
