
     RDKit          3D

 34 33  0  0  0  0  0  0  0  0999 V2000
   -3.5241    0.8057   -0.7839 C   0  0  0  0  0  0  0  0  0  0  0  0
   -3.1378    0.5163    0.6553 C   0  0  0  0  0  0  0  0  0  0  0  0
   -3.3670   -0.9212    0.9519 C   0  0  0  0  0  0  0  0  0  0  0  0
   -2.0037    1.1653    1.1121 N   0  0  0  0  0  0  0  0  0  0  0  0
   -0.7273    1.0699    0.5910 C   0  0  0  0  0  0  0  0  0  0  0  0
   -0.0349   -0.2217    0.7489 C   0  0  0  0  0  0  0  0  0  0  0  0
   -0.7189   -1.2352    0.0978 O   0  0  0  0  0  0  0  0  0  0  0  0
    1.3568   -0.2335    0.1760 C   0  0  0  0  0  0  0  0  0  0  0  0
    2.0305   -1.4354    0.0234 C   0  0  0  0  0  0  0  0  0  0  0  0
    3.3046   -1.4988   -0.4989 C   0  0  0  0  0  0  0  0  0  0  0  0
    3.9643   -0.3546   -0.8938 C   0  0  0  0  0  0  0  0  0  0  0  0
    5.2487   -0.4376   -1.4186 O   0  0  0  0  0  0  0  0  0  0  0  0
    3.3046    0.8430   -0.7465 C   0  0  0  0  0  0  0  0  0  0  0  0
    3.9185    2.0164   -1.1254 O   0  0  0  0  0  0  0  0  0  0  0  0
    2.0103    0.9076   -0.2160 C   0  0  0  0  0  0  0  0  0  0  0  0
    0.6845    0.0000    0.0000 Cl  0  0  0  0  0  0  0  0  0  0  0  0
   -2.9113    0.2435   -1.5062 H   0  0  0  0  0  0  0  0  0  0  0  0
   -3.5450    1.8834   -1.0145 H   0  0  0  0  0  0  0  0  0  0  0  0
   -4.5656    0.4311   -0.9026 H   0  0  0  0  0  0  0  0  0  0  0  0
   -4.0160    1.0531    1.2275 H   0  0  0  0  0  0  0  0  0  0  0  0
   -4.4392   -1.0248    1.3387 H   0  0  0  0  0  0  0  0  0  0  0  0
   -3.3440   -1.5803    0.0544 H   0  0  0  0  0  0  0  0  0  0  0  0
   -2.7685   -1.3077    1.8104 H   0  0  0  0  0  0  0  0  0  0  0  0
   -2.0422    1.3264    2.1418 H   0  0  0  0  0  0  0  0  0  0  0  0
   -0.6239    1.3634   -0.4894 H   0  0  0  0  0  0  0  0  0  0  0  0
   -0.0600    1.8403    1.1275 H   0  0  0  0  0  0  0  0  0  0  0  0
    0.0114   -0.4411    1.8504 H   0  0  0  0  0  0  0  0  0  0  0  0
   -0.7412   -0.9925   -0.8764 H   0  0  0  0  0  0  0  0  0  0  0  0
    1.4972   -2.3364    0.3402 H   0  0  0  0  0  0  0  0  0  0  0  0
    3.8243   -2.4606   -0.6127 H   0  0  0  0  0  0  0  0  0  0  0  0
    5.7471   -1.2898   -1.5359 H   0  0  0  0  0  0  0  0  0  0  0  0
    4.8423    2.0768   -1.5149 H   0  0  0  0  0  0  0  0  0  0  0  0
    1.5098    1.8636   -0.1113 H   0  0  0  0  0  0  0  0  0  0  0  0
   -0.6845    0.0000    0.0000 H   0  0  0  0  0  0  0  0  0  0  0  0
  1  2  1  0
  2  3  1  0
  2  4  1  0
  4  5  1  0
  5  6  1  0
  6  7  1  0
  6  8  1  0
  8  9  2  0
  9 10  1  0
 10 11  2  0
 11 12  1  0
 11 13  1  0
 13 14  1  0
 13 15  2  0
 15  8  1  0
  1 17  1  0
  1 18  1  0
  1 19  1  0
  2 20  1  0
  3 21  1  0
  3 22  1  0
  3 23  1  0
  4 24  1  0
  5 25  1  0
  5 26  1  0
  6 27  1  0
  7 28  1  0
  9 29  1  0
 10 30  1  0
 12 31  1  0
 14 32  1  0
 15 33  1  0
 16 34  1  0
M  END
$$$$
