
     RDKit          3D

 38 40  0  0  0  0  0  0  0  0999 V2000
   -4.3511    1.5277    2.5748 C   0  0  0  0  0  0  0  0  0  0  0  0
   -4.2479    1.0961    1.1655 C   0  0  0  0  0  0  0  0  0  0  0  0
   -3.3065    0.3482    0.4934 C   0  0  0  0  0  0  0  0  0  0  0  0
   -3.7605    0.2762   -0.8435 C   0  0  0  0  0  0  0  0  0  0  0  0
   -3.1709   -0.3720   -1.8668 N   0  0  0  0  0  0  0  0  0  0  0  0
   -1.8410   -0.8211   -2.0326 C   0  0  0  0  0  0  0  0  0  0  0  0
   -0.9068   -0.5350   -1.0981 N   0  0  0  0  0  0  0  0  0  0  0  0
    0.3367   -1.0021   -1.2622 C   0  0  0  0  0  0  0  0  0  0  0  0
    1.2332   -0.6792   -0.2726 N   0  0  0  0  0  0  0  0  0  0  0  0
    2.6423   -0.5299   -0.6367 C   0  0  1  0  0  0  0  0  0  0  0  0
    2.8590    0.6731   -1.5594 C   0  0  0  0  0  0  0  0  0  0  0  0
    3.4853   -0.3221    0.6278 C   0  0  0  0  0  0  0  0  0  0  0  0
    4.6560   -0.9948    0.7277 N   0  0  0  0  0  0  0  0  0  0  0  0
    5.3790   -0.7829    1.8496 C   0  0  0  0  0  0  0  0  0  0  0  0
    4.9882    0.0708    2.8504 C   0  0  0  0  0  0  0  0  0  0  0  0
    5.7282    0.2599    3.9479 F   0  0  0  0  0  0  0  0  0  0  0  0
    3.7967    0.7232    2.6572 C   0  0  0  0  0  0  0  0  0  0  0  0
    3.0278    0.5554    1.5592 N   0  0  0  0  0  0  0  0  0  0  0  0
    0.7222   -1.7440   -2.3065 N   0  0  0  0  0  0  0  0  0  0  0  0
   -0.2217   -2.0343   -3.2223 C   0  0  0  0  0  0  0  0  0  0  0  0
   -1.5235   -1.6019   -3.1370 C   0  0  0  0  0  0  0  0  0  0  0  0
   -2.6578   -2.0107   -4.3633 Cl  0  0  0  0  0  0  0  0  0  0  0  0
   -4.9198    0.9231   -0.9927 N   0  0  0  0  0  0  0  0  0  0  0  0
   -5.1867    1.4143    0.2267 N   0  0  0  0  0  0  0  0  0  0  0  0
   -5.2604    1.1282    3.0351 H   0  0  0  0  0  0  0  0  0  0  0  0
   -3.4939    1.1749    3.1571 H   0  0  0  0  0  0  0  0  0  0  0  0
   -4.3798    2.6199    2.6430 H   0  0  0  0  0  0  0  0  0  0  0  0
   -2.4141   -0.0915    0.9151 H   0  0  0  0  0  0  0  0  0  0  0  0
   -3.6453   -0.2553   -2.7554 H   0  0  0  0  0  0  0  0  0  0  0  0
    0.8655    0.0766    0.2949 H   0  0  0  0  0  0  0  0  0  0  0  0
    3.0053   -1.4424   -1.1264 H   0  0  0  0  0  0  0  0  0  0  0  0
    3.9240    0.8146   -1.7762 H   0  0  0  0  0  0  0  0  0  0  0  0
    2.4852    1.5995   -1.1074 H   0  0  0  0  0  0  0  0  0  0  0  0
    2.3429    0.5445   -2.5164 H   0  0  0  0  0  0  0  0  0  0  0  0
    6.3096   -1.3355    1.9226 H   0  0  0  0  0  0  0  0  0  0  0  0
    3.4169    1.4178    3.3985 H   0  0  0  0  0  0  0  0  0  0  0  0
    0.1187   -2.6460   -4.0523 H   0  0  0  0  0  0  0  0  0  0  0  0
   -6.0350    1.9570    0.3489 H   0  0  0  0  0  0  0  0  0  0  0  0
  1  2  1  0
  2  3  2  0
  3  4  1  0
  4  5  1  0
  5  6  1  0
  6  7  2  0
  7  8  1  0
  8  9  1  0
  9 10  1  0
 10 11  1  0
 10 12  1  0
 12 13  2  0
 13 14  1  0
 14 15  2  0
 15 16  1  0
 15 17  1  0
 17 18  2  0
  8 19  2  0
 19 20  1  0
 20 21  2  0
 21 22  1  0
  4 23  2  0
 23 24  1  0
 24  2  1  0
 21  6  1  0
 18 12  1  0
  1 25  1  0
  1 26  1  0
  1 27  1  0
  3 28  1  0
  5 29  1  0
  9 30  1  0
 10 31  1  6
 11 32  1  0
 11 33  1  0
 11 34  1  0
 14 35  1  0
 17 36  1  0
 20 37  1  0
 24 38  1  0
M  END
$$$$
