
     RDKit          3D

 47 48  0  0  0  0  0  0  0  0999 V2000
    5.6426   -0.4825   -1.8114 C   0  0  0  0  0  0  0  0  0  0  0  0
    4.4713   -0.2704   -0.8980 C   0  0  0  0  0  0  0  0  0  0  0  0
    3.7516    0.9237   -0.9357 C   0  0  0  0  0  0  0  0  0  0  0  0
    2.6684    1.1574   -0.0680 C   0  0  0  0  0  0  0  0  0  0  0  0
    1.9800    2.4940   -0.1819 C   0  0  0  0  0  0  0  0  0  0  0  0
    2.3146    0.1597    0.8788 C   0  0  0  0  0  0  0  0  0  0  0  0
    0.9210    0.4610    1.9813 S   0  0  0  0  0  6  0  0  0  0  0  0
    1.0439    1.8018    2.5071 O   0  0  0  0  0  0  0  0  0  0  0  0
    0.7007   -0.6609    2.8660 O   0  0  0  0  0  0  0  0  0  0  0  0
   -0.3679    0.4727    0.9085 N   0  0  0  0  0  0  0  0  0  0  0  0
   -0.9522   -0.8036    0.4763 C   0  0  0  0  0  0  0  0  0  0  0  0
   -1.8851   -0.5921   -0.7266 C   0  0  0  0  0  0  0  0  0  0  0  0
   -2.1930   -1.9070   -1.4430 C   0  0  0  0  0  0  0  0  0  0  0  0
   -3.0736    0.1611   -0.3443 N   0  0  0  0  0  0  0  0  0  0  0  0
   -3.0760    1.4969   -0.5536 N   0  0  0  0  0  0  0  0  0  0  0  0
   -4.2665    1.8540   -0.0647 C   0  0  0  0  0  0  0  0  0  0  0  0
   -4.7516    3.2474   -0.0817 C   0  0  0  0  0  0  0  0  0  0  0  0
   -4.9919    0.8283    0.4689 N   0  0  0  0  0  0  0  0  0  0  0  0
   -4.2222   -0.2279    0.3003 C   0  0  0  0  0  0  0  0  0  0  0  0
   -4.5517   -1.6016    0.7418 C   0  0  0  0  0  0  0  0  0  0  0  0
    3.0570   -1.0448    0.9463 C   0  0  0  0  0  0  0  0  0  0  0  0
    2.7922   -2.1550    1.9273 C   0  0  0  0  0  0  0  0  0  0  0  0
    4.1270   -1.2353    0.0498 C   0  0  0  0  0  0  0  0  0  0  0  0
    6.5553   -0.0999   -1.3446 H   0  0  0  0  0  0  0  0  0  0  0  0
    5.4908    0.0311   -2.7666 H   0  0  0  0  0  0  0  0  0  0  0  0
    5.7776   -1.5463   -2.0338 H   0  0  0  0  0  0  0  0  0  0  0  0
    4.0426    1.6911   -1.6527 H   0  0  0  0  0  0  0  0  0  0  0  0
    2.3074    3.0341   -1.0779 H   0  0  0  0  0  0  0  0  0  0  0  0
    2.2251    3.1238    0.6780 H   0  0  0  0  0  0  0  0  0  0  0  0
    0.8977    2.3852   -0.2766 H   0  0  0  0  0  0  0  0  0  0  0  0
   -0.9780    1.2916    0.9974 H   0  0  0  0  0  0  0  0  0  0  0  0
   -0.1446   -1.4874    0.1922 H   0  0  0  0  0  0  0  0  0  0  0  0
   -1.4990   -1.2470    1.3151 H   0  0  0  0  0  0  0  0  0  0  0  0
   -1.3638    0.0398   -1.4606 H   0  0  0  0  0  0  0  0  0  0  0  0
   -1.2872   -2.2989   -1.9189 H   0  0  0  0  0  0  0  0  0  0  0  0
   -2.5510   -2.6779   -0.7550 H   0  0  0  0  0  0  0  0  0  0  0  0
   -2.9478   -1.7660   -2.2240 H   0  0  0  0  0  0  0  0  0  0  0  0
   -4.7548    3.6422   -1.1022 H   0  0  0  0  0  0  0  0  0  0  0  0
   -5.7714    3.3107    0.3098 H   0  0  0  0  0  0  0  0  0  0  0  0
   -4.1101    3.8841    0.5352 H   0  0  0  0  0  0  0  0  0  0  0  0
   -4.8161   -2.2290   -0.1142 H   0  0  0  0  0  0  0  0  0  0  0  0
   -5.4128   -1.5849    1.4180 H   0  0  0  0  0  0  0  0  0  0  0  0
   -3.7205   -2.0617    1.2823 H   0  0  0  0  0  0  0  0  0  0  0  0
    1.8001   -2.5858    1.7633 H   0  0  0  0  0  0  0  0  0  0  0  0
    3.5093   -2.9757    1.8099 H   0  0  0  0  0  0  0  0  0  0  0  0
    2.9017   -1.7957    2.9548 H   0  0  0  0  0  0  0  0  0  0  0  0
    4.7112   -2.1543    0.0960 H   0  0  0  0  0  0  0  0  0  0  0  0
  1  2  1  0
  2  3  2  0
  3  4  1  0
  4  5  1  0
  4  6  2  0
  6  7  1  0
  7  8  2  0
  7  9  2  0
  7 10  1  0
 10 11  1  0
 11 12  1  0
 12 13  1  0
 12 14  1  0
 14 15  1  0
 15 16  2  0
 16 17  1  0
 16 18  1  0
 18 19  2  0
 19 20  1  0
  6 21  1  0
 21 22  1  0
 21 23  2  0
 23  2  1  0
 19 14  1  0
  1 24  1  0
  1 25  1  0
  1 26  1  0
  3 27  1  0
  5 28  1  0
  5 29  1  0
  5 30  1  0
 10 31  1  0
 11 32  1  0
 11 33  1  0
 12 34  1  0
 13 35  1  0
 13 36  1  0
 13 37  1  0
 17 38  1  0
 17 39  1  0
 17 40  1  0
 20 41  1  0
 20 42  1  0
 20 43  1  0
 22 44  1  0
 22 45  1  0
 22 46  1  0
 23 47  1  0
M  END
$$$$
