
     RDKit          3D

 69 72  0  0  0  0  0  0  0  0999 V2000
   -4.2941    4.6983   -0.1161 C   0  0  0  0  0  0  0  0  0  0  0  0
   -3.4480    3.5952    0.3070 N   0  0  0  0  0  0  0  0  0  0  0  0
   -2.5920    3.0650   -0.7769 C   0  0  1  0  0  0  0  0  0  0  0  0
   -1.5992    4.0864   -1.3299 C   0  0  0  0  0  0  0  0  0  0  0  0
   -1.8071    1.8687   -0.1908 C   0  0  0  0  0  0  0  0  0  0  0  0
   -0.8523    2.0034    0.5786 O   0  0  0  0  0  0  0  0  0  0  0  0
   -2.3001    0.6355   -0.5577 N   0  0  0  0  0  0  0  0  0  0  0  0
   -1.6226   -0.6051   -0.2005 C   0  0  2  0  0  0  0  0  0  0  0  0
   -1.4883   -1.4300   -1.5025 C   0  0  0  0  0  0  0  0  0  0  0  0
   -2.4862   -1.7045   -2.1777 O   0  0  0  0  0  0  0  0  0  0  0  0
   -0.2279   -1.8229   -1.9025 N   0  0  0  0  0  0  0  0  0  0  0  0
   -0.0460   -2.6942   -3.0442 C   0  0  0  0  0  0  0  0  0  0  0  0
    1.2907   -3.3570   -2.7639 C   0  0  0  0  0  0  0  0  0  0  0  0
    2.1018   -2.2425   -2.1142 C   0  0  0  0  0  0  0  0  0  0  0  0
    1.0631   -1.4062   -1.3440 C   0  0  1  0  0  0  0  0  0  0  0  0
    1.3684    0.0991   -1.5700 C   0  0  0  0  0  0  0  0  0  0  0  0
    0.7099    0.7833   -2.3474 O   0  0  0  0  0  0  0  0  0  0  0  0
    2.4658    0.5171   -0.8343 N   0  0  0  0  0  0  0  0  0  0  0  0
    2.9556    1.8120   -0.7681 C   0  0  0  0  0  0  0  0  0  0  0  0
    2.2556    3.1439   -1.5774 S   0  0  0  0  0  0  0  0  0  0  0  0
    3.3950    4.2254   -1.0084 N   0  0  0  0  0  0  0  0  0  0  0  0
    4.3019    3.6532   -0.2321 N   0  0  0  0  0  0  0  0  0  0  0  0
    4.0589    2.2976   -0.0795 C   0  0  0  0  0  0  0  0  0  0  0  0
    4.9481    1.4674    0.7068 C   0  0  0  0  0  0  0  0  0  0  0  0
    6.2667    1.2668    0.2789 C   0  0  0  0  0  0  0  0  0  0  0  0
    7.1223    0.4441    1.0124 C   0  0  0  0  0  0  0  0  0  0  0  0
    6.6671   -0.1730    2.1784 C   0  0  0  0  0  0  0  0  0  0  0  0
    5.3577    0.0382    2.6181 C   0  0  0  0  0  0  0  0  0  0  0  0
    4.4980    0.8567    1.8861 C   0  0  0  0  0  0  0  0  0  0  0  0
   -2.3678   -1.3404    0.9358 C   0  0  0  0  0  0  0  0  0  0  0  0
   -3.7920   -1.8021    0.5927 C   0  0  0  0  0  0  0  0  0  0  0  0
   -4.5382   -2.2829    1.8417 C   0  0  0  0  0  0  0  0  0  0  0  0
   -3.6190   -2.8810    2.9091 C   0  0  0  0  0  0  0  0  0  0  0  0
   -2.3776   -3.5210    2.3011 C   0  0  0  0  0  0  0  0  0  0  0  0
   -1.5475   -2.5279    1.4802 C   0  0  0  0  0  0  0  0  0  0  0  0
   -4.8759    4.4418   -1.0068 H   0  0  0  0  0  0  0  0  0  0  0  0
   -5.0061    4.9333    0.6807 H   0  0  0  0  0  0  0  0  0  0  0  0
   -3.7158    5.6055   -0.3192 H   0  0  0  0  0  0  0  0  0  0  0  0
   -2.8444    3.8922    1.0772 H   0  0  0  0  0  0  0  0  0  0  0  0
   -3.2294    2.7028   -1.5934 H   0  0  0  0  0  0  0  0  0  0  0  0
   -0.9242    3.6044   -2.0454 H   0  0  0  0  0  0  0  0  0  0  0  0
   -0.9828    4.5200   -0.5361 H   0  0  0  0  0  0  0  0  0  0  0  0
   -2.1051    4.9030   -1.8564 H   0  0  0  0  0  0  0  0  0  0  0  0
   -3.0164    0.5786   -1.2757 H   0  0  0  0  0  0  0  0  0  0  0  0
   -0.6341   -0.3439    0.1831 H   0  0  0  0  0  0  0  0  0  0  0  0
   -0.8635   -3.4146   -3.1424 H   0  0  0  0  0  0  0  0  0  0  0  0
   -0.0050   -2.0706   -3.9432 H   0  0  0  0  0  0  0  0  0  0  0  0
    1.1594   -4.1790   -2.0492 H   0  0  0  0  0  0  0  0  0  0  0  0
    1.7601   -3.7581   -3.6659 H   0  0  0  0  0  0  0  0  0  0  0  0
    2.5946   -1.6493   -2.8944 H   0  0  0  0  0  0  0  0  0  0  0  0
    2.8855   -2.6316   -1.4577 H   0  0  0  0  0  0  0  0  0  0  0  0
    1.0740   -1.6403   -0.2736 H   0  0  0  0  0  0  0  0  0  0  0  0
    2.9705   -0.1685   -0.2856 H   0  0  0  0  0  0  0  0  0  0  0  0
    6.6328    1.7496   -0.6258 H   0  0  0  0  0  0  0  0  0  0  0  0
    8.1459    0.2910    0.6769 H   0  0  0  0  0  0  0  0  0  0  0  0
    7.3396   -0.8061    2.7563 H   0  0  0  0  0  0  0  0  0  0  0  0
    5.0167   -0.4242    3.5410 H   0  0  0  0  0  0  0  0  0  0  0  0
    3.4866    1.0299    2.2493 H   0  0  0  0  0  0  0  0  0  0  0  0
   -2.4642   -0.6132    1.7571 H   0  0  0  0  0  0  0  0  0  0  0  0
   -4.3701   -1.0006    0.1216 H   0  0  0  0  0  0  0  0  0  0  0  0
   -3.7520   -2.6275   -0.1282 H   0  0  0  0  0  0  0  0  0  0  0  0
   -5.2930   -3.0186    1.5410 H   0  0  0  0  0  0  0  0  0  0  0  0
   -5.0890   -1.4458    2.2858 H   0  0  0  0  0  0  0  0  0  0  0  0
   -3.3076   -2.0916    3.6064 H   0  0  0  0  0  0  0  0  0  0  0  0
   -4.1738   -3.6155    3.5030 H   0  0  0  0  0  0  0  0  0  0  0  0
   -2.6853   -4.3516    1.6541 H   0  0  0  0  0  0  0  0  0  0  0  0
   -1.7512   -3.9548    3.0903 H   0  0  0  0  0  0  0  0  0  0  0  0
   -1.0615   -3.0822    0.6701 H   0  0  0  0  0  0  0  0  0  0  0  0
   -0.7358   -2.1313    2.1022 H   0  0  0  0  0  0  0  0  0  0  0  0
  1  2  1  0
  2  3  1  0
  3  4  1  0
  3  5  1  0
  5  6  2  0
  5  7  1  0
  7  8  1  0
  8  9  1  0
  9 10  2  0
  9 11  1  0
 11 12  1  0
 12 13  1  0
 13 14  1  0
 14 15  1  0
 15 16  1  0
 16 17  2  0
 16 18  1  0
 18 19  1  0
 19 20  1  0
 20 21  1  0
 21 22  2  0
 22 23  1  0
 23 24  1  0
 24 25  2  0
 25 26  1  0
 26 27  2  0
 27 28  1  0
 28 29  2  0
  8 30  1  0
 30 31  1  0
 31 32  1  0
 32 33  1  0
 33 34  1  0
 34 35  1  0
 15 11  1  0
 23 19  2  0
 29 24  1  0
 35 30  1  0
  1 36  1  0
  1 37  1  0
  1 38  1  0
  2 39  1  0
  3 40  1  6
  4 41  1  0
  4 42  1  0
  4 43  1  0
  7 44  1  0
  8 45  1  1
 12 46  1  0
 12 47  1  0
 13 48  1  0
 13 49  1  0
 14 50  1  0
 14 51  1  0
 15 52  1  1
 18 53  1  0
 25 54  1  0
 26 55  1  0
 27 56  1  0
 28 57  1  0
 29 58  1  0
 30 59  1  0
 31 60  1  0
 31 61  1  0
 32 62  1  0
 32 63  1  0
 33 64  1  0
 33 65  1  0
 34 66  1  0
 34 67  1  0
 35 68  1  0
 35 69  1  0
M  END
$$$$
