
     RDKit          3D

 31 32  0  0  0  0  0  0  0  0999 V2000
    5.6678   -0.5789    0.9183 N   0  0  0  0  0  0  0  0  0  0  0  0
    5.1591    0.6901   -0.0557 S   0  0  0  0  0  6  0  0  0  0  0  0
    5.6307    0.3817   -1.3857 O   0  0  0  0  0  0  0  0  0  0  0  0
    5.5337    1.8999    0.6381 O   0  0  0  0  0  0  0  0  0  0  0  0
    3.4010    0.5080   -0.0044 C   0  0  0  0  0  0  0  0  0  0  0  0
    2.7512   -0.2359   -0.9927 C   0  0  0  0  0  0  0  0  0  0  0  0
    1.3575   -0.3582   -0.9669 C   0  0  0  0  0  0  0  0  0  0  0  0
    0.6165    0.2677    0.0384 C   0  0  0  0  0  0  0  0  0  0  0  0
   -0.7426    0.2293    0.1801 O   0  0  0  0  0  0  0  0  0  0  0  0
   -1.4798   -0.5040   -0.7946 C   0  0  0  0  0  0  0  0  0  0  0  0
   -2.9450   -0.3999   -0.4509 C   0  0  0  0  0  0  0  0  0  0  0  0
   -3.5584   -1.3669    0.3580 C   0  0  0  0  0  0  0  0  0  0  0  0
   -4.9113   -1.2611    0.6851 C   0  0  0  0  0  0  0  0  0  0  0  0
   -5.6612   -0.1844    0.2152 C   0  0  0  0  0  0  0  0  0  0  0  0
   -5.0583    0.7909   -0.5770 C   0  0  0  0  0  0  0  0  0  0  0  0
   -3.7056    0.6870   -0.9053 C   0  0  0  0  0  0  0  0  0  0  0  0
    1.2792    1.0192    1.0152 C   0  0  0  0  0  0  0  0  0  0  0  0
    2.6694    1.1475    0.9969 C   0  0  0  0  0  0  0  0  0  0  0  0
    6.2247   -1.2345    0.3696 H   0  0  0  0  0  0  0  0  0  0  0  0
    6.1519   -0.2125    1.7383 H   0  0  0  0  0  0  0  0  0  0  0  0
    3.3184   -0.7210   -1.7843 H   0  0  0  0  0  0  0  0  0  0  0  0
    0.8853   -0.9458   -1.7475 H   0  0  0  0  0  0  0  0  0  0  0  0
   -1.3147   -0.0909   -1.7979 H   0  0  0  0  0  0  0  0  0  0  0  0
   -1.1793   -1.5594   -0.7927 H   0  0  0  0  0  0  0  0  0  0  0  0
   -2.9827   -2.2056    0.7432 H   0  0  0  0  0  0  0  0  0  0  0  0
   -5.3788   -2.0159    1.3120 H   0  0  0  0  0  0  0  0  0  0  0  0
   -6.7135   -0.1009    0.4733 H   0  0  0  0  0  0  0  0  0  0  0  0
   -5.6400    1.6366   -0.9343 H   0  0  0  0  0  0  0  0  0  0  0  0
   -3.2443    1.4626   -1.5127 H   0  0  0  0  0  0  0  0  0  0  0  0
    0.7029    1.5125    1.7952 H   0  0  0  0  0  0  0  0  0  0  0  0
    3.1659    1.7429    1.7594 H   0  0  0  0  0  0  0  0  0  0  0  0
  1  2  1  0
  2  3  2  0
  2  4  2  0
  2  5  1  0
  5  6  2  0
  6  7  1  0
  7  8  2  0
  8  9  1  0
  9 10  1  0
 10 11  1  0
 11 12  2  0
 12 13  1  0
 13 14  2  0
 14 15  1  0
 15 16  2  0
  8 17  1  0
 17 18  2  0
 18  5  1  0
 16 11  1  0
  1 19  1  0
  1 20  1  0
  6 21  1  0
  7 22  1  0
 10 23  1  0
 10 24  1  0
 12 25  1  0
 13 26  1  0
 14 27  1  0
 15 28  1  0
 16 29  1  0
 17 30  1  0
 18 31  1  0
M  END
$$$$
