
     RDKit          3D

 55 58  0  0  0  0  0  0  0  0999 V2000
    5.9555    2.1885   -4.3591 C   0  0  0  0  0  0  0  0  0  0  0  0
    5.5589    1.9356   -3.0178 O   0  0  0  0  0  0  0  0  0  0  0  0
    4.3562    1.3095   -2.8306 C   0  0  0  0  0  0  0  0  0  0  0  0
    3.4907    0.8893   -3.8398 C   0  0  0  0  0  0  0  0  0  0  0  0
    2.2900    0.2605   -3.5094 C   0  0  0  0  0  0  0  0  0  0  0  0
    1.9532    0.0509   -2.1712 C   0  0  0  0  0  0  0  0  0  0  0  0
    2.8125    0.4662   -1.1475 C   0  0  0  0  0  0  0  0  0  0  0  0
    2.3975    0.2142    0.1750 N   0  0  0  0  0  0  0  0  0  0  0  0
    3.0775    0.4774    1.3493 C   0  0  0  0  0  0  0  0  0  0  0  0
    4.1800    1.0115    1.4434 O   0  0  0  0  0  0  0  0  0  0  0  0
    2.3205    0.0701    2.6247 C   0  0  0  0  0  0  0  0  0  0  0  0
    1.1163   -0.7384    2.4230 N   0  0  0  0  0  0  0  0  0  0  0  0
   -0.1196   -0.1043    2.4976 C   0  0  0  0  0  0  0  0  0  0  0  0
   -0.2805    1.1009    2.6364 O   0  0  0  0  0  0  0  0  0  0  0  0
   -1.3461   -0.9932    2.3503 C   0  0  0  0  0  0  0  0  0  0  0  0
   -2.6967   -0.3361    2.4917 C   0  0  0  0  0  0  0  0  0  0  0  0
   -3.0972    0.3439    1.1896 C   0  0  0  0  0  0  0  0  0  0  0  0
   -4.4947    0.9225    1.2675 C   0  0  0  0  0  0  0  0  0  0  0  0
   -5.2205    0.8072    2.2489 O   0  0  0  0  0  0  0  0  0  0  0  0
   -4.8603    1.5854    0.1107 N   0  0  0  0  0  0  0  0  0  0  0  0
   -6.1339    2.2135   -0.0363 C   0  0  0  0  0  0  0  0  0  0  0  0
   -7.2381    1.5251   -0.7890 C   0  0  0  0  0  0  0  0  0  0  0  0
   -6.5806    2.7410   -1.3722 C   0  0  0  0  0  0  0  0  0  0  0  0
   -1.2746   -2.2593    2.0770 N   0  0  0  0  0  0  0  0  0  0  0  0
   -0.0079   -2.8520    1.9757 C   0  0  0  0  0  0  0  0  0  0  0  0
    0.0373   -4.2200    1.6882 C   0  0  0  0  0  0  0  0  0  0  0  0
    1.2558   -4.8853    1.5726 C   0  0  0  0  0  0  0  0  0  0  0  0
    2.4429   -4.1820    1.7454 C   0  0  0  0  0  0  0  0  0  0  0  0
    2.4139   -2.8150    2.0347 C   0  0  0  0  0  0  0  0  0  0  0  0
    1.1915   -2.1367    2.1548 C   0  0  0  0  0  0  0  0  0  0  0  0
    4.0114    1.0950   -1.4890 C   0  0  0  0  0  0  0  0  0  0  0  0
    6.0817    1.2543   -4.9161 H   0  0  0  0  0  0  0  0  0  0  0  0
    5.2476    2.8563   -4.8611 H   0  0  0  0  0  0  0  0  0  0  0  0
    6.9262    2.6930   -4.3315 H   0  0  0  0  0  0  0  0  0  0  0  0
    3.7207    1.0353   -4.8897 H   0  0  0  0  0  0  0  0  0  0  0  0
    1.6165   -0.0683   -4.2969 H   0  0  0  0  0  0  0  0  0  0  0  0
    1.0131   -0.4449   -1.9443 H   0  0  0  0  0  0  0  0  0  0  0  0
    1.5038   -0.2482    0.2797 H   0  0  0  0  0  0  0  0  0  0  0  0
    2.0534    1.0028    3.1353 H   0  0  0  0  0  0  0  0  0  0  0  0
    3.0051   -0.4639    3.2926 H   0  0  0  0  0  0  0  0  0  0  0  0
   -3.4303   -1.1060    2.7609 H   0  0  0  0  0  0  0  0  0  0  0  0
   -2.6719    0.3801    3.3207 H   0  0  0  0  0  0  0  0  0  0  0  0
   -3.0687   -0.3769    0.3634 H   0  0  0  0  0  0  0  0  0  0  0  0
   -2.3980    1.1529    0.9492 H   0  0  0  0  0  0  0  0  0  0  0  0
   -4.1809    1.6925   -0.6321 H   0  0  0  0  0  0  0  0  0  0  0  0
   -6.4273    2.7931    0.8375 H   0  0  0  0  0  0  0  0  0  0  0  0
   -7.0301    0.5620   -1.2393 H   0  0  0  0  0  0  0  0  0  0  0  0
   -8.2447    1.6225   -0.3986 H   0  0  0  0  0  0  0  0  0  0  0  0
   -5.9389    2.6028   -2.2336 H   0  0  0  0  0  0  0  0  0  0  0  0
   -7.1467    3.6655   -1.3848 H   0  0  0  0  0  0  0  0  0  0  0  0
   -0.8925   -4.7689    1.5568 H   0  0  0  0  0  0  0  0  0  0  0  0
    1.2762   -5.9491    1.3499 H   0  0  0  0  0  0  0  0  0  0  0  0
    3.3968   -4.6973    1.6542 H   0  0  0  0  0  0  0  0  0  0  0  0
    3.3701   -2.3137    2.1523 H   0  0  0  0  0  0  0  0  0  0  0  0
    4.7079    1.4381   -0.7301 H   0  0  0  0  0  0  0  0  0  0  0  0
  1  2  1  0
  2  3  1  0
  3  4  2  0
  4  5  1  0
  5  6  2  0
  6  7  1  0
  7  8  1  0
  8  9  1  0
  9 10  2  0
  9 11  1  0
 11 12  1  0
 12 13  1  0
 13 14  2  0
 13 15  1  0
 15 16  1  0
 16 17  1  0
 17 18  1  0
 18 19  2  0
 18 20  1  0
 20 21  1  0
 21 22  1  0
 22 23  1  0
 15 24  2  0
 24 25  1  0
 25 26  2  0
 26 27  1  0
 27 28  2  0
 28 29  1  0
 29 30  2  0
  7 31  2  0
 31  3  1  0
 30 12  1  0
 23 21  1  0
 30 25  1  0
  1 32  1  0
  1 33  1  0
  1 34  1  0
  4 35  1  0
  5 36  1  0
  6 37  1  0
  8 38  1  0
 11 39  1  0
 11 40  1  0
 16 41  1  0
 16 42  1  0
 17 43  1  0
 17 44  1  0
 20 45  1  0
 21 46  1  0
 22 47  1  0
 22 48  1  0
 23 49  1  0
 23 50  1  0
 26 51  1  0
 27 52  1  0
 28 53  1  0
 29 54  1  0
 31 55  1  0
M  END
$$$$
