
     RDKit          3D

 57 61  0  0  0  0  0  0  0  0999 V2000
    2.2788   -2.0563   -1.9971 O   0  0  0  0  0  0  0  0  0  0  0  0
    1.7493   -1.6852   -0.9566 C   0  0  0  0  0  0  0  0  0  0  0  0
    0.4854   -2.0561   -0.5520 N   0  0  0  0  0  0  0  0  0  0  0  0
   -0.3698   -2.8663   -1.4113 C   0  0  0  0  0  0  0  0  0  0  0  0
   -1.8882   -2.7322   -1.0848 C   0  0  0  0  0  0  0  0  0  0  0  0
   -2.2742   -1.2543   -1.2046 C   0  0  0  0  0  0  0  0  0  0  0  0
   -2.5040   -0.4731   -0.1653 N   0  0  0  0  0  0  0  0  0  0  0  0
   -2.7747    0.8290   -0.5735 C   0  0  0  0  0  0  0  0  0  0  0  0
   -3.0848    1.8729    0.4055 C   0  0  0  0  0  0  0  0  0  0  0  0
   -3.0690    1.5596    1.7743 C   0  0  0  0  0  0  0  0  0  0  0  0
   -3.3804    2.5246    2.7397 C   0  0  0  0  0  0  0  0  0  0  0  0
   -3.7112    3.8202    2.3498 C   0  0  0  0  0  0  0  0  0  0  0  0
   -3.7273    4.1513    0.9971 C   0  0  0  0  0  0  0  0  0  0  0  0
   -3.4153    3.1857    0.0316 C   0  0  0  0  0  0  0  0  0  0  0  0
   -2.7134    1.0160   -1.9423 C   0  0  0  0  0  0  0  0  0  0  0  0
   -2.3415   -0.4549   -2.7329 S   0  0  0  0  0  0  0  0  0  0  0  0
   -2.1835   -3.2310    0.3526 C   0  0  0  0  0  0  0  0  0  0  0  0
   -1.8765   -4.7166    0.5265 C   0  0  0  0  0  0  0  0  0  0  0  0
   -1.9750   -5.4506   -0.6938 O   0  0  0  0  0  0  0  0  0  0  0  0
   -3.0345   -4.9956   -1.5215 C   0  0  0  0  0  0  0  0  0  0  0  0
   -2.7282   -3.6008   -2.0639 C   0  0  0  0  0  0  0  0  0  0  0  0
    2.4429   -0.7277   -0.0617 C   0  0  0  0  0  0  0  0  0  0  0  0
    2.3757   -0.8641    1.3300 C   0  0  0  0  0  0  0  0  0  0  0  0
    3.0370    0.0519    2.1475 C   0  0  0  0  0  0  0  0  0  0  0  0
    3.7597    1.1025    1.5758 C   0  0  0  0  0  0  0  0  0  0  0  0
    3.8365    1.2488    0.1792 C   0  0  0  0  0  0  0  0  0  0  0  0
    4.5809    2.3619   -0.3992 C   0  0  0  0  0  0  0  0  0  0  0  0
    4.5834    2.6659   -1.7076 N   0  0  0  0  0  0  0  0  0  0  0  0
    5.3980    3.7909   -1.7894 O   0  0  0  0  0  0  0  0  0  0  0  0
    5.8211    4.0664   -0.5200 C   0  0  0  0  0  0  0  0  0  0  0  0
    6.7090    5.2484   -0.3788 C   0  0  0  0  0  0  0  0  0  0  0  0
    6.0088    6.4145   -0.3582 F   0  0  0  0  0  0  0  0  0  0  0  0
    7.6011    5.3536   -1.4000 F   0  0  0  0  0  0  0  0  0  0  0  0
    7.4435    5.2200    0.7660 F   0  0  0  0  0  0  0  0  0  0  0  0
    5.3406    3.2200    0.3721 N   0  0  0  0  0  0  0  0  0  0  0  0
    3.1798    0.3154   -0.6364 C   0  0  0  0  0  0  0  0  0  0  0  0
    0.0474   -1.5159    0.1912 H   0  0  0  0  0  0  0  0  0  0  0  0
   -0.0186   -3.9003   -1.3206 H   0  0  0  0  0  0  0  0  0  0  0  0
   -0.1762   -2.5724   -2.4512 H   0  0  0  0  0  0  0  0  0  0  0  0
   -2.8195    0.5519    2.1025 H   0  0  0  0  0  0  0  0  0  0  0  0
   -3.3665    2.2605    3.7945 H   0  0  0  0  0  0  0  0  0  0  0  0
   -3.9579    4.5712    3.0994 H   0  0  0  0  0  0  0  0  0  0  0  0
   -3.9867    5.1624    0.6897 H   0  0  0  0  0  0  0  0  0  0  0  0
   -3.4463    3.4874   -1.0115 H   0  0  0  0  0  0  0  0  0  0  0  0
   -2.8642    1.9127   -2.5245 H   0  0  0  0  0  0  0  0  0  0  0  0
   -3.2501   -3.0743    0.5682 H   0  0  0  0  0  0  0  0  0  0  0  0
   -1.6505   -2.6574    1.1202 H   0  0  0  0  0  0  0  0  0  0  0  0
   -0.8546   -4.8495    0.8993 H   0  0  0  0  0  0  0  0  0  0  0  0
   -2.5488   -5.1632    1.2682 H   0  0  0  0  0  0  0  0  0  0  0  0
   -3.9739   -5.0044   -0.9558 H   0  0  0  0  0  0  0  0  0  0  0  0
   -3.1534   -5.6994   -2.3520 H   0  0  0  0  0  0  0  0  0  0  0  0
   -2.1929   -3.7003   -3.0175 H   0  0  0  0  0  0  0  0  0  0  0  0
   -3.6882   -3.1297   -2.3103 H   0  0  0  0  0  0  0  0  0  0  0  0
    1.8341   -1.6905    1.7826 H   0  0  0  0  0  0  0  0  0  0  0  0
    2.9959   -0.0519    3.2300 H   0  0  0  0  0  0  0  0  0  0  0  0
    4.2651    1.8126    2.2332 H   0  0  0  0  0  0  0  0  0  0  0  0
    3.2253    0.3959   -1.7213 H   0  0  0  0  0  0  0  0  0  0  0  0
  1  2  2  0
  2  3  1  0
  3  4  1  0
  4  5  1  0
  5  6  1  0
  6  7  2  0
  7  8  1  0
  8  9  1  0
  9 10  2  0
 10 11  1  0
 11 12  2  0
 12 13  1  0
 13 14  2  0
  8 15  2  0
 15 16  1  0
  5 17  1  0
 17 18  1  0
 18 19  1  0
 19 20  1  0
 20 21  1  0
  2 22  1  0
 22 23  2  0
 23 24  1  0
 24 25  2  0
 25 26  1  0
 26 27  1  0
 27 28  2  0
 28 29  1  0
 29 30  1  0
 30 31  1  0
 31 32  1  0
 31 33  1  0
 31 34  1  0
 30 35  2  0
 26 36  2  0
 21  5  1  0
 36 22  1  0
 16  6  1  0
 35 27  1  0
 14  9  1  0
  3 37  1  0
  4 38  1  0
  4 39  1  0
 10 40  1  0
 11 41  1  0
 12 42  1  0
 13 43  1  0
 14 44  1  0
 15 45  1  0
 17 46  1  0
 17 47  1  0
 18 48  1  0
 18 49  1  0
 20 50  1  0
 20 51  1  0
 21 52  1  0
 21 53  1  0
 23 54  1  0
 24 55  1  0
 25 56  1  0
 36 57  1  0
M  END
$$$$
