
     RDKit          3D

 34 38  0  0  0  0  0  0  0  0999 V2000
   -5.6032    0.0865   -0.5319 O   0  0  0  0  0  0  0  0  0  0  0  0
   -4.8083    0.9498   -0.2161 C   0  0  0  0  0  0  0  0  0  0  0  0
   -5.2307    2.1635    0.1863 O   0  0  0  0  0  0  0  0  0  0  0  0
   -3.3226    0.8483   -0.1921 C   0  0  0  0  0  0  0  0  0  0  0  0
   -2.5876    2.0118   -0.4779 C   0  0  0  0  0  0  0  0  0  0  0  0
   -1.1979    1.9816   -0.5033 C   0  0  0  0  0  0  0  0  0  0  0  0
   -0.5231    0.7881   -0.2457 C   0  0  0  0  0  0  0  0  0  0  0  0
   -1.2384   -0.4000    0.0478 C   0  0  0  0  0  0  0  0  0  0  0  0
   -2.6587   -0.3841    0.0791 C   0  0  0  0  0  0  0  0  0  0  0  0
   -3.3143   -1.6031    0.3952 C   0  0  0  0  0  0  0  0  0  0  0  0
   -2.6145   -2.7855    0.6554 C   0  0  0  0  0  0  0  0  0  0  0  0
   -1.2293   -2.7932    0.6142 C   0  0  0  0  0  0  0  0  0  0  0  0
   -0.5520   -1.6108    0.3148 C   0  0  0  0  0  0  0  0  0  0  0  0
    0.9369   -1.6121    0.2759 C   0  0  0  0  0  0  0  0  0  0  0  0
    1.5839   -2.6290    0.4972 O   0  0  0  0  0  0  0  0  0  0  0  0
    1.6147   -0.4261   -0.0186 N   0  0  0  0  0  0  0  0  0  0  0  0
    2.9656   -0.1625   -0.1153 C   0  0  0  0  0  0  0  0  0  0  0  0
    4.1136   -0.9514    0.0381 C   0  0  0  0  0  0  0  0  0  0  0  0
    5.3507   -0.3222   -0.1407 C   0  0  0  0  0  0  0  0  0  0  0  0
    5.4338    1.0340   -0.4582 C   0  0  0  0  0  0  0  0  0  0  0  0
    4.2755    1.8059   -0.6074 C   0  0  0  0  0  0  0  0  0  0  0  0
    3.0257    1.1928   -0.4321 C   0  0  0  0  0  0  0  0  0  0  0  0
    1.7704    1.7407   -0.5266 N   0  0  0  0  0  0  0  0  0  0  0  0
    0.9394    0.7506   -0.2748 C   0  0  0  0  0  0  0  0  0  0  0  0
   -6.2084    2.1034    0.1414 H   0  0  0  0  0  0  0  0  0  0  0  0
   -3.0953    2.9508   -0.6915 H   0  0  0  0  0  0  0  0  0  0  0  0
   -0.6409    2.8904   -0.7279 H   0  0  0  0  0  0  0  0  0  0  0  0
   -4.4011   -1.6558    0.4464 H   0  0  0  0  0  0  0  0  0  0  0  0
   -3.1599   -3.6974    0.8894 H   0  0  0  0  0  0  0  0  0  0  0  0
   -0.6834   -3.7126    0.8160 H   0  0  0  0  0  0  0  0  0  0  0  0
    4.0536   -2.0074    0.2852 H   0  0  0  0  0  0  0  0  0  0  0  0
    6.2639   -0.9038   -0.0294 H   0  0  0  0  0  0  0  0  0  0  0  0
    6.4079    1.4987   -0.5918 H   0  0  0  0  0  0  0  0  0  0  0  0
    4.3341    2.8603   -0.8542 H   0  0  0  0  0  0  0  0  0  0  0  0
  1  2  2  0
  2  3  1  0
  2  4  1  0
  4  5  2  0
  5  6  1  0
  6  7  2  0
  7  8  1  0
  8  9  2  0
  9 10  1  0
 10 11  2  0
 11 12  1  0
 12 13  2  0
 13 14  1  0
 14 15  2  0
 14 16  1  0
 16 17  1  0
 17 18  2  0
 18 19  1  0
 19 20  2  0
 20 21  1  0
 21 22  2  0
 22 23  1  0
 23 24  2  0
  9  4  1  0
 24 16  1  0
 24  7  1  0
 13  8  1  0
 22 17  1  0
  3 25  1  0
  5 26  1  0
  6 27  1  0
 10 28  1  0
 11 29  1  0
 12 30  1  0
 18 31  1  0
 19 32  1  0
 20 33  1  0
 21 34  1  0
M  END
$$$$
