
     RDKit          3D

 90 95  0  0  0  0  0  0  0  0999 V2000
    8.4588    1.4652   -1.0998 C   0  0  0  0  0  0  0  0  0  0  0  0
    7.8012    0.2503   -0.4960 C   0  0  0  0  0  0  0  0  0  0  0  0
    8.3653   -1.0554   -0.9843 C   0  0  0  0  0  0  0  0  0  0  0  0
    6.8021    0.3901    0.3976 C   0  0  0  0  0  0  0  0  0  0  0  0
    6.0309   -0.6858    1.1086 C   0  0  0  0  0  0  0  0  0  0  0  0
    4.5074   -0.5716    0.9644 C   0  0  0  0  0  0  0  0  0  0  0  0
    3.8767   -0.8936   -0.4153 C   0  0  2  0  0  0  0  0  0  0  0  0
    4.3059   -2.2792   -0.9179 C   0  0  0  0  0  0  0  0  0  0  0  0
    4.2027    0.1319   -1.4700 C   0  0  0  0  0  0  0  0  0  0  0  0
    3.3404    1.0832   -1.8370 C   0  0  0  0  0  0  0  0  0  0  0  0
    2.0356    1.1331   -1.1816 C   0  0  0  0  0  0  0  0  0  0  0  0
    1.1634    2.2084   -1.3811 C   0  0  0  0  0  0  0  0  0  0  0  0
    1.5867    3.2390   -2.1907 O   0  0  0  0  0  0  0  0  0  0  0  0
   -0.0988    2.2193   -0.7687 C   0  0  0  0  0  0  0  0  0  0  0  0
   -0.5006    1.1589    0.0429 C   0  0  0  0  0  0  0  0  0  0  0  0
    0.3675    0.0549    0.2615 C   0  0  0  0  0  0  0  0  0  0  0  0
   -0.1498   -1.0668    1.1585 C   0  0  0  0  0  0  0  0  0  0  0  0
    0.7258   -2.2507    1.4617 C   0  0  0  0  0  0  0  0  0  0  0  0
    0.6636   -3.4826    0.9166 C   0  0  0  0  0  0  0  0  0  0  0  0
    1.5997   -4.5711    1.3674 C   0  0  0  0  0  0  0  0  0  0  0  0
   -0.2789   -3.8851   -0.1833 C   0  0  0  0  0  0  0  0  0  0  0  0
    1.6373    0.0663   -0.3595 C   0  0  0  0  0  0  0  0  0  0  0  0
    2.4520   -1.0195   -0.1847 O   0  0  0  0  0  0  0  0  0  0  0  0
   -1.7079    1.1083    0.6857 O   0  0  0  0  0  0  0  0  0  0  0  0
   -2.7484    2.0549    0.4395 C   0  0  2  0  0  0  0  0  0  0  0  0
   -2.3302    3.2485   -0.3788 C   0  0  0  0  0  0  0  0  0  0  0  0
   -3.2602    4.1931   -0.5965 C   0  0  0  0  0  0  0  0  0  0  0  0
   -4.5684    3.9312    0.0904 C   0  0  2  0  0  0  0  0  0  0  0  0
   -4.2478    3.7573    1.5840 C   0  0  0  0  0  0  0  0  0  0  0  0
   -3.3898    2.4683    1.8083 C   0  0  1  0  0  0  0  0  0  0  0  0
   -4.2480    1.2162    2.1702 C   0  0  0  0  0  0  0  0  0  0  0  0
   -5.5180    1.4884    2.9859 C   0  0  0  0  0  0  0  0  0  0  0  0
   -3.4487    0.1435    2.9241 C   0  0  0  0  0  0  0  0  0  0  0  0
   -4.6602    0.6539    0.9114 O   0  0  0  0  0  0  0  0  0  0  0  0
   -4.0420    1.3995   -0.1615 C   0  0  2  0  0  0  0  0  0  0  0  0
   -3.7720    0.5016   -1.3801 C   0  0  0  0  0  0  0  0  0  0  0  0
   -4.9686   -0.2839   -1.8641 C   0  0  0  0  0  0  0  0  0  0  0  0
   -5.2937   -1.5726   -1.6306 C   0  0  0  0  0  0  0  0  0  0  0  0
   -6.5506   -2.1603   -2.2112 C   0  0  0  0  0  0  0  0  0  0  0  0
   -4.4736   -2.4629   -0.7682 C   0  0  0  0  0  0  0  0  0  0  0  0
   -3.4985   -2.1712   -0.1026 O   0  0  0  0  0  0  0  0  0  0  0  0
   -4.9226   -3.7312   -0.7823 O   0  0  0  0  0  0  0  0  0  0  0  0
   -5.0148    2.5828   -0.4856 C   0  0  0  0  0  0  0  0  0  0  0  0
   -6.0514    2.4778   -1.1385 O   0  0  0  0  0  0  0  0  0  0  0  0
   -1.0029    3.3506   -0.9813 C   0  0  0  0  0  0  0  0  0  0  0  0
   -0.6569    4.3218   -1.6463 O   0  0  0  0  0  0  0  0  0  0  0  0
    8.3400    1.4576   -2.1882 H   0  0  0  0  0  0  0  0  0  0  0  0
    8.0292    2.4006   -0.7263 H   0  0  0  0  0  0  0  0  0  0  0  0
    9.5285    1.4733   -0.8656 H   0  0  0  0  0  0  0  0  0  0  0  0
    8.2482   -1.1314   -2.0703 H   0  0  0  0  0  0  0  0  0  0  0  0
    7.8886   -1.9325   -0.5440 H   0  0  0  0  0  0  0  0  0  0  0  0
    9.4329   -1.1137   -0.7486 H   0  0  0  0  0  0  0  0  0  0  0  0
    6.4988    1.4021    0.6714 H   0  0  0  0  0  0  0  0  0  0  0  0
    6.3536   -1.6918    0.8334 H   0  0  0  0  0  0  0  0  0  0  0  0
    6.2686   -0.5870    2.1762 H   0  0  0  0  0  0  0  0  0  0  0  0
    4.1871    0.4304    1.2837 H   0  0  0  0  0  0  0  0  0  0  0  0
    4.0601   -1.2493    1.7062 H   0  0  0  0  0  0  0  0  0  0  0  0
    5.3652   -2.3183   -1.1907 H   0  0  0  0  0  0  0  0  0  0  0  0
    4.1163   -3.0451   -0.1570 H   0  0  0  0  0  0  0  0  0  0  0  0
    3.7213   -2.5723   -1.7987 H   0  0  0  0  0  0  0  0  0  0  0  0
    5.1818    0.1000   -1.9382 H   0  0  0  0  0  0  0  0  0  0  0  0
    3.5913    1.8232   -2.5889 H   0  0  0  0  0  0  0  0  0  0  0  0
    0.8884    3.9307   -2.2185 H   0  0  0  0  0  0  0  0  0  0  0  0
   -0.3803   -0.6171    2.1339 H   0  0  0  0  0  0  0  0  0  0  0  0
   -1.1038   -1.4142    0.7500 H   0  0  0  0  0  0  0  0  0  0  0  0
    1.4707   -2.0618    2.2333 H   0  0  0  0  0  0  0  0  0  0  0  0
    2.2698   -4.2384    2.1668 H   0  0  0  0  0  0  0  0  0  0  0  0
    2.2227   -4.9071    0.5324 H   0  0  0  0  0  0  0  0  0  0  0  0
    1.0304   -5.4270    1.7444 H   0  0  0  0  0  0  0  0  0  0  0  0
   -0.8231   -3.0433   -0.6171 H   0  0  0  0  0  0  0  0  0  0  0  0
   -1.0105   -4.6070    0.1927 H   0  0  0  0  0  0  0  0  0  0  0  0
    0.2776   -4.3533   -1.0025 H   0  0  0  0  0  0  0  0  0  0  0  0
   -3.0960    5.0841   -1.1944 H   0  0  0  0  0  0  0  0  0  0  0  0
   -5.3013    4.7185   -0.0991 H   0  0  0  0  0  0  0  0  0  0  0  0
   -3.6633    4.6223    1.9299 H   0  0  0  0  0  0  0  0  0  0  0  0
   -5.1610    3.7825    2.1803 H   0  0  0  0  0  0  0  0  0  0  0  0
   -2.6436    2.6569    2.5890 H   0  0  0  0  0  0  0  0  0  0  0  0
   -6.0057    0.5497    3.2764 H   0  0  0  0  0  0  0  0  0  0  0  0
   -6.2741    2.0197    2.3984 H   0  0  0  0  0  0  0  0  0  0  0  0
   -5.2972    2.0508    3.8986 H   0  0  0  0  0  0  0  0  0  0  0  0
   -4.0935   -0.6972    3.2070 H   0  0  0  0  0  0  0  0  0  0  0  0
   -2.6687   -0.3041    2.3107 H   0  0  0  0  0  0  0  0  0  0  0  0
   -2.9994    0.5473    3.8366 H   0  0  0  0  0  0  0  0  0  0  0  0
   -2.9446   -0.1812   -1.1721 H   0  0  0  0  0  0  0  0  0  0  0  0
   -3.4268    1.1190   -2.2197 H   0  0  0  0  0  0  0  0  0  0  0  0
   -5.6499    0.3019   -2.4827 H   0  0  0  0  0  0  0  0  0  0  0  0
   -6.3115   -2.9785   -2.8986 H   0  0  0  0  0  0  0  0  0  0  0  0
   -7.1306   -1.4209   -2.7744 H   0  0  0  0  0  0  0  0  0  0  0  0
   -7.2006   -2.5434   -1.4171 H   0  0  0  0  0  0  0  0  0  0  0  0
   -4.3053   -4.1892   -0.1758 H   0  0  0  0  0  0  0  0  0  0  0  0
  1  2  1  0
  2  3  1  0
  2  4  2  3
  4  5  1  0
  5  6  1  0
  7  6  1  1
  7  8  1  0
  7  9  1  0
  9 10  2  0
 10 11  1  0
 11 12  1  0
 12 13  1  0
 12 14  2  0
 14 15  1  0
 15 16  2  0
 16 17  1  0
 17 18  1  0
 18 19  2  3
 19 20  1  0
 19 21  1  0
 16 22  1  0
 22 23  1  0
 15 24  1  0
 25 24  1  1
 25 26  1  0
 26 27  2  0
 27 28  1  0
 28 29  1  0
 29 30  1  0
 30 31  1  0
 31 32  1  0
 31 33  1  0
 31 34  1  0
 34 35  1  0
 35 36  1  6
 36 37  1  0
 37 38  2  0
 38 39  1  0
 38 40  1  0
 40 41  2  0
 40 42  1  0
 35 43  1  0
 43 44  2  0
 26 45  1  0
 45 46  2  0
 23  7  1  0
 30 25  1  0
 22 11  2  0
 35 25  1  0
 45 14  1  0
 43 28  1  0
  1 47  1  0
  1 48  1  0
  1 49  1  0
  3 50  1  0
  3 51  1  0
  3 52  1  0
  4 53  1  0
  5 54  1  0
  5 55  1  0
  6 56  1  0
  6 57  1  0
  8 58  1  0
  8 59  1  0
  8 60  1  0
  9 61  1  0
 10 62  1  0
 13 63  1  0
 17 64  1  0
 17 65  1  0
 18 66  1  0
 20 67  1  0
 20 68  1  0
 20 69  1  0
 21 70  1  0
 21 71  1  0
 21 72  1  0
 27 73  1  0
 28 74  1  1
 29 75  1  0
 29 76  1  0
 30 77  1  1
 32 78  1  0
 32 79  1  0
 32 80  1  0
 33 81  1  0
 33 82  1  0
 33 83  1  0
 36 84  1  0
 36 85  1  0
 37 86  1  0
 39 87  1  0
 39 88  1  0
 39 89  1  0
 42 90  1  0
M  END
$$$$
