
     RDKit          3D

 82 84  0  0  0  0  0  0  0  0999 V2000
   -5.8439   -3.2203   -0.1592 C   0  0  0  0  0  0  0  0  0  0  0  0
   -4.6087   -3.1631    0.7432 C   0  0  0  0  0  0  0  0  0  0  0  0
   -5.0039   -2.8407    2.1852 C   0  0  0  0  0  0  0  0  0  0  0  0
   -3.9313   -4.4870    0.6905 N   0  0  0  0  0  0  0  0  0  0  0  0
   -3.6351   -2.0853    0.1925 C   0  0  0  0  0  0  0  0  0  0  0  0
   -3.5854   -0.9315    0.6057 O   0  0  0  0  0  0  0  0  0  0  0  0
   -2.8531   -2.5580   -0.8470 N   0  0  0  0  0  0  0  0  0  0  0  0
   -1.6325   -1.8448   -1.2314 C   0  0  2  0  0  0  0  0  0  0  0  0
   -1.2760   -2.1433   -2.6977 C   0  0  0  0  0  0  0  0  0  0  0  0
   -1.0797   -0.9654   -3.4952 O   0  0  0  0  0  0  0  0  0  0  0  0
   -2.2546   -0.1680   -3.6693 C   0  0  0  0  0  0  0  0  0  0  0  0
   -2.0339    1.1719   -3.0143 C   0  0  0  0  0  0  0  0  0  0  0  0
   -0.9784    1.9982   -3.4304 C   0  0  0  0  0  0  0  0  0  0  0  0
   -0.7465    3.2240   -2.8034 C   0  0  0  0  0  0  0  0  0  0  0  0
   -1.5659    3.6374   -1.7556 C   0  0  0  0  0  0  0  0  0  0  0  0
   -2.6210    2.8289   -1.3360 C   0  0  0  0  0  0  0  0  0  0  0  0
   -2.8578    1.6041   -1.9649 C   0  0  0  0  0  0  0  0  0  0  0  0
   -0.5097   -2.3158   -0.2761 C   0  0  0  0  0  0  0  0  0  0  0  0
   -0.5706   -3.4338    0.2513 O   0  0  0  0  0  0  0  0  0  0  0  0
    0.5579   -1.4550   -0.0341 N   0  0  0  0  0  0  0  0  0  0  0  0
    1.4701   -1.7701    1.0646 C   0  0  0  0  0  0  0  0  0  0  0  0
    1.8291   -0.5071    1.8439 C   0  0  0  0  0  0  0  0  0  0  0  0
    2.5731    0.5094    0.9470 C   0  0  0  0  0  0  0  0  0  0  0  0
    2.1429    0.3869   -0.5355 C   0  0  0  0  0  0  0  0  0  0  0  0
    0.7215   -0.1492   -0.6806 C   0  0  0  0  0  0  0  0  0  0  0  0
    4.1207    0.3356    1.0753 C   0  0  0  0  0  0  0  0  0  0  0  0
    4.7127    1.7068    1.2274 N   0  0  0  0  0  0  0  0  0  0  0  0
    6.1347    1.8069    2.1608 S   0  0  0  0  0  6  0  0  0  0  0  0
    7.2544    0.8166    1.1925 C   0  0  0  0  0  0  0  0  0  0  0  0
    5.9098    1.1248    3.4194 O   0  0  0  0  0  0  0  0  0  0  0  0
    6.6457    3.1618    2.1252 O   0  0  0  0  0  0  0  0  0  0  0  0
    3.6295    2.5757    1.5868 C   0  0  0  0  0  0  0  0  0  0  0  0
    3.6889    3.9200    1.9163 C   0  0  0  0  0  0  0  0  0  0  0  0
    2.4969    4.6094    2.1557 C   0  0  0  0  0  0  0  0  0  0  0  0
    1.2638    3.9600    2.0317 C   0  0  0  0  0  0  0  0  0  0  0  0
    1.2086    2.6178    1.6569 C   0  0  0  0  0  0  0  0  0  0  0  0
    2.4003    1.9328    1.4311 C   0  0  0  0  0  0  0  0  0  0  0  0
   -1.1027   -0.2194   -0.1413 C   0  0  0  0  0  0  0  0  0  0  0  0
    0.4731    0.4782    0.2980 S   0  0  0  0  0  6  0  0  0  0  0  0
    0.4922    0.7866    1.7085 O   0  0  0  0  0  0  0  0  0  0  0  0
    0.8815    1.4264   -0.7134 O   0  0  0  0  0  0  0  0  0  0  0  0
    1.3769   -0.8372    0.0569 O   0  0  0  0  0  0  0  0  0  0  0  0
   -5.5784   -3.4491   -1.1991 H   0  0  0  0  0  0  0  0  0  0  0  0
   -6.5562   -3.9807    0.1834 H   0  0  0  0  0  0  0  0  0  0  0  0
   -6.3639   -2.2552   -0.1693 H   0  0  0  0  0  0  0  0  0  0  0  0
   -4.1224   -2.7715    2.8332 H   0  0  0  0  0  0  0  0  0  0  0  0
   -5.6691   -3.6065    2.6004 H   0  0  0  0  0  0  0  0  0  0  0  0
   -5.5253   -1.8784    2.2476 H   0  0  0  0  0  0  0  0  0  0  0  0
   -3.0905   -4.4458    1.2759 H   0  0  0  0  0  0  0  0  0  0  0  0
   -4.5326   -5.1776    1.1378 H   0  0  0  0  0  0  0  0  0  0  0  0
   -2.7848   -3.5778   -0.8135 H   0  0  0  0  0  0  0  0  0  0  0  0
   -1.7998   -0.7831   -1.0504 H   0  0  0  0  0  0  0  0  0  0  0  0
   -2.0447   -2.7539   -3.1906 H   0  0  0  0  0  0  0  0  0  0  0  0
   -0.3411   -2.7121   -2.7603 H   0  0  0  0  0  0  0  0  0  0  0  0
   -2.4015   -0.0160   -4.7440 H   0  0  0  0  0  0  0  0  0  0  0  0
   -3.1536   -0.6678   -3.2888 H   0  0  0  0  0  0  0  0  0  0  0  0
   -0.3241    1.6786   -4.2393 H   0  0  0  0  0  0  0  0  0  0  0  0
    0.0777    3.8531   -3.1292 H   0  0  0  0  0  0  0  0  0  0  0  0
   -1.3834    4.5896   -1.2655 H   0  0  0  0  0  0  0  0  0  0  0  0
   -3.2558    3.1449   -0.5128 H   0  0  0  0  0  0  0  0  0  0  0  0
   -3.6759    0.9782   -1.6086 H   0  0  0  0  0  0  0  0  0  0  0  0
    1.0149   -2.4983    1.7459 H   0  0  0  0  0  0  0  0  0  0  0  0
    2.3644   -2.2362    0.6335 H   0  0  0  0  0  0  0  0  0  0  0  0
    0.8969   -0.0761    2.2319 H   0  0  0  0  0  0  0  0  0  0  0  0
    2.4198   -0.7693    2.7286 H   0  0  0  0  0  0  0  0  0  0  0  0
    2.2333    1.3440   -1.0649 H   0  0  0  0  0  0  0  0  0  0  0  0
    2.8050   -0.3152   -1.0603 H   0  0  0  0  0  0  0  0  0  0  0  0
   -0.0077    0.5371   -0.2392 H   0  0  0  0  0  0  0  0  0  0  0  0
    0.4919   -0.2463   -1.7414 H   0  0  0  0  0  0  0  0  0  0  0  0
    4.5615   -0.1558    0.2008 H   0  0  0  0  0  0  0  0  0  0  0  0
    4.3711   -0.2782    1.9487 H   0  0  0  0  0  0  0  0  0  0  0  0
    8.2304    0.8480    1.6810 H   0  0  0  0  0  0  0  0  0  0  0  0
    7.3275    1.2448    0.1910 H   0  0  0  0  0  0  0  0  0  0  0  0
    6.8969   -0.2131    1.1591 H   0  0  0  0  0  0  0  0  0  0  0  0
    4.6307    4.4523    1.9887 H   0  0  0  0  0  0  0  0  0  0  0  0
    2.5299    5.6596    2.4338 H   0  0  0  0  0  0  0  0  0  0  0  0
    0.3431    4.5089    2.2168 H   0  0  0  0  0  0  0  0  0  0  0  0
    0.2432    2.1343    1.5374 H   0  0  0  0  0  0  0  0  0  0  0  0
   -1.8560    0.5650   -0.0468 H   0  0  0  0  0  0  0  0  0  0  0  0
   -1.0580   -0.5750   -1.1719 H   0  0  0  0  0  0  0  0  0  0  0  0
   -1.3278   -1.0382    0.5439 H   0  0  0  0  0  0  0  0  0  0  0  0
    2.1209   -0.5865   -0.5339 H   0  0  0  0  0  0  0  0  0  0  0  0
  1  2  1  0
  2  3  1  0
  2  4  1  0
  2  5  1  0
  5  6  2  0
  5  7  1  0
  7  8  1  0
  8  9  1  0
  9 10  1  0
 10 11  1  0
 11 12  1  0
 12 13  2  0
 13 14  1  0
 14 15  2  0
 15 16  1  0
 16 17  2  0
  8 18  1  0
 18 19  2  0
 18 20  1  0
 20 21  1  0
 21 22  1  0
 22 23  1  0
 23 24  1  0
 24 25  1  0
 23 26  1  0
 26 27  1  0
 27 28  1  0
 28 29  1  0
 28 30  2  0
 28 31  2  0
 27 32  1  0
 32 33  2  0
 33 34  1  0
 34 35  2  0
 35 36  1  0
 36 37  2  0
 38 39  1  0
 39 40  2  0
 39 41  2  0
 39 42  1  0
 17 12  1  0
 25 20  1  0
 37 32  1  0
 37 23  1  0
  1 43  1  0
  1 44  1  0
  1 45  1  0
  3 46  1  0
  3 47  1  0
  3 48  1  0
  4 49  1  0
  4 50  1  0
  7 51  1  0
  8 52  1  6
  9 53  1  0
  9 54  1  0
 11 55  1  0
 11 56  1  0
 13 57  1  0
 14 58  1  0
 15 59  1  0
 16 60  1  0
 17 61  1  0
 21 62  1  0
 21 63  1  0
 22 64  1  0
 22 65  1  0
 24 66  1  0
 24 67  1  0
 25 68  1  0
 25 69  1  0
 26 70  1  0
 26 71  1  0
 29 72  1  0
 29 73  1  0
 29 74  1  0
 33 75  1  0
 34 76  1  0
 35 77  1  0
 36 78  1  0
 38 79  1  0
 38 80  1  0
 38 81  1  0
 42 82  1  0
M  END
$$$$
