
     RDKit          3D

 71 75  0  0  0  0  0  0  0  0999 V2000
   10.7146    0.1420    1.1890 C   0  0  0  0  0  0  0  0  0  0  0  0
   10.2156   -0.2036   -0.1012 O   0  0  0  0  0  0  0  0  0  0  0  0
    9.1167    0.6501   -0.3927 N   0  0  0  0  0  0  0  0  0  0  0  0
    7.8816    0.0155   -0.2930 C   0  0  0  0  0  0  0  0  0  0  0  0
    7.7199   -1.0859    0.2234 O   0  0  0  0  0  0  0  0  0  0  0  0
    6.8805    0.8093   -0.8303 N   0  0  0  0  0  0  0  0  0  0  0  0
    5.4885    0.5955   -0.7620 C   0  0  0  0  0  0  0  0  0  0  0  0
    4.8875   -0.3607    0.0578 C   0  0  0  0  0  0  0  0  0  0  0  0
    3.4915   -0.4612    0.1315 C   0  0  0  0  0  0  0  0  0  0  0  0
    2.6688    0.3750   -0.6337 C   0  0  0  0  0  0  0  0  0  0  0  0
    1.2056    0.2918   -0.5102 C   0  0  0  0  0  0  0  0  0  0  0  0
    0.3639    1.7228   -0.0818 S   0  0  0  0  0  0  0  0  0  0  0  0
   -1.1170    0.9242   -0.0145 C   0  0  0  0  0  0  0  0  0  0  0  0
   -1.0158   -0.4131   -0.2741 C   0  0  0  0  0  0  0  0  0  0  0  0
    0.3376   -0.7935   -0.6626 C   0  0  0  0  0  0  0  0  0  0  0  0
    0.7529   -2.1812   -1.1138 C   0  0  0  0  0  0  0  0  0  0  0  0
    0.6699   -2.3945   -2.5650 N   0  0  0  0  0  0  0  0  0  0  0  0
   -0.6834   -2.3975   -3.0967 C   0  0  0  0  0  0  0  0  0  0  0  0
    1.5714   -1.5645   -3.3521 C   0  0  0  0  0  0  0  0  0  0  0  0
   -2.2045   -1.2387   -0.1269 C   0  0  0  0  0  0  0  0  0  0  0  0
   -2.0961   -2.4612   -0.1111 O   0  0  0  0  0  0  0  0  0  0  0  0
   -3.4008   -0.5344    0.0845 N   0  0  0  0  0  0  0  0  0  0  0  0
   -4.6139   -1.3143    0.1099 C   0  0  0  0  0  0  0  0  0  0  0  0
   -5.7332   -0.9361    0.8517 C   0  0  0  0  0  0  0  0  0  0  0  0
   -6.8979   -1.7091    0.8220 C   0  0  0  0  0  0  0  0  0  0  0  0
   -6.9053   -2.8553    0.0605 C   0  0  0  0  0  0  0  0  0  0  0  0
   -8.0719   -3.5859    0.0275 O   0  0  0  0  0  0  0  0  0  0  0  0
   -7.9468   -4.8042   -0.7090 C   0  0  0  0  0  0  0  0  0  0  0  0
   -5.8268   -3.2340   -0.6461 N   0  0  0  0  0  0  0  0  0  0  0  0
   -4.6820   -2.4570   -0.6151 N   0  0  0  0  0  0  0  0  0  0  0  0
   -3.4848    0.8591    0.2350 C   0  0  0  0  0  0  0  0  0  0  0  0
   -4.5610    1.4652    0.2989 O   0  0  0  0  0  0  0  0  0  0  0  0
   -2.2913    1.5939    0.2857 N   0  0  0  0  0  0  0  0  0  0  0  0
   -2.4114    3.0435    0.5073 C   0  0  0  0  0  0  0  0  0  0  0  0
   -2.8118    3.4236    1.9092 C   0  0  0  0  0  0  0  0  0  0  0  0
   -3.8281    4.3603    2.1157 C   0  0  0  0  0  0  0  0  0  0  0  0
   -4.4550    4.9099    1.0632 F   0  0  0  0  0  0  0  0  0  0  0  0
   -4.2149    4.7543    3.3964 C   0  0  0  0  0  0  0  0  0  0  0  0
   -3.5617    4.2245    4.5089 C   0  0  0  0  0  0  0  0  0  0  0  0
   -2.5293    3.3045    4.3276 C   0  0  0  0  0  0  0  0  0  0  0  0
   -2.1630    2.9170    3.0374 C   0  0  0  0  0  0  0  0  0  0  0  0
   -1.1575    2.0419    2.9071 F   0  0  0  0  0  0  0  0  0  0  0  0
    3.2764    1.3112   -1.4813 C   0  0  0  0  0  0  0  0  0  0  0  0
    4.6704    1.4294   -1.5316 C   0  0  0  0  0  0  0  0  0  0  0  0
   11.6477   -0.4014    1.3567 H   0  0  0  0  0  0  0  0  0  0  0  0
    9.9916   -0.1365    1.9639 H   0  0  0  0  0  0  0  0  0  0  0  0
   10.9269    1.2139    1.2428 H   0  0  0  0  0  0  0  0  0  0  0  0
    9.2749    1.2174   -1.2152 H   0  0  0  0  0  0  0  0  0  0  0  0
    7.1830    1.6171   -1.3527 H   0  0  0  0  0  0  0  0  0  0  0  0
    5.4763   -1.0301    0.6790 H   0  0  0  0  0  0  0  0  0  0  0  0
    3.0582   -1.1846    0.8181 H   0  0  0  0  0  0  0  0  0  0  0  0
    1.7801   -2.3929   -0.7970 H   0  0  0  0  0  0  0  0  0  0  0  0
    0.1647   -2.9489   -0.5992 H   0  0  0  0  0  0  0  0  0  0  0  0
   -1.1534   -1.4095   -3.0682 H   0  0  0  0  0  0  0  0  0  0  0  0
   -0.6776   -2.7319   -4.1414 H   0  0  0  0  0  0  0  0  0  0  0  0
   -1.3193   -3.1036   -2.5536 H   0  0  0  0  0  0  0  0  0  0  0  0
    2.5967   -1.6304   -2.9739 H   0  0  0  0  0  0  0  0  0  0  0  0
    1.2650   -0.5143   -3.3733 H   0  0  0  0  0  0  0  0  0  0  0  0
    1.6084   -1.9207   -4.3888 H   0  0  0  0  0  0  0  0  0  0  0  0
   -5.7319   -0.0574    1.4900 H   0  0  0  0  0  0  0  0  0  0  0  0
   -7.7794   -1.4101    1.3735 H   0  0  0  0  0  0  0  0  0  0  0  0
   -8.9100   -5.3235   -0.6635 H   0  0  0  0  0  0  0  0  0  0  0  0
   -7.1998   -5.4628   -0.2512 H   0  0  0  0  0  0  0  0  0  0  0  0
   -7.7177   -4.6118   -1.7639 H   0  0  0  0  0  0  0  0  0  0  0  0
   -3.1591    3.4092   -0.2085 H   0  0  0  0  0  0  0  0  0  0  0  0
   -1.4882    3.5756    0.2593 H   0  0  0  0  0  0  0  0  0  0  0  0
   -5.0107    5.4855    3.5159 H   0  0  0  0  0  0  0  0  0  0  0  0
   -3.8490    4.5349    5.5106 H   0  0  0  0  0  0  0  0  0  0  0  0
   -2.0001    2.8869    5.1803 H   0  0  0  0  0  0  0  0  0  0  0  0
    2.6721    1.9639   -2.1043 H   0  0  0  0  0  0  0  0  0  0  0  0
    5.1024    2.1872   -2.1813 H   0  0  0  0  0  0  0  0  0  0  0  0
  1  2  1  0
  2  3  1  0
  3  4  1  0
  4  5  2  0
  4  6  1  0
  6  7  1  0
  7  8  2  0
  8  9  1  0
  9 10  2  0
 10 11  1  0
 11 12  1  0
 12 13  1  0
 13 14  2  0
 14 15  1  0
 15 16  1  0
 16 17  1  0
 17 18  1  0
 17 19  1  0
 14 20  1  0
 20 21  2  0
 20 22  1  0
 22 23  1  0
 23 24  2  0
 24 25  1  0
 25 26  2  0
 26 27  1  0
 27 28  1  0
 26 29  1  0
 29 30  2  0
 22 31  1  0
 31 32  2  0
 31 33  1  0
 33 34  1  0
 34 35  1  0
 35 36  2  0
 36 37  1  0
 36 38  1  0
 38 39  2  0
 39 40  1  0
 40 41  2  0
 41 42  1  0
 10 43  1  0
 43 44  2  0
 44  7  1  0
 15 11  2  0
 30 23  1  0
 41 35  1  0
 33 13  1  0
  1 45  1  0
  1 46  1  0
  1 47  1  0
  3 48  1  0
  6 49  1  0
  8 50  1  0
  9 51  1  0
 16 52  1  0
 16 53  1  0
 18 54  1  0
 18 55  1  0
 18 56  1  0
 19 57  1  0
 19 58  1  0
 19 59  1  0
 24 60  1  0
 25 61  1  0
 28 62  1  0
 28 63  1  0
 28 64  1  0
 34 65  1  0
 34 66  1  0
 38 67  1  0
 39 68  1  0
 40 69  1  0
 43 70  1  0
 44 71  1  0
M  END
$$$$
