
     RDKit          3D

 39 43  0  0  0  0  0  0  0  0999 V2000
   -4.6195    2.9589    0.5867 C   0  0  0  0  0  0  0  0  0  0  0  0
   -4.2145    1.6916    0.0289 N   0  0  0  0  0  0  0  0  0  0  0  0
   -3.1864    0.9011    0.4440 C   0  0  0  0  0  0  0  0  0  0  0  0
   -3.1699   -0.2099   -0.3834 C   0  0  0  0  0  0  0  0  0  0  0  0
   -2.2280   -1.3115   -0.2936 C   0  0  0  0  0  0  0  0  0  0  0  0
   -2.3920   -2.3983   -1.2992 C   0  0  0  0  0  0  0  0  0  0  0  0
   -1.5314   -3.4240   -1.2369 C   0  0  0  0  0  0  0  0  0  0  0  0
   -0.5298   -3.4258   -0.2449 C   0  0  0  0  0  0  0  0  0  0  0  0
    0.4309   -4.2777    0.0436 N   0  0  0  0  0  0  0  0  0  0  0  0
    1.1303   -3.7726    1.1204 N   0  0  0  0  0  0  0  0  0  0  0  0
    0.5771   -2.6259    1.4507 C   0  0  0  0  0  0  0  0  0  0  0  0
    1.0915   -1.5738    2.7246 S   0  0  0  0  0  0  0  0  0  0  0  0
    1.8680   -0.3311    1.7092 C   0  0  0  0  0  0  0  0  0  0  0  0
    1.2875    0.9307    1.5884 C   0  0  0  0  0  0  0  0  0  0  0  0
    1.8914    1.9084    0.7899 C   0  0  0  0  0  0  0  0  0  0  0  0
    3.0733    1.6638    0.1054 C   0  0  0  0  0  0  0  0  0  0  0  0
    3.6121    2.6355   -0.6514 N   0  0  0  0  0  0  0  0  0  0  0  0
    4.7644    2.3645   -1.3035 C   0  0  0  0  0  0  0  0  0  0  0  0
    5.4199    1.1497   -1.2400 C   0  0  0  0  0  0  0  0  0  0  0  0
    4.8597    0.1473   -0.4581 C   0  0  0  0  0  0  0  0  0  0  0  0
    3.6661    0.3896    0.2342 C   0  0  0  0  0  0  0  0  0  0  0  0
    3.0635   -0.5967    1.0360 C   0  0  0  0  0  0  0  0  0  0  0  0
   -0.4889   -2.3531    0.6269 N   0  0  0  0  0  0  0  0  0  0  0  0
   -1.3276   -1.2680    0.6400 N   0  0  0  0  0  0  0  0  0  0  0  0
   -4.2521    0.0326   -1.2651 C   0  0  0  0  0  0  0  0  0  0  0  0
   -4.8859    1.1812   -1.0165 N   0  0  0  0  0  0  0  0  0  0  0  0
   -5.6509    2.8677    0.9361 H   0  0  0  0  0  0  0  0  0  0  0  0
   -4.5430    3.7193   -0.1945 H   0  0  0  0  0  0  0  0  0  0  0  0
   -3.9634    3.2149    1.4223 H   0  0  0  0  0  0  0  0  0  0  0  0
   -2.5540    1.1767    1.2770 H   0  0  0  0  0  0  0  0  0  0  0  0
   -3.1707   -2.3627   -2.0472 H   0  0  0  0  0  0  0  0  0  0  0  0
   -1.5819   -4.2552   -1.9314 H   0  0  0  0  0  0  0  0  0  0  0  0
    0.3585    1.1649    2.1026 H   0  0  0  0  0  0  0  0  0  0  0  0
    1.4267    2.8872    0.6988 H   0  0  0  0  0  0  0  0  0  0  0  0
    5.1592    3.1823   -1.9000 H   0  0  0  0  0  0  0  0  0  0  0  0
    6.3428    0.9869   -1.7848 H   0  0  0  0  0  0  0  0  0  0  0  0
    5.3547   -0.8184   -0.3914 H   0  0  0  0  0  0  0  0  0  0  0  0
    3.5286   -1.5768    1.1295 H   0  0  0  0  0  0  0  0  0  0  0  0
   -4.6163   -0.5733   -2.0840 H   0  0  0  0  0  0  0  0  0  0  0  0
  1  2  1  0
  2  3  1  0
  3  4  2  0
  4  5  1  0
  5  6  1  0
  6  7  2  0
  7  8  1  0
  8  9  2  0
  9 10  1  0
 10 11  2  0
 11 12  1  0
 12 13  1  0
 13 14  2  0
 14 15  1  0
 15 16  2  0
 16 17  1  0
 17 18  2  0
 18 19  1  0
 19 20  2  0
 20 21  1  0
 21 22  2  0
 11 23  1  0
 23 24  1  0
  4 25  1  0
 25 26  2  0
 26  2  1  0
 24  5  2  0
 23  8  1  0
 22 13  1  0
 21 16  1  0
  1 27  1  0
  1 28  1  0
  1 29  1  0
  3 30  1  0
  6 31  1  0
  7 32  1  0
 14 33  1  0
 15 34  1  0
 18 35  1  0
 19 36  1  0
 20 37  1  0
 22 38  1  0
 25 39  1  0
M  END
$$$$
