
     RDKit          3D

 59 62  0  0  0  0  0  0  0  0999 V2000
   -2.1739   -4.9766    0.2000 C   0  0  0  0  0  0  0  0  0  0  0  0
   -2.5705   -3.9050    1.1483 C   0  0  0  0  0  0  0  0  0  0  0  0
   -2.8976   -4.2176    2.4065 N   0  0  0  0  0  0  0  0  0  0  0  0
   -3.1982   -3.0417    2.9676 N   0  0  0  0  0  0  0  0  0  0  0  0
   -3.0861   -1.9793    2.1169 C   0  0  0  0  0  0  0  0  0  0  0  0
   -3.3835   -0.5973    2.5519 C   0  0  0  0  0  0  0  0  0  0  0  0
   -2.6701   -2.5048    0.9055 C   0  0  0  0  0  0  0  0  0  0  0  0
   -2.3963   -1.7847   -0.3786 C   0  0  0  0  0  0  0  0  0  0  0  0
   -1.1251   -0.9704   -0.3498 C   0  0  0  0  0  0  0  0  0  0  0  0
    0.3842   -1.7427   -0.0889 S   0  0  0  0  0  0  0  0  0  0  0  0
    1.2387   -0.2938   -0.2210 C   0  0  0  0  0  0  0  0  0  0  0  0
    0.4242    0.7742   -0.4774 C   0  0  0  0  0  0  0  0  0  0  0  0
   -0.9652    0.3991   -0.5289 C   0  0  0  0  0  0  0  0  0  0  0  0
   -2.0849    1.2995   -0.7991 C   0  0  0  0  0  0  0  0  0  0  0  0
   -2.7356    1.1892   -1.8363 O   0  0  0  0  0  0  0  0  0  0  0  0
   -2.4018    2.2028    0.1910 N   0  0  0  0  0  0  0  0  0  0  0  0
   -3.2026    3.3903   -0.0457 C   0  0  0  0  0  0  0  0  0  0  0  0
   -2.4022    4.5015    0.5871 C   0  0  2  0  0  0  0  0  0  0  0  0
   -1.4438    5.0269   -0.3326 O   0  0  0  0  0  0  0  0  0  0  0  0
   -1.7200    3.7724    1.7267 C   0  0  0  0  0  0  0  0  0  0  0  0
   -1.4970    2.4280    1.2615 O   0  0  0  0  0  0  0  0  0  0  0  0
    1.0090    2.0798   -0.6653 C   0  0  0  0  0  0  0  0  0  0  0  0
    0.3242    3.0616   -0.9448 O   0  0  0  0  0  0  0  0  0  0  0  0
    2.3905    2.1226   -0.4989 N   0  0  0  0  0  0  0  0  0  0  0  0
    3.0405    3.4146   -0.6273 C   0  0  0  0  0  0  0  0  0  0  0  0
    3.2028    1.0463   -0.1202 C   0  0  0  0  0  0  0  0  0  0  0  0
    4.3929    1.2256    0.1551 O   0  0  0  0  0  0  0  0  0  0  0  0
    2.6185   -0.2286   -0.0684 N   0  0  0  0  0  0  0  0  0  0  0  0
    3.4948   -1.3691    0.2434 C   0  0  0  0  0  0  0  0  0  0  0  0
    4.2094   -2.0234   -0.9640 C   0  0  0  0  0  0  0  0  0  0  0  0
    3.2484   -2.6467   -1.9748 C   0  0  0  0  0  0  0  0  0  0  0  0
    5.1787   -1.0838   -1.6819 C   0  0  0  0  0  0  0  0  0  0  0  0
   -1.2532   -4.7054   -0.3259 H   0  0  0  0  0  0  0  0  0  0  0  0
   -1.9979   -5.9257    0.7169 H   0  0  0  0  0  0  0  0  0  0  0  0
   -2.9619   -5.1343   -0.5421 H   0  0  0  0  0  0  0  0  0  0  0  0
   -3.4762   -3.0362    3.9424 H   0  0  0  0  0  0  0  0  0  0  0  0
   -2.5639    0.0763    2.2850 H   0  0  0  0  0  0  0  0  0  0  0  0
   -4.3032   -0.2360    2.0773 H   0  0  0  0  0  0  0  0  0  0  0  0
   -3.5172   -0.5404    3.6385 H   0  0  0  0  0  0  0  0  0  0  0  0
   -2.3380   -2.4988   -1.2107 H   0  0  0  0  0  0  0  0  0  0  0  0
   -3.2572   -1.1440   -0.5981 H   0  0  0  0  0  0  0  0  0  0  0  0
   -3.3904    3.5373   -1.1123 H   0  0  0  0  0  0  0  0  0  0  0  0
   -4.1518    3.2386    0.4772 H   0  0  0  0  0  0  0  0  0  0  0  0
   -3.0176    5.3382    0.9263 H   0  0  0  0  0  0  0  0  0  0  0  0
   -0.8431    4.2925   -0.5962 H   0  0  0  0  0  0  0  0  0  0  0  0
   -0.7560    4.2116    1.9979 H   0  0  0  0  0  0  0  0  0  0  0  0
   -2.3633    3.7119    2.6102 H   0  0  0  0  0  0  0  0  0  0  0  0
    4.0149    3.3020   -1.1129 H   0  0  0  0  0  0  0  0  0  0  0  0
    3.1928    3.8252    0.3760 H   0  0  0  0  0  0  0  0  0  0  0  0
    2.4417    4.1177   -1.2122 H   0  0  0  0  0  0  0  0  0  0  0  0
    2.9325   -2.1306    0.7934 H   0  0  0  0  0  0  0  0  0  0  0  0
    4.2612   -1.0272    0.9502 H   0  0  0  0  0  0  0  0  0  0  0  0
    4.8141   -2.8442   -0.5529 H   0  0  0  0  0  0  0  0  0  0  0  0
    2.6015   -3.3876   -1.4952 H   0  0  0  0  0  0  0  0  0  0  0  0
    3.8052   -3.1654   -2.7615 H   0  0  0  0  0  0  0  0  0  0  0  0
    2.6220   -1.8919   -2.4596 H   0  0  0  0  0  0  0  0  0  0  0  0
    4.6536   -0.2663   -2.1881 H   0  0  0  0  0  0  0  0  0  0  0  0
    5.9009   -0.6571   -0.9790 H   0  0  0  0  0  0  0  0  0  0  0  0
    5.7481   -1.6290   -2.4440 H   0  0  0  0  0  0  0  0  0  0  0  0
  1  2  1  0
  2  3  2  0
  3  4  1  0
  4  5  1  0
  5  6  1  0
  5  7  2  0
  7  8  1  0
  8  9  1  0
  9 10  1  0
 10 11  1  0
 11 12  2  0
 12 13  1  0
 13 14  1  0
 14 15  2  0
 14 16  1  0
 16 17  1  0
 17 18  1  0
 18 19  1  0
 18 20  1  0
 20 21  1  0
 12 22  1  0
 22 23  2  0
 22 24  1  0
 24 25  1  0
 24 26  1  0
 26 27  2  0
 26 28  1  0
 28 29  1  0
 29 30  1  0
 30 31  1  0
 30 32  1  0
  7  2  1  0
 13  9  2  0
 21 16  1  0
 28 11  1  0
  1 33  1  0
  1 34  1  0
  1 35  1  0
  4 36  1  0
  6 37  1  0
  6 38  1  0
  6 39  1  0
  8 40  1  0
  8 41  1  0
 17 42  1  0
 17 43  1  0
 18 44  1  1
 19 45  1  0
 20 46  1  0
 20 47  1  0
 25 48  1  0
 25 49  1  0
 25 50  1  0
 29 51  1  0
 29 52  1  0
 30 53  1  0
 31 54  1  0
 31 55  1  0
 31 56  1  0
 32 57  1  0
 32 58  1  0
 32 59  1  0
M  END
$$$$
