
     RDKit          3D

 55 56  0  0  0  0  0  0  0  0999 V2000
   -4.6754    0.1552   -0.8062 C   0  0  0  0  0  0  0  0  0  0  0  0
   -3.6823    1.1764   -0.2419 C   0  0  0  0  0  0  0  0  0  0  0  0
   -3.2328    2.1342   -1.3407 C   0  0  0  0  0  0  0  0  0  0  0  0
   -2.5331    0.4671    0.6182 N   0  0  2  0  0  4  0  0  0  0  0  0
   -3.1856    0.3069    2.0151 C   0  0  0  0  0  0  0  0  0  0  0  0
   -1.1904    1.2542    0.6736 C   0  0  0  0  0  0  0  0  0  0  0  0
   -0.5158    0.9438   -0.6738 C   0  0  0  0  0  0  0  0  0  0  0  0
   -1.0956   -0.3948   -1.1241 C   0  0  0  0  0  0  0  0  0  0  0  0
   -1.9884   -0.8597    0.0280 C   0  0  1  0  0  0  0  0  0  0  0  0
   -1.1635   -1.6211    1.0848 C   0  0  0  0  0  0  0  0  0  0  0  0
   -0.0284   -0.8032    1.7255 C   0  0  1  0  0  0  0  0  0  0  0  0
    1.1609   -1.0510    0.9410 O   0  0  0  0  0  0  0  0  0  0  0  0
    2.3559   -0.8323    1.5715 C   0  0  0  0  0  0  0  0  0  0  0  0
    2.4525   -0.4495    2.7300 O   0  0  0  0  0  0  0  0  0  0  0  0
    3.5359   -1.1126    0.6599 C   0  0  0  0  0  0  0  0  0  0  0  0
    3.6788   -2.6313    0.5096 C   0  0  0  0  0  0  0  0  0  0  0  0
    4.9435   -2.9856   -0.0408 O   0  0  0  0  0  0  0  0  0  0  0  0
    3.4494   -0.3045   -0.6315 C   0  0  0  0  0  0  0  0  0  0  0  0
    3.8646    1.0395   -0.6095 C   0  0  0  0  0  0  0  0  0  0  0  0
    3.7873    1.8330   -1.7553 C   0  0  0  0  0  0  0  0  0  0  0  0
    3.2908    1.2989   -2.9404 C   0  0  0  0  0  0  0  0  0  0  0  0
    2.8680   -0.0273   -2.9790 C   0  0  0  0  0  0  0  0  0  0  0  0
    2.9411   -0.8237   -1.8326 C   0  0  0  0  0  0  0  0  0  0  0  0
   -0.3060    0.7124    1.8142 C   0  0  0  0  0  0  0  0  0  0  0  0
    0.0000    0.0000    0.0000 Br  0  0  0  0  0 15  0  0  0  0  0  0
   -5.5641    0.6701   -1.1898 H   0  0  0  0  0  0  0  0  0  0  0  0
   -4.2476   -0.4047   -1.6430 H   0  0  0  0  0  0  0  0  0  0  0  0
   -5.0214   -0.5558   -0.0518 H   0  0  0  0  0  0  0  0  0  0  0  0
   -4.2219    1.8021    0.4800 H   0  0  0  0  0  0  0  0  0  0  0  0
   -2.5729    2.9206   -0.9663 H   0  0  0  0  0  0  0  0  0  0  0  0
   -4.1095    2.6519   -1.7505 H   0  0  0  0  0  0  0  0  0  0  0  0
   -2.7670    1.6251   -2.1862 H   0  0  0  0  0  0  0  0  0  0  0  0
   -3.3949    1.3088    2.4036 H   0  0  0  0  0  0  0  0  0  0  0  0
   -2.5282   -0.2108    2.7118 H   0  0  0  0  0  0  0  0  0  0  0  0
   -4.1059   -0.2718    1.9050 H   0  0  0  0  0  0  0  0  0  0  0  0
   -1.4100    2.3149    0.8274 H   0  0  0  0  0  0  0  0  0  0  0  0
   -0.7027    1.7193   -1.4206 H   0  0  0  0  0  0  0  0  0  0  0  0
    0.5740    0.9065   -0.5894 H   0  0  0  0  0  0  0  0  0  0  0  0
   -0.3110   -1.1193   -1.3661 H   0  0  0  0  0  0  0  0  0  0  0  0
   -1.6842   -0.2687   -2.0381 H   0  0  0  0  0  0  0  0  0  0  0  0
   -2.8201   -1.4863   -0.3017 H   0  0  0  0  0  0  0  0  0  0  0  0
   -1.8356   -1.9899    1.8684 H   0  0  0  0  0  0  0  0  0  0  0  0
   -0.7474   -2.5237    0.6170 H   0  0  0  0  0  0  0  0  0  0  0  0
    0.1437   -1.2057    2.7322 H   0  0  0  0  0  0  0  0  0  0  0  0
    4.4371   -0.7623    1.1847 H   0  0  0  0  0  0  0  0  0  0  0  0
    3.6176   -3.1137    1.4918 H   0  0  0  0  0  0  0  0  0  0  0  0
    2.8900   -3.0787   -0.1036 H   0  0  0  0  0  0  0  0  0  0  0  0
    5.0504   -2.5320   -0.8959 H   0  0  0  0  0  0  0  0  0  0  0  0
    4.2681    1.4788    0.3029 H   0  0  0  0  0  0  0  0  0  0  0  0
    4.1289    2.8655   -1.7264 H   0  0  0  0  0  0  0  0  0  0  0  0
    3.2468    1.9124   -3.8372 H   0  0  0  0  0  0  0  0  0  0  0  0
    2.4907   -0.4459   -3.9095 H   0  0  0  0  0  0  0  0  0  0  0  0
    2.5953   -1.8514   -1.9086 H   0  0  0  0  0  0  0  0  0  0  0  0
    0.6374    1.2731    1.8050 H   0  0  0  0  0  0  0  0  0  0  0  0
   -0.7670    0.9463    2.7807 H   0  0  0  0  0  0  0  0  0  0  0  0
  1  2  1  0
  2  3  1  0
  4  2  1  6
  4  5  1  0
  4  6  1  0
  6  7  1  0
  7  8  1  0
  8  9  1  0
  9 10  1  0
 10 11  1  0
 11 12  1  0
 12 13  1  0
 13 14  2  0
 13 15  1  0
 15 16  1  0
 16 17  1  0
 15 18  1  0
 18 19  2  0
 19 20  1  0
 20 21  2  0
 21 22  1  0
 22 23  2  0
 11 24  1  0
  9  4  1  0
 23 18  1  0
 24  6  1  0
  1 26  1  0
  1 27  1  0
  1 28  1  0
  2 29  1  0
  3 30  1  0
  3 31  1  0
  3 32  1  0
  5 33  1  0
  5 34  1  0
  5 35  1  0
  6 36  1  0
  7 37  1  0
  7 38  1  0
  8 39  1  0
  8 40  1  0
  9 41  1  6
 10 42  1  0
 10 43  1  0
 11 44  1  1
 15 45  1  0
 16 46  1  0
 16 47  1  0
 17 48  1  0
 19 49  1  0
 20 50  1  0
 21 51  1  0
 22 52  1  0
 23 53  1  0
 24 54  1  0
 24 55  1  0
M  CHG  2   4   1  25  -1
M  END
$$$$
