
     RDKit          3D

 36 37  0  0  0  0  0  0  0  0999 V2000
   -2.0282    2.8891    2.0199 C   0  0  0  0  0  0  0  0  0  0  0  0
   -2.0764    1.4453    1.8668 N   0  0  0  0  0  0  0  0  0  0  0  0
   -2.1861    0.6798    3.1025 C   0  0  0  0  0  0  0  0  0  0  0  0
   -1.6541    0.9039    0.6511 C   0  0  0  0  0  0  0  0  0  0  0  0
   -1.0912    1.5763   -0.2141 O   0  0  0  0  0  0  0  0  0  0  0  0
   -1.8696   -0.5442    0.3748 C   0  0  0  0  0  0  0  0  0  0  0  0
   -3.1125   -1.1196    0.6895 C   0  0  0  0  0  0  0  0  0  0  0  0
   -3.3277   -2.4789    0.4774 C   0  0  0  0  0  0  0  0  0  0  0  0
   -2.3096   -3.2610   -0.0597 C   0  0  0  0  0  0  0  0  0  0  0  0
   -1.0834   -2.6853   -0.4126 C   0  0  0  0  0  0  0  0  0  0  0  0
   -0.8521   -1.3183   -0.2266 C   0  0  0  0  0  0  0  0  0  0  0  0
    0.3466   -0.6806   -0.6360 N   0  0  0  0  0  0  0  0  0  0  0  0
    1.4767   -1.2509   -1.1869 C   0  0  0  0  0  0  0  0  0  0  0  0
    1.6600   -2.4452   -1.3955 O   0  0  0  0  0  0  0  0  0  0  0  0
    2.5584   -0.2917   -1.5674 C   0  0  0  0  0  0  0  0  0  0  0  0
    2.7502    0.9292   -0.9051 C   0  0  0  0  0  0  0  0  0  0  0  0
    3.7807    1.7864   -1.3010 C   0  0  0  0  0  0  0  0  0  0  0  0
    4.6276    1.4275   -2.3492 C   0  0  0  0  0  0  0  0  0  0  0  0
    4.4529    0.2082   -3.0014 C   0  0  0  0  0  0  0  0  0  0  0  0
    3.4245   -0.6510   -2.6096 C   0  0  0  0  0  0  0  0  0  0  0  0
   -2.8379    3.2080    2.6827 H   0  0  0  0  0  0  0  0  0  0  0  0
   -1.0626    3.1663    2.4532 H   0  0  0  0  0  0  0  0  0  0  0  0
   -2.1436    3.3914    1.0550 H   0  0  0  0  0  0  0  0  0  0  0  0
   -1.9573   -0.3782    2.9667 H   0  0  0  0  0  0  0  0  0  0  0  0
   -1.4712    1.0811    3.8282 H   0  0  0  0  0  0  0  0  0  0  0  0
   -3.2005    0.7945    3.4944 H   0  0  0  0  0  0  0  0  0  0  0  0
   -3.9143   -0.5096    1.0979 H   0  0  0  0  0  0  0  0  0  0  0  0
   -4.2857   -2.9280    0.7269 H   0  0  0  0  0  0  0  0  0  0  0  0
   -2.4693   -4.3239   -0.2271 H   0  0  0  0  0  0  0  0  0  0  0  0
   -0.3344   -3.3340   -0.8566 H   0  0  0  0  0  0  0  0  0  0  0  0
    0.2960    0.3382   -0.6164 H   0  0  0  0  0  0  0  0  0  0  0  0
    2.1254    1.2249   -0.0671 H   0  0  0  0  0  0  0  0  0  0  0  0
    3.9261    2.7334   -0.7867 H   0  0  0  0  0  0  0  0  0  0  0  0
    5.4290    2.0961   -2.6539 H   0  0  0  0  0  0  0  0  0  0  0  0
    5.1170   -0.0764   -3.8136 H   0  0  0  0  0  0  0  0  0  0  0  0
    3.2966   -1.6030   -3.1215 H   0  0  0  0  0  0  0  0  0  0  0  0
  1  2  1  0
  2  3  1  0
  2  4  1  0
  4  5  2  0
  4  6  1  0
  6  7  2  0
  7  8  1  0
  8  9  2  0
  9 10  1  0
 10 11  2  0
 11 12  1  0
 12 13  1  0
 13 14  2  0
 13 15  1  0
 15 16  2  0
 16 17  1  0
 17 18  2  0
 18 19  1  0
 19 20  2  0
 11  6  1  0
 20 15  1  0
  1 21  1  0
  1 22  1  0
  1 23  1  0
  3 24  1  0
  3 25  1  0
  3 26  1  0
  7 27  1  0
  8 28  1  0
  9 29  1  0
 10 30  1  0
 12 31  1  0
 16 32  1  0
 17 33  1  0
 18 34  1  0
 19 35  1  0
 20 36  1  0
M  END
$$$$
