
     RDKit          3D

 18 19  0  0  0  0  0  0  0  0999 V2000
    2.9905   -2.2045   -0.2080 O   0  0  0  0  0  0  0  0  0  0  0  0
    2.0715   -1.3941   -0.1452 C   0  0  0  0  0  0  0  0  0  0  0  0
    0.7483   -1.8136   -0.0413 O   0  0  0  0  0  0  0  0  0  0  0  0
   -0.3148   -0.8967    0.0315 C   0  0  0  0  0  0  0  0  0  0  0  0
   -1.6029   -1.4169    0.1336 C   0  0  0  0  0  0  0  0  0  0  0  0
   -2.6839   -0.5410    0.2082 C   0  0  0  0  0  0  0  0  0  0  0  0
   -2.4670    0.8384    0.1800 C   0  0  0  0  0  0  0  0  0  0  0  0
   -1.1678    1.3465    0.0771 C   0  0  0  0  0  0  0  0  0  0  0  0
   -0.0794    0.4739    0.0020 C   0  0  0  0  0  0  0  0  0  0  0  0
    1.2891    0.9528   -0.1059 C   0  0  0  0  0  0  0  0  0  0  0  0
    2.3082    0.0859   -0.1758 C   0  0  0  0  0  0  0  0  0  0  0  0
    3.6198    0.5270   -0.2790 O   0  0  0  0  0  0  0  0  0  0  0  0
   -1.7614   -2.4912    0.1548 H   0  0  0  0  0  0  0  0  0  0  0  0
   -3.6955   -0.9317    0.2882 H   0  0  0  0  0  0  0  0  0  0  0  0
   -3.3127    1.5198    0.2383 H   0  0  0  0  0  0  0  0  0  0  0  0
   -1.0220    2.4237    0.0568 H   0  0  0  0  0  0  0  0  0  0  0  0
    1.4486    2.0244   -0.1271 H   0  0  0  0  0  0  0  0  0  0  0  0
    3.6313    1.4972   -0.2882 H   0  0  0  0  0  0  0  0  0  0  0  0
  1  2  2  0
  2  3  1  0
  3  4  1  0
  4  5  2  0
  5  6  1  0
  6  7  2  0
  7  8  1  0
  8  9  2  0
  9 10  1  0
 10 11  2  0
 11 12  1  0
 11  2  1  0
  9  4  1  0
  5 13  1  0
  6 14  1  0
  7 15  1  0
  8 16  1  0
 10 17  1  0
 12 18  1  0
M  END
$$$$
