
     RDKit          3D

 86 90  0  0  0  0  0  0  0  0999 V2000
    1.4564    3.2476   -3.6066 C   0  0  0  0  0  0  0  0  0  0  0  0
    0.8780    3.7042   -2.2732 C   0  0  0  0  0  0  0  0  0  0  0  0
    1.3384    2.8274   -1.1860 N   0  0  0  0  0  0  0  0  0  0  0  0
    0.7391    1.5545   -1.0949 C   0  0  0  0  0  0  0  0  0  0  0  0
   -0.6614    1.4081   -1.0505 C   0  0  0  0  0  0  0  0  0  0  0  0
   -1.2877    0.1557   -0.9214 C   0  0  0  0  0  0  0  0  0  0  0  0
   -2.7551    0.0392   -0.8697 C   0  0  0  0  0  0  0  0  0  0  0  0
   -3.5185    0.8527   -0.0159 C   0  0  0  0  0  0  0  0  0  0  0  0
   -4.9092    0.7274    0.0542 C   0  0  0  0  0  0  0  0  0  0  0  0
   -5.5805   -0.2219   -0.7241 C   0  0  0  0  0  0  0  0  0  0  0  0
   -7.0857   -0.3648   -0.6426 C   0  0  0  0  0  0  0  0  0  0  0  0
   -7.5250   -1.7359   -0.3405 N   0  0  0  0  0  0  0  0  0  0  0  0
   -8.9911   -1.8874   -0.4634 C   0  0  0  0  0  0  0  0  0  0  0  0
   -9.7259   -1.8905    0.8850 C   0  0  0  0  0  0  0  0  0  0  0  0
   -9.2859   -2.9332    1.7666 O   0  0  0  0  0  0  0  0  0  0  0  0
   -7.9245   -3.3238    1.5388 C   0  0  0  0  0  0  0  0  0  0  0  0
   -7.0632   -2.1719    0.9956 C   0  0  0  0  0  0  0  0  0  0  0  0
   -4.8310   -1.0274   -1.5895 C   0  0  0  0  0  0  0  0  0  0  0  0
   -3.4408   -0.8991   -1.6580 C   0  0  0  0  0  0  0  0  0  0  0  0
   -0.4700   -0.9742   -0.8154 C   0  0  0  0  0  0  0  0  0  0  0  0
    0.9261   -0.8541   -0.8299 C   0  0  0  0  0  0  0  0  0  0  0  0
    1.6821   -2.1147   -0.6337 C   0  0  0  0  0  0  0  0  0  0  0  0
    1.4199   -3.1043   -1.3039 O   0  0  0  0  0  0  0  0  0  0  0  0
    2.6074   -2.0831    0.3808 N   0  0  0  0  0  0  0  0  0  0  0  0
    3.2778   -3.2711    0.8530 C   0  0  0  0  0  0  0  0  0  0  0  0
    4.7335   -2.9712    1.0715 C   0  0  0  0  0  0  0  0  0  0  0  0
    5.7776   -3.5003    0.3939 C   0  0  0  0  0  0  0  0  0  0  0  0
    5.6654   -4.4277   -0.7845 C   0  0  0  0  0  0  0  0  0  0  0  0
    7.1443   -3.1736    0.7799 C   0  0  0  0  0  0  0  0  0  0  0  0
    7.3961   -2.3331    1.7959 C   0  0  0  0  0  0  0  0  0  0  0  0
    8.7715   -1.9536    2.2446 C   0  0  0  0  0  0  0  0  0  0  0  0
    6.3405   -1.7736    2.4756 N   0  0  0  0  0  0  0  0  0  0  0  0
    5.0213   -2.0182    2.1963 C   0  0  0  0  0  0  0  0  0  0  0  0
    4.1233   -1.4639    2.8279 O   0  0  0  0  0  0  0  0  0  0  0  0
    1.5504    0.3996   -1.0039 C   0  0  0  0  0  0  0  0  0  0  0  0
    3.0525    0.5183   -1.0974 C   0  0  0  0  0  0  0  0  0  0  0  0
    1.6497    3.4217    0.1367 C   0  0  0  0  0  0  0  0  0  0  0  0
    0.5126    4.2875    0.6982 C   0  0  0  0  0  0  0  0  0  0  0  0
    1.0298    5.6312    1.1977 C   0  0  0  0  0  0  0  0  0  0  0  0
    2.1630    5.4550    2.0386 O   0  0  0  0  0  0  0  0  0  0  0  0
    3.2801    4.8140    1.4137 C   0  0  0  0  0  0  0  0  0  0  0  0
    2.9739    4.1900    0.0609 C   0  0  0  0  0  0  0  0  0  0  0  0
    1.1727    3.9501   -4.3969 H   0  0  0  0  0  0  0  0  0  0  0  0
    2.5504    3.2068   -3.5640 H   0  0  0  0  0  0  0  0  0  0  0  0
    1.0856    2.2577   -3.8893 H   0  0  0  0  0  0  0  0  0  0  0  0
    1.2175    4.7330   -2.1001 H   0  0  0  0  0  0  0  0  0  0  0  0
   -0.2156    3.7537   -2.3399 H   0  0  0  0  0  0  0  0  0  0  0  0
   -1.2885    2.2945   -1.1100 H   0  0  0  0  0  0  0  0  0  0  0  0
   -3.0314    1.5854    0.6235 H   0  0  0  0  0  0  0  0  0  0  0  0
   -5.4616    1.3726    0.7314 H   0  0  0  0  0  0  0  0  0  0  0  0
   -7.4793   -0.0580   -1.6191 H   0  0  0  0  0  0  0  0  0  0  0  0
   -7.4977    0.3384    0.0912 H   0  0  0  0  0  0  0  0  0  0  0  0
   -9.1688   -2.8565   -0.9472 H   0  0  0  0  0  0  0  0  0  0  0  0
   -9.4259   -1.1311   -1.1260 H   0  0  0  0  0  0  0  0  0  0  0  0
   -9.5947   -0.9289    1.3989 H   0  0  0  0  0  0  0  0  0  0  0  0
  -10.8013   -2.0346    0.7298 H   0  0  0  0  0  0  0  0  0  0  0  0
   -7.5187   -3.6798    2.4892 H   0  0  0  0  0  0  0  0  0  0  0  0
   -7.9224   -4.1734    0.8434 H   0  0  0  0  0  0  0  0  0  0  0  0
   -6.0186   -2.5037    0.9356 H   0  0  0  0  0  0  0  0  0  0  0  0
   -7.1195   -1.3383    1.7112 H   0  0  0  0  0  0  0  0  0  0  0  0
   -5.3281   -1.7747   -2.2047 H   0  0  0  0  0  0  0  0  0  0  0  0
   -2.8944   -1.5476   -2.3383 H   0  0  0  0  0  0  0  0  0  0  0  0
   -0.9118   -1.9629   -0.6897 H   0  0  0  0  0  0  0  0  0  0  0  0
    2.6122   -1.2871    1.0128 H   0  0  0  0  0  0  0  0  0  0  0  0
    3.1103   -4.1046    0.1639 H   0  0  0  0  0  0  0  0  0  0  0  0
    2.8037   -3.5598    1.7994 H   0  0  0  0  0  0  0  0  0  0  0  0
    6.3598   -4.1248   -1.5775 H   0  0  0  0  0  0  0  0  0  0  0  0
    4.6716   -4.4327   -1.2343 H   0  0  0  0  0  0  0  0  0  0  0  0
    5.9098   -5.4532   -0.4869 H   0  0  0  0  0  0  0  0  0  0  0  0
    7.9616   -3.6279    0.2250 H   0  0  0  0  0  0  0  0  0  0  0  0
    8.9304   -0.8787    2.1066 H   0  0  0  0  0  0  0  0  0  0  0  0
    8.9064   -2.1855    3.3099 H   0  0  0  0  0  0  0  0  0  0  0  0
    9.5470   -2.4825    1.6818 H   0  0  0  0  0  0  0  0  0  0  0  0
    6.5082   -1.1253    3.2370 H   0  0  0  0  0  0  0  0  0  0  0  0
    3.3489    1.3557   -1.7383 H   0  0  0  0  0  0  0  0  0  0  0  0
    3.4856    0.6647   -0.1010 H   0  0  0  0  0  0  0  0  0  0  0  0
    3.4927   -0.3743   -1.5577 H   0  0  0  0  0  0  0  0  0  0  0  0
    1.8213    2.6104    0.8595 H   0  0  0  0  0  0  0  0  0  0  0  0
   -0.3024    4.4514   -0.0173 H   0  0  0  0  0  0  0  0  0  0  0  0
    0.0678    3.7485    1.5481 H   0  0  0  0  0  0  0  0  0  0  0  0
    0.2512    6.1323    1.7836 H   0  0  0  0  0  0  0  0  0  0  0  0
    1.2889    6.3003    0.3675 H   0  0  0  0  0  0  0  0  0  0  0  0
    4.0903    5.5482    1.3209 H   0  0  0  0  0  0  0  0  0  0  0  0
    3.6241    4.0396    2.1131 H   0  0  0  0  0  0  0  0  0  0  0  0
    3.7958    3.5370   -0.2527 H   0  0  0  0  0  0  0  0  0  0  0  0
    2.9113    4.9847   -0.6926 H   0  0  0  0  0  0  0  0  0  0  0  0
  1  2  1  0
  2  3  1  0
  3  4  1  0
  4  5  2  0
  5  6  1  0
  6  7  1  0
  7  8  2  0
  8  9  1  0
  9 10  2  0
 10 11  1  0
 11 12  1  0
 12 13  1  0
 13 14  1  0
 14 15  1  0
 15 16  1  0
 16 17  1  0
 10 18  1  0
 18 19  2  0
  6 20  2  0
 20 21  1  0
 21 22  1  0
 22 23  2  0
 22 24  1  0
 24 25  1  0
 25 26  1  0
 26 27  2  0
 27 28  1  0
 27 29  1  0
 29 30  2  0
 30 31  1  0
 30 32  1  0
 32 33  1  0
 33 34  2  0
 21 35  2  0
 35 36  1  0
  3 37  1  0
 37 38  1  0
 38 39  1  0
 39 40  1  0
 40 41  1  0
 41 42  1  0
 35  4  1  0
 42 37  1  0
 19  7  1  0
 33 26  1  0
 17 12  1  0
  1 43  1  0
  1 44  1  0
  1 45  1  0
  2 46  1  0
  2 47  1  0
  5 48  1  0
  8 49  1  0
  9 50  1  0
 11 51  1  0
 11 52  1  0
 13 53  1  0
 13 54  1  0
 14 55  1  0
 14 56  1  0
 16 57  1  0
 16 58  1  0
 17 59  1  0
 17 60  1  0
 18 61  1  0
 19 62  1  0
 20 63  1  0
 24 64  1  0
 25 65  1  0
 25 66  1  0
 28 67  1  0
 28 68  1  0
 28 69  1  0
 29 70  1  0
 31 71  1  0
 31 72  1  0
 31 73  1  0
 32 74  1  0
 36 75  1  0
 36 76  1  0
 36 77  1  0
 37 78  1  0
 38 79  1  0
 38 80  1  0
 39 81  1  0
 39 82  1  0
 41 83  1  0
 41 84  1  0
 42 85  1  0
 42 86  1  0
M  END
$$$$
