
     RDKit          3D

 40 42  0  0  0  0  0  0  0  0999 V2000
   -5.4424    0.6929    0.6992 C   0  0  0  0  0  0  0  0  0  0  0  0
   -4.4432    1.1216   -0.3771 C   0  0  0  0  0  0  0  0  0  0  0  0
   -4.7375    0.4810   -1.7338 C   0  0  0  0  0  0  0  0  0  0  0  0
   -3.0507    0.9378    0.0392 N   0  0  0  0  0  0  0  0  0  0  0  0
   -2.1777    1.9913    0.1908 C   0  0  0  0  0  0  0  0  0  0  0  0
   -0.9595    1.4883    0.5767 C   0  0  0  0  0  0  0  0  0  0  0  0
   -1.0845    0.0758    0.6712 C   0  0  0  0  0  0  0  0  0  0  0  0
   -0.1854   -0.9585    1.0082 C   0  0  0  0  0  0  0  0  0  0  0  0
    1.1139   -0.6499    1.3360 O   0  0  0  0  0  0  0  0  0  0  0  0
    2.0100   -1.1110    0.3283 C   0  0  0  0  0  0  0  0  0  0  0  0
    3.2630   -0.2354    0.2482 C   0  0  0  0  0  0  0  0  0  0  0  0
    3.3946    0.8291    0.8532 O   0  0  0  0  0  0  0  0  0  0  0  0
    4.2202   -0.7694   -0.5975 N   0  0  0  0  0  0  0  0  0  0  0  0
    5.4007   -0.1330   -0.8674 C   0  0  0  0  0  0  0  0  0  0  0  0
    6.3177   -0.5924   -1.6850 N   0  0  0  0  0  0  0  0  0  0  0  0
    7.3117    0.3551   -1.6825 C   0  0  0  0  0  0  0  0  0  0  0  0
    6.9923    1.4017   -0.8492 C   0  0  0  0  0  0  0  0  0  0  0  0
    5.7738    1.0730   -0.3298 N   0  0  0  0  0  0  0  0  0  0  0  0
   -0.6252   -2.2862    1.0451 C   0  0  0  0  0  0  0  0  0  0  0  0
   -1.9374   -2.5940    0.7060 C   0  0  0  0  0  0  0  0  0  0  0  0
   -2.8419   -1.5899    0.3383 C   0  0  0  0  0  0  0  0  0  0  0  0
   -2.4037   -0.2524    0.3323 C   0  0  0  0  0  0  0  0  0  0  0  0
   -6.4596    0.9848    0.4144 H   0  0  0  0  0  0  0  0  0  0  0  0
   -5.4444   -0.3894    0.8596 H   0  0  0  0  0  0  0  0  0  0  0  0
   -5.2124    1.1705    1.6566 H   0  0  0  0  0  0  0  0  0  0  0  0
   -4.5733    2.2053   -0.5085 H   0  0  0  0  0  0  0  0  0  0  0  0
   -4.0163    0.8146   -2.4869 H   0  0  0  0  0  0  0  0  0  0  0  0
   -5.7380    0.7605   -2.0812 H   0  0  0  0  0  0  0  0  0  0  0  0
   -4.6956   -0.6102   -1.6961 H   0  0  0  0  0  0  0  0  0  0  0  0
   -2.4909    3.0130    0.0150 H   0  0  0  0  0  0  0  0  0  0  0  0
   -0.0668    2.0663    0.7785 H   0  0  0  0  0  0  0  0  0  0  0  0
    2.3203   -2.1338    0.5758 H   0  0  0  0  0  0  0  0  0  0  0  0
    1.5484   -1.0970   -0.6691 H   0  0  0  0  0  0  0  0  0  0  0  0
    4.0835   -1.6450   -1.0859 H   0  0  0  0  0  0  0  0  0  0  0  0
    8.2019    0.2347   -2.2845 H   0  0  0  0  0  0  0  0  0  0  0  0
    7.5045    2.3168   -0.5885 H   0  0  0  0  0  0  0  0  0  0  0  0
    5.2073    1.6013    0.3248 H   0  0  0  0  0  0  0  0  0  0  0  0
    0.0524   -3.0799    1.3464 H   0  0  0  0  0  0  0  0  0  0  0  0
   -2.2705   -3.6300    0.7324 H   0  0  0  0  0  0  0  0  0  0  0  0
   -3.8595   -1.8581    0.0793 H   0  0  0  0  0  0  0  0  0  0  0  0
  1  2  1  0
  2  3  1  0
  2  4  1  0
  4  5  1  0
  5  6  2  0
  6  7  1  0
  7  8  2  0
  8  9  1  0
  9 10  1  0
 10 11  1  0
 11 12  2  0
 11 13  1  0
 13 14  1  0
 14 15  2  0
 15 16  1  0
 16 17  2  0
 17 18  1  0
  8 19  1  0
 19 20  2  0
 20 21  1  0
 21 22  2  0
 22  4  1  0
 22  7  1  0
 18 14  1  0
  1 23  1  0
  1 24  1  0
  1 25  1  0
  2 26  1  0
  3 27  1  0
  3 28  1  0
  3 29  1  0
  5 30  1  0
  6 31  1  0
 10 32  1  0
 10 33  1  0
 13 34  1  0
 16 35  1  0
 17 36  1  0
 18 37  1  0
 19 38  1  0
 20 39  1  0
 21 40  1  0
M  END
$$$$
