
     RDKit          3D

 28 30  0  0  0  0  0  0  0  0999 V2000
    3.6100   -0.5550   -0.0492 C   0  0  0  0  0  0  0  0  0  0  0  0
    2.1302   -0.7720    0.0724 C   0  0  0  0  0  0  0  0  0  0  0  0
    1.6313   -1.9955    0.3020 C   0  0  0  0  0  0  0  0  0  0  0  0
    0.1826   -2.2648    0.4347 C   0  0  0  0  0  0  0  0  0  0  0  0
   -0.1803   -3.4091    0.7005 O   0  0  0  0  0  0  0  0  0  0  0  0
   -0.6738   -1.1952    0.2423 N   0  0  0  0  0  0  0  0  0  0  0  0
   -0.1943    0.1291    0.0295 C   0  0  0  0  0  0  0  0  0  0  0  0
   -1.1039    1.1989   -0.0991 C   0  0  0  0  0  0  0  0  0  0  0  0
   -0.6219    2.5012   -0.2824 C   0  0  0  0  0  0  0  0  0  0  0  0
    0.7458    2.7377   -0.3646 C   0  0  0  0  0  0  0  0  0  0  0  0
    1.6457    1.6772   -0.2555 C   0  0  0  0  0  0  0  0  0  0  0  0
    1.1936    0.3631   -0.0551 C   0  0  0  0  0  0  0  0  0  0  0  0
   -2.5897    0.9786    0.0019 C   0  0  0  0  0  0  0  0  0  0  0  0
   -2.9524   -0.4453   -0.3823 C   0  0  0  0  0  0  0  0  0  0  0  0
   -2.1025   -1.4187    0.4153 C   0  0  0  0  0  0  0  0  0  0  0  0
    3.8630   -0.1372   -1.0295 H   0  0  0  0  0  0  0  0  0  0  0  0
    3.9698    0.1238    0.7313 H   0  0  0  0  0  0  0  0  0  0  0  0
    4.1696   -1.4913    0.0554 H   0  0  0  0  0  0  0  0  0  0  0  0
    2.2654   -2.8677    0.4127 H   0  0  0  0  0  0  0  0  0  0  0  0
   -1.3129    3.3373   -0.3657 H   0  0  0  0  0  0  0  0  0  0  0  0
    1.1147    3.7496   -0.5131 H   0  0  0  0  0  0  0  0  0  0  0  0
    2.7061    1.9036   -0.3252 H   0  0  0  0  0  0  0  0  0  0  0  0
   -2.9064    1.1867    1.0311 H   0  0  0  0  0  0  0  0  0  0  0  0
   -3.1235    1.6713   -0.6594 H   0  0  0  0  0  0  0  0  0  0  0  0
   -2.7778   -0.5982   -1.4552 H   0  0  0  0  0  0  0  0  0  0  0  0
   -4.0164   -0.6273   -0.1956 H   0  0  0  0  0  0  0  0  0  0  0  0
   -2.3188   -1.3379    1.4881 H   0  0  0  0  0  0  0  0  0  0  0  0
   -2.3530   -2.4428    0.1150 H   0  0  0  0  0  0  0  0  0  0  0  0
  1  2  1  0
  2  3  2  0
  3  4  1  0
  4  5  2  0
  4  6  1  0
  6  7  1  0
  7  8  2  0
  8  9  1  0
  9 10  2  0
 10 11  1  0
 11 12  2  0
  8 13  1  0
 13 14  1  0
 14 15  1  0
 12  2  1  0
 15  6  1  0
 12  7  1  0
  1 16  1  0
  1 17  1  0
  1 18  1  0
  3 19  1  0
  9 20  1  0
 10 21  1  0
 11 22  1  0
 13 23  1  0
 13 24  1  0
 14 25  1  0
 14 26  1  0
 15 27  1  0
 15 28  1  0
M  END
$$$$
