
     RDKit          3D

 60 64  0  0  0  0  0  0  0  0999 V2000
   -4.0234    3.4077   -1.4682 C   0  0  0  0  0  0  0  0  0  0  0  0
   -3.2852    2.2856   -0.7405 C   0  0  0  0  0  0  0  0  0  0  0  0
   -3.1383    1.0221   -1.6212 C   0  0  0  0  0  0  0  0  0  0  0  0
   -4.1843    0.1108   -1.0642 C   0  0  0  0  0  0  0  0  0  0  0  0
   -4.6092   -1.1063   -1.5721 C   0  0  0  0  0  0  0  0  0  0  0  0
   -5.5868   -1.8125   -0.8675 C   0  0  0  0  0  0  0  0  0  0  0  0
   -6.1223   -1.2972    0.3233 C   0  0  0  0  0  0  0  0  0  0  0  0
   -5.6795   -0.0729    0.8298 C   0  0  0  0  0  0  0  0  0  0  0  0
   -4.6955    0.6044    0.1329 C   0  0  0  0  0  0  0  0  0  0  0  0
   -4.1152    1.8726    0.4463 N   0  0  0  0  0  0  0  0  0  0  0  0
   -3.4249    2.0761    1.9884 S   0  0  0  0  0  6  0  0  0  0  0  0
   -4.3871    1.7094    3.0080 O   0  0  0  0  0  0  0  0  0  0  0  0
   -2.7797    3.3731    2.0263 O   0  0  0  0  0  0  0  0  0  0  0  0
   -2.1315    0.8458    2.0279 C   0  0  0  0  0  0  0  0  0  0  0  0
   -2.3989   -0.4260    2.5347 C   0  0  0  0  0  0  0  0  0  0  0  0
   -1.3843   -1.3892    2.5666 C   0  0  0  0  0  0  0  0  0  0  0  0
   -0.0917   -1.0936    2.1024 C   0  0  0  0  0  0  0  0  0  0  0  0
    0.1577    0.1927    1.6234 C   0  0  0  0  0  0  0  0  0  0  0  0
   -0.8470    1.1715    1.5975 C   0  0  0  0  0  0  0  0  0  0  0  0
    1.4975    0.5249    1.1195 C   0  0  0  0  0  0  0  0  0  0  0  0
    1.7119    1.6531    0.6807 O   0  0  0  0  0  0  0  0  0  0  0  0
    2.4490   -0.4789    1.1690 N   0  0  0  0  0  0  0  0  0  0  0  0
    3.7449   -0.1911    0.5702 C   0  0  0  0  0  0  0  0  0  0  0  0
    3.7058   -0.5147   -0.9300 C   0  0  0  0  0  0  0  0  0  0  0  0
    2.7087   -0.9878   -1.4807 O   0  0  0  0  0  0  0  0  0  0  0  0
    4.8596   -0.2426   -1.6390 N   0  0  0  0  0  0  0  0  0  0  0  0
    4.9421   -0.4776   -3.0694 C   0  0  0  0  0  0  0  0  0  0  0  0
    6.2088    0.2484   -3.4988 C   0  0  0  0  0  0  0  0  0  0  0  0
    7.0920    0.1529   -2.2608 C   0  0  0  0  0  0  0  0  0  0  0  0
    6.0982    0.3142   -1.1191 C   0  0  0  0  0  0  0  0  0  0  0  0
    2.2298   -1.7695    1.6292 C   0  0  0  0  0  0  0  0  0  0  0  0
    3.1297   -2.6133    1.6253 O   0  0  0  0  0  0  0  0  0  0  0  0
    0.9538   -2.0552    2.1081 N   0  0  0  0  0  0  0  0  0  0  0  0
    0.6900   -3.4032    2.5952 C   0  0  0  0  0  0  0  0  0  0  0  0
   -4.1481    4.2754   -0.8114 H   0  0  0  0  0  0  0  0  0  0  0  0
   -3.4637    3.7286   -2.3528 H   0  0  0  0  0  0  0  0  0  0  0  0
   -5.0217    3.0931   -1.7922 H   0  0  0  0  0  0  0  0  0  0  0  0
   -2.2957    2.6562   -0.4577 H   0  0  0  0  0  0  0  0  0  0  0  0
   -3.2914    1.2288   -2.6846 H   0  0  0  0  0  0  0  0  0  0  0  0
   -2.1509    0.5699   -1.4768 H   0  0  0  0  0  0  0  0  0  0  0  0
   -4.1979   -1.5048   -2.4946 H   0  0  0  0  0  0  0  0  0  0  0  0
   -5.9434   -2.7672   -1.2484 H   0  0  0  0  0  0  0  0  0  0  0  0
   -6.8953   -1.8509    0.8513 H   0  0  0  0  0  0  0  0  0  0  0  0
   -6.1139    0.3340    1.7371 H   0  0  0  0  0  0  0  0  0  0  0  0
   -3.3919   -0.6807    2.9012 H   0  0  0  0  0  0  0  0  0  0  0  0
   -1.6403   -2.3694    2.9594 H   0  0  0  0  0  0  0  0  0  0  0  0
   -0.6216    2.1736    1.2366 H   0  0  0  0  0  0  0  0  0  0  0  0
    4.5252   -0.7940    1.0451 H   0  0  0  0  0  0  0  0  0  0  0  0
    3.9918    0.8678    0.6999 H   0  0  0  0  0  0  0  0  0  0  0  0
    4.0478   -0.1114   -3.5824 H   0  0  0  0  0  0  0  0  0  0  0  0
    5.0267   -1.5585   -3.2271 H   0  0  0  0  0  0  0  0  0  0  0  0
    6.6672   -0.1927   -4.3879 H   0  0  0  0  0  0  0  0  0  0  0  0
    5.9846    1.3005   -3.7124 H   0  0  0  0  0  0  0  0  0  0  0  0
    7.8844    0.9058   -2.2399 H   0  0  0  0  0  0  0  0  0  0  0  0
    7.5581   -0.8389   -2.2153 H   0  0  0  0  0  0  0  0  0  0  0  0
    6.4150   -0.2047   -0.2106 H   0  0  0  0  0  0  0  0  0  0  0  0
    5.9215    1.3702   -0.8881 H   0  0  0  0  0  0  0  0  0  0  0  0
   -0.0881   -3.8657    1.9793 H   0  0  0  0  0  0  0  0  0  0  0  0
    0.3712   -3.3557    3.6413 H   0  0  0  0  0  0  0  0  0  0  0  0
    1.5755   -4.0430    2.5476 H   0  0  0  0  0  0  0  0  0  0  0  0
  1  2  1  0
  2  3  1  0
  3  4  1  0
  4  5  2  0
  5  6  1  0
  6  7  2  0
  7  8  1  0
  8  9  2  0
  9 10  1  0
 10 11  1  0
 11 12  2  0
 11 13  2  0
 11 14  1  0
 14 15  2  0
 15 16  1  0
 16 17  2  0
 17 18  1  0
 18 19  2  0
 18 20  1  0
 20 21  2  0
 20 22  1  0
 22 23  1  0
 23 24  1  0
 24 25  2  0
 24 26  1  0
 26 27  1  0
 27 28  1  0
 28 29  1  0
 29 30  1  0
 22 31  1  0
 31 32  2  0
 31 33  1  0
 33 34  1  0
 10  2  1  0
 19 14  1  0
 30 26  1  0
  9  4  1  0
 33 17  1  0
  1 35  1  0
  1 36  1  0
  1 37  1  0
  2 38  1  0
  3 39  1  0
  3 40  1  0
  5 41  1  0
  6 42  1  0
  7 43  1  0
  8 44  1  0
 15 45  1  0
 16 46  1  0
 19 47  1  0
 23 48  1  0
 23 49  1  0
 27 50  1  0
 27 51  1  0
 28 52  1  0
 28 53  1  0
 29 54  1  0
 29 55  1  0
 30 56  1  0
 30 57  1  0
 34 58  1  0
 34 59  1  0
 34 60  1  0
M  END
$$$$
