
     RDKit          3D

110111  0  0  0  0  0  0  0  0999 V2000
    8.9363   -1.4650   -2.2675 C   0  0  0  0  0  0  0  0  0  0  0  0
    8.1654   -0.4930   -1.5603 O   0  0  0  0  0  0  0  0  0  0  0  0
    7.3283   -1.0109   -0.6295 C   0  0  0  0  0  0  0  0  0  0  0  0
    7.2039   -2.1976   -0.3643 O   0  0  0  0  0  0  0  0  0  0  0  0
    6.6345    0.0027   -0.0399 N   0  0  0  0  0  0  0  0  0  0  0  0
    5.4027   -0.2448    0.7021 C   0  0  2  0  0  0  0  0  0  0  0  0
    4.2539    0.1536   -0.2481 C   0  0  0  0  0  0  0  0  0  0  0  0
    4.3212    1.1331   -0.9969 O   0  0  0  0  0  0  0  0  0  0  0  0
    3.1208   -0.6217   -0.1703 N   0  0  0  0  0  0  0  0  0  0  0  0
    1.9312   -0.3640   -1.0098 C   0  0  1  0  0  0  0  0  0  0  0  0
    1.2022   -1.6874   -1.3242 C   0  0  0  0  0  0  0  0  0  0  0  0
    2.1040   -2.7816   -1.8642 C   0  0  0  0  0  0  0  0  0  0  0  0
    2.1350   -4.0321   -1.2309 C   0  0  0  0  0  0  0  0  0  0  0  0
    2.9672   -5.0480   -1.7066 C   0  0  0  0  0  0  0  0  0  0  0  0
    3.7694   -4.8273   -2.8250 C   0  0  0  0  0  0  0  0  0  0  0  0
    3.7311   -3.5969   -3.4738 C   0  0  0  0  0  0  0  0  0  0  0  0
    2.8973   -2.5806   -3.0016 C   0  0  0  0  0  0  0  0  0  0  0  0
    1.0278    0.7087   -0.3223 C   0  0  1  0  0  0  0  0  0  0  0  0
    1.7799    1.9121   -0.0420 O   0  0  0  0  0  0  0  0  0  0  0  0
   -0.2026    1.1617   -1.1413 C   0  0  0  0  0  0  0  0  0  0  0  0
   -1.2865    0.1762   -1.2411 N   0  0  0  0  0  0  0  0  0  0  0  0
   -2.2501    0.4919   -2.3210 C   0  0  0  0  0  0  0  0  0  0  0  0
   -3.1547    1.6805   -2.0625 C   0  0  0  0  0  0  0  0  0  0  0  0
   -2.7452    2.9866   -2.3484 C   0  0  0  0  0  0  0  0  0  0  0  0
   -3.5774    4.0752   -2.0548 C   0  0  0  0  0  0  0  0  0  0  0  0
   -4.8432    3.8999   -1.4682 C   0  0  0  0  0  0  0  0  0  0  0  0
   -5.6950    5.0684   -1.1494 C   0  0  0  0  0  0  0  0  0  0  0  0
   -6.6156    5.0757   -0.0977 C   0  0  0  0  0  0  0  0  0  0  0  0
   -7.3773    6.2213    0.1376 C   0  0  0  0  0  0  0  0  0  0  0  0
   -7.2078    7.3346   -0.6741 C   0  0  0  0  0  0  0  0  0  0  0  0
   -6.2798    7.2537   -1.6948 C   0  0  0  0  0  0  0  0  0  0  0  0
   -5.5239    6.1597   -1.9430 N   0  0  0  0  0  0  0  0  0  0  0  0
   -5.2520    2.5790   -1.2138 C   0  0  0  0  0  0  0  0  0  0  0  0
   -4.4240    1.4895   -1.5057 C   0  0  0  0  0  0  0  0  0  0  0  0
   -1.9296   -0.0340    0.0048 N   0  0  0  0  0  0  0  0  0  0  0  0
   -2.3211   -1.3214    0.3612 C   0  0  0  0  0  0  0  0  0  0  0  0
   -1.9856   -2.3415   -0.2421 O   0  0  0  0  0  0  0  0  0  0  0  0
   -3.2173   -1.3785    1.6224 C   0  0  1  0  0  0  0  0  0  0  0  0
   -4.2187   -2.4119    1.3652 N   0  0  0  0  0  0  0  0  0  0  0  0
   -5.3730   -2.1096    0.7087 C   0  0  0  0  0  0  0  0  0  0  0  0
   -5.7942   -0.9806    0.5123 O   0  0  0  0  0  0  0  0  0  0  0  0
   -5.9533   -3.2516    0.2734 O   0  0  0  0  0  0  0  0  0  0  0  0
   -7.0975   -3.0374   -0.5526 C   0  0  0  0  0  0  0  0  0  0  0  0
   -2.4212   -1.6395    2.9380 C   0  0  0  0  0  0  0  0  0  0  0  0
   -3.4070   -1.6997    4.1225 C   0  0  0  0  0  0  0  0  0  0  0  0
   -1.4364   -0.4870    3.2080 C   0  0  0  0  0  0  0  0  0  0  0  0
   -1.6261   -2.9589    2.8988 C   0  0  0  0  0  0  0  0  0  0  0  0
    5.3595    0.5125    2.0655 C   0  0  0  0  0  0  0  0  0  0  0  0
    4.0548    0.1914    2.8244 C   0  0  0  0  0  0  0  0  0  0  0  0
    6.5379    0.0448    2.9476 C   0  0  0  0  0  0  0  0  0  0  0  0
    5.4602    2.0399    1.8918 C   0  0  0  0  0  0  0  0  0  0  0  0
   -0.7612    1.5720   -0.3907 O   0  0  0  0  0  0  0  0  0  0  0  0
   -0.0531    0.4217    0.1157 S   0  0  0  0  0  6  0  0  0  0  0  0
    0.2166    0.2238    1.5189 O   0  0  0  0  0  0  0  0  0  0  0  0
   -0.8482   -0.8867   -0.3662 O   0  0  0  0  0  0  0  0  0  0  0  0
    1.3370    0.2596   -0.6712 O   0  0  0  0  0  0  0  0  0  0  0  0
    8.3128   -2.3001   -2.6081 H   0  0  0  0  0  0  0  0  0  0  0  0
    9.7580   -1.8189   -1.6342 H   0  0  0  0  0  0  0  0  0  0  0  0
    9.3556   -0.9733   -3.1519 H   0  0  0  0  0  0  0  0  0  0  0  0
    6.7100    0.8846   -0.5354 H   0  0  0  0  0  0  0  0  0  0  0  0
    5.3214   -1.3216    0.8918 H   0  0  0  0  0  0  0  0  0  0  0  0
    3.1420   -1.4741    0.3724 H   0  0  0  0  0  0  0  0  0  0  0  0
    2.3030    0.0657   -1.9487 H   0  0  0  0  0  0  0  0  0  0  0  0
    0.7125   -2.0471   -0.4115 H   0  0  0  0  0  0  0  0  0  0  0  0
    0.4189   -1.5296   -2.0712 H   0  0  0  0  0  0  0  0  0  0  0  0
    1.5086   -4.2317   -0.3634 H   0  0  0  0  0  0  0  0  0  0  0  0
    2.9898   -6.0113   -1.2064 H   0  0  0  0  0  0  0  0  0  0  0  0
    4.4201   -5.6168   -3.1944 H   0  0  0  0  0  0  0  0  0  0  0  0
    4.3513   -3.4222   -4.3510 H   0  0  0  0  0  0  0  0  0  0  0  0
    2.8789   -1.6296   -3.5279 H   0  0  0  0  0  0  0  0  0  0  0  0
    0.7075    0.3346    0.6567 H   0  0  0  0  0  0  0  0  0  0  0  0
    2.6211    1.8708   -0.5390 H   0  0  0  0  0  0  0  0  0  0  0  0
    0.1603    1.4261   -2.1436 H   0  0  0  0  0  0  0  0  0  0  0  0
   -0.5829    2.0969   -0.7077 H   0  0  0  0  0  0  0  0  0  0  0  0
   -2.8713   -0.3952   -2.5035 H   0  0  0  0  0  0  0  0  0  0  0  0
   -1.7145    0.6376   -3.2663 H   0  0  0  0  0  0  0  0  0  0  0  0
   -1.7722    3.1735   -2.7950 H   0  0  0  0  0  0  0  0  0  0  0  0
   -3.2213    5.0796   -2.2803 H   0  0  0  0  0  0  0  0  0  0  0  0
   -6.7402    4.2165    0.5549 H   0  0  0  0  0  0  0  0  0  0  0  0
   -8.0947    6.2439    0.9525 H   0  0  0  0  0  0  0  0  0  0  0  0
   -7.7868    8.2402   -0.5217 H   0  0  0  0  0  0  0  0  0  0  0  0
   -6.1000    8.0924   -2.3603 H   0  0  0  0  0  0  0  0  0  0  0  0
   -6.2362    2.3749   -0.7953 H   0  0  0  0  0  0  0  0  0  0  0  0
   -4.7851    0.4862   -1.2885 H   0  0  0  0  0  0  0  0  0  0  0  0
   -2.4253    0.7606    0.4080 H   0  0  0  0  0  0  0  0  0  0  0  0
   -3.7403   -0.4163    1.7096 H   0  0  0  0  0  0  0  0  0  0  0  0
   -3.8894   -3.3507    1.1658 H   0  0  0  0  0  0  0  0  0  0  0  0
   -6.8225   -2.4752   -1.4513 H   0  0  0  0  0  0  0  0  0  0  0  0
   -7.4814   -4.0154   -0.8533 H   0  0  0  0  0  0  0  0  0  0  0  0
   -7.8812   -2.5150    0.0010 H   0  0  0  0  0  0  0  0  0  0  0  0
   -4.0107   -0.7875    4.1811 H   0  0  0  0  0  0  0  0  0  0  0  0
   -4.0954   -2.5477    4.0405 H   0  0  0  0  0  0  0  0  0  0  0  0
   -2.8786   -1.8026    5.0751 H   0  0  0  0  0  0  0  0  0  0  0  0
   -1.9455    0.4824    3.1909 H   0  0  0  0  0  0  0  0  0  0  0  0
   -0.6358   -0.4592    2.4639 H   0  0  0  0  0  0  0  0  0  0  0  0
   -0.9617   -0.5953    4.1897 H   0  0  0  0  0  0  0  0  0  0  0  0
   -2.2758   -3.8224    2.7253 H   0  0  0  0  0  0  0  0  0  0  0  0
   -0.8654   -2.9477    2.1116 H   0  0  0  0  0  0  0  0  0  0  0  0
   -1.1070   -3.1299    3.8499 H   0  0  0  0  0  0  0  0  0  0  0  0
    3.9127   -0.8896    2.9372 H   0  0  0  0  0  0  0  0  0  0  0  0
    4.0668    0.6300    3.8305 H   0  0  0  0  0  0  0  0  0  0  0  0
    3.1781    0.5945    2.3080 H   0  0  0  0  0  0  0  0  0  0  0  0
    7.5055    0.2909    2.4958 H   0  0  0  0  0  0  0  0  0  0  0  0
    6.5107   -1.0397    3.1032 H   0  0  0  0  0  0  0  0  0  0  0  0
    6.5083    0.5236    3.9349 H   0  0  0  0  0  0  0  0  0  0  0  0
    5.4617    2.5457    2.8645 H   0  0  0  0  0  0  0  0  0  0  0  0
    4.6152    2.4382    1.3234 H   0  0  0  0  0  0  0  0  0  0  0  0
    6.3825    2.3261    1.3749 H   0  0  0  0  0  0  0  0  0  0  0  0
   -1.6284   -0.9942    0.2170 H   0  0  0  0  0  0  0  0  0  0  0  0
    1.7374   -0.5963   -0.4235 H   0  0  0  0  0  0  0  0  0  0  0  0
  1  2  1  0
  2  3  1  0
  3  4  2  0
  3  5  1  0
  5  6  1  0
  6  7  1  0
  7  8  2  0
  7  9  1  0
  9 10  1  0
 10 11  1  0
 11 12  1  0
 12 13  2  0
 13 14  1  0
 14 15  2  0
 15 16  1  0
 16 17  2  0
 10 18  1  0
 18 19  1  0
 18 20  1  0
 20 21  1  0
 21 22  1  0
 22 23  1  0
 23 24  2  0
 24 25  1  0
 25 26  2  0
 26 27  1  0
 27 28  2  0
 28 29  1  0
 29 30  2  0
 30 31  1  0
 31 32  2  0
 26 33  1  0
 33 34  2  0
 21 35  1  0
 35 36  1  0
 36 37  2  0
 36 38  1  0
 38 39  1  0
 39 40  1  0
 40 41  2  0
 40 42  1  0
 42 43  1  0
 38 44  1  0
 44 45  1  0
 44 46  1  0
 44 47  1  0
  6 48  1  0
 48 49  1  0
 48 50  1  0
 48 51  1  0
 52 53  2  0
 53 54  2  0
 53 55  1  0
 53 56  1  0
 17 12  1  0
 34 23  1  0
 32 27  1  0
  1 57  1  0
  1 58  1  0
  1 59  1  0
  5 60  1  0
  6 61  1  1
  9 62  1  0
 10 63  1  6
 11 64  1  0
 11 65  1  0
 13 66  1  0
 14 67  1  0
 15 68  1  0
 16 69  1  0
 17 70  1  0
 18 71  1  1
 19 72  1  0
 20 73  1  0
 20 74  1  0
 22 75  1  0
 22 76  1  0
 24 77  1  0
 25 78  1  0
 28 79  1  0
 29 80  1  0
 30 81  1  0
 31 82  1  0
 33 83  1  0
 34 84  1  0
 35 85  1  0
 38 86  1  1
 39 87  1  0
 43 88  1  0
 43 89  1  0
 43 90  1  0
 45 91  1  0
 45 92  1  0
 45 93  1  0
 46 94  1  0
 46 95  1  0
 46 96  1  0
 47 97  1  0
 47 98  1  0
 47 99  1  0
 49100  1  0
 49101  1  0
 49102  1  0
 50103  1  0
 50104  1  0
 50105  1  0
 51106  1  0
 51107  1  0
 51108  1  0
 55109  1  0
 56110  1  0
M  END
$$$$
