
     RDKit          3D

 47 49  0  0  0  0  0  0  0  0999 V2000
    1.8685   -1.4651   -1.7989 C   0  0  0  0  0  0  0  0  0  0  0  0
    1.2866   -0.1612   -1.2674 C   0  0  0  0  0  0  0  0  0  0  0  0
    1.5682    0.0575    0.1657 N   0  0  0  0  0  0  0  0  0  0  0  0
    0.5232    0.0168    1.1131 C   0  0  0  0  0  0  0  0  0  0  0  0
    0.5290    0.5029    2.2422 O   0  0  0  0  0  0  0  0  0  0  0  0
   -0.7382   -0.6553    0.7420 C   0  0  0  0  0  0  0  0  0  0  0  0
   -0.7741   -2.0567    0.6303 C   0  0  0  0  0  0  0  0  0  0  0  0
   -1.9720   -2.6994    0.3186 C   0  0  0  0  0  0  0  0  0  0  0  0
   -3.1015   -1.9179    0.1194 C   0  0  0  0  0  0  0  0  0  0  0  0
   -3.0577   -0.5244    0.2261 C   0  0  0  0  0  0  0  0  0  0  0  0
   -1.8894    0.1234    0.5761 C   0  0  0  0  0  0  0  0  0  0  0  0
   -4.3711    0.0160    0.0488 N   0  0  0  0  0  0  0  0  0  0  0  0
   -4.5840    1.5485   -0.6316 S   0  0  0  0  0  6  0  0  0  0  0  0
   -4.5577    2.5781    0.8209 C   0  0  0  0  0  0  0  0  0  0  0  0
   -5.9333    1.6161   -1.1583 O   0  0  0  0  0  0  0  0  0  0  0  0
   -3.4454    1.8770   -1.4630 O   0  0  0  0  0  0  0  0  0  0  0  0
   -5.2130   -1.0822   -0.5228 C   0  0  0  0  0  0  0  0  0  0  0  0
   -4.4959   -2.3901   -0.1504 C   0  0  0  0  0  0  0  0  0  0  0  0
    2.9141    0.4335    0.5579 C   0  0  0  0  0  0  0  0  0  0  0  0
    3.3339    0.3588    1.8950 C   0  0  0  0  0  0  0  0  0  0  0  0
    4.6381    0.6926    2.2786 C   0  0  0  0  0  0  0  0  0  0  0  0
    5.5635    1.1086    1.3294 C   0  0  0  0  0  0  0  0  0  0  0  0
    5.1877    1.1985   -0.0100 C   0  0  0  0  0  0  0  0  0  0  0  0
    6.1845    1.6131   -1.0525 C   0  0  0  0  0  0  0  0  0  0  0  0
    3.8768    0.8453   -0.3832 C   0  0  0  0  0  0  0  0  0  0  0  0
    1.5993   -1.5944   -2.8519 H   0  0  0  0  0  0  0  0  0  0  0  0
    2.9596   -1.4863   -1.7279 H   0  0  0  0  0  0  0  0  0  0  0  0
    1.4873   -2.3265   -1.2434 H   0  0  0  0  0  0  0  0  0  0  0  0
    1.6415    0.6979   -1.8459 H   0  0  0  0  0  0  0  0  0  0  0  0
    0.2084   -0.1684   -1.4509 H   0  0  0  0  0  0  0  0  0  0  0  0
    0.1252   -2.6409    0.8118 H   0  0  0  0  0  0  0  0  0  0  0  0
   -2.0184   -3.7822    0.2529 H   0  0  0  0  0  0  0  0  0  0  0  0
   -1.8335    1.1970    0.7041 H   0  0  0  0  0  0  0  0  0  0  0  0
   -3.5820    2.5208    1.3017 H   0  0  0  0  0  0  0  0  0  0  0  0
   -4.7490    3.6060    0.5040 H   0  0  0  0  0  0  0  0  0  0  0  0
   -5.3477    2.2503    1.4996 H   0  0  0  0  0  0  0  0  0  0  0  0
   -5.2597   -0.9914   -1.6154 H   0  0  0  0  0  0  0  0  0  0  0  0
   -6.2279   -1.0547   -0.1153 H   0  0  0  0  0  0  0  0  0  0  0  0
   -4.5443   -3.1187   -0.9646 H   0  0  0  0  0  0  0  0  0  0  0  0
   -4.9241   -2.8229    0.7599 H   0  0  0  0  0  0  0  0  0  0  0  0
    2.6701    0.0111    2.6810 H   0  0  0  0  0  0  0  0  0  0  0  0
    4.9253    0.6188    3.3244 H   0  0  0  0  0  0  0  0  0  0  0  0
    6.5743    1.3596    1.6411 H   0  0  0  0  0  0  0  0  0  0  0  0
    6.9628    2.2512   -0.6208 H   0  0  0  0  0  0  0  0  0  0  0  0
    5.6988    2.1879   -1.8480 H   0  0  0  0  0  0  0  0  0  0  0  0
    6.6572    0.7285   -1.4902 H   0  0  0  0  0  0  0  0  0  0  0  0
    3.6361    0.9227   -1.4381 H   0  0  0  0  0  0  0  0  0  0  0  0
  1  2  1  0
  2  3  1  0
  3  4  1  0
  4  5  2  0
  4  6  1  0
  6  7  2  0
  7  8  1  0
  8  9  2  0
  9 10  1  0
 10 11  2  0
 10 12  1  0
 12 13  1  0
 13 14  1  0
 13 15  2  0
 13 16  2  0
 12 17  1  0
 17 18  1  0
  3 19  1  0
 19 20  2  0
 20 21  1  0
 21 22  2  0
 22 23  1  0
 23 24  1  0
 23 25  2  0
 11  6  1  0
 25 19  1  0
 18  9  1  0
  1 26  1  0
  1 27  1  0
  1 28  1  0
  2 29  1  0
  2 30  1  0
  7 31  1  0
  8 32  1  0
 11 33  1  0
 14 34  1  0
 14 35  1  0
 14 36  1  0
 17 37  1  0
 17 38  1  0
 18 39  1  0
 18 40  1  0
 20 41  1  0
 21 42  1  0
 22 43  1  0
 24 44  1  0
 24 45  1  0
 24 46  1  0
 25 47  1  0
M  END
$$$$
