
     RDKit          3D

 58 61  0  0  0  0  0  0  0  0999 V2000
   -5.4441    0.1219    4.7636 C   0  0  0  0  0  0  0  0  0  0  0  0
   -4.9674    0.2701    3.3692 C   0  0  0  0  0  0  0  0  0  0  0  0
   -4.4984    1.4351    2.7260 C   0  0  0  0  0  0  0  0  0  0  0  0
   -4.1833    1.0453    1.4410 C   0  0  0  0  0  0  0  0  0  0  0  0
   -3.6616    1.8363    0.3029 C   0  0  0  0  0  0  0  0  0  0  0  0
   -4.4499   -0.2985    1.3942 N   0  0  0  0  0  0  0  0  0  0  0  0
   -4.3084   -1.2135    0.2740 C   0  0  0  0  0  0  0  0  0  0  0  0
   -3.1401   -2.1719    0.4488 C   0  0  0  0  0  0  0  0  0  0  0  0
   -1.8317   -1.5287    0.0405 C   0  0  0  0  0  0  0  0  0  0  0  0
   -1.0255   -1.1460    0.8887 O   0  0  0  0  0  0  0  0  0  0  0  0
   -1.5840   -1.3532   -1.3090 N   0  0  0  0  0  0  0  0  0  0  0  0
   -2.2444   -2.0766   -2.3954 C   0  0  0  0  0  0  0  0  0  0  0  0
   -1.2149   -2.1351   -3.5138 C   0  0  1  0  0  0  0  0  0  0  0  0
   -1.8166   -2.1217   -4.7229 F   0  0  0  0  0  0  0  0  0  0  0  0
   -0.4075   -0.8683   -3.3046 C   0  0  0  0  0  0  0  0  0  0  0  0
   -0.3190   -0.7548   -1.7764 C   0  0  1  0  0  0  0  0  0  0  0  0
   -0.0932    0.6923   -1.3147 C   0  0  0  0  0  0  0  0  0  0  0  0
    1.2492    1.1527   -1.5956 N   0  0  0  0  0  0  0  0  0  0  0  0
    2.3128    1.2061   -0.7462 C   0  0  0  0  0  0  0  0  0  0  0  0
    3.3344    1.7345   -1.5136 C   0  0  0  0  0  0  0  0  0  0  0  0
    4.7072    2.0684   -1.1410 C   0  0  0  0  0  0  0  0  0  0  0  0
    5.2765    3.0455   -1.6275 O   0  0  0  0  0  0  0  0  0  0  0  0
    5.3611    1.2548   -0.2223 N   0  0  0  0  0  0  0  0  0  0  0  0
    4.9901   -0.0907    0.1927 C   0  0  0  0  0  0  0  0  0  0  0  0
    6.2975   -0.7203    0.6563 C   0  0  0  0  0  0  0  0  0  0  0  0
    7.0872    0.4759    1.1702 C   0  0  0  0  0  0  0  0  0  0  0  0
    6.7253    1.5625    0.1696 C   0  0  0  0  0  0  0  0  0  0  0  0
    2.8363    1.9913   -2.7738 N   0  0  0  0  0  0  0  0  0  0  0  0
    1.5657    1.6131   -2.8130 N   0  0  0  0  0  0  0  0  0  0  0  0
   -4.9498   -0.7833    2.5469 N   0  0  0  0  0  0  0  0  0  0  0  0
   -4.7611   -0.5138    5.3358 H   0  0  0  0  0  0  0  0  0  0  0  0
   -6.4405   -0.3319    4.7857 H   0  0  0  0  0  0  0  0  0  0  0  0
   -5.5040    1.0932    5.2653 H   0  0  0  0  0  0  0  0  0  0  0  0
   -4.4082    2.4281    3.1437 H   0  0  0  0  0  0  0  0  0  0  0  0
   -2.6993    1.4417   -0.0333 H   0  0  0  0  0  0  0  0  0  0  0  0
   -4.3607    1.8169   -0.5389 H   0  0  0  0  0  0  0  0  0  0  0  0
   -3.5099    2.8819    0.5900 H   0  0  0  0  0  0  0  0  0  0  0  0
   -5.2476   -1.7773    0.2224 H   0  0  0  0  0  0  0  0  0  0  0  0
   -4.2342   -0.6243   -0.6442 H   0  0  0  0  0  0  0  0  0  0  0  0
   -3.3027   -3.0774   -0.1416 H   0  0  0  0  0  0  0  0  0  0  0  0
   -3.0438   -2.5098    1.4876 H   0  0  0  0  0  0  0  0  0  0  0  0
   -3.1348   -1.5135   -2.6965 H   0  0  0  0  0  0  0  0  0  0  0  0
   -2.5463   -3.0829   -2.0938 H   0  0  0  0  0  0  0  0  0  0  0  0
   -0.5843   -3.0269   -3.4333 H   0  0  0  0  0  0  0  0  0  0  0  0
   -0.9393   -0.0171   -3.7475 H   0  0  0  0  0  0  0  0  0  0  0  0
    0.5761   -0.9288   -3.7800 H   0  0  0  0  0  0  0  0  0  0  0  0
    0.4883   -1.4013   -1.4053 H   0  0  0  0  0  0  0  0  0  0  0  0
   -0.7928    1.3819   -1.8019 H   0  0  0  0  0  0  0  0  0  0  0  0
   -0.2407    0.8111   -0.2379 H   0  0  0  0  0  0  0  0  0  0  0  0
    2.2459    0.9068    0.2884 H   0  0  0  0  0  0  0  0  0  0  0  0
    4.5277   -0.6513   -0.6231 H   0  0  0  0  0  0  0  0  0  0  0  0
    4.2900   -0.0046    1.0307 H   0  0  0  0  0  0  0  0  0  0  0  0
    6.8216   -1.1689   -0.1972 H   0  0  0  0  0  0  0  0  0  0  0  0
    6.1473   -1.4952    1.4135 H   0  0  0  0  0  0  0  0  0  0  0  0
    6.7366    0.7498    2.1734 H   0  0  0  0  0  0  0  0  0  0  0  0
    8.1646    0.2908    1.2180 H   0  0  0  0  0  0  0  0  0  0  0  0
    6.7883    2.5703    0.5886 H   0  0  0  0  0  0  0  0  0  0  0  0
    7.3601    1.5091   -0.7231 H   0  0  0  0  0  0  0  0  0  0  0  0
  1  2  1  0
  2  3  1  0
  3  4  2  0
  4  5  1  0
  4  6  1  0
  6  7  1  0
  7  8  1  0
  8  9  1  0
  9 10  2  0
  9 11  1  0
 11 12  1  0
 12 13  1  0
 13 14  1  0
 13 15  1  0
 15 16  1  0
 16 17  1  0
 17 18  1  0
 18 19  1  0
 19 20  2  0
 20 21  1  0
 21 22  2  0
 21 23  1  0
 23 24  1  0
 24 25  1  0
 25 26  1  0
 26 27  1  0
 20 28  1  0
 28 29  2  0
  6 30  1  0
 30  2  2  0
 16 11  1  0
 29 18  1  0
 27 23  1  0
  1 31  1  0
  1 32  1  0
  1 33  1  0
  3 34  1  0
  5 35  1  0
  5 36  1  0
  5 37  1  0
  7 38  1  0
  7 39  1  0
  8 40  1  0
  8 41  1  0
 12 42  1  0
 12 43  1  0
 13 44  1  1
 15 45  1  0
 15 46  1  0
 16 47  1  1
 17 48  1  0
 17 49  1  0
 19 50  1  0
 24 51  1  0
 24 52  1  0
 25 53  1  0
 25 54  1  0
 26 55  1  0
 26 56  1  0
 27 57  1  0
 27 58  1  0
M  END
$$$$
