
     RDKit          3D

 56 56  0  0  0  0  0  0  0  0999 V2000
   -3.2415    2.7573    1.4908 C   0  0  0  0  0  0  0  0  0  0  0  0
   -2.5533    1.7352    0.5897 C   0  0  0  0  0  0  0  0  0  0  0  0
   -3.1614    0.3927    0.6338 N   0  0  0  0  0  0  0  0  0  0  0  0
   -4.5955    0.3797    0.2717 C   0  0  0  0  0  0  0  0  0  0  0  0
   -4.9948    0.8597   -1.1379 C   0  0  0  0  0  0  0  0  0  0  0  0
   -4.6029   -0.0570   -2.1559 O   0  0  0  0  0  0  0  0  0  0  0  0
   -2.3920   -0.5681   -0.1797 C   0  0  0  0  0  0  0  0  0  0  0  0
   -1.0716   -0.9803    0.4880 C   0  0  0  0  0  0  0  0  0  0  0  0
   -0.3664   -2.0774   -0.3225 C   0  0  0  0  0  0  0  0  0  0  0  0
    0.9405   -2.5492    0.3320 C   0  0  0  0  0  0  0  0  0  0  0  0
    1.5685   -3.7515   -0.3683 C   0  0  0  0  0  0  0  0  0  0  0  0
    1.9090   -1.4725    0.5602 N   0  0  0  0  0  0  0  0  0  0  0  0
    2.5894   -0.6856   -0.3703 C   0  0  0  0  0  0  0  0  0  0  0  0
    2.4021   -0.7995   -1.7452 C   0  0  0  0  0  0  0  0  0  0  0  0
    3.1020    0.0306   -2.6018 C   0  0  0  0  0  0  0  0  0  0  0  0
    3.9607    0.9816   -2.1959 N   0  0  0  0  0  0  0  0  0  0  0  0
    4.1222    1.1499   -0.8788 C   0  0  0  0  0  0  0  0  0  0  0  0
    4.9815    2.1574   -0.4668 C   0  0  0  0  0  0  0  0  0  0  0  0
    5.1905    2.4236    0.8825 C   0  0  0  0  0  0  0  0  0  0  0  0
    6.2612    3.6854    1.3530 Cl  0  0  0  0  0  0  0  0  0  0  0  0
    4.5318    1.6828    1.8511 C   0  0  0  0  0  0  0  0  0  0  0  0
    3.6674    0.6615    1.4567 C   0  0  0  0  0  0  0  0  0  0  0  0
    3.4518    0.3587    0.0879 C   0  0  0  0  0  0  0  0  0  0  0  0
    0.1655    0.8871    1.4443 O   0  0  0  0  0  0  0  0  0  0  0  0
   -0.0361    0.4453    0.0879 S   0  0  0  0  0  6  0  0  0  0  0  0
   -0.3454    1.3294   -1.0068 O   0  0  0  0  0  0  0  0  0  0  0  0
   -1.1703   -0.6892    0.0890 O   0  0  0  0  0  0  0  0  0  0  0  0
    1.2599   -0.4138   -0.3066 O   0  0  0  0  0  0  0  0  0  0  0  0
   -3.3408    2.3793    2.5136 H   0  0  0  0  0  0  0  0  0  0  0  0
   -4.2339    3.0279    1.1183 H   0  0  0  0  0  0  0  0  0  0  0  0
   -2.6474    3.6766    1.5307 H   0  0  0  0  0  0  0  0  0  0  0  0
   -2.5142    2.1228   -0.4351 H   0  0  0  0  0  0  0  0  0  0  0  0
   -1.5170    1.6764    0.9390 H   0  0  0  0  0  0  0  0  0  0  0  0
   -4.9667   -0.6447    0.4087 H   0  0  0  0  0  0  0  0  0  0  0  0
   -5.1486    0.9735    1.0085 H   0  0  0  0  0  0  0  0  0  0  0  0
   -4.5716    1.8402   -1.3720 H   0  0  0  0  0  0  0  0  0  0  0  0
   -6.0845    0.9573   -1.1908 H   0  0  0  0  0  0  0  0  0  0  0  0
   -4.9610   -0.9278   -1.9140 H   0  0  0  0  0  0  0  0  0  0  0  0
   -2.1921   -0.1683   -1.1816 H   0  0  0  0  0  0  0  0  0  0  0  0
   -2.9821   -1.4844   -0.3113 H   0  0  0  0  0  0  0  0  0  0  0  0
   -0.4062   -0.1160    0.5773 H   0  0  0  0  0  0  0  0  0  0  0  0
   -1.2705   -1.3473    1.5025 H   0  0  0  0  0  0  0  0  0  0  0  0
   -1.0419   -2.9385   -0.4100 H   0  0  0  0  0  0  0  0  0  0  0  0
   -0.2018   -1.7192   -1.3423 H   0  0  0  0  0  0  0  0  0  0  0  0
    0.6646   -2.9046    1.3346 H   0  0  0  0  0  0  0  0  0  0  0  0
    1.8009   -3.5583   -1.4180 H   0  0  0  0  0  0  0  0  0  0  0  0
    2.4984   -4.0496    0.1285 H   0  0  0  0  0  0  0  0  0  0  0  0
    0.8854   -4.6075   -0.3403 H   0  0  0  0  0  0  0  0  0  0  0  0
    2.4945   -1.6733    1.3676 H   0  0  0  0  0  0  0  0  0  0  0  0
    1.7421   -1.5311   -2.1865 H   0  0  0  0  0  0  0  0  0  0  0  0
    2.9836   -0.0552   -3.6784 H   0  0  0  0  0  0  0  0  0  0  0  0
    5.4912    2.7502   -1.2223 H   0  0  0  0  0  0  0  0  0  0  0  0
    4.6772    1.8937    2.9069 H   0  0  0  0  0  0  0  0  0  0  0  0
    3.1433    0.1128    2.2348 H   0  0  0  0  0  0  0  0  0  0  0  0
   -1.4966   -0.7724   -0.8311 H   0  0  0  0  0  0  0  0  0  0  0  0
    1.6231   -0.7864    0.5234 H   0  0  0  0  0  0  0  0  0  0  0  0
  1  2  1  0
  2  3  1  0
  3  4  1  0
  4  5  1  0
  5  6  1  0
  3  7  1  0
  7  8  1  0
  8  9  1  0
  9 10  1  0
 10 11  1  0
 10 12  1  0
 12 13  1  0
 13 14  2  0
 14 15  1  0
 15 16  2  0
 16 17  1  0
 17 18  2  0
 18 19  1  0
 19 20  1  0
 19 21  2  0
 21 22  1  0
 22 23  2  0
 24 25  2  0
 25 26  2  0
 25 27  1  0
 25 28  1  0
 23 13  1  0
 23 17  1  0
  1 29  1  0
  1 30  1  0
  1 31  1  0
  2 32  1  0
  2 33  1  0
  4 34  1  0
  4 35  1  0
  5 36  1  0
  5 37  1  0
  6 38  1  0
  7 39  1  0
  7 40  1  0
  8 41  1  0
  8 42  1  0
  9 43  1  0
  9 44  1  0
 10 45  1  0
 11 46  1  0
 11 47  1  0
 11 48  1  0
 12 49  1  0
 14 50  1  0
 15 51  1  0
 18 52  1  0
 21 53  1  0
 22 54  1  0
 27 55  1  0
 28 56  1  0
M  END
$$$$
