
     RDKit          3D

 38 42  0  0  0  0  0  0  0  0999 V2000
    5.9626    0.6937    0.5962 C   0  0  0  0  0  0  0  0  0  0  0  0
    4.9354    0.9793    1.4929 C   0  0  0  0  0  0  0  0  0  0  0  0
    3.6054    0.7229    1.1430 C   0  0  0  0  0  0  0  0  0  0  0  0
    3.2865    0.1779   -0.1092 C   0  0  0  0  0  0  0  0  0  0  0  0
    1.9138   -0.1023   -0.5090 C   0  0  0  0  0  0  0  0  0  0  0  0
    0.7713    0.1657    0.2157 C   0  0  0  0  0  0  0  0  0  0  0  0
   -0.2874   -0.2508   -0.5556 N   0  0  0  0  0  0  0  0  0  0  0  0
    0.2745   -0.7732   -1.7083 C   0  0  0  0  0  0  0  0  0  0  0  0
    1.5864   -0.6856   -1.7098 N   0  0  0  0  0  0  0  0  0  0  0  0
   -0.5785   -1.4032   -2.7463 C   0  0  0  0  0  0  0  0  0  0  0  0
   -1.9224   -0.6913   -2.8274 C   0  0  0  0  0  0  0  0  0  0  0  0
   -2.5188   -0.4549   -1.4560 C   0  0  0  0  0  0  0  0  0  0  0  0
   -3.9049   -0.3950   -1.3219 C   0  0  0  0  0  0  0  0  0  0  0  0
   -4.4658   -0.1011   -0.0857 C   0  0  0  0  0  0  0  0  0  0  0  0
   -3.6531    0.1466    1.0307 C   0  0  0  0  0  0  0  0  0  0  0  0
   -4.2477    0.4345    2.2674 C   0  0  0  0  0  0  0  0  0  0  0  0
   -3.4601    0.6712    3.3828 C   0  0  0  0  0  0  0  0  0  0  0  0
   -2.0955    0.6103    3.2207 C   0  0  0  0  0  0  0  0  0  0  0  0
   -1.4920    0.3384    2.0428 N   0  0  0  0  0  0  0  0  0  0  0  0
   -2.2402    0.1091    0.9361 C   0  0  0  0  0  0  0  0  0  0  0  0
   -1.6939   -0.1923   -0.3287 C   0  0  0  0  0  0  0  0  0  0  0  0
    4.3337   -0.1051   -0.9992 C   0  0  0  0  0  0  0  0  0  0  0  0
    5.6626    0.1508   -0.6504 C   0  0  0  0  0  0  0  0  0  0  0  0
    6.9955    0.8927    0.8689 H   0  0  0  0  0  0  0  0  0  0  0  0
    5.1665    1.4015    2.4673 H   0  0  0  0  0  0  0  0  0  0  0  0
    2.8285    0.9539    1.8662 H   0  0  0  0  0  0  0  0  0  0  0  0
    0.6352    0.6309    1.1781 H   0  0  0  0  0  0  0  0  0  0  0  0
   -0.0811   -1.3773   -3.7219 H   0  0  0  0  0  0  0  0  0  0  0  0
   -0.7271   -2.4580   -2.4833 H   0  0  0  0  0  0  0  0  0  0  0  0
   -2.6033   -1.2870   -3.4469 H   0  0  0  0  0  0  0  0  0  0  0  0
   -1.8026    0.2852   -3.3144 H   0  0  0  0  0  0  0  0  0  0  0  0
   -4.5554   -0.5673   -2.1769 H   0  0  0  0  0  0  0  0  0  0  0  0
   -5.5502   -0.0625    0.0009 H   0  0  0  0  0  0  0  0  0  0  0  0
   -5.3299    0.4723    2.3688 H   0  0  0  0  0  0  0  0  0  0  0  0
   -3.8996    0.8933    4.3480 H   0  0  0  0  0  0  0  0  0  0  0  0
   -1.4221    0.7821    4.0557 H   0  0  0  0  0  0  0  0  0  0  0  0
    4.1146   -0.5303   -1.9771 H   0  0  0  0  0  0  0  0  0  0  0  0
    6.4588   -0.0755   -1.3543 H   0  0  0  0  0  0  0  0  0  0  0  0
  1  2  2  0
  2  3  1  0
  3  4  2  0
  4  5  1  0
  5  6  2  0
  6  7  1  0
  7  8  1  0
  8  9  2  0
  8 10  1  0
 10 11  1  0
 11 12  1  0
 12 13  2  0
 13 14  1  0
 14 15  2  0
 15 16  1  0
 16 17  2  0
 17 18  1  0
 18 19  2  0
 19 20  1  0
 20 21  2  0
  4 22  1  0
 22 23  2  0
 23  1  1  0
  9  5  1  0
 21 12  1  0
 21  7  1  0
 20 15  1  0
  1 24  1  0
  2 25  1  0
  3 26  1  0
  6 27  1  0
 10 28  1  0
 10 29  1  0
 11 30  1  0
 11 31  1  0
 13 32  1  0
 14 33  1  0
 16 34  1  0
 17 35  1  0
 18 36  1  0
 22 37  1  0
 23 38  1  0
M  END
$$$$
