
     RDKit          3D

 56 58  0  0  0  0  0  0  0  0999 V2000
   -3.7398    4.2645   -0.2291 C   0  0  0  0  0  0  0  0  0  0  0  0
   -3.8344    2.8028    0.1759 C   0  0  0  0  0  0  0  0  0  0  0  0
   -3.7399    1.8787   -1.0352 C   0  0  0  0  0  0  0  0  0  0  0  0
   -3.8570    0.4891   -0.6068 N   0  0  0  0  0  0  0  0  0  0  0  0
   -2.8346   -0.2329   -0.3272 C   0  0  0  0  0  0  0  0  0  0  0  0
   -1.1612    0.2834   -0.4015 S   0  0  0  0  0  0  0  0  0  0  0  0
   -0.5671   -1.2948   -0.1038 C   0  0  0  0  0  0  0  0  0  0  0  0
    0.7106   -1.6972   -0.0471 C   0  0  0  0  0  0  0  0  0  0  0  0
    1.8907   -0.8504   -0.2462 C   0  0  0  0  0  0  0  0  0  0  0  0
    2.7728   -0.6410    0.8171 C   0  0  0  0  0  0  0  0  0  0  0  0
    3.9136    0.1556    0.6537 C   0  0  0  0  0  0  0  0  0  0  0  0
    4.1930    0.7513   -0.5790 C   0  0  0  0  0  0  0  0  0  0  0  0
    5.2767    1.5445   -0.8409 O   0  0  0  0  0  0  0  0  0  0  0  0
    6.2211    1.8284    0.1911 C   0  0  0  0  0  0  0  0  0  0  0  0
    7.2930    0.7336    0.3016 C   0  0  2  0  0  0  0  0  0  0  0  0
    8.1518    0.9745    1.4245 O   0  0  0  0  0  0  0  0  0  0  0  0
    8.1432    0.6217   -0.9734 C   0  0  0  0  0  0  0  0  0  0  0  0
    8.7306    1.8755   -1.3183 O   0  0  0  0  0  0  0  0  0  0  0  0
    3.3089    0.5248   -1.6478 C   0  0  0  0  0  0  0  0  0  0  0  0
    3.5938    1.2104   -3.2114 Cl  0  0  0  0  0  0  0  0  0  0  0  0
    2.1701   -0.2710   -1.4857 C   0  0  0  0  0  0  0  0  0  0  0  0
   -1.6951   -2.2387    0.1292 C   0  0  0  0  0  0  0  0  0  0  0  0
   -1.5043   -3.4241    0.3761 O   0  0  0  0  0  0  0  0  0  0  0  0
   -2.9064   -1.5648    0.0431 N   0  0  0  0  0  0  0  0  0  0  0  0
   -4.1444   -2.2622    0.2022 C   0  0  0  0  0  0  0  0  0  0  0  0
   -4.3166   -3.4880   -0.4695 C   0  0  0  0  0  0  0  0  0  0  0  0
   -5.5169   -4.1967   -0.3942 C   0  0  0  0  0  0  0  0  0  0  0  0
   -6.5683   -3.6962    0.3611 C   0  0  0  0  0  0  0  0  0  0  0  0
   -6.4092   -2.5013    1.0594 C   0  0  0  0  0  0  0  0  0  0  0  0
   -5.1972   -1.7836    1.0131 C   0  0  0  0  0  0  0  0  0  0  0  0
   -5.1005   -0.5613    1.8866 C   0  0  0  0  0  0  0  0  0  0  0  0
   -4.5476    4.5345   -0.9168 H   0  0  0  0  0  0  0  0  0  0  0  0
   -3.8156    4.9079    0.6530 H   0  0  0  0  0  0  0  0  0  0  0  0
   -2.7845    4.4738   -0.7211 H   0  0  0  0  0  0  0  0  0  0  0  0
   -3.0367    2.5747    0.8920 H   0  0  0  0  0  0  0  0  0  0  0  0
   -4.7832    2.6330    0.6985 H   0  0  0  0  0  0  0  0  0  0  0  0
   -4.5748    2.0879   -1.7147 H   0  0  0  0  0  0  0  0  0  0  0  0
   -2.8335    2.0747   -1.6181 H   0  0  0  0  0  0  0  0  0  0  0  0
    0.9358   -2.7379    0.1848 H   0  0  0  0  0  0  0  0  0  0  0  0
    2.5780   -1.0915    1.7892 H   0  0  0  0  0  0  0  0  0  0  0  0
    4.5581    0.2831    1.5164 H   0  0  0  0  0  0  0  0  0  0  0  0
    5.7330    2.0266    1.1528 H   0  0  0  0  0  0  0  0  0  0  0  0
    6.6966    2.7834   -0.0631 H   0  0  0  0  0  0  0  0  0  0  0  0
    6.8216   -0.2407    0.4697 H   0  0  0  0  0  0  0  0  0  0  0  0
    7.5973    1.1490    2.2021 H   0  0  0  0  0  0  0  0  0  0  0  0
    8.9585   -0.0925   -0.8164 H   0  0  0  0  0  0  0  0  0  0  0  0
    7.5336    0.2870   -1.8186 H   0  0  0  0  0  0  0  0  0  0  0  0
    9.3267    1.7112   -2.0685 H   0  0  0  0  0  0  0  0  0  0  0  0
    1.5063   -0.4355   -2.3313 H   0  0  0  0  0  0  0  0  0  0  0  0
   -3.5229   -3.8976   -1.0910 H   0  0  0  0  0  0  0  0  0  0  0  0
   -5.6289   -5.1336   -0.9335 H   0  0  0  0  0  0  0  0  0  0  0  0
   -7.5078   -4.2396    0.4175 H   0  0  0  0  0  0  0  0  0  0  0  0
   -7.2361   -2.1343    1.6649 H   0  0  0  0  0  0  0  0  0  0  0  0
   -5.5986   -0.7419    2.8464 H   0  0  0  0  0  0  0  0  0  0  0  0
   -5.5877    0.2912    1.4054 H   0  0  0  0  0  0  0  0  0  0  0  0
   -4.0647   -0.3072    2.1285 H   0  0  0  0  0  0  0  0  0  0  0  0
  1  2  1  0
  2  3  1  0
  3  4  1  0
  4  5  2  0
  5  6  1  0
  6  7  1  0
  7  8  2  0
  8  9  1  0
  9 10  2  0
 10 11  1  0
 11 12  2  0
 12 13  1  0
 13 14  1  0
 14 15  1  0
 15 16  1  0
 15 17  1  0
 17 18  1  0
 12 19  1  0
 19 20  1  0
 19 21  2  0
  7 22  1  0
 22 23  2  0
 22 24  1  0
 24 25  1  0
 25 26  2  0
 26 27  1  0
 27 28  2  0
 28 29  1  0
 29 30  2  0
 30 31  1  0
 24  5  1  0
 30 25  1  0
 21  9  1  0
  1 32  1  0
  1 33  1  0
  1 34  1  0
  2 35  1  0
  2 36  1  0
  3 37  1  0
  3 38  1  0
  8 39  1  0
 10 40  1  0
 11 41  1  0
 14 42  1  0
 14 43  1  0
 15 44  1  1
 16 45  1  0
 17 46  1  0
 17 47  1  0
 18 48  1  0
 21 49  1  0
 26 50  1  0
 27 51  1  0
 28 52  1  0
 29 53  1  0
 31 54  1  0
 31 55  1  0
 31 56  1  0
M  END
$$$$
