
     RDKit          3D

 38 39  0  0  0  0  0  0  0  0999 V2000
    0.6843    0.0000    0.0000 Cl  0  0  0  0  0  0  0  0  0  0  0  0
   -4.0292    2.1316    1.1555 O   0  0  0  0  0  0  0  0  0  0  0  0
   -2.8927    1.3671    0.8401 C   0  0  0  0  0  0  0  0  0  0  0  0
   -2.9304    0.0037    0.8699 C   0  0  0  0  0  0  0  0  0  0  0  0
   -1.7899   -0.7317    0.5529 C   0  0  0  0  0  0  0  0  0  0  0  0
   -0.6302   -0.0886    0.2110 C   0  0  0  0  0  0  0  0  0  0  0  0
   -0.5857    1.2758    0.1794 C   0  0  0  0  0  0  0  0  0  0  0  0
   -1.7158    1.9988    0.4937 C   0  0  0  0  0  0  0  0  0  0  0  0
   -1.6581    3.3746    0.4581 O   0  0  0  0  0  0  0  0  0  0  0  0
    0.6536   -0.7331   -0.1549 C   0  0  0  0  0  0  0  0  0  0  0  0
    1.8054    0.1554   -0.2021 C   0  0  0  0  0  0  0  0  0  0  0  0
    2.2593    0.8317   -1.3054 C   0  0  0  0  0  0  0  0  0  0  0  0
    3.3807    1.6619   -1.2448 C   0  0  0  0  0  0  0  0  0  0  0  0
    4.0735    1.8328   -0.0730 C   0  0  0  0  0  0  0  0  0  0  0  0
    3.6338    1.1625    1.0464 C   0  0  0  0  0  0  0  0  0  0  0  0
    2.5389    0.3553    0.9756 C   0  0  0  0  0  0  0  0  0  0  0  0
    0.4605   -1.4471   -1.4531 C   0  0  0  0  0  0  0  0  0  0  0  0
   -0.7784   -2.2048   -1.4945 N   0  0  0  0  0  0  0  0  0  0  0  0
   -1.0641   -2.8943   -0.2814 C   0  0  0  0  0  0  0  0  0  0  0  0
   -2.0186   -2.1938    0.6473 C   0  0  0  0  0  0  0  0  0  0  0  0
   -0.6843    0.0000    0.0000 H   0  0  0  0  0  0  0  0  0  0  0  0
   -4.8758    1.6503    1.4050 H   0  0  0  0  0  0  0  0  0  0  0  0
   -3.8194   -0.5417    1.1325 H   0  0  0  0  0  0  0  0  0  0  0  0
    0.3471    1.7491   -0.0935 H   0  0  0  0  0  0  0  0  0  0  0  0
   -2.4541    3.9303    0.6788 H   0  0  0  0  0  0  0  0  0  0  0  0
    0.8173   -1.5257    0.6186 H   0  0  0  0  0  0  0  0  0  0  0  0
    1.7459    0.7273   -2.2412 H   0  0  0  0  0  0  0  0  0  0  0  0
    3.7175    2.1818   -2.1236 H   0  0  0  0  0  0  0  0  0  0  0  0
    4.9484    2.4744   -0.0053 H   0  0  0  0  0  0  0  0  0  0  0  0
    4.1985    1.3129    1.9650 H   0  0  0  0  0  0  0  0  0  0  0  0
    2.2216   -0.1549    1.8711 H   0  0  0  0  0  0  0  0  0  0  0  0
    1.3508   -2.0353   -1.7169 H   0  0  0  0  0  0  0  0  0  0  0  0
    0.3392   -0.6720   -2.2575 H   0  0  0  0  0  0  0  0  0  0  0  0
   -0.6630   -2.9034   -2.2634 H   0  0  0  0  0  0  0  0  0  0  0  0
   -0.1582   -3.2559    0.2620 H   0  0  0  0  0  0  0  0  0  0  0  0
   -1.5965   -3.8598   -0.5573 H   0  0  0  0  0  0  0  0  0  0  0  0
   -1.7515   -2.4825    1.6906 H   0  0  0  0  0  0  0  0  0  0  0  0
   -3.0804   -2.4526    0.4144 H   0  0  0  0  0  0  0  0  0  0  0  0
  2  3  1  0
  3  4  2  0
  4  5  1  0
  5  6  2  0
  6  7  1  0
  7  8  2  0
  8  9  1  0
  6 10  1  0
 10 11  1  0
 11 12  2  0
 12 13  1  0
 13 14  2  0
 14 15  1  0
 15 16  2  0
 10 17  1  0
 17 18  1  0
 18 19  1  0
 19 20  1  0
  8  3  1  0
 16 11  1  0
 20  5  1  0
  1 21  1  0
  2 22  1  0
  4 23  1  0
  7 24  1  0
  9 25  1  0
 10 26  1  0
 12 27  1  0
 13 28  1  0
 14 29  1  0
 15 30  1  0
 16 31  1  0
 17 32  1  0
 17 33  1  0
 18 34  1  0
 19 35  1  0
 19 36  1  0
 20 37  1  0
 20 38  1  0
M  END
$$$$
