
     RDKit          3D

 62 63  0  0  0  0  0  0  0  0999 V2000
    5.1615   -1.4436    1.8533 C   0  0  0  0  0  0  0  0  0  0  0  0
    5.7342   -0.2734    1.0906 C   0  0  0  0  0  0  0  0  0  0  0  0
    5.1403    0.3266    0.0293 C   0  0  0  0  0  0  0  0  0  0  0  0
    3.8448   -0.1142   -0.4815 C   0  0  0  0  0  0  0  0  0  0  0  0
    2.6864    0.0842    0.1712 C   0  0  0  0  0  0  0  0  0  0  0  0
    1.3506   -0.2735   -0.3068 C   0  0  0  0  0  0  0  0  0  0  0  0
    1.2535   -1.0378   -1.6038 C   0  0  0  0  0  0  0  0  0  0  0  0
    0.2794    0.1236    0.4128 C   0  0  0  0  0  0  0  0  0  0  0  0
   -1.1149   -0.1068    0.1060 C   0  0  0  0  0  0  0  0  0  0  0  0
   -1.6812   -1.3236    0.0809 C   0  0  0  0  0  0  0  0  0  0  0  0
   -3.0768   -1.5848   -0.2498 C   0  0  0  0  0  0  0  0  0  0  0  0
   -3.2791   -2.7181   -1.2223 C   0  0  0  0  0  0  0  0  0  0  0  0
   -4.0756   -0.8777    0.3160 C   0  0  0  0  0  0  0  0  0  0  0  0
   -5.5340   -1.1012    0.0614 C   0  0  0  0  0  0  0  0  0  0  0  0
   -5.9406   -2.0764   -0.5525 O   0  0  0  0  0  0  0  0  0  0  0  0
   -6.3033   -0.0859    0.5986 N   0  0  0  0  0  0  0  0  0  0  0  0
   -7.7098    0.0354    0.5610 C   0  0  0  0  0  0  0  0  0  0  0  0
   -8.5611   -0.8942   -0.0406 C   0  0  0  0  0  0  0  0  0  0  0  0
   -9.9477   -0.7017   -0.0317 C   0  0  0  0  0  0  0  0  0  0  0  0
  -10.4811    0.4243    0.5818 C   0  0  0  0  0  0  0  0  0  0  0  0
  -11.8251    0.6498    0.6119 O   0  0  0  0  0  0  0  0  0  0  0  0
   -9.6524    1.3634    1.1813 C   0  0  0  0  0  0  0  0  0  0  0  0
   -8.2693    1.1680    1.1721 C   0  0  0  0  0  0  0  0  0  0  0  0
    5.7819    1.5079   -0.7327 C   0  0  0  0  0  0  0  0  0  0  0  0
    6.3294    1.0087   -2.0896 C   0  0  0  0  0  0  0  0  0  0  0  0
    4.7662    2.6432   -1.0120 C   0  0  0  0  0  0  0  0  0  0  0  0
    6.9387    2.1387    0.0863 C   0  0  0  0  0  0  0  0  0  0  0  0
    7.8569    1.0896    0.6941 C   0  0  0  0  0  0  0  0  0  0  0  0
    7.0769    0.1762    1.6292 C   0  0  0  0  0  0  0  0  0  0  0  0
    4.2823   -1.8917    1.3841 H   0  0  0  0  0  0  0  0  0  0  0  0
    4.8802   -1.1294    2.8631 H   0  0  0  0  0  0  0  0  0  0  0  0
    5.9086   -2.2392    1.9391 H   0  0  0  0  0  0  0  0  0  0  0  0
    3.8697   -0.5587   -1.4726 H   0  0  0  0  0  0  0  0  0  0  0  0
    2.7328    0.5767    1.1433 H   0  0  0  0  0  0  0  0  0  0  0  0
    1.8211   -1.9715   -1.5526 H   0  0  0  0  0  0  0  0  0  0  0  0
    1.6516   -0.4349   -2.4281 H   0  0  0  0  0  0  0  0  0  0  0  0
    0.2296   -1.3006   -1.8818 H   0  0  0  0  0  0  0  0  0  0  0  0
    0.4265    0.7369    1.3030 H   0  0  0  0  0  0  0  0  0  0  0  0
   -1.7020    0.7911   -0.0762 H   0  0  0  0  0  0  0  0  0  0  0  0
   -1.0699   -2.2063    0.2750 H   0  0  0  0  0  0  0  0  0  0  0  0
   -3.7569   -3.5710   -0.7261 H   0  0  0  0  0  0  0  0  0  0  0  0
   -2.3280   -3.0774   -1.6365 H   0  0  0  0  0  0  0  0  0  0  0  0
   -3.8891   -2.4027   -2.0752 H   0  0  0  0  0  0  0  0  0  0  0  0
   -3.8345   -0.0995    1.0312 H   0  0  0  0  0  0  0  0  0  0  0  0
   -5.8178    0.6735    1.0576 H   0  0  0  0  0  0  0  0  0  0  0  0
   -8.1798   -1.7846   -0.5296 H   0  0  0  0  0  0  0  0  0  0  0  0
  -10.5852   -1.4425   -0.5040 H   0  0  0  0  0  0  0  0  0  0  0  0
  -12.2679   -0.0616    0.1190 H   0  0  0  0  0  0  0  0  0  0  0  0
  -10.0816    2.2398    1.6583 H   0  0  0  0  0  0  0  0  0  0  0  0
   -7.6413    1.9137    1.6515 H   0  0  0  0  0  0  0  0  0  0  0  0
    7.0314    0.1774   -1.9666 H   0  0  0  0  0  0  0  0  0  0  0  0
    5.5250    0.6594   -2.7459 H   0  0  0  0  0  0  0  0  0  0  0  0
    6.8519    1.8105   -2.6234 H   0  0  0  0  0  0  0  0  0  0  0  0
    4.2905    2.9872   -0.0849 H   0  0  0  0  0  0  0  0  0  0  0  0
    5.2601    3.5076   -1.4729 H   0  0  0  0  0  0  0  0  0  0  0  0
    3.9745    2.3252   -1.6986 H   0  0  0  0  0  0  0  0  0  0  0  0
    7.5290    2.8145   -0.5454 H   0  0  0  0  0  0  0  0  0  0  0  0
    6.5326    2.7551    0.8991 H   0  0  0  0  0  0  0  0  0  0  0  0
    8.6653    1.5792    1.2486 H   0  0  0  0  0  0  0  0  0  0  0  0
    8.3352    0.4992   -0.0957 H   0  0  0  0  0  0  0  0  0  0  0  0
    6.9050    0.6928    2.5807 H   0  0  0  0  0  0  0  0  0  0  0  0
    7.7025   -0.6946    1.8528 H   0  0  0  0  0  0  0  0  0  0  0  0
  1  2  1  0
  2  3  2  0
  3  4  1  0
  4  5  2  0
  5  6  1  0
  6  7  1  0
  6  8  2  0
  8  9  1  0
  9 10  2  0
 10 11  1  0
 11 12  1  0
 11 13  2  0
 13 14  1  0
 14 15  2  0
 14 16  1  0
 16 17  1  0
 17 18  2  0
 18 19  1  0
 19 20  2  0
 20 21  1  0
 20 22  1  0
 22 23  2  0
  3 24  1  0
 24 25  1  0
 24 26  1  0
 24 27  1  0
 27 28  1  0
 28 29  1  0
 29  2  1  0
 23 17  1  0
  1 30  1  0
  1 31  1  0
  1 32  1  0
  4 33  1  0
  5 34  1  0
  7 35  1  0
  7 36  1  0
  7 37  1  0
  8 38  1  0
  9 39  1  0
 10 40  1  0
 12 41  1  0
 12 42  1  0
 12 43  1  0
 13 44  1  0
 16 45  1  0
 18 46  1  0
 19 47  1  0
 21 48  1  0
 22 49  1  0
 23 50  1  0
 25 51  1  0
 25 52  1  0
 25 53  1  0
 26 54  1  0
 26 55  1  0
 26 56  1  0
 27 57  1  0
 27 58  1  0
 28 59  1  0
 28 60  1  0
 29 61  1  0
 29 62  1  0
M  END
$$$$
