
     RDKit          3D

118115  0  0  0  0  0  0  0  0999 V2000
    8.1840    1.9741    1.7469 N   0  0  0  0  0  0  0  0  0  0  0  0
    6.7326    2.0759    1.6125 C   0  0  0  0  0  0  0  0  0  0  0  0
    6.1025    1.1783    0.5208 C   0  0  0  0  0  0  0  0  0  0  0  0
    4.6934    1.4660    0.4918 O   0  0  0  0  0  0  0  0  0  0  0  0
    3.9801    0.5674   -0.3640 C   0  0  0  0  0  0  0  0  0  0  0  0
    2.5811    0.8744   -0.3047 O   0  0  0  0  0  0  0  0  0  0  0  0
    1.9806    0.2975    0.8705 C   0  0  0  0  0  0  0  0  0  0  0  0
    0.7208    1.1062    1.2155 C   0  0  0  0  0  0  0  0  0  0  0  0
    0.3510    1.0382    2.6995 C   0  0  0  0  0  0  0  0  0  0  0  0
    1.3775    1.5606    3.5344 O   0  0  0  0  0  0  0  0  0  0  0  0
   -0.3830    0.5397    0.4641 O   0  0  0  0  0  0  0  0  0  0  0  0
    0.1244   -0.6049   -0.2348 C   0  0  0  0  0  0  0  0  0  0  0  0
   -0.8186   -1.6752   -0.2257 O   0  0  0  0  0  0  0  0  0  0  0  0
   -1.8502   -1.4715   -1.2238 C   0  0  0  0  0  0  0  0  0  0  0  0
   -1.4354   -2.1397   -2.5476 C   0  0  0  0  0  0  0  0  0  0  0  0
   -2.3792   -1.8282   -3.5830 O   0  0  0  0  0  0  0  0  0  0  0  0
   -1.3430   -3.6771   -2.4137 C   0  0  0  0  0  0  0  0  0  0  0  0
   -0.1939   -4.0987   -1.5828 N   0  0  0  0  0  0  0  0  0  0  0  0
   -2.6670   -4.2511   -1.8713 C   0  0  0  0  0  0  0  0  0  0  0  0
   -3.1340   -3.5899   -0.5677 C   0  0  0  0  0  0  0  0  0  0  0  0
   -4.4599   -4.1285   -0.1824 N   0  0  0  0  0  0  0  0  0  0  0  0
   -3.1864   -2.0457   -0.7003 C   0  0  0  0  0  0  0  0  0  0  0  0
   -3.4494   -1.4922    0.5991 O   0  0  0  0  0  0  0  0  0  0  0  0
   -4.3280   -0.3611    0.5784 C   0  0  0  0  0  0  0  0  0  0  0  0
   -3.9573    0.5841   -0.4268 O   0  0  0  0  0  0  0  0  0  0  0  0
   -4.6342    1.8559   -0.3911 C   0  0  0  0  0  0  0  0  0  0  0  0
   -3.5894    2.9969   -0.4746 C   0  0  0  0  0  0  0  0  0  0  0  0
   -2.5380    2.9373    0.5282 N   0  0  0  0  0  0  0  0  0  0  0  0
   -5.6697    1.9932    0.7376 C   0  0  0  0  0  0  0  0  0  0  0  0
   -6.2140    3.3042    0.8254 O   0  0  0  0  0  0  0  0  0  0  0  0
   -5.1894    1.4609    2.0938 C   0  0  0  0  0  0  0  0  0  0  0  0
   -4.6047    2.4976    2.8916 O   0  0  0  0  0  0  0  0  0  0  0  0
   -4.1925    0.3049    1.9683 C   0  0  0  0  0  0  0  0  0  0  0  0
   -4.2946   -0.5891    3.1544 N   0  0  0  0  0  0  0  0  0  0  0  0
    1.3723   -1.0480    0.5207 C   0  0  0  0  0  0  0  0  0  0  0  0
    2.2092   -1.9041   -0.2520 O   0  0  0  0  0  0  0  0  0  0  0  0
    4.4338    0.7034   -1.8409 C   0  0  0  0  0  0  0  0  0  0  0  0
    4.0304    1.9873   -2.4689 N   0  0  0  0  0  0  0  0  0  0  0  0
    5.9649    0.4951   -1.9172 C   0  0  0  0  0  0  0  0  0  0  0  0
    6.3063   -0.8785   -1.6807 O   0  0  0  0  0  0  0  0  0  0  0  0
    6.7027    1.3752   -0.8903 C   0  0  0  0  0  0  0  0  0  0  0  0
    6.6266    2.7406   -1.3161 O   0  0  0  0  0  0  0  0  0  0  0  0
    0.0102    0.3969    0.0000 O   0  0  0  0  0  0  0  0  0  0  0  0
   -0.0448    0.3924    0.0000 O   0  0  0  0  0  0  0  0  0  0  0  0
   -0.0700    0.3921    0.0000 O   0  0  0  0  0  0  0  0  0  0  0  0
   -0.3667   -0.2308    1.6620 O   0  0  0  0  0  0  0  0  0  0  0  0
   -0.1814   -0.3614    0.2377 S   0  0  0  0  0  6  0  0  0  0  0  0
   -0.4780   -1.5571   -0.5116 O   0  0  0  0  0  0  0  0  0  0  0  0
    1.3411    0.0131   -0.1031 O   0  0  0  0  0  0  0  0  0  0  0  0
   -0.9536    0.8696   -0.4553 O   0  0  0  0  0  0  0  0  0  0  0  0
    0.2384   -1.3509    1.0192 O   0  0  0  0  0  0  0  0  0  0  0  0
   -0.0307   -0.4550   -0.0734 S   0  0  0  0  0  6  0  0  0  0  0  0
   -0.4960   -0.8697   -1.3719 O   0  0  0  0  0  0  0  0  0  0  0  0
    1.2938    0.4259   -0.2753 O   0  0  0  0  0  0  0  0  0  0  0  0
   -1.0799    0.6481    0.4387 O   0  0  0  0  0  0  0  0  0  0  0  0
    0.2819    0.8912   -1.4307 O   0  0  0  0  0  0  0  0  0  0  0  0
   -0.0474    0.4526   -0.0942 S   0  0  0  0  0  6  0  0  0  0  0  0
   -0.4340    1.3416    0.9748 O   0  0  0  0  0  0  0  0  0  0  0  0
   -1.1833   -0.6744   -0.1856 O   0  0  0  0  0  0  0  0  0  0  0  0
    1.2045   -0.4183    0.4047 O   0  0  0  0  0  0  0  0  0  0  0  0
    8.6673    2.2922    0.9113 H   0  0  0  0  0  0  0  0  0  0  0  0
    8.4553    1.0048    1.9143 H   0  0  0  0  0  0  0  0  0  0  0  0
    6.2781    1.7981    2.5729 H   0  0  0  0  0  0  0  0  0  0  0  0
    6.4521    3.1241    1.4544 H   0  0  0  0  0  0  0  0  0  0  0  0
    6.2414    0.1366    0.8360 H   0  0  0  0  0  0  0  0  0  0  0  0
    4.1688   -0.4656   -0.0332 H   0  0  0  0  0  0  0  0  0  0  0  0
    2.7048    0.2457    1.6892 H   0  0  0  0  0  0  0  0  0  0  0  0
    0.8603    2.1498    0.9012 H   0  0  0  0  0  0  0  0  0  0  0  0
   -0.5713    1.6001    2.8905 H   0  0  0  0  0  0  0  0  0  0  0  0
    0.1487    0.0076    3.0006 H   0  0  0  0  0  0  0  0  0  0  0  0
    1.3954    2.5268    3.3985 H   0  0  0  0  0  0  0  0  0  0  0  0
    0.3783   -0.3303   -1.2706 H   0  0  0  0  0  0  0  0  0  0  0  0
   -1.9939   -0.3973   -1.3822 H   0  0  0  0  0  0  0  0  0  0  0  0
   -0.4592   -1.7658   -2.8834 H   0  0  0  0  0  0  0  0  0  0  0  0
   -2.2531   -0.8928   -3.8036 H   0  0  0  0  0  0  0  0  0  0  0  0
   -1.1747   -4.1130   -3.4080 H   0  0  0  0  0  0  0  0  0  0  0  0
   -0.2096   -5.1103   -1.4819 H   0  0  0  0  0  0  0  0  0  0  0  0
   -0.3282   -3.7293   -0.6374 H   0  0  0  0  0  0  0  0  0  0  0  0
   -3.4430   -4.1063   -2.6382 H   0  0  0  0  0  0  0  0  0  0  0  0
   -2.5683   -5.3340   -1.7394 H   0  0  0  0  0  0  0  0  0  0  0  0
   -2.4576   -3.8547    0.2500 H   0  0  0  0  0  0  0  0  0  0  0  0
   -5.1482   -3.8338   -0.8722 H   0  0  0  0  0  0  0  0  0  0  0  0
   -4.4494   -5.1476   -0.2240 H   0  0  0  0  0  0  0  0  0  0  0  0
   -4.0029   -1.7980   -1.3991 H   0  0  0  0  0  0  0  0  0  0  0  0
   -5.3488   -0.7243    0.3878 H   0  0  0  0  0  0  0  0  0  0  0  0
   -5.1930    1.9143   -1.3342 H   0  0  0  0  0  0  0  0  0  0  0  0
   -3.0989    2.9415   -1.4531 H   0  0  0  0  0  0  0  0  0  0  0  0
   -4.0775    3.9759   -0.4338 H   0  0  0  0  0  0  0  0  0  0  0  0
   -2.0829    2.0253    0.4423 H   0  0  0  0  0  0  0  0  0  0  0  0
   -2.9492    2.9744    1.4584 H   0  0  0  0  0  0  0  0  0  0  0  0
   -6.5035    1.3466    0.4426 H   0  0  0  0  0  0  0  0  0  0  0  0
   -6.3194    3.5011    1.7827 H   0  0  0  0  0  0  0  0  0  0  0  0
   -6.0857    1.1484    2.6380 H   0  0  0  0  0  0  0  0  0  0  0  0
   -4.2983    2.0556    3.7144 H   0  0  0  0  0  0  0  0  0  0  0  0
   -3.1691    0.6983    2.0364 H   0  0  0  0  0  0  0  0  0  0  0  0
   -3.7652   -1.4380    2.9006 H   0  0  0  0  0  0  0  0  0  0  0  0
   -5.2638   -0.9226    3.2543 H   0  0  0  0  0  0  0  0  0  0  0  0
    1.1114   -1.5882    1.4353 H   0  0  0  0  0  0  0  0  0  0  0  0
    1.6307   -2.6110   -0.6112 H   0  0  0  0  0  0  0  0  0  0  0  0
    3.9191   -0.0750   -2.4066 H   0  0  0  0  0  0  0  0  0  0  0  0
    4.6240    2.7240   -2.0742 H   0  0  0  0  0  0  0  0  0  0  0  0
    3.0970    2.2058   -2.1029 H   0  0  0  0  0  0  0  0  0  0  0  0
    6.3216    0.7171   -2.9289 H   0  0  0  0  0  0  0  0  0  0  0  0
    5.9064   -1.3901   -2.4043 H   0  0  0  0  0  0  0  0  0  0  0  0
    7.7602    1.0951   -0.8801 H   0  0  0  0  0  0  0  0  0  0  0  0
    7.1314    3.2875   -0.6919 H   0  0  0  0  0  0  0  0  0  0  0  0
    0.7596   -0.2182    0.0000 H   0  0  0  0  0  0  0  0  0  0  0  0
   -0.7698   -0.1787    0.0000 H   0  0  0  0  0  0  0  0  0  0  0  0
    0.7841   -0.1110    0.0000 H   0  0  0  0  0  0  0  0  0  0  0  0
   -0.7394   -0.2814    0.0000 H   0  0  0  0  0  0  0  0  0  0  0  0
    0.7888   -0.0636    0.0000 H   0  0  0  0  0  0  0  0  0  0  0  0
   -0.7188   -0.3285    0.0000 H   0  0  0  0  0  0  0  0  0  0  0  0
    1.5314   -0.3708   -0.9924 H   0  0  0  0  0  0  0  0  0  0  0  0
   -0.8928    1.6374    0.1626 H   0  0  0  0  0  0  0  0  0  0  0  0
    1.6516    0.6314    0.6053 H   0  0  0  0  0  0  0  0  0  0  0  0
   -1.5771    0.9702   -0.3427 H   0  0  0  0  0  0  0  0  0  0  0  0
   -1.4954   -0.8485    0.7238 H   0  0  0  0  0  0  0  0  0  0  0  0
    1.6737   -0.7442   -0.3928 H   0  0  0  0  0  0  0  0  0  0  0  0
  1  2  1  0
  2  3  1  0
  3  4  1  0
  4  5  1  0
  5  6  1  0
  6  7  1  0
  7  8  1  0
  8  9  1  0
  9 10  1  0
  8 11  1  0
 11 12  1  0
 12 13  1  0
 13 14  1  0
 14 15  1  0
 15 16  1  0
 15 17  1  0
 17 18  1  0
 17 19  1  0
 19 20  1  0
 20 21  1  0
 20 22  1  0
 22 23  1  0
 23 24  1  0
 24 25  1  0
 25 26  1  0
 26 27  1  0
 27 28  1  0
 26 29  1  0
 29 30  1  0
 29 31  1  0
 31 32  1  0
 31 33  1  0
 33 34  1  0
 12 35  1  0
 35 36  1  0
  5 37  1  0
 37 38  1  0
 37 39  1  0
 39 40  1  0
 39 41  1  0
 41 42  1  0
 46 47  2  0
 47 48  2  0
 47 49  1  0
 47 50  1  0
 51 52  2  0
 52 53  2  0
 52 54  1  0
 52 55  1  0
 56 57  2  0
 57 58  2  0
 57 59  1  0
 57 60  1  0
 41  3  1  0
 35  7  1  0
 22 14  1  0
 33 24  1  0
  1 61  1  0
  1 62  1  0
  2 63  1  0
  2 64  1  0
  3 65  1  0
  5 66  1  0
  7 67  1  0
  8 68  1  0
  9 69  1  0
  9 70  1  0
 10 71  1  0
 12 72  1  0
 14 73  1  0
 15 74  1  0
 16 75  1  0
 17 76  1  0
 18 77  1  0
 18 78  1  0
 19 79  1  0
 19 80  1  0
 20 81  1  0
 21 82  1  0
 21 83  1  0
 22 84  1  0
 24 85  1  0
 26 86  1  0
 27 87  1  0
 27 88  1  0
 28 89  1  0
 28 90  1  0
 29 91  1  0
 30 92  1  0
 31 93  1  0
 32 94  1  0
 33 95  1  0
 34 96  1  0
 34 97  1  0
 35 98  1  0
 36 99  1  0
 37100  1  0
 38101  1  0
 38102  1  0
 39103  1  0
 40104  1  0
 41105  1  0
 42106  1  0
 43107  1  0
 43108  1  0
 44109  1  0
 44110  1  0
 45111  1  0
 45112  1  0
 49113  1  0
 50114  1  0
 54115  1  0
 55116  1  0
 59117  1  0
 60118  1  0
M  END
$$$$
