
     RDKit          3D

 32 33  0  0  0  0  0  0  0  0999 V2000
    0.6882    0.0000    0.0000 Cl  0  0  0  0  0  0  0  0  0  0  0  0
    3.2514    1.1363    1.4392 C   0  0  0  0  0  0  0  0  0  0  0  0
    2.3121    1.9604    0.8627 C   0  0  0  0  0  0  0  0  0  0  0  0
    1.3771    1.4139    0.0399 C   0  0  0  0  0  0  0  0  0  0  0  0
    1.3593    0.0506   -0.2224 C   0  0  0  0  0  0  0  0  0  0  0  0
    0.4012   -0.4719   -1.0840 C   0  0  0  0  0  0  0  0  0  0  0  0
   -0.6642    0.3056   -1.7005 C   0  0  0  0  0  0  0  0  0  0  0  0
   -1.8303    0.3817   -0.7728 C   0  0  0  0  0  0  0  0  0  0  0  0
   -3.0318   -0.0733   -1.1243 N   0  0  0  0  0  0  0  0  0  0  0  0
   -3.9839    0.1057   -0.0822 C   0  0  0  0  0  0  0  0  0  0  0  0
   -3.2777    0.7519    1.0659 C   0  0  0  0  0  0  0  0  0  0  0  0
   -1.9108    0.8989    0.5312 N   0  0  0  0  0  0  0  0  0  0  0  0
    0.4215   -1.8388   -1.3456 C   0  0  0  0  0  0  0  0  0  0  0  0
    1.3634   -2.6272   -0.7606 C   0  0  0  0  0  0  0  0  0  0  0  0
    2.3247   -2.1550    0.0952 C   0  0  0  0  0  0  0  0  0  0  0  0
    2.3045   -0.7907    0.3548 C   0  0  0  0  0  0  0  0  0  0  0  0
    3.2550   -0.2254    1.1938 C   0  0  0  0  0  0  0  0  0  0  0  0
   -0.6882    0.0000    0.0000 H   0  0  0  0  0  0  0  0  0  0  0  0
    3.9996    1.5293    2.0891 H   0  0  0  0  0  0  0  0  0  0  0  0
    2.2824    3.0306    1.0320 H   0  0  0  0  0  0  0  0  0  0  0  0
    0.6006    2.0004   -0.4507 H   0  0  0  0  0  0  0  0  0  0  0  0
   -0.4210    1.3456   -1.9855 H   0  0  0  0  0  0  0  0  0  0  0  0
   -0.9863   -0.2216   -2.6388 H   0  0  0  0  0  0  0  0  0  0  0  0
   -4.3871   -0.8657    0.3135 H   0  0  0  0  0  0  0  0  0  0  0  0
   -4.8965    0.6737   -0.3825 H   0  0  0  0  0  0  0  0  0  0  0  0
   -3.6131    1.8131    1.2192 H   0  0  0  0  0  0  0  0  0  0  0  0
   -3.2754    0.1605    1.9955 H   0  0  0  0  0  0  0  0  0  0  0  0
   -1.1344    1.3303    1.0706 H   0  0  0  0  0  0  0  0  0  0  0  0
   -0.3023   -2.2611   -2.0049 H   0  0  0  0  0  0  0  0  0  0  0  0
    1.3889   -3.7099   -0.9613 H   0  0  0  0  0  0  0  0  0  0  0  0
    3.0814   -2.7615    0.5716 H   0  0  0  0  0  0  0  0  0  0  0  0
    3.9914   -0.8864    1.6419 H   0  0  0  0  0  0  0  0  0  0  0  0
  2  3  2  0
  3  4  1  0
  4  5  2  0
  5  6  1  0
  6  7  1  0
  7  8  1  0
  8  9  2  0
  9 10  1  0
 10 11  1  0
 11 12  1  0
  6 13  2  0
 13 14  1  0
 14 15  2  0
 15 16  1  0
 16 17  2  0
 17  2  1  0
 16  5  1  0
 12  8  1  0
  1 18  1  0
  2 19  1  0
  3 20  1  0
  4 21  1  0
  7 22  1  0
  7 23  1  0
 10 24  1  0
 10 25  1  0
 11 26  1  0
 11 27  1  0
 12 28  1  0
 13 29  1  0
 14 30  1  0
 15 31  1  0
 17 32  1  0
M  END
$$$$
