
     RDKit          3D

 53 57  0  0  0  0  0  0  0  0999 V2000
   -1.0647   -0.1394   -2.6779 C   0  0  0  0  0  0  0  0  0  0  0  0
   -0.8433   -0.7627   -1.4084 O   0  0  0  0  0  0  0  0  0  0  0  0
   -0.8435    0.2038   -0.4172 C   0  0  0  0  0  0  0  0  0  0  0  0
    0.3715    0.9038   -0.1512 C   0  0  0  0  0  0  0  0  0  0  0  0
    1.5878    0.5378   -0.7258 N   0  0  0  0  0  0  0  0  0  0  0  0
    1.9006   -0.8693   -1.0351 C   0  0  0  0  0  0  0  0  0  0  0  0
    3.4303   -0.9816   -0.9164 C   0  0  2  0  0  0  0  0  0  0  0  0
    3.8605   -1.4451    0.4823 C   0  0  0  0  0  0  0  0  0  0  0  0
    5.3442   -1.1737    0.7029 C   0  0  0  0  0  0  0  0  0  0  0  0
    5.6733    0.2942    0.4444 C   0  0  0  0  0  0  0  0  0  0  0  0
    5.3058    0.7102   -0.9104 N   0  0  0  0  0  0  0  0  0  0  0  0
    3.8978    0.4438   -1.2320 C   0  0  2  0  0  0  0  0  0  0  0  0
    2.8279    1.3044   -0.5246 C   0  0  0  0  0  0  0  0  0  0  0  0
    0.2477    2.0194    0.7019 C   0  0  0  0  0  0  0  0  0  0  0  0
    1.3059    2.7967    0.9817 F   0  0  0  0  0  0  0  0  0  0  0  0
   -0.9548    2.3840    1.2993 C   0  0  0  0  0  0  0  0  0  0  0  0
   -2.1001    1.6217    1.0778 C   0  0  0  0  0  0  0  0  0  0  0  0
   -3.3654    2.0350    1.7390 C   0  0  0  0  0  0  0  0  0  0  0  0
   -3.3501    2.9301    2.5764 O   0  0  0  0  0  0  0  0  0  0  0  0
   -4.6002    1.3119    1.3653 C   0  0  0  0  0  0  0  0  0  0  0  0
   -5.9556    1.6829    1.7844 C   0  0  0  0  0  0  0  0  0  0  0  0
   -6.9062    0.9215    1.8757 O   0  0  0  0  0  0  0  0  0  0  0  0
   -6.1047    2.9987    1.9995 O   0  0  0  0  0  0  0  0  0  0  0  0
   -4.4576    0.2157    0.6078 C   0  0  0  0  0  0  0  0  0  0  0  0
   -3.2676   -0.2787    0.1061 N   0  0  0  0  0  0  0  0  0  0  0  0
   -3.2881   -1.6359   -0.4749 C   0  0  0  0  0  0  0  0  0  0  0  0
   -3.9640   -2.7972    0.2207 C   0  0  0  0  0  0  0  0  0  0  0  0
   -2.4745   -2.7644    0.1127 C   0  0  0  0  0  0  0  0  0  0  0  0
   -2.0699    0.4899    0.2436 C   0  0  0  0  0  0  0  0  0  0  0  0
   -1.1056   -0.9310   -3.4321 H   0  0  0  0  0  0  0  0  0  0  0  0
   -0.2458    0.5377   -2.9438 H   0  0  0  0  0  0  0  0  0  0  0  0
   -2.0205    0.3962   -2.6985 H   0  0  0  0  0  0  0  0  0  0  0  0
    1.4036   -1.5777   -0.3623 H   0  0  0  0  0  0  0  0  0  0  0  0
    1.6076   -1.0865   -2.0684 H   0  0  0  0  0  0  0  0  0  0  0  0
    3.8234   -1.6927   -1.6536 H   0  0  0  0  0  0  0  0  0  0  0  0
    3.2806   -0.9317    1.2591 H   0  0  0  0  0  0  0  0  0  0  0  0
    3.6551   -2.5158    0.5984 H   0  0  0  0  0  0  0  0  0  0  0  0
    5.9383   -1.8108    0.0355 H   0  0  0  0  0  0  0  0  0  0  0  0
    5.6203   -1.4406    1.7296 H   0  0  0  0  0  0  0  0  0  0  0  0
    5.1812    0.9333    1.1863 H   0  0  0  0  0  0  0  0  0  0  0  0
    6.7504    0.4510    0.5757 H   0  0  0  0  0  0  0  0  0  0  0  0
    5.8879    0.1934   -1.5713 H   0  0  0  0  0  0  0  0  0  0  0  0
    3.7818    0.6103   -2.3127 H   0  0  0  0  0  0  0  0  0  0  0  0
    2.7680    2.3006   -0.9766 H   0  0  0  0  0  0  0  0  0  0  0  0
    3.0518    1.3995    0.5428 H   0  0  0  0  0  0  0  0  0  0  0  0
   -0.9781    3.2590    1.9441 H   0  0  0  0  0  0  0  0  0  0  0  0
   -7.0348    3.1063    2.2830 H   0  0  0  0  0  0  0  0  0  0  0  0
   -5.3260   -0.3798    0.3312 H   0  0  0  0  0  0  0  0  0  0  0  0
   -3.3916   -1.6097   -1.5568 H   0  0  0  0  0  0  0  0  0  0  0  0
   -4.5035   -3.5079   -0.3943 H   0  0  0  0  0  0  0  0  0  0  0  0
   -4.3928   -2.6477    1.2049 H   0  0  0  0  0  0  0  0  0  0  0  0
   -1.9027   -2.5687    1.0119 H   0  0  0  0  0  0  0  0  0  0  0  0
   -1.9914   -3.4440   -0.5793 H   0  0  0  0  0  0  0  0  0  0  0  0
  1  2  1  0
  2  3  1  0
  3  4  2  0
  4  5  1  0
  5  6  1  0
  6  7  1  0
  7  8  1  0
  8  9  1  0
  9 10  1  0
 10 11  1  0
 11 12  1  0
 12 13  1  0
  4 14  1  0
 14 15  1  0
 14 16  2  0
 16 17  1  0
 17 18  1  0
 18 19  2  0
 18 20  1  0
 20 21  1  0
 21 22  2  0
 21 23  1  0
 20 24  2  0
 24 25  1  0
 25 26  1  0
 26 27  1  0
 27 28  1  0
 25 29  1  0
 29  3  1  0
 13  5  1  0
 29 17  2  0
 12  7  1  0
 28 26  1  0
  1 30  1  0
  1 31  1  0
  1 32  1  0
  6 33  1  0
  6 34  1  0
  7 35  1  6
  8 36  1  0
  8 37  1  0
  9 38  1  0
  9 39  1  0
 10 40  1  0
 10 41  1  0
 11 42  1  0
 12 43  1  6
 13 44  1  0
 13 45  1  0
 16 46  1  0
 23 47  1  0
 24 48  1  0
 26 49  1  0
 27 50  1  0
 27 51  1  0
 28 52  1  0
 28 53  1  0
M  END
$$$$
