
     RDKit          3D

 52 54  0  0  0  0  0  0  0  0999 V2000
   -2.9519    2.8571   -0.3607 C   0  0  0  0  0  0  0  0  0  0  0  0
   -3.5300    1.6382   -1.0572 C   0  0  0  0  0  0  0  0  0  0  0  0
   -4.4579    0.8396   -0.2165 N   0  0  0  0  0  0  0  0  0  0  0  0
   -5.7969    1.4590   -0.0386 C   0  0  0  0  0  0  0  0  0  0  0  0
   -6.8264    0.6361   -0.7931 C   0  0  0  0  0  0  0  0  0  0  0  0
   -3.8589    0.0269    1.1548 S   0  0  0  0  0  6  0  0  0  0  0  0
   -4.9025   -0.8597    1.6298 O   0  0  0  0  0  0  0  0  0  0  0  0
   -3.2674    0.9995    2.0467 O   0  0  0  0  0  0  0  0  0  0  0  0
   -2.5730   -0.9980    0.4829 C   0  0  0  0  0  0  0  0  0  0  0  0
   -2.9144   -2.2258   -0.0882 C   0  0  0  0  0  0  0  0  0  0  0  0
   -1.9125   -3.0552   -0.5927 C   0  0  0  0  0  0  0  0  0  0  0  0
   -0.5738   -2.6556   -0.5265 C   0  0  0  0  0  0  0  0  0  0  0  0
    0.4865   -3.3924   -0.9984 O   0  0  0  0  0  0  0  0  0  0  0  0
    0.2049   -4.6808   -1.5290 C   0  0  0  0  0  0  0  0  0  0  0  0
   -0.2331   -1.4092    0.0498 C   0  0  0  0  0  0  0  0  0  0  0  0
    1.1409   -1.0703    0.0701 N   0  0  0  0  0  0  0  0  0  0  0  0
    1.7252    0.1079    0.4720 C   0  0  0  0  0  0  0  0  0  0  0  0
    1.1101    1.1027    0.8512 O   0  0  0  0  0  0  0  0  0  0  0  0
    3.2271    0.1383    0.4085 C   0  0  0  0  0  0  0  0  0  0  0  0
    3.8247    1.2567    0.8567 C   0  0  0  0  0  0  0  0  0  0  0  0
    5.2713    1.3908    0.8434 C   0  0  0  0  0  0  0  0  0  0  0  0
    5.9176    2.5400    1.3029 C   0  0  0  0  0  0  0  0  0  0  0  0
    7.3136    2.6178    1.2691 C   0  0  0  0  0  0  0  0  0  0  0  0
    8.0672    1.5495    0.7772 C   0  0  0  0  0  0  0  0  0  0  0  0
    7.4276    0.4000    0.3175 C   0  0  0  0  0  0  0  0  0  0  0  0
    6.0370    0.3380    0.3577 C   0  0  0  0  0  0  0  0  0  0  0  0
    5.4236   -0.8345   -0.1131 O   0  0  0  0  0  0  0  0  0  0  0  0
    4.0408   -0.9833   -0.1118 C   0  0  0  0  0  0  0  0  0  0  0  0
    3.5247   -2.0151   -0.5335 O   0  0  0  0  0  0  0  0  0  0  0  0
   -1.2382   -0.5915    0.5698 C   0  0  0  0  0  0  0  0  0  0  0  0
   -2.4344    3.4902   -1.0890 H   0  0  0  0  0  0  0  0  0  0  0  0
   -2.2163    2.5774    0.3977 H   0  0  0  0  0  0  0  0  0  0  0  0
   -3.7259    3.4609    0.1220 H   0  0  0  0  0  0  0  0  0  0  0  0
   -4.0771    1.9643   -1.9510 H   0  0  0  0  0  0  0  0  0  0  0  0
   -2.7254    0.9988   -1.4331 H   0  0  0  0  0  0  0  0  0  0  0  0
   -5.8090    2.4875   -0.4150 H   0  0  0  0  0  0  0  0  0  0  0  0
   -6.0679    1.5186    1.0212 H   0  0  0  0  0  0  0  0  0  0  0  0
   -6.8627   -0.3926   -0.4201 H   0  0  0  0  0  0  0  0  0  0  0  0
   -7.8222    1.0756   -0.6805 H   0  0  0  0  0  0  0  0  0  0  0  0
   -6.5889    0.5955   -1.8614 H   0  0  0  0  0  0  0  0  0  0  0  0
   -3.9550   -2.5412   -0.1377 H   0  0  0  0  0  0  0  0  0  0  0  0
   -2.2089   -4.0032   -1.0294 H   0  0  0  0  0  0  0  0  0  0  0  0
   -0.4220   -4.6093   -2.4237 H   0  0  0  0  0  0  0  0  0  0  0  0
   -0.2531   -5.3282   -0.7740 H   0  0  0  0  0  0  0  0  0  0  0  0
    1.1555   -5.1352   -1.8245 H   0  0  0  0  0  0  0  0  0  0  0  0
    1.7456   -1.8103   -0.3008 H   0  0  0  0  0  0  0  0  0  0  0  0
    3.2496    2.0937    1.2449 H   0  0  0  0  0  0  0  0  0  0  0  0
    5.3483    3.3820    1.6902 H   0  0  0  0  0  0  0  0  0  0  0  0
    7.8147    3.5141    1.6281 H   0  0  0  0  0  0  0  0  0  0  0  0
    9.1524    1.6149    0.7536 H   0  0  0  0  0  0  0  0  0  0  0  0
    8.0058   -0.4355   -0.0662 H   0  0  0  0  0  0  0  0  0  0  0  0
   -1.0088    0.3554    1.0478 H   0  0  0  0  0  0  0  0  0  0  0  0
  1  2  1  0
  2  3  1  0
  3  4  1  0
  4  5  1  0
  3  6  1  0
  6  7  2  0
  6  8  2  0
  6  9  1  0
  9 10  2  0
 10 11  1  0
 11 12  2  0
 12 13  1  0
 13 14  1  0
 12 15  1  0
 15 16  1  0
 16 17  1  0
 17 18  2  0
 17 19  1  0
 19 20  2  0
 20 21  1  0
 21 22  2  0
 22 23  1  0
 23 24  2  0
 24 25  1  0
 25 26  2  0
 26 27  1  0
 27 28  1  0
 28 29  2  0
 15 30  2  0
 30  9  1  0
 28 19  1  0
 26 21  1  0
  1 31  1  0
  1 32  1  0
  1 33  1  0
  2 34  1  0
  2 35  1  0
  4 36  1  0
  4 37  1  0
  5 38  1  0
  5 39  1  0
  5 40  1  0
 10 41  1  0
 11 42  1  0
 14 43  1  0
 14 44  1  0
 14 45  1  0
 16 46  1  0
 20 47  1  0
 22 48  1  0
 23 49  1  0
 24 50  1  0
 25 51  1  0
 30 52  1  0
M  END
$$$$
