
     RDKit          3D

 39 41  0  0  0  0  0  0  0  0999 V2000
   -6.3324    0.2481   -0.6917 C   0  0  0  0  0  0  0  0  0  0  0  0
   -4.8897    0.3848   -0.3046 C   0  0  0  0  0  0  0  0  0  0  0  0
   -4.5002    1.3180    0.6593 C   0  0  0  0  0  0  0  0  0  0  0  0
   -3.1519    1.4675    0.9973 C   0  0  0  0  0  0  0  0  0  0  0  0
   -2.1653    0.6842    0.3751 C   0  0  0  0  0  0  0  0  0  0  0  0
   -0.8029    0.8677    0.7458 N   0  0  0  0  0  0  0  0  0  0  0  0
   -0.4471    1.9280    1.5159 N   0  0  0  0  0  0  0  0  0  0  0  0
    0.8697    1.9522    1.6337 N   0  0  0  0  0  0  0  0  0  0  0  0
    1.3865    0.8776    0.9608 C   0  0  0  0  0  0  0  0  0  0  0  0
    2.8263    0.6478    0.9026 C   0  0  0  0  0  0  0  0  0  0  0  0
    3.5874    0.9762    1.8071 O   0  0  0  0  0  0  0  0  0  0  0  0
    3.2844    0.0775   -0.2709 N   0  0  0  0  0  0  0  0  0  0  0  0
    4.6956   -0.1488   -0.5022 C   0  0  0  0  0  0  0  0  0  0  0  0
    5.4692    1.1309   -0.8255 C   0  0  0  0  0  0  0  0  0  0  0  0
    6.7728    0.8194   -1.3076 O   0  0  0  0  0  0  0  0  0  0  0  0
    0.3359    0.1295    0.4486 C   0  0  0  0  0  0  0  0  0  0  0  0
    0.4492   -1.2702   -0.2233 C   0  0  0  0  0  0  0  0  0  0  0  0
   -0.2369   -2.4475    0.4257 C   0  0  0  0  0  0  0  0  0  0  0  0
    1.2557   -2.3514    0.4551 C   0  0  0  0  0  0  0  0  0  0  0  0
   -2.5544   -0.2269   -0.6118 C   0  0  0  0  0  0  0  0  0  0  0  0
   -3.9062   -0.3729   -0.9477 C   0  0  0  0  0  0  0  0  0  0  0  0
   -6.9874    0.4670    0.1582 H   0  0  0  0  0  0  0  0  0  0  0  0
   -6.5540   -0.7738   -1.0171 H   0  0  0  0  0  0  0  0  0  0  0  0
   -6.5681    0.9384   -1.5074 H   0  0  0  0  0  0  0  0  0  0  0  0
   -5.2429    1.9379    1.1577 H   0  0  0  0  0  0  0  0  0  0  0  0
   -2.8931    2.2010    1.7602 H   0  0  0  0  0  0  0  0  0  0  0  0
    2.6396   -0.0304   -1.0405 H   0  0  0  0  0  0  0  0  0  0  0  0
    4.7779   -0.8611   -1.3305 H   0  0  0  0  0  0  0  0  0  0  0  0
    5.1325   -0.6333    0.3788 H   0  0  0  0  0  0  0  0  0  0  0  0
    5.5746    1.7587    0.0646 H   0  0  0  0  0  0  0  0  0  0  0  0
    4.9532    1.7223   -1.5897 H   0  0  0  0  0  0  0  0  0  0  0  0
    6.6772    0.4219   -2.1894 H   0  0  0  0  0  0  0  0  0  0  0  0
    0.4817   -1.2508   -1.3090 H   0  0  0  0  0  0  0  0  0  0  0  0
   -0.7672   -2.3019    1.3610 H   0  0  0  0  0  0  0  0  0  0  0  0
   -0.6836   -3.1976   -0.2175 H   0  0  0  0  0  0  0  0  0  0  0  0
    1.7213   -2.1540    1.4150 H   0  0  0  0  0  0  0  0  0  0  0  0
    1.8209   -3.0340   -0.1696 H   0  0  0  0  0  0  0  0  0  0  0  0
   -1.8419   -0.8203   -1.1698 H   0  0  0  0  0  0  0  0  0  0  0  0
   -4.1862   -1.0818   -1.7246 H   0  0  0  0  0  0  0  0  0  0  0  0
  1  2  1  0
  2  3  2  0
  3  4  1  0
  4  5  2  0
  5  6  1  0
  6  7  1  0
  7  8  2  0
  8  9  1  0
  9 10  1  0
 10 11  2  0
 10 12  1  0
 12 13  1  0
 13 14  1  0
 14 15  1  0
  9 16  2  0
 16 17  1  0
 17 18  1  0
 18 19  1  0
  5 20  1  0
 20 21  2  0
 21  2  1  0
 16  6  1  0
 19 17  1  0
  1 22  1  0
  1 23  1  0
  1 24  1  0
  3 25  1  0
  4 26  1  0
 12 27  1  0
 13 28  1  0
 13 29  1  0
 14 30  1  0
 14 31  1  0
 15 32  1  0
 17 33  1  0
 18 34  1  0
 18 35  1  0
 19 36  1  0
 19 37  1  0
 20 38  1  0
 21 39  1  0
M  END
$$$$
