
     RDKit          3D

 66 69  0  0  0  0  0  0  0  0999 V2000
   -1.0949   -3.1140   -1.4064 C   0  0  0  0  0  0  0  0  0  0  0  0
   -2.0702   -2.0777   -1.9498 C   0  0  0  0  0  0  0  0  0  0  0  0
   -2.3932   -1.0455   -0.9574 N   0  0  0  0  0  0  0  0  0  0  0  0
   -1.4276   -0.0557   -0.7169 C   0  0  0  0  0  0  0  0  0  0  0  0
   -0.4409    0.0658   -1.4517 O   0  0  0  0  0  0  0  0  0  0  0  0
   -1.5549    0.7372    0.6024 C   0  0  0  0  0  0  0  0  0  0  0  0
   -0.4923    1.6982    0.7793 N   0  0  0  0  0  0  0  0  0  0  0  0
   -0.6058    3.0656    0.4634 C   0  0  0  0  0  0  0  0  0  0  0  0
   -1.6207    3.6351    0.0927 O   0  0  0  0  0  0  0  0  0  0  0  0
    0.6808    3.6287    0.6514 N   0  0  0  0  0  0  0  0  0  0  0  0
    1.0538    5.0019    0.3572 C   0  0  0  0  0  0  0  0  0  0  0  0
    0.1839    6.0037    1.1188 C   0  0  0  0  0  0  0  0  0  0  0  0
    1.0114    5.2782   -1.1453 C   0  0  0  0  0  0  0  0  0  0  0  0
    1.5764    2.5932    0.9763 C   0  0  0  0  0  0  0  0  0  0  0  0
    2.9448    2.6129    1.1652 C   0  0  0  0  0  0  0  0  0  0  0  0
    3.5786    1.3918    1.4215 C   0  0  0  0  0  0  0  0  0  0  0  0
    2.8298    0.1959    1.4810 C   0  0  0  0  0  0  0  0  0  0  0  0
    3.6841   -1.3388    1.7435 S   0  0  0  0  0  6  0  0  0  0  0  0
    2.7042   -2.3783    1.9792 O   0  0  0  0  0  0  0  0  0  0  0  0
    4.7511   -1.0896    2.6886 O   0  0  0  0  0  0  0  0  0  0  0  0
    4.3795   -1.6166    0.2232 N   0  0  0  0  0  0  0  0  0  0  0  0
    3.4583   -1.8137   -0.9314 C   0  0  0  0  0  0  0  0  0  0  0  0
    3.9283   -3.0944   -1.6098 C   0  0  0  0  0  0  0  0  0  0  0  0
    5.4014   -3.1526   -1.2606 C   0  0  0  0  0  0  0  0  0  0  0  0
    5.4053   -2.6886    0.1876 C   0  0  0  0  0  0  0  0  0  0  0  0
    1.4411    0.1886    1.3222 C   0  0  0  0  0  0  0  0  0  0  0  0
    0.8458    1.4026    1.0584 C   0  0  0  0  0  0  0  0  0  0  0  0
   -3.7217   -1.0228   -0.4440 C   0  0  0  0  0  0  0  0  0  0  0  0
   -4.4670    0.1616   -0.4306 C   0  0  0  0  0  0  0  0  0  0  0  0
   -5.7752    0.1743    0.0570 C   0  0  0  0  0  0  0  0  0  0  0  0
   -6.3619   -1.0028    0.5159 C   0  0  0  0  0  0  0  0  0  0  0  0
   -5.6535   -2.2070    0.4697 C   0  0  0  0  0  0  0  0  0  0  0  0
   -6.2773   -3.4717    0.9819 C   0  0  0  0  0  0  0  0  0  0  0  0
   -4.3342   -2.2064   -0.0084 C   0  0  0  0  0  0  0  0  0  0  0  0
   -0.8711   -3.8616   -2.1737 H   0  0  0  0  0  0  0  0  0  0  0  0
   -0.1513   -2.6532   -1.0970 H   0  0  0  0  0  0  0  0  0  0  0  0
   -1.5097   -3.6324   -0.5366 H   0  0  0  0  0  0  0  0  0  0  0  0
   -1.6227   -1.5906   -2.8243 H   0  0  0  0  0  0  0  0  0  0  0  0
   -2.9819   -2.5706   -2.3062 H   0  0  0  0  0  0  0  0  0  0  0  0
   -2.4889    1.2953    0.6316 H   0  0  0  0  0  0  0  0  0  0  0  0
   -1.5378    0.0351    1.4429 H   0  0  0  0  0  0  0  0  0  0  0  0
    2.0822    5.1606    0.6987 H   0  0  0  0  0  0  0  0  0  0  0  0
    0.5662    7.0219    0.9884 H   0  0  0  0  0  0  0  0  0  0  0  0
   -0.8534    5.9943    0.7710 H   0  0  0  0  0  0  0  0  0  0  0  0
    0.1799    5.7782    2.1906 H   0  0  0  0  0  0  0  0  0  0  0  0
    1.3523    6.2959   -1.3626 H   0  0  0  0  0  0  0  0  0  0  0  0
   -0.0008    5.1673   -1.5495 H   0  0  0  0  0  0  0  0  0  0  0  0
    1.6615    4.5818   -1.6859 H   0  0  0  0  0  0  0  0  0  0  0  0
    3.5265    3.5243    1.1026 H   0  0  0  0  0  0  0  0  0  0  0  0
    4.6588    1.3635    1.5570 H   0  0  0  0  0  0  0  0  0  0  0  0
    3.5660   -0.9545   -1.6026 H   0  0  0  0  0  0  0  0  0  0  0  0
    2.4073   -1.8963   -0.6432 H   0  0  0  0  0  0  0  0  0  0  0  0
    3.7446   -3.0870   -2.6879 H   0  0  0  0  0  0  0  0  0  0  0  0
    3.4064   -3.9584   -1.1805 H   0  0  0  0  0  0  0  0  0  0  0  0
    5.8281   -4.1520   -1.3822 H   0  0  0  0  0  0  0  0  0  0  0  0
    5.9682   -2.4540   -1.8880 H   0  0  0  0  0  0  0  0  0  0  0  0
    5.1275   -3.5165    0.8496 H   0  0  0  0  0  0  0  0  0  0  0  0
    6.3842   -2.2999    0.4812 H   0  0  0  0  0  0  0  0  0  0  0  0
    0.8705   -0.7313    1.3657 H   0  0  0  0  0  0  0  0  0  0  0  0
   -4.0628    1.0850   -0.8406 H   0  0  0  0  0  0  0  0  0  0  0  0
   -6.3412    1.1031    0.0671 H   0  0  0  0  0  0  0  0  0  0  0  0
   -7.3800   -0.9766    0.8981 H   0  0  0  0  0  0  0  0  0  0  0  0
   -7.3567   -3.4766    0.7947 H   0  0  0  0  0  0  0  0  0  0  0  0
   -5.8569   -4.3480    0.4775 H   0  0  0  0  0  0  0  0  0  0  0  0
   -6.1032   -3.5656    2.0583 H   0  0  0  0  0  0  0  0  0  0  0  0
   -3.7793   -3.1407   -0.0098 H   0  0  0  0  0  0  0  0  0  0  0  0
  1  2  1  0
  2  3  1  0
  3  4  1  0
  4  5  2  0
  4  6  1  0
  6  7  1  0
  7  8  1  0
  8  9  2  0
  8 10  1  0
 10 11  1  0
 11 12  1  0
 11 13  1  0
 10 14  1  0
 14 15  2  0
 15 16  1  0
 16 17  2  0
 17 18  1  0
 18 19  2  0
 18 20  2  0
 18 21  1  0
 21 22  1  0
 22 23  1  0
 23 24  1  0
 24 25  1  0
 17 26  1  0
 26 27  2  0
  3 28  1  0
 28 29  2  0
 29 30  1  0
 30 31  2  0
 31 32  1  0
 32 33  1  0
 32 34  2  0
 27  7  1  0
 34 28  1  0
 27 14  1  0
 25 21  1  0
  1 35  1  0
  1 36  1  0
  1 37  1  0
  2 38  1  0
  2 39  1  0
  6 40  1  0
  6 41  1  0
 11 42  1  0
 12 43  1  0
 12 44  1  0
 12 45  1  0
 13 46  1  0
 13 47  1  0
 13 48  1  0
 15 49  1  0
 16 50  1  0
 22 51  1  0
 22 52  1  0
 23 53  1  0
 23 54  1  0
 24 55  1  0
 24 56  1  0
 25 57  1  0
 25 58  1  0
 26 59  1  0
 29 60  1  0
 30 61  1  0
 31 62  1  0
 33 63  1  0
 33 64  1  0
 33 65  1  0
 34 66  1  0
M  END
$$$$
