
     RDKit          3D

 45 47  0  0  0  0  0  0  0  0999 V2000
   -6.1002   -1.3128    1.7426 C   0  0  0  0  0  0  0  0  0  0  0  0
   -4.7123   -0.9962    1.3423 N   0  0  0  0  0  0  0  0  0  0  0  0
   -3.6400   -0.7621    2.2099 C   0  0  0  0  0  0  0  0  0  0  0  0
   -3.9382   -0.7877    3.5306 N   0  0  0  0  0  0  0  0  0  0  0  0
   -2.4278   -0.5331    1.8773 N   0  0  0  0  0  0  0  0  0  0  0  0
   -1.9353   -0.5282    0.5005 C   0  0  2  0  0  0  0  0  0  0  0  0
   -1.3919   -1.9589    0.2581 C   0  0  0  0  0  0  0  0  0  0  0  0
   -0.8125    0.5298    0.3856 C   0  0  0  0  0  0  0  0  0  0  0  0
    0.4817    0.2411   -0.0931 C   0  0  0  0  0  0  0  0  0  0  0  0
    1.4571    1.2426   -0.2456 C   0  0  0  0  0  0  0  0  0  0  0  0
    2.7112    0.8447   -0.7398 N   0  0  0  0  0  0  0  0  0  0  0  0
    3.7599    1.6436   -1.1478 C   0  0  0  0  0  0  0  0  0  0  0  0
    3.7869    2.8676   -1.1882 O   0  0  0  0  0  0  0  0  0  0  0  0
    4.9448    0.8531   -1.6207 C   0  0  0  0  0  0  0  0  0  0  0  0
    6.0327    1.5015   -2.2001 C   0  0  0  0  0  0  0  0  0  0  0  0
    7.1007    0.7239   -2.6419 C   0  0  0  0  0  0  0  0  0  0  0  0
    7.0465   -0.6544   -2.4770 C   0  0  0  0  0  0  0  0  0  0  0  0
    8.0640   -1.4243   -2.8769 F   0  0  0  0  0  0  0  0  0  0  0  0
    5.9305   -1.2213   -1.8811 C   0  0  0  0  0  0  0  0  0  0  0  0
    4.8634   -0.5016   -1.4567 N   0  0  0  0  0  0  0  0  0  0  0  0
    1.1464    2.5560    0.0982 C   0  0  0  0  0  0  0  0  0  0  0  0
   -0.1176    2.8638    0.5982 C   0  0  0  0  0  0  0  0  0  0  0  0
   -1.0735    1.8647    0.7388 C   0  0  0  0  0  0  0  0  0  0  0  0
   -2.2819    2.2212    1.1986 F   0  0  0  0  0  0  0  0  0  0  0  0
   -3.0013   -0.1526   -0.5225 C   0  0  0  0  0  0  0  0  0  0  0  0
   -4.4712   -1.1009   -0.3203 S   0  0  0  0  0  6  0  0  0  0  0  0
   -4.2251   -2.4880   -0.6556 O   0  0  0  0  0  0  0  0  0  0  0  0
   -5.5450   -0.3861   -0.9841 O   0  0  0  0  0  0  0  0  0  0  0  0
   -6.2917   -2.3799    1.6056 H   0  0  0  0  0  0  0  0  0  0  0  0
   -6.8259   -0.7319    1.1655 H   0  0  0  0  0  0  0  0  0  0  0  0
   -6.2904   -1.0741    2.7916 H   0  0  0  0  0  0  0  0  0  0  0  0
   -4.4823   -1.5921    3.8066 H   0  0  0  0  0  0  0  0  0  0  0  0
   -3.0768   -0.7402    4.0657 H   0  0  0  0  0  0  0  0  0  0  0  0
   -2.1260   -2.7319    0.5048 H   0  0  0  0  0  0  0  0  0  0  0  0
   -1.0875   -2.1057   -0.7825 H   0  0  0  0  0  0  0  0  0  0  0  0
   -0.5294   -2.1744    0.9030 H   0  0  0  0  0  0  0  0  0  0  0  0
    0.7475   -0.7762   -0.3757 H   0  0  0  0  0  0  0  0  0  0  0  0
    2.8805   -0.1514   -0.8666 H   0  0  0  0  0  0  0  0  0  0  0  0
    6.0468    2.5821   -2.3063 H   0  0  0  0  0  0  0  0  0  0  0  0
    7.9692    1.1855   -3.0958 H   0  0  0  0  0  0  0  0  0  0  0  0
    5.8828   -2.2946   -1.7212 H   0  0  0  0  0  0  0  0  0  0  0  0
    1.8715    3.3582    0.0038 H   0  0  0  0  0  0  0  0  0  0  0  0
   -0.3655    3.8869    0.8717 H   0  0  0  0  0  0  0  0  0  0  0  0
   -2.6527   -0.2991   -1.5534 H   0  0  0  0  0  0  0  0  0  0  0  0
   -3.3220    0.8932   -0.4330 H   0  0  0  0  0  0  0  0  0  0  0  0
  1  2  1  0
  2  3  1  0
  3  4  1  0
  3  5  2  0
  5  6  1  0
  6  7  1  6
  6  8  1  0
  8  9  2  0
  9 10  1  0
 10 11  1  0
 11 12  1  0
 12 13  2  0
 12 14  1  0
 14 15  2  0
 15 16  1  0
 16 17  2  0
 17 18  1  0
 17 19  1  0
 19 20  2  0
 10 21  2  0
 21 22  1  0
 22 23  2  0
 23 24  1  0
  6 25  1  0
 25 26  1  0
 26 27  2  0
 26 28  2  0
 26  2  1  0
 23  8  1  0
 20 14  1  0
  1 29  1  0
  1 30  1  0
  1 31  1  0
  4 32  1  0
  4 33  1  0
  7 34  1  0
  7 35  1  0
  7 36  1  0
  9 37  1  0
 11 38  1  0
 15 39  1  0
 16 40  1  0
 19 41  1  0
 21 42  1  0
 22 43  1  0
 25 44  1  0
 25 45  1  0
M  END
$$$$
