
     RDKit          3D

 34 36  0  0  0  0  0  0  0  0999 V2000
    5.4977    0.7279    1.1375 O   0  0  0  0  0  0  0  0  0  0  0  0
    4.7243    0.2478    0.3170 C   0  0  0  0  0  0  0  0  0  0  0  0
    5.1719   -0.4662   -0.7748 N   0  0  0  0  0  0  0  0  0  0  0  0
    4.3562   -1.0248   -1.7223 C   0  0  0  0  0  0  0  0  0  0  0  0
    3.0250   -0.9123   -1.6521 C   0  0  0  0  0  0  0  0  0  0  0  0
    2.4232   -0.1747   -0.5364 C   0  0  0  0  0  0  0  0  0  0  0  0
    1.0314   -0.0365   -0.4299 C   0  0  0  0  0  0  0  0  0  0  0  0
    0.4739    0.6693    0.6395 C   0  0  0  0  0  0  0  0  0  0  0  0
   -0.8569    0.8772    0.8697 O   0  0  0  0  0  0  0  0  0  0  0  0
   -1.8206    0.4053   -0.0783 C   0  0  0  0  0  0  0  0  0  0  0  0
   -3.0847    1.2449    0.1063 C   0  0  0  0  0  0  0  0  0  0  0  0
   -4.1933    0.7702   -0.8311 C   0  0  0  0  0  0  0  0  0  0  0  0
   -4.2914   -0.6854   -0.9748 N   0  0  0  0  0  0  0  0  0  0  0  0
   -3.6200   -1.3978    0.1076 C   0  0  0  0  0  0  0  0  0  0  0  0
   -2.1251   -1.0841    0.1495 C   0  0  0  0  0  0  0  0  0  0  0  0
    1.3152    1.2341    1.6055 C   0  0  0  0  0  0  0  0  0  0  0  0
    2.7014    1.1045    1.5114 C   0  0  0  0  0  0  0  0  0  0  0  0
    3.2512    0.4005    0.4398 C   0  0  0  0  0  0  0  0  0  0  0  0
    6.1780   -0.5635   -0.8472 H   0  0  0  0  0  0  0  0  0  0  0  0
    4.8488   -1.5604   -2.5281 H   0  0  0  0  0  0  0  0  0  0  0  0
    2.3829   -1.3561   -2.4043 H   0  0  0  0  0  0  0  0  0  0  0  0
    0.4070   -0.4911   -1.1902 H   0  0  0  0  0  0  0  0  0  0  0  0
   -1.4713    0.5783   -1.1046 H   0  0  0  0  0  0  0  0  0  0  0  0
   -2.8652    2.3043   -0.0745 H   0  0  0  0  0  0  0  0  0  0  0  0
   -3.4176    1.1895    1.1516 H   0  0  0  0  0  0  0  0  0  0  0  0
   -5.1541    1.1574   -0.4734 H   0  0  0  0  0  0  0  0  0  0  0  0
   -4.0395    1.2043   -1.8263 H   0  0  0  0  0  0  0  0  0  0  0  0
   -3.8934   -0.9698   -1.8698 H   0  0  0  0  0  0  0  0  0  0  0  0
   -3.7609   -2.4759   -0.0289 H   0  0  0  0  0  0  0  0  0  0  0  0
   -4.0922   -1.1506    1.0665 H   0  0  0  0  0  0  0  0  0  0  0  0
   -1.7127   -1.4296    1.1053 H   0  0  0  0  0  0  0  0  0  0  0  0
   -1.6176   -1.6671   -0.6294 H   0  0  0  0  0  0  0  0  0  0  0  0
    0.8841    1.7819    2.4409 H   0  0  0  0  0  0  0  0  0  0  0  0
    3.3442    1.5486    2.2676 H   0  0  0  0  0  0  0  0  0  0  0  0
  1  2  2  0
  2  3  1  0
  3  4  1  0
  4  5  2  0
  5  6  1  0
  6  7  2  0
  7  8  1  0
  8  9  1  0
  9 10  1  0
 10 11  1  0
 11 12  1  0
 12 13  1  0
 13 14  1  0
 14 15  1  0
  8 16  2  0
 16 17  1  0
 17 18  2  0
 18  2  1  0
 18  6  1  0
 15 10  1  0
  3 19  1  0
  4 20  1  0
  5 21  1  0
  7 22  1  0
 10 23  1  0
 11 24  1  0
 11 25  1  0
 12 26  1  0
 12 27  1  0
 13 28  1  0
 14 29  1  0
 14 30  1  0
 15 31  1  0
 15 32  1  0
 16 33  1  0
 17 34  1  0
M  END
$$$$
