
     RDKit          3D

 53 57  0  0  0  0  0  0  0  0999 V2000
   -2.9027    3.4494    3.2573 C   0  0  0  0  0  0  0  0  0  0  0  0
   -2.7024    2.6986    2.0029 C   0  0  0  0  0  0  0  0  0  0  0  0
   -3.3909    2.9472    0.8842 N   0  0  0  0  0  0  0  0  0  0  0  0
   -2.8716    2.0455    0.0409 N   0  0  0  0  0  0  0  0  0  0  0  0
   -1.9053    1.2853    0.6457 C   0  0  0  0  0  0  0  0  0  0  0  0
   -1.1318    0.1889   -0.0530 C   0  0  1  0  0  0  0  0  0  0  0  0
   -0.2376    0.7902   -1.1622 C   0  0  0  0  0  0  0  0  0  0  0  0
    1.1897    1.0459   -0.6772 C   0  0  0  0  0  0  0  0  0  0  0  0
    1.8215   -0.1759   -0.1772 N   0  0  0  0  0  0  0  0  0  0  0  0
    3.2062   -0.3924   -0.1323 C   0  0  0  0  0  0  0  0  0  0  0  0
    3.6584   -1.5111    0.1243 O   0  0  0  0  0  0  0  0  0  0  0  0
    4.1261    0.7334   -0.3817 C   0  0  0  0  0  0  0  0  0  0  0  0
    5.5003    0.6119   -0.5138 C   0  0  0  0  0  0  0  0  0  0  0  0
    5.9718    1.8790   -0.6881 N   0  0  0  0  0  0  0  0  0  0  0  0
    7.3534    2.2468   -0.8606 C   0  0  0  0  0  0  0  0  0  0  0  0
    4.9076    2.7279   -0.6568 C   0  0  0  0  0  0  0  0  0  0  0  0
    3.7821    2.0757   -0.4718 N   0  0  0  0  0  0  0  0  0  0  0  0
    0.9430   -1.2312    0.3247 C   0  0  0  0  0  0  0  0  0  0  0  0
   -0.3008   -0.6289    0.9769 C   0  0  2  0  0  0  0  0  0  0  0  0
   -1.2681   -1.6939    1.4825 C   0  0  0  0  0  0  0  0  0  0  0  0
   -2.1944   -1.9154    0.3910 N   0  0  0  0  0  0  0  0  0  0  0  0
   -3.0888   -2.9624    0.4206 C   0  0  0  0  0  0  0  0  0  0  0  0
   -3.1581   -3.7728    1.3362 O   0  0  0  0  0  0  0  0  0  0  0  0
   -4.0170   -3.0734   -0.7376 C   0  0  0  0  0  0  0  0  0  0  0  0
   -3.5163   -3.5406   -2.0858 C   0  0  0  0  0  0  0  0  0  0  0  0
   -4.3945   -4.4387   -1.2696 C   0  0  0  0  0  0  0  0  0  0  0  0
   -2.0917   -0.8842   -0.6270 C   0  0  0  0  0  0  0  0  0  0  0  0
   -1.7789    1.6941    1.8913 N   0  0  0  0  0  0  0  0  0  0  0  0
   -3.8530    3.9925    3.2515 H   0  0  0  0  0  0  0  0  0  0  0  0
   -2.9078    2.7682    4.1139 H   0  0  0  0  0  0  0  0  0  0  0  0
   -2.0938    4.1729    3.3976 H   0  0  0  0  0  0  0  0  0  0  0  0
   -3.2133    2.0124   -0.9125 H   0  0  0  0  0  0  0  0  0  0  0  0
   -0.1745    0.1004   -2.0144 H   0  0  0  0  0  0  0  0  0  0  0  0
   -0.6567    1.7204   -1.5644 H   0  0  0  0  0  0  0  0  0  0  0  0
    1.1977    1.7865    0.1302 H   0  0  0  0  0  0  0  0  0  0  0  0
    1.7652    1.4343   -1.5223 H   0  0  0  0  0  0  0  0  0  0  0  0
    6.1427   -0.2581   -0.4835 H   0  0  0  0  0  0  0  0  0  0  0  0
    7.9017    1.9612    0.0407 H   0  0  0  0  0  0  0  0  0  0  0  0
    7.7469    1.7170   -1.7318 H   0  0  0  0  0  0  0  0  0  0  0  0
    7.4298    3.3258   -1.0169 H   0  0  0  0  0  0  0  0  0  0  0  0
    5.0017    3.8006   -0.7673 H   0  0  0  0  0  0  0  0  0  0  0  0
    0.6869   -1.8747   -0.5257 H   0  0  0  0  0  0  0  0  0  0  0  0
    1.4791   -1.8528    1.0510 H   0  0  0  0  0  0  0  0  0  0  0  0
    0.0427   -0.0178    1.8219 H   0  0  0  0  0  0  0  0  0  0  0  0
   -0.7825   -2.6301    1.7762 H   0  0  0  0  0  0  0  0  0  0  0  0
   -1.8503   -1.3256    2.3353 H   0  0  0  0  0  0  0  0  0  0  0  0
   -4.8234   -2.3475   -0.7167 H   0  0  0  0  0  0  0  0  0  0  0  0
   -2.4736   -3.8223   -2.1840 H   0  0  0  0  0  0  0  0  0  0  0  0
   -3.9422   -3.0860   -2.9721 H   0  0  0  0  0  0  0  0  0  0  0  0
   -5.4187   -4.5886   -1.5899 H   0  0  0  0  0  0  0  0  0  0  0  0
   -3.9475   -5.3098   -0.8021 H   0  0  0  0  0  0  0  0  0  0  0  0
   -1.6788   -1.3710   -1.5175 H   0  0  0  0  0  0  0  0  0  0  0  0
   -3.0872   -0.5068   -0.8808 H   0  0  0  0  0  0  0  0  0  0  0  0
  1  2  1  0
  2  3  2  0
  3  4  1  0
  4  5  1  0
  6  5  1  1
  6  7  1  0
  7  8  1  0
  8  9  1  0
  9 10  1  0
 10 11  2  0
 10 12  1  0
 12 13  2  0
 13 14  1  0
 14 15  1  0
 14 16  1  0
 16 17  2  0
  9 18  1  0
 18 19  1  0
 19 20  1  0
 20 21  1  0
 21 22  1  0
 22 23  2  0
 22 24  1  0
 24 25  1  0
 25 26  1  0
 21 27  1  0
  5 28  2  0
 28  2  1  0
 19  6  1  0
 26 24  1  0
 27  6  1  0
 17 12  1  0
  1 29  1  0
  1 30  1  0
  1 31  1  0
  4 32  1  0
  7 33  1  0
  7 34  1  0
  8 35  1  0
  8 36  1  0
 13 37  1  0
 15 38  1  0
 15 39  1  0
 15 40  1  0
 16 41  1  0
 18 42  1  0
 18 43  1  0
 19 44  1  1
 20 45  1  0
 20 46  1  0
 24 47  1  0
 25 48  1  0
 25 49  1  0
 26 50  1  0
 26 51  1  0
 27 52  1  0
 27 53  1  0
M  END
$$$$
