
     RDKit          3D

 39 40  0  0  0  0  0  0  0  0999 V2000
    4.2749    0.7207    1.5959 C   0  0  0  0  0  0  0  0  0  0  0  0
    4.3587   -0.2456    0.4051 C   0  0  0  0  0  0  0  0  0  0  0  0
    5.5283    0.1833   -0.4979 C   0  0  0  0  0  0  0  0  0  0  0  0
    4.6182   -1.6754    0.9023 C   0  0  0  0  0  0  0  0  0  0  0  0
    3.0468   -0.1984   -0.4009 C   0  0  0  0  0  0  0  0  0  0  0  0
    2.9961    0.1597   -1.5752 O   0  0  0  0  0  0  0  0  0  0  0  0
    1.9167   -0.5790    0.2908 N   0  0  0  0  0  0  0  0  0  0  0  0
    0.6033   -0.5695   -0.3297 C   0  0  0  0  0  0  0  0  0  0  0  0
    0.0192    0.8388   -0.4428 C   0  0  0  0  0  0  0  0  0  0  0  0
   -1.3368    0.8262   -1.0666 C   0  0  0  0  0  0  0  0  0  0  0  0
   -1.6414    1.1177   -2.3801 C   0  0  0  0  0  0  0  0  0  0  0  0
   -3.3241    0.9688   -2.6376 S   0  0  0  0  0  0  0  0  0  0  0  0
   -3.5461    0.5232   -0.9855 C   0  0  0  0  0  0  0  0  0  0  0  0
   -4.8727    0.2173   -0.4249 C   0  0  0  0  0  0  0  0  0  0  0  0
   -4.9995   -0.0777    0.9402 C   0  0  0  0  0  0  0  0  0  0  0  0
   -6.2463   -0.3709    1.4914 C   0  0  0  0  0  0  0  0  0  0  0  0
   -7.3487   -0.3633    0.6567 C   0  0  0  0  0  0  0  0  0  0  0  0
   -7.2820   -0.0879   -0.6617 N   0  0  0  0  0  0  0  0  0  0  0  0
   -6.0522    0.1940   -1.1671 C   0  0  0  0  0  0  0  0  0  0  0  0
   -2.4273    0.4866   -0.2825 N   0  0  0  0  0  0  0  0  0  0  0  0
    3.5099    0.4159    2.3182 H   0  0  0  0  0  0  0  0  0  0  0  0
    4.0211    1.7335    1.2622 H   0  0  0  0  0  0  0  0  0  0  0  0
    5.2290    0.7713    2.1325 H   0  0  0  0  0  0  0  0  0  0  0  0
    5.6225   -0.4786   -1.3667 H   0  0  0  0  0  0  0  0  0  0  0  0
    6.4802    0.1596    0.0445 H   0  0  0  0  0  0  0  0  0  0  0  0
    5.3853    1.2022   -0.8762 H   0  0  0  0  0  0  0  0  0  0  0  0
    4.6134   -2.3875    0.0690 H   0  0  0  0  0  0  0  0  0  0  0  0
    5.5895   -1.7498    1.4042 H   0  0  0  0  0  0  0  0  0  0  0  0
    3.8557   -2.0056    1.6159 H   0  0  0  0  0  0  0  0  0  0  0  0
    1.9779   -0.8099    1.2732 H   0  0  0  0  0  0  0  0  0  0  0  0
    0.6855   -1.0307   -1.3213 H   0  0  0  0  0  0  0  0  0  0  0  0
   -0.0432   -1.2099    0.2808 H   0  0  0  0  0  0  0  0  0  0  0  0
    0.6876    1.4844   -1.0252 H   0  0  0  0  0  0  0  0  0  0  0  0
   -0.0475    1.2911    0.5548 H   0  0  0  0  0  0  0  0  0  0  0  0
   -0.9697    1.4029   -3.1780 H   0  0  0  0  0  0  0  0  0  0  0  0
   -4.1208   -0.0785    1.5827 H   0  0  0  0  0  0  0  0  0  0  0  0
   -6.3504   -0.5988    2.5463 H   0  0  0  0  0  0  0  0  0  0  0  0
   -8.3422   -0.5847    1.0360 H   0  0  0  0  0  0  0  0  0  0  0  0
   -6.0689    0.4042   -2.2328 H   0  0  0  0  0  0  0  0  0  0  0  0
  1  2  1  0
  2  3  1  0
  2  4  1  0
  2  5  1  0
  5  6  2  0
  5  7  1  0
  7  8  1  0
  8  9  1  0
  9 10  1  0
 10 11  2  0
 11 12  1  0
 12 13  1  0
 13 14  1  0
 14 15  2  0
 15 16  1  0
 16 17  2  0
 17 18  1  0
 18 19  2  0
 13 20  2  0
 20 10  1  0
 19 14  1  0
  1 21  1  0
  1 22  1  0
  1 23  1  0
  3 24  1  0
  3 25  1  0
  3 26  1  0
  4 27  1  0
  4 28  1  0
  4 29  1  0
  7 30  1  0
  8 31  1  0
  8 32  1  0
  9 33  1  0
  9 34  1  0
 11 35  1  0
 15 36  1  0
 16 37  1  0
 17 38  1  0
 19 39  1  0
M  END
$$$$
