
     RDKit          3D

 60 62  0  0  0  0  0  0  0  0999 V2000
   -4.6960   -0.8651    2.8320 C   0  0  0  0  0  0  0  0  0  0  0  0
   -3.5430    0.1077    2.6274 C   0  0  0  0  0  0  0  0  0  0  0  0
   -3.7070    0.9812    1.3796 C   0  0  0  0  0  0  0  0  0  0  0  0
   -3.5816    0.1940    0.1323 N   0  0  0  0  0  0  0  0  0  0  0  0
   -4.8763   -0.0293   -0.5453 C   0  0  0  0  0  0  0  0  0  0  0  0
   -5.1147    1.0388   -1.6137 C   0  0  0  0  0  0  0  0  0  0  0  0
   -6.4525    0.8410   -2.3077 C   0  0  0  0  0  0  0  0  0  0  0  0
   -2.3278   -0.2200   -0.4260 C   0  0  0  0  0  0  0  0  0  0  0  0
   -2.2596   -1.0051   -1.5246 C   0  0  0  0  0  0  0  0  0  0  0  0
   -0.9224   -1.3999   -2.0505 C   0  0  0  0  0  0  0  0  0  0  0  0
   -0.8915   -2.2774   -3.2778 C   0  0  0  0  0  0  0  0  0  0  0  0
    0.2130   -1.0493   -1.5327 N   0  0  0  0  0  0  0  0  0  0  0  0
    0.1540   -0.2568   -0.4227 C   0  0  0  0  0  0  0  0  0  0  0  0
    1.1623    0.2716    0.3564 C   0  0  0  0  0  0  0  0  0  0  0  0
    2.5718    0.0644    0.1092 C   0  0  0  0  0  0  0  0  0  0  0  0
    3.2229    0.8356   -0.8459 C   0  0  0  0  0  0  0  0  0  0  0  0
    4.5472    0.7582   -1.1264 N   0  0  0  0  0  0  0  0  0  0  0  0
    5.2904   -0.1362   -0.4417 C   0  0  0  0  0  0  0  0  0  0  0  0
    6.6721   -0.2585   -0.7103 N   0  0  0  0  0  0  0  0  0  0  0  0
    7.4935    0.0517    0.4591 C   0  0  0  0  0  0  0  0  0  0  0  0
    7.0716    0.4555   -1.9238 C   0  0  0  0  0  0  0  0  0  0  0  0
    4.7005   -0.9707    0.5151 C   0  0  0  0  0  0  0  0  0  0  0  0
    3.3300   -0.8802    0.8063 C   0  0  0  0  0  0  0  0  0  0  0  0
    2.7235   -1.8009    1.8262 C   0  0  0  0  0  0  0  0  0  0  0  0
    0.5122    1.0289    1.3491 C   0  0  0  0  0  0  0  0  0  0  0  0
    1.1291    1.8332    2.4332 C   0  0  0  0  0  0  0  0  0  0  0  0
   -0.8145    0.9728    1.2305 N   0  0  0  0  0  0  0  0  0  0  0  0
   -1.0637    0.1739    0.1452 N   0  0  0  0  0  0  0  0  0  0  0  0
   -4.7443   -1.6010    2.0238 H   0  0  0  0  0  0  0  0  0  0  0  0
   -4.5652   -1.4106    3.7720 H   0  0  0  0  0  0  0  0  0  0  0  0
   -5.6536   -0.3368    2.8786 H   0  0  0  0  0  0  0  0  0  0  0  0
   -2.6092   -0.4625    2.5946 H   0  0  0  0  0  0  0  0  0  0  0  0
   -3.4857    0.7639    3.5040 H   0  0  0  0  0  0  0  0  0  0  0  0
   -3.0059    1.8202    1.3814 H   0  0  0  0  0  0  0  0  0  0  0  0
   -4.6894    1.4707    1.4247 H   0  0  0  0  0  0  0  0  0  0  0  0
   -5.6976   -0.0023    0.1823 H   0  0  0  0  0  0  0  0  0  0  0  0
   -4.9238   -1.0351   -0.9770 H   0  0  0  0  0  0  0  0  0  0  0  0
   -4.3160    1.0155   -2.3635 H   0  0  0  0  0  0  0  0  0  0  0  0
   -5.0889    2.0357   -1.1577 H   0  0  0  0  0  0  0  0  0  0  0  0
   -6.4958   -0.1333   -2.8047 H   0  0  0  0  0  0  0  0  0  0  0  0
   -7.2785    0.8990   -1.5917 H   0  0  0  0  0  0  0  0  0  0  0  0
   -6.6050    1.6160   -3.0654 H   0  0  0  0  0  0  0  0  0  0  0  0
   -3.1215   -1.3752   -2.0566 H   0  0  0  0  0  0  0  0  0  0  0  0
   -0.3998   -3.2229   -3.0310 H   0  0  0  0  0  0  0  0  0  0  0  0
   -1.8969   -2.4890   -3.6500 H   0  0  0  0  0  0  0  0  0  0  0  0
   -0.3226   -1.7754   -4.0658 H   0  0  0  0  0  0  0  0  0  0  0  0
    2.6815    1.5711   -1.4352 H   0  0  0  0  0  0  0  0  0  0  0  0
    7.3144   -0.6452    1.2848 H   0  0  0  0  0  0  0  0  0  0  0  0
    8.5559   -0.0370    0.2049 H   0  0  0  0  0  0  0  0  0  0  0  0
    7.3169    1.0743    0.8130 H   0  0  0  0  0  0  0  0  0  0  0  0
    6.4917    0.1217   -2.7925 H   0  0  0  0  0  0  0  0  0  0  0  0
    6.9708    1.5419   -1.8131 H   0  0  0  0  0  0  0  0  0  0  0  0
    8.1225    0.2406   -2.1491 H   0  0  0  0  0  0  0  0  0  0  0  0
    5.3098   -1.7175    1.0148 H   0  0  0  0  0  0  0  0  0  0  0  0
    1.9122   -2.3855    1.3809 H   0  0  0  0  0  0  0  0  0  0  0  0
    3.4618   -2.5112    2.2132 H   0  0  0  0  0  0  0  0  0  0  0  0
    2.3392   -1.2311    2.6772 H   0  0  0  0  0  0  0  0  0  0  0  0
    1.6830    1.1877    3.1219 H   0  0  0  0  0  0  0  0  0  0  0  0
    0.3734    2.3738    3.0127 H   0  0  0  0  0  0  0  0  0  0  0  0
    1.8229    2.5702    2.0159 H   0  0  0  0  0  0  0  0  0  0  0  0
  1  2  1  0
  2  3  1  0
  3  4  1  0
  4  5  1  0
  5  6  1  0
  6  7  1  0
  4  8  1  0
  8  9  2  0
  9 10  1  0
 10 11  1  0
 10 12  2  0
 12 13  1  0
 13 14  2  0
 14 15  1  0
 15 16  2  0
 16 17  1  0
 17 18  2  0
 18 19  1  0
 19 20  1  0
 19 21  1  0
 18 22  1  0
 22 23  2  0
 23 24  1  0
 14 25  1  0
 25 26  1  0
 25 27  2  0
 27 28  1  0
 28  8  1  0
 28 13  1  0
 23 15  1  0
  1 29  1  0
  1 30  1  0
  1 31  1  0
  2 32  1  0
  2 33  1  0
  3 34  1  0
  3 35  1  0
  5 36  1  0
  5 37  1  0
  6 38  1  0
  6 39  1  0
  7 40  1  0
  7 41  1  0
  7 42  1  0
  9 43  1  0
 11 44  1  0
 11 45  1  0
 11 46  1  0
 16 47  1  0
 20 48  1  0
 20 49  1  0
 20 50  1  0
 21 51  1  0
 21 52  1  0
 21 53  1  0
 22 54  1  0
 24 55  1  0
 24 56  1  0
 24 57  1  0
 26 58  1  0
 26 59  1  0
 26 60  1  0
M  END
$$$$
