
     RDKit          3D

 63 67  0  0  0  0  0  0  0  0999 V2000
    3.6305    2.2867    6.6841 O   0  0  0  0  0  0  0  0  0  0  0  0
    4.3112    1.6725    5.8510 N   0  0  0  0  0  4  0  0  0  0  0  0
    5.5473    1.5947    5.8691 O   0  0  0  0  0  1  0  0  0  0  0  0
    3.6064    1.0003    4.7522 C   0  0  0  0  0  0  0  0  0  0  0  0
    2.2243    1.1511    4.6170 C   0  0  0  0  0  0  0  0  0  0  0  0
    1.5641    0.5152    3.5592 C   0  0  0  0  0  0  0  0  0  0  0  0
    2.2528   -0.2702    2.6128 C   0  0  0  0  0  0  0  0  0  0  0  0
    1.5255   -0.9431    1.6050 N   0  0  0  0  0  0  0  0  0  0  0  0
    0.3766   -0.3562    1.1686 N   0  0  0  0  0  0  0  0  0  0  0  0
   -0.2949   -1.0616    0.3099 C   0  0  0  0  0  0  0  0  0  0  0  0
   -1.5275   -0.5906   -0.2674 C   0  0  0  0  0  0  0  0  0  0  0  0
   -2.0790    1.0079    0.0043 S   0  0  0  0  0  0  0  0  0  0  0  0
   -3.5199    0.6959   -0.9001 C   0  0  0  0  0  0  0  0  0  0  0  0
   -4.5051    1.6141   -1.0901 N   0  0  0  0  0  0  0  0  0  0  0  0
   -5.6526    1.2806   -1.9426 C   0  0  0  0  0  0  0  0  0  0  0  0
   -6.1325    2.5424   -2.6757 C   0  0  0  0  0  0  0  0  0  0  0  0
   -6.5196    3.6168   -1.8037 O   0  0  0  0  0  0  0  0  0  0  0  0
   -5.8977    3.5601   -0.5137 C   0  0  0  0  0  0  0  0  0  0  0  0
   -4.4806    2.9641   -0.5277 C   0  0  0  0  0  0  0  0  0  0  0  0
   -3.5739   -0.5237   -1.3905 N   0  0  0  0  0  0  0  0  0  0  0  0
   -2.4454   -1.2520   -1.0601 C   0  0  0  0  0  0  0  0  0  0  0  0
   -2.3351   -2.6361   -1.4876 C   0  0  0  0  0  0  0  0  0  0  0  0
   -3.3271   -3.5489   -1.1028 C   0  0  0  0  0  0  0  0  0  0  0  0
   -3.2466   -4.8846   -1.5010 C   0  0  0  0  0  0  0  0  0  0  0  0
   -2.1815   -5.3137   -2.2932 C   0  0  0  0  0  0  0  0  0  0  0  0
   -1.2001   -4.4065   -2.6976 C   0  0  0  0  0  0  0  0  0  0  0  0
   -1.2770   -3.0685   -2.2996 C   0  0  0  0  0  0  0  0  0  0  0  0
    3.6447   -0.3954    2.7697 C   0  0  0  0  0  0  0  0  0  0  0  0
    4.6355   -1.3094    1.6112 S   0  0  0  0  0  6  0  0  0  0  0  0
    5.5833   -2.0789    2.3868 O   0  0  0  0  0  0  0  0  0  0  0  0
    3.7666   -1.9424    0.6389 O   0  0  0  0  0  0  0  0  0  0  0  0
    5.5200   -0.0748    0.8561 N   0  0  0  0  0  0  0  0  0  0  0  0
    4.9469    0.4989   -0.3278 C   0  0  0  0  0  0  0  0  0  0  0  0
    3.9054    1.4218   -0.2154 C   0  0  0  0  0  0  0  0  0  0  0  0
    3.3142    1.9523   -1.3658 C   0  0  0  0  0  0  0  0  0  0  0  0
    3.7570    1.5597   -2.6308 C   0  0  0  0  0  0  0  0  0  0  0  0
    4.7862    0.6266   -2.7504 C   0  0  0  0  0  0  0  0  0  0  0  0
    5.3771    0.0936   -1.6018 C   0  0  0  0  0  0  0  0  0  0  0  0
    6.6569   -1.0527   -1.7854 Cl  0  0  0  0  0  0  0  0  0  0  0  0
    4.3243    0.2259    3.8357 C   0  0  0  0  0  0  0  0  0  0  0  0
    1.6456    1.7496    5.3160 H   0  0  0  0  0  0  0  0  0  0  0  0
    0.4820    0.6254    3.4783 H   0  0  0  0  0  0  0  0  0  0  0  0
    2.1129   -1.4283    0.9068 H   0  0  0  0  0  0  0  0  0  0  0  0
    0.0615   -2.0639    0.0144 H   0  0  0  0  0  0  0  0  0  0  0  0
   -5.4032    0.5208   -2.6939 H   0  0  0  0  0  0  0  0  0  0  0  0
   -6.4558    0.8838   -1.3097 H   0  0  0  0  0  0  0  0  0  0  0  0
   -5.3371    2.9233   -3.3284 H   0  0  0  0  0  0  0  0  0  0  0  0
   -6.9924    2.3083   -3.3121 H   0  0  0  0  0  0  0  0  0  0  0  0
   -6.5495    2.9746    0.1473 H   0  0  0  0  0  0  0  0  0  0  0  0
   -5.8685    4.5803   -0.1186 H   0  0  0  0  0  0  0  0  0  0  0  0
   -4.1094    2.9646    0.5032 H   0  0  0  0  0  0  0  0  0  0  0  0
   -3.8241    3.5920   -1.1398 H   0  0  0  0  0  0  0  0  0  0  0  0
   -4.1697   -3.2191   -0.4956 H   0  0  0  0  0  0  0  0  0  0  0  0
   -4.0203   -5.5886   -1.2009 H   0  0  0  0  0  0  0  0  0  0  0  0
   -2.1266   -6.3524   -2.6095 H   0  0  0  0  0  0  0  0  0  0  0  0
   -0.3812   -4.7426   -3.3311 H   0  0  0  0  0  0  0  0  0  0  0  0
   -0.5170   -2.3698   -2.6453 H   0  0  0  0  0  0  0  0  0  0  0  0
    6.4935   -0.3754    0.7601 H   0  0  0  0  0  0  0  0  0  0  0  0
    3.5539    1.7548    0.7574 H   0  0  0  0  0  0  0  0  0  0  0  0
    2.5139    2.6803   -1.2684 H   0  0  0  0  0  0  0  0  0  0  0  0
    3.2991    1.9817   -3.5248 H   0  0  0  0  0  0  0  0  0  0  0  0
    5.1285    0.3238   -3.7384 H   0  0  0  0  0  0  0  0  0  0  0  0
    5.4029    0.1049    3.9322 H   0  0  0  0  0  0  0  0  0  0  0  0
  1  2  2  0
  2  3  1  0
  2  4  1  0
  4  5  2  0
  5  6  1  0
  6  7  2  0
  7  8  1  0
  8  9  1  0
  9 10  2  3
 10 11  1  0
 11 12  1  0
 12 13  1  0
 13 14  1  0
 14 15  1  0
 15 16  1  0
 16 17  1  0
 17 18  1  0
 18 19  1  0
 13 20  2  0
 20 21  1  0
 21 22  1  0
 22 23  2  0
 23 24  1  0
 24 25  2  0
 25 26  1  0
 26 27  2  0
  7 28  1  0
 28 29  1  0
 29 30  2  0
 29 31  2  0
 29 32  1  0
 32 33  1  0
 33 34  2  0
 34 35  1  0
 35 36  2  0
 36 37  1  0
 37 38  2  0
 38 39  1  0
 28 40  2  0
 40  4  1  0
 21 11  2  0
 27 22  1  0
 38 33  1  0
 19 14  1  0
  5 41  1  0
  6 42  1  0
  8 43  1  0
 10 44  1  0
 15 45  1  0
 15 46  1  0
 16 47  1  0
 16 48  1  0
 18 49  1  0
 18 50  1  0
 19 51  1  0
 19 52  1  0
 23 53  1  0
 24 54  1  0
 25 55  1  0
 26 56  1  0
 27 57  1  0
 32 58  1  0
 34 59  1  0
 35 60  1  0
 36 61  1  0
 37 62  1  0
 40 63  1  0
M  CHG  2   2   1   3  -1
M  END
$$$$
