
     RDKit          3D

 19 19  0  0  0  0  0  0  0  0999 V2000
    2.7966   -0.4404    1.2664 C   0  0  0  0  0  0  0  0  0  0  0  0
    1.8025   -0.9361    0.3750 O   0  0  0  0  0  0  0  0  0  0  0  0
    0.6615   -0.1862    0.2441 C   0  0  0  0  0  0  0  0  0  0  0  0
    0.3886    1.0085    0.8996 C   0  0  0  0  0  0  0  0  0  0  0  0
   -0.8232    1.6648    0.6657 C   0  0  0  0  0  0  0  0  0  0  0  0
   -1.7751    1.1382   -0.2230 C   0  0  0  0  0  0  0  0  0  0  0  0
   -3.3629    2.1643   -0.4170 Br  0  0  0  0  0  0  0  0  0  0  0  0
   -1.5133   -0.0657   -0.8909 C   0  0  0  0  0  0  0  0  0  0  0  0
   -2.4441   -0.7143   -1.8503 C   0  0  0  0  0  0  0  0  0  0  0  0
   -3.5410   -0.2726   -2.1650 O   0  0  0  0  0  0  0  0  0  0  0  0
   -0.2912   -0.7118   -0.6444 C   0  0  0  0  0  0  0  0  0  0  0  0
    0.0107   -1.8960   -1.2766 O   0  0  0  0  0  0  0  0  0  0  0  0
    2.4153   -0.3875    2.2915 H   0  0  0  0  0  0  0  0  0  0  0  0
    3.1752    0.5314    0.9330 H   0  0  0  0  0  0  0  0  0  0  0  0
    3.6335   -1.1452    1.2577 H   0  0  0  0  0  0  0  0  0  0  0  0
    1.0881    1.4597    1.5960 H   0  0  0  0  0  0  0  0  0  0  0  0
   -1.0202    2.6001    1.1882 H   0  0  0  0  0  0  0  0  0  0  0  0
   -2.0998   -1.6611   -2.2982 H   0  0  0  0  0  0  0  0  0  0  0  0
    0.8988   -2.1501   -0.9517 H   0  0  0  0  0  0  0  0  0  0  0  0
  1  2  1  0
  2  3  1  0
  3  4  2  0
  4  5  1  0
  5  6  2  0
  6  7  1  0
  6  8  1  0
  8  9  1  0
  9 10  2  0
  8 11  2  0
 11 12  1  0
 11  3  1  0
  1 13  1  0
  1 14  1  0
  1 15  1  0
  4 16  1  0
  5 17  1  0
  9 18  1  0
 12 19  1  0
M  END
$$$$
