
     RDKit          3D

 41 44  0  0  0  0  0  0  0  0999 V2000
   -6.0608   -0.5876   -1.1940 C   0  0  0  0  0  0  0  0  0  0  0  0
   -4.9847   -0.2885   -2.0133 C   0  0  0  0  0  0  0  0  0  0  0  0
   -3.7272   -0.0989   -1.4413 C   0  0  0  0  0  0  0  0  0  0  0  0
   -3.5593   -0.2177   -0.0590 C   0  0  0  0  0  0  0  0  0  0  0  0
   -2.2949   -0.0170    0.5152 N   0  0  0  0  0  0  0  0  0  0  0  0
   -1.2159   -0.8190   -0.0995 C   0  0  0  0  0  0  0  0  0  0  0  0
   -0.0407   -1.0508    0.8853 C   0  0  0  0  0  0  0  0  0  0  0  0
    0.2986    0.1008    1.7589 N   0  0  0  0  0  0  0  0  0  0  0  0
    0.7701    1.2521    0.9556 C   0  0  0  0  0  0  0  0  0  0  0  0
    2.0728    0.9687    0.2736 C   0  0  0  0  0  0  0  0  0  0  0  0
    2.3484    1.0818   -1.0111 N   0  0  0  0  0  0  0  0  0  0  0  0
    3.6599    0.6921   -1.1402 C   0  0  0  0  0  0  0  0  0  0  0  0
    4.4656    0.6203   -2.2857 C   0  0  0  0  0  0  0  0  0  0  0  0
    5.7876    0.1767   -2.1508 C   0  0  0  0  0  0  0  0  0  0  0  0
    6.2964   -0.1876   -0.9013 C   0  0  0  0  0  0  0  0  0  0  0  0
    5.5075   -0.1216    0.2535 C   0  0  0  0  0  0  0  0  0  0  0  0
    4.1952    0.3262    0.0899 C   0  0  0  0  0  0  0  0  0  0  0  0
    3.1645    0.5119    0.9723 N   0  0  0  0  0  0  0  0  0  0  0  0
   -0.9200    0.4928    2.5210 C   0  0  0  0  0  0  0  0  0  0  0  0
   -2.2874   -0.0114    1.9844 C   0  0  0  0  0  0  0  0  0  0  0  0
   -4.6158   -0.4953    0.7379 N   0  0  0  0  0  0  0  0  0  0  0  0
   -5.8273   -0.6763    0.1646 C   0  0  0  0  0  0  0  0  0  0  0  0
   -7.0539   -0.7392   -1.5999 H   0  0  0  0  0  0  0  0  0  0  0  0
   -5.1166   -0.1926   -3.0868 H   0  0  0  0  0  0  0  0  0  0  0  0
   -2.8885    0.1643   -2.0772 H   0  0  0  0  0  0  0  0  0  0  0  0
   -0.8416   -0.2936   -0.9862 H   0  0  0  0  0  0  0  0  0  0  0  0
   -1.5841   -1.8024   -0.4207 H   0  0  0  0  0  0  0  0  0  0  0  0
    0.8374   -1.3982    0.3281 H   0  0  0  0  0  0  0  0  0  0  0  0
   -0.2974   -1.8941    1.5417 H   0  0  0  0  0  0  0  0  0  0  0  0
    0.9487    2.1063    1.6226 H   0  0  0  0  0  0  0  0  0  0  0  0
    0.0282    1.5809    0.2186 H   0  0  0  0  0  0  0  0  0  0  0  0
    4.0637    0.9055   -3.2511 H   0  0  0  0  0  0  0  0  0  0  0  0
    6.4232    0.1169   -3.0309 H   0  0  0  0  0  0  0  0  0  0  0  0
    7.3267   -0.5292   -0.8237 H   0  0  0  0  0  0  0  0  0  0  0  0
    5.9023   -0.4048    1.2228 H   0  0  0  0  0  0  0  0  0  0  0  0
    3.1690    0.3092    1.9616 H   0  0  0  0  0  0  0  0  0  0  0  0
   -0.8050    0.1077    3.5421 H   0  0  0  0  0  0  0  0  0  0  0  0
   -0.9697    1.5839    2.6353 H   0  0  0  0  0  0  0  0  0  0  0  0
   -2.4775   -1.0237    2.3659 H   0  0  0  0  0  0  0  0  0  0  0  0
   -3.0642    0.6524    2.3853 H   0  0  0  0  0  0  0  0  0  0  0  0
   -6.6336   -0.9008    0.8568 H   0  0  0  0  0  0  0  0  0  0  0  0
  1  2  2  0
  2  3  1  0
  3  4  2  0
  4  5  1  0
  5  6  1  0
  6  7  1  0
  7  8  1  0
  8  9  1  0
  9 10  1  0
 10 11  2  0
 11 12  1  0
 12 13  2  0
 13 14  1  0
 14 15  2  0
 15 16  1  0
 16 17  2  0
 17 18  1  0
  8 19  1  0
 19 20  1  0
  4 21  1  0
 21 22  2  0
 22  1  1  0
 20  5  1  0
 18 10  1  0
 17 12  1  0
  1 23  1  0
  2 24  1  0
  3 25  1  0
  6 26  1  0
  6 27  1  0
  7 28  1  0
  7 29  1  0
  9 30  1  0
  9 31  1  0
 13 32  1  0
 14 33  1  0
 15 34  1  0
 16 35  1  0
 18 36  1  0
 19 37  1  0
 19 38  1  0
 20 39  1  0
 20 40  1  0
 22 41  1  0
M  END
$$$$
