
     RDKit          3D

 31 29  0  0  0  0  0  0  0  0999 V2000
    2.0493   -0.2044   -1.0292 N   0  0  0  0  0  0  0  0  0  0  0  0
    2.6135    0.2580    0.0310 C   0  0  0  0  0  0  0  0  0  0  0  0
    3.8889    0.7133    0.0221 N   0  0  0  0  0  0  0  0  0  0  0  0
    2.0412    0.3636    1.2675 N   0  0  0  0  0  0  0  0  0  0  0  0
    0.7063   -0.0511    1.3576 O   0  0  0  0  0  0  0  0  0  0  0  0
   -0.1416    1.0085    0.9080 C   0  0  0  0  0  0  0  0  0  0  0  0
   -1.5316    0.4528    0.6226 C   0  0  0  0  0  0  0  0  0  0  0  0
   -1.5581   -0.7801   -0.2944 C   0  0  2  0  0  0  0  0  0  0  0  0
   -0.8748   -0.5752   -1.5840 N   0  0  0  0  0  0  0  0  0  0  0  0
   -3.0262   -1.1318   -0.5528 C   0  0  0  0  0  0  0  0  0  0  0  0
   -3.7684   -0.6318   -1.3858 O   0  0  0  0  0  0  0  0  0  0  0  0
   -3.5044   -2.0574    0.3061 O   0  0  0  0  0  0  0  0  0  0  0  0
   -0.9823    1.3911   -0.0057 O   0  0  0  0  0  0  0  0  0  0  0  0
   -0.0473    0.3388    0.3006 S   0  0  0  0  0  6  0  0  0  0  0  0
    0.7471    0.2951    1.5017 O   0  0  0  0  0  0  0  0  0  0  0  0
    0.9773    0.1999   -0.9260 O   0  0  0  0  0  0  0  0  0  0  0  0
   -0.8602   -1.0390    0.1816 O   0  0  0  0  0  0  0  0  0  0  0  0
    2.6969   -0.1608   -1.8171 H   0  0  0  0  0  0  0  0  0  0  0  0
    4.3931    0.4732    0.8694 H   0  0  0  0  0  0  0  0  0  0  0  0
    4.4250    0.4363   -0.7912 H   0  0  0  0  0  0  0  0  0  0  0  0
    2.2675    1.1971    1.7983 H   0  0  0  0  0  0  0  0  0  0  0  0
   -0.2029    1.7667    1.6973 H   0  0  0  0  0  0  0  0  0  0  0  0
    0.2514    1.4954    0.0080 H   0  0  0  0  0  0  0  0  0  0  0  0
   -1.9926    0.1687    1.5783 H   0  0  0  0  0  0  0  0  0  0  0  0
   -2.1560    1.2553    0.2089 H   0  0  0  0  0  0  0  0  0  0  0  0
   -1.0861   -1.6393    0.1957 H   0  0  0  0  0  0  0  0  0  0  0  0
    0.1362   -0.4546   -1.4043 H   0  0  0  0  0  0  0  0  0  0  0  0
   -1.2000    0.2869   -2.0160 H   0  0  0  0  0  0  0  0  0  0  0  0
   -4.4267   -2.1894    0.0038 H   0  0  0  0  0  0  0  0  0  0  0  0
    1.7556   -0.2962   -0.5976 H   0  0  0  0  0  0  0  0  0  0  0  0
   -1.5902   -0.8897   -0.4545 H   0  0  0  0  0  0  0  0  0  0  0  0
  1  2  2  3
  2  3  1  0
  2  4  1  0
  4  5  1  0
  5  6  1  0
  6  7  1  0
  7  8  1  0
  8  9  1  0
  8 10  1  0
 10 11  2  0
 10 12  1  0
 13 14  2  0
 14 15  2  0
 14 16  1  0
 14 17  1  0
  1 18  1  0
  3 19  1  0
  3 20  1  0
  4 21  1  0
  6 22  1  0
  6 23  1  0
  7 24  1  0
  7 25  1  0
  8 26  1  1
  9 27  1  0
  9 28  1  0
 12 29  1  0
 16 30  1  0
 17 31  1  0
M  END
$$$$
