
     RDKit          3D

 39 42  0  0  0  0  0  0  0  0999 V2000
    2.2541   -1.9274    1.8156 O   0  0  0  0  0  0  0  0  0  0  0  0
    1.8900   -1.4256    0.7563 C   0  0  0  0  0  0  0  0  0  0  0  0
    0.4674   -1.1182    0.5587 C   0  0  0  0  0  0  0  0  0  0  0  0
   -0.5005   -1.3755    1.4892 C   0  0  0  0  0  0  0  0  0  0  0  0
   -1.8051   -1.0851    1.2877 N   0  0  0  0  0  0  0  0  0  0  0  0
   -2.1575   -0.5170    0.1184 C   0  0  0  0  0  0  0  0  0  0  0  0
   -3.4873   -0.2409   -0.1144 N   0  0  0  0  0  0  0  0  0  0  0  0
   -3.8151    0.5836   -1.2793 C   0  0  0  0  0  0  0  0  0  0  0  0
   -5.3378    0.7665   -1.3670 C   0  0  0  0  0  0  0  0  0  0  0  0
   -5.9096    1.4045   -0.2141 O   0  0  0  0  0  0  0  0  0  0  0  0
   -5.1701    1.1708    0.9950 C   0  0  0  0  0  0  0  0  0  0  0  0
   -4.4151   -0.1688    1.0183 C   0  0  0  0  0  0  0  0  0  0  0  0
   -1.2622   -0.2348   -0.8456 N   0  0  0  0  0  0  0  0  0  0  0  0
    0.0295   -0.5401   -0.6053 C   0  0  0  0  0  0  0  0  0  0  0  0
    0.9869   -0.2225   -1.6571 C   0  0  0  0  0  0  0  0  0  0  0  0
    2.2798   -0.5124   -1.4719 C   0  0  0  0  0  0  0  0  0  0  0  0
    2.7406   -1.1122   -0.3089 N   0  0  0  0  0  0  0  0  0  0  0  0
    4.1728   -1.3726   -0.1570 C   0  0  0  0  0  0  0  0  0  0  0  0
    4.8561   -0.1469    0.3343 C   0  0  0  0  0  0  0  0  0  0  0  0
    4.9822    0.4302    1.5816 C   0  0  0  0  0  0  0  0  0  0  0  0
    5.7564    1.6011    1.4031 C   0  0  0  0  0  0  0  0  0  0  0  0
    6.0537    1.6636    0.0620 C   0  0  0  0  0  0  0  0  0  0  0  0
    5.5120    0.6065   -0.5964 O   0  0  0  0  0  0  0  0  0  0  0  0
   -0.2662   -1.8326    2.4460 H   0  0  0  0  0  0  0  0  0  0  0  0
   -3.4637    0.1086   -2.2028 H   0  0  0  0  0  0  0  0  0  0  0  0
   -3.3394    1.5680   -1.1842 H   0  0  0  0  0  0  0  0  0  0  0  0
   -5.8328   -0.2045   -1.4866 H   0  0  0  0  0  0  0  0  0  0  0  0
   -5.5958    1.3744   -2.2400 H   0  0  0  0  0  0  0  0  0  0  0  0
   -5.8808    1.2168    1.8264 H   0  0  0  0  0  0  0  0  0  0  0  0
   -4.4684    2.0042    1.1193 H   0  0  0  0  0  0  0  0  0  0  0  0
   -5.1322   -0.9923    0.9196 H   0  0  0  0  0  0  0  0  0  0  0  0
   -3.9271   -0.2713    1.9935 H   0  0  0  0  0  0  0  0  0  0  0  0
    0.6199    0.2484   -2.5608 H   0  0  0  0  0  0  0  0  0  0  0  0
    3.0204   -0.2769   -2.2328 H   0  0  0  0  0  0  0  0  0  0  0  0
    4.3313   -2.1935    0.5514 H   0  0  0  0  0  0  0  0  0  0  0  0
    4.5842   -1.6961   -1.1206 H   0  0  0  0  0  0  0  0  0  0  0  0
    4.5590    0.0476    2.5011 H   0  0  0  0  0  0  0  0  0  0  0  0
    6.0597    2.3129    2.1577 H   0  0  0  0  0  0  0  0  0  0  0  0
    6.6108    2.3595   -0.5497 H   0  0  0  0  0  0  0  0  0  0  0  0
  1  2  2  0
  2  3  1  0
  3  4  2  0
  4  5  1  0
  5  6  2  0
  6  7  1  0
  7  8  1  0
  8  9  1  0
  9 10  1  0
 10 11  1  0
 11 12  1  0
  6 13  1  0
 13 14  2  0
 14 15  1  0
 15 16  2  0
 16 17  1  0
 17 18  1  0
 18 19  1  0
 19 20  2  0
 20 21  1  0
 21 22  2  0
 22 23  1  0
 17  2  1  0
 23 19  1  0
 14  3  1  0
 12  7  1  0
  4 24  1  0
  8 25  1  0
  8 26  1  0
  9 27  1  0
  9 28  1  0
 11 29  1  0
 11 30  1  0
 12 31  1  0
 12 32  1  0
 15 33  1  0
 16 34  1  0
 18 35  1  0
 18 36  1  0
 20 37  1  0
 21 38  1  0
 22 39  1  0
M  END
$$$$
