
     RDKit          3D

 51 52  0  0  0  0  0  0  0  0999 V2000
    6.2048    3.0560   -0.2320 C   0  0  0  0  0  0  0  0  0  0  0  0
    5.9311    1.6941   -0.5271 O   0  0  0  0  0  0  0  0  0  0  0  0
    4.6186    1.3287   -0.6988 C   0  0  0  0  0  0  0  0  0  0  0  0
    3.5298    2.1919   -0.5197 C   0  0  0  0  0  0  0  0  0  0  0  0
    2.2258    1.7317   -0.7092 C   0  0  0  0  0  0  0  0  0  0  0  0
    2.0145    0.4017   -1.0715 C   0  0  0  0  0  0  0  0  0  0  0  0
    0.3617   -0.2038   -1.3082 S   0  0  0  0  0  6  0  0  0  0  0  0
    0.3807   -1.0019   -2.5149 O   0  0  0  0  0  0  0  0  0  0  0  0
   -0.5622    0.9003   -1.1481 O   0  0  0  0  0  0  0  0  0  0  0  0
    0.1875   -1.2773   -0.0014 N   0  0  0  0  0  0  0  0  0  0  0  0
   -0.2415   -0.6914    1.2378 C   0  0  0  0  0  0  0  0  0  0  0  0
    0.7242   -0.1675    2.1000 C   0  0  0  0  0  0  0  0  0  0  0  0
    0.3363    0.4830    3.2732 C   0  0  0  0  0  0  0  0  0  0  0  0
   -1.0165    0.6189    3.5866 C   0  0  0  0  0  0  0  0  0  0  0  0
   -1.9895    0.1074    2.7261 C   0  0  0  0  0  0  0  0  0  0  0  0
   -1.6052   -0.5397    1.5435 C   0  0  0  0  0  0  0  0  0  0  0  0
   -2.6296   -1.1009    0.6271 C   0  0  0  0  0  0  0  0  0  0  0  0
   -2.3998   -2.1653    0.0635 O   0  0  0  0  0  0  0  0  0  0  0  0
   -3.7587   -0.3291    0.4457 N   0  0  0  0  0  0  0  0  0  0  0  0
   -4.7980   -0.6173   -0.5563 C   0  0  0  0  0  0  0  0  0  0  0  0
   -5.9014    0.4470   -0.4112 C   0  0  0  0  0  0  0  0  0  0  0  0
   -5.4341   -1.9976   -0.3239 C   0  0  0  0  0  0  0  0  0  0  0  0
   -4.2179   -0.5335   -1.9768 C   0  0  0  0  0  0  0  0  0  0  0  0
    3.0888   -0.4723   -1.2655 C   0  0  0  0  0  0  0  0  0  0  0  0
    4.3954   -0.0138   -1.0777 C   0  0  0  0  0  0  0  0  0  0  0  0
    5.5167   -0.7915   -1.2298 O   0  0  0  0  0  0  0  0  0  0  0  0
    5.3407   -2.1138   -1.7196 C   0  0  0  0  0  0  0  0  0  0  0  0
    7.2911    3.1733   -0.1707 H   0  0  0  0  0  0  0  0  0  0  0  0
    5.8441    3.7148   -1.0288 H   0  0  0  0  0  0  0  0  0  0  0  0
    5.7852    3.3406    0.7384 H   0  0  0  0  0  0  0  0  0  0  0  0
    3.6643    3.2293   -0.2318 H   0  0  0  0  0  0  0  0  0  0  0  0
    1.3886    2.4119   -0.5683 H   0  0  0  0  0  0  0  0  0  0  0  0
   -0.4181   -2.0530   -0.3126 H   0  0  0  0  0  0  0  0  0  0  0  0
    1.7822   -0.2728    1.8734 H   0  0  0  0  0  0  0  0  0  0  0  0
    1.0928    0.8800    3.9466 H   0  0  0  0  0  0  0  0  0  0  0  0
   -1.3122    1.1170    4.5075 H   0  0  0  0  0  0  0  0  0  0  0  0
   -3.0390    0.1973    2.9947 H   0  0  0  0  0  0  0  0  0  0  0  0
   -3.6747    0.6406    0.7261 H   0  0  0  0  0  0  0  0  0  0  0  0
   -6.3352    0.4303    0.5955 H   0  0  0  0  0  0  0  0  0  0  0  0
   -5.5030    1.4551   -0.5763 H   0  0  0  0  0  0  0  0  0  0  0  0
   -6.7117    0.2855   -1.1308 H   0  0  0  0  0  0  0  0  0  0  0  0
   -4.7256   -2.8137   -0.4957 H   0  0  0  0  0  0  0  0  0  0  0  0
   -6.2814   -2.1602   -0.9999 H   0  0  0  0  0  0  0  0  0  0  0  0
   -5.8009   -2.0928    0.7045 H   0  0  0  0  0  0  0  0  0  0  0  0
   -4.9997   -0.6700   -2.7324 H   0  0  0  0  0  0  0  0  0  0  0  0
   -3.7461    0.4403   -2.1517 H   0  0  0  0  0  0  0  0  0  0  0  0
   -3.4552   -1.2995   -2.1516 H   0  0  0  0  0  0  0  0  0  0  0  0
    2.8789   -1.4973   -1.5545 H   0  0  0  0  0  0  0  0  0  0  0  0
    4.8642   -2.1120   -2.7055 H   0  0  0  0  0  0  0  0  0  0  0  0
    4.7768   -2.7248   -1.0073 H   0  0  0  0  0  0  0  0  0  0  0  0
    6.3320   -2.5637   -1.8306 H   0  0  0  0  0  0  0  0  0  0  0  0
  1  2  1  0
  2  3  1  0
  3  4  2  0
  4  5  1  0
  5  6  2  0
  6  7  1  0
  7  8  2  0
  7  9  2  0
  7 10  1  0
 10 11  1  0
 11 12  2  0
 12 13  1  0
 13 14  2  0
 14 15  1  0
 15 16  2  0
 16 17  1  0
 17 18  2  0
 17 19  1  0
 19 20  1  0
 20 21  1  0
 20 22  1  0
 20 23  1  0
  6 24  1  0
 24 25  2  0
 25 26  1  0
 26 27  1  0
 25  3  1  0
 16 11  1  0
  1 28  1  0
  1 29  1  0
  1 30  1  0
  4 31  1  0
  5 32  1  0
 10 33  1  0
 12 34  1  0
 13 35  1  0
 14 36  1  0
 15 37  1  0
 19 38  1  0
 21 39  1  0
 21 40  1  0
 21 41  1  0
 22 42  1  0
 22 43  1  0
 22 44  1  0
 23 45  1  0
 23 46  1  0
 23 47  1  0
 24 48  1  0
 27 49  1  0
 27 50  1  0
 27 51  1  0
M  END
$$$$
