
     RDKit          3D

 37 39  0  0  0  0  0  0  0  0999 V2000
   -5.5989    0.1009   -0.0269 C   0  0  0  0  0  0  0  0  0  0  0  0
   -4.3484    0.4452    0.6437 N   0  0  0  0  0  0  0  0  0  0  0  0
   -3.4729   -0.7390    0.7554 C   0  0  0  0  0  0  0  0  0  0  0  0
   -1.9722   -0.3974    0.8945 C   0  0  0  0  0  0  0  0  0  0  0  0
   -1.4771    0.3441   -0.2922 N   0  0  0  0  0  0  0  0  0  0  0  0
   -0.1315    0.3314   -0.6768 C   0  0  0  0  0  0  0  0  0  0  0  0
    0.4830    0.6511   -1.8179 C   0  0  0  0  0  0  0  0  0  0  0  0
   -0.2034    1.1570   -3.2899 Cl  0  0  0  0  0  0  0  0  0  0  0  0
    1.9334    0.4413   -1.6972 C   0  0  0  0  0  0  0  0  0  0  0  0
    2.7062    0.6471   -2.6202 O   0  0  0  0  0  0  0  0  0  0  0  0
    2.1771   -0.0159   -0.4316 N   0  0  0  0  0  0  0  0  0  0  0  0
    3.4657   -0.3473    0.1022 C   0  0  0  0  0  0  0  0  0  0  0  0
    4.6486   -0.0751   -0.6066 C   0  0  0  0  0  0  0  0  0  0  0  0
    5.9121   -0.3984   -0.0905 C   0  0  0  0  0  0  0  0  0  0  0  0
    6.0297   -1.0080    1.1545 C   0  0  0  0  0  0  0  0  0  0  0  0
    7.6136   -1.3795    1.7294 Cl  0  0  0  0  0  0  0  0  0  0  0  0
    4.8752   -1.2931    1.8807 C   0  0  0  0  0  0  0  0  0  0  0  0
    4.9287   -2.0567    3.4317 Cl  0  0  0  0  0  0  0  0  0  0  0  0
    3.6127   -0.9651    1.3573 C   0  0  0  0  0  0  0  0  0  0  0  0
    0.9860   -0.0858    0.2465 C   0  0  0  0  0  0  0  0  0  0  0  0
    0.7919   -0.3881    1.4156 O   0  0  0  0  0  0  0  0  0  0  0  0
   -2.5042    1.1652   -0.9713 C   0  0  0  0  0  0  0  0  0  0  0  0
   -3.6542    1.5654   -0.0183 C   0  0  0  0  0  0  0  0  0  0  0  0
   -6.1038   -0.7186    0.4966 H   0  0  0  0  0  0  0  0  0  0  0  0
   -6.2880    0.9526   -0.0141 H   0  0  0  0  0  0  0  0  0  0  0  0
   -5.4409   -0.1987   -1.0692 H   0  0  0  0  0  0  0  0  0  0  0  0
   -3.7891   -1.3279    1.6242 H   0  0  0  0  0  0  0  0  0  0  0  0
   -3.5846   -1.3819   -0.1290 H   0  0  0  0  0  0  0  0  0  0  0  0
   -1.8006    0.1983    1.7990 H   0  0  0  0  0  0  0  0  0  0  0  0
   -1.4345   -1.3470    0.9962 H   0  0  0  0  0  0  0  0  0  0  0  0
    4.6415    0.4101   -1.5791 H   0  0  0  0  0  0  0  0  0  0  0  0
    6.7996   -0.1648   -0.6753 H   0  0  0  0  0  0  0  0  0  0  0  0
    2.7514   -1.2273    1.9649 H   0  0  0  0  0  0  0  0  0  0  0  0
   -2.0576    2.0941   -1.3433 H   0  0  0  0  0  0  0  0  0  0  0  0
   -2.9044    0.6083   -1.8266 H   0  0  0  0  0  0  0  0  0  0  0  0
   -4.3620    2.2140   -0.5494 H   0  0  0  0  0  0  0  0  0  0  0  0
   -3.2278    2.1894    0.7785 H   0  0  0  0  0  0  0  0  0  0  0  0
  1  2  1  0
  2  3  1  0
  3  4  1  0
  4  5  1  0
  5  6  1  0
  6  7  2  0
  7  8  1  0
  7  9  1  0
  9 10  2  0
  9 11  1  0
 11 12  1  0
 12 13  2  0
 13 14  1  0
 14 15  2  0
 15 16  1  0
 15 17  1  0
 17 18  1  0
 17 19  2  0
 11 20  1  0
 20 21  2  0
  5 22  1  0
 22 23  1  0
 23  2  1  0
 20  6  1  0
 19 12  1  0
  1 24  1  0
  1 25  1  0
  1 26  1  0
  3 27  1  0
  3 28  1  0
  4 29  1  0
  4 30  1  0
 13 31  1  0
 14 32  1  0
 19 33  1  0
 22 34  1  0
 22 35  1  0
 23 36  1  0
 23 37  1  0
M  END
$$$$
