
     RDKit          3D

 63 66  0  0  0  0  0  0  0  0999 V2000
   -5.3574    3.1656   -1.5603 C   0  0  0  0  0  0  0  0  0  0  0  0
   -4.8400    3.6718   -0.2201 C   0  0  0  0  0  0  0  0  0  0  0  0
   -5.1940    2.7311    0.9412 C   0  0  0  0  0  0  0  0  0  0  0  0
   -4.7949    3.3585    2.2773 C   0  0  0  0  0  0  0  0  0  0  0  0
   -4.5330    1.4408    0.7869 N   0  0  0  0  0  0  0  0  0  0  0  0
   -5.0691    0.2823    1.3076 C   0  0  0  0  0  0  0  0  0  0  0  0
   -6.1662    0.2211    1.8492 O   0  0  0  0  0  0  0  0  0  0  0  0
   -4.2526   -0.9531    1.1581 C   0  0  0  0  0  0  0  0  0  0  0  0
   -4.9212   -2.1773    1.0329 C   0  0  0  0  0  0  0  0  0  0  0  0
   -4.1964   -3.3606    0.8879 C   0  0  0  0  0  0  0  0  0  0  0  0
   -2.7971   -3.3215    0.8776 C   0  0  0  0  0  0  0  0  0  0  0  0
   -2.0212   -4.5782    0.7190 C   0  0  0  0  0  0  0  0  0  0  0  0
   -2.6185   -5.6435    0.5881 O   0  0  0  0  0  0  0  0  0  0  0  0
   -0.6315   -4.4684    0.7274 N   0  0  0  0  0  0  0  0  0  0  0  0
    0.1290   -5.6928    0.5554 C   0  0  0  0  0  0  0  0  0  0  0  0
    0.0041   -3.2679    0.8665 C   0  0  0  0  0  0  0  0  0  0  0  0
    1.2940   -3.0956    0.8727 N   0  0  0  0  0  0  0  0  0  0  0  0
    1.4402   -1.7379    1.0388 N   0  0  0  0  0  0  0  0  0  0  0  0
    2.7055   -1.0598    0.9368 C   0  0  0  0  0  0  0  0  0  0  0  0
    2.9980   -0.6520   -0.5084 C   0  0  0  0  0  0  0  0  0  0  0  0
    2.1658   -0.6721   -1.4119 O   0  0  0  0  0  0  0  0  0  0  0  0
    4.3018   -0.2186   -0.6977 N   0  0  0  0  0  0  0  0  0  0  0  0
    4.7448    0.3364   -1.9731 C   0  0  0  0  0  0  0  0  0  0  0  0
    6.2571    0.1499   -2.1510 C   0  0  0  0  0  0  0  0  0  0  0  0
    7.0824    1.0732   -1.2537 C   0  0  0  0  0  0  0  0  0  0  0  0
    6.6673    2.5332   -1.4092 C   0  0  0  0  0  0  0  0  0  0  0  0
    5.1701    2.7227   -1.1886 C   0  0  0  0  0  0  0  0  0  0  0  0
    4.3472    1.8142   -2.1019 C   0  0  0  0  0  0  0  0  0  0  0  0
    0.1911   -1.1116    1.1122 C   0  0  0  0  0  0  0  0  0  0  0  0
   -0.0059    0.0872    1.2426 O   0  0  0  0  0  0  0  0  0  0  0  0
   -0.7215   -2.1391    1.0129 N   0  0  0  0  0  0  0  0  0  0  0  0
   -2.1181   -2.1057    1.0209 C   0  0  0  0  0  0  0  0  0  0  0  0
   -2.8506   -0.9209    1.1680 C   0  0  0  0  0  0  0  0  0  0  0  0
   -6.4436    3.0316   -1.5357 H   0  0  0  0  0  0  0  0  0  0  0  0
   -5.1228    3.8867   -2.3501 H   0  0  0  0  0  0  0  0  0  0  0  0
   -4.8978    2.2104   -1.8315 H   0  0  0  0  0  0  0  0  0  0  0  0
   -3.7533    3.8033   -0.2862 H   0  0  0  0  0  0  0  0  0  0  0  0
   -5.2737    4.6618   -0.0343 H   0  0  0  0  0  0  0  0  0  0  0  0
   -6.2786    2.5654    0.9515 H   0  0  0  0  0  0  0  0  0  0  0  0
   -5.0659    2.7056    3.1142 H   0  0  0  0  0  0  0  0  0  0  0  0
   -3.7130    3.5266    2.3280 H   0  0  0  0  0  0  0  0  0  0  0  0
   -5.2982    4.3197    2.4241 H   0  0  0  0  0  0  0  0  0  0  0  0
   -3.6208    1.4296    0.3506 H   0  0  0  0  0  0  0  0  0  0  0  0
   -6.0101   -2.2091    1.0436 H   0  0  0  0  0  0  0  0  0  0  0  0
   -4.7251   -4.3067    0.7844 H   0  0  0  0  0  0  0  0  0  0  0  0
   -0.1824   -6.4170    1.3154 H   0  0  0  0  0  0  0  0  0  0  0  0
    1.2065   -5.5311    0.6365 H   0  0  0  0  0  0  0  0  0  0  0  0
   -0.0981   -6.1106   -0.4309 H   0  0  0  0  0  0  0  0  0  0  0  0
    2.6732   -0.1512    1.5469 H   0  0  0  0  0  0  0  0  0  0  0  0
    3.4931   -1.7243    1.3056 H   0  0  0  0  0  0  0  0  0  0  0  0
    4.8713   -0.0446    0.1203 H   0  0  0  0  0  0  0  0  0  0  0  0
    4.2344   -0.2259   -2.7650 H   0  0  0  0  0  0  0  0  0  0  0  0
    6.5362   -0.8926   -1.9569 H   0  0  0  0  0  0  0  0  0  0  0  0
    6.5169    0.3575   -3.1971 H   0  0  0  0  0  0  0  0  0  0  0  0
    8.1455    0.9661   -1.4988 H   0  0  0  0  0  0  0  0  0  0  0  0
    6.9715    0.7715   -0.2053 H   0  0  0  0  0  0  0  0  0  0  0  0
    6.9341    2.8827   -2.4142 H   0  0  0  0  0  0  0  0  0  0  0  0
    7.2245    3.1534   -0.6976 H   0  0  0  0  0  0  0  0  0  0  0  0
    4.9028    3.7690   -1.3760 H   0  0  0  0  0  0  0  0  0  0  0  0
    4.9248    2.5159   -0.1399 H   0  0  0  0  0  0  0  0  0  0  0  0
    4.4975    2.1313   -3.1419 H   0  0  0  0  0  0  0  0  0  0  0  0
    3.2816    1.9497   -1.8820 H   0  0  0  0  0  0  0  0  0  0  0  0
   -2.3400    0.0250    1.3182 H   0  0  0  0  0  0  0  0  0  0  0  0
  1  2  1  0
  2  3  1  0
  3  4  1  0
  3  5  1  0
  5  6  1  0
  6  7  2  0
  6  8  1  0
  8  9  2  0
  9 10  1  0
 10 11  2  0
 11 12  1  0
 12 13  2  0
 12 14  1  0
 14 15  1  0
 14 16  1  0
 16 17  2  0
 17 18  1  0
 18 19  1  0
 19 20  1  0
 20 21  2  0
 20 22  1  0
 22 23  1  0
 23 24  1  0
 24 25  1  0
 25 26  1  0
 26 27  1  0
 27 28  1  0
 18 29  1  0
 29 30  2  0
 29 31  1  0
 31 32  1  0
 32 33  2  0
 33  8  1  0
 32 11  1  0
 31 16  1  0
 28 23  1  0
  1 34  1  0
  1 35  1  0
  1 36  1  0
  2 37  1  0
  2 38  1  0
  3 39  1  0
  4 40  1  0
  4 41  1  0
  4 42  1  0
  5 43  1  0
  9 44  1  0
 10 45  1  0
 15 46  1  0
 15 47  1  0
 15 48  1  0
 19 49  1  0
 19 50  1  0
 22 51  1  0
 23 52  1  0
 24 53  1  0
 24 54  1  0
 25 55  1  0
 25 56  1  0
 26 57  1  0
 26 58  1  0
 27 59  1  0
 27 60  1  0
 28 61  1  0
 28 62  1  0
 33 63  1  0
M  END
$$$$
