
     RDKit          3D

 27 26  0  0  0  0  0  0  0  0999 V2000
    3.5694    1.7565    0.0843 C   0  0  0  0  0  0  0  0  0  0  0  0
    2.7411    0.6266   -0.3001 N   0  0  0  0  0  0  0  0  0  0  0  0
    3.4311   -0.5120   -0.8862 C   0  0  0  0  0  0  0  0  0  0  0  0
    1.4281    0.5764    0.1332 C   0  0  0  0  0  0  0  0  0  0  0  0
    0.8609    1.4828    0.7366 O   0  0  0  0  0  0  0  0  0  0  0  0
    0.7887   -0.6230   -0.1955 O   0  0  0  0  0  0  0  0  0  0  0  0
   -0.5478   -0.7837    0.2036 C   0  0  0  0  0  0  0  0  0  0  0  0
   -0.9036   -2.0161    0.7334 C   0  0  0  0  0  0  0  0  0  0  0  0
   -2.2184   -2.2196    1.1359 C   0  0  0  0  0  0  0  0  0  0  0  0
   -3.1482   -1.1929    0.9915 C   0  0  0  0  0  0  0  0  0  0  0  0
   -2.7859   -0.0080    0.4483 N   0  0  0  0  0  4  0  0  0  0  0  0
   -3.7692    1.0791    0.3137 C   0  0  0  0  0  0  0  0  0  0  0  0
   -1.5117    0.2098    0.0453 C   0  0  0  0  0  0  0  0  0  0  0  0
    0.0000    0.0000    0.0000 Br  0  0  0  0  0 15  0  0  0  0  0  0
    4.1635    2.0742   -0.7774 H   0  0  0  0  0  0  0  0  0  0  0  0
    4.2350    1.4428    0.8939 H   0  0  0  0  0  0  0  0  0  0  0  0
    2.9674    2.6019    0.4282 H   0  0  0  0  0  0  0  0  0  0  0  0
    2.7350   -1.2422   -1.3049 H   0  0  0  0  0  0  0  0  0  0  0  0
    4.0273   -0.9954   -0.1068 H   0  0  0  0  0  0  0  0  0  0  0  0
    4.0889   -0.1595   -1.6860 H   0  0  0  0  0  0  0  0  0  0  0  0
   -0.1641   -2.8068    0.8439 H   0  0  0  0  0  0  0  0  0  0  0  0
   -2.5170   -3.1733    1.5668 H   0  0  0  0  0  0  0  0  0  0  0  0
   -4.1812   -1.3122    1.3065 H   0  0  0  0  0  0  0  0  0  0  0  0
   -3.6850    1.4964   -0.6933 H   0  0  0  0  0  0  0  0  0  0  0  0
   -3.5350    1.8310    1.0716 H   0  0  0  0  0  0  0  0  0  0  0  0
   -4.7781    0.6874    0.4633 H   0  0  0  0  0  0  0  0  0  0  0  0
   -1.2911    1.1799   -0.3886 H   0  0  0  0  0  0  0  0  0  0  0  0
  1  2  1  0
  2  3  1  0
  2  4  1  0
  4  5  2  0
  4  6  1  0
  6  7  1  0
  7  8  2  0
  8  9  1  0
  9 10  2  0
 10 11  1  0
 11 12  1  0
 11 13  2  0
 13  7  1  0
  1 15  1  0
  1 16  1  0
  1 17  1  0
  3 18  1  0
  3 19  1  0
  3 20  1  0
  8 21  1  0
  9 22  1  0
 10 23  1  0
 12 24  1  0
 12 25  1  0
 12 26  1  0
 13 27  1  0
M  CHG  2  11   1  14  -1
M  END
$$$$
