
     RDKit          3D

 61 63  0  0  0  0  0  0  0  0999 V2000
   -5.7122   -0.7171    2.7474 C   0  0  0  0  0  0  0  0  0  0  0  0
   -5.5331   -1.1350    1.2935 C   0  0  0  0  0  0  0  0  0  0  0  0
   -4.3112   -0.5779    0.6888 N   0  0  0  0  0  0  0  0  0  0  0  0
   -3.1214   -1.2158    1.0279 C   0  0  0  0  0  0  0  0  0  0  0  0
   -3.1288   -2.2138    1.7617 O   0  0  0  0  0  0  0  0  0  0  0  0
   -1.7557   -0.7391    0.5318 C   0  0  1  0  0  0  0  0  0  0  0  0
   -1.5018   -0.9010   -0.9610 C   0  0  0  0  0  0  0  0  0  0  0  0
   -0.4156    0.1302   -1.2916 C   0  0  2  0  0  0  0  0  0  0  0  0
    0.9966   -0.4139   -1.0720 C   0  0  0  0  0  0  0  0  0  0  0  0
    2.0591    0.4110   -1.6578 N   0  0  0  0  0  0  0  0  0  0  0  0
    3.3625   -0.0394   -1.8337 C   0  0  0  0  0  0  0  0  0  0  0  0
    4.2049    0.5881   -2.4672 O   0  0  0  0  0  0  0  0  0  0  0  0
    3.6294   -1.2615   -1.2688 N   0  0  0  0  0  0  0  0  0  0  0  0
    4.9620   -1.8249   -1.3339 C   0  0  0  0  0  0  0  0  0  0  0  0
    5.7653   -1.4654   -0.1094 C   0  0  0  0  0  0  0  0  0  0  0  0
    6.4620   -0.2481   -0.0545 C   0  0  0  0  0  0  0  0  0  0  0  0
    7.1945    0.1008    1.0816 C   0  0  0  0  0  0  0  0  0  0  0  0
    7.2258   -0.7560    2.1799 C   0  0  0  0  0  0  0  0  0  0  0  0
    6.5275   -1.9620    2.1425 C   0  0  0  0  0  0  0  0  0  0  0  0
    5.7973   -2.3161    1.0052 C   0  0  0  0  0  0  0  0  0  0  0  0
    1.7725    1.8068   -2.0260 C   0  0  0  0  0  0  0  0  0  0  0  0
    1.3167    2.6716   -0.8515 C   0  0  0  0  0  0  0  0  0  0  0  0
    1.7312    3.8175   -0.6738 O   0  0  0  0  0  0  0  0  0  0  0  0
    0.3433    2.2039   -0.0096 N   0  0  0  0  0  0  0  0  0  0  0  0
   -0.7442    1.3108   -0.3672 C   0  0  2  0  0  0  0  0  0  0  0  0
   -1.3626    0.6919    0.8986 C   0  0  0  0  0  0  0  0  0  0  0  0
   -4.4707    0.5537   -0.2511 C   0  0  0  0  0  0  0  0  0  0  0  0
   -5.1963    0.1322   -1.5342 C   0  0  0  0  0  0  0  0  0  0  0  0
   -5.1549    1.7616    0.3930 C   0  0  0  0  0  0  0  0  0  0  0  0
   -5.7783    0.3702    2.8449 H   0  0  0  0  0  0  0  0  0  0  0  0
   -6.6317   -1.1508    3.1524 H   0  0  0  0  0  0  0  0  0  0  0  0
   -4.8777   -1.0543    3.3703 H   0  0  0  0  0  0  0  0  0  0  0  0
   -5.4876   -2.2295    1.2355 H   0  0  0  0  0  0  0  0  0  0  0  0
   -6.4112   -0.8315    0.7161 H   0  0  0  0  0  0  0  0  0  0  0  0
   -1.0272   -1.3897    1.0412 H   0  0  0  0  0  0  0  0  0  0  0  0
   -1.1972   -1.9249   -1.2066 H   0  0  0  0  0  0  0  0  0  0  0  0
   -2.3964   -0.7028   -1.5569 H   0  0  0  0  0  0  0  0  0  0  0  0
   -0.5333    0.4132   -2.3445 H   0  0  0  0  0  0  0  0  0  0  0  0
    1.2133   -0.5246   -0.0021 H   0  0  0  0  0  0  0  0  0  0  0  0
    1.0763   -1.4120   -1.5216 H   0  0  0  0  0  0  0  0  0  0  0  0
    3.1548   -1.4320   -0.3985 H   0  0  0  0  0  0  0  0  0  0  0  0
    5.4804   -1.5008   -2.2430 H   0  0  0  0  0  0  0  0  0  0  0  0
    4.8470   -2.9129   -1.3980 H   0  0  0  0  0  0  0  0  0  0  0  0
    6.4303    0.4404   -0.8992 H   0  0  0  0  0  0  0  0  0  0  0  0
    7.7298    1.0467    1.1109 H   0  0  0  0  0  0  0  0  0  0  0  0
    7.7915   -0.4814    3.0663 H   0  0  0  0  0  0  0  0  0  0  0  0
    6.5508   -2.6285    3.0005 H   0  0  0  0  0  0  0  0  0  0  0  0
    5.2560   -3.2598    0.9941 H   0  0  0  0  0  0  0  0  0  0  0  0
    2.6649    2.2866   -2.4419 H   0  0  0  0  0  0  0  0  0  0  0  0
    1.0131    1.8275   -2.8132 H   0  0  0  0  0  0  0  0  0  0  0  0
    0.1210    2.9185    0.6763 H   0  0  0  0  0  0  0  0  0  0  0  0
   -1.4969    1.9371   -0.8628 H   0  0  0  0  0  0  0  0  0  0  0  0
   -0.6300    0.6609    1.7166 H   0  0  0  0  0  0  0  0  0  0  0  0
   -2.1938    1.2978    1.2722 H   0  0  0  0  0  0  0  0  0  0  0  0
   -3.4861    0.8933   -0.5609 H   0  0  0  0  0  0  0  0  0  0  0  0
   -4.7282   -0.7518   -1.9784 H   0  0  0  0  0  0  0  0  0  0  0  0
   -6.2498   -0.1062   -1.3546 H   0  0  0  0  0  0  0  0  0  0  0  0
   -5.1641    0.9404   -2.2739 H   0  0  0  0  0  0  0  0  0  0  0  0
   -4.6356    2.0597    1.3110 H   0  0  0  0  0  0  0  0  0  0  0  0
   -5.1473    2.6189   -0.2905 H   0  0  0  0  0  0  0  0  0  0  0  0
   -6.1989    1.5522    0.6496 H   0  0  0  0  0  0  0  0  0  0  0  0
  1  2  1  0
  2  3  1  0
  3  4  1  0
  4  5  2  0
  4  6  1  0
  6  7  1  0
  7  8  1  0
  8  9  1  0
  9 10  1  0
 10 11  1  0
 11 12  2  0
 11 13  1  0
 13 14  1  0
 14 15  1  0
 15 16  2  0
 16 17  1  0
 17 18  2  0
 18 19  1  0
 19 20  2  0
 10 21  1  0
 21 22  1  0
 22 23  2  0
 22 24  1  0
 24 25  1  0
 25 26  1  0
  3 27  1  0
 27 28  1  0
 27 29  1  0
 26  6  1  0
 25  8  1  0
 20 15  1  0
  1 30  1  0
  1 31  1  0
  1 32  1  0
  2 33  1  0
  2 34  1  0
  6 35  1  1
  7 36  1  0
  7 37  1  0
  8 38  1  6
  9 39  1  0
  9 40  1  0
 13 41  1  0
 14 42  1  0
 14 43  1  0
 16 44  1  0
 17 45  1  0
 18 46  1  0
 19 47  1  0
 20 48  1  0
 21 49  1  0
 21 50  1  0
 24 51  1  0
 25 52  1  6
 26 53  1  0
 26 54  1  0
 27 55  1  0
 28 56  1  0
 28 57  1  0
 28 58  1  0
 29 59  1  0
 29 60  1  0
 29 61  1  0
M  END
$$$$
