
     RDKit          3D

 47 50  0  0  0  0  0  0  0  0999 V2000
    7.2072    3.0865   -0.1385 C   0  0  0  0  0  0  0  0  0  0  0  0
    5.8488    2.6835   -0.2584 O   0  0  0  0  0  0  0  0  0  0  0  0
    5.5538    1.3940    0.0918 C   0  0  0  0  0  0  0  0  0  0  0  0
    6.4615    0.4415    0.5492 C   0  0  0  0  0  0  0  0  0  0  0  0
    6.0178   -0.8425    0.8704 C   0  0  0  0  0  0  0  0  0  0  0  0
    4.6682   -1.1816    0.7373 C   0  0  0  0  0  0  0  0  0  0  0  0
    3.7476   -0.2391    0.2822 C   0  0  0  0  0  0  0  0  0  0  0  0
    2.3688   -0.4889    0.1136 N   0  0  0  0  0  0  0  0  0  0  0  0
    1.6682   -1.6513    0.3826 C   0  0  0  0  0  0  0  0  0  0  0  0
    2.1777   -2.6651    0.8508 O   0  0  0  0  0  0  0  0  0  0  0  0
    0.1904   -1.5814    0.0656 C   0  0  0  0  0  0  0  0  0  0  0  0
   -0.6011   -2.6782    0.1881 C   0  0  0  0  0  0  0  0  0  0  0  0
   -0.1285   -3.9129    0.5775 O   0  0  0  0  0  0  0  0  0  0  0  0
   -1.9944   -2.6116   -0.0956 C   0  0  0  0  0  0  0  0  0  0  0  0
   -3.0698   -3.5105   -0.0908 C   0  0  0  0  0  0  0  0  0  0  0  0
   -4.2187   -2.9240   -0.4529 N   0  0  0  0  0  0  0  0  0  0  0  0
   -3.8681   -1.6344   -0.6992 N   0  0  0  0  0  0  0  0  0  0  0  0
   -4.8711   -0.7038   -1.2047 C   0  0  0  0  0  0  0  0  0  0  0  0
   -5.0055    0.5322   -0.3489 C   0  0  0  0  0  0  0  0  0  0  0  0
   -5.3153    0.4312    1.0164 C   0  0  0  0  0  0  0  0  0  0  0  0
   -5.4359    1.5780    1.8019 C   0  0  0  0  0  0  0  0  0  0  0  0
   -5.2592    2.8366    1.2313 C   0  0  0  0  0  0  0  0  0  0  0  0
   -4.9683    2.9514   -0.1264 C   0  0  0  0  0  0  0  0  0  0  0  0
   -4.8469    1.8064   -0.9152 C   0  0  0  0  0  0  0  0  0  0  0  0
   -2.5323   -1.4207   -0.4965 C   0  0  0  0  0  0  0  0  0  0  0  0
   -1.8138   -0.2663   -0.6469 N   0  0  0  0  0  0  0  0  0  0  0  0
   -0.4607   -0.2847   -0.3852 C   0  0  0  0  0  0  0  0  0  0  0  0
    0.1952    0.7487   -0.5270 O   0  0  0  0  0  0  0  0  0  0  0  0
    4.2041    1.0468   -0.0388 C   0  0  0  0  0  0  0  0  0  0  0  0
    7.8530    2.4995   -0.7999 H   0  0  0  0  0  0  0  0  0  0  0  0
    7.2742    4.1329   -0.4513 H   0  0  0  0  0  0  0  0  0  0  0  0
    7.5464    3.0276    0.9011 H   0  0  0  0  0  0  0  0  0  0  0  0
    7.5167    0.6616    0.6670 H   0  0  0  0  0  0  0  0  0  0  0  0
    6.7242   -1.5883    1.2268 H   0  0  0  0  0  0  0  0  0  0  0  0
    4.3720   -2.1928    0.9968 H   0  0  0  0  0  0  0  0  0  0  0  0
    1.8260    0.3036   -0.2314 H   0  0  0  0  0  0  0  0  0  0  0  0
   -0.8593   -4.4898    0.8455 H   0  0  0  0  0  0  0  0  0  0  0  0
   -3.0873   -4.5646    0.1529 H   0  0  0  0  0  0  0  0  0  0  0  0
   -4.5678   -0.4562   -2.2285 H   0  0  0  0  0  0  0  0  0  0  0  0
   -5.8344   -1.2243   -1.2544 H   0  0  0  0  0  0  0  0  0  0  0  0
   -5.4617   -0.5441    1.4791 H   0  0  0  0  0  0  0  0  0  0  0  0
   -5.6699    1.4893    2.8600 H   0  0  0  0  0  0  0  0  0  0  0  0
   -5.3545    3.7292    1.8448 H   0  0  0  0  0  0  0  0  0  0  0  0
   -4.8406    3.9356   -0.5708 H   0  0  0  0  0  0  0  0  0  0  0  0
   -4.6297    1.9216   -1.9754 H   0  0  0  0  0  0  0  0  0  0  0  0
   -2.2358    0.6164   -0.9080 H   0  0  0  0  0  0  0  0  0  0  0  0
    3.5088    1.8028   -0.3967 H   0  0  0  0  0  0  0  0  0  0  0  0
  1  2  1  0
  2  3  1  0
  3  4  2  0
  4  5  1  0
  5  6  2  0
  6  7  1  0
  7  8  1  0
  8  9  1  0
  9 10  2  0
  9 11  1  0
 11 12  2  0
 12 13  1  0
 12 14  1  0
 14 15  1  0
 15 16  2  0
 16 17  1  0
 17 18  1  0
 18 19  1  0
 19 20  2  0
 20 21  1  0
 21 22  2  0
 22 23  1  0
 23 24  2  0
 17 25  1  0
 25 26  1  0
 26 27  1  0
 27 28  2  0
  7 29  2  0
 29  3  1  0
 27 11  1  0
 25 14  2  0
 24 19  1  0
  1 30  1  0
  1 31  1  0
  1 32  1  0
  4 33  1  0
  5 34  1  0
  6 35  1  0
  8 36  1  0
 13 37  1  0
 15 38  1  0
 18 39  1  0
 18 40  1  0
 20 41  1  0
 21 42  1  0
 22 43  1  0
 23 44  1  0
 24 45  1  0
 26 46  1  0
 29 47  1  0
M  END
$$$$
