
     RDKit          3D

 37 39  0  0  0  0  0  0  0  0999 V2000
   -0.2414   -1.6415    1.5305 O   0  0  0  0  0  0  0  0  0  0  0  0
   -0.0076   -1.5565    0.3296 C   0  0  0  0  0  0  0  0  0  0  0  0
    1.3381   -1.9665   -0.2197 C   0  0  0  0  0  0  0  0  0  0  0  0
    2.0962   -0.7938   -0.7984 C   0  0  0  0  0  0  0  0  0  0  0  0
    1.9920   -0.6129   -2.0830 N   0  0  0  0  0  0  0  0  0  0  0  0
    2.6653    0.4301   -2.6381 N   0  0  0  0  0  0  0  0  0  0  0  0
    3.4699    1.3240   -1.9728 C   0  0  0  0  0  0  0  0  0  0  0  0
    4.0690    2.2223   -2.5528 O   0  0  0  0  0  0  0  0  0  0  0  0
    3.5663    1.1493   -0.5146 C   0  0  0  0  0  0  0  0  0  0  0  0
    4.3306    2.0371    0.2519 C   0  0  0  0  0  0  0  0  0  0  0  0
    4.3958    1.8768    1.6350 C   0  0  0  0  0  0  0  0  0  0  0  0
    3.6966    0.8373    2.2477 C   0  0  0  0  0  0  0  0  0  0  0  0
    2.9353   -0.0508    1.4810 C   0  0  0  0  0  0  0  0  0  0  0  0
    2.8762    0.1007    0.0906 C   0  0  0  0  0  0  0  0  0  0  0  0
   -0.8677   -1.1028   -0.6547 N   0  0  0  0  0  0  0  0  0  0  0  0
   -2.1943   -0.6570   -0.5008 C   0  0  0  0  0  0  0  0  0  0  0  0
   -2.8420   -0.1814   -1.6442 C   0  0  0  0  0  0  0  0  0  0  0  0
   -4.1594    0.2764   -1.5745 C   0  0  0  0  0  0  0  0  0  0  0  0
   -4.8473    0.2617   -0.3593 C   0  0  0  0  0  0  0  0  0  0  0  0
   -6.4733    0.8395   -0.3584 Cl  0  0  0  0  0  0  0  0  0  0  0  0
   -4.2218   -0.2095    0.7993 C   0  0  0  0  0  0  0  0  0  0  0  0
   -4.9388   -0.2372    2.1223 C   0  0  0  0  0  0  0  0  0  0  0  0
   -4.1660   -0.7010    3.1468 F   0  0  0  0  0  0  0  0  0  0  0  0
   -5.3624    0.9932    2.5243 F   0  0  0  0  0  0  0  0  0  0  0  0
   -6.0401   -1.0390    2.1130 F   0  0  0  0  0  0  0  0  0  0  0  0
   -2.8892   -0.6686    0.7116 C   0  0  0  0  0  0  0  0  0  0  0  0
    1.9235   -2.4610    0.5611 H   0  0  0  0  0  0  0  0  0  0  0  0
    1.1802   -2.7210   -1.0006 H   0  0  0  0  0  0  0  0  0  0  0  0
    2.5997    0.5361   -3.6466 H   0  0  0  0  0  0  0  0  0  0  0  0
    4.8684    2.8540   -0.2256 H   0  0  0  0  0  0  0  0  0  0  0  0
    4.9845    2.5670    2.2350 H   0  0  0  0  0  0  0  0  0  0  0  0
    3.7394    0.7202    3.3290 H   0  0  0  0  0  0  0  0  0  0  0  0
    2.3950   -0.8371    2.0018 H   0  0  0  0  0  0  0  0  0  0  0  0
   -0.4776   -1.0369   -1.5921 H   0  0  0  0  0  0  0  0  0  0  0  0
   -2.3335   -0.1571   -2.6055 H   0  0  0  0  0  0  0  0  0  0  0  0
   -4.6445    0.6437   -2.4763 H   0  0  0  0  0  0  0  0  0  0  0  0
   -2.4149   -1.0378    1.6184 H   0  0  0  0  0  0  0  0  0  0  0  0
  1  2  2  0
  2  3  1  0
  3  4  1  0
  4  5  2  0
  5  6  1  0
  6  7  1  0
  7  8  2  0
  7  9  1  0
  9 10  2  0
 10 11  1  0
 11 12  2  0
 12 13  1  0
 13 14  2  0
  2 15  1  0
 15 16  1  0
 16 17  2  0
 17 18  1  0
 18 19  2  0
 19 20  1  0
 19 21  1  0
 21 22  1  0
 22 23  1  0
 22 24  1  0
 22 25  1  0
 21 26  2  0
 14  4  1  0
 26 16  1  0
 14  9  1  0
  3 27  1  0
  3 28  1  0
  6 29  1  0
 10 30  1  0
 11 31  1  0
 12 32  1  0
 13 33  1  0
 15 34  1  0
 17 35  1  0
 18 36  1  0
 26 37  1  0
M  END
$$$$
