
     RDKit          3D

 71 73  0  0  0  0  0  0  0  0999 V2000
    0.6911    0.0000    0.0000 Cl  0  0  0  0  0  0  0  0  0  0  0  0
    0.6915    0.0000    0.0000 Cl  0  0  0  0  0  0  0  0  0  0  0  0
    2.9532    1.3838   -2.0655 O   0  0  0  0  0  0  0  0  0  0  0  0
    2.8342    0.3603   -1.2902 C   0  0  0  0  0  0  0  0  0  0  0  0
    1.7205    0.4328   -0.4152 N   0  0  0  0  0  0  0  0  0  0  0  0
    0.8376    1.6049   -0.4431 C   0  0  0  0  0  0  0  0  0  0  0  0
   -0.2850    1.5016    0.5397 C   0  0  0  0  0  0  0  0  0  0  0  0
   -1.1410    0.2969    0.2506 C   0  0  0  0  0  0  0  0  0  0  0  0
   -2.2383    0.1750    1.1724 N   0  0  0  0  0  0  0  0  0  0  0  0
   -3.2365    1.1877    1.0523 C   0  0  0  0  0  0  0  0  0  0  0  0
   -4.0329    0.9708   -0.2118 C   0  0  0  0  0  0  0  0  0  0  0  0
   -4.8948   -0.2434   -0.0265 C   0  0  0  0  0  0  0  0  0  0  0  0
   -4.3673   -1.0527    1.1194 C   0  0  0  0  0  0  0  0  0  0  0  0
   -2.8568   -1.1231    1.0905 C   0  0  0  0  0  0  0  0  0  0  0  0
   -4.9900   -0.9976   -1.2000 O   0  0  0  0  0  0  0  0  0  0  0  0
   -6.1712   -1.7242   -1.0646 C   0  0  0  0  0  0  0  0  0  0  0  0
   -7.0959   -0.7207   -0.4395 C   0  0  0  0  0  0  0  0  0  0  0  0
   -8.4520   -0.5575   -0.3912 C   0  0  0  0  0  0  0  0  0  0  0  0
   -8.9861    0.5144    0.2946 C   0  0  0  0  0  0  0  0  0  0  0  0
   -8.2099    1.4460    0.9456 C   0  0  0  0  0  0  0  0  0  0  0  0
   -6.8414    1.2746    0.8925 C   0  0  0  0  0  0  0  0  0  0  0  0
   -6.2997    0.2003    0.2053 C   0  0  0  0  0  0  0  0  0  0  0  0
    3.7891   -0.7346   -1.3637 C   0  0  1  0  0  0  0  0  0  0  0  0
    5.1028   -0.4267   -2.0164 C   0  0  0  0  0  0  0  0  0  0  0  0
    5.8563   -1.7350   -1.7194 C   0  0  0  0  0  0  0  0  0  0  0  0
    5.0224   -2.4607   -0.7176 C   0  0  0  0  0  0  0  0  0  0  0  0
    4.0038   -1.5410   -0.2207 N   0  0  0  0  0  0  0  0  0  0  0  0
    4.3271   -0.9412    1.0083 C   0  0  0  0  0  0  0  0  0  0  0  0
    5.5010   -0.0635    1.0812 C   0  0  0  0  0  0  0  0  0  0  0  0
    6.7671   -0.5708    1.2519 C   0  0  0  0  0  0  0  0  0  0  0  0
    7.8143    0.3259    1.3272 C   0  0  0  0  0  0  0  0  0  0  0  0
    7.6340    1.6853    1.2386 C   0  0  0  0  0  0  0  0  0  0  0  0
    6.3467    2.1611    1.0672 C   0  0  0  0  0  0  0  0  0  0  0  0
    5.2874    1.2973    0.9888 C   0  0  0  0  0  0  0  0  0  0  0  0
   -0.6911    0.0000    0.0000 H   0  0  0  0  0  0  0  0  0  0  0  0
   -0.6915    0.0000    0.0000 H   0  0  0  0  0  0  0  0  0  0  0  0
    1.5076   -0.3446    0.2402 H   0  0  0  0  0  0  0  0  0  0  0  0
    1.4347    2.5267   -0.2743 H   0  0  0  0  0  0  0  0  0  0  0  0
    0.4545    1.6789   -1.4831 H   0  0  0  0  0  0  0  0  0  0  0  0
    0.1823    1.3167    1.5459 H   0  0  0  0  0  0  0  0  0  0  0  0
   -0.8435    2.4412    0.5149 H   0  0  0  0  0  0  0  0  0  0  0  0
   -0.4926   -0.6171    0.3563 H   0  0  0  0  0  0  0  0  0  0  0  0
   -1.4245    0.3295   -0.8076 H   0  0  0  0  0  0  0  0  0  0  0  0
   -2.8261    2.2203    1.1112 H   0  0  0  0  0  0  0  0  0  0  0  0
   -3.9210    1.1034    1.9269 H   0  0  0  0  0  0  0  0  0  0  0  0
   -4.6988    1.8640   -0.4078 H   0  0  0  0  0  0  0  0  0  0  0  0
   -3.3645    0.8153   -1.0975 H   0  0  0  0  0  0  0  0  0  0  0  0
   -4.7248   -0.7405    2.1131 H   0  0  0  0  0  0  0  0  0  0  0  0
   -4.7035   -2.1220    0.9481 H   0  0  0  0  0  0  0  0  0  0  0  0
   -2.5077   -1.7200    1.9706 H   0  0  0  0  0  0  0  0  0  0  0  0
   -2.5294   -1.6981    0.1872 H   0  0  0  0  0  0  0  0  0  0  0  0
   -6.0699   -2.6373   -0.4713 H   0  0  0  0  0  0  0  0  0  0  0  0
   -6.6229   -1.9577   -2.0617 H   0  0  0  0  0  0  0  0  0  0  0  0
   -9.0812   -1.2901   -0.9039 H   0  0  0  0  0  0  0  0  0  0  0  0
  -10.0616    0.6612    0.3440 H   0  0  0  0  0  0  0  0  0  0  0  0
   -8.6371    2.2921    1.4867 H   0  0  0  0  0  0  0  0  0  0  0  0
   -6.2220    2.0085    1.4058 H   0  0  0  0  0  0  0  0  0  0  0  0
    3.2875   -1.4751   -2.1212 H   0  0  0  0  0  0  0  0  0  0  0  0
    4.9939   -0.3226   -3.1375 H   0  0  0  0  0  0  0  0  0  0  0  0
    5.6222    0.4601   -1.6923 H   0  0  0  0  0  0  0  0  0  0  0  0
    5.9154   -2.3136   -2.6908 H   0  0  0  0  0  0  0  0  0  0  0  0
    6.9015   -1.5641   -1.4396 H   0  0  0  0  0  0  0  0  0  0  0  0
    5.5435   -3.0223    0.0480 H   0  0  0  0  0  0  0  0  0  0  0  0
    4.4270   -3.2368   -1.2895 H   0  0  0  0  0  0  0  0  0  0  0  0
    3.4310   -0.4576    1.4548 H   0  0  0  0  0  0  0  0  0  0  0  0
    4.5369   -1.7824    1.7625 H   0  0  0  0  0  0  0  0  0  0  0  0
    6.9754   -1.6388    1.3323 H   0  0  0  0  0  0  0  0  0  0  0  0
    8.8276   -0.0453    1.4619 H   0  0  0  0  0  0  0  0  0  0  0  0
    8.4692    2.3717    1.2998 H   0  0  0  0  0  0  0  0  0  0  0  0
    6.2153    3.2366    0.9980 H   0  0  0  0  0  0  0  0  0  0  0  0
    4.3070    1.7336    0.8544 H   0  0  0  0  0  0  0  0  0  0  0  0
  3  4  2  0
  4  5  1  0
  5  6  1  0
  6  7  1  0
  7  8  1  0
  8  9  1  0
  9 10  1  0
 10 11  1  0
 11 12  1  0
 12 13  1  0
 13 14  1  0
 12 15  1  0
 15 16  1  0
 16 17  1  0
 17 18  2  0
 18 19  1  0
 19 20  2  0
 20 21  1  0
 21 22  2  0
  4 23  1  0
 23 24  1  0
 24 25  1  0
 25 26  1  0
 26 27  1  0
 27 28  1  0
 28 29  1  0
 29 30  2  0
 30 31  1  0
 31 32  2  0
 32 33  1  0
 33 34  2  0
 14  9  1  0
 22 17  1  0
 27 23  1  0
 34 29  1  0
 22 12  1  0
  1 35  1  0
  2 36  1  0
  5 37  1  0
  6 38  1  0
  6 39  1  0
  7 40  1  0
  7 41  1  0
  8 42  1  0
  8 43  1  0
 10 44  1  0
 10 45  1  0
 11 46  1  0
 11 47  1  0
 13 48  1  0
 13 49  1  0
 14 50  1  0
 14 51  1  0
 16 52  1  0
 16 53  1  0
 18 54  1  0
 19 55  1  0
 20 56  1  0
 21 57  1  0
 23 58  1  6
 24 59  1  0
 24 60  1  0
 25 61  1  0
 25 62  1  0
 26 63  1  0
 26 64  1  0
 28 65  1  0
 28 66  1  0
 30 67  1  0
 31 68  1  0
 32 69  1  0
 33 70  1  0
 34 71  1  0
M  END
$$$$
