
     RDKit          3D

 51 54  0  0  0  0  0  0  0  0999 V2000
   -5.1997   -2.8552   -0.6819 C   0  0  0  0  0  0  0  0  0  0  0  0
   -5.2107   -1.3295   -0.5683 C   0  0  0  0  0  0  0  0  0  0  0  0
   -5.9734   -0.7077   -1.7447 C   0  0  0  0  0  0  0  0  0  0  0  0
   -5.8091   -0.8691    0.7903 C   0  0  0  0  0  0  0  0  0  0  0  0
   -5.0277    0.2833    1.2998 N   0  0  0  0  0  0  0  0  0  0  0  0
   -3.7930    0.1515    0.6078 C   0  0  0  0  0  0  0  0  0  0  0  0
   -2.6564    0.8980    0.8708 C   0  0  0  0  0  0  0  0  0  0  0  0
   -1.5163    0.7125    0.0748 C   0  0  0  0  0  0  0  0  0  0  0  0
   -0.3794    1.4843    0.3982 N   0  0  0  0  0  0  0  0  0  0  0  0
    0.8643    1.4448   -0.2057 C   0  0  0  0  0  0  0  0  0  0  0  0
    1.2270    0.7169   -1.1230 O   0  0  0  0  0  0  0  0  0  0  0  0
    1.8452    2.4099    0.3451 C   0  0  0  0  0  0  0  0  0  0  0  0
    1.4795    3.7518    0.5168 C   0  0  0  0  0  0  0  0  0  0  0  0
    2.4188    4.6541    0.9971 C   0  0  0  0  0  0  0  0  0  0  0  0
    3.6857    4.1792    1.2801 C   0  0  0  0  0  0  0  0  0  0  0  0
    4.0639    2.8914    1.1140 N   0  0  0  0  0  0  0  0  0  0  0  0
    3.1577    2.0053    0.6324 C   0  0  0  0  0  0  0  0  0  0  0  0
    3.5232    0.6514    0.5353 N   0  0  0  0  0  0  0  0  0  0  0  0
    4.9527    0.3969    0.6099 C   0  0  0  0  0  0  0  0  0  0  0  0
    5.1997   -1.0778    0.4020 C   0  0  0  0  0  0  0  0  0  0  0  0
    4.8203   -2.0055    1.3775 C   0  0  0  0  0  0  0  0  0  0  0  0
    5.0583   -3.3505    1.1456 C   0  0  0  0  0  0  0  0  0  0  0  0
    5.6406   -3.8286    0.0250 N   0  0  0  0  0  0  0  0  0  0  0  0
    5.9879   -2.9187   -0.9099 C   0  0  0  0  0  0  0  0  0  0  0  0
    5.7905   -1.5531   -0.7720 C   0  0  0  0  0  0  0  0  0  0  0  0
   -1.5611   -0.2038   -0.9884 C   0  0  0  0  0  0  0  0  0  0  0  0
   -2.7248   -0.9320   -1.2651 C   0  0  0  0  0  0  0  0  0  0  0  0
   -3.8351   -0.7399   -0.4598 C   0  0  0  0  0  0  0  0  0  0  0  0
   -4.7521   -3.1829   -1.6271 H   0  0  0  0  0  0  0  0  0  0  0  0
   -6.2177   -3.2577   -0.6373 H   0  0  0  0  0  0  0  0  0  0  0  0
   -4.6213   -3.3154    0.1278 H   0  0  0  0  0  0  0  0  0  0  0  0
   -7.0060   -1.0727   -1.7783 H   0  0  0  0  0  0  0  0  0  0  0  0
   -5.4998   -0.9560   -2.7016 H   0  0  0  0  0  0  0  0  0  0  0  0
   -6.0093    0.3858   -1.6731 H   0  0  0  0  0  0  0  0  0  0  0  0
   -6.8690   -0.6015    0.7090 H   0  0  0  0  0  0  0  0  0  0  0  0
   -5.7394   -1.6686    1.5400 H   0  0  0  0  0  0  0  0  0  0  0  0
   -5.4494    1.1672    1.0151 H   0  0  0  0  0  0  0  0  0  0  0  0
   -2.6644    1.5983    1.6987 H   0  0  0  0  0  0  0  0  0  0  0  0
   -0.4762    2.0807    1.2106 H   0  0  0  0  0  0  0  0  0  0  0  0
    0.4841    4.0985    0.2539 H   0  0  0  0  0  0  0  0  0  0  0  0
    2.1746    5.7012    1.1385 H   0  0  0  0  0  0  0  0  0  0  0  0
    4.4601    4.8404    1.6597 H   0  0  0  0  0  0  0  0  0  0  0  0
    3.1065    0.2557   -0.3131 H   0  0  0  0  0  0  0  0  0  0  0  0
    5.3576    0.6797    1.5901 H   0  0  0  0  0  0  0  0  0  0  0  0
    5.4926    0.9716   -0.1537 H   0  0  0  0  0  0  0  0  0  0  0  0
    4.3382   -1.6838    2.2953 H   0  0  0  0  0  0  0  0  0  0  0  0
    4.7753   -4.1015    1.8774 H   0  0  0  0  0  0  0  0  0  0  0  0
    6.4442   -3.3290   -1.8062 H   0  0  0  0  0  0  0  0  0  0  0  0
    6.0904   -0.8799   -1.5680 H   0  0  0  0  0  0  0  0  0  0  0  0
   -0.7008   -0.3686   -1.6299 H   0  0  0  0  0  0  0  0  0  0  0  0
   -2.7470   -1.6215   -2.1030 H   0  0  0  0  0  0  0  0  0  0  0  0
  1  2  1  0
  2  3  1  0
  2  4  1  0
  4  5  1  0
  5  6  1  0
  6  7  2  0
  7  8  1  0
  8  9  1  0
  9 10  1  0
 10 11  2  0
 10 12  1  0
 12 13  2  0
 13 14  1  0
 14 15  2  0
 15 16  1  0
 16 17  2  0
 17 18  1  0
 18 19  1  0
 19 20  1  0
 20 21  2  0
 21 22  1  0
 22 23  2  0
 23 24  1  0
 24 25  2  0
  8 26  2  0
 26 27  1  0
 27 28  2  0
 28  2  1  0
 28  6  1  0
 17 12  1  0
 25 20  1  0
  1 29  1  0
  1 30  1  0
  1 31  1  0
  3 32  1  0
  3 33  1  0
  3 34  1  0
  4 35  1  0
  4 36  1  0
  5 37  1  0
  7 38  1  0
  9 39  1  0
 13 40  1  0
 14 41  1  0
 15 42  1  0
 18 43  1  0
 19 44  1  0
 19 45  1  0
 21 46  1  0
 22 47  1  0
 24 48  1  0
 25 49  1  0
 26 50  1  0
 27 51  1  0
M  END
$$$$
