
     RDKit          3D

 24 24  0  0  0  0  0  0  0  0999 V2000
   -2.0757   -0.7592   -1.2804 N   0  0  0  0  0  0  0  0  0  0  0  0
   -2.1517   -0.7473    0.2045 C   0  0  1  0  0  0  0  0  0  0  0  0
   -0.9027   -1.3576    0.8672 C   0  0  0  0  0  0  0  0  0  0  0  0
    0.4065   -0.6593    0.5628 C   0  0  0  0  0  0  0  0  0  0  0  0
    0.8781    0.3674    1.3917 C   0  0  0  0  0  0  0  0  0  0  0  0
    2.0811    1.0174    1.1051 C   0  0  0  0  0  0  0  0  0  0  0  0
    2.8244    0.6448   -0.0146 C   0  0  0  0  0  0  0  0  0  0  0  0
    3.9989    1.2894   -0.2868 O   0  0  0  0  0  0  0  0  0  0  0  0
    2.3689   -0.3787   -0.8484 C   0  0  0  0  0  0  0  0  0  0  0  0
    3.4355   -0.9826   -2.5422 I   0  0  0  0  0  0  0  0  0  0  0  0
    1.1650   -1.0296   -0.5584 C   0  0  0  0  0  0  0  0  0  0  0  0
   -2.4424    0.6595    0.7446 C   0  0  0  0  0  0  0  0  0  0  0  0
   -2.3662    1.0224    1.9081 O   0  0  0  0  0  0  0  0  0  0  0  0
   -2.8659    1.5253   -0.2051 O   0  0  0  0  0  0  0  0  0  0  0  0
   -1.2822   -0.1778   -1.5594 H   0  0  0  0  0  0  0  0  0  0  0  0
   -2.8863   -0.2362   -1.6249 H   0  0  0  0  0  0  0  0  0  0  0  0
   -3.0218   -1.3562    0.4785 H   0  0  0  0  0  0  0  0  0  0  0  0
   -1.0400   -1.3804    1.9567 H   0  0  0  0  0  0  0  0  0  0  0  0
   -0.8138   -2.4111    0.5688 H   0  0  0  0  0  0  0  0  0  0  0  0
    0.3123    0.6679    2.2726 H   0  0  0  0  0  0  0  0  0  0  0  0
    2.4197    1.8090    1.7669 H   0  0  0  0  0  0  0  0  0  0  0  0
    4.1740    1.9433    0.4087 H   0  0  0  0  0  0  0  0  0  0  0  0
    0.8060   -1.8290   -1.2047 H   0  0  0  0  0  0  0  0  0  0  0  0
   -3.0215    2.3588    0.2871 H   0  0  0  0  0  0  0  0  0  0  0  0
  1  2  1  0
  2  3  1  0
  3  4  1  0
  4  5  2  0
  5  6  1  0
  6  7  2  0
  7  8  1  0
  7  9  1  0
  9 10  1  0
  9 11  2  0
  2 12  1  0
 12 13  2  0
 12 14  1  0
 11  4  1  0
  1 15  1  0
  1 16  1  0
  2 17  1  6
  3 18  1  0
  3 19  1  0
  5 20  1  0
  6 21  1  0
  8 22  1  0
 11 23  1  0
 14 24  1  0
M  END
$$$$
