
     RDKit          3D

 40 39  0  0  0  0  0  0  0  0999 V2000
   -2.2659   -0.2963    0.8497 C   0  0  0  0  0  0  0  0  0  0  0  0
   -1.4114    0.2883   -0.2804 C   0  0  0  0  0  0  0  0  0  0  0  0
   -0.3470   -0.6679   -0.5914 N   0  0  0  0  0  0  0  0  0  0  0  0
    0.8416   -0.6963    0.0772 C   0  0  0  0  0  0  0  0  0  0  0  0
    1.1606    0.2049    0.9519 N   0  0  0  0  0  0  0  0  0  0  0  0
    2.2962    0.1148    1.7654 C   0  0  0  0  0  0  0  0  0  0  0  0
    2.3717   -0.8196    2.7958 C   0  0  0  0  0  0  0  0  0  0  0  0
    3.4989   -0.8245    3.5987 C   0  0  0  0  0  0  0  0  0  0  0  0
    4.5297    0.0339    3.4505 N   0  0  0  0  0  0  0  0  0  0  0  0
    4.4234    0.9400    2.4546 C   0  0  0  0  0  0  0  0  0  0  0  0
    3.3346    1.0264    1.6047 C   0  0  0  0  0  0  0  0  0  0  0  0
    1.5945   -1.8266   -0.2957 N   0  0  0  0  0  0  0  0  0  0  0  0
    2.8667   -1.5418   -0.5982 C   0  0  0  0  0  0  0  0  0  0  0  0
    3.9599   -1.3509   -0.9279 N   0  0  0  0  0  0  0  0  0  0  0  0
   -2.2100    0.6560   -1.5789 C   0  0  0  0  0  0  0  0  0  0  0  0
   -3.2535    1.7499   -1.2659 C   0  0  0  0  0  0  0  0  0  0  0  0
   -2.9486   -0.5494   -2.1918 C   0  0  0  0  0  0  0  0  0  0  0  0
   -1.2424    1.2280   -2.6392 C   0  0  0  0  0  0  0  0  0  0  0  0
   -0.0108    0.3977    0.0000 O   0  0  0  0  0  0  0  0  0  0  0  0
   -3.0594    0.3909    1.1554 H   0  0  0  0  0  0  0  0  0  0  0  0
   -1.6505   -0.4915    1.7356 H   0  0  0  0  0  0  0  0  0  0  0  0
   -2.7218   -1.2499    0.5647 H   0  0  0  0  0  0  0  0  0  0  0  0
   -0.9647    1.2202    0.0913 H   0  0  0  0  0  0  0  0  0  0  0  0
   -0.6707   -1.5376   -0.9851 H   0  0  0  0  0  0  0  0  0  0  0  0
    1.5674   -1.5235    2.9698 H   0  0  0  0  0  0  0  0  0  0  0  0
    3.6041   -1.5380    4.4105 H   0  0  0  0  0  0  0  0  0  0  0  0
    5.2637    1.6207    2.3552 H   0  0  0  0  0  0  0  0  0  0  0  0
    3.2969    1.7797    0.8272 H   0  0  0  0  0  0  0  0  0  0  0  0
    1.1300   -2.4860   -0.9136 H   0  0  0  0  0  0  0  0  0  0  0  0
   -4.0428    1.3820   -0.6025 H   0  0  0  0  0  0  0  0  0  0  0  0
   -2.7857    2.6177   -0.7878 H   0  0  0  0  0  0  0  0  0  0  0  0
   -3.7438    2.1016   -2.1813 H   0  0  0  0  0  0  0  0  0  0  0  0
   -3.4870   -0.2553   -3.1007 H   0  0  0  0  0  0  0  0  0  0  0  0
   -2.2585   -1.3512   -2.4729 H   0  0  0  0  0  0  0  0  0  0  0  0
   -3.6889   -0.9654   -1.5011 H   0  0  0  0  0  0  0  0  0  0  0  0
   -1.7857    1.5685   -3.5284 H   0  0  0  0  0  0  0  0  0  0  0  0
   -0.5160    0.4787   -2.9723 H   0  0  0  0  0  0  0  0  0  0  0  0
   -0.6854    2.0846   -2.2432 H   0  0  0  0  0  0  0  0  0  0  0  0
   -0.7578   -0.2195    0.0000 H   0  0  0  0  0  0  0  0  0  0  0  0
    0.7686   -0.1781    0.0000 H   0  0  0  0  0  0  0  0  0  0  0  0
  1  2  1  0
  2  3  1  0
  3  4  1  0
  4  5  2  0
  5  6  1  0
  6  7  2  0
  7  8  1  0
  8  9  2  0
  9 10  1  0
 10 11  2  0
  4 12  1  0
 12 13  1  0
 13 14  3  0
  2 15  1  0
 15 16  1  0
 15 17  1  0
 15 18  1  0
 11  6  1  0
  1 20  1  0
  1 21  1  0
  1 22  1  0
  2 23  1  0
  3 24  1  0
  7 25  1  0
  8 26  1  0
 10 27  1  0
 11 28  1  0
 12 29  1  0
 16 30  1  0
 16 31  1  0
 16 32  1  0
 17 33  1  0
 17 34  1  0
 17 35  1  0
 18 36  1  0
 18 37  1  0
 18 38  1  0
 19 39  1  0
 19 40  1  0
M  END
$$$$
