
     RDKit          3D

 43 45  0  0  0  0  0  0  0  0999 V2000
   -4.7783   -0.6687   -0.9770 C   0  0  0  0  0  0  0  0  0  0  0  0
   -3.4151   -0.4504   -0.6355 N   0  0  0  0  0  0  0  0  0  0  0  0
   -2.8424    0.7112   -1.2664 C   0  0  1  0  0  0  0  0  0  0  0  0
   -3.0811    1.8748   -0.3414 C   0  0  0  0  0  0  0  0  0  0  0  0
   -3.6954    1.2316    0.9037 C   0  0  0  0  0  0  0  0  0  0  0  0
   -3.1807   -0.1925    0.7626 C   0  0  2  0  0  0  0  0  0  0  0  0
   -1.6755   -0.1337    0.9671 C   0  0  0  0  0  0  0  0  0  0  0  0
   -0.9331   -0.4760   -0.3033 C   0  0  2  0  0  0  0  0  0  0  0  0
    0.4391   -0.3818   -0.0690 O   0  0  0  0  0  0  0  0  0  0  0  0
    1.2207   -1.5269   -0.1750 C   0  0  0  0  0  0  0  0  0  0  0  0
    0.6788   -2.6172   -0.4779 O   0  0  0  0  0  0  0  0  0  0  0  0
    2.6776   -1.4699    0.0652 C   0  0  0  0  0  0  0  0  0  0  0  0
    3.5335   -2.5437   -0.0148 C   0  0  0  0  0  0  0  0  0  0  0  0
    4.7772   -2.1072    0.2677 N   0  0  0  0  0  0  0  0  0  0  0  0
    4.7387   -0.7967    0.5233 C   0  0  0  0  0  0  0  0  0  0  0  0
    5.7274    0.1079    0.8592 C   0  0  0  0  0  0  0  0  0  0  0  0
    5.3591    1.4331    1.0659 C   0  0  0  0  0  0  0  0  0  0  0  0
    4.0525    1.8501    0.9440 C   0  0  0  0  0  0  0  0  0  0  0  0
    3.0949    0.9433    0.6126 C   0  0  0  0  0  0  0  0  0  0  0  0
    3.4252   -0.3815    0.3999 C   0  0  0  0  0  0  0  0  0  0  0  0
   -1.3531    0.4268   -1.4508 C   0  0  0  0  0  0  0  0  0  0  0  0
    0.6896    0.0000    0.0000 Cl  0  0  0  0  0  0  0  0  0  0  0  0
   -4.9784   -0.1290   -1.9382 H   0  0  0  0  0  0  0  0  0  0  0  0
   -5.5136   -0.2981   -0.2491 H   0  0  0  0  0  0  0  0  0  0  0  0
   -4.9188   -1.7606   -1.2086 H   0  0  0  0  0  0  0  0  0  0  0  0
   -3.3499    0.8661   -2.2225 H   0  0  0  0  0  0  0  0  0  0  0  0
   -3.8176    2.6003   -0.7426 H   0  0  0  0  0  0  0  0  0  0  0  0
   -2.1371    2.3870   -0.0634 H   0  0  0  0  0  0  0  0  0  0  0  0
   -4.8005    1.2773    0.8855 H   0  0  0  0  0  0  0  0  0  0  0  0
   -3.3038    1.6562    1.8315 H   0  0  0  0  0  0  0  0  0  0  0  0
   -3.6725   -0.8956    1.4421 H   0  0  0  0  0  0  0  0  0  0  0  0
   -1.3338    0.8575    1.2908 H   0  0  0  0  0  0  0  0  0  0  0  0
   -1.3694   -0.8709    1.7282 H   0  0  0  0  0  0  0  0  0  0  0  0
   -1.2359   -1.5298   -0.5613 H   0  0  0  0  0  0  0  0  0  0  0  0
    3.2961   -3.5765   -0.2583 H   0  0  0  0  0  0  0  0  0  0  0  0
    5.6215   -2.7005    0.2818 H   0  0  0  0  0  0  0  0  0  0  0  0
    6.7690   -0.1633    0.9686 H   0  0  0  0  0  0  0  0  0  0  0  0
    6.1056    2.1690    1.3301 H   0  0  0  0  0  0  0  0  0  0  0  0
    3.8275    2.8874    1.1158 H   0  0  0  0  0  0  0  0  0  0  0  0
    2.0700    1.2264    0.5082 H   0  0  0  0  0  0  0  0  0  0  0  0
   -1.2659   -0.1831   -2.3775 H   0  0  0  0  0  0  0  0  0  0  0  0
   -0.7624    1.3476   -1.5081 H   0  0  0  0  0  0  0  0  0  0  0  0
   -0.6896    0.0000    0.0000 H   0  0  0  0  0  0  0  0  0  0  0  0
  1  2  1  0
  2  3  1  0
  3  4  1  0
  4  5  1  0
  5  6  1  0
  6  7  1  0
  7  8  1  0
  8  9  1  0
  9 10  1  0
 10 11  2  0
 10 12  1  0
 12 13  2  0
 13 14  1  0
 14 15  1  0
 15 16  2  0
 16 17  1  0
 17 18  2  0
 18 19  1  0
 19 20  2  0
  8 21  1  0
  6  2  1  0
 20 12  1  0
 21  3  1  0
 20 15  1  0
  1 23  1  0
  1 24  1  0
  1 25  1  0
  3 26  1  6
  4 27  1  0
  4 28  1  0
  5 29  1  0
  5 30  1  0
  6 31  1  1
  7 32  1  0
  7 33  1  0
  8 34  1  6
 13 35  1  0
 14 36  1  0
 16 37  1  0
 17 38  1  0
 18 39  1  0
 19 40  1  0
 21 41  1  0
 21 42  1  0
 22 43  1  0
M  END
$$$$
