
     RDKit          3D

 30 31  0  0  0  0  0  0  0  0999 V2000
    2.4650   -2.4487   -0.5201 O   0  0  0  0  0  0  0  0  0  0  0  0
    3.1299   -1.4266   -0.5042 C   0  0  0  0  0  0  0  0  0  0  0  0
    4.3499   -1.3887   -1.0708 O   0  0  0  0  0  0  0  0  0  0  0  0
    2.7221   -0.1326    0.1067 C   0  0  0  0  0  0  0  0  0  0  0  0
    3.6561    0.9141    0.2125 C   0  0  0  0  0  0  0  0  0  0  0  0
    3.2975    2.1262    0.8002 C   0  0  0  0  0  0  0  0  0  0  0  0
    2.0097    2.2989    1.2937 C   0  0  0  0  0  0  0  0  0  0  0  0
    1.0759    1.2646    1.1904 C   0  0  0  0  0  0  0  0  0  0  0  0
    1.4025    0.0373    0.5887 C   0  0  0  0  0  0  0  0  0  0  0  0
    0.4333   -0.9860    0.4700 N   0  0  0  0  0  0  0  0  0  0  0  0
   -0.9513   -0.9416    0.2177 C   0  0  0  0  0  0  0  0  0  0  0  0
   -1.7152   -2.0832    0.4977 C   0  0  0  0  0  0  0  0  0  0  0  0
   -3.0981   -2.0947    0.3047 C   0  0  0  0  0  0  0  0  0  0  0  0
   -3.7436   -0.9544   -0.1664 C   0  0  0  0  0  0  0  0  0  0  0  0
   -3.0101    0.2069   -0.4424 C   0  0  0  0  0  0  0  0  0  0  0  0
   -3.6886    1.4422   -0.9766 C   0  0  0  0  0  0  0  0  0  0  0  0
   -5.0181    1.4974   -0.6814 F   0  0  0  0  0  0  0  0  0  0  0  0
   -3.1545    2.5965   -0.4868 F   0  0  0  0  0  0  0  0  0  0  0  0
   -3.6037    1.5369   -2.3322 F   0  0  0  0  0  0  0  0  0  0  0  0
   -1.6161    0.1972   -0.2493 C   0  0  0  0  0  0  0  0  0  0  0  0
    4.4752   -2.2913   -1.4318 H   0  0  0  0  0  0  0  0  0  0  0  0
    4.6716    0.7923   -0.1574 H   0  0  0  0  0  0  0  0  0  0  0  0
    4.0255    2.9298    0.8806 H   0  0  0  0  0  0  0  0  0  0  0  0
    1.7279    3.2364    1.7673 H   0  0  0  0  0  0  0  0  0  0  0  0
    0.0865    1.4172    1.6158 H   0  0  0  0  0  0  0  0  0  0  0  0
    0.8414   -1.8909    0.2109 H   0  0  0  0  0  0  0  0  0  0  0  0
   -1.2302   -2.9791    0.8800 H   0  0  0  0  0  0  0  0  0  0  0  0
   -3.6683   -2.9934    0.5261 H   0  0  0  0  0  0  0  0  0  0  0  0
   -4.8220   -0.9738   -0.3167 H   0  0  0  0  0  0  0  0  0  0  0  0
   -1.0500    1.0912   -0.5027 H   0  0  0  0  0  0  0  0  0  0  0  0
  1  2  2  0
  2  3  1  0
  2  4  1  0
  4  5  2  0
  5  6  1  0
  6  7  2  0
  7  8  1  0
  8  9  2  0
  9 10  1  0
 10 11  1  0
 11 12  2  0
 12 13  1  0
 13 14  2  0
 14 15  1  0
 15 16  1  0
 16 17  1  0
 16 18  1  0
 16 19  1  0
 15 20  2  0
  9  4  1  0
 20 11  1  0
  3 21  1  0
  5 22  1  0
  6 23  1  0
  7 24  1  0
  8 25  1  0
 10 26  1  0
 12 27  1  0
 13 28  1  0
 14 29  1  0
 20 30  1  0
M  END
$$$$
