
     RDKit          3D

 24 23  0  0  0  0  0  0  0  0999 V2000
    0.6907    0.0000    0.0000 Cl  0  0  0  0  0  0  0  0  0  0  0  0
    2.6995    0.2806    1.4781 N   0  0  0  0  0  0  0  0  0  0  0  0
    3.2062    0.6429    0.3382 C   0  0  0  0  0  0  0  0  0  0  0  0
    4.5153    1.1782    0.2682 N   0  0  0  0  0  0  0  0  0  0  0  0
    2.3783    0.4709   -0.8127 N   0  0  0  0  0  0  0  0  0  0  0  0
    0.9946    0.4461   -0.6308 N   0  0  0  0  0  0  0  0  0  0  0  0
    0.3144   -0.5904   -0.3748 C   0  0  0  0  0  0  0  0  0  0  0  0
   -1.1255   -0.4657   -0.2100 C   0  0  0  0  0  0  0  0  0  0  0  0
   -1.7643    0.7486   -0.3253 C   0  0  0  0  0  0  0  0  0  0  0  0
   -0.7700    2.1641   -0.6833 Cl  0  0  0  0  0  0  0  0  0  0  0  0
   -3.1099    0.8421   -0.1676 C   0  0  0  0  0  0  0  0  0  0  0  0
   -3.9016   -0.2486    0.1116 C   0  0  0  0  0  0  0  0  0  0  0  0
   -3.2890   -1.4817    0.2333 C   0  0  0  0  0  0  0  0  0  0  0  0
   -1.9268   -1.5723    0.0730 C   0  0  0  0  0  0  0  0  0  0  0  0
   -1.1657   -3.1472    0.2312 Cl  0  0  0  0  0  0  0  0  0  0  0  0
   -0.6907    0.0000    0.0000 H   0  0  0  0  0  0  0  0  0  0  0  0
    1.7576   -0.1120    1.5814 H   0  0  0  0  0  0  0  0  0  0  0  0
    4.7025    2.2001    0.3415 H   0  0  0  0  0  0  0  0  0  0  0  0
    5.3316    0.5443    0.1393 H   0  0  0  0  0  0  0  0  0  0  0  0
    2.8455    0.3709   -1.7420 H   0  0  0  0  0  0  0  0  0  0  0  0
    0.7721   -1.5430   -0.2788 H   0  0  0  0  0  0  0  0  0  0  0  0
   -3.6134    1.7948   -0.2578 H   0  0  0  0  0  0  0  0  0  0  0  0
   -4.9782   -0.1520    0.2343 H   0  0  0  0  0  0  0  0  0  0  0  0
   -3.8733   -2.3707    0.4530 H   0  0  0  0  0  0  0  0  0  0  0  0
  2  3  2  3
  3  4  1  0
  3  5  1  0
  5  6  1  0
  6  7  2  3
  7  8  1  0
  8  9  2  0
  9 10  1  0
  9 11  1  0
 11 12  2  0
 12 13  1  0
 13 14  2  0
 14 15  1  0
 14  8  1  0
  1 16  1  0
  2 17  1  0
  4 18  1  0
  4 19  1  0
  5 20  1  0
  7 21  1  0
 11 22  1  0
 12 23  1  0
 13 24  1  0
M  END
$$$$
