
     RDKit          3D

 87 93  0  0  0  0  0  0  0  0999 V2000
   11.5715    2.6533    0.2754 C   0  0  0  0  0  0  0  0  0  0  0  0
   12.4683    1.5398   -0.2512 C   0  0  0  0  0  0  0  0  0  0  0  0
   11.7577    0.6399   -1.2751 C   0  0  0  0  0  0  0  0  0  0  0  0
   12.7425   -0.3441   -1.9066 C   0  0  0  0  0  0  0  0  0  0  0  0
   10.6372   -0.0722   -0.6818 N   0  0  0  0  0  0  0  0  0  0  0  0
   10.7873   -0.9913    0.3248 N   0  0  0  0  0  0  0  0  0  0  0  0
    9.5733   -1.3766    0.5645 C   0  0  0  0  0  0  0  0  0  0  0  0
    8.6044   -0.8024   -0.1849 N   0  0  0  0  0  0  0  0  0  0  0  0
    7.2113   -1.0528   -0.1246 C   0  0  0  0  0  0  0  0  0  0  0  0
    6.3011   -0.3673   -0.9359 C   0  0  0  0  0  0  0  0  0  0  0  0
    4.9182   -0.6270   -0.8798 C   0  0  0  0  0  0  0  0  0  0  0  0
    4.3797   -1.5799   -0.0121 C   0  0  0  0  0  0  0  0  0  0  0  0
    3.0222   -1.8814    0.0628 N   0  0  0  0  0  0  0  0  0  0  0  0
    2.0699   -1.4772   -0.9917 C   0  0  0  0  0  0  0  0  0  0  0  0
    1.0982   -0.3758   -0.5114 C   0  0  0  0  0  0  0  0  0  0  0  0
    0.3463   -0.7935    0.6927 N   0  0  0  0  0  0  0  0  0  0  0  0
   -0.9592   -0.3707    0.8916 C   0  0  0  0  0  0  0  0  0  0  0  0
   -1.4135    0.8695    0.4123 C   0  0  0  0  0  0  0  0  0  0  0  0
   -2.7253    1.3243    0.6293 C   0  0  0  0  0  0  0  0  0  0  0  0
   -3.6243    0.5407    1.3421 C   0  0  0  0  0  0  0  0  0  0  0  0
   -4.9150    0.8571    1.6442 O   0  0  0  0  0  0  0  0  0  0  0  0
   -5.4912    1.9846    0.9809 C   0  0  0  0  0  0  0  0  0  0  0  0
   -6.9893    1.9985    1.3147 C   0  0  1  0  0  0  0  0  0  0  0  0
   -7.7200    3.1219    0.6341 C   0  0  0  0  0  0  0  0  0  0  0  0
   -7.9759    2.5944   -0.6681 O   0  0  0  0  0  0  0  0  0  0  0  0
   -8.2500    1.1780   -0.4524 C   0  0  2  0  0  0  0  0  0  0  0  0
   -7.5877    0.4263   -1.6196 C   0  0  0  0  0  0  0  0  0  0  0  0
   -7.6705   -1.0099   -1.5371 N   0  0  0  0  0  0  0  0  0  0  0  0
   -6.8684   -1.8524   -0.8329 C   0  0  0  0  0  0  0  0  0  0  0  0
   -7.1905   -3.0954   -1.1091 N   0  0  0  0  0  0  0  0  0  0  0  0
   -8.2122   -2.9561   -2.0031 C   0  0  0  0  0  0  0  0  0  0  0  0
   -8.5306   -1.6970   -2.3145 N   0  0  0  0  0  0  0  0  0  0  0  0
   -9.7717    0.9809   -0.4269 C   0  0  0  0  0  0  0  0  0  0  0  0
  -10.5650    1.8076   -1.2594 C   0  0  0  0  0  0  0  0  0  0  0  0
  -11.9550    1.6780   -1.3172 C   0  0  0  0  0  0  0  0  0  0  0  0
  -12.5858    0.7076   -0.5532 C   0  0  0  0  0  0  0  0  0  0  0  0
  -14.2965    0.5396   -0.6252 Cl  0  0  0  0  0  0  0  0  0  0  0  0
  -11.8391   -0.1290    0.2675 C   0  0  0  0  0  0  0  0  0  0  0  0
  -10.4433    0.0002    0.3305 C   0  0  0  0  0  0  0  0  0  0  0  0
   -9.6467   -1.1216    1.3779 Cl  0  0  0  0  0  0  0  0  0  0  0  0
   -7.6214    0.8252    0.7872 O   0  0  0  0  0  0  0  0  0  0  0  0
   -3.1989   -0.6888    1.8324 C   0  0  0  0  0  0  0  0  0  0  0  0
   -1.8908   -1.1348    1.6083 C   0  0  0  0  0  0  0  0  0  0  0  0
    0.9045   -1.9362    1.4392 C   0  0  0  0  0  0  0  0  0  0  0  0
    2.4507   -1.9201    1.4325 C   0  0  0  0  0  0  0  0  0  0  0  0
    5.2997   -2.2615    0.7974 C   0  0  0  0  0  0  0  0  0  0  0  0
    6.6810   -2.0073    0.7493 C   0  0  0  0  0  0  0  0  0  0  0  0
    9.2812    0.0737   -1.0201 C   0  0  0  0  0  0  0  0  0  0  0  0
    8.8470    0.8295   -1.8778 O   0  0  0  0  0  0  0  0  0  0  0  0
   12.1390    3.3091    0.9438 H   0  0  0  0  0  0  0  0  0  0  0  0
   11.1766    3.2613   -0.5457 H   0  0  0  0  0  0  0  0  0  0  0  0
   10.7266    2.2502    0.8424 H   0  0  0  0  0  0  0  0  0  0  0  0
   12.8304    0.9442    0.5955 H   0  0  0  0  0  0  0  0  0  0  0  0
   13.3478    1.9985   -0.7194 H   0  0  0  0  0  0  0  0  0  0  0  0
   11.3615    1.2734   -2.0781 H   0  0  0  0  0  0  0  0  0  0  0  0
   12.2400   -0.9684   -2.6523 H   0  0  0  0  0  0  0  0  0  0  0  0
   13.1837   -1.0108   -1.1577 H   0  0  0  0  0  0  0  0  0  0  0  0
   13.5574    0.1870   -2.4083 H   0  0  0  0  0  0  0  0  0  0  0  0
    9.3193   -2.1211    1.3264 H   0  0  0  0  0  0  0  0  0  0  0  0
    6.6267    0.3943   -1.6408 H   0  0  0  0  0  0  0  0  0  0  0  0
    4.2808   -0.0317   -1.5272 H   0  0  0  0  0  0  0  0  0  0  0  0
    2.5606   -1.1764   -1.9218 H   0  0  0  0  0  0  0  0  0  0  0  0
    1.4843   -2.3682   -1.2565 H   0  0  0  0  0  0  0  0  0  0  0  0
    0.4147   -0.1604   -1.3405 H   0  0  0  0  0  0  0  0  0  0  0  0
    1.6564    0.5391   -0.2818 H   0  0  0  0  0  0  0  0  0  0  0  0
   -0.7331    1.5303   -0.1191 H   0  0  0  0  0  0  0  0  0  0  0  0
   -2.9946    2.3016    0.2454 H   0  0  0  0  0  0  0  0  0  0  0  0
   -5.3390    1.8927   -0.1001 H   0  0  0  0  0  0  0  0  0  0  0  0
   -5.0249    2.9064    1.3483 H   0  0  0  0  0  0  0  0  0  0  0  0
   -7.1242    2.0112    2.4010 H   0  0  0  0  0  0  0  0  0  0  0  0
   -7.1530    4.0534    0.5662 H   0  0  0  0  0  0  0  0  0  0  0  0
   -8.6814    3.3304    1.1169 H   0  0  0  0  0  0  0  0  0  0  0  0
   -6.5205    0.6720   -1.6717 H   0  0  0  0  0  0  0  0  0  0  0  0
   -8.0124    0.7405   -2.5811 H   0  0  0  0  0  0  0  0  0  0  0  0
   -6.0931   -1.5198   -0.1561 H   0  0  0  0  0  0  0  0  0  0  0  0
   -8.7343   -3.7955   -2.4432 H   0  0  0  0  0  0  0  0  0  0  0  0
  -10.0990    2.5708   -1.8817 H   0  0  0  0  0  0  0  0  0  0  0  0
  -12.5319    2.3301   -1.9674 H   0  0  0  0  0  0  0  0  0  0  0  0
  -12.3413   -0.8931    0.8552 H   0  0  0  0  0  0  0  0  0  0  0  0
   -3.8871   -1.3154    2.3953 H   0  0  0  0  0  0  0  0  0  0  0  0
   -1.6285   -2.1133    1.9998 H   0  0  0  0  0  0  0  0  0  0  0  0
    0.5859   -1.9071    2.4881 H   0  0  0  0  0  0  0  0  0  0  0  0
    0.5430   -2.8715    0.9959 H   0  0  0  0  0  0  0  0  0  0  0  0
    2.7885   -1.0374    1.9927 H   0  0  0  0  0  0  0  0  0  0  0  0
    2.7980   -2.8145    1.9610 H   0  0  0  0  0  0  0  0  0  0  0  0
    4.9561   -3.0422    1.4719 H   0  0  0  0  0  0  0  0  0  0  0  0
    7.3053   -2.5977    1.4106 H   0  0  0  0  0  0  0  0  0  0  0  0
  1  2  1  0
  2  3  1  0
  3  4  1  0
  3  5  1  0
  5  6  1  0
  6  7  2  0
  7  8  1  0
  8  9  1  0
  9 10  2  0
 10 11  1  0
 11 12  2  0
 12 13  1  0
 13 14  1  0
 14 15  1  0
 15 16  1  0
 16 17  1  0
 17 18  2  0
 18 19  1  0
 19 20  2  0
 20 21  1  0
 21 22  1  0
 22 23  1  0
 23 24  1  0
 24 25  1  0
 25 26  1  0
 26 27  1  6
 27 28  1  0
 28 29  1  0
 29 30  2  0
 30 31  1  0
 31 32  2  0
 26 33  1  0
 33 34  2  0
 34 35  1  0
 35 36  2  0
 36 37  1  0
 36 38  1  0
 38 39  2  0
 39 40  1  0
 26 41  1  0
 20 42  1  0
 42 43  2  0
 16 44  1  0
 44 45  1  0
 12 46  1  0
 46 47  2  0
  8 48  1  0
 48 49  2  0
 48  5  1  0
 47  9  1  0
 45 13  1  0
 43 17  1  0
 41 23  1  0
 32 28  1  0
 39 33  1  0
  1 50  1  0
  1 51  1  0
  1 52  1  0
  2 53  1  0
  2 54  1  0
  3 55  1  0
  4 56  1  0
  4 57  1  0
  4 58  1  0
  7 59  1  0
 10 60  1  0
 11 61  1  0
 14 62  1  0
 14 63  1  0
 15 64  1  0
 15 65  1  0
 18 66  1  0
 19 67  1  0
 22 68  1  0
 22 69  1  0
 23 70  1  1
 24 71  1  0
 24 72  1  0
 27 73  1  0
 27 74  1  0
 29 75  1  0
 31 76  1  0
 34 77  1  0
 35 78  1  0
 38 79  1  0
 42 80  1  0
 43 81  1  0
 44 82  1  0
 44 83  1  0
 45 84  1  0
 45 85  1  0
 46 86  1  0
 47 87  1  0
M  END
$$$$
