
     RDKit          3D

 24 26  0  0  0  0  0  0  0  0999 V2000
    0.7633    1.8012   -0.8504 C   0  0  0  0  0  0  0  0  0  0  0  0
   -0.5155    1.9055   -1.0322 N   0  0  0  0  0  0  0  0  0  0  0  0
   -1.4183    0.9179   -0.6079 C   0  0  0  0  0  0  0  0  0  0  0  0
   -2.6761    1.3610   -0.1785 C   0  0  0  0  0  0  0  0  0  0  0  0
   -3.6693    0.4607    0.2175 C   0  0  0  0  0  0  0  0  0  0  0  0
   -3.4218   -0.9081    0.1748 C   0  0  0  0  0  0  0  0  0  0  0  0
   -2.1813   -1.3707   -0.2591 C   0  0  0  0  0  0  0  0  0  0  0  0
   -1.1833   -0.4621   -0.6338 C   0  0  0  0  0  0  0  0  0  0  0  0
   -0.0047   -1.0125   -1.0761 O   0  0  0  0  0  0  0  0  0  0  0  0
    1.1103   -0.6305   -0.3759 C   0  0  0  0  0  0  0  0  0  0  0  0
    1.9048   -1.6557    0.1447 C   0  0  0  0  0  0  0  0  0  0  0  0
    3.0936   -1.3524    0.8101 C   0  0  0  0  0  0  0  0  0  0  0  0
    3.5016   -0.0250    0.9380 C   0  0  0  0  0  0  0  0  0  0  0  0
    2.7212    0.9998    0.3993 C   0  0  0  0  0  0  0  0  0  0  0  0
    1.5195    0.6944   -0.2514 C   0  0  0  0  0  0  0  0  0  0  0  0
    1.3682    2.6700   -1.1640 H   0  0  0  0  0  0  0  0  0  0  0  0
   -2.8824    2.4287   -0.1627 H   0  0  0  0  0  0  0  0  0  0  0  0
   -4.6363    0.8323    0.5462 H   0  0  0  0  0  0  0  0  0  0  0  0
   -4.1943   -1.6127    0.4708 H   0  0  0  0  0  0  0  0  0  0  0  0
   -1.9866   -2.4385   -0.3056 H   0  0  0  0  0  0  0  0  0  0  0  0
    1.5971   -2.6918    0.0289 H   0  0  0  0  0  0  0  0  0  0  0  0
    3.7053   -2.1524    1.2204 H   0  0  0  0  0  0  0  0  0  0  0  0
    4.4313    0.2105    1.4508 H   0  0  0  0  0  0  0  0  0  0  0  0
    3.0538    2.0304    0.4961 H   0  0  0  0  0  0  0  0  0  0  0  0
  1  2  2  0
  2  3  1  0
  3  4  2  0
  4  5  1  0
  5  6  2  0
  6  7  1  0
  7  8  2  0
  8  9  1  0
  9 10  1  0
 10 11  2  0
 11 12  1  0
 12 13  2  0
 13 14  1  0
 14 15  2  0
 15  1  1  0
  8  3  1  0
 15 10  1  0
  1 16  1  0
  4 17  1  0
  5 18  1  0
  6 19  1  0
  7 20  1  0
 11 21  1  0
 12 22  1  0
 13 23  1  0
 14 24  1  0
M  END
$$$$
