
     RDKit          3D

 30 33  0  0  0  0  0  0  0  0999 V2000
   -1.7784   -0.7552   -2.4843 O   0  0  0  0  0  0  0  0  0  0  0  0
   -1.7265   -0.4496   -1.2997 C   0  0  0  0  0  0  0  0  0  0  0  0
   -2.9799   -0.2858   -0.4909 C   0  0  0  0  0  0  0  0  0  0  0  0
   -4.2155   -0.4904   -1.1202 C   0  0  0  0  0  0  0  0  0  0  0  0
   -5.4020   -0.3466   -0.3981 C   0  0  0  0  0  0  0  0  0  0  0  0
   -5.3652    0.0011    0.9526 C   0  0  0  0  0  0  0  0  0  0  0  0
   -4.1418    0.2079    1.5921 C   0  0  0  0  0  0  0  0  0  0  0  0
   -2.9450    0.0663    0.8772 C   0  0  0  0  0  0  0  0  0  0  0  0
   -1.6458    0.2937    1.5868 C   0  0  0  0  0  0  0  0  0  0  0  0
   -1.6230    0.5986    2.7724 O   0  0  0  0  0  0  0  0  0  0  0  0
   -0.5012    0.1194    0.7515 C   0  0  0  0  0  0  0  0  0  0  0  0
    0.7837    0.2715    1.1697 O   0  0  0  0  0  0  0  0  0  0  0  0
    1.5245    0.0073    0.0388 C   0  0  0  0  0  0  0  0  0  0  0  0
    2.9768    0.0915    0.1694 C   0  0  0  0  0  0  0  0  0  0  0  0
    3.5962    0.4247    1.3838 C   0  0  0  0  0  0  0  0  0  0  0  0
    4.9890    0.4976    1.4785 C   0  0  0  0  0  0  0  0  0  0  0  0
    5.7795    0.2385    0.3608 C   0  0  0  0  0  0  0  0  0  0  0  0
    5.1803   -0.0936   -0.8520 C   0  0  0  0  0  0  0  0  0  0  0  0
    3.7882   -0.1664   -0.9463 C   0  0  0  0  0  0  0  0  0  0  0  0
    0.7977   -0.2916   -1.0275 N   0  0  0  0  0  0  0  0  0  0  0  0
   -0.4960   -0.2204   -0.5740 C   0  0  0  0  0  0  0  0  0  0  0  0
   -4.2607   -0.7624   -2.1742 H   0  0  0  0  0  0  0  0  0  0  0  0
   -6.3590   -0.5066   -0.8915 H   0  0  0  0  0  0  0  0  0  0  0  0
   -6.2938    0.1116    1.5098 H   0  0  0  0  0  0  0  0  0  0  0  0
   -4.1277    0.4790    2.6470 H   0  0  0  0  0  0  0  0  0  0  0  0
    3.0003    0.6314    2.2707 H   0  0  0  0  0  0  0  0  0  0  0  0
    5.4551    0.7569    2.4259 H   0  0  0  0  0  0  0  0  0  0  0  0
    6.8625    0.2953    0.4350 H   0  0  0  0  0  0  0  0  0  0  0  0
    5.7940   -0.2964   -1.7261 H   0  0  0  0  0  0  0  0  0  0  0  0
    3.3339   -0.4272   -1.9014 H   0  0  0  0  0  0  0  0  0  0  0  0
  1  2  2  0
  2  3  1  0
  3  4  2  0
  4  5  1  0
  5  6  2  0
  6  7  1  0
  7  8  2  0
  8  9  1  0
  9 10  2  0
  9 11  1  0
 11 12  1  0
 12 13  1  0
 13 14  1  0
 14 15  2  0
 15 16  1  0
 16 17  2  0
 17 18  1  0
 18 19  2  0
 13 20  2  0
 20 21  1  0
 21  2  1  0
  8  3  1  0
 21 11  2  0
 19 14  1  0
  4 22  1  0
  5 23  1  0
  6 24  1  0
  7 25  1  0
 15 26  1  0
 16 27  1  0
 17 28  1  0
 18 29  1  0
 19 30  1  0
M  END
$$$$
