
     RDKit          3D

 40 42  0  0  0  0  0  0  0  0999 V2000
    0.4691    1.9003   -0.7855 O   0  0  0  0  0  0  0  0  0  0  0  0
    0.1731    0.7950   -1.2132 C   0  0  0  0  0  0  0  0  0  0  0  0
    1.0094    0.0685   -2.0444 N   0  0  0  0  0  0  0  0  0  0  0  0
    2.2161    0.7160   -2.5342 C   0  0  0  0  0  0  0  0  0  0  0  0
    3.3922    0.9563   -1.5684 C   0  0  0  0  0  0  0  0  0  0  0  0
    4.1397    1.9225   -1.7630 O   0  0  0  0  0  0  0  0  0  0  0  0
    3.7131    0.0012   -0.6268 N   0  0  0  0  0  0  0  0  0  0  0  0
    3.0279   -1.2471   -0.3350 C   0  0  0  0  0  0  0  0  0  0  0  0
    3.7832   -1.8426    0.8482 C   0  0  0  0  0  0  0  0  0  0  0  0
    5.1807   -1.2602    0.7032 C   0  0  0  0  0  0  0  0  0  0  0  0
    4.9052    0.1447    0.1919 C   0  0  0  0  0  0  0  0  0  0  0  0
   -0.9735    0.0788   -0.9442 N   0  0  0  0  0  0  0  0  0  0  0  0
   -2.0907    0.4972   -0.1932 C   0  0  0  0  0  0  0  0  0  0  0  0
   -2.2619    1.7972    0.2822 C   0  0  0  0  0  0  0  0  0  0  0  0
   -3.4028    2.1403    1.0151 C   0  0  0  0  0  0  0  0  0  0  0  0
   -4.3955    1.1842    1.2806 C   0  0  0  0  0  0  0  0  0  0  0  0
   -5.5539    1.4722    2.0068 C   0  0  0  0  0  0  0  0  0  0  0  0
   -6.5310    0.5759    2.2791 N   0  0  0  0  0  0  0  0  0  0  0  0
   -6.3496   -0.6734    1.8064 C   0  0  0  0  0  0  0  0  0  0  0  0
   -5.2406   -1.0702    1.0752 C   0  0  0  0  0  0  0  0  0  0  0  0
   -4.2390   -0.1294    0.8025 C   0  0  0  0  0  0  0  0  0  0  0  0
   -3.0846   -0.4578    0.0669 C   0  0  0  0  0  0  0  0  0  0  0  0
    0.5052   -0.4534   -2.7449 H   0  0  0  0  0  0  0  0  0  0  0  0
    2.5992    0.0893   -3.3474 H   0  0  0  0  0  0  0  0  0  0  0  0
    1.9261    1.6838   -2.9603 H   0  0  0  0  0  0  0  0  0  0  0  0
    3.0872   -1.8879   -1.2207 H   0  0  0  0  0  0  0  0  0  0  0  0
    1.9832   -1.0749   -0.0719 H   0  0  0  0  0  0  0  0  0  0  0  0
    3.3358   -1.4970    1.7882 H   0  0  0  0  0  0  0  0  0  0  0  0
    3.7708   -2.9360    0.8478 H   0  0  0  0  0  0  0  0  0  0  0  0
    5.7473   -1.2663    1.6381 H   0  0  0  0  0  0  0  0  0  0  0  0
    5.7432   -1.8302   -0.0460 H   0  0  0  0  0  0  0  0  0  0  0  0
    4.6652    0.8292    1.0132 H   0  0  0  0  0  0  0  0  0  0  0  0
    5.7432    0.5540   -0.3802 H   0  0  0  0  0  0  0  0  0  0  0  0
   -0.9446   -0.8942   -1.2071 H   0  0  0  0  0  0  0  0  0  0  0  0
   -1.5258    2.5743    0.0973 H   0  0  0  0  0  0  0  0  0  0  0  0
   -3.5076    3.1617    1.3752 H   0  0  0  0  0  0  0  0  0  0  0  0
   -5.7349    2.4678    2.4040 H   0  0  0  0  0  0  0  0  0  0  0  0
   -7.1464   -1.3749    2.0376 H   0  0  0  0  0  0  0  0  0  0  0  0
   -5.1660   -2.0952    0.7286 H   0  0  0  0  0  0  0  0  0  0  0  0
   -2.9674   -1.4741   -0.3016 H   0  0  0  0  0  0  0  0  0  0  0  0
  1  2  2  0
  2  3  1  0
  3  4  1  0
  4  5  1  0
  5  6  2  0
  5  7  1  0
  7  8  1  0
  8  9  1  0
  9 10  1  0
 10 11  1  0
  2 12  1  0
 12 13  1  0
 13 14  2  0
 14 15  1  0
 15 16  2  0
 16 17  1  0
 17 18  2  0
 18 19  1  0
 19 20  2  0
 20 21  1  0
 21 22  2  0
 11  7  1  0
 22 13  1  0
 21 16  1  0
  3 23  1  0
  4 24  1  0
  4 25  1  0
  8 26  1  0
  8 27  1  0
  9 28  1  0
  9 29  1  0
 10 30  1  0
 10 31  1  0
 11 32  1  0
 11 33  1  0
 12 34  1  0
 14 35  1  0
 15 36  1  0
 17 37  1  0
 19 38  1  0
 20 39  1  0
 22 40  1  0
M  END
$$$$
