
     RDKit          3D

 53 57  0  0  0  0  0  0  0  0999 V2000
    2.0714   -5.2752    0.4902 C   0  0  0  0  0  0  0  0  0  0  0  0
    2.4506   -3.8767   -0.5449 S   0  0  0  0  0  6  0  0  0  0  0  0
    2.2342   -4.2663   -1.9214 O   0  0  0  0  0  0  0  0  0  0  0  0
    3.7011   -3.2954   -0.1115 O   0  0  0  0  0  0  0  0  0  0  0  0
    1.2108   -2.7958   -0.1285 N   0  0  0  0  0  0  0  0  0  0  0  0
    1.2324   -2.2124    1.2503 C   0  0  0  0  0  0  0  0  0  0  0  0
    1.0937   -0.6889    1.0919 C   0  0  0  0  0  0  0  0  0  0  0  0
    2.4318   -0.0426    1.1236 C   0  0  0  0  0  0  0  0  0  0  0  0
    3.1484    0.4647    0.1481 N   0  0  0  0  0  0  0  0  0  0  0  0
    4.2727    0.8816    0.8100 C   0  0  0  0  0  0  0  0  0  0  0  0
    5.4707    1.5429    0.0786 C   0  0  0  0  0  0  0  0  0  0  0  0
    5.2089    2.6408   -0.9214 C   0  0  0  0  0  0  0  0  0  0  0  0
    5.8375    2.9691    0.4015 C   0  0  0  0  0  0  0  0  0  0  0  0
    4.2585    0.6802    2.1331 N   0  0  0  0  0  0  0  0  0  0  0  0
    3.0275    0.0617    2.3472 O   0  0  0  0  0  0  0  0  0  0  0  0
    0.3970   -0.5649   -0.2656 C   0  0  0  0  0  0  0  0  0  0  0  0
    0.2235    0.8258   -0.9224 C   0  0  0  0  0  0  0  0  0  0  0  0
   -1.1345    0.8029   -0.3978 N   0  0  0  0  0  0  0  0  0  0  0  0
   -2.1442    1.6880   -0.6690 C   0  0  0  0  0  0  0  0  0  0  0  0
   -1.9406    2.7915   -1.1676 O   0  0  0  0  0  0  0  0  0  0  0  0
   -3.5259    1.2042   -0.2953 C   0  0  0  0  0  0  0  0  0  0  0  0
   -4.5669    2.2848   -0.5527 C   0  0  0  0  0  0  0  0  0  0  0  0
   -5.8965    1.8372   -0.1902 N   0  0  0  0  0  0  0  0  0  0  0  0
   -6.7904    1.2091   -1.0101 C   0  0  0  0  0  0  0  0  0  0  0  0
   -7.8875    0.9686   -0.2155 C   0  0  0  0  0  0  0  0  0  0  0  0
   -7.6783    1.4348    1.0571 N   0  0  0  0  0  0  0  0  0  0  0  0
   -6.4760    1.9645    1.0393 C   0  0  0  0  0  0  0  0  0  0  0  0
   -1.1521   -0.6318   -0.1843 C   0  0  0  0  0  0  0  0  0  0  0  0
    1.0005   -1.6843   -1.1012 C   0  0  0  0  0  0  0  0  0  0  0  0
    2.1621   -4.9859    1.5382 H   0  0  0  0  0  0  0  0  0  0  0  0
    1.0610   -5.6193    0.2621 H   0  0  0  0  0  0  0  0  0  0  0  0
    2.7912   -6.0644    0.2622 H   0  0  0  0  0  0  0  0  0  0  0  0
    2.1162   -2.5052    1.8251 H   0  0  0  0  0  0  0  0  0  0  0  0
    0.3542   -2.6133    1.7710 H   0  0  0  0  0  0  0  0  0  0  0  0
    0.4915   -0.2684    1.9061 H   0  0  0  0  0  0  0  0  0  0  0  0
    6.2813    0.8561   -0.1386 H   0  0  0  0  0  0  0  0  0  0  0  0
    4.1840    2.9520   -1.0898 H   0  0  0  0  0  0  0  0  0  0  0  0
    5.8338    2.6725   -1.8063 H   0  0  0  0  0  0  0  0  0  0  0  0
    6.8895    3.2278    0.4175 H   0  0  0  0  0  0  0  0  0  0  0  0
    5.2391    3.5048    1.1300 H   0  0  0  0  0  0  0  0  0  0  0  0
    0.2523    0.8415   -2.0166 H   0  0  0  0  0  0  0  0  0  0  0  0
    0.8205    1.6463   -0.5189 H   0  0  0  0  0  0  0  0  0  0  0  0
   -3.7579    0.3102   -0.8859 H   0  0  0  0  0  0  0  0  0  0  0  0
   -3.5253    0.9222    0.7644 H   0  0  0  0  0  0  0  0  0  0  0  0
   -4.5916    2.5706   -1.6111 H   0  0  0  0  0  0  0  0  0  0  0  0
   -4.3532    3.1912    0.0266 H   0  0  0  0  0  0  0  0  0  0  0  0
   -6.5865    0.9929   -2.0496 H   0  0  0  0  0  0  0  0  0  0  0  0
   -8.8160    0.4859   -0.4916 H   0  0  0  0  0  0  0  0  0  0  0  0
   -5.9856    2.4405    1.8790 H   0  0  0  0  0  0  0  0  0  0  0  0
   -1.6590   -1.1688   -0.9926 H   0  0  0  0  0  0  0  0  0  0  0  0
   -1.5759   -0.9273    0.7792 H   0  0  0  0  0  0  0  0  0  0  0  0
    1.9557   -1.3686   -1.5359 H   0  0  0  0  0  0  0  0  0  0  0  0
    0.3406   -2.0119   -1.9103 H   0  0  0  0  0  0  0  0  0  0  0  0
  1  2  1  0
  2  3  2  0
  2  4  2  0
  2  5  1  0
  5  6  1  0
  6  7  1  0
  7  8  1  0
  8  9  2  0
  9 10  1  0
 10 11  1  0
 11 12  1  0
 12 13  1  0
 10 14  2  0
 14 15  1  0
  7 16  1  0
 16 17  1  0
 17 18  1  0
 18 19  1  0
 19 20  2  0
 19 21  1  0
 21 22  1  0
 22 23  1  0
 23 24  1  0
 24 25  2  0
 25 26  1  0
 26 27  2  0
 18 28  1  0
 16 29  1  0
 29  5  1  0
 15  8  1  0
 28 16  1  0
 13 11  1  0
 27 23  1  0
  1 30  1  0
  1 31  1  0
  1 32  1  0
  6 33  1  0
  6 34  1  0
  7 35  1  0
 11 36  1  0
 12 37  1  0
 12 38  1  0
 13 39  1  0
 13 40  1  0
 17 41  1  0
 17 42  1  0
 21 43  1  0
 21 44  1  0
 22 45  1  0
 22 46  1  0
 24 47  1  0
 25 48  1  0
 27 49  1  0
 28 50  1  0
 28 51  1  0
 29 52  1  0
 29 53  1  0
M  END
$$$$
