
     RDKit          3D

 57 60  0  0  0  0  0  0  0  0999 V2000
  -10.3696    1.2939   -0.5997 C   0  0  0  0  0  0  0  0  0  0  0  0
  -10.2733   -0.0975    0.0120 C   0  0  0  0  0  0  0  0  0  0  0  0
   -9.0983   -0.2327    0.9796 C   0  0  0  0  0  0  0  0  0  0  0  0
   -7.7413   -0.3135    0.2919 C   0  0  0  0  0  0  0  0  0  0  0  0
   -7.6238   -0.4207   -0.9223 O   0  0  0  0  0  0  0  0  0  0  0  0
   -6.7055   -0.2745    1.2131 N   0  0  0  0  0  0  0  0  0  0  0  0
   -5.3216   -0.3383    0.9438 C   0  0  0  0  0  0  0  0  0  0  0  0
   -4.7658   -0.4569   -0.3256 C   0  0  0  0  0  0  0  0  0  0  0  0
   -3.3760   -0.5156   -0.4836 C   0  0  0  0  0  0  0  0  0  0  0  0
   -2.5669   -0.4512    0.6465 C   0  0  0  0  0  0  0  0  0  0  0  0
   -1.1517   -0.5100    0.5270 N   0  0  0  0  0  0  0  0  0  0  0  0
   -0.2670   -0.4518    1.5794 C   0  0  0  0  0  0  0  0  0  0  0  0
    0.9865   -0.5303    1.1884 N   0  0  0  0  0  0  0  0  0  0  0  0
    0.9405   -0.6406   -0.1892 C   0  0  0  0  0  0  0  0  0  0  0  0
    2.0963   -0.7926   -1.0920 C   0  0  0  0  0  0  0  0  0  0  0  0
    1.9146   -1.1146   -2.2681 O   0  0  0  0  0  0  0  0  0  0  0  0
    3.3821   -0.5812   -0.5974 N   0  0  0  0  0  0  0  0  0  0  0  0
    4.5290   -0.9301   -1.4422 C   0  0  0  0  0  0  0  0  0  0  0  0
    5.7368   -1.3775   -0.6035 C   0  0  0  0  0  0  0  0  0  0  0  0
    6.1727   -0.3369    0.3559 N   0  0  0  0  0  0  0  0  0  0  0  0
    7.3911    0.3265    0.1068 C   0  0  0  0  0  0  0  0  0  0  0  0
    8.1192    0.8121    1.2072 C   0  0  0  0  0  0  0  0  0  0  0  0
    9.3327    1.4882    1.0422 C   0  0  0  0  0  0  0  0  0  0  0  0
    9.8470    1.7003   -0.2342 C   0  0  0  0  0  0  0  0  0  0  0  0
    9.1440    1.2380   -1.3420 C   0  0  0  0  0  0  0  0  0  0  0  0
    7.9348    0.5630   -1.1687 C   0  0  0  0  0  0  0  0  0  0  0  0
    7.2802    0.1788   -2.2760 F   0  0  0  0  0  0  0  0  0  0  0  0
    5.1104    0.6092    0.7838 C   0  0  0  0  0  0  0  0  0  0  0  0
    3.7017   -0.0152    0.7204 C   0  0  0  0  0  0  0  0  0  0  0  0
   -0.3823   -0.6357   -0.6042 C   0  0  0  0  0  0  0  0  0  0  0  0
   -3.0796   -0.3314    1.8977 N   0  0  0  0  0  0  0  0  0  0  0  0
   -4.4294   -0.2800    2.0119 C   0  0  0  0  0  0  0  0  0  0  0  0
  -11.2434    1.3563   -1.2570 H   0  0  0  0  0  0  0  0  0  0  0  0
   -9.4835    1.5337   -1.1952 H   0  0  0  0  0  0  0  0  0  0  0  0
  -10.4769    2.0576    0.1780 H   0  0  0  0  0  0  0  0  0  0  0  0
  -10.2032   -0.8436   -0.7878 H   0  0  0  0  0  0  0  0  0  0  0  0
  -11.2027   -0.3003    0.5576 H   0  0  0  0  0  0  0  0  0  0  0  0
   -9.0949    0.6048    1.6886 H   0  0  0  0  0  0  0  0  0  0  0  0
   -9.2220   -1.1600    1.5541 H   0  0  0  0  0  0  0  0  0  0  0  0
   -6.9692   -0.1930    2.1875 H   0  0  0  0  0  0  0  0  0  0  0  0
   -5.3809   -0.5085   -1.2188 H   0  0  0  0  0  0  0  0  0  0  0  0
   -2.9766   -0.6102   -1.4871 H   0  0  0  0  0  0  0  0  0  0  0  0
   -0.6016   -0.3551    2.6052 H   0  0  0  0  0  0  0  0  0  0  0  0
    4.2512   -1.7286   -2.1390 H   0  0  0  0  0  0  0  0  0  0  0  0
    4.7725   -0.0399   -2.0335 H   0  0  0  0  0  0  0  0  0  0  0  0
    5.4392   -2.2511   -0.0081 H   0  0  0  0  0  0  0  0  0  0  0  0
    6.5515   -1.7311   -1.2448 H   0  0  0  0  0  0  0  0  0  0  0  0
    7.7437    0.6424    2.2142 H   0  0  0  0  0  0  0  0  0  0  0  0
    9.8751    1.8449    1.9142 H   0  0  0  0  0  0  0  0  0  0  0  0
   10.7887    2.2270   -0.3643 H   0  0  0  0  0  0  0  0  0  0  0  0
    9.5209    1.4048   -2.3467 H   0  0  0  0  0  0  0  0  0  0  0  0
    5.3003    0.9430    1.8107 H   0  0  0  0  0  0  0  0  0  0  0  0
    5.1189    1.4968    0.1353 H   0  0  0  0  0  0  0  0  0  0  0  0
    3.6225   -0.8296    1.4495 H   0  0  0  0  0  0  0  0  0  0  0  0
    2.9755    0.7635    0.9709 H   0  0  0  0  0  0  0  0  0  0  0  0
   -0.7926   -0.7192   -1.6001 H   0  0  0  0  0  0  0  0  0  0  0  0
   -4.7799   -0.1860    3.0362 H   0  0  0  0  0  0  0  0  0  0  0  0
  1  2  1  0
  2  3  1  0
  3  4  1  0
  4  5  2  0
  4  6  1  0
  6  7  1  0
  7  8  2  0
  8  9  1  0
  9 10  2  0
 10 11  1  0
 11 12  1  0
 12 13  2  0
 13 14  1  0
 14 15  1  0
 15 16  2  0
 15 17  1  0
 17 18  1  0
 18 19  1  0
 19 20  1  0
 20 21  1  0
 21 22  2  0
 22 23  1  0
 23 24  2  0
 24 25  1  0
 25 26  2  0
 26 27  1  0
 20 28  1  0
 28 29  1  0
 14 30  2  0
 10 31  1  0
 31 32  2  0
 32  7  1  0
 30 11  1  0
 29 17  1  0
 26 21  1  0
  1 33  1  0
  1 34  1  0
  1 35  1  0
  2 36  1  0
  2 37  1  0
  3 38  1  0
  3 39  1  0
  6 40  1  0
  8 41  1  0
  9 42  1  0
 12 43  1  0
 18 44  1  0
 18 45  1  0
 19 46  1  0
 19 47  1  0
 22 48  1  0
 23 49  1  0
 24 50  1  0
 25 51  1  0
 28 52  1  0
 28 53  1  0
 29 54  1  0
 29 55  1  0
 30 56  1  0
 32 57  1  0
M  END
$$$$
