
     RDKit          3D

 51 53  0  0  0  0  0  0  0  0999 V2000
    6.8332    0.3746    2.8786 C   0  0  0  0  0  0  0  0  0  0  0  0
    6.2055    0.1658    1.5090 C   0  0  0  0  0  0  0  0  0  0  0  0
    4.7673    0.4015    1.5997 N   0  0  0  0  0  0  0  0  0  0  0  0
    4.0668    0.2043    0.3917 C   0  0  0  0  0  0  0  0  0  0  0  0
    2.7062    0.4510    0.3840 C   0  0  0  0  0  0  0  0  0  0  0  0
    2.0005    0.2296   -0.7858 C   0  0  0  0  0  0  0  0  0  0  0  0
    0.6284    0.4749   -0.8530 N   0  0  0  0  0  0  0  0  0  0  0  0
    0.0199    0.3644   -2.1902 C   0  0  0  0  0  0  0  0  0  0  0  0
   -1.4433    0.8377   -2.1599 C   0  0  0  0  0  0  0  0  0  0  0  0
   -2.2546    0.1608   -1.1440 N   0  0  0  0  0  0  0  0  0  0  0  0
   -3.6319    0.3087   -1.2072 C   0  0  0  0  0  0  0  0  0  0  0  0
   -4.2120    0.9380   -2.0891 O   0  0  0  0  0  0  0  0  0  0  0  0
   -4.4693   -0.3409   -0.1863 C   0  0  0  0  0  0  0  0  0  0  0  0
   -5.1951   -1.4763   -0.5562 C   0  0  0  0  0  0  0  0  0  0  0  0
   -6.0071   -2.0995    0.3881 C   0  0  0  0  0  0  0  0  0  0  0  0
   -6.8956   -3.5071   -0.0473 Cl  0  0  0  0  0  0  0  0  0  0  0  0
   -6.1026   -1.5978    1.6882 C   0  0  0  0  0  0  0  0  0  0  0  0
   -5.3896   -0.4519    2.0487 C   0  0  0  0  0  0  0  0  0  0  0  0
   -4.5911    0.1915    1.1027 C   0  0  0  0  0  0  0  0  0  0  0  0
   -3.8777    1.2929    1.4940 O   0  0  0  0  0  0  0  0  0  0  0  0
   -4.6313    2.4814    1.2402 C   0  0  0  0  0  0  0  0  0  0  0  0
   -1.5153   -0.6243   -0.1482 C   0  0  0  0  0  0  0  0  0  0  0  0
   -0.2075    0.0629    0.2920 C   0  0  0  0  0  0  0  0  0  0  0  0
    2.6389   -0.1900   -1.8897 N   0  0  0  0  0  0  0  0  0  0  0  0
    3.9604   -0.4166   -1.8029 C   0  0  0  0  0  0  0  0  0  0  0  0
    4.6509   -0.9335   -3.0258 C   0  0  0  0  0  0  0  0  0  0  0  0
    4.6991   -0.2526   -0.6952 N   0  0  0  0  0  0  0  0  0  0  0  0
    7.9119    0.1946    2.8359 H   0  0  0  0  0  0  0  0  0  0  0  0
    6.3998   -0.3087    3.6165 H   0  0  0  0  0  0  0  0  0  0  0  0
    6.6705    1.3976    3.2345 H   0  0  0  0  0  0  0  0  0  0  0  0
    6.6668    0.8589    0.7950 H   0  0  0  0  0  0  0  0  0  0  0  0
    6.4103   -0.8616    1.1846 H   0  0  0  0  0  0  0  0  0  0  0  0
    4.5572    1.3330    1.9495 H   0  0  0  0  0  0  0  0  0  0  0  0
    2.2159    0.8183    1.2750 H   0  0  0  0  0  0  0  0  0  0  0  0
    0.0579   -0.6775   -2.5345 H   0  0  0  0  0  0  0  0  0  0  0  0
    0.5631    0.9845   -2.9143 H   0  0  0  0  0  0  0  0  0  0  0  0
   -1.9049    0.6936   -3.1434 H   0  0  0  0  0  0  0  0  0  0  0  0
   -1.4836    1.9099   -1.9306 H   0  0  0  0  0  0  0  0  0  0  0  0
   -5.1243   -1.8616   -1.5697 H   0  0  0  0  0  0  0  0  0  0  0  0
   -6.7317   -2.0937    2.4234 H   0  0  0  0  0  0  0  0  0  0  0  0
   -5.4586   -0.0630    3.0611 H   0  0  0  0  0  0  0  0  0  0  0  0
   -3.9873    3.3382    1.4604 H   0  0  0  0  0  0  0  0  0  0  0  0
   -5.5048    2.5324    1.9003 H   0  0  0  0  0  0  0  0  0  0  0  0
   -4.9436    2.5526    0.1919 H   0  0  0  0  0  0  0  0  0  0  0  0
   -1.2858   -1.5868   -0.6226 H   0  0  0  0  0  0  0  0  0  0  0  0
   -2.1253   -0.8432    0.7297 H   0  0  0  0  0  0  0  0  0  0  0  0
   -0.4509    0.9615    0.8719 H   0  0  0  0  0  0  0  0  0  0  0  0
    0.3201   -0.6310    0.9580 H   0  0  0  0  0  0  0  0  0  0  0  0
    5.7203   -0.7034   -2.9947 H   0  0  0  0  0  0  0  0  0  0  0  0
    4.2285   -0.4758   -3.9257 H   0  0  0  0  0  0  0  0  0  0  0  0
    4.5253   -2.0183   -3.0887 H   0  0  0  0  0  0  0  0  0  0  0  0
  1  2  1  0
  2  3  1  0
  3  4  1  0
  4  5  2  0
  5  6  1  0
  6  7  1  0
  7  8  1  0
  8  9  1  0
  9 10  1  0
 10 11  1  0
 11 12  2  0
 11 13  1  0
 13 14  2  0
 14 15  1  0
 15 16  1  0
 15 17  2  0
 17 18  1  0
 18 19  2  0
 19 20  1  0
 20 21  1  0
 10 22  1  0
 22 23  1  0
  6 24  2  0
 24 25  1  0
 25 26  1  0
 25 27  2  0
 27  4  1  0
 23  7  1  0
 19 13  1  0
  1 28  1  0
  1 29  1  0
  1 30  1  0
  2 31  1  0
  2 32  1  0
  3 33  1  0
  5 34  1  0
  8 35  1  0
  8 36  1  0
  9 37  1  0
  9 38  1  0
 14 39  1  0
 17 40  1  0
 18 41  1  0
 21 42  1  0
 21 43  1  0
 21 44  1  0
 22 45  1  0
 22 46  1  0
 23 47  1  0
 23 48  1  0
 26 49  1  0
 26 50  1  0
 26 51  1  0
M  END
$$$$
