
     RDKit          3D

 37 40  0  0  0  0  0  0  0  0999 V2000
    3.2514    1.2480   -1.7316 O   0  0  0  0  0  0  0  0  0  0  0  0
    3.1625    0.5088   -0.7567 C   0  0  0  0  0  0  0  0  0  0  0  0
    2.0803   -0.3185   -0.5569 N   0  0  0  0  0  0  0  0  0  0  0  0
    2.0422   -1.0364    0.5170 C   0  0  0  0  0  0  0  0  0  0  0  0
    1.0271   -1.8986    0.8165 O   0  0  0  0  0  0  0  0  0  0  0  0
   -0.1244   -1.9149    0.1134 C   0  0  0  0  0  0  0  0  0  0  0  0
   -1.0044   -3.0063    0.0034 C   0  0  0  0  0  0  0  0  0  0  0  0
   -2.0869   -2.7171   -0.7258 N   0  0  0  0  0  0  0  0  0  0  0  0
   -1.9015   -1.4189   -1.0616 N   0  0  0  0  0  0  0  0  0  0  0  0
   -2.8678   -0.7356   -1.9113 C   0  0  0  0  0  0  0  0  0  0  0  0
   -3.7222    0.2260   -1.1234 C   0  0  0  0  0  0  0  0  0  0  0  0
   -3.5465    1.6115   -1.2535 C   0  0  0  0  0  0  0  0  0  0  0  0
   -4.3381    2.4965   -0.5196 C   0  0  0  0  0  0  0  0  0  0  0  0
   -5.3108    2.0076    0.3506 C   0  0  0  0  0  0  0  0  0  0  0  0
   -5.4929    0.6332    0.4902 C   0  0  0  0  0  0  0  0  0  0  0  0
   -4.7031   -0.2539   -0.2421 C   0  0  0  0  0  0  0  0  0  0  0  0
   -0.7414   -0.8915   -0.5620 C   0  0  0  0  0  0  0  0  0  0  0  0
    2.9992   -1.0725    1.4884 N   0  0  0  0  0  0  0  0  0  0  0  0
    4.1395   -0.2958    1.3496 C   0  0  0  0  0  0  0  0  0  0  0  0
    5.1758   -0.2666    2.2678 C   0  0  0  0  0  0  0  0  0  0  0  0
    6.2854    0.4980    2.1329 N   0  0  0  0  0  0  0  0  0  0  0  0
    6.3713    1.2772    1.0312 C   0  0  0  0  0  0  0  0  0  0  0  0
    5.3959    1.3284    0.0554 C   0  0  0  0  0  0  0  0  0  0  0  0
    4.2710    0.5250    0.2322 C   0  0  0  0  0  0  0  0  0  0  0  0
   -0.9009   -3.9994    0.4189 H   0  0  0  0  0  0  0  0  0  0  0  0
   -2.2992   -0.2215   -2.6949 H   0  0  0  0  0  0  0  0  0  0  0  0
   -3.4928   -1.4907   -2.4022 H   0  0  0  0  0  0  0  0  0  0  0  0
   -2.7906    2.0135   -1.9252 H   0  0  0  0  0  0  0  0  0  0  0  0
   -4.1952    3.5689   -0.6258 H   0  0  0  0  0  0  0  0  0  0  0  0
   -5.9258    2.6978    0.9221 H   0  0  0  0  0  0  0  0  0  0  0  0
   -6.2484    0.2506    1.1716 H   0  0  0  0  0  0  0  0  0  0  0  0
   -4.8500   -1.3261   -0.1178 H   0  0  0  0  0  0  0  0  0  0  0  0
   -0.4718    0.1406   -0.7363 H   0  0  0  0  0  0  0  0  0  0  0  0
    2.8801   -1.6954    2.2731 H   0  0  0  0  0  0  0  0  0  0  0  0
    5.1537   -0.8715    3.1698 H   0  0  0  0  0  0  0  0  0  0  0  0
    7.2745    1.8772    0.9552 H   0  0  0  0  0  0  0  0  0  0  0  0
    5.5049    1.9697   -0.8126 H   0  0  0  0  0  0  0  0  0  0  0  0
  1  2  2  0
  2  3  1  0
  3  4  2  0
  4  5  1  0
  5  6  1  0
  6  7  1  0
  7  8  2  0
  8  9  1  0
  9 10  1  0
 10 11  1  0
 11 12  2  0
 12 13  1  0
 13 14  2  0
 14 15  1  0
 15 16  2  0
  9 17  1  0
  4 18  1  0
 18 19  1  0
 19 20  2  0
 20 21  1  0
 21 22  2  0
 22 23  1  0
 23 24  2  0
 24  2  1  0
 17  6  2  0
 24 19  1  0
 16 11  1  0
  7 25  1  0
 10 26  1  0
 10 27  1  0
 12 28  1  0
 13 29  1  0
 14 30  1  0
 15 31  1  0
 16 32  1  0
 17 33  1  0
 18 34  1  0
 20 35  1  0
 22 36  1  0
 23 37  1  0
M  END
$$$$
