
     RDKit          3D

 55 58  0  0  0  0  0  0  0  0999 V2000
   -7.8944    0.8827    0.6271 N   0  0  0  0  0  0  0  0  0  0  0  0
   -6.7176    0.0153    0.5708 C   0  0  1  0  0  0  0  0  0  0  0  0
   -5.7896    0.4372   -0.5801 C   0  0  0  0  0  0  0  0  0  0  0  0
   -4.6827    1.3801   -0.1088 C   0  0  0  0  0  0  0  0  0  0  0  0
   -3.7760    0.7158    0.9491 C   0  0  2  0  0  0  0  0  0  0  0  0
   -2.6458    0.0255    0.3177 N   0  0  0  0  0  0  0  0  0  0  0  0
   -1.5676    0.8079   -0.1105 C   0  0  0  0  0  0  0  0  0  0  0  0
   -0.4998    0.1659   -0.7356 C   0  0  0  0  0  0  0  0  0  0  0  0
    0.6328    0.8850   -1.1666 C   0  0  0  0  0  0  0  0  0  0  0  0
    1.7227    0.1527   -1.8249 C   0  0  0  0  0  0  0  0  0  0  0  0
    2.2160    0.4901   -3.0826 C   0  0  0  0  0  0  0  0  0  0  0  0
    3.2284   -0.2857   -3.6323 C   0  0  0  0  0  0  0  0  0  0  0  0
    3.7172   -1.3724   -2.9142 C   0  0  0  0  0  0  0  0  0  0  0  0
    3.1827   -1.6505   -1.6637 C   0  0  0  0  0  0  0  0  0  0  0  0
    3.6001   -2.7188   -0.8803 N   0  0  0  0  0  0  0  0  0  0  0  0
    5.0270   -2.8223   -0.5991 C   0  0  0  0  0  0  0  0  0  0  0  0
    5.5344   -1.6789    0.2513 C   0  0  0  0  0  0  0  0  0  0  0  0
    6.3909   -0.7080   -0.2986 C   0  0  0  0  0  0  0  0  0  0  0  0
    6.8537    0.3567    0.4805 C   0  0  0  0  0  0  0  0  0  0  0  0
    6.4639    0.4643    1.8156 C   0  0  0  0  0  0  0  0  0  0  0  0
    5.6146   -0.4901    2.3596 C   0  0  0  0  0  0  0  0  0  0  0  0
    5.2373   -0.3835    3.6429 F   0  0  0  0  0  0  0  0  0  0  0  0
    5.1484   -1.5577    1.5964 C   0  0  0  0  0  0  0  0  0  0  0  0
    2.1840   -0.9205   -1.1345 N   0  0  0  0  0  0  0  0  0  0  0  0
    0.6526    2.2582   -0.9065 C   0  0  0  0  0  0  0  0  0  0  0  0
    1.9830    3.2858   -1.2955 Cl  0  0  0  0  0  0  0  0  0  0  0  0
   -0.4426    2.8203   -0.2658 C   0  0  0  0  0  0  0  0  0  0  0  0
   -1.5404    2.1313    0.1279 N   0  0  0  0  0  0  0  0  0  0  0  0
   -4.5340   -0.3306    1.7980 C   0  0  0  0  0  0  0  0  0  0  0  0
   -6.0110    0.0193    1.9390 C   0  0  0  0  0  0  0  0  0  0  0  0
   -8.4965    0.5938    1.3973 H   0  0  0  0  0  0  0  0  0  0  0  0
   -7.6147    1.8397    0.8343 H   0  0  0  0  0  0  0  0  0  0  0  0
   -7.0751   -0.9997    0.3546 H   0  0  0  0  0  0  0  0  0  0  0  0
   -5.3304   -0.4610   -1.0178 H   0  0  0  0  0  0  0  0  0  0  0  0
   -6.3588    0.9045   -1.3947 H   0  0  0  0  0  0  0  0  0  0  0  0
   -5.1438    2.2762    0.3288 H   0  0  0  0  0  0  0  0  0  0  0  0
   -4.1050    1.7249   -0.9750 H   0  0  0  0  0  0  0  0  0  0  0  0
   -3.4121    1.4914    1.6384 H   0  0  0  0  0  0  0  0  0  0  0  0
   -2.9327   -0.6107   -0.4212 H   0  0  0  0  0  0  0  0  0  0  0  0
   -0.5342   -0.9129   -0.8810 H   0  0  0  0  0  0  0  0  0  0  0  0
    1.8138    1.3311   -3.6385 H   0  0  0  0  0  0  0  0  0  0  0  0
    3.6282   -0.0508   -4.6158 H   0  0  0  0  0  0  0  0  0  0  0  0
    4.4913   -1.9983   -3.3418 H   0  0  0  0  0  0  0  0  0  0  0  0
    3.0504   -2.6294   -0.0279 H   0  0  0  0  0  0  0  0  0  0  0  0
    5.6112   -2.9187   -1.5226 H   0  0  0  0  0  0  0  0  0  0  0  0
    5.2012   -3.7571   -0.0504 H   0  0  0  0  0  0  0  0  0  0  0  0
    6.6967   -0.7718   -1.3416 H   0  0  0  0  0  0  0  0  0  0  0  0
    7.5120    1.1065    0.0414 H   0  0  0  0  0  0  0  0  0  0  0  0
    6.8097    1.2893    2.4310 H   0  0  0  0  0  0  0  0  0  0  0  0
    4.4814   -2.2820    2.0577 H   0  0  0  0  0  0  0  0  0  0  0  0
   -0.4706    3.8813   -0.0299 H   0  0  0  0  0  0  0  0  0  0  0  0
   -4.4453   -1.3341    1.3574 H   0  0  0  0  0  0  0  0  0  0  0  0
   -4.0689   -0.3960    2.7915 H   0  0  0  0  0  0  0  0  0  0  0  0
   -6.5057   -0.6954    2.6103 H   0  0  0  0  0  0  0  0  0  0  0  0
   -6.0902    1.0041    2.4250 H   0  0  0  0  0  0  0  0  0  0  0  0
  1  2  1  0
  2  3  1  0
  3  4  1  0
  4  5  1  0
  5  6  1  0
  6  7  1  0
  7  8  2  0
  8  9  1  0
  9 10  1  0
 10 11  2  0
 11 12  1  0
 12 13  2  0
 13 14  1  0
 14 15  1  0
 15 16  1  0
 16 17  1  0
 17 18  2  0
 18 19  1  0
 19 20  2  0
 20 21  1  0
 21 22  1  0
 21 23  2  0
 14 24  2  0
  9 25  2  0
 25 26  1  0
 25 27  1  0
 27 28  2  0
  5 29  1  0
 29 30  1  0
 30  2  1  0
 28  7  1  0
 24 10  1  0
 23 17  1  0
  1 31  1  0
  1 32  1  0
  2 33  1  6
  3 34  1  0
  3 35  1  0
  4 36  1  0
  4 37  1  0
  5 38  1  1
  6 39  1  0
  8 40  1  0
 11 41  1  0
 12 42  1  0
 13 43  1  0
 15 44  1  0
 16 45  1  0
 16 46  1  0
 18 47  1  0
 19 48  1  0
 20 49  1  0
 23 50  1  0
 27 51  1  0
 29 52  1  0
 29 53  1  0
 30 54  1  0
 30 55  1  0
M  END
$$$$
