
     RDKit          3D

 50 53  0  0  0  0  0  0  0  0999 V2000
    9.0767   -0.5945    2.2436 C   0  0  0  0  0  0  0  0  0  0  0  0
    7.7892   -0.3707    1.5084 C   0  0  0  0  0  0  0  0  0  0  0  0
    6.6450   -1.1017    1.8371 C   0  0  0  0  0  0  0  0  0  0  0  0
    5.4390   -0.8666    1.1687 C   0  0  0  0  0  0  0  0  0  0  0  0
    5.3509    0.1088    0.1671 C   0  0  0  0  0  0  0  0  0  0  0  0
    4.0952    0.2792   -0.4526 N   0  0  0  0  0  0  0  0  0  0  0  0
    3.7637    1.1526   -1.4794 C   0  0  0  0  0  0  0  0  0  0  0  0
    4.5459    1.9173   -2.0339 O   0  0  0  0  0  0  0  0  0  0  0  0
    2.3432    1.0934   -1.8859 C   0  0  0  0  0  0  0  0  0  0  0  0
    1.2953    0.4173   -1.2850 C   0  0  0  0  0  0  0  0  0  0  0  0
    0.1656    0.6825   -2.0356 N   0  0  0  0  0  0  0  0  0  0  0  0
   -1.1396    0.1847   -1.7620 C   0  0  0  0  0  0  0  0  0  0  0  0
   -2.2154    0.5166   -2.5864 C   0  0  0  0  0  0  0  0  0  0  0  0
   -3.4788    0.0085   -2.2777 C   0  0  0  0  0  0  0  0  0  0  0  0
   -3.6232   -0.8063   -1.1592 C   0  0  0  0  0  0  0  0  0  0  0  0
   -5.1724   -1.5020   -0.7079 S   0  0  0  0  0  6  0  0  0  0  0  0
   -6.1521   -1.1176   -1.7019 O   0  0  0  0  0  0  0  0  0  0  0  0
   -4.9415   -2.8916   -0.3791 O   0  0  0  0  0  0  0  0  0  0  0  0
   -5.5432   -0.6756    0.7247 N   0  0  0  0  0  0  0  0  0  0  0  0
   -5.7731    0.7935    0.6356 C   0  0  0  0  0  0  0  0  0  0  0  0
   -7.1133    1.0370    1.3167 C   0  0  0  0  0  0  0  0  0  0  0  0
   -7.2054   -0.0992    2.3141 C   0  0  0  0  0  0  0  0  0  0  0  0
   -6.6535   -1.2695    1.5165 C   0  0  0  0  0  0  0  0  0  0  0  0
   -2.5126   -1.1047   -0.3962 C   0  0  0  0  0  0  0  0  0  0  0  0
   -1.2769   -0.6189   -0.6707 N   0  0  0  0  0  0  0  0  0  0  0  0
    0.5751    1.5030   -3.0553 C   0  0  0  0  0  0  0  0  0  0  0  0
    1.8596    1.7699   -2.9935 N   0  0  0  0  0  0  0  0  0  0  0  0
    6.4903    0.8485   -0.1482 C   0  0  0  0  0  0  0  0  0  0  0  0
    7.6982    0.6140    0.5203 C   0  0  0  0  0  0  0  0  0  0  0  0
    9.1238    0.0560    3.1224 H   0  0  0  0  0  0  0  0  0  0  0  0
    9.1645   -1.6365    2.5692 H   0  0  0  0  0  0  0  0  0  0  0  0
    9.9365   -0.3825    1.5993 H   0  0  0  0  0  0  0  0  0  0  0  0
    6.6834   -1.8609    2.6150 H   0  0  0  0  0  0  0  0  0  0  0  0
    4.5717   -1.4592    1.4477 H   0  0  0  0  0  0  0  0  0  0  0  0
    3.3625   -0.3292   -0.1206 H   0  0  0  0  0  0  0  0  0  0  0  0
    1.2315   -0.2081   -0.4062 H   0  0  0  0  0  0  0  0  0  0  0  0
   -2.1138    1.1497   -3.4608 H   0  0  0  0  0  0  0  0  0  0  0  0
   -4.3319    0.2462   -2.9095 H   0  0  0  0  0  0  0  0  0  0  0  0
   -5.7837    1.1720   -0.3899 H   0  0  0  0  0  0  0  0  0  0  0  0
   -4.9642    1.2953    1.1778 H   0  0  0  0  0  0  0  0  0  0  0  0
   -7.9258    0.9606    0.5840 H   0  0  0  0  0  0  0  0  0  0  0  0
   -7.1697    2.0227    1.7868 H   0  0  0  0  0  0  0  0  0  0  0  0
   -8.2256   -0.2753    2.6658 H   0  0  0  0  0  0  0  0  0  0  0  0
   -6.5688    0.1062    3.1830 H   0  0  0  0  0  0  0  0  0  0  0  0
   -6.2814   -2.0617    2.1716 H   0  0  0  0  0  0  0  0  0  0  0  0
   -7.4292   -1.6748    0.8571 H   0  0  0  0  0  0  0  0  0  0  0  0
   -2.5747   -1.7500    0.4771 H   0  0  0  0  0  0  0  0  0  0  0  0
   -0.0848    1.8873   -3.8201 H   0  0  0  0  0  0  0  0  0  0  0  0
    6.4794    1.6227   -0.9089 H   0  0  0  0  0  0  0  0  0  0  0  0
    8.5684    1.2117    0.2568 H   0  0  0  0  0  0  0  0  0  0  0  0
  1  2  1  0
  2  3  2  0
  3  4  1  0
  4  5  2  0
  5  6  1  0
  6  7  1  0
  7  8  2  0
  7  9  1  0
  9 10  2  0
 10 11  1  0
 11 12  1  0
 12 13  2  0
 13 14  1  0
 14 15  2  0
 15 16  1  0
 16 17  2  0
 16 18  2  0
 16 19  1  0
 19 20  1  0
 20 21  1  0
 21 22  1  0
 22 23  1  0
 15 24  1  0
 24 25  2  0
 11 26  1  0
 26 27  2  0
  5 28  1  0
 28 29  2  0
 29  2  1  0
 27  9  1  0
 25 12  1  0
 23 19  1  0
  1 30  1  0
  1 31  1  0
  1 32  1  0
  3 33  1  0
  4 34  1  0
  6 35  1  0
 10 36  1  0
 13 37  1  0
 14 38  1  0
 20 39  1  0
 20 40  1  0
 21 41  1  0
 21 42  1  0
 22 43  1  0
 22 44  1  0
 23 45  1  0
 23 46  1  0
 24 47  1  0
 26 48  1  0
 28 49  1  0
 29 50  1  0
M  END
$$$$
