
     RDKit          3D

 49 50  0  0  0  0  0  0  0  0999 V2000
   -8.1458    1.2665    1.9048 C   0  0  0  0  0  0  0  0  0  0  0  0
   -6.6821    1.0695    1.5966 C   0  0  0  0  0  0  0  0  0  0  0  0
   -5.8222    1.4149    2.3988 O   0  0  0  0  0  0  0  0  0  0  0  0
   -6.4791    0.5141    0.3469 N   0  0  0  0  0  0  0  0  0  0  0  0
   -5.2467    0.2043   -0.2632 C   0  0  0  0  0  0  0  0  0  0  0  0
   -4.0056    0.3746    0.3514 C   0  0  0  0  0  0  0  0  0  0  0  0
   -2.8216    0.0478   -0.3239 C   0  0  0  0  0  0  0  0  0  0  0  0
   -2.8686   -0.4413   -1.6274 C   0  0  0  0  0  0  0  0  0  0  0  0
   -1.7808   -0.8250   -2.3594 O   0  0  0  0  0  0  0  0  0  0  0  0
   -0.5833   -0.0468   -2.1997 C   0  0  0  0  0  0  0  0  0  0  0  0
    0.5478   -0.9452   -1.6738 C   0  0  2  0  0  0  0  0  0  0  0  0
    0.9156   -2.0511   -2.6640 C   0  0  0  0  0  0  0  0  0  0  0  0
    0.1436   -1.5912   -0.4501 O   0  0  0  0  0  0  0  0  0  0  0  0
    1.7977   -0.0776   -1.4066 C   0  0  0  0  0  0  0  0  0  0  0  0
    2.0962    0.8749   -2.1199 O   0  0  0  0  0  0  0  0  0  0  0  0
    2.5249   -0.5617   -0.3301 N   0  0  0  0  0  0  0  0  0  0  0  0
    3.7498   -0.0986    0.1751 C   0  0  0  0  0  0  0  0  0  0  0  0
    4.5025    0.9151   -0.4210 C   0  0  0  0  0  0  0  0  0  0  0  0
    5.7215    1.3127    0.1351 C   0  0  0  0  0  0  0  0  0  0  0  0
    6.1882    0.6857    1.2971 C   0  0  0  0  0  0  0  0  0  0  0  0
    7.4795    1.1126    1.8177 N   0  0  0  0  0  4  0  0  0  0  0  0
    8.3235    0.2311    2.0141 O   0  0  0  0  0  0  0  0  0  0  0  0
    7.6395    2.3251    2.0023 O   0  0  0  0  0  1  0  0  0  0  0  0
    5.4520   -0.3252    1.9303 C   0  0  0  0  0  0  0  0  0  0  0  0
    5.9201   -0.9958    3.1936 C   0  0  0  0  0  0  0  0  0  0  0  0
    6.8549   -1.9532    2.9676 F   0  0  0  0  0  0  0  0  0  0  0  0
    6.4460   -0.1269    4.0963 F   0  0  0  0  0  0  0  0  0  0  0  0
    4.9055   -1.6269    3.8527 F   0  0  0  0  0  0  0  0  0  0  0  0
    4.2308   -0.7122    1.3420 C   0  0  0  0  0  0  0  0  0  0  0  0
   -4.1058   -0.6399   -2.2365 C   0  0  0  0  0  0  0  0  0  0  0  0
   -5.2872   -0.3123   -1.5632 C   0  0  0  0  0  0  0  0  0  0  0  0
   -8.2940    1.2431    2.9887 H   0  0  0  0  0  0  0  0  0  0  0  0
   -8.4700    2.2345    1.5126 H   0  0  0  0  0  0  0  0  0  0  0  0
   -8.7523    0.4702    1.4637 H   0  0  0  0  0  0  0  0  0  0  0  0
   -7.3051    0.3319   -0.2092 H   0  0  0  0  0  0  0  0  0  0  0  0
   -3.9190    0.7530    1.3658 H   0  0  0  0  0  0  0  0  0  0  0  0
   -1.8828    0.1724    0.2077 H   0  0  0  0  0  0  0  0  0  0  0  0
   -0.3254    0.3463   -3.1905 H   0  0  0  0  0  0  0  0  0  0  0  0
   -0.7274    0.8288   -1.5556 H   0  0  0  0  0  0  0  0  0  0  0  0
    1.7230   -2.6782   -2.2668 H   0  0  0  0  0  0  0  0  0  0  0  0
    1.2520   -1.6381   -3.6211 H   0  0  0  0  0  0  0  0  0  0  0  0
    0.0673   -2.7184   -2.8494 H   0  0  0  0  0  0  0  0  0  0  0  0
   -0.7398   -1.9725   -0.6321 H   0  0  0  0  0  0  0  0  0  0  0  0
    2.0376   -1.2963    0.1838 H   0  0  0  0  0  0  0  0  0  0  0  0
    4.1708    1.4134   -1.3273 H   0  0  0  0  0  0  0  0  0  0  0  0
    6.2974    2.1010   -0.3482 H   0  0  0  0  0  0  0  0  0  0  0  0
    3.6447   -1.5024    1.8135 H   0  0  0  0  0  0  0  0  0  0  0  0
   -4.1540   -1.0422   -3.2455 H   0  0  0  0  0  0  0  0  0  0  0  0
   -6.2337   -0.4681   -2.0740 H   0  0  0  0  0  0  0  0  0  0  0  0
  1  2  1  0
  2  3  2  0
  2  4  1  0
  4  5  1  0
  5  6  2  0
  6  7  1  0
  7  8  2  0
  8  9  1  0
  9 10  1  0
 10 11  1  0
 11 12  1  0
 11 13  1  1
 11 14  1  0
 14 15  2  0
 14 16  1  0
 16 17  1  0
 17 18  2  0
 18 19  1  0
 19 20  2  0
 20 21  1  0
 21 22  2  0
 21 23  1  0
 20 24  1  0
 24 25  1  0
 25 26  1  0
 25 27  1  0
 25 28  1  0
 24 29  2  0
  8 30  1  0
 30 31  2  0
 31  5  1  0
 29 17  1  0
  1 32  1  0
  1 33  1  0
  1 34  1  0
  4 35  1  0
  6 36  1  0
  7 37  1  0
 10 38  1  0
 10 39  1  0
 12 40  1  0
 12 41  1  0
 12 42  1  0
 13 43  1  0
 16 44  1  0
 18 45  1  0
 19 46  1  0
 29 47  1  0
 30 48  1  0
 31 49  1  0
M  CHG  2  21   1  23  -1
M  END
$$$$
