
     RDKit          3D

 41 43  0  0  0  0  0  0  0  0999 V2000
   -2.7713    2.0383    1.7295 C   0  0  0  0  0  0  0  0  0  0  0  0
   -3.3158    1.3085    0.5387 C   0  0  0  0  0  0  0  0  0  0  0  0
   -4.4827    0.6351    0.7319 N   0  0  0  0  0  0  0  0  0  0  0  0
   -4.9762   -0.0509   -0.3142 C   0  0  0  0  0  0  0  0  0  0  0  0
   -6.1559   -0.7704   -0.1682 C   0  0  0  0  0  0  0  0  0  0  0  0
   -6.7036   -1.4902   -1.2301 C   0  0  0  0  0  0  0  0  0  0  0  0
   -6.0593   -1.4918   -2.4606 C   0  0  0  0  0  0  0  0  0  0  0  0
   -4.8731   -0.7733   -2.6174 C   0  0  0  0  0  0  0  0  0  0  0  0
   -4.3189   -0.0517   -1.5670 C   0  0  0  0  0  0  0  0  0  0  0  0
   -3.1753    0.6300   -1.7638 N   0  0  0  0  0  0  0  0  0  0  0  0
   -2.6688    1.3030   -0.6993 C   0  0  0  0  0  0  0  0  0  0  0  0
   -1.1760    2.2244   -1.0232 S   0  0  0  0  0  0  0  0  0  0  0  0
   -0.1685    0.8929   -1.7371 C   0  0  0  0  0  0  0  0  0  0  0  0
    0.3367   -0.0417   -0.6482 C   0  0  0  0  0  0  0  0  0  0  0  0
   -0.4161   -0.6380    0.1188 O   0  0  0  0  0  0  0  0  0  0  0  0
    1.6991   -0.2663   -0.6906 N   0  0  0  0  0  0  0  0  0  0  0  0
    2.4482   -0.1461    0.4632 C   0  0  0  0  0  0  0  0  0  0  0  0
    2.0231    0.3525    1.4957 O   0  0  0  0  0  0  0  0  0  0  0  0
    3.7411   -0.5908    0.2382 N   0  0  0  0  0  0  0  0  0  0  0  0
    4.8439   -0.4981    1.1128 C   0  0  0  0  0  0  0  0  0  0  0  0
    6.0130   -1.1758    0.7427 C   0  0  0  0  0  0  0  0  0  0  0  0
    7.1539   -1.1210    1.5472 C   0  0  0  0  0  0  0  0  0  0  0  0
    7.1380   -0.3829    2.7261 C   0  0  0  0  0  0  0  0  0  0  0  0
    5.9828    0.3005    3.0989 C   0  0  0  0  0  0  0  0  0  0  0  0
    4.8401    0.2439    2.2948 C   0  0  0  0  0  0  0  0  0  0  0  0
   -1.7871    1.6457    2.0056 H   0  0  0  0  0  0  0  0  0  0  0  0
   -3.4333    1.9144    2.5930 H   0  0  0  0  0  0  0  0  0  0  0  0
   -2.6972    3.1113    1.5260 H   0  0  0  0  0  0  0  0  0  0  0  0
   -6.6547   -0.7713    0.7995 H   0  0  0  0  0  0  0  0  0  0  0  0
   -7.6282   -2.0451   -1.0906 H   0  0  0  0  0  0  0  0  0  0  0  0
   -6.4741   -2.0492   -3.2983 H   0  0  0  0  0  0  0  0  0  0  0  0
   -4.3681   -0.7741   -3.5800 H   0  0  0  0  0  0  0  0  0  0  0  0
   -0.7085    0.3123   -2.4906 H   0  0  0  0  0  0  0  0  0  0  0  0
    0.6760    1.3705   -2.2445 H   0  0  0  0  0  0  0  0  0  0  0  0
    2.1975    0.1042   -1.4843 H   0  0  0  0  0  0  0  0  0  0  0  0
    3.8594   -1.1940   -0.5649 H   0  0  0  0  0  0  0  0  0  0  0  0
    6.0544   -1.7588   -0.1736 H   0  0  0  0  0  0  0  0  0  0  0  0
    8.0537   -1.6511    1.2525 H   0  0  0  0  0  0  0  0  0  0  0  0
    8.0233   -0.3350    3.3556 H   0  0  0  0  0  0  0  0  0  0  0  0
    5.9652    0.8827    4.0171 H   0  0  0  0  0  0  0  0  0  0  0  0
    3.9634    0.7976    2.6222 H   0  0  0  0  0  0  0  0  0  0  0  0
  1  2  1  0
  2  3  2  0
  3  4  1  0
  4  5  2  0
  5  6  1  0
  6  7  2  0
  7  8  1  0
  8  9  2  0
  9 10  1  0
 10 11  2  0
 11 12  1  0
 12 13  1  0
 13 14  1  0
 14 15  2  0
 14 16  1  0
 16 17  1  0
 17 18  2  0
 17 19  1  0
 19 20  1  0
 20 21  2  0
 21 22  1  0
 22 23  2  0
 23 24  1  0
 24 25  2  0
 11  2  1  0
 25 20  1  0
  9  4  1  0
  1 26  1  0
  1 27  1  0
  1 28  1  0
  5 29  1  0
  6 30  1  0
  7 31  1  0
  8 32  1  0
 13 33  1  0
 13 34  1  0
 16 35  1  0
 19 36  1  0
 21 37  1  0
 22 38  1  0
 23 39  1  0
 24 40  1  0
 25 41  1  0
M  END
$$$$
