
     RDKit          3D

 46 47  0  0  0  0  0  0  0  0999 V2000
   -3.5158   -2.8272   -0.3328 C   0  0  0  0  0  0  0  0  0  0  0  0
   -4.0619   -1.4261   -0.1298 C   0  0  0  0  0  0  0  0  0  0  0  0
   -2.9956   -0.4676   -0.1859 O   0  0  0  0  0  0  0  0  0  0  0  0
   -2.3501   -0.2398    0.9855 C   0  0  0  0  0  0  0  0  0  0  0  0
   -2.5982   -0.7637    2.0598 O   0  0  0  0  0  0  0  0  0  0  0  0
   -1.2737    0.7521    0.7669 C   0  0  0  0  0  0  0  0  0  0  0  0
   -1.0631    1.7700    1.6322 C   0  0  0  0  0  0  0  0  0  0  0  0
   -1.9063    2.0489    2.8509 C   0  0  0  0  0  0  0  0  0  0  0  0
   -0.0262    2.6614    1.3992 N   0  0  0  0  0  0  0  0  0  0  0  0
    0.7861    2.6496    0.2757 C   0  0  0  0  0  0  0  0  0  0  0  0
    1.7347    3.8126    0.1390 C   0  0  0  0  0  0  0  0  0  0  0  0
    0.6531    1.6533   -0.6282 C   0  0  0  0  0  0  0  0  0  0  0  0
    1.4430    1.5644   -1.8740 C   0  0  0  0  0  0  0  0  0  0  0  0
    0.9440    1.3705   -2.9720 O   0  0  0  0  0  0  0  0  0  0  0  0
    2.7682    1.6432   -1.5967 O   0  0  0  0  0  0  0  0  0  0  0  0
    3.6078    1.4888   -2.7406 C   0  0  0  0  0  0  0  0  0  0  0  0
   -0.3768    0.5440   -0.4498 C   0  0  0  0  0  0  0  0  0  0  0  0
    0.3073   -0.8287   -0.4015 C   0  0  0  0  0  0  0  0  0  0  0  0
    0.1057   -1.7491   -1.4438 C   0  0  0  0  0  0  0  0  0  0  0  0
    0.7185   -3.0040   -1.4200 C   0  0  0  0  0  0  0  0  0  0  0  0
    1.5477   -3.3592   -0.3565 C   0  0  0  0  0  0  0  0  0  0  0  0
    1.7629   -2.4470    0.6839 C   0  0  0  0  0  0  0  0  0  0  0  0
    2.6446   -2.8132    1.7995 N   0  0  0  0  0  4  0  0  0  0  0  0
    2.8774   -1.9520    2.6599 O   0  0  0  0  0  0  0  0  0  0  0  0
    3.1111   -3.9617    1.8125 O   0  0  0  0  0  1  0  0  0  0  0  0
    1.1500   -1.1863    0.6670 C   0  0  0  0  0  0  0  0  0  0  0  0
   -2.9759   -2.8949   -1.2828 H   0  0  0  0  0  0  0  0  0  0  0  0
   -4.3255   -3.5623   -0.3353 H   0  0  0  0  0  0  0  0  0  0  0  0
   -2.8054   -3.0911    0.4571 H   0  0  0  0  0  0  0  0  0  0  0  0
   -4.6215   -1.3458    0.8092 H   0  0  0  0  0  0  0  0  0  0  0  0
   -4.7563   -1.1806   -0.9399 H   0  0  0  0  0  0  0  0  0  0  0  0
   -1.4103    1.6634    3.7474 H   0  0  0  0  0  0  0  0  0  0  0  0
   -2.0490    3.1282    2.9776 H   0  0  0  0  0  0  0  0  0  0  0  0
   -2.9078    1.6150    2.7881 H   0  0  0  0  0  0  0  0  0  0  0  0
    0.0800    3.4371    2.0491 H   0  0  0  0  0  0  0  0  0  0  0  0
    2.6157    3.6557    0.7695 H   0  0  0  0  0  0  0  0  0  0  0  0
    1.2480    4.7415    0.4576 H   0  0  0  0  0  0  0  0  0  0  0  0
    2.0644    3.9770   -0.8907 H   0  0  0  0  0  0  0  0  0  0  0  0
    3.4166    2.2852   -3.4667 H   0  0  0  0  0  0  0  0  0  0  0  0
    4.6475    1.5636   -2.4103 H   0  0  0  0  0  0  0  0  0  0  0  0
    3.4591    0.5043   -3.1956 H   0  0  0  0  0  0  0  0  0  0  0  0
   -1.0291    0.5850   -1.3342 H   0  0  0  0  0  0  0  0  0  0  0  0
   -0.5325   -1.4908   -2.2886 H   0  0  0  0  0  0  0  0  0  0  0  0
    0.5496   -3.7043   -2.2352 H   0  0  0  0  0  0  0  0  0  0  0  0
    2.0175   -4.3406   -0.3552 H   0  0  0  0  0  0  0  0  0  0  0  0
    1.3206   -0.4789    1.4784 H   0  0  0  0  0  0  0  0  0  0  0  0
  1  2  1  0
  2  3  1  0
  3  4  1  0
  4  5  2  0
  4  6  1  0
  6  7  2  0
  7  8  1  0
  7  9  1  0
  9 10  1  0
 10 11  1  0
 10 12  2  0
 12 13  1  0
 13 14  2  0
 13 15  1  0
 15 16  1  0
 12 17  1  0
 17 18  1  0
 18 19  2  0
 19 20  1  0
 20 21  2  0
 21 22  1  0
 22 23  1  0
 23 24  2  0
 23 25  1  0
 22 26  2  0
 17  6  1  0
 26 18  1  0
  1 27  1  0
  1 28  1  0
  1 29  1  0
  2 30  1  0
  2 31  1  0
  8 32  1  0
  8 33  1  0
  8 34  1  0
  9 35  1  0
 11 36  1  0
 11 37  1  0
 11 38  1  0
 16 39  1  0
 16 40  1  0
 16 41  1  0
 17 42  1  0
 19 43  1  0
 20 44  1  0
 21 45  1  0
 26 46  1  0
M  CHG  2  23   1  25  -1
M  END
$$$$
