
     RDKit          3D

 40 43  0  0  0  0  0  0  0  0999 V2000
    7.1651   -0.5248   -0.2351 C   0  0  0  0  0  0  0  0  0  0  0  0
    5.7310   -0.5961   -0.3617 N   0  0  0  0  0  0  0  0  0  0  0  0
    4.9492    0.5051   -0.0742 C   0  0  0  0  0  0  0  0  0  0  0  0
    5.4083    1.6002    0.2295 O   0  0  0  0  0  0  0  0  0  0  0  0
    3.4754    0.2945   -0.1069 C   0  0  0  0  0  0  0  0  0  0  0  0
    2.8831   -0.6671   -0.9310 C   0  0  0  0  0  0  0  0  0  0  0  0
    1.4946   -0.8273   -0.9295 C   0  0  0  0  0  0  0  0  0  0  0  0
    0.6784   -0.0280   -0.1128 C   0  0  0  0  0  0  0  0  0  0  0  0
   -0.7196   -0.1804   -0.1019 C   0  0  0  0  0  0  0  0  0  0  0  0
   -1.5449    0.6108    0.7192 C   0  0  0  0  0  0  0  0  0  0  0  0
   -3.0543    0.4659    0.7125 C   0  0  1  0  0  0  0  0  0  0  0  0
   -3.6198    0.8551    1.9591 O   0  0  0  0  0  0  0  0  0  0  0  0
   -3.7277    1.3023   -0.4197 C   0  0  0  0  0  0  0  0  0  0  0  0
   -5.0061    0.5253   -0.7953 C   0  0  0  0  0  0  0  0  0  0  0  0
   -4.6700   -0.8200   -0.3870 N   0  0  0  0  0  0  0  0  0  0  0  0
   -5.1329   -2.0571   -0.6221 C   0  0  0  0  0  0  0  0  0  0  0  0
   -4.4045   -2.9393    0.0404 N   0  0  0  0  0  0  0  0  0  0  0  0
   -3.4458   -2.2127    0.7273 C   0  0  0  0  0  0  0  0  0  0  0  0
   -3.5966   -0.8829    0.4481 C   0  0  0  0  0  0  0  0  0  0  0  0
   -0.9317    1.5935    1.5119 C   0  0  0  0  0  0  0  0  0  0  0  0
    0.4560    1.7600    1.5110 C   0  0  0  0  0  0  0  0  0  0  0  0
    1.2736    0.9545    0.7076 C   0  0  0  0  0  0  0  0  0  0  0  0
    2.6691    1.1093    0.6978 C   0  0  0  0  0  0  0  0  0  0  0  0
    7.6029   -1.3786   -0.7572 H   0  0  0  0  0  0  0  0  0  0  0  0
    7.5380    0.4080   -0.6666 H   0  0  0  0  0  0  0  0  0  0  0  0
    7.4259   -0.5653    0.8258 H   0  0  0  0  0  0  0  0  0  0  0  0
    5.3035   -1.5116   -0.3367 H   0  0  0  0  0  0  0  0  0  0  0  0
    3.4808   -1.2798   -1.5997 H   0  0  0  0  0  0  0  0  0  0  0  0
    1.0513   -1.5796   -1.5794 H   0  0  0  0  0  0  0  0  0  0  0  0
   -1.1692   -0.9302   -0.7522 H   0  0  0  0  0  0  0  0  0  0  0  0
   -3.2329    0.2598    2.6249 H   0  0  0  0  0  0  0  0  0  0  0  0
   -3.9617    2.3275   -0.1132 H   0  0  0  0  0  0  0  0  0  0  0  0
   -3.0803    1.3535   -1.3055 H   0  0  0  0  0  0  0  0  0  0  0  0
   -5.8741    0.8456   -0.2119 H   0  0  0  0  0  0  0  0  0  0  0  0
   -5.2174    0.5448   -1.8669 H   0  0  0  0  0  0  0  0  0  0  0  0
   -5.9775   -2.2835   -1.2589 H   0  0  0  0  0  0  0  0  0  0  0  0
   -2.7159   -2.7003    1.3600 H   0  0  0  0  0  0  0  0  0  0  0  0
   -1.5349    2.2493    2.1386 H   0  0  0  0  0  0  0  0  0  0  0  0
    0.8930    2.5314    2.1423 H   0  0  0  0  0  0  0  0  0  0  0  0
    3.1386    1.8683    1.3223 H   0  0  0  0  0  0  0  0  0  0  0  0
  1  2  1  0
  2  3  1  0
  3  4  2  0
  3  5  1  0
  5  6  2  0
  6  7  1  0
  7  8  2  0
  8  9  1  0
  9 10  2  0
 10 11  1  0
 11 12  1  1
 11 13  1  0
 13 14  1  0
 14 15  1  0
 15 16  1  0
 16 17  2  0
 17 18  1  0
 18 19  2  0
 10 20  1  0
 20 21  2  0
 21 22  1  0
 22 23  2  0
 23  5  1  0
 22  8  1  0
 19 11  1  0
 19 15  1  0
  1 24  1  0
  1 25  1  0
  1 26  1  0
  2 27  1  0
  6 28  1  0
  7 29  1  0
  9 30  1  0
 12 31  1  0
 13 32  1  0
 13 33  1  0
 14 34  1  0
 14 35  1  0
 16 36  1  0
 18 37  1  0
 20 38  1  0
 21 39  1  0
 23 40  1  0
M  END
$$$$
