
     RDKit          3D

 52 55  0  0  0  0  0  0  0  0999 V2000
    5.7629    0.6603    1.9303 C   0  0  0  0  0  0  0  0  0  0  0  0
    4.9264   -0.2219    1.1829 O   0  0  0  0  0  0  0  0  0  0  0  0
    5.0225   -0.0605   -0.1824 C   0  0  0  0  0  0  0  0  0  0  0  0
    6.2716    0.0440   -0.8114 C   0  0  0  0  0  0  0  0  0  0  0  0
    6.3498    0.2194   -2.1905 C   0  0  0  0  0  0  0  0  0  0  0  0
    5.1834    0.2811   -2.9438 C   0  0  0  0  0  0  0  0  0  0  0  0
    3.9364    0.1527   -2.3218 C   0  0  0  0  0  0  0  0  0  0  0  0
    3.8195   -0.0384   -0.9336 C   0  0  0  0  0  0  0  0  0  0  0  0
    2.5694   -0.1787   -0.2980 N   0  0  0  0  0  0  0  0  0  0  0  0
    1.3707    0.3444   -0.9763 C   0  0  0  0  0  0  0  0  0  0  0  0
    0.1586    0.3162   -0.0143 C   0  0  0  0  0  0  0  0  0  0  0  0
   -0.1102   -1.0452    0.5091 N   0  0  0  0  0  0  0  0  0  0  0  0
   -1.2509   -1.0971    1.4235 C   0  0  0  0  0  0  0  0  0  0  0  0
   -1.2179   -0.1029    2.4614 O   0  0  0  0  0  0  0  0  0  0  0  0
   -2.3762    0.6241    2.5107 C   0  0  0  0  0  0  0  0  0  0  0  0
   -2.6086    1.5176    3.2989 O   0  0  0  0  0  0  0  0  0  0  0  0
   -3.2311    0.1416    1.4297 C   0  0  0  0  0  0  0  0  0  0  0  0
   -2.5606   -0.8637    0.7637 C   0  0  0  0  0  0  0  0  0  0  0  0
   -3.1381   -1.5034   -0.3219 C   0  0  0  0  0  0  0  0  0  0  0  0
   -4.4187   -1.1089   -0.7278 C   0  0  0  0  0  0  0  0  0  0  0  0
   -5.1104   -0.0902   -0.0454 C   0  0  0  0  0  0  0  0  0  0  0  0
   -6.3679    0.3478   -0.3738 O   0  0  0  0  0  0  0  0  0  0  0  0
   -7.1182   -0.4496   -1.2810 C   0  0  0  0  0  0  0  0  0  0  0  0
   -4.4938    0.5579    1.0401 C   0  0  0  0  0  0  0  0  0  0  0  0
   -5.1655    1.5137    1.7516 O   0  0  0  0  0  0  0  0  0  0  0  0
   -4.9356    2.8051    1.1897 C   0  0  0  0  0  0  0  0  0  0  0  0
    1.1145   -1.5350    1.1872 C   0  0  0  0  0  0  0  0  0  0  0  0
    2.3520   -1.5331    0.2587 C   0  0  0  0  0  0  0  0  0  0  0  0
    5.3502    0.7375    2.9409 H   0  0  0  0  0  0  0  0  0  0  0  0
    6.7742    0.2468    2.0149 H   0  0  0  0  0  0  0  0  0  0  0  0
    5.7878    1.6702    1.5023 H   0  0  0  0  0  0  0  0  0  0  0  0
    7.1909   -0.0209   -0.2387 H   0  0  0  0  0  0  0  0  0  0  0  0
    7.3184    0.3043   -2.6753 H   0  0  0  0  0  0  0  0  0  0  0  0
    5.2378    0.4186   -4.0210 H   0  0  0  0  0  0  0  0  0  0  0  0
    3.0563    0.1846   -2.9565 H   0  0  0  0  0  0  0  0  0  0  0  0
    1.5352    1.3816   -1.2923 H   0  0  0  0  0  0  0  0  0  0  0  0
    1.1325   -0.2562   -1.8634 H   0  0  0  0  0  0  0  0  0  0  0  0
    0.3505    1.0181    0.8080 H   0  0  0  0  0  0  0  0  0  0  0  0
   -0.7115    0.6866   -0.5681 H   0  0  0  0  0  0  0  0  0  0  0  0
   -1.2985   -2.0789    1.9128 H   0  0  0  0  0  0  0  0  0  0  0  0
   -2.6079   -2.2930   -0.8482 H   0  0  0  0  0  0  0  0  0  0  0  0
   -4.8556   -1.6146   -1.5837 H   0  0  0  0  0  0  0  0  0  0  0  0
   -8.1313   -0.0384   -1.3280 H   0  0  0  0  0  0  0  0  0  0  0  0
   -6.6927   -0.4007   -2.2885 H   0  0  0  0  0  0  0  0  0  0  0  0
   -7.1955   -1.4856   -0.9340 H   0  0  0  0  0  0  0  0  0  0  0  0
   -3.8713    3.0634    1.2064 H   0  0  0  0  0  0  0  0  0  0  0  0
   -5.4711    3.5372    1.8017 H   0  0  0  0  0  0  0  0  0  0  0  0
   -5.3232    2.8694    0.1668 H   0  0  0  0  0  0  0  0  0  0  0  0
    0.9550   -2.5648    1.5295 H   0  0  0  0  0  0  0  0  0  0  0  0
    1.3338   -0.9232    2.0727 H   0  0  0  0  0  0  0  0  0  0  0  0
    2.1944   -2.2464   -0.5620 H   0  0  0  0  0  0  0  0  0  0  0  0
    3.2074   -1.8927    0.8393 H   0  0  0  0  0  0  0  0  0  0  0  0
  1  2  1  0
  2  3  1  0
  3  4  2  0
  4  5  1  0
  5  6  2  0
  6  7  1  0
  7  8  2  0
  8  9  1  0
  9 10  1  0
 10 11  1  0
 11 12  1  0
 12 13  1  0
 13 14  1  0
 14 15  1  0
 15 16  2  0
 15 17  1  0
 17 18  2  0
 18 19  1  0
 19 20  2  0
 20 21  1  0
 21 22  1  0
 22 23  1  0
 21 24  2  0
 24 25  1  0
 25 26  1  0
 12 27  1  0
 27 28  1  0
  8  3  1  0
 28  9  1  0
 18 13  1  0
 24 17  1  0
  1 29  1  0
  1 30  1  0
  1 31  1  0
  4 32  1  0
  5 33  1  0
  6 34  1  0
  7 35  1  0
 10 36  1  0
 10 37  1  0
 11 38  1  0
 11 39  1  0
 13 40  1  0
 19 41  1  0
 20 42  1  0
 23 43  1  0
 23 44  1  0
 23 45  1  0
 26 46  1  0
 26 47  1  0
 26 48  1  0
 27 49  1  0
 27 50  1  0
 28 51  1  0
 28 52  1  0
M  END
$$$$
