
     RDKit          3D

 51 55  0  0  0  0  0  0  0  0999 V2000
    3.8464   -2.6442    1.2307 O   0  0  0  0  0  0  0  0  0  0  0  0
    3.3455   -2.0319    0.2958 C   0  0  0  0  0  0  0  0  0  0  0  0
    2.2029   -2.6115   -0.4784 C   0  0  0  0  0  0  0  0  0  0  0  0
    1.6990   -1.4589   -1.3227 C   0  0  0  0  0  0  0  0  0  0  0  0
    0.3621   -0.9527   -0.9323 N   0  0  0  0  0  0  0  0  0  0  0  0
   -0.1810    0.0122   -1.8941 C   0  0  0  0  0  0  0  0  0  0  0  0
   -1.6975    0.1312   -1.7112 C   0  0  0  0  0  0  0  0  0  0  0  0
   -2.1246    0.0423   -0.2359 C   0  0  0  0  0  0  0  0  0  0  0  0
   -3.3296    0.8101    0.0273 N   0  0  0  0  0  0  0  0  0  0  0  0
   -3.4449    2.2174   -0.0422 C   0  0  0  0  0  0  0  0  0  0  0  0
   -2.5752    3.0323   -0.3009 O   0  0  0  0  0  0  0  0  0  0  0  0
   -4.7833    2.5247    0.2410 N   0  0  0  0  0  0  0  0  0  0  0  0
   -5.4832    1.3455    0.4582 C   0  0  0  0  0  0  0  0  0  0  0  0
   -6.8173    1.1756    0.7505 C   0  0  0  0  0  0  0  0  0  0  0  0
   -7.2642   -0.1386    0.9110 C   0  0  0  0  0  0  0  0  0  0  0  0
   -6.3772   -1.2271    0.7748 C   0  0  0  0  0  0  0  0  0  0  0  0
   -5.0235   -1.0256    0.4762 C   0  0  0  0  0  0  0  0  0  0  0  0
   -4.5962    0.2763    0.3234 C   0  0  0  0  0  0  0  0  0  0  0  0
   -0.9686    0.4418    0.6844 C   0  0  0  0  0  0  0  0  0  0  0  0
    0.2520   -0.4592    0.4509 C   0  0  0  0  0  0  0  0  0  0  0  0
    2.8095   -0.4258   -1.2250 C   0  0  0  0  0  0  0  0  0  0  0  0
    2.8715    0.5428   -1.9734 O   0  0  0  0  0  0  0  0  0  0  0  0
    3.6788   -0.7952   -0.2154 N   0  0  0  0  0  0  0  0  0  0  0  0
    4.7819    0.0018    0.2361 C   0  0  0  0  0  0  0  0  0  0  0  0
    4.8955    1.3629   -0.1058 C   0  0  0  0  0  0  0  0  0  0  0  0
    5.9708    2.1450    0.3361 C   0  0  0  0  0  0  0  0  0  0  0  0
    6.9523    1.5767    1.1301 C   0  0  0  0  0  0  0  0  0  0  0  0
    7.9805    2.3222    1.5533 F   0  0  0  0  0  0  0  0  0  0  0  0
    6.8762    0.2419    1.4897 C   0  0  0  0  0  0  0  0  0  0  0  0
    5.7993   -0.5372    1.0462 C   0  0  0  0  0  0  0  0  0  0  0  0
    1.4485   -3.0255    0.1965 H   0  0  0  0  0  0  0  0  0  0  0  0
    2.5842   -3.4230   -1.1083 H   0  0  0  0  0  0  0  0  0  0  0  0
    1.6519   -1.8102   -2.3616 H   0  0  0  0  0  0  0  0  0  0  0  0
    0.2895    0.9963   -1.7756 H   0  0  0  0  0  0  0  0  0  0  0  0
    0.0067   -0.3085   -2.9262 H   0  0  0  0  0  0  0  0  0  0  0  0
   -2.0278    1.0694   -2.1729 H   0  0  0  0  0  0  0  0  0  0  0  0
   -2.2038   -0.6698   -2.2660 H   0  0  0  0  0  0  0  0  0  0  0  0
   -2.3451   -1.0105   -0.0209 H   0  0  0  0  0  0  0  0  0  0  0  0
   -5.1477    3.4625    0.2542 H   0  0  0  0  0  0  0  0  0  0  0  0
   -7.4938    2.0154    0.8511 H   0  0  0  0  0  0  0  0  0  0  0  0
   -8.3104   -0.3277    1.1428 H   0  0  0  0  0  0  0  0  0  0  0  0
   -6.7533   -2.2404    0.9036 H   0  0  0  0  0  0  0  0  0  0  0  0
   -4.3558   -1.8716    0.3733 H   0  0  0  0  0  0  0  0  0  0  0  0
   -1.2746    0.3828    1.7360 H   0  0  0  0  0  0  0  0  0  0  0  0
   -0.6817    1.4850    0.5029 H   0  0  0  0  0  0  0  0  0  0  0  0
    1.1379    0.1081    0.7576 H   0  0  0  0  0  0  0  0  0  0  0  0
    0.1764   -1.3224    1.1220 H   0  0  0  0  0  0  0  0  0  0  0  0
    4.1446    1.8704   -0.7052 H   0  0  0  0  0  0  0  0  0  0  0  0
    6.0377    3.1940    0.0641 H   0  0  0  0  0  0  0  0  0  0  0  0
    7.6529   -0.1936    2.1107 H   0  0  0  0  0  0  0  0  0  0  0  0
    5.8055   -1.5820    1.3437 H   0  0  0  0  0  0  0  0  0  0  0  0
  1  2  2  0
  2  3  1  0
  3  4  1  0
  4  5  1  0
  5  6  1  0
  6  7  1  0
  7  8  1  0
  8  9  1  0
  9 10  1  0
 10 11  2  0
 10 12  1  0
 12 13  1  0
 13 14  2  0
 14 15  1  0
 15 16  2  0
 16 17  1  0
 17 18  2  0
  8 19  1  0
 19 20  1  0
  4 21  1  0
 21 22  2  0
 21 23  1  0
 23 24  1  0
 24 25  2  0
 25 26  1  0
 26 27  2  0
 27 28  1  0
 27 29  1  0
 29 30  2  0
 23  2  1  0
 30 24  1  0
 20  5  1  0
 18  9  1  0
 18 13  1  0
  3 31  1  0
  3 32  1  0
  4 33  1  0
  6 34  1  0
  6 35  1  0
  7 36  1  0
  7 37  1  0
  8 38  1  0
 12 39  1  0
 14 40  1  0
 15 41  1  0
 16 42  1  0
 17 43  1  0
 19 44  1  0
 19 45  1  0
 20 46  1  0
 20 47  1  0
 25 48  1  0
 26 49  1  0
 29 50  1  0
 30 51  1  0
M  END
$$$$
