
     RDKit          3D

 42 44  0  0  0  0  0  0  0  0999 V2000
   -6.2721    1.7015    1.7187 C   0  0  0  0  0  0  0  0  0  0  0  0
   -5.5569    0.6035    0.9875 C   0  0  0  0  0  0  0  0  0  0  0  0
   -6.2731   -0.4538    0.4181 C   0  0  0  0  0  0  0  0  0  0  0  0
   -5.6054   -1.4508   -0.2896 C   0  0  0  0  0  0  0  0  0  0  0  0
   -4.2183   -1.3931   -0.4383 C   0  0  0  0  0  0  0  0  0  0  0  0
   -3.4838   -0.3395    0.1195 C   0  0  0  0  0  0  0  0  0  0  0  0
   -2.0891   -0.3425   -0.0925 N   0  0  0  0  0  0  0  0  0  0  0  0
   -1.1462    0.4671    0.5013 C   0  0  0  0  0  0  0  0  0  0  0  0
   -1.3666    1.2455    1.4250 O   0  0  0  0  0  0  0  0  0  0  0  0
    0.1348    0.3266   -0.0279 N   0  0  0  0  0  0  0  0  0  0  0  0
    1.2288    1.0584    0.6144 C   0  0  0  0  0  0  0  0  0  0  0  0
    2.5904    0.3794    0.4103 C   0  0  0  0  0  0  0  0  0  0  0  0
    2.8853    0.0774   -0.9967 N   0  0  0  0  0  0  0  0  0  0  0  0
    4.1694   -0.1266   -1.5167 C   0  0  0  0  0  0  0  0  0  0  0  0
    4.3395   -0.1271   -2.7389 O   0  0  0  0  0  0  0  0  0  0  0  0
    5.2947   -0.3389   -0.6165 C   0  0  0  0  0  0  0  0  0  0  0  0
    6.6537   -0.3120   -0.8850 C   0  0  0  0  0  0  0  0  0  0  0  0
    7.3237   -0.6221    0.3217 C   0  0  0  0  0  0  0  0  0  0  0  0
    6.3400   -0.8375    1.2554 C   0  0  0  0  0  0  0  0  0  0  0  0
    5.1127   -0.6780    0.6989 O   0  0  0  0  0  0  0  0  0  0  0  0
    1.7628    0.1726   -1.9305 C   0  0  0  0  0  0  0  0  0  0  0  0
    0.4457   -0.3140   -1.3122 C   0  0  0  0  0  0  0  0  0  0  0  0
   -4.1635    0.6605    0.8195 C   0  0  0  0  0  0  0  0  0  0  0  0
   -5.6530    2.0963    2.5311 H   0  0  0  0  0  0  0  0  0  0  0  0
   -7.2002    1.3332    2.1683 H   0  0  0  0  0  0  0  0  0  0  0  0
   -6.5134    2.5153    1.0280 H   0  0  0  0  0  0  0  0  0  0  0  0
   -7.3544   -0.5050    0.5224 H   0  0  0  0  0  0  0  0  0  0  0  0
   -6.1658   -2.2723   -0.7281 H   0  0  0  0  0  0  0  0  0  0  0  0
   -3.7236   -2.1833   -0.9962 H   0  0  0  0  0  0  0  0  0  0  0  0
   -1.7260   -1.1384   -0.5902 H   0  0  0  0  0  0  0  0  0  0  0  0
    1.0324    1.1712    1.6863 H   0  0  0  0  0  0  0  0  0  0  0  0
    1.2393    2.0631    0.1741 H   0  0  0  0  0  0  0  0  0  0  0  0
    2.6003   -0.5763    0.9471 H   0  0  0  0  0  0  0  0  0  0  0  0
    3.3745    1.0246    0.8187 H   0  0  0  0  0  0  0  0  0  0  0  0
    7.0934   -0.0938   -1.8493 H   0  0  0  0  0  0  0  0  0  0  0  0
    8.3898   -0.6893    0.4876 H   0  0  0  0  0  0  0  0  0  0  0  0
    6.3477   -1.1039    2.3034 H   0  0  0  0  0  0  0  0  0  0  0  0
    1.9715   -0.4008   -2.8401 H   0  0  0  0  0  0  0  0  0  0  0  0
    1.6778    1.2277   -2.2181 H   0  0  0  0  0  0  0  0  0  0  0  0
    0.5062   -1.3911   -1.1157 H   0  0  0  0  0  0  0  0  0  0  0  0
   -0.3751   -0.1420   -2.0167 H   0  0  0  0  0  0  0  0  0  0  0  0
   -3.6283    1.5062    1.2420 H   0  0  0  0  0  0  0  0  0  0  0  0
  1  2  1  0
  2  3  2  0
  3  4  1  0
  4  5  2  0
  5  6  1  0
  6  7  1  0
  7  8  1  0
  8  9  2  0
  8 10  1  0
 10 11  1  0
 11 12  1  0
 12 13  1  0
 13 14  1  0
 14 15  2  0
 14 16  1  0
 16 17  2  0
 17 18  1  0
 18 19  2  0
 19 20  1  0
 13 21  1  0
 21 22  1  0
  6 23  2  0
 23  2  1  0
 22 10  1  0
 20 16  1  0
  1 24  1  0
  1 25  1  0
  1 26  1  0
  3 27  1  0
  4 28  1  0
  5 29  1  0
  7 30  1  0
 11 31  1  0
 11 32  1  0
 12 33  1  0
 12 34  1  0
 17 35  1  0
 18 36  1  0
 19 37  1  0
 21 38  1  0
 21 39  1  0
 22 40  1  0
 22 41  1  0
 23 42  1  0
M  END
$$$$
