
     RDKit          3D

 29 31  0  0  0  0  0  0  0  0999 V2000
   -2.3540   -3.4772    1.3085 N   0  0  0  0  0  0  0  0  0  0  0  0
   -1.4728   -2.7888    0.9919 C   0  0  0  0  0  0  0  0  0  0  0  0
   -0.4216   -1.9065    0.6083 C   0  0  0  0  0  0  0  0  0  0  0  0
    0.8479   -2.3804    0.3704 N   0  0  0  0  0  0  0  0  0  0  0  0
    1.5341   -1.3046    0.0284 C   0  0  0  0  0  0  0  0  0  0  0  0
    2.9307   -1.3029   -0.3156 C   0  0  0  0  0  0  0  0  0  0  0  0
    3.6930   -0.2054   -0.6720 C   0  0  0  0  0  0  0  0  0  0  0  0
    5.0487   -0.5476   -0.9533 C   0  0  0  0  0  0  0  0  0  0  0  0
    5.2789   -1.8962   -0.8026 C   0  0  0  0  0  0  0  0  0  0  0  0
    3.8686   -2.7376   -0.3258 S   0  0  0  0  0  0  0  0  0  0  0  0
    0.7757   -0.1571    0.0286 O   0  0  0  0  0  0  0  0  0  0  0  0
   -0.4847   -0.5417    0.4044 C   0  0  0  0  0  0  0  0  0  0  0  0
   -1.4262    0.4327    0.4885 N   0  0  0  0  0  0  0  0  0  0  0  0
   -2.7777    0.1850    1.0062 C   0  0  0  0  0  0  0  0  0  0  0  0
   -3.4225    1.5043    1.4643 C   0  0  0  0  0  0  0  0  0  0  0  0
   -3.5175    2.4959    0.4332 O   0  0  0  0  0  0  0  0  0  0  0  0
   -2.4750    2.4056   -0.5476 C   0  0  0  0  0  0  0  0  0  0  0  0
   -1.1697    1.7875   -0.0208 C   0  0  0  0  0  0  0  0  0  0  0  0
    3.2967    0.8018   -0.7286 H   0  0  0  0  0  0  0  0  0  0  0  0
    5.8144    0.1590   -1.2501 H   0  0  0  0  0  0  0  0  0  0  0  0
    6.2072   -2.4318   -0.9487 H   0  0  0  0  0  0  0  0  0  0  0  0
   -2.7508   -0.4936    1.8651 H   0  0  0  0  0  0  0  0  0  0  0  0
   -3.3838   -0.2693    0.2139 H   0  0  0  0  0  0  0  0  0  0  0  0
   -4.4349    1.3186    1.8370 H   0  0  0  0  0  0  0  0  0  0  0  0
   -2.8468    1.9402    2.2896 H   0  0  0  0  0  0  0  0  0  0  0  0
   -2.8623    1.8130   -1.3849 H   0  0  0  0  0  0  0  0  0  0  0  0
   -2.2885    3.4169   -0.9230 H   0  0  0  0  0  0  0  0  0  0  0  0
   -0.7683    2.3987    0.7958 H   0  0  0  0  0  0  0  0  0  0  0  0
   -0.4391    1.7814   -0.8379 H   0  0  0  0  0  0  0  0  0  0  0  0
  1  2  3  0
  2  3  1  0
  3  4  1  0
  4  5  2  0
  5  6  1  0
  6  7  2  0
  7  8  1  0
  8  9  2  0
  9 10  1  0
  5 11  1  0
 11 12  1  0
 12 13  1  0
 13 14  1  0
 14 15  1  0
 15 16  1  0
 16 17  1  0
 17 18  1  0
 12  3  2  0
 18 13  1  0
 10  6  1  0
  7 19  1  0
  8 20  1  0
  9 21  1  0
 14 22  1  0
 14 23  1  0
 15 24  1  0
 15 25  1  0
 17 26  1  0
 17 27  1  0
 18 28  1  0
 18 29  1  0
M  END
$$$$
