
     RDKit          3D

 42 43  0  0  0  0  0  0  0  0999 V2000
    5.1014    0.3051   -1.5471 C   0  0  0  0  0  0  0  0  0  0  0  0
    3.8193    0.3741   -2.1721 O   0  0  0  0  0  0  0  0  0  0  0  0
    2.8414   -0.0749   -1.3193 C   0  0  0  0  0  0  0  0  0  0  0  0
    2.3026   -1.3359   -1.5925 C   0  0  0  0  0  0  0  0  0  0  0  0
    1.2749   -1.8391   -0.7990 C   0  0  0  0  0  0  0  0  0  0  0  0
    0.7797   -1.0579    0.2475 C   0  0  0  0  0  0  0  0  0  0  0  0
   -0.5333   -1.6832    1.2780 S   0  0  0  0  0  6  0  0  0  0  0  0
   -0.3744   -1.0802    2.5846 O   0  0  0  0  0  0  0  0  0  0  0  0
   -0.5442   -3.1279    1.1355 O   0  0  0  0  0  0  0  0  0  0  0  0
   -1.9447   -1.0775    0.5376 N   0  0  0  0  0  0  0  0  0  0  0  0
   -2.4412   -1.7988   -0.6593 C   0  0  0  0  0  0  0  0  0  0  0  0
   -3.4765   -2.8289   -0.2318 C   0  0  0  0  0  0  0  0  0  0  0  0
   -2.9872   -4.0131    0.2426 N   0  0  0  0  0  0  0  0  0  0  0  0
   -4.6867   -2.6402   -0.3145 O   0  0  0  0  0  0  0  0  0  0  0  0
   -2.1479    0.3427    0.5953 C   0  0  0  0  0  0  0  0  0  0  0  0
   -1.7796    1.1791   -0.4646 C   0  0  0  0  0  0  0  0  0  0  0  0
   -1.9156    2.5647   -0.3443 C   0  0  0  0  0  0  0  0  0  0  0  0
   -2.4089    3.1132    0.8384 C   0  0  0  0  0  0  0  0  0  0  0  0
   -2.5594    4.8195    0.9902 Cl  0  0  0  0  0  0  0  0  0  0  0  0
   -2.7658    2.2879    1.9023 C   0  0  0  0  0  0  0  0  0  0  0  0
   -2.6305    0.9030    1.7808 C   0  0  0  0  0  0  0  0  0  0  0  0
    1.3266    0.2031    0.5324 C   0  0  0  0  0  0  0  0  0  0  0  0
    2.3459    0.7178   -0.2701 C   0  0  0  0  0  0  0  0  0  0  0  0
    2.9057    1.9583   -0.1211 O   0  0  0  0  0  0  0  0  0  0  0  0
    2.3377    2.8236    0.8551 C   0  0  0  0  0  0  0  0  0  0  0  0
    5.1956    1.0287   -0.7311 H   0  0  0  0  0  0  0  0  0  0  0  0
    5.8538    0.5542   -2.3019 H   0  0  0  0  0  0  0  0  0  0  0  0
    5.3104   -0.7074   -1.1827 H   0  0  0  0  0  0  0  0  0  0  0  0
    2.6935   -1.9217   -2.4210 H   0  0  0  0  0  0  0  0  0  0  0  0
    0.8741   -2.8283   -1.0048 H   0  0  0  0  0  0  0  0  0  0  0  0
   -1.6325   -2.2939   -1.2055 H   0  0  0  0  0  0  0  0  0  0  0  0
   -2.9276   -1.1267   -1.3748 H   0  0  0  0  0  0  0  0  0  0  0  0
   -3.6674   -4.6398    0.6533 H   0  0  0  0  0  0  0  0  0  0  0  0
   -2.0488   -4.0419    0.6442 H   0  0  0  0  0  0  0  0  0  0  0  0
   -1.3710    0.7725   -1.3861 H   0  0  0  0  0  0  0  0  0  0  0  0
   -1.6288    3.2092   -1.1717 H   0  0  0  0  0  0  0  0  0  0  0  0
   -3.1450    2.7117    2.8287 H   0  0  0  0  0  0  0  0  0  0  0  0
   -2.8997    0.2637    2.6190 H   0  0  0  0  0  0  0  0  0  0  0  0
    0.9308    0.7667    1.3722 H   0  0  0  0  0  0  0  0  0  0  0  0
    1.2783    3.0112    0.6510 H   0  0  0  0  0  0  0  0  0  0  0  0
    2.8620    3.7824    0.7969 H   0  0  0  0  0  0  0  0  0  0  0  0
    2.4831    2.4252    1.8646 H   0  0  0  0  0  0  0  0  0  0  0  0
  1  2  1  0
  2  3  1  0
  3  4  2  0
  4  5  1  0
  5  6  2  0
  6  7  1  0
  7  8  2  0
  7  9  2  0
  7 10  1  0
 10 11  1  0
 11 12  1  0
 12 13  1  0
 12 14  2  0
 10 15  1  0
 15 16  2  0
 16 17  1  0
 17 18  2  0
 18 19  1  0
 18 20  1  0
 20 21  2  0
  6 22  1  0
 22 23  2  0
 23 24  1  0
 24 25  1  0
 23  3  1  0
 21 15  1  0
  1 26  1  0
  1 27  1  0
  1 28  1  0
  4 29  1  0
  5 30  1  0
 11 31  1  0
 11 32  1  0
 13 33  1  0
 13 34  1  0
 16 35  1  0
 17 36  1  0
 20 37  1  0
 21 38  1  0
 22 39  1  0
 25 40  1  0
 25 41  1  0
 25 42  1  0
M  END
$$$$
