
     RDKit          3D

 48 50  0  0  0  0  0  0  0  0999 V2000
   -5.6591   -2.5156    0.2089 C   0  0  0  0  0  0  0  0  0  0  0  0
   -4.3542   -2.5772    0.7716 O   0  0  0  0  0  0  0  0  0  0  0  0
   -3.3678   -3.0399   -0.1535 C   0  0  0  0  0  0  0  0  0  0  0  0
   -2.8005   -1.9066   -1.0107 C   0  0  0  0  0  0  0  0  0  0  0  0
   -2.0244   -0.9541   -0.2332 N   0  0  0  0  0  0  0  0  0  0  0  0
   -0.7031   -1.0645    0.1490 C   0  0  0  0  0  0  0  0  0  0  0  0
    0.3044   -2.3992   -0.3092 S   0  0  0  0  0  0  0  0  0  0  0  0
    1.8349   -2.0614    0.6186 C   0  0  0  0  0  0  0  0  0  0  0  0
    2.9013   -1.3298   -0.1992 C   0  0  0  0  0  0  0  0  0  0  0  0
    2.5630    0.1293   -0.5120 C   0  0  0  0  0  0  0  0  0  0  0  0
    3.7263    0.8363   -1.1674 C   0  0  0  0  0  0  0  0  0  0  0  0
    4.6728    1.5148   -0.3871 C   0  0  0  0  0  0  0  0  0  0  0  0
    5.7590    2.1529   -0.9878 C   0  0  0  0  0  0  0  0  0  0  0  0
    5.9113    2.1156   -2.3730 C   0  0  0  0  0  0  0  0  0  0  0  0
    4.9781    1.4394   -3.1577 C   0  0  0  0  0  0  0  0  0  0  0  0
    3.8910    0.8004   -2.5587 C   0  0  0  0  0  0  0  0  0  0  0  0
   -0.3132   -0.0420    0.8805 N   0  0  0  0  0  0  0  0  0  0  0  0
   -1.4087    0.7570    0.9578 C   0  0  0  0  0  0  0  0  0  0  0  0
   -2.4725    0.2415    0.2707 C   0  0  0  0  0  0  0  0  0  0  0  0
   -3.7212    0.9186    0.1905 C   0  0  0  0  0  0  0  0  0  0  0  0
   -4.6935    0.5557   -0.4624 O   0  0  0  0  0  0  0  0  0  0  0  0
   -3.7330    2.0906    0.9151 N   0  0  0  0  0  0  0  0  0  0  0  0
   -2.6852    2.6567    1.6161 C   0  0  0  0  0  0  0  0  0  0  0  0
   -2.8620    3.7365    2.1804 O   0  0  0  0  0  0  0  0  0  0  0  0
   -1.4829    1.9592    1.6290 N   0  0  0  0  0  0  0  0  0  0  0  0
   -0.3331    2.4777    2.3442 C   0  0  0  0  0  0  0  0  0  0  0  0
   -6.0163   -3.5237   -0.0184 H   0  0  0  0  0  0  0  0  0  0  0  0
   -6.3298   -2.0668    0.9466 H   0  0  0  0  0  0  0  0  0  0  0  0
   -5.6747   -1.9052   -0.6969 H   0  0  0  0  0  0  0  0  0  0  0  0
   -2.5721   -3.5016    0.4404 H   0  0  0  0  0  0  0  0  0  0  0  0
   -3.7900   -3.8273   -0.7904 H   0  0  0  0  0  0  0  0  0  0  0  0
   -2.1471   -2.3106   -1.7911 H   0  0  0  0  0  0  0  0  0  0  0  0
   -3.5914   -1.3568   -1.5257 H   0  0  0  0  0  0  0  0  0  0  0  0
    2.2387   -3.0418    0.8980 H   0  0  0  0  0  0  0  0  0  0  0  0
    1.6285   -1.5392    1.5588 H   0  0  0  0  0  0  0  0  0  0  0  0
    3.1067   -1.8792   -1.1271 H   0  0  0  0  0  0  0  0  0  0  0  0
    3.8359   -1.3596    0.3778 H   0  0  0  0  0  0  0  0  0  0  0  0
    1.6918    0.1992   -1.1736 H   0  0  0  0  0  0  0  0  0  0  0  0
    2.2962    0.6619    0.4097 H   0  0  0  0  0  0  0  0  0  0  0  0
    4.5680    1.5493    0.6949 H   0  0  0  0  0  0  0  0  0  0  0  0
    6.4866    2.6775   -0.3748 H   0  0  0  0  0  0  0  0  0  0  0  0
    6.7578    2.6125   -2.8400 H   0  0  0  0  0  0  0  0  0  0  0  0
    5.0976    1.4088   -4.2377 H   0  0  0  0  0  0  0  0  0  0  0  0
    3.1719    0.2743   -3.1829 H   0  0  0  0  0  0  0  0  0  0  0  0
   -4.5879    2.6228    0.8964 H   0  0  0  0  0  0  0  0  0  0  0  0
   -0.5526    3.4371    2.8196 H   0  0  0  0  0  0  0  0  0  0  0  0
   -0.0413    1.7616    3.1183 H   0  0  0  0  0  0  0  0  0  0  0  0
    0.4957    2.6151    1.6417 H   0  0  0  0  0  0  0  0  0  0  0  0
  1  2  1  0
  2  3  1  0
  3  4  1  0
  4  5  1  0
  5  6  1  0
  6  7  1  0
  7  8  1  0
  8  9  1  0
  9 10  1  0
 10 11  1  0
 11 12  2  0
 12 13  1  0
 13 14  2  0
 14 15  1  0
 15 16  2  0
  6 17  2  0
 17 18  1  0
 18 19  2  0
 19 20  1  0
 20 21  2  0
 20 22  1  0
 22 23  1  0
 23 24  2  0
 23 25  1  0
 25 26  1  0
 19  5  1  0
 16 11  1  0
 25 18  1  0
  1 27  1  0
  1 28  1  0
  1 29  1  0
  3 30  1  0
  3 31  1  0
  4 32  1  0
  4 33  1  0
  8 34  1  0
  8 35  1  0
  9 36  1  0
  9 37  1  0
 10 38  1  0
 10 39  1  0
 12 40  1  0
 13 41  1  0
 14 42  1  0
 15 43  1  0
 16 44  1  0
 22 45  1  0
 26 46  1  0
 26 47  1  0
 26 48  1  0
M  END
$$$$
