
     RDKit          3D

 33 35  0  0  0  0  0  0  0  0999 V2000
   -5.8138    1.2638    0.4296 C   0  0  0  0  0  0  0  0  0  0  0  0
   -4.4307    0.7341    0.1953 C   0  0  0  0  0  0  0  0  0  0  0  0
   -4.2329   -0.6030   -0.1582 C   0  0  0  0  0  0  0  0  0  0  0  0
   -2.9404   -1.1068   -0.3493 C   0  0  0  0  0  0  0  0  0  0  0  0
   -1.8159   -0.2914   -0.1784 C   0  0  0  0  0  0  0  0  0  0  0  0
   -0.5118   -0.7965   -0.3612 N   0  0  0  0  0  0  0  0  0  0  0  0
    0.6151    0.0127   -0.1339 N   0  0  0  0  0  0  0  0  0  0  0  0
    1.7215   -0.7794   -0.4118 C   0  0  0  0  0  0  0  0  0  0  0  0
    3.0826   -0.2766   -0.1852 C   0  0  0  0  0  0  0  0  0  0  0  0
    4.1177   -1.1293    0.2268 C   0  0  0  0  0  0  0  0  0  0  0  0
    5.4044   -0.6332    0.4556 C   0  0  0  0  0  0  0  0  0  0  0  0
    5.6727    0.7219    0.2776 C   0  0  0  0  0  0  0  0  0  0  0  0
    4.6559    1.5824   -0.1279 C   0  0  0  0  0  0  0  0  0  0  0  0
    3.3693    1.0867   -0.3553 C   0  0  0  0  0  0  0  0  0  0  0  0
    1.3889   -1.9949   -0.8670 C   0  0  0  0  0  0  0  0  0  0  0  0
   -0.0918   -2.0397   -0.8345 C   0  0  0  0  0  0  0  0  0  0  0  0
   -0.7225   -3.0284   -1.1689 O   0  0  0  0  0  0  0  0  0  0  0  0
   -2.0231    1.0476    0.1865 C   0  0  0  0  0  0  0  0  0  0  0  0
   -3.3143    1.5537    0.3771 C   0  0  0  0  0  0  0  0  0  0  0  0
   -6.0967    1.1210    1.4771 H   0  0  0  0  0  0  0  0  0  0  0  0
   -6.5419    0.7504   -0.2071 H   0  0  0  0  0  0  0  0  0  0  0  0
   -5.8692    2.3310    0.1903 H   0  0  0  0  0  0  0  0  0  0  0  0
   -5.0830   -1.2689   -0.2918 H   0  0  0  0  0  0  0  0  0  0  0  0
   -2.8412   -2.1527   -0.6271 H   0  0  0  0  0  0  0  0  0  0  0  0
    0.6599    0.3659    0.8234 H   0  0  0  0  0  0  0  0  0  0  0  0
    3.9356   -2.1896    0.3861 H   0  0  0  0  0  0  0  0  0  0  0  0
    6.1965   -1.3060    0.7747 H   0  0  0  0  0  0  0  0  0  0  0  0
    6.6740    1.1067    0.4537 H   0  0  0  0  0  0  0  0  0  0  0  0
    4.8630    2.6398   -0.2721 H   0  0  0  0  0  0  0  0  0  0  0  0
    2.5933    1.7752   -0.6846 H   0  0  0  0  0  0  0  0  0  0  0  0
    2.0037   -2.8206   -1.1702 H   0  0  0  0  0  0  0  0  0  0  0  0
   -1.1862    1.7282    0.3131 H   0  0  0  0  0  0  0  0  0  0  0  0
   -3.4391    2.5961    0.6617 H   0  0  0  0  0  0  0  0  0  0  0  0
  1  2  1  0
  2  3  2  0
  3  4  1  0
  4  5  2  0
  5  6  1  0
  6  7  1  0
  7  8  1  0
  8  9  1  0
  9 10  2  0
 10 11  1  0
 11 12  2  0
 12 13  1  0
 13 14  2  0
  8 15  2  0
 15 16  1  0
 16 17  2  0
  5 18  1  0
 18 19  2  0
 19  2  1  0
 16  6  1  0
 14  9  1  0
  1 20  1  0
  1 21  1  0
  1 22  1  0
  3 23  1  0
  4 24  1  0
  7 25  1  0
 10 26  1  0
 11 27  1  0
 12 28  1  0
 13 29  1  0
 14 30  1  0
 15 31  1  0
 18 32  1  0
 19 33  1  0
M  END
$$$$
