
     RDKit          3D

 48 51  0  0  0  0  0  0  0  0999 V2000
   -5.0123    1.8197    1.1838 C   0  0  0  0  0  0  0  0  0  0  0  0
   -6.0228    0.8703    0.6527 C   0  0  0  0  0  0  0  0  0  0  0  0
   -7.3032    0.9611    0.9711 N   0  0  0  0  0  0  0  0  0  0  0  0
   -7.9509    0.0261    0.2237 C   0  0  0  0  0  0  0  0  0  0  0  0
   -7.0606   -0.6582   -0.5581 C   0  0  0  0  0  0  0  0  0  0  0  0
   -5.8017   -0.1618   -0.2604 N   0  0  0  0  0  0  0  0  0  0  0  0
   -4.6035   -0.6808   -0.8491 C   0  0  0  0  0  0  0  0  0  0  0  0
   -3.3469   -0.3320   -0.3949 C   0  0  0  0  0  0  0  0  0  0  0  0
   -2.2441   -0.8855   -1.0327 C   0  0  0  0  0  0  0  0  0  0  0  0
   -0.9506   -0.5792   -0.6028 N   0  0  0  0  0  0  0  0  0  0  0  0
    0.1301   -1.3575   -1.2295 C   0  0  0  0  0  0  0  0  0  0  0  0
    1.4640   -1.0964   -0.5061 C   0  0  0  0  0  0  0  0  0  0  0  0
    1.8045    0.3295   -0.4027 N   0  0  0  0  0  0  0  0  0  0  0  0
    3.0853    0.8287   -0.1892 C   0  0  0  0  0  0  0  0  0  0  0  0
    3.3429    2.0142   -0.3784 O   0  0  0  0  0  0  0  0  0  0  0  0
    3.9890   -0.1120    0.2536 N   0  0  0  0  0  0  0  0  0  0  0  0
    5.3780    0.0490    0.4345 C   0  0  0  0  0  0  0  0  0  0  0  0
    6.0629   -0.9831    1.0909 C   0  0  0  0  0  0  0  0  0  0  0  0
    7.4436   -0.9040    1.2986 C   0  0  0  0  0  0  0  0  0  0  0  0
    8.1478    0.2074    0.8447 C   0  0  0  0  0  0  0  0  0  0  0  0
    9.8459    0.3069    1.0977 Cl  0  0  0  0  0  0  0  0  0  0  0  0
    7.4823    1.2353    0.1837 C   0  0  0  0  0  0  0  0  0  0  0  0
    6.1003    1.1540   -0.0233 C   0  0  0  0  0  0  0  0  0  0  0  0
    0.7491    1.2668   -0.7922 C   0  0  0  0  0  0  0  0  0  0  0  0
   -0.6472    0.8366   -0.3042 C   0  0  0  0  0  0  0  0  0  0  0  0
   -2.4018   -1.7617   -2.0376 N   0  0  0  0  0  0  0  0  0  0  0  0
   -3.6524   -2.0570   -2.4053 C   0  0  0  0  0  0  0  0  0  0  0  0
   -4.7664   -1.5605   -1.8624 N   0  0  0  0  0  0  0  0  0  0  0  0
   -5.5128    2.6698    1.6610 H   0  0  0  0  0  0  0  0  0  0  0  0
   -4.3916    1.3433    1.9478 H   0  0  0  0  0  0  0  0  0  0  0  0
   -4.3849    2.2285    0.3866 H   0  0  0  0  0  0  0  0  0  0  0  0
   -9.0239   -0.1033    0.2816 H   0  0  0  0  0  0  0  0  0  0  0  0
   -7.2005   -1.4598   -1.2698 H   0  0  0  0  0  0  0  0  0  0  0  0
   -3.1823    0.2981    0.4615 H   0  0  0  0  0  0  0  0  0  0  0  0
    0.2265   -1.0848   -2.2887 H   0  0  0  0  0  0  0  0  0  0  0  0
   -0.0787   -2.4330   -1.1702 H   0  0  0  0  0  0  0  0  0  0  0  0
    2.2724   -1.6245   -1.0235 H   0  0  0  0  0  0  0  0  0  0  0  0
    1.4086   -1.4806    0.5195 H   0  0  0  0  0  0  0  0  0  0  0  0
    3.5877   -0.9438    0.6547 H   0  0  0  0  0  0  0  0  0  0  0  0
    5.5340   -1.8608    1.4532 H   0  0  0  0  0  0  0  0  0  0  0  0
    7.9599   -1.7101    1.8129 H   0  0  0  0  0  0  0  0  0  0  0  0
    8.0266    2.1040   -0.1772 H   0  0  0  0  0  0  0  0  0  0  0  0
    5.6179    1.9697   -0.5538 H   0  0  0  0  0  0  0  0  0  0  0  0
    0.7634    1.3225   -1.8879 H   0  0  0  0  0  0  0  0  0  0  0  0
    0.9691    2.2713   -0.4145 H   0  0  0  0  0  0  0  0  0  0  0  0
   -1.3808    1.5158   -0.7564 H   0  0  0  0  0  0  0  0  0  0  0  0
   -0.7003    0.9663    0.7835 H   0  0  0  0  0  0  0  0  0  0  0  0
   -3.7720   -2.7644   -3.2183 H   0  0  0  0  0  0  0  0  0  0  0  0
  1  2  1  0
  2  3  2  0
  3  4  1  0
  4  5  2  0
  5  6  1  0
  6  7  1  0
  7  8  2  0
  8  9  1  0
  9 10  1  0
 10 11  1  0
 11 12  1  0
 12 13  1  0
 13 14  1  0
 14 15  2  0
 14 16  1  0
 16 17  1  0
 17 18  2  0
 18 19  1  0
 19 20  2  0
 20 21  1  0
 20 22  1  0
 22 23  2  0
 13 24  1  0
 24 25  1  0
  9 26  2  0
 26 27  1  0
 27 28  2  0
  6  2  1  0
 28  7  1  0
 25 10  1  0
 23 17  1  0
  1 29  1  0
  1 30  1  0
  1 31  1  0
  4 32  1  0
  5 33  1  0
  8 34  1  0
 11 35  1  0
 11 36  1  0
 12 37  1  0
 12 38  1  0
 16 39  1  0
 18 40  1  0
 19 41  1  0
 22 42  1  0
 23 43  1  0
 24 44  1  0
 24 45  1  0
 25 46  1  0
 25 47  1  0
 27 48  1  0
M  END
$$$$
