
     RDKit          3D

 52 54  0  0  0  0  0  0  0  0999 V2000
   -0.1930    0.6682    1.4151 O   0  0  0  0  0  0  0  0  0  0  0  0
   -0.1866   -0.5518    1.2872 C   0  0  0  0  0  0  0  0  0  0  0  0
   -1.3331   -1.3127    1.2952 N   0  0  0  0  0  0  0  0  0  0  0  0
   -2.6527   -0.7159    1.4104 C   0  0  0  0  0  0  0  0  0  0  0  0
   -3.1615   -0.1837    0.0645 C   0  0  0  0  0  0  0  0  0  0  0  0
   -4.5647    0.3959    0.0285 C   0  0  0  0  0  0  0  0  0  0  0  0
   -5.3943    0.4788    1.0865 C   0  0  0  0  0  0  0  0  0  0  0  0
   -6.7622    1.0994    1.0359 C   0  0  0  0  0  0  0  0  0  0  0  0
   -7.0106    1.9171   -0.2299 C   0  0  0  0  0  0  0  0  0  0  0  0
   -6.4853    1.1879   -1.4589 C   0  0  0  0  0  0  0  0  0  0  0  0
   -4.9860    0.9083   -1.3347 C   0  0  0  0  0  0  0  0  0  0  0  0
    1.1120   -1.2574    1.1054 C   0  0  0  0  0  0  0  0  0  0  0  0
    2.2938   -0.5087    1.2311 C   0  0  0  0  0  0  0  0  0  0  0  0
    3.5367   -1.1215    1.0356 C   0  0  0  0  0  0  0  0  0  0  0  0
    5.0294   -0.1737    1.2415 S   0  0  0  0  0  6  0  0  0  0  0  0
    4.7191    0.9215    2.1379 O   0  0  0  0  0  0  0  0  0  0  0  0
    6.0802   -1.1171    1.5733 O   0  0  0  0  0  0  0  0  0  0  0  0
    5.4292    0.5213   -0.3328 C   0  0  0  0  0  0  0  0  0  0  0  0
    5.6034   -0.5075   -1.4507 C   0  0  0  0  0  0  0  0  0  0  0  0
    5.8446    0.3085   -2.7128 C   0  0  0  0  0  0  0  0  0  0  0  0
    4.7502    1.7117   -2.5643 S   0  0  0  0  0  6  0  0  0  0  0  0
    5.5196    2.9183   -2.7733 O   0  0  0  0  0  0  0  0  0  0  0  0
    3.5352    1.4193   -3.2939 O   0  0  0  0  0  0  0  0  0  0  0  0
    4.4111    1.5387   -0.8225 C   0  0  0  0  0  0  0  0  0  0  0  0
    3.6188   -2.4907    0.7647 C   0  0  0  0  0  0  0  0  0  0  0  0
    2.4464   -3.2366    0.6439 C   0  0  0  0  0  0  0  0  0  0  0  0
    1.2055   -2.6195    0.8086 C   0  0  0  0  0  0  0  0  0  0  0  0
    0.1070   -3.3783    0.6752 F   0  0  0  0  0  0  0  0  0  0  0  0
   -1.2779   -2.3094    1.1165 H   0  0  0  0  0  0  0  0  0  0  0  0
   -2.6074    0.0911    2.1505 H   0  0  0  0  0  0  0  0  0  0  0  0
   -3.3146   -1.5002    1.7930 H   0  0  0  0  0  0  0  0  0  0  0  0
   -3.1139   -1.0025   -0.6659 H   0  0  0  0  0  0  0  0  0  0  0  0
   -2.4665    0.5870   -0.2938 H   0  0  0  0  0  0  0  0  0  0  0  0
   -5.0995    0.1021    2.0620 H   0  0  0  0  0  0  0  0  0  0  0  0
   -6.8992    1.7465    1.9098 H   0  0  0  0  0  0  0  0  0  0  0  0
   -7.5063    0.2975    1.1114 H   0  0  0  0  0  0  0  0  0  0  0  0
   -8.0828    2.1164   -0.3372 H   0  0  0  0  0  0  0  0  0  0  0  0
   -6.5125    2.8913   -0.1434 H   0  0  0  0  0  0  0  0  0  0  0  0
   -6.6759    1.7817   -2.3600 H   0  0  0  0  0  0  0  0  0  0  0  0
   -7.0271    0.2412   -1.5808 H   0  0  0  0  0  0  0  0  0  0  0  0
   -4.4270    1.8291   -1.5437 H   0  0  0  0  0  0  0  0  0  0  0  0
   -4.7085    0.1816   -2.1078 H   0  0  0  0  0  0  0  0  0  0  0  0
    2.2346    0.5485    1.4918 H   0  0  0  0  0  0  0  0  0  0  0  0
    6.3901    1.0329   -0.1818 H   0  0  0  0  0  0  0  0  0  0  0  0
    6.4318   -1.1961   -1.2577 H   0  0  0  0  0  0  0  0  0  0  0  0
    4.6956   -1.1081   -1.5749 H   0  0  0  0  0  0  0  0  0  0  0  0
    5.6148   -0.2472   -3.6241 H   0  0  0  0  0  0  0  0  0  0  0  0
    6.8713    0.6841   -2.7499 H   0  0  0  0  0  0  0  0  0  0  0  0
    3.3801    1.1923   -0.7270 H   0  0  0  0  0  0  0  0  0  0  0  0
    4.5176    2.5086   -0.3308 H   0  0  0  0  0  0  0  0  0  0  0  0
    4.5824   -2.9865    0.6588 H   0  0  0  0  0  0  0  0  0  0  0  0
    2.4889   -4.3016    0.4306 H   0  0  0  0  0  0  0  0  0  0  0  0
  1  2  2  0
  2  3  1  0
  3  4  1  0
  4  5  1  0
  5  6  1  0
  6  7  2  0
  7  8  1  0
  8  9  1  0
  9 10  1  0
 10 11  1  0
  2 12  1  0
 12 13  2  0
 13 14  1  0
 14 15  1  0
 15 16  2  0
 15 17  2  0
 15 18  1  0
 18 19  1  0
 19 20  1  0
 20 21  1  0
 21 22  2  0
 21 23  2  0
 21 24  1  0
 14 25  2  0
 25 26  1  0
 26 27  2  0
 27 28  1  0
 11  6  1  0
 27 12  1  0
 24 18  1  0
  3 29  1  0
  4 30  1  0
  4 31  1  0
  5 32  1  0
  5 33  1  0
  7 34  1  0
  8 35  1  0
  8 36  1  0
  9 37  1  0
  9 38  1  0
 10 39  1  0
 10 40  1  0
 11 41  1  0
 11 42  1  0
 13 43  1  0
 18 44  1  0
 19 45  1  0
 19 46  1  0
 20 47  1  0
 20 48  1  0
 24 49  1  0
 24 50  1  0
 25 51  1  0
 26 52  1  0
M  END
$$$$
