
     RDKit          3D

 37 39  0  0  0  0  0  0  0  0999 V2000
   -2.2310    0.4492   -2.1939 O   0  0  0  0  0  0  0  0  0  0  0  0
   -1.8444    0.3756   -1.0354 C   0  0  0  0  0  0  0  0  0  0  0  0
   -0.5442    0.6576   -0.6672 N   0  0  0  0  0  0  0  0  0  0  0  0
    0.4594    0.8988   -1.6888 C   0  0  0  0  0  0  0  0  0  0  0  0
    1.7723    1.4225   -1.1027 C   0  0  0  0  0  0  0  0  0  0  0  0
    2.4016    0.4575   -0.1410 C   0  0  0  0  0  0  0  0  0  0  0  0
    1.7480   -0.4276    0.5979 N   0  0  0  0  0  0  0  0  0  0  0  0
    2.7036   -1.0906    1.3234 C   0  0  0  0  0  0  0  0  0  0  0  0
    3.9546   -0.5967    1.0483 C   0  0  0  0  0  0  0  0  0  0  0  0
    5.2810   -0.8690    1.4817 C   0  0  0  0  0  0  0  0  0  0  0  0
    6.2984   -0.1393    0.9843 C   0  0  0  0  0  0  0  0  0  0  0  0
    6.0727    0.9213    0.0147 C   0  0  0  0  0  0  0  0  0  0  0  0
    4.8182    1.1724   -0.3980 C   0  0  0  0  0  0  0  0  0  0  0  0
    3.7635    0.4124    0.1130 N   0  0  0  0  0  0  0  0  0  0  0  0
   -2.5948    0.0460    0.0716 N   0  0  0  0  0  0  0  0  0  0  0  0
   -3.9453   -0.3459    0.1166 C   0  0  0  0  0  0  0  0  0  0  0  0
   -4.5155   -0.5353    1.3829 C   0  0  0  0  0  0  0  0  0  0  0  0
   -5.8507   -0.9301    1.5122 C   0  0  0  0  0  0  0  0  0  0  0  0
   -6.6219   -1.1399    0.3727 C   0  0  0  0  0  0  0  0  0  0  0  0
   -8.2644   -1.6260    0.5281 Cl  0  0  0  0  0  0  0  0  0  0  0  0
   -6.0674   -0.9596   -0.8910 C   0  0  0  0  0  0  0  0  0  0  0  0
   -4.7305   -0.5645   -1.0179 C   0  0  0  0  0  0  0  0  0  0  0  0
   -0.1888    0.0887    0.0976 H   0  0  0  0  0  0  0  0  0  0  0  0
    0.6192   -0.0451   -2.2240 H   0  0  0  0  0  0  0  0  0  0  0  0
    0.0585    1.6241   -2.4060 H   0  0  0  0  0  0  0  0  0  0  0  0
    2.4536    1.6282   -1.9353 H   0  0  0  0  0  0  0  0  0  0  0  0
    1.5933    2.3682   -0.5774 H   0  0  0  0  0  0  0  0  0  0  0  0
    2.4392   -1.8859    2.0082 H   0  0  0  0  0  0  0  0  0  0  0  0
    5.4603   -1.6574    2.2059 H   0  0  0  0  0  0  0  0  0  0  0  0
    7.3206   -0.3273    1.2994 H   0  0  0  0  0  0  0  0  0  0  0  0
    6.9229    1.4857   -0.3529 H   0  0  0  0  0  0  0  0  0  0  0  0
    4.5884    1.9490   -1.1148 H   0  0  0  0  0  0  0  0  0  0  0  0
   -2.1285    0.1936    0.9543 H   0  0  0  0  0  0  0  0  0  0  0  0
   -3.9300   -0.3773    2.2850 H   0  0  0  0  0  0  0  0  0  0  0  0
   -6.2789   -1.0709    2.5008 H   0  0  0  0  0  0  0  0  0  0  0  0
   -6.6630   -1.1236   -1.7850 H   0  0  0  0  0  0  0  0  0  0  0  0
   -4.3302   -0.4389   -2.0195 H   0  0  0  0  0  0  0  0  0  0  0  0
  1  2  2  0
  2  3  1  0
  3  4  1  0
  4  5  1  0
  5  6  1  0
  6  7  2  0
  7  8  1  0
  8  9  2  0
  9 10  1  0
 10 11  2  0
 11 12  1  0
 12 13  2  0
 13 14  1  0
  2 15  1  0
 15 16  1  0
 16 17  2  0
 17 18  1  0
 18 19  2  0
 19 20  1  0
 19 21  1  0
 21 22  2  0
 14  6  1  0
 22 16  1  0
 14  9  1  0
  3 23  1  0
  4 24  1  0
  4 25  1  0
  5 26  1  0
  5 27  1  0
  8 28  1  0
 10 29  1  0
 11 30  1  0
 12 31  1  0
 13 32  1  0
 15 33  1  0
 17 34  1  0
 18 35  1  0
 21 36  1  0
 22 37  1  0
M  END
$$$$
