
     RDKit          3D

 54 56  0  0  0  0  0  0  0  0999 V2000
    2.2584   -0.8399   -1.5214 C   0  0  0  0  0  0  0  0  0  0  0  0
    2.4983   -1.0397   -0.0471 C   0  0  0  0  0  0  0  0  0  0  0  0
    1.6870   -1.9057    0.7163 C   0  0  0  0  0  0  0  0  0  0  0  0
    0.4747   -2.5518    0.1530 C   0  0  0  0  0  0  0  0  0  0  0  0
    0.3875   -3.7710    0.1812 O   0  0  0  0  0  0  0  0  0  0  0  0
   -0.4588   -1.6439   -0.2962 N   0  0  0  0  0  0  0  0  0  0  0  0
   -1.6713   -1.8922   -0.9801 C   0  0  0  0  0  0  0  0  0  0  0  0
   -2.0556   -3.1727   -1.3887 C   0  0  0  0  0  0  0  0  0  0  0  0
   -3.2265   -3.3631   -2.1311 C   0  0  0  0  0  0  0  0  0  0  0  0
   -4.0217   -2.2763   -2.4864 C   0  0  0  0  0  0  0  0  0  0  0  0
   -3.6621   -0.9943   -2.0775 C   0  0  0  0  0  0  0  0  0  0  0  0
   -2.5127   -0.8037   -1.2973 C   0  0  0  0  0  0  0  0  0  0  0  0
   -2.1591    0.5671   -0.8452 C   0  0  0  0  0  0  0  0  0  0  0  0
   -1.0141    0.9684   -1.0564 O   0  0  0  0  0  0  0  0  0  0  0  0
   -3.0951    1.3102   -0.1453 N   0  0  0  0  0  0  0  0  0  0  0  0
   -4.3165    0.8148    0.4809 C   0  0  0  0  0  0  0  0  0  0  0  0
   -4.9096    2.0339    1.1733 C   0  0  0  0  0  0  0  0  0  0  0  0
   -3.6767    2.8396    1.5543 C   0  0  0  0  0  0  0  0  0  0  0  0
   -2.7508    2.6290    0.3649 C   0  0  0  0  0  0  0  0  0  0  0  0
    1.9644   -2.1614    2.0655 C   0  0  0  0  0  0  0  0  0  0  0  0
    3.0267   -1.5162    2.6891 C   0  0  0  0  0  0  0  0  0  0  0  0
    3.7994   -0.6066    1.9695 C   0  0  0  0  0  0  0  0  0  0  0  0
    3.5327   -0.3538    0.6158 C   0  0  0  0  0  0  0  0  0  0  0  0
    4.3247    0.6028   -0.1218 N   0  0  0  0  0  0  0  0  0  0  0  0
    5.7478    0.2224   -0.2952 C   0  0  0  0  0  0  0  0  0  0  0  0
    4.1091    2.2491    0.3014 S   0  0  0  0  0  6  0  0  0  0  0  0
    2.4092    2.5385   -0.1510 C   0  0  0  0  0  0  0  0  0  0  0  0
    4.2443    2.3956    1.7360 O   0  0  0  0  0  0  0  0  0  0  0  0
    4.9330    3.0390   -0.5926 O   0  0  0  0  0  0  0  0  0  0  0  0
    1.8524   -1.7449   -1.9851 H   0  0  0  0  0  0  0  0  0  0  0  0
    1.5637   -0.0123   -1.6866 H   0  0  0  0  0  0  0  0  0  0  0  0
    3.1902   -0.6280   -2.0556 H   0  0  0  0  0  0  0  0  0  0  0  0
   -0.2311   -0.6564   -0.1786 H   0  0  0  0  0  0  0  0  0  0  0  0
   -1.4501   -4.0461   -1.1641 H   0  0  0  0  0  0  0  0  0  0  0  0
   -3.5020   -4.3665   -2.4487 H   0  0  0  0  0  0  0  0  0  0  0  0
   -4.9156   -2.4294   -3.0860 H   0  0  0  0  0  0  0  0  0  0  0  0
   -4.2717   -0.1457   -2.3773 H   0  0  0  0  0  0  0  0  0  0  0  0
   -5.0080    0.3954   -0.2515 H   0  0  0  0  0  0  0  0  0  0  0  0
   -4.0388    0.0379    1.2017 H   0  0  0  0  0  0  0  0  0  0  0  0
   -5.5225    2.6067    0.4669 H   0  0  0  0  0  0  0  0  0  0  0  0
   -5.5319    1.7693    2.0325 H   0  0  0  0  0  0  0  0  0  0  0  0
   -3.8936    3.8953    1.7383 H   0  0  0  0  0  0  0  0  0  0  0  0
   -3.2248    2.4180    2.4603 H   0  0  0  0  0  0  0  0  0  0  0  0
   -2.9556    3.3526   -0.4317 H   0  0  0  0  0  0  0  0  0  0  0  0
   -1.6948    2.6962    0.6436 H   0  0  0  0  0  0  0  0  0  0  0  0
    1.3421   -2.8536    2.6296 H   0  0  0  0  0  0  0  0  0  0  0  0
    3.2427   -1.7048    3.7378 H   0  0  0  0  0  0  0  0  0  0  0  0
    4.6098   -0.0884    2.4781 H   0  0  0  0  0  0  0  0  0  0  0  0
    5.8307   -0.8410   -0.5454 H   0  0  0  0  0  0  0  0  0  0  0  0
    6.1875    0.7804   -1.1273 H   0  0  0  0  0  0  0  0  0  0  0  0
    6.3240    0.4116    0.6158 H   0  0  0  0  0  0  0  0  0  0  0  0
    1.7542    1.9261    0.4700 H   0  0  0  0  0  0  0  0  0  0  0  0
    2.2815    2.3147   -1.2112 H   0  0  0  0  0  0  0  0  0  0  0  0
    2.1946    3.5949    0.0275 H   0  0  0  0  0  0  0  0  0  0  0  0
  1  2  1  0
  2  3  2  0
  3  4  1  0
  4  5  2  0
  4  6  1  0
  6  7  1  0
  7  8  2  0
  8  9  1  0
  9 10  2  0
 10 11  1  0
 11 12  2  0
 12 13  1  0
 13 14  2  0
 13 15  1  0
 15 16  1  0
 16 17  1  0
 17 18  1  0
 18 19  1  0
  3 20  1  0
 20 21  2  0
 21 22  1  0
 22 23  2  0
 23 24  1  0
 24 25  1  0
 24 26  1  0
 26 27  1  0
 26 28  2  0
 26 29  2  0
 23  2  1  0
 12  7  1  0
 19 15  1  0
  1 30  1  0
  1 31  1  0
  1 32  1  0
  6 33  1  0
  8 34  1  0
  9 35  1  0
 10 36  1  0
 11 37  1  0
 16 38  1  0
 16 39  1  0
 17 40  1  0
 17 41  1  0
 18 42  1  0
 18 43  1  0
 19 44  1  0
 19 45  1  0
 20 46  1  0
 21 47  1  0
 22 48  1  0
 25 49  1  0
 25 50  1  0
 25 51  1  0
 27 52  1  0
 27 53  1  0
 27 54  1  0
M  END
$$$$
