
     RDKit          3D

 55 58  0  0  0  0  0  0  0  0999 V2000
    7.2650    0.1525   -2.1045 C   0  0  0  0  0  0  0  0  0  0  0  0
    6.1096    0.2791   -1.2846 O   0  0  0  0  0  0  0  0  0  0  0  0
    6.1393   -0.3551   -0.0628 C   0  0  0  0  0  0  0  0  0  0  0  0
    7.2085   -1.1174    0.4177 C   0  0  0  0  0  0  0  0  0  0  0  0
    7.1289   -1.7229    1.6737 C   0  0  0  0  0  0  0  0  0  0  0  0
    5.9836   -1.5734    2.4513 C   0  0  0  0  0  0  0  0  0  0  0  0
    4.9107   -0.8142    1.9806 C   0  0  0  0  0  0  0  0  0  0  0  0
    4.9822   -0.1959    0.7306 C   0  0  0  0  0  0  0  0  0  0  0  0
    3.9307    0.5723    0.1848 N   0  0  0  0  0  0  0  0  0  0  0  0
    2.8119    1.0538    0.8170 C   0  0  0  0  0  0  0  0  0  0  0  0
    2.6085    1.0066    2.0272 O   0  0  0  0  0  0  0  0  0  0  0  0
    1.8923    1.6478   -0.0548 N   0  0  0  0  0  0  0  0  0  0  0  0
    0.6851    2.2109    0.5552 C   0  0  0  0  0  0  0  0  0  0  0  0
   -0.4291    1.1478    0.6619 C   0  0  0  0  0  0  0  0  0  0  0  0
   -0.6991    0.5625   -0.6814 N   0  0  0  0  0  0  0  0  0  0  0  0
   -1.7666   -0.3650   -0.6621 C   0  0  0  0  0  0  0  0  0  0  0  0
   -3.0446    0.0840   -0.3507 C   0  0  0  0  0  0  0  0  0  0  0  0
   -4.0741   -0.8356   -0.3487 C   0  0  0  0  0  0  0  0  0  0  0  0
   -5.4365   -0.4699   -0.0363 N   0  0  0  0  0  0  0  0  0  0  0  0
   -6.3743   -1.4660    0.0008 N   0  0  0  0  0  0  0  0  0  0  0  0
   -7.5261   -0.8825    0.3199 C   0  0  0  0  0  0  0  0  0  0  0  0
   -8.7608   -1.6906    0.4562 C   0  0  0  0  0  0  0  0  0  0  0  0
   -7.3706    0.4982    0.4941 C   0  0  0  0  0  0  0  0  0  0  0  0
   -6.0343    0.7617    0.2572 C   0  0  0  0  0  0  0  0  0  0  0  0
   -5.3819    2.0924    0.2959 C   0  0  0  0  0  0  0  0  0  0  0  0
   -3.8410   -2.1379   -0.6423 N   0  0  0  0  0  0  0  0  0  0  0  0
   -2.5892   -2.4747   -0.9524 C   0  0  0  0  0  0  0  0  0  0  0  0
   -1.5410   -1.6469   -0.9872 N   0  0  0  0  0  0  0  0  0  0  0  0
    0.5275    0.0046   -1.3130 C   0  0  0  0  0  0  0  0  0  0  0  0
    1.6276    1.0866   -1.3898 C   0  0  0  0  0  0  0  0  0  0  0  0
    8.1444    0.5893   -1.6196 H   0  0  0  0  0  0  0  0  0  0  0  0
    7.4408   -0.8924   -2.3804 H   0  0  0  0  0  0  0  0  0  0  0  0
    7.0820    0.7125   -3.0265 H   0  0  0  0  0  0  0  0  0  0  0  0
    8.1165   -1.2624   -0.1573 H   0  0  0  0  0  0  0  0  0  0  0  0
    7.9616   -2.3154    2.0453 H   0  0  0  0  0  0  0  0  0  0  0  0
    5.9199   -2.0490    3.4268 H   0  0  0  0  0  0  0  0  0  0  0  0
    4.0281   -0.7272    2.6066 H   0  0  0  0  0  0  0  0  0  0  0  0
    4.1594    0.9953   -0.7053 H   0  0  0  0  0  0  0  0  0  0  0  0
    0.3537    3.0390   -0.0832 H   0  0  0  0  0  0  0  0  0  0  0  0
    0.9091    2.6273    1.5432 H   0  0  0  0  0  0  0  0  0  0  0  0
   -0.1261    0.3548    1.3583 H   0  0  0  0  0  0  0  0  0  0  0  0
   -1.3209    1.6363    1.0698 H   0  0  0  0  0  0  0  0  0  0  0  0
   -3.1752    1.1296   -0.1456 H   0  0  0  0  0  0  0  0  0  0  0  0
   -9.6519   -1.0695    0.3146 H   0  0  0  0  0  0  0  0  0  0  0  0
   -8.8111   -2.1395    1.4541 H   0  0  0  0  0  0  0  0  0  0  0  0
   -8.7905   -2.4945   -0.2875 H   0  0  0  0  0  0  0  0  0  0  0  0
   -8.1341    1.2193    0.7532 H   0  0  0  0  0  0  0  0  0  0  0  0
   -4.9242    2.3383   -0.6667 H   0  0  0  0  0  0  0  0  0  0  0  0
   -4.6376    2.1441    1.0959 H   0  0  0  0  0  0  0  0  0  0  0  0
   -6.1197    2.8764    0.5023 H   0  0  0  0  0  0  0  0  0  0  0  0
   -2.4061   -3.5143   -1.1994 H   0  0  0  0  0  0  0  0  0  0  0  0
    0.3090   -0.3339   -2.3334 H   0  0  0  0  0  0  0  0  0  0  0  0
    0.9053   -0.8472   -0.7315 H   0  0  0  0  0  0  0  0  0  0  0  0
    2.5260    0.6563   -1.8383 H   0  0  0  0  0  0  0  0  0  0  0  0
    1.2993    1.9139   -2.0304 H   0  0  0  0  0  0  0  0  0  0  0  0
  1  2  1  0
  2  3  1  0
  3  4  2  0
  4  5  1  0
  5  6  2  0
  6  7  1  0
  7  8  2  0
  8  9  1  0
  9 10  1  0
 10 11  2  0
 10 12  1  0
 12 13  1  0
 13 14  1  0
 14 15  1  0
 15 16  1  0
 16 17  2  0
 17 18  1  0
 18 19  1  0
 19 20  1  0
 20 21  2  0
 21 22  1  0
 21 23  1  0
 23 24  2  0
 24 25  1  0
 18 26  2  0
 26 27  1  0
 27 28  2  0
 15 29  1  0
 29 30  1  0
  8  3  1  0
 30 12  1  0
 28 16  1  0
 24 19  1  0
  1 31  1  0
  1 32  1  0
  1 33  1  0
  4 34  1  0
  5 35  1  0
  6 36  1  0
  7 37  1  0
  9 38  1  0
 13 39  1  0
 13 40  1  0
 14 41  1  0
 14 42  1  0
 17 43  1  0
 22 44  1  0
 22 45  1  0
 22 46  1  0
 23 47  1  0
 25 48  1  0
 25 49  1  0
 25 50  1  0
 27 51  1  0
 29 52  1  0
 29 53  1  0
 30 54  1  0
 30 55  1  0
M  END
$$$$
