
     RDKit          3D

 53 55  0  0  0  0  0  0  0  0999 V2000
   -7.7450    1.1707    1.0664 C   0  0  0  0  0  0  0  0  0  0  0  0
   -7.4472    0.3781   -0.1971 C   0  0  0  0  0  0  0  0  0  0  0  0
   -6.1655    0.7722   -0.7777 N   0  0  0  0  0  0  0  0  0  0  0  0
   -5.0203    0.1683   -0.2219 C   0  0  0  0  0  0  0  0  0  0  0  0
   -3.7900    0.5006   -0.7571 C   0  0  0  0  0  0  0  0  0  0  0  0
   -2.6560   -0.0703   -0.2052 C   0  0  0  0  0  0  0  0  0  0  0  0
   -1.3867    0.2409   -0.7449 N   0  0  0  0  0  0  0  0  0  0  0  0
   -1.0484    1.6764   -0.5919 C   0  0  0  0  0  0  0  0  0  0  0  0
    0.2913    1.9935   -1.2808 C   0  0  0  0  0  0  0  0  0  0  0  0
    1.3725    1.0937   -0.8671 N   0  0  0  0  0  0  0  0  0  0  0  0
    2.6760    1.5465   -1.0819 C   0  0  0  0  0  0  0  0  0  0  0  0
    2.9388    2.6420   -1.5731 O   0  0  0  0  0  0  0  0  0  0  0  0
    3.8073    0.6833   -0.6743 C   0  0  0  0  0  0  0  0  0  0  0  0
    3.8833    0.1760    0.6268 C   0  0  0  0  0  0  0  0  0  0  0  0
    4.9724   -0.6141    0.9997 C   0  0  0  0  0  0  0  0  0  0  0  0
    5.9956   -0.8922    0.0815 C   0  0  0  0  0  0  0  0  0  0  0  0
    7.1823   -1.7275    0.4923 C   0  0  0  0  0  0  0  0  0  0  0  0
    8.2963   -0.8764    1.0824 C   0  0  0  0  0  0  0  0  0  0  0  0
    5.9239   -0.3505   -1.2104 C   0  0  0  0  0  0  0  0  0  0  0  0
    4.8367    0.4403   -1.5867 C   0  0  0  0  0  0  0  0  0  0  0  0
    1.0184   -0.3344   -0.9312 C   0  0  0  0  0  0  0  0  0  0  0  0
   -0.3151   -0.6395   -0.2264 C   0  0  0  0  0  0  0  0  0  0  0  0
   -2.7557   -0.9436    0.8091 N   0  0  0  0  0  0  0  0  0  0  0  0
   -3.9837   -1.1953    1.2922 C   0  0  0  0  0  0  0  0  0  0  0  0
   -4.0953   -2.1706    2.4212 C   0  0  0  0  0  0  0  0  0  0  0  0
   -5.1231   -0.6718    0.8141 N   0  0  0  0  0  0  0  0  0  0  0  0
   -7.7246    2.2471    0.8653 H   0  0  0  0  0  0  0  0  0  0  0  0
   -7.0178    0.9663    1.8578 H   0  0  0  0  0  0  0  0  0  0  0  0
   -8.7386    0.9146    1.4475 H   0  0  0  0  0  0  0  0  0  0  0  0
   -7.5086   -0.7019   -0.0170 H   0  0  0  0  0  0  0  0  0  0  0  0
   -8.2287    0.6085   -0.9311 H   0  0  0  0  0  0  0  0  0  0  0  0
   -6.1501    0.6181   -1.7827 H   0  0  0  0  0  0  0  0  0  0  0  0
   -3.7217    1.1810   -1.5950 H   0  0  0  0  0  0  0  0  0  0  0  0
   -1.8143    2.3219   -1.0365 H   0  0  0  0  0  0  0  0  0  0  0  0
   -0.9751    1.9264    0.4751 H   0  0  0  0  0  0  0  0  0  0  0  0
    0.5708    3.0318   -1.0686 H   0  0  0  0  0  0  0  0  0  0  0  0
    0.1880    1.8952   -2.3689 H   0  0  0  0  0  0  0  0  0  0  0  0
    3.1057    0.4032    1.3513 H   0  0  0  0  0  0  0  0  0  0  0  0
    5.0253   -1.0035    2.0143 H   0  0  0  0  0  0  0  0  0  0  0  0
    7.5599   -2.2833   -0.3746 H   0  0  0  0  0  0  0  0  0  0  0  0
    6.8660   -2.4825    1.2223 H   0  0  0  0  0  0  0  0  0  0  0  0
    8.6562   -0.1362    0.3597 H   0  0  0  0  0  0  0  0  0  0  0  0
    7.9554   -0.3379    1.9732 H   0  0  0  0  0  0  0  0  0  0  0  0
    9.1425   -1.5079    1.3710 H   0  0  0  0  0  0  0  0  0  0  0  0
    6.7207   -0.5335   -1.9282 H   0  0  0  0  0  0  0  0  0  0  0  0
    4.7946    0.8707   -2.5844 H   0  0  0  0  0  0  0  0  0  0  0  0
    0.9476   -0.5920   -1.9958 H   0  0  0  0  0  0  0  0  0  0  0  0
    1.8040   -0.9620   -0.5064 H   0  0  0  0  0  0  0  0  0  0  0  0
   -0.5623   -1.6932   -0.4062 H   0  0  0  0  0  0  0  0  0  0  0  0
   -0.1854   -0.4898    0.8541 H   0  0  0  0  0  0  0  0  0  0  0  0
   -4.2618   -3.1761    2.0243 H   0  0  0  0  0  0  0  0  0  0  0  0
   -4.9312   -1.9060    3.0760 H   0  0  0  0  0  0  0  0  0  0  0  0
   -3.1795   -2.1751    3.0203 H   0  0  0  0  0  0  0  0  0  0  0  0
  1  2  1  0
  2  3  1  0
  3  4  1  0
  4  5  2  0
  5  6  1  0
  6  7  1  0
  7  8  1  0
  8  9  1  0
  9 10  1  0
 10 11  1  0
 11 12  2  0
 11 13  1  0
 13 14  2  0
 14 15  1  0
 15 16  2  0
 16 17  1  0
 17 18  1  0
 16 19  1  0
 19 20  2  0
 10 21  1  0
 21 22  1  0
  6 23  2  0
 23 24  1  0
 24 25  1  0
 24 26  2  0
 26  4  1  0
 22  7  1  0
 20 13  1  0
  1 27  1  0
  1 28  1  0
  1 29  1  0
  2 30  1  0
  2 31  1  0
  3 32  1  0
  5 33  1  0
  8 34  1  0
  8 35  1  0
  9 36  1  0
  9 37  1  0
 14 38  1  0
 15 39  1  0
 17 40  1  0
 17 41  1  0
 18 42  1  0
 18 43  1  0
 18 44  1  0
 19 45  1  0
 20 46  1  0
 21 47  1  0
 21 48  1  0
 22 49  1  0
 22 50  1  0
 25 51  1  0
 25 52  1  0
 25 53  1  0
M  END
$$$$
