
     RDKit          3D

 59 59  0  0  0  0  0  0  0  0999 V2000
   -3.0990   -2.4676   -2.3983 C   0  0  0  0  0  0  0  0  0  0  0  0
   -3.2120   -1.4214   -1.8608 C   0  0  0  0  0  0  0  0  0  0  0  0
   -3.3578   -0.1366   -1.2275 C   0  0  0  0  0  0  0  0  0  0  0  0
   -2.5873    0.1119   -0.1749 O   0  0  0  0  0  0  0  0  0  0  0  0
   -1.2783    0.0888   -0.2172 C   0  0  0  0  0  0  0  0  0  0  0  0
   -0.5407   -1.2307   -0.3347 C   0  0  0  0  0  0  0  0  0  0  0  0
   -0.8478   -2.0331    0.7670 O   0  0  0  0  0  0  0  0  0  0  0  0
    0.9409   -0.8490   -0.3658 C   0  0  0  0  0  0  0  0  0  0  0  0
    1.8220   -1.9670   -0.3805 N   0  0  0  0  0  0  0  0  0  0  0  0
    1.8695   -2.6033    0.9071 C   0  0  0  0  0  0  0  0  0  0  0  0
    2.2686   -1.5950    1.9785 C   0  0  0  0  0  0  0  0  0  0  0  0
    3.3652   -0.8393    1.4304 N   0  0  0  0  0  0  0  0  0  0  0  0
    3.7658    0.4279    1.9068 C   0  0  0  0  0  0  0  0  0  0  0  0
    4.3057    0.5866    3.1603 C   0  0  0  0  0  0  0  0  0  0  0  0
    4.6944    1.8087    3.6318 C   0  0  0  0  0  0  0  0  0  0  0  0
    4.5339    2.9025    2.8138 C   0  0  0  0  0  0  0  0  0  0  0  0
    4.0022    2.8128    1.5527 C   0  0  0  0  0  0  0  0  0  0  0  0
    3.6122    1.5416    1.0982 C   0  0  0  0  0  0  0  0  0  0  0  0
    3.1001    1.4773   -0.1490 F   0  0  0  0  0  0  0  0  0  0  0  0
    4.0991   -1.4344    0.3043 C   0  0  0  0  0  0  0  0  0  0  0  0
    3.1595   -1.6648   -0.8729 C   0  0  0  0  0  0  0  0  0  0  0  0
   -4.8345    0.0102   -0.7904 C   0  0  0  0  0  0  0  0  0  0  0  0
   -5.2237    1.4337   -0.5574 C   0  0  0  0  0  0  0  0  0  0  0  0
   -5.0103    2.2921   -1.7881 C   0  0  0  0  0  0  0  0  0  0  0  0
   -4.3200    1.4994   -2.8771 C   0  0  0  0  0  0  0  0  0  0  0  0
   -3.0589    0.9133   -2.3034 C   0  0  0  0  0  0  0  0  0  0  0  0
    0.6896    0.0000    0.0000 Cl  0  0  0  0  0  0  0  0  0  0  0  0
    0.6861    0.0000    0.0000 Cl  0  0  0  0  0  0  0  0  0  0  0  0
   -2.9956   -3.4618   -2.8875 H   0  0  0  0  0  0  0  0  0  0  0  0
   -0.8481    0.5818    0.6979 H   0  0  0  0  0  0  0  0  0  0  0  0
   -0.8488    0.7089   -1.0692 H   0  0  0  0  0  0  0  0  0  0  0  0
   -0.7622   -1.7629   -1.2433 H   0  0  0  0  0  0  0  0  0  0  0  0
   -1.4207   -1.5247    1.3938 H   0  0  0  0  0  0  0  0  0  0  0  0
    1.1254   -0.1551    0.4907 H   0  0  0  0  0  0  0  0  0  0  0  0
    1.1217   -0.2617   -1.2888 H   0  0  0  0  0  0  0  0  0  0  0  0
    0.9816   -3.1649    1.1123 H   0  0  0  0  0  0  0  0  0  0  0  0
    2.7330   -3.3393    0.8948 H   0  0  0  0  0  0  0  0  0  0  0  0
    2.6599   -2.1636    2.8435 H   0  0  0  0  0  0  0  0  0  0  0  0
    1.4206   -0.9973    2.3184 H   0  0  0  0  0  0  0  0  0  0  0  0
    4.4311   -0.2892    3.8008 H   0  0  0  0  0  0  0  0  0  0  0  0
    5.1076    1.8960    4.6182 H   0  0  0  0  0  0  0  0  0  0  0  0
    4.8438    3.8648    3.1949 H   0  0  0  0  0  0  0  0  0  0  0  0
    3.8923    3.6933    0.9417 H   0  0  0  0  0  0  0  0  0  0  0  0
    4.4898   -2.4099    0.6254 H   0  0  0  0  0  0  0  0  0  0  0  0
    4.8810   -0.7442   -0.0284 H   0  0  0  0  0  0  0  0  0  0  0  0
    3.1264   -0.7977   -1.5600 H   0  0  0  0  0  0  0  0  0  0  0  0
    3.5643   -2.5288   -1.4321 H   0  0  0  0  0  0  0  0  0  0  0  0
   -4.9039   -0.5267    0.1762 H   0  0  0  0  0  0  0  0  0  0  0  0
   -5.4321   -0.5348   -1.5213 H   0  0  0  0  0  0  0  0  0  0  0  0
   -6.3073    1.4423   -0.3328 H   0  0  0  0  0  0  0  0  0  0  0  0
   -4.6570    1.8268    0.2857 H   0  0  0  0  0  0  0  0  0  0  0  0
   -4.3878    3.1601   -1.5057 H   0  0  0  0  0  0  0  0  0  0  0  0
   -5.9507    2.6790   -2.2198 H   0  0  0  0  0  0  0  0  0  0  0  0
   -5.0255    0.7329   -3.2132 H   0  0  0  0  0  0  0  0  0  0  0  0
   -4.0388    2.1645   -3.6971 H   0  0  0  0  0  0  0  0  0  0  0  0
   -2.4960    1.7495   -1.8370 H   0  0  0  0  0  0  0  0  0  0  0  0
   -2.4731    0.4984   -3.1458 H   0  0  0  0  0  0  0  0  0  0  0  0
   -0.6896    0.0000    0.0000 H   0  0  0  0  0  0  0  0  0  0  0  0
   -0.6861    0.0000    0.0000 H   0  0  0  0  0  0  0  0  0  0  0  0
  1  2  3  0
  2  3  1  0
  3  4  1  0
  4  5  1  0
  5  6  1  0
  6  7  1  0
  6  8  1  0
  8  9  1  0
  9 10  1  0
 10 11  1  0
 11 12  1  0
 12 13  1  0
 13 14  2  0
 14 15  1  0
 15 16  2  0
 16 17  1  0
 17 18  2  0
 18 19  1  0
 12 20  1  0
 20 21  1  0
  3 22  1  0
 22 23  1  0
 23 24  1  0
 24 25  1  0
 25 26  1  0
 26  3  1  0
 21  9  1  0
 18 13  1  0
  1 29  1  0
  5 30  1  0
  5 31  1  0
  6 32  1  0
  7 33  1  0
  8 34  1  0
  8 35  1  0
 10 36  1  0
 10 37  1  0
 11 38  1  0
 11 39  1  0
 14 40  1  0
 15 41  1  0
 16 42  1  0
 17 43  1  0
 20 44  1  0
 20 45  1  0
 21 46  1  0
 21 47  1  0
 22 48  1  0
 22 49  1  0
 23 50  1  0
 23 51  1  0
 24 52  1  0
 24 53  1  0
 25 54  1  0
 25 55  1  0
 26 56  1  0
 26 57  1  0
 27 58  1  0
 28 59  1  0
M  END
$$$$
