
     RDKit          3D

 43 44  0  0  0  0  0  0  0  0999 V2000
   -3.8772    1.6197    2.4650 C   0  0  0  0  0  0  0  0  0  0  0  0
   -3.1373    1.2030    1.3272 O   0  0  0  0  0  0  0  0  0  0  0  0
   -3.6637    0.1922    0.5599 C   0  0  0  0  0  0  0  0  0  0  0  0
   -4.8514   -0.4869    0.8565 C   0  0  0  0  0  0  0  0  0  0  0  0
   -5.3083   -1.5074    0.0211 C   0  0  0  0  0  0  0  0  0  0  0  0
   -4.5817   -1.8564   -1.1125 C   0  0  0  0  0  0  0  0  0  0  0  0
   -3.3950   -1.1863   -1.4180 C   0  0  0  0  0  0  0  0  0  0  0  0
   -2.9270   -0.1597   -0.5912 C   0  0  0  0  0  0  0  0  0  0  0  0
   -1.7762    0.5557   -0.8038 O   0  0  0  0  0  0  0  0  0  0  0  0
   -0.9680    0.2866   -1.9485 C   0  0  0  0  0  0  0  0  0  0  0  0
    0.0109   -0.8607   -1.6914 C   0  0  0  0  0  0  0  0  0  0  0  0
    1.0101   -0.5577   -0.5644 C   0  0  0  0  0  0  0  0  0  0  0  0
    1.9226    0.5528   -0.8903 N   0  0  0  0  0  0  0  0  0  0  0  0
    3.0053    0.1539   -1.8142 C   0  0  0  0  0  0  0  0  0  0  0  0
    4.1264   -0.7011   -1.1780 C   0  0  0  0  0  0  0  0  0  0  0  0
    4.7063   -0.0969    0.0333 N   0  0  0  0  0  0  0  0  0  0  0  0
    3.6249    0.2344    0.9858 C   0  0  0  0  0  0  0  0  0  0  0  0
    4.2345    0.9450    2.1938 C   0  0  0  0  0  0  0  0  0  0  0  0
    2.5256    1.1202    0.3367 C   0  0  0  0  0  0  0  0  0  0  0  0
   -3.3297    2.4410    2.9374 H   0  0  0  0  0  0  0  0  0  0  0  0
   -4.8635    1.9997    2.1791 H   0  0  0  0  0  0  0  0  0  0  0  0
   -3.9606    0.8116    3.1990 H   0  0  0  0  0  0  0  0  0  0  0  0
   -5.4439   -0.2466    1.7324 H   0  0  0  0  0  0  0  0  0  0  0  0
   -6.2315   -2.0303    0.2577 H   0  0  0  0  0  0  0  0  0  0  0  0
   -4.9372   -2.6527   -1.7617 H   0  0  0  0  0  0  0  0  0  0  0  0
   -2.8596   -1.4962   -2.3080 H   0  0  0  0  0  0  0  0  0  0  0  0
   -1.5759    0.1085   -2.8425 H   0  0  0  0  0  0  0  0  0  0  0  0
   -0.4106    1.2058   -2.1617 H   0  0  0  0  0  0  0  0  0  0  0  0
    0.5351   -1.1048   -2.6210 H   0  0  0  0  0  0  0  0  0  0  0  0
   -0.5450   -1.7600   -1.4023 H   0  0  0  0  0  0  0  0  0  0  0  0
    1.5625   -1.4724   -0.3203 H   0  0  0  0  0  0  0  0  0  0  0  0
    0.4274   -0.3104    0.3324 H   0  0  0  0  0  0  0  0  0  0  0  0
    3.4579    1.0742   -2.2078 H   0  0  0  0  0  0  0  0  0  0  0  0
    2.6048   -0.3649   -2.6916 H   0  0  0  0  0  0  0  0  0  0  0  0
    3.7531   -1.7034   -0.9382 H   0  0  0  0  0  0  0  0  0  0  0  0
    4.9282   -0.8397   -1.9121 H   0  0  0  0  0  0  0  0  0  0  0  0
    5.1629    0.7743   -0.2396 H   0  0  0  0  0  0  0  0  0  0  0  0
    3.1758   -0.7009    1.3433 H   0  0  0  0  0  0  0  0  0  0  0  0
    4.7087    1.8909    1.9088 H   0  0  0  0  0  0  0  0  0  0  0  0
    3.4638    1.1665    2.9398 H   0  0  0  0  0  0  0  0  0  0  0  0
    4.9927    0.3180    2.6760 H   0  0  0  0  0  0  0  0  0  0  0  0
    1.7426    1.3479    1.0714 H   0  0  0  0  0  0  0  0  0  0  0  0
    2.9610    2.0937    0.0713 H   0  0  0  0  0  0  0  0  0  0  0  0
  1  2  1  0
  2  3  1  0
  3  4  2  0
  4  5  1  0
  5  6  2  0
  6  7  1  0
  7  8  2  0
  8  9  1  0
  9 10  1  0
 10 11  1  0
 11 12  1  0
 12 13  1  0
 13 14  1  0
 14 15  1  0
 15 16  1  0
 16 17  1  0
 17 18  1  0
 17 19  1  0
  8  3  1  0
 19 13  1  0
  1 20  1  0
  1 21  1  0
  1 22  1  0
  4 23  1  0
  5 24  1  0
  6 25  1  0
  7 26  1  0
 10 27  1  0
 10 28  1  0
 11 29  1  0
 11 30  1  0
 12 31  1  0
 12 32  1  0
 14 33  1  0
 14 34  1  0
 15 35  1  0
 15 36  1  0
 16 37  1  0
 17 38  1  0
 18 39  1  0
 18 40  1  0
 18 41  1  0
 19 42  1  0
 19 43  1  0
M  END
$$$$
