
     RDKit          3D

 63 66  0  0  0  0  0  0  0  0999 V2000
    5.7304   -2.6268   -1.7207 C   0  0  0  0  0  0  0  0  0  0  0  0
    4.4151   -2.2856   -1.2693 O   0  0  0  0  0  0  0  0  0  0  0  0
    4.2605   -0.9277   -1.2132 C   0  0  0  0  0  0  0  0  0  0  0  0
    4.0326   -0.2392   -2.4095 C   0  0  0  0  0  0  0  0  0  0  0  0
    3.8244    1.1417   -2.4023 C   0  0  0  0  0  0  0  0  0  0  0  0
    3.8298    1.8519   -1.1977 C   0  0  0  0  0  0  0  0  0  0  0  0
    3.6272    3.3395   -1.2040 C   0  0  0  0  0  0  0  0  0  0  0  0
    4.0298    1.1548    0.0014 C   0  0  0  0  0  0  0  0  0  0  0  0
    4.2209   -0.2382   -0.0013 C   0  0  0  0  0  0  0  0  0  0  0  0
    4.4743   -1.0564    1.5624 S   0  0  0  0  0  6  0  0  0  0  0  0
    5.3786   -2.1706    1.3721 O   0  0  0  0  0  0  0  0  0  0  0  0
    4.7922   -0.0285    2.5374 O   0  0  0  0  0  0  0  0  0  0  0  0
    2.9360   -1.6536    1.9516 N   0  0  0  0  0  0  0  0  0  0  0  0
    2.4766   -2.8897    1.2912 C   0  0  0  0  0  0  0  0  0  0  0  0
    1.1427   -3.3065    1.9008 C   0  0  0  0  0  0  0  0  0  0  0  0
    0.0601   -2.2687    1.6041 C   0  0  0  0  0  0  0  0  0  0  0  0
    0.6095   -0.8339    1.5227 C   0  0  0  0  0  0  0  0  0  0  0  0
   -0.4223    0.1938    1.9920 C   0  0  0  0  0  0  0  0  0  0  0  0
   -0.2157    0.8696    3.0046 O   0  0  0  0  0  0  0  0  0  0  0  0
   -1.5896    0.3486    1.2625 N   0  0  0  0  0  0  0  0  0  0  0  0
   -1.8818   -0.2626   -0.0408 C   0  0  0  0  0  0  0  0  0  0  0  0
   -2.8620    0.5643   -0.8985 C   0  0  0  0  0  0  0  0  0  0  0  0
   -4.1108    0.8432   -0.1707 N   0  0  0  0  0  0  0  0  0  0  0  0
   -5.2683    1.2215   -0.8474 C   0  0  0  0  0  0  0  0  0  0  0  0
   -6.5211    1.1903   -0.2022 C   0  0  0  0  0  0  0  0  0  0  0  0
   -7.7092    1.5542   -0.8531 C   0  0  0  0  0  0  0  0  0  0  0  0
   -7.6824    1.9578   -2.1817 C   0  0  0  0  0  0  0  0  0  0  0  0
   -6.4676    1.9970   -2.8578 C   0  0  0  0  0  0  0  0  0  0  0  0
   -5.2890    1.6316   -2.1985 C   0  0  0  0  0  0  0  0  0  0  0  0
   -4.1503    1.7194   -2.9068 F   0  0  0  0  0  0  0  0  0  0  0  0
   -4.0221    0.9796    1.2941 C   0  0  0  0  0  0  0  0  0  0  0  0
   -2.5908    1.2980    1.7601 C   0  0  0  0  0  0  0  0  0  0  0  0
    1.8854   -0.6860    2.3652 C   0  0  0  0  0  0  0  0  0  0  0  0
    5.8645   -3.7036   -1.5744 H   0  0  0  0  0  0  0  0  0  0  0  0
    6.5046   -2.1017   -1.1487 H   0  0  0  0  0  0  0  0  0  0  0  0
    5.8372   -2.4137   -2.7898 H   0  0  0  0  0  0  0  0  0  0  0  0
    4.0101   -0.7794   -3.3536 H   0  0  0  0  0  0  0  0  0  0  0  0
    3.6552    1.6607   -3.3430 H   0  0  0  0  0  0  0  0  0  0  0  0
    2.6767    3.5889   -1.6874 H   0  0  0  0  0  0  0  0  0  0  0  0
    3.6033    3.7466   -0.1880 H   0  0  0  0  0  0  0  0  0  0  0  0
    4.4470    3.8263   -1.7434 H   0  0  0  0  0  0  0  0  0  0  0  0
    4.0335    1.7021    0.9433 H   0  0  0  0  0  0  0  0  0  0  0  0
    3.2061   -3.6886    1.4566 H   0  0  0  0  0  0  0  0  0  0  0  0
    2.3570   -2.7355    0.2168 H   0  0  0  0  0  0  0  0  0  0  0  0
    1.2522   -3.4112    2.9902 H   0  0  0  0  0  0  0  0  0  0  0  0
    0.8329   -4.2863    1.5180 H   0  0  0  0  0  0  0  0  0  0  0  0
   -0.7335   -2.3503    2.3563 H   0  0  0  0  0  0  0  0  0  0  0  0
   -0.4024   -2.5259    0.6444 H   0  0  0  0  0  0  0  0  0  0  0  0
    0.8766   -0.6000    0.4843 H   0  0  0  0  0  0  0  0  0  0  0  0
   -2.3223   -1.2456    0.1714 H   0  0  0  0  0  0  0  0  0  0  0  0
   -0.9579   -0.4203   -0.6045 H   0  0  0  0  0  0  0  0  0  0  0  0
   -3.0628   -0.0158   -1.8077 H   0  0  0  0  0  0  0  0  0  0  0  0
   -2.3850    1.5110   -1.1811 H   0  0  0  0  0  0  0  0  0  0  0  0
   -6.6039    0.8566    0.8301 H   0  0  0  0  0  0  0  0  0  0  0  0
   -8.6537    1.5146   -0.3151 H   0  0  0  0  0  0  0  0  0  0  0  0
   -8.6011    2.2425   -2.6890 H   0  0  0  0  0  0  0  0  0  0  0  0
   -6.4243    2.3131   -3.8960 H   0  0  0  0  0  0  0  0  0  0  0  0
   -4.3608    0.0418    1.7492 H   0  0  0  0  0  0  0  0  0  0  0  0
   -4.6653    1.7883    1.6604 H   0  0  0  0  0  0  0  0  0  0  0  0
   -2.5668    1.3330    2.8560 H   0  0  0  0  0  0  0  0  0  0  0  0
   -2.2887    2.2877    1.3946 H   0  0  0  0  0  0  0  0  0  0  0  0
    2.2530    0.3439    2.2924 H   0  0  0  0  0  0  0  0  0  0  0  0
    1.6754   -0.8622    3.4284 H   0  0  0  0  0  0  0  0  0  0  0  0
  1  2  1  0
  2  3  1  0
  3  4  2  0
  4  5  1  0
  5  6  2  0
  6  7  1  0
  6  8  1  0
  8  9  2  0
  9 10  1  0
 10 11  2  0
 10 12  2  0
 10 13  1  0
 13 14  1  0
 14 15  1  0
 15 16  1  0
 16 17  1  0
 17 18  1  0
 18 19  2  0
 18 20  1  0
 20 21  1  0
 21 22  1  0
 22 23  1  0
 23 24  1  0
 24 25  2  0
 25 26  1  0
 26 27  2  0
 27 28  1  0
 28 29  2  0
 29 30  1  0
 23 31  1  0
 31 32  1  0
 17 33  1  0
  9  3  1  0
 33 13  1  0
 32 20  1  0
 29 24  1  0
  1 34  1  0
  1 35  1  0
  1 36  1  0
  4 37  1  0
  5 38  1  0
  7 39  1  0
  7 40  1  0
  7 41  1  0
  8 42  1  0
 14 43  1  0
 14 44  1  0
 15 45  1  0
 15 46  1  0
 16 47  1  0
 16 48  1  0
 17 49  1  0
 21 50  1  0
 21 51  1  0
 22 52  1  0
 22 53  1  0
 25 54  1  0
 26 55  1  0
 27 56  1  0
 28 57  1  0
 31 58  1  0
 31 59  1  0
 32 60  1  0
 32 61  1  0
 33 62  1  0
 33 63  1  0
M  END
$$$$
