
     RDKit          3D

 31 32  0  0  0  0  0  0  0  0999 V2000
   -1.2249    0.2196   -2.6092 C   0  0  0  0  0  0  0  0  0  0  0  0
   -1.9763    0.1248   -1.3080 C   0  0  0  0  0  0  0  0  0  0  0  0
   -3.3815    0.1084   -1.4004 C   0  0  0  0  0  0  0  0  0  0  0  0
   -4.1796    0.1311   -0.2626 C   0  0  0  0  0  0  0  0  0  0  0  0
   -3.5860    0.1750    0.9920 C   0  0  0  0  0  0  0  0  0  0  0  0
   -2.1874    0.1631    1.1248 C   0  0  0  0  0  0  0  0  0  0  0  0
   -1.6159    0.1832    2.5193 C   0  0  0  0  0  0  0  0  0  0  0  0
   -1.3701    0.0972   -0.0329 C   0  0  0  0  0  0  0  0  0  0  0  0
    0.0349    0.0692    0.1638 N   0  0  0  0  0  0  0  0  0  0  0  0
    0.9452   -0.6752   -0.5661 C   0  0  0  0  0  0  0  0  0  0  0  0
    0.6875   -1.4979   -1.4352 O   0  0  0  0  0  0  0  0  0  0  0  0
    2.3644   -0.4926   -0.1735 C   0  0  0  0  0  0  0  0  0  0  0  0
    3.2602   -1.5351   -0.3879 C   0  0  0  0  0  0  0  0  0  0  0  0
    4.5769   -1.4779   -0.0629 N   0  0  0  0  0  0  0  0  0  0  0  0
    5.0185   -0.3192    0.4802 C   0  0  0  0  0  0  0  0  0  0  0  0
    4.2025    0.7785    0.7110 C   0  0  0  0  0  0  0  0  0  0  0  0
    4.9055    2.3602    1.4588 Br  0  0  0  0  0  0  0  0  0  0  0  0
    2.8532    0.6959    0.3777 C   0  0  0  0  0  0  0  0  0  0  0  0
   -0.2740    0.7475   -2.4936 H   0  0  0  0  0  0  0  0  0  0  0  0
   -1.0593   -0.7754   -3.0314 H   0  0  0  0  0  0  0  0  0  0  0  0
   -1.7980    0.8021   -3.3405 H   0  0  0  0  0  0  0  0  0  0  0  0
   -3.8624    0.1007   -2.3771 H   0  0  0  0  0  0  0  0  0  0  0  0
   -5.2623    0.1282   -0.3563 H   0  0  0  0  0  0  0  0  0  0  0  0
   -4.2248    0.2059    1.8721 H   0  0  0  0  0  0  0  0  0  0  0  0
   -1.0278    1.0934    2.6747 H   0  0  0  0  0  0  0  0  0  0  0  0
   -0.9866   -0.6970    2.6866 H   0  0  0  0  0  0  0  0  0  0  0  0
   -2.4032    0.1684    3.2807 H   0  0  0  0  0  0  0  0  0  0  0  0
    0.3499    0.3405    1.0845 H   0  0  0  0  0  0  0  0  0  0  0  0
    2.9386   -2.4747   -0.8328 H   0  0  0  0  0  0  0  0  0  0  0  0
    6.0774   -0.3038    0.7236 H   0  0  0  0  0  0  0  0  0  0  0  0
    2.2055    1.5556    0.5205 H   0  0  0  0  0  0  0  0  0  0  0  0
  1  2  1  0
  2  3  2  0
  3  4  1  0
  4  5  2  0
  5  6  1  0
  6  7  1  0
  6  8  2  0
  8  9  1  0
  9 10  1  0
 10 11  2  0
 10 12  1  0
 12 13  2  0
 13 14  1  0
 14 15  2  0
 15 16  1  0
 16 17  1  0
 16 18  2  0
  8  2  1  0
 18 12  1  0
  1 19  1  0
  1 20  1  0
  1 21  1  0
  3 22  1  0
  4 23  1  0
  5 24  1  0
  7 25  1  0
  7 26  1  0
  7 27  1  0
  9 28  1  0
 13 29  1  0
 15 30  1  0
 18 31  1  0
M  END
$$$$
