
     RDKit          3D

 48 50  0  0  0  0  0  0  0  0999 V2000
   -7.5757    0.2959   -0.6702 C   0  0  0  0  0  0  0  0  0  0  0  0
   -6.2676    0.2345    0.1023 C   0  0  0  0  0  0  0  0  0  0  0  0
   -5.2168   -0.5896   -0.6407 C   0  0  0  0  0  0  0  0  0  0  0  0
   -3.9028   -0.6496    0.1395 C   0  0  0  0  0  0  0  0  0  0  0  0
   -2.8355   -1.4568   -0.5870 C   0  0  0  0  0  0  0  0  0  0  0  0
   -3.0780   -2.0526   -1.6361 O   0  0  0  0  0  0  0  0  0  0  0  0
   -1.5801   -1.4878    0.0007 N   0  0  0  0  0  0  0  0  0  0  0  0
   -0.4871   -2.2027   -0.6689 C   0  0  0  0  0  0  0  0  0  0  0  0
    0.8394   -1.4253   -0.5874 C   0  0  0  0  0  0  0  0  0  0  0  0
    1.2177   -1.0876    0.8108 N   0  0  0  0  0  0  0  0  0  0  0  0
    1.9279    0.1263    0.9013 C   0  0  0  0  0  0  0  0  0  0  0  0
    3.1330    0.2576    0.2217 C   0  0  0  0  0  0  0  0  0  0  0  0
    3.8082    1.4560    0.3301 C   0  0  0  0  0  0  0  0  0  0  0  0
    5.0572    1.6962   -0.3291 N   0  0  0  0  0  0  0  0  0  0  0  0
    5.8318    2.8184   -0.0816 C   0  0  0  0  0  0  0  0  0  0  0  0
    6.9643    2.6934   -0.8390 C   0  0  0  0  0  0  0  0  0  0  0  0
    6.9143    1.5529   -1.5797 N   0  0  0  0  0  0  0  0  0  0  0  0
    5.7592    0.9745   -1.2956 C   0  0  0  0  0  0  0  0  0  0  0  0
    5.3036   -0.2526   -1.9962 C   0  0  0  0  0  0  0  0  0  0  0  0
    3.3294    2.4651    1.0929 N   0  0  0  0  0  0  0  0  0  0  0  0
    2.1701    2.2453    1.7188 C   0  0  0  0  0  0  0  0  0  0  0  0
    1.4445    1.1245    1.6570 N   0  0  0  0  0  0  0  0  0  0  0  0
    0.1343   -1.2443    1.8070 C   0  0  0  0  0  0  0  0  0  0  0  0
   -1.2273   -0.7956    1.2508 C   0  0  0  0  0  0  0  0  0  0  0  0
   -7.4302    0.7581   -1.6518 H   0  0  0  0  0  0  0  0  0  0  0  0
   -7.9904   -0.7061   -0.8198 H   0  0  0  0  0  0  0  0  0  0  0  0
   -8.3127    0.8900   -0.1209 H   0  0  0  0  0  0  0  0  0  0  0  0
   -5.8968    1.2535    0.2628 H   0  0  0  0  0  0  0  0  0  0  0  0
   -6.4536   -0.2027    1.0902 H   0  0  0  0  0  0  0  0  0  0  0  0
   -5.0378   -0.1534   -1.6314 H   0  0  0  0  0  0  0  0  0  0  0  0
   -5.5950   -1.6061   -0.8065 H   0  0  0  0  0  0  0  0  0  0  0  0
   -4.0847   -1.1158    1.1141 H   0  0  0  0  0  0  0  0  0  0  0  0
   -3.5289    0.3682    0.2959 H   0  0  0  0  0  0  0  0  0  0  0  0
   -0.7332   -2.3965   -1.7180 H   0  0  0  0  0  0  0  0  0  0  0  0
   -0.3895   -3.1750   -0.1712 H   0  0  0  0  0  0  0  0  0  0  0  0
    1.6367   -2.0262   -1.0396 H   0  0  0  0  0  0  0  0  0  0  0  0
    0.7249   -0.5110   -1.1864 H   0  0  0  0  0  0  0  0  0  0  0  0
    3.5098   -0.5962   -0.3135 H   0  0  0  0  0  0  0  0  0  0  0  0
    5.5194    3.5800    0.6190 H   0  0  0  0  0  0  0  0  0  0  0  0
    7.8088    3.3681   -0.8918 H   0  0  0  0  0  0  0  0  0  0  0  0
    5.3624   -1.1239   -1.3379 H   0  0  0  0  0  0  0  0  0  0  0  0
    5.9529   -0.4556   -2.8553 H   0  0  0  0  0  0  0  0  0  0  0  0
    4.2883   -0.1394   -2.3866 H   0  0  0  0  0  0  0  0  0  0  0  0
    1.7814    3.0501    2.3330 H   0  0  0  0  0  0  0  0  0  0  0  0
    0.0769   -2.3117    2.0582 H   0  0  0  0  0  0  0  0  0  0  0  0
    0.3542   -0.7401    2.7560 H   0  0  0  0  0  0  0  0  0  0  0  0
   -2.0074   -0.9827    1.9949 H   0  0  0  0  0  0  0  0  0  0  0  0
   -1.2193    0.2781    1.0321 H   0  0  0  0  0  0  0  0  0  0  0  0
  1  2  1  0
  2  3  1  0
  3  4  1  0
  4  5  1  0
  5  6  2  0
  5  7  1  0
  7  8  1  0
  8  9  1  0
  9 10  1  0
 10 11  1  0
 11 12  2  0
 12 13  1  0
 13 14  1  0
 14 15  1  0
 15 16  2  0
 16 17  1  0
 17 18  2  0
 18 19  1  0
 13 20  2  0
 20 21  1  0
 21 22  2  0
 10 23  1  0
 23 24  1  0
 24  7  1  0
 22 11  1  0
 18 14  1  0
  1 25  1  0
  1 26  1  0
  1 27  1  0
  2 28  1  0
  2 29  1  0
  3 30  1  0
  3 31  1  0
  4 32  1  0
  4 33  1  0
  8 34  1  0
  8 35  1  0
  9 36  1  0
  9 37  1  0
 12 38  1  0
 15 39  1  0
 16 40  1  0
 19 41  1  0
 19 42  1  0
 19 43  1  0
 21 44  1  0
 23 45  1  0
 23 46  1  0
 24 47  1  0
 24 48  1  0
M  END
$$$$
