
     RDKit          3D

 36 38  0  0  0  0  0  0  0  0999 V2000
    1.9391   -3.3943    1.4164 C   0  0  0  0  0  0  0  0  0  0  0  0
    1.5747   -2.4516    0.3657 N   0  0  0  0  0  0  0  0  0  0  0  0
    0.2593   -2.1148    0.0949 C   0  0  0  0  0  0  0  0  0  0  0  0
   -1.0109   -2.8997    1.0228 S   0  0  0  0  0  0  0  0  0  0  0  0
   -2.1143   -1.4718    1.2543 C   0  0  0  0  0  0  0  0  0  0  0  0
   -1.3791   -0.2781    1.8444 C   0  0  0  0  0  0  0  0  0  0  0  0
   -0.4325   -0.3892    2.6239 O   0  0  0  0  0  0  0  0  0  0  0  0
   -1.8372    1.0884    1.4628 C   0  0  0  0  0  0  0  0  0  0  0  0
   -0.9206    2.1445    1.5485 C   0  0  0  0  0  0  0  0  0  0  0  0
   -1.3035    3.4389    1.1932 C   0  0  0  0  0  0  0  0  0  0  0  0
   -2.6048    3.6851    0.7579 C   0  0  0  0  0  0  0  0  0  0  0  0
   -3.5254    2.6402    0.6809 C   0  0  0  0  0  0  0  0  0  0  0  0
   -3.1459    1.3424    1.0347 C   0  0  0  0  0  0  0  0  0  0  0  0
   -0.1120   -1.2631   -0.8054 N   0  0  0  0  0  0  0  0  0  0  0  0
    0.8760   -0.6129   -1.5489 C   0  0  0  0  0  0  0  0  0  0  0  0
    0.4896    0.3343   -2.5009 C   0  0  0  0  0  0  0  0  0  0  0  0
    1.4470    1.0061   -3.2658 C   0  0  0  0  0  0  0  0  0  0  0  0
    2.8026    0.7356   -3.0825 C   0  0  0  0  0  0  0  0  0  0  0  0
    3.1994   -0.2073   -2.1346 C   0  0  0  0  0  0  0  0  0  0  0  0
    2.2314   -0.8729   -1.3722 C   0  0  0  0  0  0  0  0  0  0  0  0
    2.6132   -1.8646   -0.3509 C   0  0  0  0  0  0  0  0  0  0  0  0
    3.8047   -2.1170   -0.1856 O   0  0  0  0  0  0  0  0  0  0  0  0
    1.5022   -4.3720    1.1903 H   0  0  0  0  0  0  0  0  0  0  0  0
    3.0212   -3.5160    1.5119 H   0  0  0  0  0  0  0  0  0  0  0  0
    1.5484   -3.0360    2.3739 H   0  0  0  0  0  0  0  0  0  0  0  0
   -2.5533   -1.2263    0.2835 H   0  0  0  0  0  0  0  0  0  0  0  0
   -2.9175   -1.7549    1.9407 H   0  0  0  0  0  0  0  0  0  0  0  0
    0.0977    1.9612    1.8873 H   0  0  0  0  0  0  0  0  0  0  0  0
   -0.5856    4.2526    1.2578 H   0  0  0  0  0  0  0  0  0  0  0  0
   -2.9026    4.6947    0.4850 H   0  0  0  0  0  0  0  0  0  0  0  0
   -4.5421    2.8398    0.3501 H   0  0  0  0  0  0  0  0  0  0  0  0
   -3.8915    0.5546    0.9820 H   0  0  0  0  0  0  0  0  0  0  0  0
   -0.5663    0.5502   -2.6444 H   0  0  0  0  0  0  0  0  0  0  0  0
    1.1331    1.7395   -4.0045 H   0  0  0  0  0  0  0  0  0  0  0  0
    3.5493    1.2561   -3.6777 H   0  0  0  0  0  0  0  0  0  0  0  0
    4.2562   -0.4217   -1.9894 H   0  0  0  0  0  0  0  0  0  0  0  0
  1  2  1  0
  2  3  1  0
  3  4  1  0
  4  5  1  0
  5  6  1  0
  6  7  2  0
  6  8  1  0
  8  9  2  0
  9 10  1  0
 10 11  2  0
 11 12  1  0
 12 13  2  0
  3 14  2  0
 14 15  1  0
 15 16  2  0
 16 17  1  0
 17 18  2  0
 18 19  1  0
 19 20  2  0
 20 21  1  0
 21 22  2  0
 21  2  1  0
 13  8  1  0
 20 15  1  0
  1 23  1  0
  1 24  1  0
  1 25  1  0
  5 26  1  0
  5 27  1  0
  9 28  1  0
 10 29  1  0
 11 30  1  0
 12 31  1  0
 13 32  1  0
 16 33  1  0
 17 34  1  0
 18 35  1  0
 19 36  1  0
M  END
$$$$
