
     RDKit          3D

 41 42  0  0  0  0  0  0  0  0999 V2000
    6.0346   -0.6045    0.3645 C   0  0  0  0  0  0  0  0  0  0  0  0
    4.6398   -1.2172    0.4352 C   0  0  0  0  0  0  0  0  0  0  0  0
    4.4265   -1.9268    1.7703 C   0  0  0  0  0  0  0  0  0  0  0  0
    3.6305   -0.1859    0.2384 N   0  0  0  0  0  0  0  0  0  0  0  0
    2.3718   -0.4781   -0.2384 C   0  0  0  0  0  0  0  0  0  0  0  0
    2.0399   -1.5964   -0.6192 O   0  0  0  0  0  0  0  0  0  0  0  0
    1.3752    0.6269   -0.2823 C   0  0  0  0  0  0  0  0  0  0  0  0
    0.1541    0.3874   -0.9326 C   0  0  0  0  0  0  0  0  0  0  0  0
   -0.8223    1.3885   -0.9746 C   0  0  0  0  0  0  0  0  0  0  0  0
   -2.3590    1.0615   -1.8081 S   0  0  0  0  0  6  0  0  0  0  0  0
   -3.1369    2.2844   -1.7840 O   0  0  0  0  0  0  0  0  0  0  0  0
   -2.0223    0.4172   -3.0608 O   0  0  0  0  0  0  0  0  0  0  0  0
   -3.1819   -0.1263   -0.7797 C   0  0  0  0  0  0  0  0  0  0  0  0
   -4.5391   -0.5339   -1.3641 C   0  0  0  0  0  0  0  0  0  0  0  0
   -5.2148   -1.3864   -0.2999 C   0  0  0  0  0  0  0  0  0  0  0  0
   -4.7344   -0.6550    1.2568 S   0  0  0  0  0  6  0  0  0  0  0  0
   -4.0899   -1.6696    2.0629 O   0  0  0  0  0  0  0  0  0  0  0  0
   -5.8197    0.1620    1.7532 O   0  0  0  0  0  0  0  0  0  0  0  0
   -3.4706    0.4174    0.6108 C   0  0  0  0  0  0  0  0  0  0  0  0
   -0.5913    2.6388   -0.3960 C   0  0  0  0  0  0  0  0  0  0  0  0
    0.6232    2.8783    0.2467 C   0  0  0  0  0  0  0  0  0  0  0  0
    1.5942    1.8768    0.3030 C   0  0  0  0  0  0  0  0  0  0  0  0
    2.7417    2.1518    0.9417 F   0  0  0  0  0  0  0  0  0  0  0  0
    6.1806    0.1461    1.1494 H   0  0  0  0  0  0  0  0  0  0  0  0
    6.1904   -0.1075   -0.5994 H   0  0  0  0  0  0  0  0  0  0  0  0
    6.8062   -1.3729    0.4784 H   0  0  0  0  0  0  0  0  0  0  0  0
    4.5377   -1.9532   -0.3712 H   0  0  0  0  0  0  0  0  0  0  0  0
    4.4931   -1.2232    2.6077 H   0  0  0  0  0  0  0  0  0  0  0  0
    5.1768   -2.7099    1.9207 H   0  0  0  0  0  0  0  0  0  0  0  0
    3.4374   -2.3953    1.8130 H   0  0  0  0  0  0  0  0  0  0  0  0
    3.7982    0.7241    0.6544 H   0  0  0  0  0  0  0  0  0  0  0  0
   -0.0208   -0.5743   -1.4149 H   0  0  0  0  0  0  0  0  0  0  0  0
   -2.5383   -1.0124   -0.7197 H   0  0  0  0  0  0  0  0  0  0  0  0
   -5.1497    0.3543   -1.5697 H   0  0  0  0  0  0  0  0  0  0  0  0
   -4.4353   -1.0815   -2.3063 H   0  0  0  0  0  0  0  0  0  0  0  0
   -4.8363   -2.4125   -0.3192 H   0  0  0  0  0  0  0  0  0  0  0  0
   -6.3028   -1.3860   -0.3908 H   0  0  0  0  0  0  0  0  0  0  0  0
   -3.8760    1.4332    0.5922 H   0  0  0  0  0  0  0  0  0  0  0  0
   -2.5974    0.3859    1.2667 H   0  0  0  0  0  0  0  0  0  0  0  0
   -1.3375    3.4302   -0.4458 H   0  0  0  0  0  0  0  0  0  0  0  0
    0.8241    3.8439    0.7038 H   0  0  0  0  0  0  0  0  0  0  0  0
  1  2  1  0
  2  3  1  0
  2  4  1  0
  4  5  1  0
  5  6  2  0
  5  7  1  0
  7  8  2  0
  8  9  1  0
  9 10  1  0
 10 11  2  0
 10 12  2  0
 10 13  1  0
 13 14  1  0
 14 15  1  0
 15 16  1  0
 16 17  2  0
 16 18  2  0
 16 19  1  0
  9 20  2  0
 20 21  1  0
 21 22  2  0
 22 23  1  0
 22  7  1  0
 19 13  1  0
  1 24  1  0
  1 25  1  0
  1 26  1  0
  2 27  1  0
  3 28  1  0
  3 29  1  0
  3 30  1  0
  4 31  1  0
  8 32  1  0
 13 33  1  0
 14 34  1  0
 14 35  1  0
 15 36  1  0
 15 37  1  0
 19 38  1  0
 19 39  1  0
 20 40  1  0
 21 41  1  0
M  END
$$$$
