
     RDKit          3D

 42 44  0  0  0  0  0  0  0  0999 V2000
   -6.2646    1.7184    1.2550 C   0  0  0  0  0  0  0  0  0  0  0  0
   -4.7594    1.7713    0.3059 S   0  0  0  0  0  6  0  0  0  0  0  0
   -3.8814    2.7150    0.9669 O   0  0  0  0  0  0  0  0  0  0  0  0
   -5.1055    1.9201   -1.0922 O   0  0  0  0  0  0  0  0  0  0  0  0
   -4.1724    0.1885    0.5456 N   0  0  0  0  0  0  0  0  0  0  0  0
   -4.9536   -0.9142   -0.1177 C   0  0  0  0  0  0  0  0  0  0  0  0
   -4.0000   -1.6158   -1.0981 C   0  0  0  0  0  0  0  0  0  0  0  0
   -2.6665   -1.0989   -0.6764 C   0  0  0  0  0  0  0  0  0  0  0  0
   -1.4179   -1.5231   -1.0953 C   0  0  0  0  0  0  0  0  0  0  0  0
   -0.2876   -0.8615   -0.6006 C   0  0  0  0  0  0  0  0  0  0  0  0
   -0.4118    0.2339    0.2706 C   0  0  0  0  0  0  0  0  0  0  0  0
    0.7055    0.8810    0.8892 N   0  0  0  0  0  0  0  0  0  0  0  0
    2.2150    1.0237    0.1506 S   0  0  0  0  0  6  0  0  0  0  0  0
    2.7784    2.2338    0.7164 O   0  0  0  0  0  0  0  0  0  0  0  0
    2.0787    0.8537   -1.2793 O   0  0  0  0  0  0  0  0  0  0  0  0
    3.0759   -0.3833    0.8681 C   0  0  0  0  0  0  0  0  0  0  0  0
    4.4962   -0.4104    0.3625 C   0  0  0  0  0  0  0  0  0  0  0  0
    4.8179   -1.0883   -0.8234 C   0  0  0  0  0  0  0  0  0  0  0  0
    6.1333   -1.1093   -1.2929 C   0  0  0  0  0  0  0  0  0  0  0  0
    7.1337   -0.4510   -0.5818 C   0  0  0  0  0  0  0  0  0  0  0  0
    8.7540   -0.4795   -1.1597 Cl  0  0  0  0  0  0  0  0  0  0  0  0
    6.8293    0.2318    0.5931 C   0  0  0  0  0  0  0  0  0  0  0  0
    5.5142    0.2536    1.0636 C   0  0  0  0  0  0  0  0  0  0  0  0
   -1.6847    0.6215    0.7086 C   0  0  0  0  0  0  0  0  0  0  0  0
   -2.7966   -0.0323    0.2038 C   0  0  0  0  0  0  0  0  0  0  0  0
   -6.9474    0.9872    0.8205 H   0  0  0  0  0  0  0  0  0  0  0  0
   -6.0218    1.4648    2.2886 H   0  0  0  0  0  0  0  0  0  0  0  0
   -6.7189    2.7111    1.2162 H   0  0  0  0  0  0  0  0  0  0  0  0
   -5.8545   -0.5658   -0.6309 H   0  0  0  0  0  0  0  0  0  0  0  0
   -5.2749   -1.6097    0.6676 H   0  0  0  0  0  0  0  0  0  0  0  0
   -4.2114   -1.3115   -2.1286 H   0  0  0  0  0  0  0  0  0  0  0  0
   -4.0733   -2.7038   -1.0137 H   0  0  0  0  0  0  0  0  0  0  0  0
   -1.3095   -2.3472   -1.7941 H   0  0  0  0  0  0  0  0  0  0  0  0
    0.6842   -1.2143   -0.9307 H   0  0  0  0  0  0  0  0  0  0  0  0
    0.4930    1.7405    1.4014 H   0  0  0  0  0  0  0  0  0  0  0  0
    2.5479   -1.2986    0.5871 H   0  0  0  0  0  0  0  0  0  0  0  0
    3.0491   -0.2794    1.9574 H   0  0  0  0  0  0  0  0  0  0  0  0
    4.0456   -1.5954   -1.3993 H   0  0  0  0  0  0  0  0  0  0  0  0
    6.3683   -1.6336   -2.2154 H   0  0  0  0  0  0  0  0  0  0  0  0
    7.6073    0.7543    1.1434 H   0  0  0  0  0  0  0  0  0  0  0  0
    5.2904    0.8044    1.9759 H   0  0  0  0  0  0  0  0  0  0  0  0
   -1.8042    1.4183    1.4344 H   0  0  0  0  0  0  0  0  0  0  0  0
  1  2  1  0
  2  3  2  0
  2  4  2  0
  2  5  1  0
  5  6  1  0
  6  7  1  0
  7  8  1  0
  8  9  2  0
  9 10  1  0
 10 11  2  0
 11 12  1  0
 12 13  1  0
 13 14  2  0
 13 15  2  0
 13 16  1  0
 16 17  1  0
 17 18  2  0
 18 19  1  0
 19 20  2  0
 20 21  1  0
 20 22  1  0
 22 23  2  0
 11 24  1  0
 24 25  2  0
 25  5  1  0
 25  8  1  0
 23 17  1  0
  1 26  1  0
  1 27  1  0
  1 28  1  0
  6 29  1  0
  6 30  1  0
  7 31  1  0
  7 32  1  0
  9 33  1  0
 10 34  1  0
 12 35  1  0
 16 36  1  0
 16 37  1  0
 18 38  1  0
 19 39  1  0
 22 40  1  0
 23 41  1  0
 24 42  1  0
M  END
$$$$
