
     RDKit          3D

 32 34  0  0  0  0  0  0  0  0999 V2000
    4.9987    1.5264   -0.3787 C   0  0  0  0  0  0  0  0  0  0  0  0
    4.3942    0.5382    0.4453 O   0  0  0  0  0  0  0  0  0  0  0  0
    3.1827    0.0507    0.0398 C   0  0  0  0  0  0  0  0  0  0  0  0
    2.4880    0.4278   -1.1090 C   0  0  0  0  0  0  0  0  0  0  0  0
    1.2496   -0.1537   -1.4073 C   0  0  0  0  0  0  0  0  0  0  0  0
    0.6872   -1.1182   -0.5603 C   0  0  0  0  0  0  0  0  0  0  0  0
   -0.6506   -1.7445   -0.8786 C   0  0  0  0  0  0  0  0  0  0  0  0
   -1.6775   -1.3812    0.0618 N   0  0  0  0  0  0  0  0  0  0  0  0
   -2.0867   -2.1453    1.1346 C   0  0  0  0  0  0  0  0  0  0  0  0
   -1.6675   -3.2566    1.4305 O   0  0  0  0  0  0  0  0  0  0  0  0
   -3.0753   -1.4839    1.8772 O   0  0  0  0  0  0  0  0  0  0  0  0
   -3.2100   -0.2862    1.1947 C   0  0  0  0  0  0  0  0  0  0  0  0
   -4.0688    0.7356    1.5398 C   0  0  0  0  0  0  0  0  0  0  0  0
   -4.0661    1.8769    0.7329 C   0  0  0  0  0  0  0  0  0  0  0  0
   -3.2139    1.9656   -0.3856 C   0  0  0  0  0  0  0  0  0  0  0  0
   -2.3516    0.9147   -0.7155 C   0  0  0  0  0  0  0  0  0  0  0  0
   -2.3763   -0.1973    0.0979 C   0  0  0  0  0  0  0  0  0  0  0  0
    1.3937   -1.4954    0.5892 C   0  0  0  0  0  0  0  0  0  0  0  0
    2.6287   -0.9132    0.8838 C   0  0  0  0  0  0  0  0  0  0  0  0
    5.9498    1.8100    0.0823 H   0  0  0  0  0  0  0  0  0  0  0  0
    4.3766    2.4255   -0.4383 H   0  0  0  0  0  0  0  0  0  0  0  0
    5.2174    1.1294   -1.3755 H   0  0  0  0  0  0  0  0  0  0  0  0
    2.8809    1.1703   -1.7952 H   0  0  0  0  0  0  0  0  0  0  0  0
    0.7300    0.1555   -2.3113 H   0  0  0  0  0  0  0  0  0  0  0  0
   -0.5312   -2.8350   -0.8786 H   0  0  0  0  0  0  0  0  0  0  0  0
   -0.9844   -1.4699   -1.8865 H   0  0  0  0  0  0  0  0  0  0  0  0
   -4.7182    0.6566    2.4042 H   0  0  0  0  0  0  0  0  0  0  0  0
   -4.7274    2.7074    0.9714 H   0  0  0  0  0  0  0  0  0  0  0  0
   -3.2273    2.8651   -0.9978 H   0  0  0  0  0  0  0  0  0  0  0  0
   -1.6975    0.9876   -1.5749 H   0  0  0  0  0  0  0  0  0  0  0  0
    0.9888   -2.2474    1.2647 H   0  0  0  0  0  0  0  0  0  0  0  0
    3.1639   -1.2155    1.7809 H   0  0  0  0  0  0  0  0  0  0  0  0
  1  2  1  0
  2  3  1  0
  3  4  2  0
  4  5  1  0
  5  6  2  0
  6  7  1  0
  7  8  1  0
  8  9  1  0
  9 10  2  0
  9 11  1  0
 11 12  1  0
 12 13  2  0
 13 14  1  0
 14 15  2  0
 15 16  1  0
 16 17  2  0
  6 18  1  0
 18 19  2  0
 19  3  1  0
 17  8  1  0
 17 12  1  0
  1 20  1  0
  1 21  1  0
  1 22  1  0
  4 23  1  0
  5 24  1  0
  7 25  1  0
  7 26  1  0
 13 27  1  0
 14 28  1  0
 15 29  1  0
 16 30  1  0
 18 31  1  0
 19 32  1  0
M  END
$$$$
