
     RDKit          3D

 44 46  0  0  0  0  0  0  0  0999 V2000
   -2.0244    2.3865    0.3560 C   0  0  0  0  0  0  0  0  0  0  0  0
   -2.3829    0.9045    0.5228 C   0  0  0  0  0  0  0  0  0  0  0  0
   -1.1189    0.2044    1.0739 C   0  0  0  0  0  0  0  0  0  0  0  0
   -0.9809   -0.0746    2.2607 O   0  0  0  0  0  0  0  0  0  0  0  0
   -0.1527   -0.0287    0.1154 N   0  0  0  0  0  0  0  0  0  0  0  0
    1.0308   -0.8215    0.3893 C   0  0  0  0  0  0  0  0  0  0  0  0
    2.0382   -0.1715    1.3571 C   0  0  0  0  0  0  0  0  0  0  0  0
    2.5564    1.1856    0.8845 C   0  0  0  0  0  0  0  0  0  0  0  0
    3.2785    1.0777   -0.3473 O   0  0  0  0  0  0  0  0  0  0  0  0
    4.1977    0.0626   -0.2851 C   0  0  0  0  0  0  0  0  0  0  0  0
    5.2175    0.0794   -1.2346 C   0  0  0  0  0  0  0  0  0  0  0  0
    6.1938   -0.9180   -1.2232 C   0  0  0  0  0  0  0  0  0  0  0  0
    6.1450   -1.9328   -0.2661 C   0  0  0  0  0  0  0  0  0  0  0  0
    5.1137   -1.9577    0.6745 C   0  0  0  0  0  0  0  0  0  0  0  0
    4.1329   -0.9676    0.6573 C   0  0  0  0  0  0  0  0  0  0  0  0
    3.1344   -1.0786    1.5896 O   0  0  0  0  0  0  0  0  0  0  0  0
   -2.7941    0.2432   -0.7543 N   0  0  0  0  0  0  0  0  0  0  0  0
   -3.2686   -1.1502   -0.5164 C   0  0  0  0  0  0  0  0  0  0  0  0
   -4.6596   -1.2470    0.1381 C   0  0  0  0  0  0  0  0  0  0  0  0
   -5.6422   -0.5212   -0.6094 O   0  0  0  0  0  0  0  0  0  0  0  0
   -5.2538    0.8476   -0.7714 C   0  0  0  0  0  0  0  0  0  0  0  0
   -3.8858    0.9525   -1.4645 C   0  0  0  0  0  0  0  0  0  0  0  0
   -1.5257    2.7692    1.2541 H   0  0  0  0  0  0  0  0  0  0  0  0
   -1.3403    2.5452   -0.4855 H   0  0  0  0  0  0  0  0  0  0  0  0
   -2.9170    2.9993    0.1961 H   0  0  0  0  0  0  0  0  0  0  0  0
   -3.1651    0.8185    1.2853 H   0  0  0  0  0  0  0  0  0  0  0  0
   -0.5127   -0.0123   -0.8369 H   0  0  0  0  0  0  0  0  0  0  0  0
    0.7051   -1.7858    0.7985 H   0  0  0  0  0  0  0  0  0  0  0  0
    1.4974   -1.0417   -0.5770 H   0  0  0  0  0  0  0  0  0  0  0  0
    1.5587   -0.0261    2.3311 H   0  0  0  0  0  0  0  0  0  0  0  0
    1.7326    1.8896    0.7275 H   0  0  0  0  0  0  0  0  0  0  0  0
    3.2249    1.6290    1.6345 H   0  0  0  0  0  0  0  0  0  0  0  0
    5.2576    0.8737   -1.9745 H   0  0  0  0  0  0  0  0  0  0  0  0
    6.9945   -0.9016   -1.9583 H   0  0  0  0  0  0  0  0  0  0  0  0
    6.9075   -2.7075   -0.2551 H   0  0  0  0  0  0  0  0  0  0  0  0
    5.0694   -2.7529    1.4135 H   0  0  0  0  0  0  0  0  0  0  0  0
   -3.3166   -1.6419   -1.4971 H   0  0  0  0  0  0  0  0  0  0  0  0
   -2.5426   -1.7267    0.0669 H   0  0  0  0  0  0  0  0  0  0  0  0
   -4.6510   -0.8814    1.1707 H   0  0  0  0  0  0  0  0  0  0  0  0
   -4.9781   -2.2941    0.1662 H   0  0  0  0  0  0  0  0  0  0  0  0
   -6.0164    1.3326   -1.3891 H   0  0  0  0  0  0  0  0  0  0  0  0
   -5.2559    1.3445    0.2053 H   0  0  0  0  0  0  0  0  0  0  0  0
   -3.9710    0.4957   -2.4599 H   0  0  0  0  0  0  0  0  0  0  0  0
   -3.6302    1.9998   -1.6520 H   0  0  0  0  0  0  0  0  0  0  0  0
  1  2  1  0
  2  3  1  0
  3  4  2  0
  3  5  1  0
  5  6  1  0
  6  7  1  0
  7  8  1  0
  8  9  1  0
  9 10  1  0
 10 11  2  0
 11 12  1  0
 12 13  2  0
 13 14  1  0
 14 15  2  0
 15 16  1  0
  2 17  1  0
 17 18  1  0
 18 19  1  0
 19 20  1  0
 20 21  1  0
 21 22  1  0
 16  7  1  0
 22 17  1  0
 15 10  1  0
  1 23  1  0
  1 24  1  0
  1 25  1  0
  2 26  1  0
  5 27  1  0
  6 28  1  0
  6 29  1  0
  7 30  1  0
  8 31  1  0
  8 32  1  0
 11 33  1  0
 12 34  1  0
 13 35  1  0
 14 36  1  0
 18 37  1  0
 18 38  1  0
 19 39  1  0
 19 40  1  0
 21 41  1  0
 21 42  1  0
 22 43  1  0
 22 44  1  0
M  END
$$$$
