
     RDKit          3D

 48 50  0  0  0  0  0  0  0  0999 V2000
   -2.0383    1.9293   -3.2665 C   0  0  0  0  0  0  0  0  0  0  0  0
   -1.1067    1.3759   -2.2247 C   0  0  0  0  0  0  0  0  0  0  0  0
    0.1809    0.9784   -2.6282 C   0  0  0  0  0  0  0  0  0  0  0  0
    1.1052    0.4733   -1.7088 C   0  0  0  0  0  0  0  0  0  0  0  0
    0.7593    0.3650   -0.3600 C   0  0  0  0  0  0  0  0  0  0  0  0
    1.7007   -0.1840    0.6498 C   0  0  0  0  0  0  0  0  0  0  0  0
    1.2677   -0.8268    1.5987 O   0  0  0  0  0  0  0  0  0  0  0  0
    3.0361    0.0933    0.4517 N   0  0  0  0  0  0  0  0  0  0  0  0
    4.0557   -0.3968    1.3664 C   0  0  0  0  0  0  0  0  0  0  0  0
    5.3907    0.3100    1.1494 C   0  0  0  0  0  0  0  0  0  0  0  0
    6.0301   -0.4126   -0.0346 C   0  0  0  0  0  0  0  0  0  0  0  0
    5.3771   -1.7935   -0.0946 C   0  0  0  0  0  0  0  0  0  0  0  0
    4.4120   -1.8555    1.0862 C   0  0  0  0  0  0  0  0  0  0  0  0
   -0.5209    0.7356    0.0575 C   0  0  0  0  0  0  0  0  0  0  0  0
   -1.4561    1.2241   -0.8698 C   0  0  0  0  0  0  0  0  0  0  0  0
   -3.0737    1.6330   -0.2347 S   0  0  0  0  0  6  0  0  0  0  0  0
   -2.9143    2.8362    0.5526 O   0  0  0  0  0  0  0  0  0  0  0  0
   -4.0540    1.5558   -1.2964 O   0  0  0  0  0  0  0  0  0  0  0  0
   -3.4270    0.3419    0.8292 N   0  0  0  0  0  0  0  0  0  0  0  0
   -3.5110   -1.0151    0.1882 C   0  0  0  0  0  0  0  0  0  0  0  0
   -4.2702   -1.9886    1.0955 C   0  0  0  0  0  0  0  0  0  0  0  0
   -5.6347   -1.6026    1.3105 O   0  0  0  0  0  0  0  0  0  0  0  0
   -5.8318   -0.1812    1.2786 C   0  0  0  0  0  0  0  0  0  0  0  0
   -4.5994    0.6063    1.7316 C   0  0  0  0  0  0  0  0  0  0  0  0
   -1.5010    2.1721   -4.1903 H   0  0  0  0  0  0  0  0  0  0  0  0
   -2.4975    2.8613   -2.9228 H   0  0  0  0  0  0  0  0  0  0  0  0
   -2.8086    1.1946   -3.5187 H   0  0  0  0  0  0  0  0  0  0  0  0
    0.4750    1.0581   -3.6742 H   0  0  0  0  0  0  0  0  0  0  0  0
    2.0780    0.1468   -2.0665 H   0  0  0  0  0  0  0  0  0  0  0  0
    3.3131    0.7196   -0.2918 H   0  0  0  0  0  0  0  0  0  0  0  0
    3.6914   -0.2644    2.3909 H   0  0  0  0  0  0  0  0  0  0  0  0
    6.0248    0.1784    2.0351 H   0  0  0  0  0  0  0  0  0  0  0  0
    5.2892    1.3845    0.9666 H   0  0  0  0  0  0  0  0  0  0  0  0
    7.1162   -0.4819    0.0845 H   0  0  0  0  0  0  0  0  0  0  0  0
    5.8373    0.1313   -0.9666 H   0  0  0  0  0  0  0  0  0  0  0  0
    6.1178   -2.5981   -0.0484 H   0  0  0  0  0  0  0  0  0  0  0  0
    4.8310   -1.9043   -1.0388 H   0  0  0  0  0  0  0  0  0  0  0  0
    4.9304   -2.2814    1.9542 H   0  0  0  0  0  0  0  0  0  0  0  0
    3.5452   -2.4875    0.8694 H   0  0  0  0  0  0  0  0  0  0  0  0
   -0.7885    0.6407    1.1098 H   0  0  0  0  0  0  0  0  0  0  0  0
   -4.0287   -0.9470   -0.7746 H   0  0  0  0  0  0  0  0  0  0  0  0
   -2.4991   -1.3956    0.0213 H   0  0  0  0  0  0  0  0  0  0  0  0
   -4.2794   -2.9894    0.6525 H   0  0  0  0  0  0  0  0  0  0  0  0
   -3.7828   -2.0682    2.0742 H   0  0  0  0  0  0  0  0  0  0  0  0
   -6.6828    0.0435    1.9292 H   0  0  0  0  0  0  0  0  0  0  0  0
   -6.1180    0.0961    0.2577 H   0  0  0  0  0  0  0  0  0  0  0  0
   -4.8376    1.6733    1.7778 H   0  0  0  0  0  0  0  0  0  0  0  0
   -4.3025    0.3000    2.7418 H   0  0  0  0  0  0  0  0  0  0  0  0
  1  2  1  0
  2  3  2  0
  3  4  1  0
  4  5  2  0
  5  6  1  0
  6  7  2  0
  6  8  1  0
  8  9  1  0
  9 10  1  0
 10 11  1  0
 11 12  1  0
 12 13  1  0
  5 14  1  0
 14 15  2  0
 15 16  1  0
 16 17  2  0
 16 18  2  0
 16 19  1  0
 19 20  1  0
 20 21  1  0
 21 22  1  0
 22 23  1  0
 23 24  1  0
 15  2  1  0
 24 19  1  0
 13  9  1  0
  1 25  1  0
  1 26  1  0
  1 27  1  0
  3 28  1  0
  4 29  1  0
  8 30  1  0
  9 31  1  0
 10 32  1  0
 10 33  1  0
 11 34  1  0
 11 35  1  0
 12 36  1  0
 12 37  1  0
 13 38  1  0
 13 39  1  0
 14 40  1  0
 20 41  1  0
 20 42  1  0
 21 43  1  0
 21 44  1  0
 23 45  1  0
 23 46  1  0
 24 47  1  0
 24 48  1  0
M  END
$$$$
