
     RDKit          3D

 34 34  0  0  0  0  0  0  0  0999 V2000
    6.4455    0.8769    0.0158 C   0  0  0  0  0  0  0  0  0  0  0  0
    5.5225    0.0923    0.7049 O   0  0  0  0  0  0  0  0  0  0  0  0
    4.1645    0.0513    0.4202 C   0  0  0  0  0  0  0  0  0  0  0  0
    3.3372   -0.7610    1.1651 C   0  0  0  0  0  0  0  0  0  0  0  0
    1.9939   -0.8031    0.8854 C   0  0  0  0  0  0  0  0  0  0  0  0
    1.4101   -0.0628   -0.1209 C   0  0  0  0  0  0  0  0  0  0  0  0
   -0.0274   -0.1435   -0.3786 C   0  0  0  0  0  0  0  0  0  0  0  0
   -0.7429    0.5077   -1.3132 N   0  0  0  0  0  0  0  0  0  0  0  0
   -1.9892    0.1577   -1.2100 O   0  0  0  0  0  0  0  0  0  0  0  0
   -2.1669   -0.6944   -0.2597 C   0  0  0  0  0  0  0  0  0  0  0  0
   -3.3371   -1.3932    0.2690 C   0  0  0  0  0  0  0  0  0  0  0  0
   -4.6341   -1.0874   -0.3622 C   0  0  0  0  0  0  0  0  0  0  0  0
   -5.1233    0.3077   -0.2973 C   0  0  0  0  0  0  0  0  0  0  0  0
   -4.3206    1.3163   -0.8904 N   0  0  0  0  0  0  0  0  0  0  0  0
   -0.9259   -0.8954    0.2785 N   0  0  0  0  0  0  0  0  0  0  0  0
    2.2362    0.7474   -0.8635 C   0  0  0  0  0  0  0  0  0  0  0  0
    3.5898    0.8037   -0.5978 C   0  0  0  0  0  0  0  0  0  0  0  0
    0.6894    0.0000    0.0000 Cl  0  0  0  0  0  0  0  0  0  0  0  0
    6.8047    0.3044   -0.8714 H   0  0  0  0  0  0  0  0  0  0  0  0
    6.0158    1.8623   -0.2596 H   0  0  0  0  0  0  0  0  0  0  0  0
    7.3258    1.0919    0.6623 H   0  0  0  0  0  0  0  0  0  0  0  0
    3.7971   -1.3389    1.9517 H   0  0  0  0  0  0  0  0  0  0  0  0
    1.3360   -1.4367    1.4633 H   0  0  0  0  0  0  0  0  0  0  0  0
   -3.4494   -1.2816    1.3778 H   0  0  0  0  0  0  0  0  0  0  0  0
   -3.1455   -2.4945    0.1241 H   0  0  0  0  0  0  0  0  0  0  0  0
   -5.4069   -1.7254    0.1651 H   0  0  0  0  0  0  0  0  0  0  0  0
   -4.6886   -1.4795   -1.4226 H   0  0  0  0  0  0  0  0  0  0  0  0
   -6.1228    0.3400   -0.8262 H   0  0  0  0  0  0  0  0  0  0  0  0
   -5.3362    0.6398    0.7612 H   0  0  0  0  0  0  0  0  0  0  0  0
   -4.7499    1.7752   -1.6987 H   0  0  0  0  0  0  0  0  0  0  0  0
   -3.8428    1.9526   -0.2216 H   0  0  0  0  0  0  0  0  0  0  0  0
    1.7866    1.3292   -1.6521 H   0  0  0  0  0  0  0  0  0  0  0  0
    4.2438    1.4411   -1.1811 H   0  0  0  0  0  0  0  0  0  0  0  0
   -0.6894    0.0000    0.0000 H   0  0  0  0  0  0  0  0  0  0  0  0
  1  2  1  0
  2  3  1  0
  3  4  2  0
  4  5  1  0
  5  6  2  0
  6  7  1  0
  7  8  2  0
  8  9  1  0
  9 10  1  0
 10 11  1  0
 11 12  1  0
 12 13  1  0
 13 14  1  0
 10 15  2  0
  6 16  1  0
 16 17  2  0
 17  3  1  0
 15  7  1  0
  1 19  1  0
  1 20  1  0
  1 21  1  0
  4 22  1  0
  5 23  1  0
 11 24  1  0
 11 25  1  0
 12 26  1  0
 12 27  1  0
 13 28  1  0
 13 29  1  0
 14 30  1  0
 14 31  1  0
 16 32  1  0
 17 33  1  0
 18 34  1  0
M  END
$$$$
