
     RDKit          3D

 42 44  0  0  0  0  0  0  0  0999 V2000
    5.7454    1.8324   -1.6463 C   0  0  0  0  0  0  0  0  0  0  0  0
    4.3167    1.6629   -2.0972 C   0  0  0  0  0  0  0  0  0  0  0  0
    3.9544    2.2456   -3.1227 O   0  0  0  0  0  0  0  0  0  0  0  0
    3.4330    0.8209   -1.3026 C   0  0  0  0  0  0  0  0  0  0  0  0
    1.7913    0.6481   -1.8192 S   0  0  0  0  0  0  0  0  0  0  0  0
    1.4849   -0.3715   -0.4976 C   0  0  0  0  0  0  0  0  0  0  0  0
    0.1985   -0.8220   -0.4310 N   0  0  0  0  0  0  0  0  0  0  0  0
   -0.2496   -1.6097    0.5998 C   0  0  0  0  0  0  0  0  0  0  0  0
    0.3942   -2.0905    1.5240 O   0  0  0  0  0  0  0  0  0  0  0  0
   -1.7196   -1.9082    0.5084 C   0  0  0  0  0  0  0  0  0  0  0  0
   -2.5883   -0.8914    0.6574 C   0  0  0  0  0  0  0  0  0  0  0  0
   -2.2939    0.5331    0.8476 C   0  0  0  0  0  0  0  0  0  0  0  0
   -2.5949    1.4682   -0.1544 C   0  0  0  0  0  0  0  0  0  0  0  0
   -2.2585    2.8133    0.0091 C   0  0  0  0  0  0  0  0  0  0  0  0
   -1.6141    3.2357    1.1697 C   0  0  0  0  0  0  0  0  0  0  0  0
   -1.3075    2.3158    2.1699 C   0  0  0  0  0  0  0  0  0  0  0  0
   -1.6444    0.9704    2.0110 C   0  0  0  0  0  0  0  0  0  0  0  0
   -4.2840   -1.1921    0.6841 S   0  0  0  0  0  6  0  0  0  0  0  0
   -4.8213   -0.9538   -0.6451 O   0  0  0  0  0  0  0  0  0  0  0  0
   -4.8971   -0.5692    1.8424 O   0  0  0  0  0  0  0  0  0  0  0  0
   -4.3527   -2.9366    0.9580 C   0  0  0  0  0  0  0  0  0  0  0  0
   -3.3730   -3.5751    0.0127 C   0  0  0  0  0  0  0  0  0  0  0  0
   -2.0308   -3.2447    0.3620 O   0  0  0  0  0  0  0  0  0  0  0  0
    2.4902   -0.6014    0.2992 N   0  0  0  0  0  0  0  0  0  0  0  0
    3.6202    0.0731   -0.1445 C   0  0  0  0  0  0  0  0  0  0  0  0
    4.8490   -0.1028    0.6759 C   0  0  0  0  0  0  0  0  0  0  0  0
    6.2621    0.8702   -1.6520 H   0  0  0  0  0  0  0  0  0  0  0  0
    5.7793    2.2935   -0.6567 H   0  0  0  0  0  0  0  0  0  0  0  0
    6.2681    2.4967   -2.3422 H   0  0  0  0  0  0  0  0  0  0  0  0
   -0.4265   -0.4915   -1.1498 H   0  0  0  0  0  0  0  0  0  0  0  0
   -3.0996    1.1662   -1.0710 H   0  0  0  0  0  0  0  0  0  0  0  0
   -2.5028    3.5335   -0.7682 H   0  0  0  0  0  0  0  0  0  0  0  0
   -1.3541    4.2837    1.2972 H   0  0  0  0  0  0  0  0  0  0  0  0
   -0.8043    2.6447    3.0761 H   0  0  0  0  0  0  0  0  0  0  0  0
   -1.3879    0.2702    2.8052 H   0  0  0  0  0  0  0  0  0  0  0  0
   -4.0915   -3.1217    2.0047 H   0  0  0  0  0  0  0  0  0  0  0  0
   -5.3779   -3.2666    0.7705 H   0  0  0  0  0  0  0  0  0  0  0  0
   -3.5497   -3.3010   -1.0343 H   0  0  0  0  0  0  0  0  0  0  0  0
   -3.4593   -4.6648    0.0782 H   0  0  0  0  0  0  0  0  0  0  0  0
    4.6568   -0.7651    1.5268 H   0  0  0  0  0  0  0  0  0  0  0  0
    5.6503   -0.5544    0.0844 H   0  0  0  0  0  0  0  0  0  0  0  0
    5.1891    0.8557    1.0776 H   0  0  0  0  0  0  0  0  0  0  0  0
  1  2  1  0
  2  3  2  0
  2  4  1  0
  4  5  1  0
  5  6  1  0
  6  7  1  0
  7  8  1  0
  8  9  2  0
  8 10  1  0
 10 11  2  0
 11 12  1  0
 12 13  2  0
 13 14  1  0
 14 15  2  0
 15 16  1  0
 16 17  2  0
 11 18  1  0
 18 19  2  0
 18 20  2  0
 18 21  1  0
 21 22  1  0
 22 23  1  0
  6 24  2  0
 24 25  1  0
 25 26  1  0
 25  4  2  0
 23 10  1  0
 17 12  1  0
  1 27  1  0
  1 28  1  0
  1 29  1  0
  7 30  1  0
 13 31  1  0
 14 32  1  0
 15 33  1  0
 16 34  1  0
 17 35  1  0
 21 36  1  0
 21 37  1  0
 22 38  1  0
 22 39  1  0
 26 40  1  0
 26 41  1  0
 26 42  1  0
M  END
$$$$
