
     RDKit          3D

 52 55  0  0  0  0  0  0  0  0999 V2000
   -6.8755   -0.0601   -0.7245 C   0  0  0  0  0  0  0  0  0  0  0  0
   -5.4258   -0.5180   -0.9043 C   0  0  0  0  0  0  0  0  0  0  0  0
   -5.3172   -1.3970   -2.1502 C   0  0  0  0  0  0  0  0  0  0  0  0
   -4.4833    0.6860   -1.0142 C   0  0  0  0  0  0  0  0  0  0  0  0
   -4.9277    1.8320   -1.1098 O   0  0  0  0  0  0  0  0  0  0  0  0
   -3.1141    0.4383   -1.0346 N   0  0  0  0  0  0  0  0  0  0  0  0
   -2.4787   -0.6897   -0.3429 C   0  0  0  0  0  0  0  0  0  0  0  0
   -2.0308   -0.2588    1.0708 C   0  0  0  0  0  0  0  0  0  0  0  0
   -1.1299    0.9220    1.0190 N   0  0  0  0  0  0  0  0  0  0  0  0
    0.2229    0.6635    0.8332 C   0  0  0  0  0  0  0  0  0  0  0  0
    0.7345    0.7688   -0.3626 N   0  0  0  0  0  0  0  0  0  0  0  0
    2.0456    0.4619   -0.4808 C   0  0  0  0  0  0  0  0  0  0  0  0
    2.8446    0.5576   -1.9860 S   0  0  0  0  0  0  0  0  0  0  0  0
    4.3134    0.0337   -1.3048 C   0  0  0  0  0  0  0  0  0  0  0  0
    4.2116   -0.2261    0.0498 C   0  0  0  0  0  0  0  0  0  0  0  0
    2.8849    0.0381    0.5221 C   0  0  0  0  0  0  0  0  0  0  0  0
    2.3321   -0.0710    1.8565 C   0  0  0  0  0  0  0  0  0  0  0  0
    3.0046   -0.4536    2.8117 O   0  0  0  0  0  0  0  0  0  0  0  0
    0.9823    0.2892    1.9499 N   0  0  0  0  0  0  0  0  0  0  0  0
    0.4021    0.2873    3.2818 C   0  0  0  0  0  0  0  0  0  0  0  0
    5.3883   -0.6868    0.8597 C   0  0  0  0  0  0  0  0  0  0  0  0
    6.5349   -1.1907   -0.0321 C   0  0  0  0  0  0  0  0  0  0  0  0
    6.7862   -0.2554   -1.2232 C   0  0  0  0  0  0  0  0  0  0  0  0
    5.5503   -0.1452   -2.1291 C   0  0  0  0  0  0  0  0  0  0  0  0
   -1.7326    2.0437    0.2408 C   0  0  0  0  0  0  0  0  0  0  0  0
   -2.2140    1.5928   -1.1517 C   0  0  0  0  0  0  0  0  0  0  0  0
   -6.9776    0.5613    0.1717 H   0  0  0  0  0  0  0  0  0  0  0  0
   -7.5443   -0.9201   -0.6147 H   0  0  0  0  0  0  0  0  0  0  0  0
   -7.2199    0.5310   -1.5803 H   0  0  0  0  0  0  0  0  0  0  0  0
   -5.1639   -1.0931   -0.0101 H   0  0  0  0  0  0  0  0  0  0  0  0
   -5.5681   -0.8295   -3.0541 H   0  0  0  0  0  0  0  0  0  0  0  0
   -4.3050   -1.7886   -2.2871 H   0  0  0  0  0  0  0  0  0  0  0  0
   -5.9984   -2.2524   -2.0846 H   0  0  0  0  0  0  0  0  0  0  0  0
   -3.1450   -1.5497   -0.2679 H   0  0  0  0  0  0  0  0  0  0  0  0
   -1.6136   -0.9972   -0.9419 H   0  0  0  0  0  0  0  0  0  0  0  0
   -1.5383   -1.1002    1.5704 H   0  0  0  0  0  0  0  0  0  0  0  0
   -2.9084    0.0050    1.6725 H   0  0  0  0  0  0  0  0  0  0  0  0
   -0.3854    1.0395    3.3748 H   0  0  0  0  0  0  0  0  0  0  0  0
    1.1597    0.4936    4.0431 H   0  0  0  0  0  0  0  0  0  0  0  0
   -0.0219   -0.7028    3.4711 H   0  0  0  0  0  0  0  0  0  0  0  0
    5.0942   -1.4879    1.5461 H   0  0  0  0  0  0  0  0  0  0  0  0
    5.7451    0.1557    1.4639 H   0  0  0  0  0  0  0  0  0  0  0  0
    7.4466   -1.2881    0.5673 H   0  0  0  0  0  0  0  0  0  0  0  0
    6.2922   -2.1923   -0.4095 H   0  0  0  0  0  0  0  0  0  0  0  0
    7.0567    0.7394   -0.8464 H   0  0  0  0  0  0  0  0  0  0  0  0
    7.6370   -0.6178   -1.8110 H   0  0  0  0  0  0  0  0  0  0  0  0
    5.4518   -1.0629   -2.7221 H   0  0  0  0  0  0  0  0  0  0  0  0
    5.6841    0.6887   -2.8277 H   0  0  0  0  0  0  0  0  0  0  0  0
   -2.5849    2.4270    0.8151 H   0  0  0  0  0  0  0  0  0  0  0  0
   -1.0172    2.8691    0.1488 H   0  0  0  0  0  0  0  0  0  0  0  0
   -2.7100    2.4243   -1.6629 H   0  0  0  0  0  0  0  0  0  0  0  0
   -1.3738    1.2856   -1.7831 H   0  0  0  0  0  0  0  0  0  0  0  0
  1  2  1  0
  2  3  1  0
  2  4  1  0
  4  5  2  0
  4  6  1  0
  6  7  1  0
  7  8  1  0
  8  9  1  0
  9 10  1  0
 10 11  2  0
 11 12  1  0
 12 13  1  0
 13 14  1  0
 14 15  2  0
 15 16  1  0
 16 17  1  0
 17 18  2  0
 17 19  1  0
 19 20  1  0
 15 21  1  0
 21 22  1  0
 22 23  1  0
 23 24  1  0
  9 25  1  0
 25 26  1  0
 26  6  1  0
 19 10  1  0
 16 12  2  0
 24 14  1  0
  1 27  1  0
  1 28  1  0
  1 29  1  0
  2 30  1  0
  3 31  1  0
  3 32  1  0
  3 33  1  0
  7 34  1  0
  7 35  1  0
  8 36  1  0
  8 37  1  0
 20 38  1  0
 20 39  1  0
 20 40  1  0
 21 41  1  0
 21 42  1  0
 22 43  1  0
 22 44  1  0
 23 45  1  0
 23 46  1  0
 24 47  1  0
 24 48  1  0
 25 49  1  0
 25 50  1  0
 26 51  1  0
 26 52  1  0
M  END
$$$$
