
     RDKit          3D

 36 39  0  0  0  0  0  0  0  0999 V2000
    6.9433    0.7178    0.6497 C   0  0  0  0  0  0  0  0  0  0  0  0
    5.5811    0.1623    0.9706 C   0  0  0  0  0  0  0  0  0  0  0  0
    5.1302    0.1712    2.1126 O   0  0  0  0  0  0  0  0  0  0  0  0
    4.9218   -0.3502   -0.1369 N   0  0  0  0  0  0  0  0  0  0  0  0
    3.5308   -0.5438   -0.0205 N   0  0  0  0  0  0  0  0  0  0  0  0
    3.0704   -1.6747    0.6085 C   0  0  0  0  0  0  0  0  0  0  0  0
    1.7556   -1.8864    0.7365 C   0  0  0  0  0  0  0  0  0  0  0  0
    0.8142   -0.9164    0.2117 C   0  0  0  0  0  0  0  0  0  0  0  0
    1.2292    0.2000   -0.4194 C   0  0  0  0  0  0  0  0  0  0  0  0
    0.3513    1.1378   -0.9302 N   0  0  0  0  0  0  0  0  0  0  0  0
   -0.8970    0.9931   -0.8210 N   0  0  0  0  0  0  0  0  0  0  0  0
   -1.4186   -0.1085   -0.2032 C   0  0  0  0  0  0  0  0  0  0  0  0
   -2.7087   -0.5315    0.0593 C   0  0  0  0  0  0  0  0  0  0  0  0
   -3.9270    0.1771   -0.2949 C   0  0  0  0  0  0  0  0  0  0  0  0
   -5.0203    0.1692    0.5866 C   0  0  0  0  0  0  0  0  0  0  0  0
   -6.2030    0.8362    0.2560 C   0  0  0  0  0  0  0  0  0  0  0  0
   -6.2958    1.5080   -0.9561 C   0  0  0  0  0  0  0  0  0  0  0  0
   -7.4301    2.1457   -1.2723 F   0  0  0  0  0  0  0  0  0  0  0  0
   -5.2289    1.5254   -1.8448 C   0  0  0  0  0  0  0  0  0  0  0  0
   -4.0452    0.8593   -1.5160 C   0  0  0  0  0  0  0  0  0  0  0  0
   -2.5385   -1.7508    0.7484 C   0  0  0  0  0  0  0  0  0  0  0  0
   -1.2596   -2.0913    0.9064 N   0  0  0  0  0  0  0  0  0  0  0  0
   -0.5668   -1.0744    0.3255 N   0  0  0  0  0  0  0  0  0  0  0  0
    2.7054    0.4307   -0.5887 C   0  0  0  0  0  0  0  0  0  0  0  0
    3.1499    1.3970   -1.2101 O   0  0  0  0  0  0  0  0  0  0  0  0
    6.9002    1.8095    0.6793 H   0  0  0  0  0  0  0  0  0  0  0  0
    7.2855    0.4001   -0.3393 H   0  0  0  0  0  0  0  0  0  0  0  0
    7.6609    0.3558    1.3913 H   0  0  0  0  0  0  0  0  0  0  0  0
    5.1811    0.0516   -1.0362 H   0  0  0  0  0  0  0  0  0  0  0  0
    3.8107   -2.3632    1.0039 H   0  0  0  0  0  0  0  0  0  0  0  0
    1.3777   -2.7701    1.2439 H   0  0  0  0  0  0  0  0  0  0  0  0
   -4.9616   -0.3417    1.5452 H   0  0  0  0  0  0  0  0  0  0  0  0
   -7.0484    0.8379    0.9368 H   0  0  0  0  0  0  0  0  0  0  0  0
   -5.3227    2.0549   -2.7877 H   0  0  0  0  0  0  0  0  0  0  0  0
   -3.2247    0.8753   -2.2302 H   0  0  0  0  0  0  0  0  0  0  0  0
   -3.3023   -2.4130    1.1378 H   0  0  0  0  0  0  0  0  0  0  0  0
  1  2  1  0
  2  3  2  0
  2  4  1  0
  4  5  1  0
  5  6  1  0
  6  7  2  0
  7  8  1  0
  8  9  2  0
  9 10  1  0
 10 11  2  0
 11 12  1  0
 12 13  2  0
 13 14  1  0
 14 15  2  0
 15 16  1  0
 16 17  2  0
 17 18  1  0
 17 19  1  0
 19 20  2  0
 13 21  1  0
 21 22  2  0
 22 23  1  0
  9 24  1  0
 24 25  2  0
 24  5  1  0
 23  8  1  0
 23 12  1  0
 20 14  1  0
  1 26  1  0
  1 27  1  0
  1 28  1  0
  4 29  1  0
  6 30  1  0
  7 31  1  0
 15 32  1  0
 16 33  1  0
 19 34  1  0
 20 35  1  0
 21 36  1  0
M  END
$$$$
