
     RDKit          3D

 41 43  0  0  0  0  0  0  0  0999 V2000
    5.8834   -1.9345    0.2489 C   0  0  0  0  0  0  0  0  0  0  0  0
    4.4877   -1.7338    0.4308 O   0  0  0  0  0  0  0  0  0  0  0  0
    4.0452   -0.4450    0.5491 C   0  0  0  0  0  0  0  0  0  0  0  0
    4.8437    0.6957    0.4571 C   0  0  0  0  0  0  0  0  0  0  0  0
    4.2662    1.9625    0.5940 C   0  0  0  0  0  0  0  0  0  0  0  0
    5.3599    3.5020    0.4672 Br  0  0  0  0  0  0  0  0  0  0  0  0
    2.8969    2.1124    0.8208 C   0  0  0  0  0  0  0  0  0  0  0  0
    2.0889    0.9798    0.9120 C   0  0  0  0  0  0  0  0  0  0  0  0
    0.6575    1.0778    1.1442 C   0  0  0  0  0  0  0  0  0  0  0  0
   -0.0872   -0.0357    1.2069 C   0  0  0  0  0  0  0  0  0  0  0  0
   -1.5267    0.1555    1.4891 C   0  0  0  0  0  0  0  0  0  0  0  0
   -1.8575    0.4966    2.6253 O   0  0  0  0  0  0  0  0  0  0  0  0
   -2.4337    0.0060    0.4437 N   0  0  0  0  0  0  0  0  0  0  0  0
   -3.8554    0.1076    0.7847 C   0  0  0  0  0  0  0  0  0  0  0  0
   -4.7190    0.5259   -0.3977 C   0  0  0  0  0  0  0  0  0  0  0  0
   -4.5597   -0.4051   -1.5980 C   0  0  0  0  0  0  0  0  0  0  0  0
   -3.2555   -1.1998   -1.5683 C   0  0  0  0  0  0  0  0  0  0  0  0
   -2.0927   -0.4287   -0.9281 C   0  0  0  0  0  0  0  0  0  0  0  0
   -1.6562    0.7565   -1.7955 C   0  0  0  0  0  0  0  0  0  0  0  0
    0.4967   -1.3836    1.0994 C   0  0  0  0  0  0  0  0  0  0  0  0
   -0.1803   -2.4026    1.1760 O   0  0  0  0  0  0  0  0  0  0  0  0
    1.8680   -1.4410    0.8724 O   0  0  0  0  0  0  0  0  0  0  0  0
    2.6716   -0.2804    0.7768 C   0  0  0  0  0  0  0  0  0  0  0  0
    6.0625   -3.0128    0.1984 H   0  0  0  0  0  0  0  0  0  0  0  0
    6.4530   -1.5413    1.0974 H   0  0  0  0  0  0  0  0  0  0  0  0
    6.2243   -1.4955   -0.6944 H   0  0  0  0  0  0  0  0  0  0  0  0
    5.9117    0.6256    0.2800 H   0  0  0  0  0  0  0  0  0  0  0  0
    2.4684    3.1063    0.9260 H   0  0  0  0  0  0  0  0  0  0  0  0
    0.2137    2.0611    1.2709 H   0  0  0  0  0  0  0  0  0  0  0  0
   -4.1692   -0.8751    1.1577 H   0  0  0  0  0  0  0  0  0  0  0  0
   -3.9937    0.8218    1.6040 H   0  0  0  0  0  0  0  0  0  0  0  0
   -5.7729    0.5675   -0.0997 H   0  0  0  0  0  0  0  0  0  0  0  0
   -4.4455    1.5456   -0.6957 H   0  0  0  0  0  0  0  0  0  0  0  0
   -4.6181    0.1873   -2.5191 H   0  0  0  0  0  0  0  0  0  0  0  0
   -5.4002   -1.1087   -1.6368 H   0  0  0  0  0  0  0  0  0  0  0  0
   -2.9957   -1.5233   -2.5832 H   0  0  0  0  0  0  0  0  0  0  0  0
   -3.4233   -2.1176   -0.9886 H   0  0  0  0  0  0  0  0  0  0  0  0
   -1.2454   -1.1175   -0.8768 H   0  0  0  0  0  0  0  0  0  0  0  0
   -2.4336    1.5221   -1.8715 H   0  0  0  0  0  0  0  0  0  0  0  0
   -1.4103    0.4224   -2.8091 H   0  0  0  0  0  0  0  0  0  0  0  0
   -0.7677    1.2438   -1.3844 H   0  0  0  0  0  0  0  0  0  0  0  0
  1  2  1  0
  2  3  1  0
  3  4  2  0
  4  5  1  0
  5  6  1  0
  5  7  2  0
  7  8  1  0
  8  9  1  0
  9 10  2  0
 10 11  1  0
 11 12  2  0
 11 13  1  0
 13 14  1  0
 14 15  1  0
 15 16  1  0
 16 17  1  0
 17 18  1  0
 18 19  1  0
 10 20  1  0
 20 21  2  0
 20 22  1  0
 22 23  1  0
 23  3  1  0
 23  8  2  0
 18 13  1  0
  1 24  1  0
  1 25  1  0
  1 26  1  0
  4 27  1  0
  7 28  1  0
  9 29  1  0
 14 30  1  0
 14 31  1  0
 15 32  1  0
 15 33  1  0
 16 34  1  0
 16 35  1  0
 17 36  1  0
 17 37  1  0
 18 38  1  0
 19 39  1  0
 19 40  1  0
 19 41  1  0
M  END
$$$$
