
     RDKit          3D

 39 40  0  0  0  0  0  0  0  0999 V2000
    0.0695   -3.4776   -0.9280 C   0  0  0  0  0  0  0  0  0  0  0  0
    0.0751   -2.1662   -1.4786 O   0  0  0  0  0  0  0  0  0  0  0  0
    0.8716   -1.2266   -0.8815 C   0  0  0  0  0  0  0  0  0  0  0  0
    1.6777   -1.4664    0.2368 C   0  0  0  0  0  0  0  0  0  0  0  0
    2.4595   -0.4452    0.8130 C   0  0  0  0  0  0  0  0  0  0  0  0
    3.3076   -0.7605    2.0166 C   0  0  0  0  0  0  0  0  0  0  0  0
    2.4327    0.8485    0.2593 C   0  0  0  0  0  0  0  0  0  0  0  0
    3.2497    1.9712    0.8384 C   0  0  0  0  0  0  0  0  0  0  0  0
    1.6288    1.0918   -0.8618 C   0  0  0  0  0  0  0  0  0  0  0  0
    0.8590    0.0632   -1.4227 C   0  0  0  0  0  0  0  0  0  0  0  0
   -0.1471    0.4323   -2.8427 S   0  0  0  0  0  6  0  0  0  0  0  0
    0.2841   -0.4369   -3.9181 O   0  0  0  0  0  0  0  0  0  0  0  0
   -0.1486    1.8711   -3.0303 O   0  0  0  0  0  0  0  0  0  0  0  0
   -1.7033   -0.0492   -2.3853 N   0  0  0  0  0  0  0  0  0  0  0  0
   -2.2408    0.6173   -1.2650 C   0  0  0  0  0  0  0  0  0  0  0  0
   -2.6267    1.9445   -1.2906 C   0  0  0  0  0  0  0  0  0  0  0  0
   -3.1276    2.4957   -0.1179 C   0  0  0  0  0  0  0  0  0  0  0  0
   -3.2236    1.7004    1.0207 C   0  0  0  0  0  0  0  0  0  0  0  0
   -2.8184    0.3698    0.9468 C   0  0  0  0  0  0  0  0  0  0  0  0
   -2.9068   -0.5115    2.1563 C   0  0  0  0  0  0  0  0  0  0  0  0
   -2.3326   -0.1838   -0.1890 N   0  0  0  0  0  0  0  0  0  0  0  0
    1.0620   -3.9357   -0.9891 H   0  0  0  0  0  0  0  0  0  0  0  0
   -0.3042   -3.4711    0.1012 H   0  0  0  0  0  0  0  0  0  0  0  0
   -0.6153   -4.0867   -1.5259 H   0  0  0  0  0  0  0  0  0  0  0  0
    1.7170   -2.4526    0.6900 H   0  0  0  0  0  0  0  0  0  0  0  0
    3.2258   -1.8143    2.3031 H   0  0  0  0  0  0  0  0  0  0  0  0
    4.3621   -0.5601    1.8020 H   0  0  0  0  0  0  0  0  0  0  0  0
    2.9876   -0.1600    2.8739 H   0  0  0  0  0  0  0  0  0  0  0  0
    3.0888    2.9082    0.2946 H   0  0  0  0  0  0  0  0  0  0  0  0
    4.3166    1.7342    0.7792 H   0  0  0  0  0  0  0  0  0  0  0  0
    2.9707    2.1460    1.8823 H   0  0  0  0  0  0  0  0  0  0  0  0
    1.6038    2.0876   -1.3018 H   0  0  0  0  0  0  0  0  0  0  0  0
   -1.6776   -1.0523   -2.1926 H   0  0  0  0  0  0  0  0  0  0  0  0
   -2.5431    2.5370   -2.1947 H   0  0  0  0  0  0  0  0  0  0  0  0
   -3.4393    3.5360   -0.0919 H   0  0  0  0  0  0  0  0  0  0  0  0
   -3.6099    2.1144    1.9469 H   0  0  0  0  0  0  0  0  0  0  0  0
   -3.9448   -0.5866    2.4947 H   0  0  0  0  0  0  0  0  0  0  0  0
   -2.5477   -1.5207    1.9297 H   0  0  0  0  0  0  0  0  0  0  0  0
   -2.2921   -0.1054    2.9655 H   0  0  0  0  0  0  0  0  0  0  0  0
  1  2  1  0
  2  3  1  0
  3  4  2  0
  4  5  1  0
  5  6  1  0
  5  7  2  0
  7  8  1  0
  7  9  1  0
  9 10  2  0
 10 11  1  0
 11 12  2  0
 11 13  2  0
 11 14  1  0
 14 15  1  0
 15 16  2  0
 16 17  1  0
 17 18  2  0
 18 19  1  0
 19 20  1  0
 19 21  2  0
 10  3  1  0
 21 15  1  0
  1 22  1  0
  1 23  1  0
  1 24  1  0
  4 25  1  0
  6 26  1  0
  6 27  1  0
  6 28  1  0
  8 29  1  0
  8 30  1  0
  8 31  1  0
  9 32  1  0
 14 33  1  0
 16 34  1  0
 17 35  1  0
 18 36  1  0
 20 37  1  0
 20 38  1  0
 20 39  1  0
M  END
$$$$
