
     RDKit          3D

 45 48  0  0  0  0  0  0  0  0999 V2000
    3.1748   -2.7148    2.3815 C   0  0  0  0  0  0  0  0  0  0  0  0
    3.0266   -1.5237    3.1417 O   0  0  0  0  0  0  0  0  0  0  0  0
    3.1797   -0.3388    2.3449 C   0  0  0  0  0  0  0  0  0  0  0  0
    2.0657   -0.0950    1.3663 C   0  0  0  0  0  0  0  0  0  0  0  0
    0.7884   -0.1326    1.7690 N   0  0  0  0  0  0  0  0  0  0  0  0
    0.0525    0.0892    0.6504 N   0  0  0  0  0  0  0  0  0  0  0  0
    0.8676    0.2857   -0.4708 C   0  0  0  0  0  0  0  0  0  0  0  0
    0.3412    0.5281   -1.7139 N   0  0  0  0  0  0  0  0  0  0  0  0
   -0.9558    0.5708   -1.7870 C   0  0  0  0  0  0  0  0  0  0  0  0
   -1.9027    0.3781   -0.6597 C   0  0  0  0  0  0  0  0  0  0  0  0
   -3.3782    0.4428   -0.8376 C   0  0  0  0  0  0  0  0  0  0  0  0
   -3.8414    0.6637   -1.9559 O   0  0  0  0  0  0  0  0  0  0  0  0
   -4.1231    0.2347    0.3394 N   0  0  0  0  0  0  0  0  0  0  0  0
   -5.5418    0.2680    0.3525 N   0  0  0  0  0  0  0  0  0  0  0  0
   -6.0781    1.5813   -0.0027 C   0  0  0  0  0  0  0  0  0  0  0  0
   -6.1399   -0.7933   -0.4582 C   0  0  0  0  0  0  0  0  0  0  0  0
   -3.5352   -0.0129    1.5628 C   0  0  0  0  0  0  0  0  0  0  0  0
   -2.2050   -0.0665    1.6949 C   0  0  0  0  0  0  0  0  0  0  0  0
   -1.3475    0.1365    0.5422 C   0  0  0  0  0  0  0  0  0  0  0  0
    2.1711    0.1893   -0.0191 C   0  0  0  0  0  0  0  0  0  0  0  0
    3.3408    0.3499   -0.8635 C   0  0  0  0  0  0  0  0  0  0  0  0
    4.3302    1.2820   -0.5264 C   0  0  0  0  0  0  0  0  0  0  0  0
    5.4677    1.4248   -1.3246 C   0  0  0  0  0  0  0  0  0  0  0  0
    5.6249    0.6355   -2.4625 C   0  0  0  0  0  0  0  0  0  0  0  0
    4.6422   -0.2908   -2.8089 C   0  0  0  0  0  0  0  0  0  0  0  0
    3.5029   -0.4331   -2.0138 C   0  0  0  0  0  0  0  0  0  0  0  0
    3.1484   -3.5662    3.0628 H   0  0  0  0  0  0  0  0  0  0  0  0
    4.1332   -2.7221    1.8588 H   0  0  0  0  0  0  0  0  0  0  0  0
    2.3552   -2.8310    1.6683 H   0  0  0  0  0  0  0  0  0  0  0  0
    3.2116    0.5048    3.0444 H   0  0  0  0  0  0  0  0  0  0  0  0
    4.1565   -0.3728    1.8519 H   0  0  0  0  0  0  0  0  0  0  0  0
   -1.4157    0.7638   -2.7716 H   0  0  0  0  0  0  0  0  0  0  0  0
   -5.6323    2.3581    0.6280 H   0  0  0  0  0  0  0  0  0  0  0  0
   -7.1582    1.6095    0.1809 H   0  0  0  0  0  0  0  0  0  0  0  0
   -5.9051    1.8491   -1.0502 H   0  0  0  0  0  0  0  0  0  0  0  0
   -5.9771   -0.6497   -1.5324 H   0  0  0  0  0  0  0  0  0  0  0  0
   -5.7351   -1.7718   -0.1760 H   0  0  0  0  0  0  0  0  0  0  0  0
   -7.2208   -0.8373   -0.2856 H   0  0  0  0  0  0  0  0  0  0  0  0
   -4.1987   -0.1606    2.4098 H   0  0  0  0  0  0  0  0  0  0  0  0
   -1.7486   -0.2610    2.6631 H   0  0  0  0  0  0  0  0  0  0  0  0
    4.2203    1.9131    0.3524 H   0  0  0  0  0  0  0  0  0  0  0  0
    6.2285    2.1548   -1.0610 H   0  0  0  0  0  0  0  0  0  0  0  0
    6.5092    0.7467   -3.0852 H   0  0  0  0  0  0  0  0  0  0  0  0
    4.7612   -0.9052   -3.6988 H   0  0  0  0  0  0  0  0  0  0  0  0
    2.7397   -1.1531   -2.3007 H   0  0  0  0  0  0  0  0  0  0  0  0
  1  2  1  0
  2  3  1  0
  3  4  1  0
  4  5  2  0
  5  6  1  0
  6  7  1  0
  7  8  1  0
  8  9  2  0
  9 10  1  0
 10 11  1  0
 11 12  2  0
 11 13  1  0
 13 14  1  0
 14 15  1  0
 14 16  1  0
 13 17  1  0
 17 18  2  0
 18 19  1  0
  7 20  2  0
 20 21  1  0
 21 22  2  0
 22 23  1  0
 23 24  2  0
 24 25  1  0
 25 26  2  0
 20  4  1  0
 26 21  1  0
 19  6  1  0
 19 10  2  0
  1 27  1  0
  1 28  1  0
  1 29  1  0
  3 30  1  0
  3 31  1  0
  9 32  1  0
 15 33  1  0
 15 34  1  0
 15 35  1  0
 16 36  1  0
 16 37  1  0
 16 38  1  0
 17 39  1  0
 18 40  1  0
 22 41  1  0
 23 42  1  0
 24 43  1  0
 25 44  1  0
 26 45  1  0
M  END
$$$$
