
     RDKit          3D

 32 33  0  0  0  0  0  0  0  0999 V2000
    4.9674   -3.1534    2.0103 C   0  0  0  0  0  0  0  0  0  0  0  0
    4.7875   -2.1102    0.9385 C   0  0  0  0  0  0  0  0  0  0  0  0
    5.7368   -1.7337    0.2545 O   0  0  0  0  0  0  0  0  0  0  0  0
    3.4289   -1.5320    0.7134 C   0  0  0  0  0  0  0  0  0  0  0  0
    2.3151   -1.9233    1.4615 C   0  0  0  0  0  0  0  0  0  0  0  0
    1.0624   -1.3489    1.2093 C   0  0  0  0  0  0  0  0  0  0  0  0
    0.9007   -0.3789    0.2111 C   0  0  0  0  0  0  0  0  0  0  0  0
   -0.3973    0.1432    0.0286 N   0  0  0  0  0  0  0  0  0  0  0  0
   -0.8031    1.1001   -0.8841 C   0  0  0  0  0  0  0  0  0  0  0  0
   -0.0815    1.6622   -1.7015 O   0  0  0  0  0  0  0  0  0  0  0  0
   -2.2517    1.4754   -0.8643 C   0  0  0  0  0  0  0  0  0  0  0  0
   -2.7031    2.4441   -1.7762 C   0  0  0  0  0  0  0  0  0  0  0  0
   -4.0480    2.8326   -1.8010 C   0  0  0  0  0  0  0  0  0  0  0  0
   -4.9612    2.2569   -0.9127 C   0  0  0  0  0  0  0  0  0  0  0  0
   -6.3390    2.6521   -0.9350 C   0  0  0  0  0  0  0  0  0  0  0  0
   -7.4553    2.9672   -0.9476 N   0  0  0  0  0  0  0  0  0  0  0  0
   -4.5226    1.2930   -0.0021 C   0  0  0  0  0  0  0  0  0  0  0  0
   -3.1799    0.9121    0.0151 C   0  0  0  0  0  0  0  0  0  0  0  0
   -2.8079   -0.0179    0.9086 F   0  0  0  0  0  0  0  0  0  0  0  0
    2.0150    0.0082   -0.5327 C   0  0  0  0  0  0  0  0  0  0  0  0
    3.2695   -0.5636   -0.2840 C   0  0  0  0  0  0  0  0  0  0  0  0
    4.3601   -4.0344    1.7876 H   0  0  0  0  0  0  0  0  0  0  0  0
    4.7121   -2.7392    2.9891 H   0  0  0  0  0  0  0  0  0  0  0  0
    6.0168   -3.4635    2.0371 H   0  0  0  0  0  0  0  0  0  0  0  0
    2.3891   -2.6708    2.2456 H   0  0  0  0  0  0  0  0  0  0  0  0
    0.2142   -1.6736    1.8079 H   0  0  0  0  0  0  0  0  0  0  0  0
   -1.1075   -0.2361    0.6456 H   0  0  0  0  0  0  0  0  0  0  0  0
   -2.0060    2.9043   -2.4767 H   0  0  0  0  0  0  0  0  0  0  0  0
   -4.3711    3.5861   -2.5186 H   0  0  0  0  0  0  0  0  0  0  0  0
   -5.2128    0.8299    0.6993 H   0  0  0  0  0  0  0  0  0  0  0  0
    1.9496    0.7546   -1.3183 H   0  0  0  0  0  0  0  0  0  0  0  0
    4.1227   -0.2425   -0.8801 H   0  0  0  0  0  0  0  0  0  0  0  0
  1  2  1  0
  2  3  2  0
  2  4  1  0
  4  5  2  0
  5  6  1  0
  6  7  2  0
  7  8  1  0
  8  9  1  0
  9 10  2  0
  9 11  1  0
 11 12  2  0
 12 13  1  0
 13 14  2  0
 14 15  1  0
 15 16  3  0
 14 17  1  0
 17 18  2  0
 18 19  1  0
  7 20  1  0
 20 21  2  0
 21  4  1  0
 18 11  1  0
  1 22  1  0
  1 23  1  0
  1 24  1  0
  5 25  1  0
  6 26  1  0
  8 27  1  0
 12 28  1  0
 13 29  1  0
 17 30  1  0
 20 31  1  0
 21 32  1  0
M  END
$$$$
