
     RDKit          3D

 46 49  0  0  0  0  0  0  0  0999 V2000
    5.8973    2.3443   -1.3594 C   0  0  0  0  0  0  0  0  0  0  0  0
    5.9095    0.9237   -1.1019 N   0  0  0  0  0  0  0  0  0  0  0  0
    6.9868    0.0986   -1.2734 C   0  0  0  0  0  0  0  0  0  0  0  0
    6.5403   -1.1493   -0.9210 C   0  0  0  0  0  0  0  0  0  0  0  0
    5.2270   -1.1007   -0.5374 N   0  0  0  0  0  0  0  0  0  0  0  0
    4.8505    0.1649   -0.6470 C   0  0  0  0  0  0  0  0  0  0  0  0
    3.5102    0.6606   -0.3581 C   0  0  0  0  0  0  0  0  0  0  0  0
    3.1703    1.8269   -0.5666 O   0  0  0  0  0  0  0  0  0  0  0  0
    2.4761   -0.2561    0.2053 C   0  0  0  0  0  0  0  0  0  0  0  0
    2.7910   -1.2424    1.1463 C   0  0  0  0  0  0  0  0  0  0  0  0
    1.7841   -2.0510    1.6704 C   0  0  0  0  0  0  0  0  0  0  0  0
    0.4613   -1.8721    1.2619 C   0  0  0  0  0  0  0  0  0  0  0  0
    0.1278   -0.8857    0.3251 C   0  0  0  0  0  0  0  0  0  0  0  0
   -1.2334   -0.7712   -0.0224 N   0  0  0  0  0  0  0  0  0  0  0  0
   -1.7932    0.0160   -1.0164 C   0  0  0  0  0  0  0  0  0  0  0  0
   -1.1673    0.7221   -1.8074 O   0  0  0  0  0  0  0  0  0  0  0  0
   -3.3254   -0.0052   -1.0739 C   0  0  2  0  0  0  0  0  0  0  0  0
   -3.9839    0.6648    0.1334 C   0  0  0  0  0  0  0  0  0  0  0  0
   -3.5538    1.9557    0.5030 C   0  0  0  0  0  0  0  0  0  0  0  0
   -4.1314    2.6295    1.5810 C   0  0  0  0  0  0  0  0  0  0  0  0
   -5.1578    2.0331    2.3051 C   0  0  0  0  0  0  0  0  0  0  0  0
   -5.6100    0.7664    1.9481 C   0  0  0  0  0  0  0  0  0  0  0  0
   -5.0339    0.0890    0.8692 C   0  0  0  0  0  0  0  0  0  0  0  0
   -3.8007   -1.3497   -1.3661 N   0  0  0  0  0  0  0  0  0  0  0  0
   -4.5239   -1.7707   -2.4374 C   0  0  0  0  0  0  0  0  0  0  0  0
   -4.7445   -3.0584   -2.3081 N   0  0  0  0  0  0  0  0  0  0  0  0
   -4.1337   -3.4332   -1.1357 N   0  0  0  0  0  0  0  0  0  0  0  0
   -3.5503   -2.3963   -0.5517 N   0  0  0  0  0  0  0  0  0  0  0  0
    1.1394   -0.0731   -0.1911 C   0  0  0  0  0  0  0  0  0  0  0  0
    6.8943    2.6642   -1.6736 H   0  0  0  0  0  0  0  0  0  0  0  0
    5.1811    2.5483   -2.1589 H   0  0  0  0  0  0  0  0  0  0  0  0
    5.6232    2.8654   -0.4390 H   0  0  0  0  0  0  0  0  0  0  0  0
    7.9461    0.4517   -1.6246 H   0  0  0  0  0  0  0  0  0  0  0  0
    7.0933   -2.0799   -0.9248 H   0  0  0  0  0  0  0  0  0  0  0  0
    3.8136   -1.3889    1.4856 H   0  0  0  0  0  0  0  0  0  0  0  0
    2.0303   -2.8216    2.3970 H   0  0  0  0  0  0  0  0  0  0  0  0
   -0.3035   -2.5207    1.6841 H   0  0  0  0  0  0  0  0  0  0  0  0
   -1.8648   -1.4179    0.4486 H   0  0  0  0  0  0  0  0  0  0  0  0
   -3.6155    0.5948   -1.9490 H   0  0  0  0  0  0  0  0  0  0  0  0
   -2.7569    2.4572   -0.0476 H   0  0  0  0  0  0  0  0  0  0  0  0
   -3.7793    3.6219    1.8532 H   0  0  0  0  0  0  0  0  0  0  0  0
   -5.6081    2.5564    3.1448 H   0  0  0  0  0  0  0  0  0  0  0  0
   -6.4167    0.3015    2.5104 H   0  0  0  0  0  0  0  0  0  0  0  0
   -5.4321   -0.8958    0.6304 H   0  0  0  0  0  0  0  0  0  0  0  0
   -4.8532   -1.1348   -3.2458 H   0  0  0  0  0  0  0  0  0  0  0  0
    0.9196    0.7177   -0.9024 H   0  0  0  0  0  0  0  0  0  0  0  0
  1  2  1  0
  2  3  1  0
  3  4  2  0
  4  5  1  0
  5  6  2  0
  6  7  1  0
  7  8  2  0
  7  9  1  0
  9 10  2  0
 10 11  1  0
 11 12  2  0
 12 13  1  0
 13 14  1  0
 14 15  1  0
 15 16  2  0
 15 17  1  0
 17 18  1  0
 18 19  2  0
 19 20  1  0
 20 21  2  0
 21 22  1  0
 22 23  2  0
 17 24  1  0
 24 25  1  0
 25 26  2  0
 26 27  1  0
 27 28  2  0
 13 29  2  0
  6  2  1  0
 29  9  1  0
 23 18  1  0
 28 24  1  0
  1 30  1  0
  1 31  1  0
  1 32  1  0
  3 33  1  0
  4 34  1  0
 10 35  1  0
 11 36  1  0
 12 37  1  0
 14 38  1  0
 17 39  1  6
 19 40  1  0
 20 41  1  0
 21 42  1  0
 22 43  1  0
 23 44  1  0
 25 45  1  0
 29 46  1  0
M  END
$$$$
