
     RDKit          3D

 44 46  0  0  0  0  0  0  0  0999 V2000
    6.8009    2.0482    0.9713 C   0  0  0  0  0  0  0  0  0  0  0  0
    6.3798    0.7404    0.3255 C   0  0  0  0  0  0  0  0  0  0  0  0
    4.9550    0.6956    0.3126 O   0  0  0  0  0  0  0  0  0  0  0  0
    4.3612   -0.4098   -0.2317 C   0  0  0  0  0  0  0  0  0  0  0  0
    5.0331   -1.5041   -0.7787 C   0  0  0  0  0  0  0  0  0  0  0  0
    4.3130   -2.5815   -1.3084 C   0  0  0  0  0  0  0  0  0  0  0  0
    2.9166   -2.5753   -1.2961 C   0  0  0  0  0  0  0  0  0  0  0  0
    2.2313   -1.4887   -0.7528 C   0  0  0  0  0  0  0  0  0  0  0  0
    0.7791   -1.4376   -0.7180 C   0  0  0  0  0  0  0  0  0  0  0  0
    0.1337   -0.3831   -0.1908 C   0  0  0  0  0  0  0  0  0  0  0  0
   -1.3643   -0.4390   -0.2088 C   0  0  0  0  0  0  0  0  0  0  0  0
   -1.9568   -1.4050   -0.6840 O   0  0  0  0  0  0  0  0  0  0  0  0
   -2.0116    0.6431    0.3321 N   0  0  0  0  0  0  0  0  0  0  0  0
   -3.4576    0.7997    0.4191 C   0  0  0  0  0  0  0  0  0  0  0  0
   -4.1271    0.8692   -0.9595 C   0  0  0  0  0  0  0  0  0  0  0  0
   -5.6343    1.0838   -0.8357 C   0  0  0  0  0  0  0  0  0  0  0  0
   -6.2824    0.0266    0.0542 C   0  0  0  0  0  0  0  0  0  0  0  0
   -5.6195   -0.0386    1.4275 C   0  0  0  0  0  0  0  0  0  0  0  0
   -4.1123   -0.2591    1.3158 C   0  0  0  0  0  0  0  0  0  0  0  0
    0.8945    0.7561    0.3691 C   0  0  0  0  0  0  0  0  0  0  0  0
    0.3322    1.7339    0.8577 O   0  0  0  0  0  0  0  0  0  0  0  0
    2.2804    0.6825    0.3236 O   0  0  0  0  0  0  0  0  0  0  0  0
    2.9601   -0.4244   -0.2298 C   0  0  0  0  0  0  0  0  0  0  0  0
    7.8906    2.1329    1.0062 H   0  0  0  0  0  0  0  0  0  0  0  0
    6.3975    2.9005    0.4146 H   0  0  0  0  0  0  0  0  0  0  0  0
    6.4077    2.1188    1.9910 H   0  0  0  0  0  0  0  0  0  0  0  0
    6.7815   -0.0938    0.9122 H   0  0  0  0  0  0  0  0  0  0  0  0
    6.7710    0.7046   -0.6978 H   0  0  0  0  0  0  0  0  0  0  0  0
    6.1167   -1.5535   -0.8103 H   0  0  0  0  0  0  0  0  0  0  0  0
    4.8454   -3.4302   -1.7327 H   0  0  0  0  0  0  0  0  0  0  0  0
    2.3772   -3.4230   -1.7130 H   0  0  0  0  0  0  0  0  0  0  0  0
    0.2375   -2.2835   -1.1340 H   0  0  0  0  0  0  0  0  0  0  0  0
   -1.4434    1.4043    0.7058 H   0  0  0  0  0  0  0  0  0  0  0  0
   -3.5991    1.7753    0.9039 H   0  0  0  0  0  0  0  0  0  0  0  0
   -3.6881    1.6844   -1.5474 H   0  0  0  0  0  0  0  0  0  0  0  0
   -3.9463   -0.0526   -1.5246 H   0  0  0  0  0  0  0  0  0  0  0  0
   -6.0926    1.0595   -1.8308 H   0  0  0  0  0  0  0  0  0  0  0  0
   -5.8279    2.0800   -0.4193 H   0  0  0  0  0  0  0  0  0  0  0  0
   -6.2100   -0.9539   -0.4325 H   0  0  0  0  0  0  0  0  0  0  0  0
   -7.3494    0.2474    0.1706 H   0  0  0  0  0  0  0  0  0  0  0  0
   -6.0675   -0.8477    2.0152 H   0  0  0  0  0  0  0  0  0  0  0  0
   -5.8123    0.8949    1.9705 H   0  0  0  0  0  0  0  0  0  0  0  0
   -3.6629   -0.2314    2.3159 H   0  0  0  0  0  0  0  0  0  0  0  0
   -3.9303   -1.2659    0.9222 H   0  0  0  0  0  0  0  0  0  0  0  0
  1  2  1  0
  2  3  1  0
  3  4  1  0
  4  5  2  0
  5  6  1  0
  6  7  2  0
  7  8  1  0
  8  9  1  0
  9 10  2  0
 10 11  1  0
 11 12  2  0
 11 13  1  0
 13 14  1  0
 14 15  1  0
 15 16  1  0
 16 17  1  0
 17 18  1  0
 18 19  1  0
 10 20  1  0
 20 21  2  0
 20 22  1  0
 22 23  1  0
 23  4  1  0
 23  8  2  0
 19 14  1  0
  1 24  1  0
  1 25  1  0
  1 26  1  0
  2 27  1  0
  2 28  1  0
  5 29  1  0
  6 30  1  0
  7 31  1  0
  9 32  1  0
 13 33  1  0
 14 34  1  0
 15 35  1  0
 15 36  1  0
 16 37  1  0
 16 38  1  0
 17 39  1  0
 17 40  1  0
 18 41  1  0
 18 42  1  0
 19 43  1  0
 19 44  1  0
M  END
$$$$
