
     RDKit          3D

 41 43  0  0  0  0  0  0  0  0999 V2000
   -3.8903   -1.3744    2.2326 O   0  0  0  0  0  0  0  0  0  0  0  0
   -4.3238   -0.4111    1.6194 C   0  0  0  0  0  0  0  0  0  0  0  0
   -5.5399    0.3657    2.0677 C   0  0  0  0  0  0  0  0  0  0  0  0
   -5.9170    1.1608    0.8341 C   0  0  0  0  0  0  0  0  0  0  0  0
   -4.5872    1.3939    0.1493 C   0  0  0  0  0  0  0  0  0  0  0  0
   -3.8096    0.2207    0.4749 N   0  0  0  0  0  0  0  0  0  0  0  0
   -2.6207   -0.1325   -0.2198 C   0  0  0  0  0  0  0  0  0  0  0  0
   -2.0800    0.7243   -1.1947 C   0  0  0  0  0  0  0  0  0  0  0  0
   -0.9086    0.3937   -1.8865 C   0  0  0  0  0  0  0  0  0  0  0  0
   -0.2589   -0.8070   -1.6057 C   0  0  0  0  0  0  0  0  0  0  0  0
    1.2199   -1.2313   -2.4919 S   0  0  0  0  0  6  0  0  0  0  0  0
    1.1491   -0.6007   -3.7913 O   0  0  0  0  0  0  0  0  0  0  0  0
    1.4461   -2.6510   -2.3424 O   0  0  0  0  0  0  0  0  0  0  0  0
    2.4021   -0.4229   -1.6353 N   0  0  0  0  0  0  0  0  0  0  0  0
    2.6207   -0.7433   -0.2316 C   0  0  0  0  0  0  0  0  0  0  0  0
    3.9653   -0.2339    0.2314 C   0  0  0  0  0  0  0  0  0  0  0  0
    4.0585    0.8082    1.1673 C   0  0  0  0  0  0  0  0  0  0  0  0
    5.3083    1.2734    1.5806 C   0  0  0  0  0  0  0  0  0  0  0  0
    6.4623    0.7010    1.0582 C   0  0  0  0  0  0  0  0  0  0  0  0
    7.6593    1.1510    1.4563 F   0  0  0  0  0  0  0  0  0  0  0  0
    6.3922   -0.3289    0.1286 C   0  0  0  0  0  0  0  0  0  0  0  0
    5.1447   -0.7965   -0.2860 C   0  0  0  0  0  0  0  0  0  0  0  0
   -0.7858   -1.6865   -0.6628 C   0  0  0  0  0  0  0  0  0  0  0  0
   -1.9544   -1.3421    0.0275 C   0  0  0  0  0  0  0  0  0  0  0  0
   -6.3435   -0.3079    2.3753 H   0  0  0  0  0  0  0  0  0  0  0  0
   -5.2550    1.0187    2.8984 H   0  0  0  0  0  0  0  0  0  0  0  0
   -6.4453    2.0895    1.0667 H   0  0  0  0  0  0  0  0  0  0  0  0
   -6.5666    0.5543    0.1906 H   0  0  0  0  0  0  0  0  0  0  0  0
   -4.7280    1.5021   -0.9305 H   0  0  0  0  0  0  0  0  0  0  0  0
   -4.0799    2.2759    0.5562 H   0  0  0  0  0  0  0  0  0  0  0  0
   -2.5474    1.6748   -1.4354 H   0  0  0  0  0  0  0  0  0  0  0  0
   -0.5180    1.0741   -2.6403 H   0  0  0  0  0  0  0  0  0  0  0  0
    2.6135    0.5170   -1.9616 H   0  0  0  0  0  0  0  0  0  0  0  0
    2.5809   -1.8244   -0.0590 H   0  0  0  0  0  0  0  0  0  0  0  0
    1.8304   -0.2816    0.3704 H   0  0  0  0  0  0  0  0  0  0  0  0
    3.1617    1.2634    1.5821 H   0  0  0  0  0  0  0  0  0  0  0  0
    5.3904    2.0770    2.3055 H   0  0  0  0  0  0  0  0  0  0  0  0
    7.3059   -0.7597   -0.2681 H   0  0  0  0  0  0  0  0  0  0  0  0
    5.0901   -1.6000   -1.0192 H   0  0  0  0  0  0  0  0  0  0  0  0
   -0.3062   -2.6413   -0.4565 H   0  0  0  0  0  0  0  0  0  0  0  0
   -2.3354   -2.0629    0.7459 H   0  0  0  0  0  0  0  0  0  0  0  0
  1  2  2  0
  2  3  1  0
  3  4  1  0
  4  5  1  0
  5  6  1  0
  6  7  1  0
  7  8  2  0
  8  9  1  0
  9 10  2  0
 10 11  1  0
 11 12  2  0
 11 13  2  0
 11 14  1  0
 14 15  1  0
 15 16  1  0
 16 17  2  0
 17 18  1  0
 18 19  2  0
 19 20  1  0
 19 21  1  0
 21 22  2  0
 10 23  1  0
 23 24  2  0
  6  2  1  0
 24  7  1  0
 22 16  1  0
  3 25  1  0
  3 26  1  0
  4 27  1  0
  4 28  1  0
  5 29  1  0
  5 30  1  0
  8 31  1  0
  9 32  1  0
 14 33  1  0
 15 34  1  0
 15 35  1  0
 17 36  1  0
 18 37  1  0
 21 38  1  0
 22 39  1  0
 23 40  1  0
 24 41  1  0
M  END
$$$$
