
     RDKit          3D

 41 41  0  0  0  0  0  0  0  0999 V2000
   -5.8251    1.0711    1.9144 C   0  0  0  0  0  0  0  0  0  0  0  0
   -5.6578   -0.2768    1.2268 C   0  0  0  0  0  0  0  0  0  0  0  0
   -4.1935   -0.6231    0.9640 C   0  0  0  0  0  0  0  0  0  0  0  0
   -3.5684    0.1678   -0.1788 C   0  0  0  0  0  0  0  0  0  0  0  0
   -4.2254    0.9081   -0.8998 O   0  0  0  0  0  0  0  0  0  0  0  0
   -2.2079   -0.0861   -0.2795 N   0  0  0  0  0  0  0  0  0  0  0  0
   -1.3013    0.4437   -1.2227 C   0  0  0  0  0  0  0  0  0  0  0  0
   -1.6650    1.3208   -2.2473 C   0  0  0  0  0  0  0  0  0  0  0  0
   -0.7131    1.7849   -3.1609 C   0  0  0  0  0  0  0  0  0  0  0  0
    0.6161    1.3843   -3.0519 C   0  0  0  0  0  0  0  0  0  0  0  0
    0.9985    0.5269   -2.0177 C   0  0  0  0  0  0  0  0  0  0  0  0
    2.4253    0.1208   -1.9269 C   0  0  0  0  0  0  0  0  0  0  0  0
    3.0925   -0.0092   -2.9458 O   0  0  0  0  0  0  0  0  0  0  0  0
    2.9235   -0.0579   -0.6523 N   0  0  0  0  0  0  0  0  0  0  0  0
    4.3025   -0.4691   -0.4165 C   0  0  0  0  0  0  0  0  0  0  0  0
    4.4661   -1.9709   -0.6500 C   0  0  0  0  0  0  0  0  0  0  0  0
    4.7830   -0.0306    0.9774 C   0  0  0  0  0  0  0  0  0  0  0  0
    4.1094   -0.7397    2.1460 C   0  0  0  0  0  0  0  0  0  0  0  0
    0.0388    0.0469   -1.1140 C   0  0  0  0  0  0  0  0  0  0  0  0
   -5.2937    1.0908    2.8713 H   0  0  0  0  0  0  0  0  0  0  0  0
   -6.8844    1.2631    2.1129 H   0  0  0  0  0  0  0  0  0  0  0  0
   -5.4458    1.8892    1.2952 H   0  0  0  0  0  0  0  0  0  0  0  0
   -6.2304   -0.2844    0.2923 H   0  0  0  0  0  0  0  0  0  0  0  0
   -6.0907   -1.0494    1.8734 H   0  0  0  0  0  0  0  0  0  0  0  0
   -4.1276   -1.6840    0.6928 H   0  0  0  0  0  0  0  0  0  0  0  0
   -3.6016   -0.4710    1.8741 H   0  0  0  0  0  0  0  0  0  0  0  0
   -1.8213   -0.7318    0.3972 H   0  0  0  0  0  0  0  0  0  0  0  0
   -2.6896    1.6572   -2.3755 H   0  0  0  0  0  0  0  0  0  0  0  0
   -1.0154    2.4565   -3.9611 H   0  0  0  0  0  0  0  0  0  0  0  0
    1.3520    1.7419   -3.7693 H   0  0  0  0  0  0  0  0  0  0  0  0
    2.3501    0.1896    0.1414 H   0  0  0  0  0  0  0  0  0  0  0  0
    4.9242    0.0530   -1.1553 H   0  0  0  0  0  0  0  0  0  0  0  0
    3.7760   -2.5540   -0.0310 H   0  0  0  0  0  0  0  0  0  0  0  0
    5.4889   -2.2922   -0.4283 H   0  0  0  0  0  0  0  0  0  0  0  0
    4.2543   -2.2286   -1.6934 H   0  0  0  0  0  0  0  0  0  0  0  0
    5.8648   -0.1980    1.0500 H   0  0  0  0  0  0  0  0  0  0  0  0
    4.6248    1.0496    1.0878 H   0  0  0  0  0  0  0  0  0  0  0  0
    4.3348   -1.8102    2.1483 H   0  0  0  0  0  0  0  0  0  0  0  0
    3.0231   -0.6139    2.1242 H   0  0  0  0  0  0  0  0  0  0  0  0
    4.4742   -0.3256    3.0918 H   0  0  0  0  0  0  0  0  0  0  0  0
    0.3349   -0.6598   -0.3447 H   0  0  0  0  0  0  0  0  0  0  0  0
  1  2  1  0
  2  3  1  0
  3  4  1  0
  4  5  2  0
  4  6  1  0
  6  7  1  0
  7  8  2  0
  8  9  1  0
  9 10  2  0
 10 11  1  0
 11 12  1  0
 12 13  2  0
 12 14  1  0
 14 15  1  0
 15 16  1  0
 15 17  1  0
 17 18  1  0
 11 19  2  0
 19  7  1  0
  1 20  1  0
  1 21  1  0
  1 22  1  0
  2 23  1  0
  2 24  1  0
  3 25  1  0
  3 26  1  0
  6 27  1  0
  8 28  1  0
  9 29  1  0
 10 30  1  0
 14 31  1  0
 15 32  1  0
 16 33  1  0
 16 34  1  0
 16 35  1  0
 17 36  1  0
 17 37  1  0
 18 38  1  0
 18 39  1  0
 18 40  1  0
 19 41  1  0
M  END
$$$$
