
     RDKit          3D

 43 46  0  0  0  0  0  0  0  0999 V2000
   -4.0068    0.0311    2.4897 C   0  0  0  0  0  0  0  0  0  0  0  0
   -3.2508    1.1759    1.8323 C   0  0  0  0  0  0  0  0  0  0  0  0
   -2.1180    0.6966    0.9828 C   0  0  0  0  0  0  0  0  0  0  0  0
   -0.8728    0.7430    1.4691 N   0  0  0  0  0  0  0  0  0  0  0  0
   -0.0889    0.2182    0.4903 N   0  0  0  0  0  0  0  0  0  0  0  0
   -0.8472   -0.1776   -0.6204 C   0  0  0  0  0  0  0  0  0  0  0  0
   -0.2697   -0.7489   -1.7259 N   0  0  0  0  0  0  0  0  0  0  0  0
    1.0213   -0.8933   -1.6863 C   0  0  0  0  0  0  0  0  0  0  0  0
    1.9079   -0.5071   -0.5619 C   0  0  0  0  0  0  0  0  0  0  0  0
    3.3755   -0.7235   -0.5872 C   0  0  0  0  0  0  0  0  0  0  0  0
    3.9225   -1.2841   -1.5355 O   0  0  0  0  0  0  0  0  0  0  0  0
    4.0540   -0.2763    0.5468 N   0  0  0  0  0  0  0  0  0  0  0  0
    5.4525   -0.4288    0.5634 N   0  0  0  0  0  0  0  0  0  0  0  0
    6.2094    0.6717    0.1909 C   0  0  0  0  0  0  0  0  0  0  0  0
    7.6390    0.3324   -0.1385 C   0  0  0  0  0  0  0  0  0  0  0  0
    5.7885    1.8238    0.1353 O   0  0  0  0  0  0  0  0  0  0  0  0
    3.4361    0.2832    1.6403 C   0  0  0  0  0  0  0  0  0  0  0  0
    2.1075    0.4502    1.6548 C   0  0  0  0  0  0  0  0  0  0  0  0
    1.3056    0.0459    0.5097 C   0  0  0  0  0  0  0  0  0  0  0  0
   -2.1595    0.1420   -0.3230 C   0  0  0  0  0  0  0  0  0  0  0  0
   -3.2772   -0.0947   -1.2189 C   0  0  0  0  0  0  0  0  0  0  0  0
   -4.1379    0.9567   -1.5674 C   0  0  0  0  0  0  0  0  0  0  0  0
   -5.2206    0.7274   -2.4196 C   0  0  0  0  0  0  0  0  0  0  0  0
   -5.4382   -0.5497   -2.9241 C   0  0  0  0  0  0  0  0  0  0  0  0
   -6.4752   -0.7670   -3.7433 F   0  0  0  0  0  0  0  0  0  0  0  0
   -4.5929   -1.6025   -2.5951 C   0  0  0  0  0  0  0  0  0  0  0  0
   -3.5107   -1.3752   -1.7423 C   0  0  0  0  0  0  0  0  0  0  0  0
   -3.3430   -0.5684    3.1226 H   0  0  0  0  0  0  0  0  0  0  0  0
   -4.4506   -0.6360    1.7425 H   0  0  0  0  0  0  0  0  0  0  0  0
   -4.8143    0.4214    3.1171 H   0  0  0  0  0  0  0  0  0  0  0  0
   -2.8699    1.8446    2.6144 H   0  0  0  0  0  0  0  0  0  0  0  0
   -3.9442    1.7749    1.2326 H   0  0  0  0  0  0  0  0  0  0  0  0
    1.5240   -1.3456   -2.5583 H   0  0  0  0  0  0  0  0  0  0  0  0
    5.7539   -1.3297    0.1986 H   0  0  0  0  0  0  0  0  0  0  0  0
    7.8809   -0.7022    0.1228 H   0  0  0  0  0  0  0  0  0  0  0  0
    8.3029    0.9927    0.4276 H   0  0  0  0  0  0  0  0  0  0  0  0
    7.8006    0.4738   -1.2102 H   0  0  0  0  0  0  0  0  0  0  0  0
    4.0679    0.5924    2.4671 H   0  0  0  0  0  0  0  0  0  0  0  0
    1.6119    0.9033    2.5099 H   0  0  0  0  0  0  0  0  0  0  0  0
   -3.9635    1.9630   -1.1947 H   0  0  0  0  0  0  0  0  0  0  0  0
   -5.8878    1.5361   -2.6995 H   0  0  0  0  0  0  0  0  0  0  0  0
   -4.7752   -2.5893   -3.0071 H   0  0  0  0  0  0  0  0  0  0  0  0
   -2.8471   -2.2004   -1.4932 H   0  0  0  0  0  0  0  0  0  0  0  0
  1  2  1  0
  2  3  1  0
  3  4  2  0
  4  5  1  0
  5  6  1  0
  6  7  1  0
  7  8  2  0
  8  9  1  0
  9 10  1  0
 10 11  2  0
 10 12  1  0
 12 13  1  0
 13 14  1  0
 14 15  1  0
 14 16  2  0
 12 17  1  0
 17 18  2  0
 18 19  1  0
  6 20  2  0
 20 21  1  0
 21 22  2  0
 22 23  1  0
 23 24  2  0
 24 25  1  0
 24 26  1  0
 26 27  2  0
 20  3  1  0
 27 21  1  0
 19  5  1  0
 19  9  2  0
  1 28  1  0
  1 29  1  0
  1 30  1  0
  2 31  1  0
  2 32  1  0
  8 33  1  0
 13 34  1  0
 15 35  1  0
 15 36  1  0
 15 37  1  0
 17 38  1  0
 18 39  1  0
 22 40  1  0
 23 41  1  0
 26 42  1  0
 27 43  1  0
M  END
$$$$
