
     RDKit          3D

 47 49  0  0  0  0  0  0  0  0999 V2000
    2.1618   -3.1491   -0.9448 C   0  0  0  0  0  0  0  0  0  0  0  0
    2.4936   -2.2424    0.2330 C   0  0  0  0  0  0  0  0  0  0  0  0
    1.6889   -1.0086    0.2056 N   0  0  0  0  0  0  0  0  0  0  0  0
    0.3403   -1.1280    0.5615 C   0  0  0  0  0  0  0  0  0  0  0  0
   -0.0861   -2.1248    1.1469 O   0  0  0  0  0  0  0  0  0  0  0  0
   -0.6186   -0.0226    0.0766 C   0  0  0  0  0  0  0  0  0  0  0  0
   -0.4014    0.3590   -1.4201 C   0  0  0  0  0  0  0  0  0  0  0  0
   -1.7341    1.0184   -1.8320 C   0  0  0  0  0  0  0  0  0  0  0  0
   -2.5906    0.9096   -0.5533 C   0  0  0  0  0  0  0  0  0  0  0  0
   -4.0673    1.1549   -0.7632 C   0  0  0  0  0  0  0  0  0  0  0  0
   -1.9255    1.8799    0.4196 C   0  0  0  0  0  0  0  0  0  0  0  0
   -2.3594    2.9714    0.7544 O   0  0  0  0  0  0  0  0  0  0  0  0
   -0.6111    1.2959    0.8886 C   0  0  0  0  0  0  0  0  0  0  0  0
   -2.1460   -0.4373    0.0834 C   0  0  0  0  0  0  0  0  0  0  0  0
   -2.4955   -1.6697   -0.7821 C   0  0  0  0  0  0  0  0  0  0  0  0
   -2.7751   -0.6853    1.4756 C   0  0  0  0  0  0  0  0  0  0  0  0
    2.4358    0.1693    0.4742 C   0  0  0  0  0  0  0  0  0  0  0  0
    3.3250    0.6457   -0.4949 C   0  0  0  0  0  0  0  0  0  0  0  0
    4.0984    1.7790   -0.2400 C   0  0  0  0  0  0  0  0  0  0  0  0
    4.0028    2.4257    0.9915 C   0  0  0  0  0  0  0  0  0  0  0  0
    3.1426    1.9348    1.9729 C   0  0  0  0  0  0  0  0  0  0  0  0
    2.3657    0.8030    1.7191 C   0  0  0  0  0  0  0  0  0  0  0  0
    1.1133   -3.4628   -0.9296 H   0  0  0  0  0  0  0  0  0  0  0  0
    2.3414   -2.6332   -1.8939 H   0  0  0  0  0  0  0  0  0  0  0  0
    2.7853   -4.0480   -0.9189 H   0  0  0  0  0  0  0  0  0  0  0  0
    2.3066   -2.7710    1.1753 H   0  0  0  0  0  0  0  0  0  0  0  0
    3.5640   -2.0061    0.2002 H   0  0  0  0  0  0  0  0  0  0  0  0
    0.4317    1.0568   -1.5575 H   0  0  0  0  0  0  0  0  0  0  0  0
   -0.1868   -0.5169   -2.0426 H   0  0  0  0  0  0  0  0  0  0  0  0
   -1.5753    2.0594   -2.1371 H   0  0  0  0  0  0  0  0  0  0  0  0
   -2.1830    0.4879   -2.6786 H   0  0  0  0  0  0  0  0  0  0  0  0
   -4.2375    2.1378   -1.2169 H   0  0  0  0  0  0  0  0  0  0  0  0
   -4.5090    0.4031   -1.4244 H   0  0  0  0  0  0  0  0  0  0  0  0
   -4.6161    1.1417    0.1841 H   0  0  0  0  0  0  0  0  0  0  0  0
   -0.6262    1.1330    1.9685 H   0  0  0  0  0  0  0  0  0  0  0  0
    0.1938    1.9768    0.6044 H   0  0  0  0  0  0  0  0  0  0  0  0
   -2.1108   -2.5906   -0.3318 H   0  0  0  0  0  0  0  0  0  0  0  0
   -2.1019   -1.6281   -1.8000 H   0  0  0  0  0  0  0  0  0  0  0  0
   -3.5820   -1.7847   -0.8675 H   0  0  0  0  0  0  0  0  0  0  0  0
   -3.8559   -0.8454    1.3852 H   0  0  0  0  0  0  0  0  0  0  0  0
   -2.6401    0.1407    2.1786 H   0  0  0  0  0  0  0  0  0  0  0  0
   -2.3605   -1.5807    1.9484 H   0  0  0  0  0  0  0  0  0  0  0  0
    3.4068    0.1482   -1.4578 H   0  0  0  0  0  0  0  0  0  0  0  0
    4.7774    2.1564   -1.0005 H   0  0  0  0  0  0  0  0  0  0  0  0
    4.6072    3.3075    1.1909 H   0  0  0  0  0  0  0  0  0  0  0  0
    3.0836    2.4286    2.9399 H   0  0  0  0  0  0  0  0  0  0  0  0
    1.7299    0.4108    2.5090 H   0  0  0  0  0  0  0  0  0  0  0  0
  1  2  1  0
  2  3  1  0
  3  4  1  0
  4  5  2  0
  4  6  1  0
  6  7  1  0
  7  8  1  0
  8  9  1  0
  9 10  1  0
  9 11  1  0
 11 12  2  0
 11 13  1  0
  9 14  1  0
 14 15  1  0
 14 16  1  0
  3 17  1  0
 17 18  2  0
 18 19  1  0
 19 20  2  0
 20 21  1  0
 21 22  2  0
 13  6  1  0
 22 17  1  0
 14  6  1  0
  1 23  1  0
  1 24  1  0
  1 25  1  0
  2 26  1  0
  2 27  1  0
  7 28  1  0
  7 29  1  0
  8 30  1  0
  8 31  1  0
 10 32  1  0
 10 33  1  0
 10 34  1  0
 13 35  1  0
 13 36  1  0
 15 37  1  0
 15 38  1  0
 15 39  1  0
 16 40  1  0
 16 41  1  0
 16 42  1  0
 18 43  1  0
 19 44  1  0
 20 45  1  0
 21 46  1  0
 22 47  1  0
M  END
$$$$
