
     RDKit          3D

 45 47  0  0  0  0  0  0  0  0999 V2000
    1.2438    0.1714    1.5439 O   0  0  0  0  0  0  0  0  0  0  0  0
    1.4922   -0.5694    0.5977 C   0  0  0  0  0  0  0  0  0  0  0  0
    2.6466   -1.3098    0.5053 N   0  0  0  0  0  0  0  0  0  0  0  0
    3.7262   -1.1723    1.4563 C   0  0  0  0  0  0  0  0  0  0  0  0
    4.8108   -0.2829    0.9033 C   0  0  0  0  0  0  0  0  0  0  0  0
    4.6837    1.1140    0.9810 C   0  0  0  0  0  0  0  0  0  0  0  0
    5.6718    1.9443    0.4508 C   0  0  0  0  0  0  0  0  0  0  0  0
    6.7834    1.3796   -0.1618 C   0  0  0  0  0  0  0  0  0  0  0  0
    7.7318    2.1759   -0.6723 F   0  0  0  0  0  0  0  0  0  0  0  0
    6.9250    0.0001   -0.2570 C   0  0  0  0  0  0  0  0  0  0  0  0
    5.9376   -0.8330    0.2720 C   0  0  0  0  0  0  0  0  0  0  0  0
    0.5069   -0.6854   -0.5129 C   0  0  0  0  0  0  0  0  0  0  0  0
   -0.6041    0.1733   -0.5033 C   0  0  0  0  0  0  0  0  0  0  0  0
   -1.5744    0.0721   -1.5063 C   0  0  0  0  0  0  0  0  0  0  0  0
   -2.9647    1.1826   -1.5007 S   0  0  0  0  0  6  0  0  0  0  0  0
   -2.5653    2.3797   -0.7903 O   0  0  0  0  0  0  0  0  0  0  0  0
   -3.4485    1.2566   -2.8653 O   0  0  0  0  0  0  0  0  0  0  0  0
   -4.2006    0.3472   -0.5435 C   0  0  0  0  0  0  0  0  0  0  0  0
   -3.8416    0.1893    0.9358 C   0  0  0  0  0  0  0  0  0  0  0  0
   -5.1025   -0.3161    1.6250 C   0  0  0  0  0  0  0  0  0  0  0  0
   -6.4593    0.4644    0.7667 S   0  0  0  0  0  6  0  0  0  0  0  0
   -6.9634    1.5534    1.5733 O   0  0  0  0  0  0  0  0  0  0  0  0
   -7.3138   -0.5764    0.2353 O   0  0  0  0  0  0  0  0  0  0  0  0
   -5.5039    1.1359   -0.5730 C   0  0  0  0  0  0  0  0  0  0  0  0
   -1.4347   -0.8529   -2.5446 C   0  0  0  0  0  0  0  0  0  0  0  0
   -0.3262   -1.6991   -2.5607 C   0  0  0  0  0  0  0  0  0  0  0  0
    0.6324   -1.6143   -1.5497 C   0  0  0  0  0  0  0  0  0  0  0  0
    1.6787   -2.4522   -1.6079 F   0  0  0  0  0  0  0  0  0  0  0  0
    2.8368   -1.8372   -0.3385 H   0  0  0  0  0  0  0  0  0  0  0  0
    4.1176   -2.1767    1.6521 H   0  0  0  0  0  0  0  0  0  0  0  0
    3.3596   -0.7758    2.4098 H   0  0  0  0  0  0  0  0  0  0  0  0
    3.8076    1.5568    1.4534 H   0  0  0  0  0  0  0  0  0  0  0  0
    5.5787    3.0239    0.5098 H   0  0  0  0  0  0  0  0  0  0  0  0
    7.8015   -0.4160   -0.7432 H   0  0  0  0  0  0  0  0  0  0  0  0
    6.0533   -1.9113    0.1898 H   0  0  0  0  0  0  0  0  0  0  0  0
   -0.7022    0.9207    0.2843 H   0  0  0  0  0  0  0  0  0  0  0  0
   -4.3565   -0.6379   -1.0006 H   0  0  0  0  0  0  0  0  0  0  0  0
   -3.0096   -0.5032    1.0931 H   0  0  0  0  0  0  0  0  0  0  0  0
   -3.5495    1.1542    1.3677 H   0  0  0  0  0  0  0  0  0  0  0  0
   -5.1326   -0.0538    2.6845 H   0  0  0  0  0  0  0  0  0  0  0  0
   -5.2079   -1.3982    1.5042 H   0  0  0  0  0  0  0  0  0  0  0  0
   -5.3509    2.2014   -0.3752 H   0  0  0  0  0  0  0  0  0  0  0  0
   -6.0502    1.0134   -1.5112 H   0  0  0  0  0  0  0  0  0  0  0  0
   -2.1676   -0.9130   -3.3476 H   0  0  0  0  0  0  0  0  0  0  0  0
   -0.1963   -2.4229   -3.3613 H   0  0  0  0  0  0  0  0  0  0  0  0
  1  2  2  0
  2  3  1  0
  3  4  1  0
  4  5  1  0
  5  6  2  0
  6  7  1  0
  7  8  2  0
  8  9  1  0
  8 10  1  0
 10 11  2  0
  2 12  1  0
 12 13  2  0
 13 14  1  0
 14 15  1  0
 15 16  2  0
 15 17  2  0
 15 18  1  0
 18 19  1  0
 19 20  1  0
 20 21  1  0
 21 22  2  0
 21 23  2  0
 21 24  1  0
 14 25  2  0
 25 26  1  0
 26 27  2  0
 27 28  1  0
 11  5  1  0
 27 12  1  0
 24 18  1  0
  3 29  1  0
  4 30  1  0
  4 31  1  0
  6 32  1  0
  7 33  1  0
 10 34  1  0
 11 35  1  0
 13 36  1  0
 18 37  1  0
 19 38  1  0
 19 39  1  0
 20 40  1  0
 20 41  1  0
 24 42  1  0
 24 43  1  0
 25 44  1  0
 26 45  1  0
M  END
$$$$
