
     RDKit          3D

 36 39  0  0  0  0  0  0  0  0999 V2000
   -3.6124    2.7704    0.3290 C   0  0  0  0  0  0  0  0  0  0  0  0
   -2.7134    1.6704    0.3886 O   0  0  0  0  0  0  0  0  0  0  0  0
   -3.2450    0.4060    0.4755 C   0  0  0  0  0  0  0  0  0  0  0  0
   -4.6145    0.1663    0.6693 C   0  0  0  0  0  0  0  0  0  0  0  0
   -5.1187   -1.1346    0.6741 C   0  0  0  0  0  0  0  0  0  0  0  0
   -4.2623   -2.2103    0.4847 C   0  0  0  0  0  0  0  0  0  0  0  0
   -2.8963   -1.9880    0.3035 C   0  0  0  0  0  0  0  0  0  0  0  0
   -2.3572   -0.6876    0.3065 C   0  0  0  0  0  0  0  0  0  0  0  0
   -0.9251   -0.5133    0.1631 N   0  0  0  0  0  0  0  0  0  0  0  0
   -0.2442    0.4319    0.9291 C   0  0  0  0  0  0  0  0  0  0  0  0
    1.0751    0.6280    0.8278 C   0  0  0  0  0  0  0  0  0  0  0  0
    1.8582   -0.1524   -0.1007 C   0  0  0  0  0  0  0  0  0  0  0  0
    1.2447   -1.0827   -0.8516 C   0  0  0  0  0  0  0  0  0  0  0  0
    2.1217   -1.8449   -1.7827 C   0  0  0  0  0  0  0  0  0  0  0  0
    3.4049   -1.6985   -1.9276 N   0  0  0  0  0  0  0  0  0  0  0  0
    3.9871   -0.7453   -1.1423 C   0  0  0  0  0  0  0  0  0  0  0  0
    5.2485   -0.3832   -1.0730 N   0  0  0  0  0  0  0  0  0  0  0  0
    5.2537    0.6019   -0.1297 C   0  0  0  0  0  0  0  0  0  0  0  0
    6.4916    1.3023    0.2683 C   0  0  0  0  0  0  0  0  0  0  0  0
    4.0653    0.8884    0.4090 N   0  0  0  0  0  0  0  0  0  0  0  0
    3.2397    0.0247   -0.2388 N   0  0  0  0  0  0  0  0  0  0  0  0
   -0.2222   -1.3205   -0.7593 C   0  0  0  0  0  0  0  0  0  0  0  0
   -0.7101   -2.1705   -1.5035 O   0  0  0  0  0  0  0  0  0  0  0  0
   -4.3046    2.6745   -0.5141 H   0  0  0  0  0  0  0  0  0  0  0  0
   -4.1500    2.8886    1.2752 H   0  0  0  0  0  0  0  0  0  0  0  0
   -3.0196    3.6764    0.1699 H   0  0  0  0  0  0  0  0  0  0  0  0
   -5.3231    0.9757    0.8115 H   0  0  0  0  0  0  0  0  0  0  0  0
   -6.1826   -1.3057    0.8191 H   0  0  0  0  0  0  0  0  0  0  0  0
   -4.6505   -3.2258    0.4838 H   0  0  0  0  0  0  0  0  0  0  0  0
   -2.2543   -2.8587    0.1914 H   0  0  0  0  0  0  0  0  0  0  0  0
   -0.8196    0.9988    1.6554 H   0  0  0  0  0  0  0  0  0  0  0  0
    1.5748    1.3659    1.4508 H   0  0  0  0  0  0  0  0  0  0  0  0
    1.6135   -2.6045   -2.4011 H   0  0  0  0  0  0  0  0  0  0  0  0
    6.6887    1.1582    1.3351 H   0  0  0  0  0  0  0  0  0  0  0  0
    6.4058    2.3756    0.0722 H   0  0  0  0  0  0  0  0  0  0  0  0
    7.3525    0.9226   -0.2907 H   0  0  0  0  0  0  0  0  0  0  0  0
  1  2  1  0
  2  3  1  0
  3  4  2  0
  4  5  1  0
  5  6  2  0
  6  7  1  0
  7  8  2  0
  8  9  1  0
  9 10  1  0
 10 11  2  0
 11 12  1  0
 12 13  2  0
 13 14  1  0
 14 15  2  0
 15 16  1  0
 16 17  2  0
 17 18  1  0
 18 19  1  0
 18 20  2  0
 20 21  1  0
 13 22  1  0
 22 23  2  0
  8  3  1  0
 22  9  1  0
 21 12  1  0
 21 16  1  0
  1 24  1  0
  1 25  1  0
  1 26  1  0
  4 27  1  0
  5 28  1  0
  6 29  1  0
  7 30  1  0
 10 31  1  0
 11 32  1  0
 14 33  1  0
 19 34  1  0
 19 35  1  0
 19 36  1  0
M  END
$$$$
