
     RDKit          3D

 50 53  0  0  0  0  0  0  0  0999 V2000
   -6.3024    3.0491    0.3827 C   0  0  0  0  0  0  0  0  0  0  0  0
   -5.5658    1.7595    0.1660 C   0  0  0  0  0  0  0  0  0  0  0  0
   -4.3593    1.7448   -0.5469 C   0  0  0  0  0  0  0  0  0  0  0  0
   -3.6897    0.5415   -0.7798 C   0  0  0  0  0  0  0  0  0  0  0  0
   -4.2235   -0.6555   -0.2934 C   0  0  0  0  0  0  0  0  0  0  0  0
   -3.5460   -1.9496   -0.5384 C   0  0  0  0  0  0  0  0  0  0  0  0
   -4.2001   -2.8548   -1.0516 O   0  0  0  0  0  0  0  0  0  0  0  0
   -2.2108   -2.0910   -0.1766 N   0  0  0  0  0  0  0  0  0  0  0  0
   -1.4902   -1.1791    0.7309 C   0  0  0  0  0  0  0  0  0  0  0  0
   -0.3696   -1.8958    1.5041 C   0  0  0  0  0  0  0  0  0  0  0  0
    0.5905   -2.5611    0.5947 N   0  0  0  0  0  0  0  0  0  0  0  0
    1.7255   -1.7866    0.2852 C   0  0  0  0  0  0  0  0  0  0  0  0
    2.8110   -2.3661   -0.3591 C   0  0  0  0  0  0  0  0  0  0  0  0
    3.9377   -1.5992   -0.6667 C   0  0  0  0  0  0  0  0  0  0  0  0
    3.9722   -0.2534   -0.3311 C   0  0  0  0  0  0  0  0  0  0  0  0
    5.1366    0.4858   -0.6464 N   0  0  0  0  0  0  0  0  0  0  0  0
    5.4808    1.7975   -0.2507 C   0  0  0  0  0  0  0  0  0  0  0  0
    5.0001    2.3942    0.9148 C   0  0  0  0  0  0  0  0  0  0  0  0
    5.4423    3.6642    1.2549 C   0  0  0  0  0  0  0  0  0  0  0  0
    6.3407    4.3673    0.5353 N   0  0  0  0  0  0  0  0  0  0  0  0
    6.8248    3.7644   -0.5676 C   0  0  0  0  0  0  0  0  0  0  0  0
    6.4409    2.4992   -0.9875 C   0  0  0  0  0  0  0  0  0  0  0  0
    2.9176    0.2821    0.3066 N   0  0  0  0  0  0  0  0  0  0  0  0
    1.8001   -0.4830    0.6159 N   0  0  0  0  0  0  0  0  0  0  0  0
   -0.0133   -3.1897   -0.6079 C   0  0  0  0  0  0  0  0  0  0  0  0
   -1.5379   -3.3569   -0.4837 C   0  0  0  0  0  0  0  0  0  0  0  0
   -5.4461   -0.6557    0.3832 C   0  0  0  0  0  0  0  0  0  0  0  0
   -6.1128    0.5493    0.6137 C   0  0  0  0  0  0  0  0  0  0  0  0
   -6.8764    3.0185    1.3147 H   0  0  0  0  0  0  0  0  0  0  0  0
   -6.9882    3.2325   -0.4502 H   0  0  0  0  0  0  0  0  0  0  0  0
   -5.6045    3.8895    0.4588 H   0  0  0  0  0  0  0  0  0  0  0  0
   -3.9384    2.6711   -0.9326 H   0  0  0  0  0  0  0  0  0  0  0  0
   -2.7669    0.5420   -1.3535 H   0  0  0  0  0  0  0  0  0  0  0  0
   -2.1954   -0.7329    1.4392 H   0  0  0  0  0  0  0  0  0  0  0  0
   -1.0663   -0.3804    0.1129 H   0  0  0  0  0  0  0  0  0  0  0  0
   -0.8192   -2.6780    2.1299 H   0  0  0  0  0  0  0  0  0  0  0  0
    0.1179   -1.2106    2.2081 H   0  0  0  0  0  0  0  0  0  0  0  0
    2.8033   -3.4230   -0.6034 H   0  0  0  0  0  0  0  0  0  0  0  0
    4.7870   -2.0698   -1.1506 H   0  0  0  0  0  0  0  0  0  0  0  0
    5.4169    0.2901   -1.6011 H   0  0  0  0  0  0  0  0  0  0  0  0
    4.2965    1.8921    1.5687 H   0  0  0  0  0  0  0  0  0  0  0  0
    5.0760    4.1578    2.1505 H   0  0  0  0  0  0  0  0  0  0  0  0
    7.5592    4.3393   -1.1243 H   0  0  0  0  0  0  0  0  0  0  0  0
    6.8898    2.0788   -1.8800 H   0  0  0  0  0  0  0  0  0  0  0  0
    0.4444   -4.1724   -0.7690 H   0  0  0  0  0  0  0  0  0  0  0  0
    0.1791   -2.5776   -1.5003 H   0  0  0  0  0  0  0  0  0  0  0  0
   -1.7814   -4.0573    0.3246 H   0  0  0  0  0  0  0  0  0  0  0  0
   -1.9408   -3.7759   -1.4125 H   0  0  0  0  0  0  0  0  0  0  0  0
   -5.8805   -1.5924    0.7246 H   0  0  0  0  0  0  0  0  0  0  0  0
   -7.0656    0.5372    1.1388 H   0  0  0  0  0  0  0  0  0  0  0  0
  1  2  1  0
  2  3  2  0
  3  4  1  0
  4  5  2  0
  5  6  1  0
  6  7  2  0
  6  8  1  0
  8  9  1  0
  9 10  1  0
 10 11  1  0
 11 12  1  0
 12 13  2  0
 13 14  1  0
 14 15  2  0
 15 16  1  0
 16 17  1  0
 17 18  2  0
 18 19  1  0
 19 20  2  0
 20 21  1  0
 21 22  2  0
 15 23  1  0
 23 24  2  0
 11 25  1  0
 25 26  1  0
  5 27  1  0
 27 28  2  0
 28  2  1  0
 26  8  1  0
 24 12  1  0
 22 17  1  0
  1 29  1  0
  1 30  1  0
  1 31  1  0
  3 32  1  0
  4 33  1  0
  9 34  1  0
  9 35  1  0
 10 36  1  0
 10 37  1  0
 13 38  1  0
 14 39  1  0
 16 40  1  0
 18 41  1  0
 19 42  1  0
 21 43  1  0
 22 44  1  0
 25 45  1  0
 25 46  1  0
 26 47  1  0
 26 48  1  0
 27 49  1  0
 28 50  1  0
M  END
$$$$
