
     RDKit          3D

 53 55  0  0  0  0  0  0  0  0999 V2000
    3.3736    1.6578    4.7545 C   0  0  0  0  0  0  0  0  0  0  0  0
    3.3909    0.9279    3.4360 C   0  0  0  0  0  0  0  0  0  0  0  0
    4.4260    0.4370    2.9953 O   0  0  0  0  0  0  0  0  0  0  0  0
    2.1730    0.9678    2.7867 N   0  0  0  0  0  0  0  0  0  0  0  0
    1.8576    0.3396    1.5913 C   0  0  0  0  0  0  0  0  0  0  0  0
    2.3180   -0.8426    1.1412 C   0  0  0  0  0  0  0  0  0  0  0  0
    3.1128   -1.6251    1.9619 O   0  0  0  0  0  0  0  0  0  0  0  0
    1.9685   -1.3339   -0.1200 N   0  0  0  0  0  0  0  0  0  0  0  0
    2.4312   -2.6153   -0.5470 C   0  0  0  0  0  0  0  0  0  0  0  0
    2.0118   -3.7819    0.1127 C   0  0  0  0  0  0  0  0  0  0  0  0
    2.4882   -5.0338   -0.2804 C   0  0  0  0  0  0  0  0  0  0  0  0
    3.3924   -5.1337   -1.3352 C   0  0  0  0  0  0  0  0  0  0  0  0
    3.8210   -3.9849   -1.9987 C   0  0  0  0  0  0  0  0  0  0  0  0
    3.3469   -2.7318   -1.6044 C   0  0  0  0  0  0  0  0  0  0  0  0
    1.0771   -0.5758   -0.8771 C   0  0  0  0  0  0  0  0  0  0  0  0
    0.5666   -1.0988   -2.4900 S   0  0  0  0  0  0  0  0  0  0  0  0
   -1.1760   -1.4631   -2.1296 C   0  0  0  0  0  0  0  0  0  0  0  0
   -2.1124   -0.3488   -2.5706 C   0  0  0  0  0  0  0  0  0  0  0  0
   -3.1233   -0.5886   -3.2296 O   0  0  0  0  0  0  0  0  0  0  0  0
   -1.7883    0.9106   -2.1262 N   0  0  0  0  0  0  0  0  0  0  0  0
   -2.6975    2.0362   -2.2328 C   0  0  0  0  0  0  0  0  0  0  0  0
   -1.9131    3.3189   -2.5136 C   0  0  0  0  0  0  0  0  0  0  0  0
   -3.5519    2.1131   -0.9784 C   0  0  0  0  0  0  0  0  0  0  0  0
   -3.0616    2.6369    0.2281 C   0  0  0  0  0  0  0  0  0  0  0  0
   -3.8647    2.6703    1.3708 C   0  0  0  0  0  0  0  0  0  0  0  0
   -5.1644    2.1705    1.3269 C   0  0  0  0  0  0  0  0  0  0  0  0
   -5.6599    1.6289    0.1433 C   0  0  0  0  0  0  0  0  0  0  0  0
   -4.8585    1.5957   -0.9993 C   0  0  0  0  0  0  0  0  0  0  0  0
    0.5358    0.5411   -0.5027 N   0  0  0  0  0  0  0  0  0  0  0  0
    0.8491    1.0505    0.7321 C   0  0  0  0  0  0  0  0  0  0  0  0
    0.3363    2.0811    1.1645 O   0  0  0  0  0  0  0  0  0  0  0  0
    2.3573    1.7441    5.1493 H   0  0  0  0  0  0  0  0  0  0  0  0
    3.7917    2.6581    4.6164 H   0  0  0  0  0  0  0  0  0  0  0  0
    3.9758    1.1024    5.4797 H   0  0  0  0  0  0  0  0  0  0  0  0
    1.5720    1.7608    3.0068 H   0  0  0  0  0  0  0  0  0  0  0  0
    3.8370   -1.9762    1.4143 H   0  0  0  0  0  0  0  0  0  0  0  0
    1.3138   -3.7185    0.9435 H   0  0  0  0  0  0  0  0  0  0  0  0
    2.1576   -5.9294    0.2374 H   0  0  0  0  0  0  0  0  0  0  0  0
    3.7640   -6.1088   -1.6423 H   0  0  0  0  0  0  0  0  0  0  0  0
    4.5266   -4.0643   -2.8231 H   0  0  0  0  0  0  0  0  0  0  0  0
    3.6995   -1.8464   -2.1271 H   0  0  0  0  0  0  0  0  0  0  0  0
   -1.3379   -1.6706   -1.0665 H   0  0  0  0  0  0  0  0  0  0  0  0
   -1.4412   -2.3677   -2.6874 H   0  0  0  0  0  0  0  0  0  0  0  0
   -1.0187    0.9984   -1.4659 H   0  0  0  0  0  0  0  0  0  0  0  0
   -3.3557    1.8723   -3.0950 H   0  0  0  0  0  0  0  0  0  0  0  0
   -2.5765    4.1886   -2.5483 H   0  0  0  0  0  0  0  0  0  0  0  0
   -1.1424    3.5076   -1.7583 H   0  0  0  0  0  0  0  0  0  0  0  0
   -1.3996    3.2454   -3.4781 H   0  0  0  0  0  0  0  0  0  0  0  0
   -2.0458    3.0190    0.2961 H   0  0  0  0  0  0  0  0  0  0  0  0
   -3.4702    3.0845    2.2951 H   0  0  0  0  0  0  0  0  0  0  0  0
   -5.7882    2.1969    2.2162 H   0  0  0  0  0  0  0  0  0  0  0  0
   -6.6692    1.2261    0.1084 H   0  0  0  0  0  0  0  0  0  0  0  0
   -5.2550    1.1517   -1.9112 H   0  0  0  0  0  0  0  0  0  0  0  0
  1  2  1  0
  2  3  2  0
  2  4  1  0
  4  5  1  0
  5  6  2  0
  6  7  1  0
  6  8  1  0
  8  9  1  0
  9 10  2  0
 10 11  1  0
 11 12  2  0
 12 13  1  0
 13 14  2  0
  8 15  1  0
 15 16  1  0
 16 17  1  0
 17 18  1  0
 18 19  2  0
 18 20  1  0
 20 21  1  0
 21 22  1  0
 21 23  1  0
 23 24  2  0
 24 25  1  0
 25 26  2  0
 26 27  1  0
 27 28  2  0
 15 29  2  0
 29 30  1  0
 30 31  2  0
 30  5  1  0
 14  9  1  0
 28 23  1  0
  1 32  1  0
  1 33  1  0
  1 34  1  0
  4 35  1  0
  7 36  1  0
 10 37  1  0
 11 38  1  0
 12 39  1  0
 13 40  1  0
 14 41  1  0
 17 42  1  0
 17 43  1  0
 20 44  1  0
 21 45  1  0
 22 46  1  0
 22 47  1  0
 22 48  1  0
 24 49  1  0
 25 50  1  0
 26 51  1  0
 27 52  1  0
 28 53  1  0
M  END
$$$$
