
     RDKit          3D

 47 51  0  0  0  0  0  0  0  0999 V2000
    6.0914    1.6402   -0.7998 C   0  0  0  0  0  0  0  0  0  0  0  0
    4.9514    1.4096   -1.6182 O   0  0  0  0  0  0  0  0  0  0  0  0
    3.7999    1.0435   -0.9802 C   0  0  0  0  0  0  0  0  0  0  0  0
    3.6438    0.8464    0.3876 C   0  0  0  0  0  0  0  0  0  0  0  0
    2.3968    0.4701    0.9081 C   0  0  0  0  0  0  0  0  0  0  0  0
    1.2827    0.2742    0.0794 C   0  0  0  0  0  0  0  0  0  0  0  0
    0.0278   -0.1036    0.6392 N   0  0  0  0  0  0  0  0  0  0  0  0
   -0.4177    0.4408    1.8552 C   0  0  0  0  0  0  0  0  0  0  0  0
    0.1938    1.1344    2.6554 O   0  0  0  0  0  0  0  0  0  0  0  0
   -1.8783    0.1303    2.0222 C   0  0  0  0  0  0  0  0  0  0  0  0
   -2.8593    1.2573    1.6467 C   0  0  0  0  0  0  0  0  0  0  0  0
   -4.1153    0.4315    1.3294 C   0  0  0  0  0  0  0  0  0  0  0  0
   -3.4166   -0.3983    0.2654 C   0  0  0  0  0  0  0  0  0  0  0  0
   -2.7838    0.6273   -0.6733 C   0  0  0  0  0  0  0  0  0  0  0  0
   -1.5601    0.0314   -1.1111 O   0  0  0  0  0  0  0  0  0  0  0  0
   -1.0327   -0.8111   -0.0686 C   0  0  0  0  0  0  0  0  0  0  0  0
   -0.6993   -2.2383   -0.6115 C   0  0  0  0  0  0  0  0  0  0  0  0
   -0.0006   -2.3021   -1.9717 C   0  0  0  0  0  0  0  0  0  0  0  0
    0.0706   -3.1020    0.3965 C   0  0  0  0  0  0  0  0  0  0  0  0
   -2.1679   -0.9326    0.9604 C   0  0  0  0  0  0  0  0  0  0  0  0
   -2.5231    1.8417    0.2561 C   0  0  0  0  0  0  0  0  0  0  0  0
   -3.4293    2.9022   -0.0334 O   0  0  0  0  0  0  0  0  0  0  0  0
    1.4544    0.4873   -1.2903 C   0  0  0  0  0  0  0  0  0  0  0  0
    2.6982    0.8635   -1.8138 C   0  0  0  0  0  0  0  0  0  0  0  0
    6.9176    1.9360   -1.4535 H   0  0  0  0  0  0  0  0  0  0  0  0
    5.9136    2.4602   -0.0961 H   0  0  0  0  0  0  0  0  0  0  0  0
    6.3921    0.7268   -0.2760 H   0  0  0  0  0  0  0  0  0  0  0  0
    4.4647    0.9748    1.0848 H   0  0  0  0  0  0  0  0  0  0  0  0
    2.3254    0.3120    1.9819 H   0  0  0  0  0  0  0  0  0  0  0  0
   -2.0690   -0.2615    3.0274 H   0  0  0  0  0  0  0  0  0  0  0  0
   -3.0065    2.0113    2.4232 H   0  0  0  0  0  0  0  0  0  0  0  0
   -4.4618   -0.1654    2.1796 H   0  0  0  0  0  0  0  0  0  0  0  0
   -4.9456    1.0260    0.9361 H   0  0  0  0  0  0  0  0  0  0  0  0
   -4.0072   -1.1658   -0.2382 H   0  0  0  0  0  0  0  0  0  0  0  0
   -3.4111    0.8830   -1.5323 H   0  0  0  0  0  0  0  0  0  0  0  0
   -1.6669   -2.7319   -0.7869 H   0  0  0  0  0  0  0  0  0  0  0  0
    1.0604   -2.0516   -1.9025 H   0  0  0  0  0  0  0  0  0  0  0  0
   -0.4794   -1.6491   -2.7070 H   0  0  0  0  0  0  0  0  0  0  0  0
   -0.0525   -3.3227   -2.3696 H   0  0  0  0  0  0  0  0  0  0  0  0
    1.0852   -2.7233    0.5569 H   0  0  0  0  0  0  0  0  0  0  0  0
   -0.4316   -3.1439    1.3670 H   0  0  0  0  0  0  0  0  0  0  0  0
    0.1578   -4.1309    0.0302 H   0  0  0  0  0  0  0  0  0  0  0  0
   -2.3065   -1.9143    1.4222 H   0  0  0  0  0  0  0  0  0  0  0  0
   -1.5050    2.2366    0.1924 H   0  0  0  0  0  0  0  0  0  0  0  0
   -3.1271    3.3157   -0.8619 H   0  0  0  0  0  0  0  0  0  0  0  0
    0.6259    0.4066   -1.9857 H   0  0  0  0  0  0  0  0  0  0  0  0
    2.8009    1.0276   -2.8838 H   0  0  0  0  0  0  0  0  0  0  0  0
  1  2  1  0
  2  3  1  0
  3  4  2  0
  4  5  1  0
  5  6  2  0
  6  7  1  0
  7  8  1  0
  8  9  2  0
  8 10  1  0
 10 11  1  0
 11 12  1  0
 12 13  1  0
 13 14  1  0
 14 15  1  0
 15 16  1  0
 16 17  1  0
 17 18  1  0
 17 19  1  0
 16 20  1  0
 14 21  1  0
 21 22  1  0
  6 23  1  0
 23 24  2  0
 24  3  1  0
 16  7  1  0
 20 10  1  0
 21 11  1  0
 20 13  1  0
  1 25  1  0
  1 26  1  0
  1 27  1  0
  4 28  1  0
  5 29  1  0
 10 30  1  0
 11 31  1  0
 12 32  1  0
 12 33  1  0
 13 34  1  0
 14 35  1  0
 17 36  1  0
 18 37  1  0
 18 38  1  0
 18 39  1  0
 19 40  1  0
 19 41  1  0
 19 42  1  0
 20 43  1  0
 21 44  1  0
 22 45  1  0
 23 46  1  0
 24 47  1  0
M  END
$$$$
