
     RDKit          3D

 34 35  0  0  0  0  0  0  0  0999 V2000
    6.1103   -0.1745   -0.0615 C   0  0  0  0  0  0  0  0  0  0  0  0
    5.0381   -1.1075   -0.0580 O   0  0  0  0  0  0  0  0  0  0  0  0
    3.7749   -0.6306   -0.2934 C   0  0  0  0  0  0  0  0  0  0  0  0
    3.4587    0.7242   -0.4587 C   0  0  0  0  0  0  0  0  0  0  0  0
    2.1375    1.1223   -0.6881 C   0  0  0  0  0  0  0  0  0  0  0  0
    1.1281    0.1603   -0.7491 C   0  0  0  0  0  0  0  0  0  0  0  0
   -0.5595    0.6418   -1.0380 S   0  0  0  0  0  6  0  0  0  0  0  0
   -1.0249   -0.1641   -2.1465 O   0  0  0  0  0  0  0  0  0  0  0  0
   -0.6009    2.0902   -1.0883 O   0  0  0  0  0  0  0  0  0  0  0  0
   -1.3278    0.1357    0.4102 N   0  0  0  0  0  0  0  0  0  0  0  0
   -0.9096    0.8636    1.6324 C   0  0  0  0  0  0  0  0  0  0  0  0
   -2.7555   -0.0262    0.2949 C   0  0  0  0  0  0  0  0  0  0  0  0
   -3.3023   -1.2498    0.6871 C   0  0  0  0  0  0  0  0  0  0  0  0
   -4.6849   -1.4390    0.6641 C   0  0  0  0  0  0  0  0  0  0  0  0
   -5.5237   -0.3980    0.2677 C   0  0  0  0  0  0  0  0  0  0  0  0
   -4.9821    0.8340   -0.0988 C   0  0  0  0  0  0  0  0  0  0  0  0
   -3.5993    1.0250   -0.0756 C   0  0  0  0  0  0  0  0  0  0  0  0
    1.4219   -1.1951   -0.5962 C   0  0  0  0  0  0  0  0  0  0  0  0
    2.7419   -1.5839   -0.3643 C   0  0  0  0  0  0  0  0  0  0  0  0
    3.0599   -3.2726   -0.1651 Cl  0  0  0  0  0  0  0  0  0  0  0  0
    7.0381   -0.7310    0.1026 H   0  0  0  0  0  0  0  0  0  0  0  0
    6.1922    0.3310   -1.0294 H   0  0  0  0  0  0  0  0  0  0  0  0
    6.0064    0.5470    0.7554 H   0  0  0  0  0  0  0  0  0  0  0  0
    4.2188    1.4982   -0.4153 H   0  0  0  0  0  0  0  0  0  0  0  0
    1.9100    2.1785   -0.8205 H   0  0  0  0  0  0  0  0  0  0  0  0
    0.1709    0.7875    1.7795 H   0  0  0  0  0  0  0  0  0  0  0  0
   -1.1957    1.9190    1.5871 H   0  0  0  0  0  0  0  0  0  0  0  0
   -1.3793    0.4160    2.5154 H   0  0  0  0  0  0  0  0  0  0  0  0
   -2.6528   -2.0624    1.0004 H   0  0  0  0  0  0  0  0  0  0  0  0
   -5.1068   -2.3978    0.9541 H   0  0  0  0  0  0  0  0  0  0  0  0
   -6.6007   -0.5459    0.2462 H   0  0  0  0  0  0  0  0  0  0  0  0
   -5.6366    1.6473   -0.4022 H   0  0  0  0  0  0  0  0  0  0  0  0
   -3.1953    1.9954   -0.3514 H   0  0  0  0  0  0  0  0  0  0  0  0
    0.6303   -1.9387   -0.6590 H   0  0  0  0  0  0  0  0  0  0  0  0
  1  2  1  0
  2  3  1  0
  3  4  2  0
  4  5  1  0
  5  6  2  0
  6  7  1  0
  7  8  2  0
  7  9  2  0
  7 10  1  0
 10 11  1  0
 10 12  1  0
 12 13  2  0
 13 14  1  0
 14 15  2  0
 15 16  1  0
 16 17  2  0
  6 18  1  0
 18 19  2  0
 19 20  1  0
 19  3  1  0
 17 12  1  0
  1 21  1  0
  1 22  1  0
  1 23  1  0
  4 24  1  0
  5 25  1  0
 11 26  1  0
 11 27  1  0
 11 28  1  0
 13 29  1  0
 14 30  1  0
 15 31  1  0
 16 32  1  0
 17 33  1  0
 18 34  1  0
M  END
$$$$
