
     RDKit          3D

 41 44  0  0  0  0  0  0  0  0999 V2000
    4.7968    1.8558   -0.2352 C   0  0  0  0  0  0  0  0  0  0  0  0
    3.7838    1.4269    0.6637 O   0  0  0  0  0  0  0  0  0  0  0  0
    4.0142    0.0925    1.1249 C   0  0  0  0  0  0  0  0  0  0  0  0
    2.9169   -0.3289    2.1120 C   0  0  0  0  0  0  0  0  0  0  0  0
    1.6195   -0.4522    1.4738 N   0  0  0  0  0  0  0  0  0  0  0  0
    1.1666   -1.3927    0.5453 C   0  0  0  0  0  0  0  0  0  0  0  0
    1.8332   -2.6202    0.0945 C   0  0  0  0  0  0  0  0  0  0  0  0
    2.9324   -2.9762    0.5005 O   0  0  0  0  0  0  0  0  0  0  0  0
    1.1114   -3.3304   -0.8269 N   0  0  0  0  0  0  0  0  0  0  0  0
   -0.1220   -3.0096   -1.3435 C   0  0  0  0  0  0  0  0  0  0  0  0
   -0.6389   -3.7576   -2.1701 O   0  0  0  0  0  0  0  0  0  0  0  0
   -0.7035   -1.8258   -0.8740 N   0  0  0  0  0  0  0  0  0  0  0  0
   -2.0045   -1.4696   -1.4009 C   0  0  0  0  0  0  0  0  0  0  0  0
   -0.0454   -1.0444    0.0562 C   0  0  0  0  0  0  0  0  0  0  0  0
   -0.3608    0.1653    0.6902 N   0  0  0  0  0  0  0  0  0  0  0  0
   -1.2806    1.1772    0.8197 C   0  0  0  0  0  0  0  0  0  0  0  0
   -2.5487    1.3258    0.1306 C   0  0  0  0  0  0  0  0  0  0  0  0
   -2.6131    2.0240   -1.0842 C   0  0  0  0  0  0  0  0  0  0  0  0
   -3.8390    2.1951   -1.7307 C   0  0  0  0  0  0  0  0  0  0  0  0
   -4.9961    1.6849   -1.1528 C   0  0  0  0  0  0  0  0  0  0  0  0
   -6.1707    1.8488   -1.7742 F   0  0  0  0  0  0  0  0  0  0  0  0
   -4.9535    1.0145    0.0645 C   0  0  0  0  0  0  0  0  0  0  0  0
   -3.7291    0.8421    0.7135 C   0  0  0  0  0  0  0  0  0  0  0  0
   -0.8176    2.0495    1.7098 N   0  0  0  0  0  0  0  0  0  0  0  0
    0.4191    1.6295    2.1672 N   0  0  0  0  0  0  0  0  0  0  0  0
    0.6684    0.5131    1.5481 C   0  0  0  0  0  0  0  0  0  0  0  0
    5.7735    1.8530    0.2581 H   0  0  0  0  0  0  0  0  0  0  0  0
    4.8197    1.2136   -1.1209 H   0  0  0  0  0  0  0  0  0  0  0  0
    4.5676    2.8772   -0.5506 H   0  0  0  0  0  0  0  0  0  0  0  0
    4.0509   -0.5830    0.2640 H   0  0  0  0  0  0  0  0  0  0  0  0
    4.9828    0.0579    1.6371 H   0  0  0  0  0  0  0  0  0  0  0  0
    2.8654    0.4033    2.9278 H   0  0  0  0  0  0  0  0  0  0  0  0
    3.1882   -1.2883    2.5672 H   0  0  0  0  0  0  0  0  0  0  0  0
    1.5249   -4.1845   -1.1691 H   0  0  0  0  0  0  0  0  0  0  0  0
   -2.3828   -2.2145   -2.1069 H   0  0  0  0  0  0  0  0  0  0  0  0
   -2.7181   -1.4111   -0.5773 H   0  0  0  0  0  0  0  0  0  0  0  0
   -1.9223   -0.5235   -1.9384 H   0  0  0  0  0  0  0  0  0  0  0  0
   -1.7126    2.4471   -1.5256 H   0  0  0  0  0  0  0  0  0  0  0  0
   -3.9005    2.7325   -2.6720 H   0  0  0  0  0  0  0  0  0  0  0  0
   -5.8733    0.6428    0.5055 H   0  0  0  0  0  0  0  0  0  0  0  0
   -3.7021    0.3400    1.6788 H   0  0  0  0  0  0  0  0  0  0  0  0
  1  2  1  0
  2  3  1  0
  3  4  1  0
  4  5  1  0
  5  6  1  0
  6  7  1  0
  7  8  2  0
  7  9  1  0
  9 10  1  0
 10 11  2  0
 10 12  1  0
 12 13  1  0
 12 14  1  0
 14 15  1  0
 15 16  1  0
 16 17  1  0
 17 18  2  0
 18 19  1  0
 19 20  2  0
 20 21  1  0
 20 22  1  0
 22 23  2  0
 16 24  2  0
 24 25  1  0
 25 26  2  0
 26  5  1  0
 14  6  2  0
 26 15  1  0
 23 17  1  0
  1 27  1  0
  1 28  1  0
  1 29  1  0
  3 30  1  0
  3 31  1  0
  4 32  1  0
  4 33  1  0
  9 34  1  0
 13 35  1  0
 13 36  1  0
 13 37  1  0
 18 38  1  0
 19 39  1  0
 22 40  1  0
 23 41  1  0
M  END
$$$$
