
     RDKit          3D

 38 41  0  0  0  0  0  0  0  0999 V2000
    1.2861    0.0423   -0.9728 O   0  0  0  0  0  0  0  0  0  0  0  0
    1.4375   -0.0453    0.2427 C   0  0  0  0  0  0  0  0  0  0  0  0
    0.2475   -0.0891    1.2099 C   0  0  0  0  0  0  0  0  0  0  0  0
   -0.9891   -0.0128    0.4638 N   0  0  0  0  0  0  0  0  0  0  0  0
   -1.6429   -1.1138   -0.0102 C   0  0  0  0  0  0  0  0  0  0  0  0
   -1.3488   -2.2794    0.2086 O   0  0  0  0  0  0  0  0  0  0  0  0
   -2.8322   -0.6654   -0.8123 C   0  0  0  0  0  0  0  0  0  0  0  0
   -4.1831   -1.0294   -0.1630 C   0  0  0  0  0  0  0  0  0  0  0  0
   -5.2672   -0.4947   -1.0757 C   0  0  0  0  0  0  0  0  0  0  0  0
   -5.2408    0.8454   -0.9825 C   0  0  0  0  0  0  0  0  0  0  0  0
   -4.1390    1.2055   -0.0075 C   0  0  0  0  0  0  0  0  0  0  0  0
   -4.3067    0.0187    0.9517 C   0  0  0  0  0  0  0  0  0  0  0  0
   -2.8016    0.8822   -0.7046 C   0  0  0  0  0  0  0  0  0  0  0  0
   -1.5979    1.1682    0.1486 C   0  0  0  0  0  0  0  0  0  0  0  0
   -1.2588    2.2797    0.5260 O   0  0  0  0  0  0  0  0  0  0  0  0
    2.6514   -0.1160    0.9150 N   0  0  0  0  0  0  0  0  0  0  0  0
    3.9457   -0.1025    0.3537 C   0  0  0  0  0  0  0  0  0  0  0  0
    5.0270   -0.1857    1.2420 C   0  0  0  0  0  0  0  0  0  0  0  0
    6.3440   -0.1788    0.7706 C   0  0  0  0  0  0  0  0  0  0  0  0
    6.5869   -0.0884   -0.5973 C   0  0  0  0  0  0  0  0  0  0  0  0
    8.5394   -0.0777   -1.3048 I   0  0  0  0  0  0  0  0  0  0  0  0
    5.5226   -0.0052   -1.4914 C   0  0  0  0  0  0  0  0  0  0  0  0
    4.2057   -0.0123   -1.0152 C   0  0  0  0  0  0  0  0  0  0  0  0
    0.3184    0.7609    1.8963 H   0  0  0  0  0  0  0  0  0  0  0  0
    0.2831   -1.0281    1.7718 H   0  0  0  0  0  0  0  0  0  0  0  0
   -2.7339   -1.0108   -1.8471 H   0  0  0  0  0  0  0  0  0  0  0  0
   -4.3132   -2.0608    0.1666 H   0  0  0  0  0  0  0  0  0  0  0  0
   -5.9060   -1.0869   -1.7144 H   0  0  0  0  0  0  0  0  0  0  0  0
   -5.8541    1.5449   -1.5312 H   0  0  0  0  0  0  0  0  0  0  0  0
   -4.2294    2.1856    0.4622 H   0  0  0  0  0  0  0  0  0  0  0  0
   -5.2815    0.0028    1.4576 H   0  0  0  0  0  0  0  0  0  0  0  0
   -3.5252   -0.0498    1.7149 H   0  0  0  0  0  0  0  0  0  0  0  0
   -2.6871    1.3635   -1.6818 H   0  0  0  0  0  0  0  0  0  0  0  0
    2.6141   -0.1856    1.9245 H   0  0  0  0  0  0  0  0  0  0  0  0
    4.8645   -0.2571    2.3144 H   0  0  0  0  0  0  0  0  0  0  0  0
    7.1640   -0.2445    1.4810 H   0  0  0  0  0  0  0  0  0  0  0  0
    5.6939    0.0660   -2.5627 H   0  0  0  0  0  0  0  0  0  0  0  0
    3.4070    0.0544   -1.7473 H   0  0  0  0  0  0  0  0  0  0  0  0
  1  2  2  0
  2  3  1  0
  3  4  1  0
  4  5  1  0
  5  6  2  0
  5  7  1  0
  7  8  1  0
  8  9  1  0
  9 10  2  0
 10 11  1  0
 11 12  1  0
 11 13  1  0
 13 14  1  0
 14 15  2  0
  2 16  1  0
 16 17  1  0
 17 18  2  0
 18 19  1  0
 19 20  2  0
 20 21  1  0
 20 22  1  0
 22 23  2  0
 14  4  1  0
 23 17  1  0
 13  7  1  0
 12  8  1  0
  3 24  1  0
  3 25  1  0
  7 26  1  0
  8 27  1  0
  9 28  1  0
 10 29  1  0
 11 30  1  0
 12 31  1  0
 12 32  1  0
 13 33  1  0
 16 34  1  0
 18 35  1  0
 19 36  1  0
 22 37  1  0
 23 38  1  0
M  END
$$$$
