
     RDKit          3D

 51 53  0  0  0  0  0  0  0  0999 V2000
   -0.4972    1.5942   -0.4871 O   0  0  0  0  0  0  0  0  0  0  0  0
   -0.8101    0.5043   -0.0185 C   0  0  0  0  0  0  0  0  0  0  0  0
   -2.1168    0.0806    0.0873 N   0  0  0  0  0  0  0  0  0  0  0  0
   -3.2490    0.9500   -0.2314 C   0  0  0  0  0  0  0  0  0  0  0  0
   -3.5138    1.8962    0.9488 C   0  0  0  0  0  0  0  0  0  0  0  0
   -4.8880    2.5603    0.9571 C   0  0  0  0  0  0  0  0  0  0  0  0
   -5.9518    1.7058    1.6445 C   0  0  0  0  0  0  0  0  0  0  0  0
   -6.4163    0.4857    0.8568 C   0  0  0  0  0  0  0  0  0  0  0  0
   -5.3075   -0.4712    0.4224 C   0  0  0  0  0  0  0  0  0  0  0  0
   -4.4394    0.1019   -0.6969 C   0  0  0  0  0  0  0  0  0  0  0  0
    0.2566   -0.4196    0.4598 C   0  0  0  0  0  0  0  0  0  0  0  0
    1.5881    0.0231    0.4077 C   0  0  0  0  0  0  0  0  0  0  0  0
    2.6215   -0.8262    0.8186 C   0  0  0  0  0  0  0  0  0  0  0  0
    4.3072   -0.2648    0.7736 S   0  0  0  0  0  6  0  0  0  0  0  0
    4.9878   -0.8664    1.9003 O   0  0  0  0  0  0  0  0  0  0  0  0
    4.3144    1.1678    0.5761 O   0  0  0  0  0  0  0  0  0  0  0  0
    4.9027   -0.9897   -0.6515 N   0  0  0  0  0  0  0  0  0  0  0  0
    4.2074   -0.5818   -1.9196 C   0  0  0  0  0  0  0  0  0  0  0  0
    5.0830   -0.8947   -3.1373 C   0  0  0  0  0  0  0  0  0  0  0  0
    6.3172   -0.1653   -3.1437 O   0  0  0  0  0  0  0  0  0  0  0  0
    6.8007    0.1418   -1.8280 C   0  0  0  0  0  0  0  0  0  0  0  0
    6.3989   -0.9053   -0.7861 C   0  0  0  0  0  0  0  0  0  0  0  0
    2.3447   -2.1068    1.3069 C   0  0  0  0  0  0  0  0  0  0  0  0
    1.0227   -2.5439    1.3685 C   0  0  0  0  0  0  0  0  0  0  0  0
   -0.0088   -1.7040    0.9460 C   0  0  0  0  0  0  0  0  0  0  0  0
   -1.2649   -2.1697    1.0264 F   0  0  0  0  0  0  0  0  0  0  0  0
   -2.3118   -0.7841    0.5803 H   0  0  0  0  0  0  0  0  0  0  0  0
   -2.9428    1.5632   -1.0895 H   0  0  0  0  0  0  0  0  0  0  0  0
   -2.7499    2.6850    0.9226 H   0  0  0  0  0  0  0  0  0  0  0  0
   -3.3523    1.3737    1.9012 H   0  0  0  0  0  0  0  0  0  0  0  0
   -4.8032    3.4938    1.5282 H   0  0  0  0  0  0  0  0  0  0  0  0
   -5.2005    2.8438   -0.0543 H   0  0  0  0  0  0  0  0  0  0  0  0
   -5.5879    1.3854    2.6287 H   0  0  0  0  0  0  0  0  0  0  0  0
   -6.8292    2.3362    1.8367 H   0  0  0  0  0  0  0  0  0  0  0  0
   -7.1263   -0.0698    1.4824 H   0  0  0  0  0  0  0  0  0  0  0  0
   -6.9826    0.8162   -0.0230 H   0  0  0  0  0  0  0  0  0  0  0  0
   -4.7021   -0.7854    1.2799 H   0  0  0  0  0  0  0  0  0  0  0  0
   -5.7934   -1.3769    0.0373 H   0  0  0  0  0  0  0  0  0  0  0  0
   -4.0624   -0.7309   -1.3058 H   0  0  0  0  0  0  0  0  0  0  0  0
   -5.0653    0.6995   -1.3719 H   0  0  0  0  0  0  0  0  0  0  0  0
    1.8137    1.0263    0.0464 H   0  0  0  0  0  0  0  0  0  0  0  0
    3.2679   -1.1374   -2.0002 H   0  0  0  0  0  0  0  0  0  0  0  0
    3.9893    0.4915   -1.9027 H   0  0  0  0  0  0  0  0  0  0  0  0
    5.3232   -1.9636   -3.1770 H   0  0  0  0  0  0  0  0  0  0  0  0
    4.5501   -0.6449   -4.0602 H   0  0  0  0  0  0  0  0  0  0  0  0
    7.8912    0.2125   -1.8907 H   0  0  0  0  0  0  0  0  0  0  0  0
    6.4231    1.1329   -1.5519 H   0  0  0  0  0  0  0  0  0  0  0  0
    6.7497   -1.8987   -1.0904 H   0  0  0  0  0  0  0  0  0  0  0  0
    6.8755   -0.6771    0.1721 H   0  0  0  0  0  0  0  0  0  0  0  0
    3.1502   -2.7586    1.6414 H   0  0  0  0  0  0  0  0  0  0  0  0
    0.7865   -3.5348    1.7468 H   0  0  0  0  0  0  0  0  0  0  0  0
  1  2  2  0
  2  3  1  0
  3  4  1  0
  4  5  1  0
  5  6  1  0
  6  7  1  0
  7  8  1  0
  8  9  1  0
  9 10  1  0
  2 11  1  0
 11 12  2  0
 12 13  1  0
 13 14  1  0
 14 15  2  0
 14 16  2  0
 14 17  1  0
 17 18  1  0
 18 19  1  0
 19 20  1  0
 20 21  1  0
 21 22  1  0
 13 23  2  0
 23 24  1  0
 24 25  2  0
 25 26  1  0
 10  4  1  0
 25 11  1  0
 22 17  1  0
  3 27  1  0
  4 28  1  0
  5 29  1  0
  5 30  1  0
  6 31  1  0
  6 32  1  0
  7 33  1  0
  7 34  1  0
  8 35  1  0
  8 36  1  0
  9 37  1  0
  9 38  1  0
 10 39  1  0
 10 40  1  0
 12 41  1  0
 18 42  1  0
 18 43  1  0
 19 44  1  0
 19 45  1  0
 21 46  1  0
 21 47  1  0
 22 48  1  0
 22 49  1  0
 23 50  1  0
 24 51  1  0
M  END
$$$$
