
     RDKit          3D

 47 49  0  0  0  0  0  0  0  0999 V2000
    6.1443    3.0210   -0.3142 C   0  0  0  0  0  0  0  0  0  0  0  0
    4.8753    2.2848    0.0863 C   0  0  0  0  0  0  0  0  0  0  0  0
    5.0189    0.8680   -0.2354 N   0  0  0  0  0  0  0  0  0  0  0  0
    3.9630    0.0679    0.2150 C   0  0  0  0  0  0  0  0  0  0  0  0
    2.6586    0.2769   -0.1827 C   0  0  0  0  0  0  0  0  0  0  0  0
    1.6854   -0.5796    0.3006 C   0  0  0  0  0  0  0  0  0  0  0  0
    0.3441   -0.4115   -0.0540 N   0  0  0  0  0  0  0  0  0  0  0  0
   -0.6139   -1.2944    0.6328 C   0  0  0  0  0  0  0  0  0  0  0  0
   -2.0598   -0.8406    0.3486 C   0  0  0  0  0  0  0  0  0  0  0  0
   -2.3463   -0.6504   -1.0825 N   0  0  0  0  0  0  0  0  0  0  0  0
   -3.4841   -0.0077   -1.5601 C   0  0  0  0  0  0  0  0  0  0  0  0
   -3.5979    0.4176   -2.7067 O   0  0  0  0  0  0  0  0  0  0  0  0
   -4.6217    0.1927   -0.6365 C   0  0  0  0  0  0  0  0  0  0  0  0
   -5.0548    1.4953   -0.3729 C   0  0  0  0  0  0  0  0  0  0  0  0
   -6.1370    1.7022    0.4827 C   0  0  0  0  0  0  0  0  0  0  0  0
   -6.7902    0.6105    1.0583 C   0  0  0  0  0  0  0  0  0  0  0  0
   -6.3711   -0.6907    0.7737 C   0  0  0  0  0  0  0  0  0  0  0  0
   -5.2892   -0.9035   -0.0810 C   0  0  0  0  0  0  0  0  0  0  0  0
   -1.2063   -0.8302   -1.9827 C   0  0  0  0  0  0  0  0  0  0  0  0
    0.0532   -0.1039   -1.4727 C   0  0  0  0  0  0  0  0  0  0  0  0
    2.0137   -1.5659    1.1520 N   0  0  0  0  0  0  0  0  0  0  0  0
    3.3095   -1.7076    1.4803 C   0  0  0  0  0  0  0  0  0  0  0  0
    3.6712   -2.8442    2.3837 C   0  0  0  0  0  0  0  0  0  0  0  0
    4.3081   -0.9337    1.0289 N   0  0  0  0  0  0  0  0  0  0  0  0
    6.0539    4.0879   -0.0878 H   0  0  0  0  0  0  0  0  0  0  0  0
    6.3387    2.9127   -1.3866 H   0  0  0  0  0  0  0  0  0  0  0  0
    7.0133    2.6291    0.2250 H   0  0  0  0  0  0  0  0  0  0  0  0
    4.0312    2.7255   -0.4557 H   0  0  0  0  0  0  0  0  0  0  0  0
    4.7045    2.4212    1.1612 H   0  0  0  0  0  0  0  0  0  0  0  0
    5.8394    0.4647    0.2188 H   0  0  0  0  0  0  0  0  0  0  0  0
    2.4114    1.0873   -0.8529 H   0  0  0  0  0  0  0  0  0  0  0  0
   -0.4628   -1.2696    1.7192 H   0  0  0  0  0  0  0  0  0  0  0  0
   -0.4792   -2.3302    0.2945 H   0  0  0  0  0  0  0  0  0  0  0  0
   -2.7573   -1.5809    0.7514 H   0  0  0  0  0  0  0  0  0  0  0  0
   -2.2486    0.1147    0.8532 H   0  0  0  0  0  0  0  0  0  0  0  0
   -4.5533    2.3417   -0.8357 H   0  0  0  0  0  0  0  0  0  0  0  0
   -6.4768    2.7131    0.6938 H   0  0  0  0  0  0  0  0  0  0  0  0
   -7.6374    0.7745    1.7202 H   0  0  0  0  0  0  0  0  0  0  0  0
   -6.8953   -1.5375    1.2098 H   0  0  0  0  0  0  0  0  0  0  0  0
   -4.9784   -1.9163   -0.3227 H   0  0  0  0  0  0  0  0  0  0  0  0
   -1.4407   -0.4952   -2.9980 H   0  0  0  0  0  0  0  0  0  0  0  0
   -1.0168   -1.9093   -2.0382 H   0  0  0  0  0  0  0  0  0  0  0  0
    0.8856   -0.3851   -2.1299 H   0  0  0  0  0  0  0  0  0  0  0  0
   -0.0942    0.9792   -1.5597 H   0  0  0  0  0  0  0  0  0  0  0  0
    4.5468   -2.5912    2.9894 H   0  0  0  0  0  0  0  0  0  0  0  0
    3.8996   -3.7313    1.7860 H   0  0  0  0  0  0  0  0  0  0  0  0
    2.8433   -3.0779    3.0601 H   0  0  0  0  0  0  0  0  0  0  0  0
  1  2  1  0
  2  3  1  0
  3  4  1  0
  4  5  2  0
  5  6  1  0
  6  7  1  0
  7  8  1  0
  8  9  1  0
  9 10  1  0
 10 11  1  0
 11 12  2  0
 11 13  1  0
 13 14  2  0
 14 15  1  0
 15 16  2  0
 16 17  1  0
 17 18  2  0
 10 19  1  0
 19 20  1  0
  6 21  2  0
 21 22  1  0
 22 23  1  0
 22 24  2  0
 24  4  1  0
 20  7  1  0
 18 13  1  0
  1 25  1  0
  1 26  1  0
  1 27  1  0
  2 28  1  0
  2 29  1  0
  3 30  1  0
  5 31  1  0
  8 32  1  0
  8 33  1  0
  9 34  1  0
  9 35  1  0
 14 36  1  0
 15 37  1  0
 16 38  1  0
 17 39  1  0
 18 40  1  0
 19 41  1  0
 19 42  1  0
 20 43  1  0
 20 44  1  0
 23 45  1  0
 23 46  1  0
 23 47  1  0
M  END
$$$$
