
     RDKit          3D

 53 54  0  0  0  0  0  0  0  0999 V2000
    9.5785    0.6270    0.5278 C   0  0  0  0  0  0  0  0  0  0  0  0
    8.2080    0.5730   -0.1232 C   0  0  0  0  0  0  0  0  0  0  0  0
    7.3662   -0.2420    0.6909 O   0  0  0  0  0  0  0  0  0  0  0  0
    6.0783   -0.4229    0.2690 C   0  0  0  0  0  0  0  0  0  0  0  0
    5.3059   -1.2455    1.0944 C   0  0  0  0  0  0  0  0  0  0  0  0
    3.9695   -1.5179    0.7865 C   0  0  0  0  0  0  0  0  0  0  0  0
    3.3908   -0.9556   -0.3558 C   0  0  0  0  0  0  0  0  0  0  0  0
    1.9734   -1.2109   -0.7344 C   0  0  0  0  0  0  0  0  0  0  0  0
    1.6316   -1.1521   -1.9100 O   0  0  0  0  0  0  0  0  0  0  0  0
    1.1002   -1.4736    0.3023 N   0  0  0  0  0  0  0  0  0  0  0  0
   -0.3225   -1.6225    0.0659 C   0  0  0  0  0  0  0  0  0  0  0  0
   -1.0385   -0.2732    0.0631 C   0  0  0  0  0  0  0  0  0  0  0  0
   -2.5387   -0.4568   -0.1998 C   0  0  0  0  0  0  0  0  0  0  0  0
   -3.2496    0.8280   -0.1923 N   0  0  0  0  0  0  0  0  0  0  0  0
   -4.4679    0.8089   -1.0035 C   0  0  0  0  0  0  0  0  0  0  0  0
   -5.6706    0.0670   -0.3870 C   0  0  0  0  0  0  0  0  0  0  0  0
   -5.8067   -1.3634   -0.9118 C   0  0  0  0  0  0  0  0  0  0  0  0
   -5.6438    0.0739    1.1498 C   0  0  0  0  0  0  0  0  0  0  0  0
   -4.9108    1.2918    1.7164 C   0  0  0  0  0  0  0  0  0  0  0  0
   -5.6985    2.5876    1.5010 C   0  0  0  0  0  0  0  0  0  0  0  0
   -3.4708    1.3679    1.1603 C   0  0  0  0  0  0  0  0  0  0  0  0
    4.1675   -0.1448   -1.1918 C   0  0  0  0  0  0  0  0  0  0  0  0
    5.5049    0.1248   -0.8785 C   0  0  0  0  0  0  0  0  0  0  0  0
    9.9995   -0.3793    0.6239 H   0  0  0  0  0  0  0  0  0  0  0  0
   10.2652    1.2428   -0.0596 H   0  0  0  0  0  0  0  0  0  0  0  0
    9.5088    1.0413    1.5391 H   0  0  0  0  0  0  0  0  0  0  0  0
    7.8036    1.5896   -0.1901 H   0  0  0  0  0  0  0  0  0  0  0  0
    8.3048    0.1387   -1.1250 H   0  0  0  0  0  0  0  0  0  0  0  0
    5.7551   -1.6866    1.9815 H   0  0  0  0  0  0  0  0  0  0  0  0
    3.4105   -2.1894    1.4308 H   0  0  0  0  0  0  0  0  0  0  0  0
    1.4007   -1.2960    1.2507 H   0  0  0  0  0  0  0  0  0  0  0  0
   -0.4750   -2.1415   -0.8870 H   0  0  0  0  0  0  0  0  0  0  0  0
   -0.7123   -2.2596    0.8670 H   0  0  0  0  0  0  0  0  0  0  0  0
   -0.6057    0.3767   -0.7082 H   0  0  0  0  0  0  0  0  0  0  0  0
   -0.8623    0.2245    1.0239 H   0  0  0  0  0  0  0  0  0  0  0  0
   -2.6346   -0.9292   -1.1861 H   0  0  0  0  0  0  0  0  0  0  0  0
   -2.9706   -1.1542    0.5277 H   0  0  0  0  0  0  0  0  0  0  0  0
   -4.2527    0.4253   -2.0094 H   0  0  0  0  0  0  0  0  0  0  0  0
   -4.7544    1.8525   -1.1848 H   0  0  0  0  0  0  0  0  0  0  0  0
   -6.5725    0.6072   -0.7065 H   0  0  0  0  0  0  0  0  0  0  0  0
   -4.9484   -1.9836   -0.6375 H   0  0  0  0  0  0  0  0  0  0  0  0
   -5.8925   -1.3689   -2.0036 H   0  0  0  0  0  0  0  0  0  0  0  0
   -6.7066   -1.8378   -0.5056 H   0  0  0  0  0  0  0  0  0  0  0  0
   -5.1437   -0.8307    1.5204 H   0  0  0  0  0  0  0  0  0  0  0  0
   -6.6694    0.0269    1.5368 H   0  0  0  0  0  0  0  0  0  0  0  0
   -4.8366    1.1554    2.8039 H   0  0  0  0  0  0  0  0  0  0  0  0
   -6.6961    2.5070    1.9461 H   0  0  0  0  0  0  0  0  0  0  0  0
   -5.8257    2.8406    0.4461 H   0  0  0  0  0  0  0  0  0  0  0  0
   -5.1897    3.4284    1.9849 H   0  0  0  0  0  0  0  0  0  0  0  0
   -3.1403    2.4142    1.1574 H   0  0  0  0  0  0  0  0  0  0  0  0
   -2.8118    0.8710    1.8834 H   0  0  0  0  0  0  0  0  0  0  0  0
    3.7303    0.2833   -2.0925 H   0  0  0  0  0  0  0  0  0  0  0  0
    6.0661    0.7622   -1.5537 H   0  0  0  0  0  0  0  0  0  0  0  0
  1  2  1  0
  2  3  1  0
  3  4  1  0
  4  5  2  0
  5  6  1  0
  6  7  2  0
  7  8  1  0
  8  9  2  0
  8 10  1  0
 10 11  1  0
 11 12  1  0
 12 13  1  0
 13 14  1  0
 14 15  1  0
 15 16  1  0
 16 17  1  0
 16 18  1  0
 18 19  1  0
 19 20  1  0
 19 21  1  0
  7 22  1  0
 22 23  2  0
 23  4  1  0
 21 14  1  0
  1 24  1  0
  1 25  1  0
  1 26  1  0
  2 27  1  0
  2 28  1  0
  5 29  1  0
  6 30  1  0
 10 31  1  0
 11 32  1  0
 11 33  1  0
 12 34  1  0
 12 35  1  0
 13 36  1  0
 13 37  1  0
 15 38  1  0
 15 39  1  0
 16 40  1  0
 17 41  1  0
 17 42  1  0
 17 43  1  0
 18 44  1  0
 18 45  1  0
 19 46  1  0
 20 47  1  0
 20 48  1  0
 20 49  1  0
 21 50  1  0
 21 51  1  0
 22 52  1  0
 23 53  1  0
M  END
$$$$
