
     RDKit          3D

 29 30  0  0  0  0  0  0  0  0999 V2000
   -3.0954   -2.4818    0.6226 C   0  0  0  0  0  0  0  0  0  0  0  0
   -2.9520   -1.1335    0.2016 O   0  0  0  0  0  0  0  0  0  0  0  0
   -1.6798   -0.6493    0.0213 C   0  0  0  0  0  0  0  0  0  0  0  0
   -0.5123   -1.4026    0.1936 C   0  0  0  0  0  0  0  0  0  0  0  0
    0.7610   -0.8373   -0.0022 C   0  0  0  0  0  0  0  0  0  0  0  0
    0.8565    0.5015   -0.3985 C   0  0  0  0  0  0  0  0  0  0  0  0
   -0.3178    1.2593   -0.5740 C   0  0  0  0  0  0  0  0  0  0  0  0
   -1.5810    0.6988   -0.3612 C   0  0  0  0  0  0  0  0  0  0  0  0
   -2.7665    1.3736   -0.5133 O   0  0  0  0  0  0  0  0  0  0  0  0
   -2.7032    2.7664   -0.7834 C   0  0  0  0  0  0  0  0  0  0  0  0
    2.1873    1.1316   -0.7035 C   0  0  0  0  0  0  0  0  0  0  0  0
    3.1727    1.1150    0.4408 C   0  0  0  0  0  0  0  0  0  0  0  0
    3.6765    2.1521    0.8772 O   0  0  0  0  0  0  0  0  0  0  0  0
    3.6100   -0.0929    0.9121 N   0  0  0  0  0  0  0  0  0  0  0  0
    3.1425   -1.3526    0.6586 C   0  0  0  0  0  0  0  0  0  0  0  0
    1.9300   -1.7049    0.2122 C   0  0  0  0  0  0  0  0  0  0  0  0
   -2.6964   -3.1737   -0.1263 H   0  0  0  0  0  0  0  0  0  0  0  0
   -2.6290   -2.6428    1.6001 H   0  0  0  0  0  0  0  0  0  0  0  0
   -4.1650   -2.6876    0.7276 H   0  0  0  0  0  0  0  0  0  0  0  0
   -0.5735   -2.4430    0.4969 H   0  0  0  0  0  0  0  0  0  0  0  0
   -0.2194    2.2936   -0.8895 H   0  0  0  0  0  0  0  0  0  0  0  0
   -2.1687    3.3013    0.0087 H   0  0  0  0  0  0  0  0  0  0  0  0
   -2.2541    2.9566   -1.7636 H   0  0  0  0  0  0  0  0  0  0  0  0
   -3.7281    3.1490   -0.8087 H   0  0  0  0  0  0  0  0  0  0  0  0
    2.6411    0.6361   -1.5711 H   0  0  0  0  0  0  0  0  0  0  0  0
    2.0514    2.1809   -0.9952 H   0  0  0  0  0  0  0  0  0  0  0  0
    4.4275   -0.0027    1.5067 H   0  0  0  0  0  0  0  0  0  0  0  0
    3.8473   -2.1408    0.9196 H   0  0  0  0  0  0  0  0  0  0  0  0
    1.7383   -2.7703    0.0907 H   0  0  0  0  0  0  0  0  0  0  0  0
  1  2  1  0
  2  3  1  0
  3  4  2  0
  4  5  1  0
  5  6  2  0
  6  7  1  0
  7  8  2  0
  8  9  1  0
  9 10  1  0
  6 11  1  0
 11 12  1  0
 12 13  2  0
 12 14  1  0
 14 15  1  0
 15 16  2  0
  8  3  1  0
 16  5  1  0
  1 17  1  0
  1 18  1  0
  1 19  1  0
  4 20  1  0
  7 21  1  0
 10 22  1  0
 10 23  1  0
 10 24  1  0
 11 25  1  0
 11 26  1  0
 14 27  1  0
 15 28  1  0
 16 29  1  0
M  END
$$$$
