
     RDKit          3D

 45 46  0  0  0  0  0  0  0  0999 V2000
    3.2651   -1.2991    1.3017 C   0  0  0  0  0  0  0  0  0  0  0  0
    3.1398   -0.8665   -0.1564 C   0  0  0  0  0  0  0  0  0  0  0  0
    3.8492    0.3649   -0.2854 O   0  0  0  0  0  0  0  0  0  0  0  0
    4.1783    0.8207   -1.5355 C   0  0  0  0  0  0  0  0  0  0  0  0
    3.8460    0.1830   -2.7354 C   0  0  0  0  0  0  0  0  0  0  0  0
    4.2281    0.7368   -3.9626 C   0  0  0  0  0  0  0  0  0  0  0  0
    4.9434    1.9310   -4.0058 C   0  0  0  0  0  0  0  0  0  0  0  0
    5.2775    2.5789   -2.8191 C   0  0  0  0  0  0  0  0  0  0  0  0
    4.8960    2.0280   -1.5923 C   0  0  0  0  0  0  0  0  0  0  0  0
    5.3278    2.8845   -0.1518 Cl  0  0  0  0  0  0  0  0  0  0  0  0
    1.6477   -0.7239   -0.4976 C   0  0  0  0  0  0  0  0  0  0  0  0
    1.0218   -1.6080   -1.0772 O   0  0  0  0  0  0  0  0  0  0  0  0
    1.0761    0.4532   -0.0624 N   0  0  0  0  0  0  0  0  0  0  0  0
   -0.3207    0.7629   -0.2749 C   0  0  0  0  0  0  0  0  0  0  0  0
   -1.2043    0.1413    0.8041 C   0  0  0  0  0  0  0  0  0  0  0  0
   -2.6821    0.4591    0.5473 C   0  0  0  0  0  0  0  0  0  0  0  0
   -3.5646   -0.0100    1.6263 N   0  0  0  0  0  0  0  0  0  0  0  0
   -3.5273   -1.4833    1.7776 C   0  0  0  0  0  0  0  0  0  0  0  0
   -4.8049   -2.0295    2.4336 C   0  0  0  0  0  0  0  0  0  0  0  0
   -5.9774   -1.7968    1.6405 O   0  0  0  0  0  0  0  0  0  0  0  0
   -5.8832   -0.6148    0.8345 C   0  0  0  0  0  0  0  0  0  0  0  0
   -4.9575    0.4541    1.4357 C   0  0  0  0  0  0  0  0  0  0  0  0
    4.3178   -1.4450    1.5670 H   0  0  0  0  0  0  0  0  0  0  0  0
    2.8720   -0.5332    1.9799 H   0  0  0  0  0  0  0  0  0  0  0  0
    2.7231   -2.2317    1.4881 H   0  0  0  0  0  0  0  0  0  0  0  0
    3.5905   -1.6457   -0.7822 H   0  0  0  0  0  0  0  0  0  0  0  0
    3.2848   -0.7462   -2.7639 H   0  0  0  0  0  0  0  0  0  0  0  0
    3.9625    0.2307   -4.8885 H   0  0  0  0  0  0  0  0  0  0  0  0
    5.2380    2.3568   -4.9618 H   0  0  0  0  0  0  0  0  0  0  0  0
    5.8335    3.5122   -2.8537 H   0  0  0  0  0  0  0  0  0  0  0  0
    1.6879    1.1561    0.3410 H   0  0  0  0  0  0  0  0  0  0  0  0
   -0.4133    1.8540   -0.2674 H   0  0  0  0  0  0  0  0  0  0  0  0
   -0.6151    0.4017   -1.2667 H   0  0  0  0  0  0  0  0  0  0  0  0
   -1.0427   -0.9429    0.8241 H   0  0  0  0  0  0  0  0  0  0  0  0
   -0.9026    0.5243    1.7874 H   0  0  0  0  0  0  0  0  0  0  0  0
   -2.7761    1.5499    0.4674 H   0  0  0  0  0  0  0  0  0  0  0  0
   -2.9930    0.0399   -0.4185 H   0  0  0  0  0  0  0  0  0  0  0  0
   -3.4198   -1.9644    0.7965 H   0  0  0  0  0  0  0  0  0  0  0  0
   -2.6629   -1.7609    2.3903 H   0  0  0  0  0  0  0  0  0  0  0  0
   -4.9618   -1.5795    3.4210 H   0  0  0  0  0  0  0  0  0  0  0  0
   -4.7194   -3.1111    2.5802 H   0  0  0  0  0  0  0  0  0  0  0  0
   -6.8962   -0.2146    0.7238 H   0  0  0  0  0  0  0  0  0  0  0  0
   -5.5395   -0.9089   -0.1641 H   0  0  0  0  0  0  0  0  0  0  0  0
   -5.3409    0.7219    2.4285 H   0  0  0  0  0  0  0  0  0  0  0  0
   -5.0014    1.3704    0.8352 H   0  0  0  0  0  0  0  0  0  0  0  0
  1  2  1  0
  2  3  1  0
  3  4  1  0
  4  5  2  0
  5  6  1  0
  6  7  2  0
  7  8  1  0
  8  9  2  0
  9 10  1  0
  2 11  1  0
 11 12  2  0
 11 13  1  0
 13 14  1  0
 14 15  1  0
 15 16  1  0
 16 17  1  0
 17 18  1  0
 18 19  1  0
 19 20  1  0
 20 21  1  0
 21 22  1  0
  9  4  1  0
 22 17  1  0
  1 23  1  0
  1 24  1  0
  1 25  1  0
  2 26  1  0
  5 27  1  0
  6 28  1  0
  7 29  1  0
  8 30  1  0
 13 31  1  0
 14 32  1  0
 14 33  1  0
 15 34  1  0
 15 35  1  0
 16 36  1  0
 16 37  1  0
 18 38  1  0
 18 39  1  0
 19 40  1  0
 19 41  1  0
 21 42  1  0
 21 43  1  0
 22 44  1  0
 22 45  1  0
M  END
$$$$
