
     RDKit          3D

 36 38  0  0  0  0  0  0  0  0999 V2000
    1.3902   -0.3624    1.7193 O   0  0  0  0  0  0  0  0  0  0  0  0
    1.9447    0.2495    0.8056 C   0  0  0  0  0  0  0  0  0  0  0  0
    1.1853    1.0166   -0.2727 C   0  0  0  0  0  0  0  0  0  0  0  0
    0.0906    0.2118   -0.7908 N   0  0  0  0  0  0  0  0  0  0  0  0
   -1.1702    0.5013   -0.3192 N   0  0  0  0  0  0  0  0  0  0  0  0
   -2.1597   -0.2181   -0.7515 C   0  0  0  0  0  0  0  0  0  0  0  0
   -3.5322    0.0620   -0.2464 C   0  0  0  0  0  0  0  0  0  0  0  0
   -4.6593   -0.0408   -1.0716 C   0  0  0  0  0  0  0  0  0  0  0  0
   -5.9285    0.2360   -0.5573 C   0  0  0  0  0  0  0  0  0  0  0  0
   -6.0753    0.6214    0.7752 C   0  0  0  0  0  0  0  0  0  0  0  0
   -4.9547    0.7388    1.5964 C   0  0  0  0  0  0  0  0  0  0  0  0
   -3.6846    0.4647    1.0867 C   0  0  0  0  0  0  0  0  0  0  0  0
   -2.0132   -1.3355   -1.7111 C   0  0  0  0  0  0  0  0  0  0  0  0
   -0.7865   -1.5776   -2.1754 C   0  0  0  0  0  0  0  0  0  0  0  0
    0.3640   -0.7670   -1.7316 C   0  0  0  0  0  0  0  0  0  0  0  0
    1.4778   -0.9960   -2.1981 O   0  0  0  0  0  0  0  0  0  0  0  0
    3.4310    0.3078    0.8012 C   0  0  0  0  0  0  0  0  0  0  0  0
    4.0942    0.3715    2.0338 C   0  0  0  0  0  0  0  0  0  0  0  0
    5.4878    0.4323    2.0788 C   0  0  0  0  0  0  0  0  0  0  0  0
    6.2234    0.4178    0.8947 C   0  0  0  0  0  0  0  0  0  0  0  0
    5.5683    0.3330   -0.3339 C   0  0  0  0  0  0  0  0  0  0  0  0
    4.1733    0.2734   -0.3838 C   0  0  0  0  0  0  0  0  0  0  0  0
    1.8289    1.3126   -1.1040 H   0  0  0  0  0  0  0  0  0  0  0  0
    0.7864    1.9317    0.1796 H   0  0  0  0  0  0  0  0  0  0  0  0
   -4.5680   -0.3091   -2.1200 H   0  0  0  0  0  0  0  0  0  0  0  0
   -6.8037    0.1599   -1.1980 H   0  0  0  0  0  0  0  0  0  0  0  0
   -7.0638    0.8384    1.1729 H   0  0  0  0  0  0  0  0  0  0  0  0
   -5.0673    1.0461    2.6331 H   0  0  0  0  0  0  0  0  0  0  0  0
   -2.8146    0.5598    1.7342 H   0  0  0  0  0  0  0  0  0  0  0  0
   -2.8606   -1.9428   -1.9950 H   0  0  0  0  0  0  0  0  0  0  0  0
   -0.5744   -2.3780   -2.8716 H   0  0  0  0  0  0  0  0  0  0  0  0
    3.5255    0.3725    2.9618 H   0  0  0  0  0  0  0  0  0  0  0  0
    5.9981    0.4836    3.0373 H   0  0  0  0  0  0  0  0  0  0  0  0
    7.3094    0.4587    0.9295 H   0  0  0  0  0  0  0  0  0  0  0  0
    6.1452    0.2992   -1.2553 H   0  0  0  0  0  0  0  0  0  0  0  0
    3.6925    0.1660   -1.3528 H   0  0  0  0  0  0  0  0  0  0  0  0
  1  2  2  0
  2  3  1  0
  3  4  1  0
  4  5  1  0
  5  6  2  0
  6  7  1  0
  7  8  2  0
  8  9  1  0
  9 10  2  0
 10 11  1  0
 11 12  2  0
  6 13  1  0
 13 14  2  0
 14 15  1  0
 15 16  2  0
  2 17  1  0
 17 18  2  0
 18 19  1  0
 19 20  2  0
 20 21  1  0
 21 22  2  0
 15  4  1  0
 22 17  1  0
 12  7  1  0
  3 23  1  0
  3 24  1  0
  8 25  1  0
  9 26  1  0
 10 27  1  0
 11 28  1  0
 12 29  1  0
 13 30  1  0
 14 31  1  0
 18 32  1  0
 19 33  1  0
 20 34  1  0
 21 35  1  0
 22 36  1  0
M  END
$$$$
