
     RDKit          3D

 30 31  0  0  0  0  0  0  0  0999 V2000
   -0.3469    1.0400    1.3097 C   0  0  0  0  0  0  0  0  0  0  0  0
   -0.5528    0.2367    0.0804 N   0  0  0  0  0  0  0  0  0  0  0  0
   -1.9383    0.0980   -0.2931 C   0  0  0  0  0  0  0  0  0  0  0  0
   -2.8135   -0.7558    0.3844 C   0  0  0  0  0  0  0  0  0  0  0  0
   -4.1633   -0.7954    0.0296 C   0  0  0  0  0  0  0  0  0  0  0  0
   -4.6436    0.0315   -0.9857 C   0  0  0  0  0  0  0  0  0  0  0  0
   -3.7773    0.9038   -1.6438 C   0  0  0  0  0  0  0  0  0  0  0  0
   -2.4276    0.9440   -1.2906 C   0  0  0  0  0  0  0  0  0  0  0  0
    0.3418   -1.2274    0.0112 S   0  0  0  0  0  6  0  0  0  0  0  0
    0.0889   -1.8912   -1.2506 O   0  0  0  0  0  0  0  0  0  0  0  0
    0.1720   -1.9209    1.2734 O   0  0  0  0  0  0  0  0  0  0  0  0
    2.0193   -0.6336   -0.0611 C   0  0  0  0  0  0  0  0  0  0  0  0
    2.4414    0.0567   -1.2023 C   0  0  0  0  0  0  0  0  0  0  0  0
    3.7540    0.5260   -1.2758 C   0  0  0  0  0  0  0  0  0  0  0  0
    4.6321    0.2966   -0.2140 C   0  0  0  0  0  0  0  0  0  0  0  0
    6.5866    0.9970   -0.3248 I   0  0  0  0  0  0  0  0  0  0  0  0
    4.2110   -0.4021    0.9204 C   0  0  0  0  0  0  0  0  0  0  0  0
    2.8988   -0.8737    0.9986 C   0  0  0  0  0  0  0  0  0  0  0  0
   -0.6911    0.5048    2.2000 H   0  0  0  0  0  0  0  0  0  0  0  0
   -0.8998    1.9834    1.2395 H   0  0  0  0  0  0  0  0  0  0  0  0
    0.7072    1.3033    1.4292 H   0  0  0  0  0  0  0  0  0  0  0  0
   -2.4593   -1.3972    1.1869 H   0  0  0  0  0  0  0  0  0  0  0  0
   -4.8398   -1.4713    0.5466 H   0  0  0  0  0  0  0  0  0  0  0  0
   -5.6945   -0.0029   -1.2626 H   0  0  0  0  0  0  0  0  0  0  0  0
   -4.1522    1.5517   -2.4317 H   0  0  0  0  0  0  0  0  0  0  0  0
   -1.7569    1.6279   -1.8028 H   0  0  0  0  0  0  0  0  0  0  0  0
    1.7558    0.2244   -2.0306 H   0  0  0  0  0  0  0  0  0  0  0  0
    4.0782    1.0615   -2.1649 H   0  0  0  0  0  0  0  0  0  0  0  0
    4.8934   -0.5906    1.7460 H   0  0  0  0  0  0  0  0  0  0  0  0
    2.5763   -1.4252    1.8791 H   0  0  0  0  0  0  0  0  0  0  0  0
  1  2  1  0
  2  3  1  0
  3  4  2  0
  4  5  1  0
  5  6  2  0
  6  7  1  0
  7  8  2  0
  2  9  1  0
  9 10  2  0
  9 11  2  0
  9 12  1  0
 12 13  2  0
 13 14  1  0
 14 15  2  0
 15 16  1  0
 15 17  1  0
 17 18  2  0
  8  3  1  0
 18 12  1  0
  1 19  1  0
  1 20  1  0
  1 21  1  0
  4 22  1  0
  5 23  1  0
  6 24  1  0
  7 25  1  0
  8 26  1  0
 13 27  1  0
 14 28  1  0
 17 29  1  0
 18 30  1  0
M  END
$$$$
