
     RDKit          3D

 47 48  0  0  0  0  0  0  0  0999 V2000
   -4.2817    1.5140   -1.0342 C   0  0  0  0  0  0  0  0  0  0  0  0
   -3.9036    0.1201   -1.5412 C   0  0  0  0  0  0  0  0  0  0  0  0
   -4.7365   -0.9985   -0.8977 C   0  0  0  0  0  0  0  0  0  0  0  0
   -4.2406   -1.4558    0.4820 C   0  0  0  0  0  0  0  0  0  0  0  0
   -4.7237   -0.5536    1.6201 C   0  0  0  0  0  0  0  0  0  0  0  0
   -2.7123   -1.6182    0.4935 C   0  0  0  0  0  0  0  0  0  0  0  0
   -2.0162   -0.4110    0.0105 N   0  0  0  0  0  0  0  0  0  0  0  0
   -0.5601   -0.5752    0.1648 C   0  0  0  0  0  0  0  0  0  0  0  0
    0.2021    0.7499    0.0368 C   0  0  0  0  0  0  0  0  0  0  0  0
    1.6913    0.5447    0.3092 C   0  0  0  0  0  0  0  0  0  0  0  0
    2.3852    1.8260    0.1778 N   0  0  0  0  0  0  0  0  0  0  0  0
    3.8904    2.0374    0.8875 S   0  0  0  0  0  6  0  0  0  0  0  0
    3.7762    1.7136    2.2919 O   0  0  0  0  0  0  0  0  0  0  0  0
    4.3812    3.3199    0.4343 O   0  0  0  0  0  0  0  0  0  0  0  0
    4.8644    0.7760    0.1029 C   0  0  0  0  0  0  0  0  0  0  0  0
    5.3732    1.0036   -1.1796 C   0  0  0  0  0  0  0  0  0  0  0  0
    6.1454    0.0187   -1.7951 C   0  0  0  0  0  0  0  0  0  0  0  0
    6.4122   -1.1784   -1.1278 C   0  0  0  0  0  0  0  0  0  0  0  0
    5.9145   -1.3940    0.1588 C   0  0  0  0  0  0  0  0  0  0  0  0
    5.1417   -0.4143    0.7818 C   0  0  0  0  0  0  0  0  0  0  0  0
   -2.3972   -0.1512   -1.3890 C   0  0  0  0  0  0  0  0  0  0  0  0
   -3.8280    2.2805   -1.6728 H   0  0  0  0  0  0  0  0  0  0  0  0
   -5.3661    1.6618   -1.0637 H   0  0  0  0  0  0  0  0  0  0  0  0
   -3.9349    1.7039   -0.0168 H   0  0  0  0  0  0  0  0  0  0  0  0
   -4.1352    0.1144   -2.6152 H   0  0  0  0  0  0  0  0  0  0  0  0
   -4.6811   -1.8691   -1.5666 H   0  0  0  0  0  0  0  0  0  0  0  0
   -5.7968   -0.7215   -0.8585 H   0  0  0  0  0  0  0  0  0  0  0  0
   -4.6815   -2.4444    0.6701 H   0  0  0  0  0  0  0  0  0  0  0  0
   -5.8012   -0.3732    1.5476 H   0  0  0  0  0  0  0  0  0  0  0  0
   -4.5356   -1.0360    2.5860 H   0  0  0  0  0  0  0  0  0  0  0  0
   -4.2131    0.4108    1.6429 H   0  0  0  0  0  0  0  0  0  0  0  0
   -2.3989   -1.8463    1.5204 H   0  0  0  0  0  0  0  0  0  0  0  0
   -2.4351   -2.4865   -0.1200 H   0  0  0  0  0  0  0  0  0  0  0  0
   -0.3497   -0.9707    1.1673 H   0  0  0  0  0  0  0  0  0  0  0  0
   -0.1714   -1.3101   -0.5521 H   0  0  0  0  0  0  0  0  0  0  0  0
    0.0812    1.1763   -0.9653 H   0  0  0  0  0  0  0  0  0  0  0  0
   -0.2038    1.4834    0.7453 H   0  0  0  0  0  0  0  0  0  0  0  0
    2.1023   -0.1629   -0.4186 H   0  0  0  0  0  0  0  0  0  0  0  0
    1.8305    0.1352    1.3150 H   0  0  0  0  0  0  0  0  0  0  0  0
    2.2397    2.3884   -0.6585 H   0  0  0  0  0  0  0  0  0  0  0  0
    5.1801    1.9411   -1.6960 H   0  0  0  0  0  0  0  0  0  0  0  0
    6.5481    0.1861   -2.7913 H   0  0  0  0  0  0  0  0  0  0  0  0
    7.0200   -1.9421   -1.6080 H   0  0  0  0  0  0  0  0  0  0  0  0
    6.1373   -2.3230    0.6785 H   0  0  0  0  0  0  0  0  0  0  0  0
    4.7665   -0.5822    1.7891 H   0  0  0  0  0  0  0  0  0  0  0  0
   -2.1193   -1.0052   -2.0218 H   0  0  0  0  0  0  0  0  0  0  0  0
   -1.8598    0.7174   -1.7842 H   0  0  0  0  0  0  0  0  0  0  0  0
  1  2  1  0
  2  3  1  0
  3  4  1  0
  4  5  1  0
  4  6  1  0
  6  7  1  0
  7  8  1  0
  8  9  1  0
  9 10  1  0
 10 11  1  0
 11 12  1  0
 12 13  2  0
 12 14  2  0
 12 15  1  0
 15 16  2  0
 16 17  1  0
 17 18  2  0
 18 19  1  0
 19 20  2  0
  7 21  1  0
 21  2  1  0
 20 15  1  0
  1 22  1  0
  1 23  1  0
  1 24  1  0
  2 25  1  0
  3 26  1  0
  3 27  1  0
  4 28  1  0
  5 29  1  0
  5 30  1  0
  5 31  1  0
  6 32  1  0
  6 33  1  0
  8 34  1  0
  8 35  1  0
  9 36  1  0
  9 37  1  0
 10 38  1  0
 10 39  1  0
 11 40  1  0
 16 41  1  0
 17 42  1  0
 18 43  1  0
 19 44  1  0
 20 45  1  0
 21 46  1  0
 21 47  1  0
M  END
$$$$
