
     RDKit          3D

 51 54  0  0  0  0  0  0  0  0999 V2000
   -2.1148    4.0366   -0.7262 C   0  0  0  0  0  0  0  0  0  0  0  0
   -1.6387    2.6115   -0.5905 C   0  0  0  0  0  0  0  0  0  0  0  0
   -0.1664    2.3848   -0.5992 C   0  0  0  0  0  0  0  0  0  0  0  0
    0.2844    1.1168   -0.5020 C   0  0  0  0  0  0  0  0  0  0  0  0
    1.6687    0.8089   -0.5137 N   0  0  0  0  0  0  0  0  0  0  0  0
    2.7151    1.7874   -0.1410 C   0  0  0  0  0  0  0  0  0  0  0  0
    3.9429    1.0868    0.4829 C   0  0  0  0  0  0  0  0  0  0  0  0
    4.6221    0.1424   -0.4314 N   0  0  0  0  0  0  0  0  0  0  0  0
    5.3927   -0.8820    0.2973 C   0  0  0  0  0  0  0  0  0  0  0  0
    6.5063   -0.3237    1.2050 C   0  0  0  0  0  0  0  0  0  0  0  0
    5.9996    0.1851    2.4372 O   0  0  0  0  0  0  0  0  0  0  0  0
    3.6512   -0.4694   -1.3662 C   0  0  0  0  0  0  0  0  0  0  0  0
    2.1897   -0.5342   -0.8642 C   0  0  0  0  0  0  0  0  0  0  0  0
   -0.7058    0.0848   -0.3829 N   0  0  0  0  0  0  0  0  0  0  0  0
   -0.5171   -1.2631   -0.2369 N   0  0  0  0  0  0  0  0  0  0  0  0
   -1.7413   -1.7886   -0.1598 C   0  0  0  0  0  0  0  0  0  0  0  0
   -1.8963   -3.2595   -0.0269 C   0  0  0  0  0  0  0  0  0  0  0  0
   -2.7538   -0.8029   -0.2296 C   0  0  0  0  0  0  0  0  0  0  0  0
   -4.2002   -0.9310   -0.1603 C   0  0  0  0  0  0  0  0  0  0  0  0
   -4.7944   -1.6785    0.8648 C   0  0  0  0  0  0  0  0  0  0  0  0
   -6.1830   -1.8213    0.9247 C   0  0  0  0  0  0  0  0  0  0  0  0
   -6.9889   -1.2182   -0.0394 C   0  0  0  0  0  0  0  0  0  0  0  0
   -6.4085   -0.4687   -1.0609 C   0  0  0  0  0  0  0  0  0  0  0  0
   -5.0203   -0.3257   -1.1214 C   0  0  0  0  0  0  0  0  0  0  0  0
   -2.0783    0.3951   -0.3810 C   0  0  0  0  0  0  0  0  0  0  0  0
   -2.5366    1.6795   -0.4982 N   0  0  0  0  0  0  0  0  0  0  0  0
   -2.9461    4.2138   -0.0370 H   0  0  0  0  0  0  0  0  0  0  0  0
   -2.4600    4.2008   -1.7515 H   0  0  0  0  0  0  0  0  0  0  0  0
   -1.3157    4.7473   -0.4988 H   0  0  0  0  0  0  0  0  0  0  0  0
    0.4818    3.2408   -0.7119 H   0  0  0  0  0  0  0  0  0  0  0  0
    3.0111    2.3589   -1.0286 H   0  0  0  0  0  0  0  0  0  0  0  0
    2.3265    2.4967    0.5990 H   0  0  0  0  0  0  0  0  0  0  0  0
    3.5956    0.5647    1.3847 H   0  0  0  0  0  0  0  0  0  0  0  0
    4.6590    1.8550    0.7951 H   0  0  0  0  0  0  0  0  0  0  0  0
    5.8867   -1.5213   -0.4455 H   0  0  0  0  0  0  0  0  0  0  0  0
    4.7181   -1.5161    0.8868 H   0  0  0  0  0  0  0  0  0  0  0  0
    7.0648    0.4724    0.7026 H   0  0  0  0  0  0  0  0  0  0  0  0
    7.2147   -1.1222    1.4492 H   0  0  0  0  0  0  0  0  0  0  0  0
    5.4808   -0.5238    2.8535 H   0  0  0  0  0  0  0  0  0  0  0  0
    3.6670    0.1391   -2.2804 H   0  0  0  0  0  0  0  0  0  0  0  0
    3.9742   -1.4706   -1.6781 H   0  0  0  0  0  0  0  0  0  0  0  0
    2.1342   -1.1904    0.0121 H   0  0  0  0  0  0  0  0  0  0  0  0
    1.5924   -0.9694   -1.6735 H   0  0  0  0  0  0  0  0  0  0  0  0
   -2.7321   -3.6211   -0.6339 H   0  0  0  0  0  0  0  0  0  0  0  0
   -2.0814   -3.5298    1.0173 H   0  0  0  0  0  0  0  0  0  0  0  0
   -0.9949   -3.7866   -0.3582 H   0  0  0  0  0  0  0  0  0  0  0  0
   -4.1844   -2.1416    1.6363 H   0  0  0  0  0  0  0  0  0  0  0  0
   -6.6350   -2.3982    1.7269 H   0  0  0  0  0  0  0  0  0  0  0  0
   -8.0693   -1.3257    0.0091 H   0  0  0  0  0  0  0  0  0  0  0  0
   -7.0342    0.0087   -1.8102 H   0  0  0  0  0  0  0  0  0  0  0  0
   -4.5819    0.2656   -1.9223 H   0  0  0  0  0  0  0  0  0  0  0  0
  1  2  1  0
  2  3  1  0
  3  4  2  0
  4  5  1  0
  5  6  1  0
  6  7  1  0
  7  8  1  0
  8  9  1  0
  9 10  1  0
 10 11  1  0
  8 12  1  0
 12 13  1  0
  4 14  1  0
 14 15  1  0
 15 16  2  0
 16 17  1  0
 16 18  1  0
 18 19  1  0
 19 20  2  0
 20 21  1  0
 21 22  2  0
 22 23  1  0
 23 24  2  0
 18 25  2  0
 25 26  1  0
 26  2  2  0
 13  5  1  0
 25 14  1  0
 24 19  1  0
  1 27  1  0
  1 28  1  0
  1 29  1  0
  3 30  1  0
  6 31  1  0
  6 32  1  0
  7 33  1  0
  7 34  1  0
  9 35  1  0
  9 36  1  0
 10 37  1  0
 10 38  1  0
 11 39  1  0
 12 40  1  0
 12 41  1  0
 13 42  1  0
 13 43  1  0
 17 44  1  0
 17 45  1  0
 17 46  1  0
 20 47  1  0
 21 48  1  0
 22 49  1  0
 23 50  1  0
 24 51  1  0
M  END
$$$$
