
     RDKit          3D

 52 55  0  0  0  0  0  0  0  0999 V2000
   -3.5082    5.0323   -2.0044 C   0  0  0  0  0  0  0  0  0  0  0  0
   -3.7523    3.9291   -2.8675 O   0  0  0  0  0  0  0  0  0  0  0  0
   -3.3707    2.6965   -2.4167 C   0  0  0  0  0  0  0  0  0  0  0  0
   -2.7632    2.4197   -1.1946 C   0  0  0  0  0  0  0  0  0  0  0  0
   -2.4248    1.1012   -0.8588 C   0  0  0  0  0  0  0  0  0  0  0  0
   -2.6645    0.0400   -1.7395 C   0  0  0  0  0  0  0  0  0  0  0  0
   -2.4020   -1.3058   -1.4019 N   0  0  0  0  0  0  0  0  0  0  0  0
   -1.3919   -1.8135   -0.5390 C   0  0  0  0  0  0  0  0  0  0  0  0
   -0.3745   -1.0125   -0.1755 N   0  0  0  0  0  0  0  0  0  0  0  0
    0.5942   -1.5048    0.6025 C   0  0  0  0  0  0  0  0  0  0  0  0
    1.6244   -0.6653    0.9801 N   0  0  0  0  0  0  0  0  0  0  0  0
    2.7414   -1.2448    1.7261 C   0  0  0  0  0  0  0  0  0  0  0  0
    3.6261   -0.1253    2.2988 C   0  0  0  0  0  0  0  0  0  0  0  0
    4.1499    0.7768    1.2343 N   0  0  0  0  0  0  0  0  0  0  0  0
    4.8722    2.2151    1.7211 S   0  0  0  0  0  6  0  0  0  0  0  0
    3.4726    3.2413    2.1291 C   0  0  0  0  0  0  0  0  0  0  0  0
    5.6024    1.9520    2.9425 O   0  0  0  0  0  0  0  0  0  0  0  0
    5.5230    2.7988    0.5683 O   0  0  0  0  0  0  0  0  0  0  0  0
    3.3999    0.7499   -0.0521 C   0  0  0  0  0  0  0  0  0  0  0  0
    1.8912    0.5055    0.1392 C   0  0  0  0  0  0  0  0  0  0  0  0
    0.5925   -2.7670    1.0463 N   0  0  0  0  0  0  0  0  0  0  0  0
   -0.4202   -3.5672    0.7026 C   0  0  0  0  0  0  0  0  0  0  0  0
   -0.4230   -4.8768    1.1692 C   0  0  0  0  0  0  0  0  0  0  0  0
   -1.4521   -5.7711    0.8622 C   0  0  0  0  0  0  0  0  0  0  0  0
   -2.5131   -5.3531    0.0721 C   0  0  0  0  0  0  0  0  0  0  0  0
   -2.5305   -4.0466   -0.4095 C   0  0  0  0  0  0  0  0  0  0  0  0
   -1.4771   -3.1444   -0.1046 C   0  0  0  0  0  0  0  0  0  0  0  0
   -3.3075    0.3286   -2.9501 C   0  0  0  0  0  0  0  0  0  0  0  0
   -3.6440    1.6434   -3.2895 C   0  0  0  0  0  0  0  0  0  0  0  0
   -4.0655    4.9309   -1.0674 H   0  0  0  0  0  0  0  0  0  0  0  0
   -2.4372    5.1571   -1.8161 H   0  0  0  0  0  0  0  0  0  0  0  0
   -3.8654    5.9360   -2.5077 H   0  0  0  0  0  0  0  0  0  0  0  0
   -2.5464    3.1985   -0.4711 H   0  0  0  0  0  0  0  0  0  0  0  0
   -1.9781    0.9137    0.1144 H   0  0  0  0  0  0  0  0  0  0  0  0
   -2.4795   -1.9165   -2.2082 H   0  0  0  0  0  0  0  0  0  0  0  0
    2.3820   -1.8489    2.5682 H   0  0  0  0  0  0  0  0  0  0  0  0
    3.3358   -1.8938    1.0703 H   0  0  0  0  0  0  0  0  0  0  0  0
    4.4731   -0.5754    2.8274 H   0  0  0  0  0  0  0  0  0  0  0  0
    3.0389    0.4568    3.0176 H   0  0  0  0  0  0  0  0  0  0  0  0
    3.8564    4.2109    2.4558 H   0  0  0  0  0  0  0  0  0  0  0  0
    2.8558    3.3751    1.2402 H   0  0  0  0  0  0  0  0  0  0  0  0
    2.9065    2.7808    2.9406 H   0  0  0  0  0  0  0  0  0  0  0  0
    3.5432    1.6778   -0.6149 H   0  0  0  0  0  0  0  0  0  0  0  0
    3.8304   -0.0526   -0.6644 H   0  0  0  0  0  0  0  0  0  0  0  0
    1.4506    0.4170   -0.8614 H   0  0  0  0  0  0  0  0  0  0  0  0
    1.4368    1.3798    0.6204 H   0  0  0  0  0  0  0  0  0  0  0  0
    0.4009   -5.2118    1.7963 H   0  0  0  0  0  0  0  0  0  0  0  0
   -1.4217   -6.7866    1.2485 H   0  0  0  0  0  0  0  0  0  0  0  0
   -3.3245   -6.0366   -0.1635 H   0  0  0  0  0  0  0  0  0  0  0  0
   -3.3776   -3.7238   -1.0097 H   0  0  0  0  0  0  0  0  0  0  0  0
   -3.5528   -0.4658   -3.6496 H   0  0  0  0  0  0  0  0  0  0  0  0
   -4.1314    1.8456   -4.2399 H   0  0  0  0  0  0  0  0  0  0  0  0
  1  2  1  0
  2  3  1  0
  3  4  2  0
  4  5  1  0
  5  6  2  0
  6  7  1  0
  7  8  1  0
  8  9  2  0
  9 10  1  0
 10 11  1  0
 11 12  1  0
 12 13  1  0
 13 14  1  0
 14 15  1  0
 15 16  1  0
 15 17  2  0
 15 18  2  0
 14 19  1  0
 19 20  1  0
 10 21  2  0
 21 22  1  0
 22 23  2  0
 23 24  1  0
 24 25  2  0
 25 26  1  0
 26 27  2  0
  6 28  1  0
 28 29  2  0
 29  3  1  0
 27  8  1  0
 20 11  1  0
 27 22  1  0
  1 30  1  0
  1 31  1  0
  1 32  1  0
  4 33  1  0
  5 34  1  0
  7 35  1  0
 12 36  1  0
 12 37  1  0
 13 38  1  0
 13 39  1  0
 16 40  1  0
 16 41  1  0
 16 42  1  0
 19 43  1  0
 19 44  1  0
 20 45  1  0
 20 46  1  0
 23 47  1  0
 24 48  1  0
 25 49  1  0
 26 50  1  0
 28 51  1  0
 29 52  1  0
M  END
$$$$
