
     RDKit          3D

 40 44  0  0  0  0  0  0  0  0999 V2000
   -0.2025   -3.3869   -0.1666 C   0  0  0  0  0  0  0  0  0  0  0  0
    0.5815   -2.1900    0.3620 C   0  0  0  0  0  0  0  0  0  0  0  0
   -0.1024   -0.8262    0.1252 C   0  0  0  0  0  0  0  0  0  0  0  0
   -0.3481   -0.6104   -1.2744 O   0  0  0  0  0  0  0  0  0  0  0  0
   -1.7038   -0.1804   -1.4564 C   0  0  0  0  0  0  0  0  0  0  0  0
   -1.8624    1.3322   -1.1496 C   0  0  0  0  0  0  0  0  0  0  0  0
   -2.7414    1.9397   -2.0920 O   0  0  0  0  0  0  0  0  0  0  0  0
   -2.5399    1.3080    0.2393 C   0  0  0  0  0  0  0  0  0  0  0  0
   -3.5565    0.1717    0.0561 C   0  0  0  0  0  0  0  0  0  0  0  0
   -2.4940   -0.8457   -0.3257 C   0  0  0  0  0  0  0  0  0  0  0  0
   -1.4695   -0.7677    0.8033 C   0  0  0  0  0  0  0  0  0  0  0  0
   -1.6128    0.6774    1.2948 C   0  0  0  0  0  0  0  0  0  0  0  0
   -0.2085    1.2123    1.3304 C   0  0  0  0  0  0  0  0  0  0  0  0
    0.0543    2.3037    1.8146 O   0  0  0  0  0  0  0  0  0  0  0  0
    0.6337    0.3134    0.6606 N   0  0  0  0  0  0  0  0  0  0  0  0
    1.9919    0.6186    0.3424 C   0  0  0  0  0  0  0  0  0  0  0  0
    2.6221    0.0891   -0.7938 C   0  0  0  0  0  0  0  0  0  0  0  0
    3.9563    0.3905   -1.0960 C   0  0  0  0  0  0  0  0  0  0  0  0
    4.6815    1.2318   -0.2610 C   0  0  0  0  0  0  0  0  0  0  0  0
    6.4810    1.6402   -0.6647 Br  0  0  0  0  0  0  0  0  0  0  0  0
    4.0824    1.7751    0.8684 C   0  0  0  0  0  0  0  0  0  0  0  0
    2.7476    1.4704    1.1631 C   0  0  0  0  0  0  0  0  0  0  0  0
   -1.1549   -3.5087    0.3569 H   0  0  0  0  0  0  0  0  0  0  0  0
   -0.4024   -3.2904   -1.2381 H   0  0  0  0  0  0  0  0  0  0  0  0
    0.3742   -4.3055   -0.0155 H   0  0  0  0  0  0  0  0  0  0  0  0
    1.5605   -2.2260   -0.1238 H   0  0  0  0  0  0  0  0  0  0  0  0
    0.7663   -2.3281    1.4348 H   0  0  0  0  0  0  0  0  0  0  0  0
   -2.0566   -0.4468   -2.4570 H   0  0  0  0  0  0  0  0  0  0  0  0
   -0.9123    1.8740   -1.1699 H   0  0  0  0  0  0  0  0  0  0  0  0
   -2.7497    2.8946   -1.9012 H   0  0  0  0  0  0  0  0  0  0  0  0
   -2.9854    2.2605    0.5348 H   0  0  0  0  0  0  0  0  0  0  0  0
   -4.0833   -0.0857    0.9809 H   0  0  0  0  0  0  0  0  0  0  0  0
   -4.2836    0.3550   -0.7408 H   0  0  0  0  0  0  0  0  0  0  0  0
   -2.8366   -1.8569   -0.5516 H   0  0  0  0  0  0  0  0  0  0  0  0
   -1.6276   -1.4751    1.6230 H   0  0  0  0  0  0  0  0  0  0  0  0
   -2.0543    0.7049    2.2971 H   0  0  0  0  0  0  0  0  0  0  0  0
    2.0842   -0.5382   -1.4990 H   0  0  0  0  0  0  0  0  0  0  0  0
    4.4088   -0.0298   -1.9903 H   0  0  0  0  0  0  0  0  0  0  0  0
    4.6364    2.4354    1.5305 H   0  0  0  0  0  0  0  0  0  0  0  0
    2.3257    1.9001    2.0683 H   0  0  0  0  0  0  0  0  0  0  0  0
  1  2  1  0
  2  3  1  0
  3  4  1  0
  4  5  1  0
  5  6  1  0
  6  7  1  0
  6  8  1  0
  8  9  1  0
  9 10  1  0
 10 11  1  0
 11 12  1  0
 12 13  1  0
 13 14  2  0
 13 15  1  0
 15 16  1  0
 16 17  2  0
 17 18  1  0
 18 19  2  0
 19 20  1  0
 19 21  1  0
 21 22  2  0
 11  3  1  0
 22 16  1  0
 15  3  1  0
 10  5  1  0
 12  8  1  0
  1 23  1  0
  1 24  1  0
  1 25  1  0
  2 26  1  0
  2 27  1  0
  5 28  1  0
  6 29  1  0
  7 30  1  0
  8 31  1  0
  9 32  1  0
  9 33  1  0
 10 34  1  0
 11 35  1  0
 12 36  1  0
 17 37  1  0
 18 38  1  0
 21 39  1  0
 22 40  1  0
M  END
$$$$
