
     RDKit          3D

 45 47  0  0  0  0  0  0  0  0999 V2000
   -6.7128   -0.6471    0.9385 C   0  0  0  0  0  0  0  0  0  0  0  0
   -5.2095   -0.4448    0.9054 C   0  0  0  0  0  0  0  0  0  0  0  0
   -4.6839   -1.1243   -0.2441 O   0  0  0  0  0  0  0  0  0  0  0  0
   -3.8707   -0.3057   -0.9853 C   0  0  0  0  0  0  0  0  0  0  0  0
   -4.4184    0.7062   -1.7736 C   0  0  0  0  0  0  0  0  0  0  0  0
   -3.5775    1.5072   -2.5474 C   0  0  0  0  0  0  0  0  0  0  0  0
   -2.1985    1.2850   -2.5439 C   0  0  0  0  0  0  0  0  0  0  0  0
   -1.6538    0.2557   -1.7724 C   0  0  0  0  0  0  0  0  0  0  0  0
   -2.4922   -0.5503   -1.0043 C   0  0  0  0  0  0  0  0  0  0  0  0
   -1.9450   -1.5779   -0.1744 N   0  0  0  0  0  0  0  0  0  0  0  0
   -1.3552   -1.1005    1.3405 S   0  0  0  0  0  6  0  0  0  0  0  0
   -2.0613    0.0771    1.7978 O   0  0  0  0  0  0  0  0  0  0  0  0
   -1.3065   -2.3006    2.1504 O   0  0  0  0  0  0  0  0  0  0  0  0
    0.3234   -0.6568    0.9738 C   0  0  0  0  0  0  0  0  0  0  0  0
    1.2614   -1.6584    0.7327 C   0  0  0  0  0  0  0  0  0  0  0  0
    2.5893   -1.3105    0.4570 C   0  0  0  0  0  0  0  0  0  0  0  0
    3.0038    0.0332    0.4233 C   0  0  0  0  0  0  0  0  0  0  0  0
    4.3573    0.3660    0.1369 N   0  0  0  0  0  0  0  0  0  0  0  0
    5.3582   -0.6309   -0.1686 C   0  0  0  0  0  0  0  0  0  0  0  0
    6.5098    0.1594   -0.7525 C   0  0  0  0  0  0  0  0  0  0  0  0
    6.4227    1.4880   -0.0305 C   0  0  0  0  0  0  0  0  0  0  0  0
    4.9428    1.6398    0.2335 C   0  0  0  0  0  0  0  0  0  0  0  0
    4.4311    2.7108    0.5213 O   0  0  0  0  0  0  0  0  0  0  0  0
    2.0384    1.0177    0.6821 C   0  0  0  0  0  0  0  0  0  0  0  0
    0.7079    0.6816    0.9624 C   0  0  0  0  0  0  0  0  0  0  0  0
   -7.1501   -0.1771    1.8239 H   0  0  0  0  0  0  0  0  0  0  0  0
   -7.1792   -0.2189    0.0452 H   0  0  0  0  0  0  0  0  0  0  0  0
   -6.9589   -1.7141    0.9469 H   0  0  0  0  0  0  0  0  0  0  0  0
   -4.7607   -0.9020    1.7939 H   0  0  0  0  0  0  0  0  0  0  0  0
   -4.9745    0.6272    0.9247 H   0  0  0  0  0  0  0  0  0  0  0  0
   -5.4915    0.8709   -1.7885 H   0  0  0  0  0  0  0  0  0  0  0  0
   -3.9974    2.3032   -3.1579 H   0  0  0  0  0  0  0  0  0  0  0  0
   -1.5467    1.9112   -3.1488 H   0  0  0  0  0  0  0  0  0  0  0  0
   -0.5821    0.0821   -1.7936 H   0  0  0  0  0  0  0  0  0  0  0  0
   -2.5718   -2.3752   -0.0438 H   0  0  0  0  0  0  0  0  0  0  0  0
    0.9711   -2.7065    0.7610 H   0  0  0  0  0  0  0  0  0  0  0  0
    3.2874   -2.1246    0.2862 H   0  0  0  0  0  0  0  0  0  0  0  0
    5.6506   -1.1318    0.7611 H   0  0  0  0  0  0  0  0  0  0  0  0
    4.9952   -1.3632   -0.8961 H   0  0  0  0  0  0  0  0  0  0  0  0
    7.4758   -0.3368   -0.6243 H   0  0  0  0  0  0  0  0  0  0  0  0
    6.3490    0.3142   -1.8269 H   0  0  0  0  0  0  0  0  0  0  0  0
    6.7966    2.3083   -0.6481 H   0  0  0  0  0  0  0  0  0  0  0  0
    6.9518    1.4649    0.9274 H   0  0  0  0  0  0  0  0  0  0  0  0
    2.2862    2.0752    0.6710 H   0  0  0  0  0  0  0  0  0  0  0  0
   -0.0118    1.4726    1.1635 H   0  0  0  0  0  0  0  0  0  0  0  0
  1  2  1  0
  2  3  1  0
  3  4  1  0
  4  5  2  0
  5  6  1  0
  6  7  2  0
  7  8  1  0
  8  9  2  0
  9 10  1  0
 10 11  1  0
 11 12  2  0
 11 13  2  0
 11 14  1  0
 14 15  2  0
 15 16  1  0
 16 17  2  0
 17 18  1  0
 18 19  1  0
 19 20  1  0
 20 21  1  0
 21 22  1  0
 22 23  2  0
 17 24  1  0
 24 25  2  0
  9  4  1  0
 25 14  1  0
 22 18  1  0
  1 26  1  0
  1 27  1  0
  1 28  1  0
  2 29  1  0
  2 30  1  0
  5 31  1  0
  6 32  1  0
  7 33  1  0
  8 34  1  0
 10 35  1  0
 15 36  1  0
 16 37  1  0
 19 38  1  0
 19 39  1  0
 20 40  1  0
 20 41  1  0
 21 42  1  0
 21 43  1  0
 24 44  1  0
 25 45  1  0
M  END
$$$$
