
     RDKit          3D

 48 50  0  0  0  0  0  0  0  0999 V2000
    6.3175   -1.2974    1.8421 C   0  0  0  0  0  0  0  0  0  0  0  0
    6.4434   -0.9692    0.3620 C   0  0  0  0  0  0  0  0  0  0  0  0
    6.0508    0.4709    0.0150 C   0  0  0  0  0  0  0  0  0  0  0  0
    4.5898    0.8240    0.2963 C   0  0  0  0  0  0  0  0  0  0  0  0
    3.5969    0.1121   -0.6139 C   0  0  0  0  0  0  0  0  0  0  0  0
    3.9478   -0.4853   -1.6244 O   0  0  0  0  0  0  0  0  0  0  0  0
    2.2967    0.2732   -0.1633 N   0  0  0  0  0  0  0  0  0  0  0  0
    1.1156   -0.2557   -0.7264 C   0  0  0  0  0  0  0  0  0  0  0  0
    1.0876   -1.0735   -1.8487 C   0  0  0  0  0  0  0  0  0  0  0  0
   -0.1297   -1.5530   -2.3300 C   0  0  0  0  0  0  0  0  0  0  0  0
   -1.3381   -1.2360   -1.6869 C   0  0  0  0  0  0  0  0  0  0  0  0
   -1.3361   -0.4054   -0.5482 C   0  0  0  0  0  0  0  0  0  0  0  0
   -0.0951    0.0761   -0.0955 C   0  0  0  0  0  0  0  0  0  0  0  0
   -2.5803   -0.0418    0.0912 N   0  0  0  0  0  0  0  0  0  0  0  0
   -2.6279    0.6238    1.3306 C   0  0  0  0  0  0  0  0  0  0  0  0
   -1.7244    0.6780    2.1624 O   0  0  0  0  0  0  0  0  0  0  0  0
   -3.8695    1.3313    1.7021 C   0  0  0  0  0  0  0  0  0  0  0  0
   -4.4501    2.2937    0.8739 C   0  0  0  0  0  0  0  0  0  0  0  0
   -5.6066    2.9420    1.3005 C   0  0  0  0  0  0  0  0  0  0  0  0
   -6.1293    2.6091    2.5421 C   0  0  0  0  0  0  0  0  0  0  0  0
   -5.5769    1.6957    3.3718 N   0  0  0  0  0  0  0  0  0  0  0  0
   -4.4436    1.0887    2.9413 C   0  0  0  0  0  0  0  0  0  0  0  0
   -3.8199   -0.4429   -0.5922 C   0  0  0  0  0  0  0  0  0  0  0  0
   -3.7156   -1.8105   -1.2415 C   0  0  0  0  0  0  0  0  0  0  0  0
   -2.6096   -1.7843   -2.2756 C   0  0  0  0  0  0  0  0  0  0  0  0
    5.2730   -1.2916    2.1677 H   0  0  0  0  0  0  0  0  0  0  0  0
    6.8768   -0.5815    2.4531 H   0  0  0  0  0  0  0  0  0  0  0  0
    6.7187   -2.2970    2.0397 H   0  0  0  0  0  0  0  0  0  0  0  0
    5.8468   -1.6810   -0.2181 H   0  0  0  0  0  0  0  0  0  0  0  0
    7.4875   -1.1207    0.0617 H   0  0  0  0  0  0  0  0  0  0  0  0
    6.6903    1.1569    0.5841 H   0  0  0  0  0  0  0  0  0  0  0  0
    6.2729    0.6475   -1.0447 H   0  0  0  0  0  0  0  0  0  0  0  0
    4.3388    0.6223    1.3433 H   0  0  0  0  0  0  0  0  0  0  0  0
    4.4542    1.9011    0.1301 H   0  0  0  0  0  0  0  0  0  0  0  0
    2.1709    0.8263    0.6762 H   0  0  0  0  0  0  0  0  0  0  0  0
    1.9930   -1.3597   -2.3740 H   0  0  0  0  0  0  0  0  0  0  0  0
   -0.1278   -2.1886   -3.2141 H   0  0  0  0  0  0  0  0  0  0  0  0
   -0.0466    0.7476    0.7549 H   0  0  0  0  0  0  0  0  0  0  0  0
   -4.0014    2.5507   -0.0818 H   0  0  0  0  0  0  0  0  0  0  0  0
   -6.0841    3.6986    0.6870 H   0  0  0  0  0  0  0  0  0  0  0  0
   -7.0288    3.0895    2.9177 H   0  0  0  0  0  0  0  0  0  0  0  0
   -4.0067    0.3758    3.6363 H   0  0  0  0  0  0  0  0  0  0  0  0
   -4.0527    0.3265   -1.3382 H   0  0  0  0  0  0  0  0  0  0  0  0
   -4.6493   -0.4778    0.1214 H   0  0  0  0  0  0  0  0  0  0  0  0
   -3.5020   -2.5689   -0.4770 H   0  0  0  0  0  0  0  0  0  0  0  0
   -4.6657   -2.0813   -1.7150 H   0  0  0  0  0  0  0  0  0  0  0  0
   -2.9010   -1.1557   -3.1260 H   0  0  0  0  0  0  0  0  0  0  0  0
   -2.4500   -2.8027   -2.6497 H   0  0  0  0  0  0  0  0  0  0  0  0
  1  2  1  0
  2  3  1  0
  3  4  1  0
  4  5  1  0
  5  6  2  0
  5  7  1  0
  7  8  1  0
  8  9  2  0
  9 10  1  0
 10 11  2  0
 11 12  1  0
 12 13  2  0
 12 14  1  0
 14 15  1  0
 15 16  2  0
 15 17  1  0
 17 18  2  0
 18 19  1  0
 19 20  2  0
 20 21  1  0
 21 22  2  0
 14 23  1  0
 23 24  1  0
 24 25  1  0
 13  8  1  0
 22 17  1  0
 25 11  1  0
  1 26  1  0
  1 27  1  0
  1 28  1  0
  2 29  1  0
  2 30  1  0
  3 31  1  0
  3 32  1  0
  4 33  1  0
  4 34  1  0
  7 35  1  0
  9 36  1  0
 10 37  1  0
 13 38  1  0
 18 39  1  0
 19 40  1  0
 20 41  1  0
 22 42  1  0
 23 43  1  0
 23 44  1  0
 24 45  1  0
 24 46  1  0
 25 47  1  0
 25 48  1  0
M  END
$$$$
