
     RDKit          3D

 49 51  0  0  0  0  0  0  0  0999 V2000
   -5.2386   -1.1508   -2.0242 C   0  0  0  0  0  0  0  0  0  0  0  0
   -3.7363   -1.9129   -1.4427 S   0  0  0  0  0  6  0  0  0  0  0  0
   -2.7452   -1.7846   -2.4900 O   0  0  0  0  0  0  0  0  0  0  0  0
   -4.0818   -3.2022   -0.8855 O   0  0  0  0  0  0  0  0  0  0  0  0
   -3.2890   -0.8920   -0.1757 N   0  0  0  0  0  0  0  0  0  0  0  0
   -4.0647   -0.9401    1.0838 C   0  0  0  0  0  0  0  0  0  0  0  0
   -4.5425    0.4508    1.4743 C   0  0  0  0  0  0  0  0  0  0  0  0
   -3.3945    1.4490    1.6397 C   0  0  0  0  0  0  0  0  0  0  0  0
   -2.1797    1.1515    0.7364 C   0  0  0  0  0  0  0  0  0  0  0  0
   -1.0636    0.4123    1.4903 C   0  0  0  0  0  0  0  0  0  0  0  0
   -1.2773   -0.0701    2.6065 O   0  0  0  0  0  0  0  0  0  0  0  0
    0.1869    0.2990    0.9026 N   0  0  0  0  0  0  0  0  0  0  0  0
    1.1976   -0.5038    1.6019 C   0  0  0  0  0  0  0  0  0  0  0  0
    2.3636   -0.9498    0.7014 C   0  0  0  0  0  0  0  0  0  0  0  0
    2.9984    0.2003    0.0320 N   0  0  0  0  0  0  0  0  0  0  0  0
    4.3111    0.1477   -0.4123 C   0  0  0  0  0  0  0  0  0  0  0  0
    5.0416    1.3166   -0.6925 C   0  0  0  0  0  0  0  0  0  0  0  0
    6.3691    1.2789   -1.1380 C   0  0  0  0  0  0  0  0  0  0  0  0
    7.0070    0.0577   -1.3161 C   0  0  0  0  0  0  0  0  0  0  0  0
    6.3109   -1.1133   -1.0451 C   0  0  0  0  0  0  0  0  0  0  0  0
    7.0881   -2.6346   -1.2648 Cl  0  0  0  0  0  0  0  0  0  0  0  0
    4.9856   -1.0699   -0.5992 C   0  0  0  0  0  0  0  0  0  0  0  0
    2.1465    1.3684   -0.2446 C   0  0  0  0  0  0  0  0  0  0  0  0
    0.6537    0.9847   -0.3087 C   0  0  0  0  0  0  0  0  0  0  0  0
   -2.6235    0.3863   -0.5114 C   0  0  0  0  0  0  0  0  0  0  0  0
   -5.0198   -0.1391   -2.3687 H   0  0  0  0  0  0  0  0  0  0  0  0
   -5.6134   -1.7487   -2.8582 H   0  0  0  0  0  0  0  0  0  0  0  0
   -5.9753   -1.1427   -1.2196 H   0  0  0  0  0  0  0  0  0  0  0  0
   -4.9373   -1.5939    0.9833 H   0  0  0  0  0  0  0  0  0  0  0  0
   -3.4373   -1.3749    1.8686 H   0  0  0  0  0  0  0  0  0  0  0  0
   -5.1248    0.4042    2.4016 H   0  0  0  0  0  0  0  0  0  0  0  0
   -5.2253    0.8233    0.6993 H   0  0  0  0  0  0  0  0  0  0  0  0
   -3.7836    2.4464    1.3960 H   0  0  0  0  0  0  0  0  0  0  0  0
   -3.1024    1.5032    2.6949 H   0  0  0  0  0  0  0  0  0  0  0  0
   -1.7710    2.1262    0.4469 H   0  0  0  0  0  0  0  0  0  0  0  0
    1.5792    0.1175    2.4220 H   0  0  0  0  0  0  0  0  0  0  0  0
    0.7211   -1.3838    2.0489 H   0  0  0  0  0  0  0  0  0  0  0  0
    1.9953   -1.6481   -0.0600 H   0  0  0  0  0  0  0  0  0  0  0  0
    3.0839   -1.4802    1.3355 H   0  0  0  0  0  0  0  0  0  0  0  0
    4.5934    2.2953   -0.5423 H   0  0  0  0  0  0  0  0  0  0  0  0
    6.9004    2.2058   -1.3373 H   0  0  0  0  0  0  0  0  0  0  0  0
    8.0363    0.0251   -1.6608 H   0  0  0  0  0  0  0  0  0  0  0  0
    4.4776   -2.0131   -0.4216 H   0  0  0  0  0  0  0  0  0  0  0  0
    2.2996    2.1144    0.5446 H   0  0  0  0  0  0  0  0  0  0  0  0
    2.4072    1.8267   -1.2062 H   0  0  0  0  0  0  0  0  0  0  0  0
    0.4971    0.2900   -1.1423 H   0  0  0  0  0  0  0  0  0  0  0  0
    0.0595    1.8800   -0.5010 H   0  0  0  0  0  0  0  0  0  0  0  0
   -1.7665    0.1764   -1.1550 H   0  0  0  0  0  0  0  0  0  0  0  0
   -3.3175    1.0109   -1.0866 H   0  0  0  0  0  0  0  0  0  0  0  0
  1  2  1  0
  2  3  2  0
  2  4  2  0
  2  5  1  0
  5  6  1  0
  6  7  1  0
  7  8  1  0
  8  9  1  0
  9 10  1  0
 10 11  2  0
 10 12  1  0
 12 13  1  0
 13 14  1  0
 14 15  1  0
 15 16  1  0
 16 17  2  0
 17 18  1  0
 18 19  2  0
 19 20  1  0
 20 21  1  0
 20 22  2  0
 15 23  1  0
 23 24  1  0
  9 25  1  0
 25  5  1  0
 24 12  1  0
 22 16  1  0
  1 26  1  0
  1 27  1  0
  1 28  1  0
  6 29  1  0
  6 30  1  0
  7 31  1  0
  7 32  1  0
  8 33  1  0
  8 34  1  0
  9 35  1  0
 13 36  1  0
 13 37  1  0
 14 38  1  0
 14 39  1  0
 17 40  1  0
 18 41  1  0
 19 42  1  0
 22 43  1  0
 23 44  1  0
 23 45  1  0
 24 46  1  0
 24 47  1  0
 25 48  1  0
 25 49  1  0
M  END
$$$$
