
     RDKit          3D

 47 48  0  0  0  0  0  0  0  0999 V2000
    6.3507    0.8274    2.4212 C   0  0  0  0  0  0  0  0  0  0  0  0
    5.1519    0.0806    2.2650 O   0  0  0  0  0  0  0  0  0  0  0  0
    4.8333   -0.2080    0.9042 C   0  0  0  0  0  0  0  0  0  0  0  0
    4.2268    1.0004    0.1942 C   0  0  0  0  0  0  0  0  0  0  0  0
    3.7689    0.6690   -1.2238 C   0  0  0  0  0  0  0  0  0  0  0  0
    2.6307   -0.2274   -1.2491 N   0  0  0  0  0  0  0  0  0  0  0  0
    1.3409    0.2276   -1.0646 C   0  0  0  0  0  0  0  0  0  0  0  0
    1.0647    1.4131   -0.9151 O   0  0  0  0  0  0  0  0  0  0  0  0
    0.2958   -0.8792   -1.0583 C   0  0  0  0  0  0  0  0  0  0  0  0
    0.4621   -1.8026    0.1648 C   0  0  0  0  0  0  0  0  0  0  0  0
   -0.7124   -1.6940    1.1340 C   0  0  0  0  0  0  0  0  0  0  0  0
   -2.0513   -1.9518    0.4419 C   0  0  0  0  0  0  0  0  0  0  0  0
   -2.1027   -1.3375   -0.9059 N   0  0  0  0  0  0  0  0  0  0  0  0
   -3.6388   -1.1535   -1.6088 S   0  0  0  0  0  6  0  0  0  0  0  0
   -3.4602   -0.7287   -2.9813 O   0  0  0  0  0  0  0  0  0  0  0  0
   -4.4131   -2.3354   -1.2896 O   0  0  0  0  0  0  0  0  0  0  0  0
   -4.3427    0.2145   -0.7120 C   0  0  0  0  0  0  0  0  0  0  0  0
   -5.2018   -0.0275    0.3646 C   0  0  0  0  0  0  0  0  0  0  0  0
   -5.7690    1.0490    1.0467 C   0  0  0  0  0  0  0  0  0  0  0  0
   -5.4901    2.3563    0.6445 C   0  0  0  0  0  0  0  0  0  0  0  0
   -4.6518    2.5932   -0.4462 C   0  0  0  0  0  0  0  0  0  0  0  0
   -4.0819    1.5221   -1.1341 C   0  0  0  0  0  0  0  0  0  0  0  0
   -1.1071   -0.2670   -1.1377 C   0  0  0  0  0  0  0  0  0  0  0  0
    7.1936    0.3070    1.9564 H   0  0  0  0  0  0  0  0  0  0  0  0
    6.2457    1.8302    1.9991 H   0  0  0  0  0  0  0  0  0  0  0  0
    6.5532    0.9270    3.4912 H   0  0  0  0  0  0  0  0  0  0  0  0
    5.7201   -0.5800    0.3776 H   0  0  0  0  0  0  0  0  0  0  0  0
    4.1056   -1.0260    0.9274 H   0  0  0  0  0  0  0  0  0  0  0  0
    4.9701    1.8037    0.1411 H   0  0  0  0  0  0  0  0  0  0  0  0
    3.3959    1.3958    0.7912 H   0  0  0  0  0  0  0  0  0  0  0  0
    4.5747    0.1938   -1.7929 H   0  0  0  0  0  0  0  0  0  0  0  0
    3.4920    1.5939   -1.7421 H   0  0  0  0  0  0  0  0  0  0  0  0
    2.7945   -1.2212   -1.3539 H   0  0  0  0  0  0  0  0  0  0  0  0
    0.4624   -1.4785   -1.9646 H   0  0  0  0  0  0  0  0  0  0  0  0
    1.3922   -1.6006    0.7081 H   0  0  0  0  0  0  0  0  0  0  0  0
    0.5294   -2.8407   -0.1859 H   0  0  0  0  0  0  0  0  0  0  0  0
   -0.7166   -0.6921    1.5821 H   0  0  0  0  0  0  0  0  0  0  0  0
   -0.5852   -2.4011    1.9617 H   0  0  0  0  0  0  0  0  0  0  0  0
   -2.1882   -3.0328    0.3214 H   0  0  0  0  0  0  0  0  0  0  0  0
   -2.8549   -1.5784    1.0826 H   0  0  0  0  0  0  0  0  0  0  0  0
   -5.4364   -1.0438    0.6728 H   0  0  0  0  0  0  0  0  0  0  0  0
   -6.4356    0.8703    1.8871 H   0  0  0  0  0  0  0  0  0  0  0  0
   -5.9366    3.1937    1.1758 H   0  0  0  0  0  0  0  0  0  0  0  0
   -4.4492    3.6131   -0.7645 H   0  0  0  0  0  0  0  0  0  0  0  0
   -3.4438    1.7132   -1.9941 H   0  0  0  0  0  0  0  0  0  0  0  0
   -1.2355    0.1803   -2.1295 H   0  0  0  0  0  0  0  0  0  0  0  0
   -1.2507    0.5327   -0.4010 H   0  0  0  0  0  0  0  0  0  0  0  0
  1  2  1  0
  2  3  1  0
  3  4  1  0
  4  5  1  0
  5  6  1  0
  6  7  1  0
  7  8  2  0
  7  9  1  0
  9 10  1  0
 10 11  1  0
 11 12  1  0
 12 13  1  0
 13 14  1  0
 14 15  2  0
 14 16  2  0
 14 17  1  0
 17 18  2  0
 18 19  1  0
 19 20  2  0
 20 21  1  0
 21 22  2  0
 13 23  1  0
 23  9  1  0
 22 17  1  0
  1 24  1  0
  1 25  1  0
  1 26  1  0
  3 27  1  0
  3 28  1  0
  4 29  1  0
  4 30  1  0
  5 31  1  0
  5 32  1  0
  6 33  1  0
  9 34  1  0
 10 35  1  0
 10 36  1  0
 11 37  1  0
 11 38  1  0
 12 39  1  0
 12 40  1  0
 18 41  1  0
 19 42  1  0
 20 43  1  0
 21 44  1  0
 22 45  1  0
 23 46  1  0
 23 47  1  0
M  END
$$$$
