
     RDKit          3D

 40 42  0  0  0  0  0  0  0  0999 V2000
   -6.1059    2.5221   -0.7597 C   0  0  0  0  0  0  0  0  0  0  0  0
   -5.6699    1.2278   -0.3722 O   0  0  0  0  0  0  0  0  0  0  0  0
   -4.3178    0.9966   -0.3267 C   0  0  0  0  0  0  0  0  0  0  0  0
   -3.3429    1.9435   -0.6478 C   0  0  0  0  0  0  0  0  0  0  0  0
   -1.9865    1.6129   -0.5716 C   0  0  0  0  0  0  0  0  0  0  0  0
   -1.5815    0.3352   -0.1748 C   0  0  0  0  0  0  0  0  0  0  0  0
   -0.1938    0.0919   -0.1273 N   0  0  0  0  0  0  0  0  0  0  0  0
    0.4614   -1.0706    0.2269 C   0  0  0  0  0  0  0  0  0  0  0  0
   -0.0739   -2.1186    0.5738 O   0  0  0  0  0  0  0  0  0  0  0  0
    1.9539   -1.0211    0.1897 C   0  0  0  0  0  0  0  0  0  0  0  0
    2.6422   -2.1108    0.6988 C   0  0  0  0  0  0  0  0  0  0  0  0
    3.9937   -2.2174    0.7355 N   0  0  0  0  0  0  0  0  0  0  0  0
    4.7263   -1.1980    0.2657 C   0  0  0  0  0  0  0  0  0  0  0  0
    6.1090   -1.3042    0.3241 C   0  0  0  0  0  0  0  0  0  0  0  0
    6.9478   -0.2836   -0.1260 C   0  0  0  0  0  0  0  0  0  0  0  0
    6.3965    0.8795   -0.6421 C   0  0  0  0  0  0  0  0  0  0  0  0
    5.0097    1.0106   -0.7152 C   0  0  0  0  0  0  0  0  0  0  0  0
    4.1496   -0.0290   -0.2772 C   0  0  0  0  0  0  0  0  0  0  0  0
    2.7322    0.0211   -0.3264 C   0  0  0  0  0  0  0  0  0  0  0  0
    2.0982    1.1022   -0.9006 O   0  0  0  0  0  0  0  0  0  0  0  0
   -2.5554   -0.6126    0.1470 C   0  0  0  0  0  0  0  0  0  0  0  0
   -3.9202   -0.2939    0.0744 C   0  0  0  0  0  0  0  0  0  0  0  0
   -4.9374   -1.1692    0.3733 O   0  0  0  0  0  0  0  0  0  0  0  0
   -4.5768   -2.4791    0.7900 C   0  0  0  0  0  0  0  0  0  0  0  0
   -5.7534    3.2849   -0.0576 H   0  0  0  0  0  0  0  0  0  0  0  0
   -7.1999    2.5283   -0.7345 H   0  0  0  0  0  0  0  0  0  0  0  0
   -5.7963    2.7531   -1.7843 H   0  0  0  0  0  0  0  0  0  0  0  0
   -3.6031    2.9485   -0.9610 H   0  0  0  0  0  0  0  0  0  0  0  0
   -1.2520    2.3727   -0.8267 H   0  0  0  0  0  0  0  0  0  0  0  0
    0.4080    0.8673   -0.3954 H   0  0  0  0  0  0  0  0  0  0  0  0
    2.1173   -2.9708    1.1106 H   0  0  0  0  0  0  0  0  0  0  0  0
    6.5475   -2.2098    0.7388 H   0  0  0  0  0  0  0  0  0  0  0  0
    8.0267   -0.4000   -0.0610 H   0  0  0  0  0  0  0  0  0  0  0  0
    7.0427    1.6862   -0.9798 H   0  0  0  0  0  0  0  0  0  0  0  0
    4.6147    1.9477   -1.0976 H   0  0  0  0  0  0  0  0  0  0  0  0
    2.6778    1.4565   -1.5990 H   0  0  0  0  0  0  0  0  0  0  0  0
   -2.2524   -1.6041    0.4551 H   0  0  0  0  0  0  0  0  0  0  0  0
   -4.0355   -3.0104    0.0002 H   0  0  0  0  0  0  0  0  0  0  0  0
   -4.0006   -2.4537    1.7208 H   0  0  0  0  0  0  0  0  0  0  0  0
   -5.5002   -3.0321    0.9877 H   0  0  0  0  0  0  0  0  0  0  0  0
  1  2  1  0
  2  3  1  0
  3  4  2  0
  4  5  1  0
  5  6  2  0
  6  7  1  0
  7  8  1  0
  8  9  2  0
  8 10  1  0
 10 11  2  0
 11 12  1  0
 12 13  2  0
 13 14  1  0
 14 15  2  0
 15 16  1  0
 16 17  2  0
 17 18  1  0
 18 19  2  0
 19 20  1  0
  6 21  1  0
 21 22  2  0
 22 23  1  0
 23 24  1  0
 22  3  1  0
 19 10  1  0
 18 13  1  0
  1 25  1  0
  1 26  1  0
  1 27  1  0
  4 28  1  0
  5 29  1  0
  7 30  1  0
 11 31  1  0
 14 32  1  0
 15 33  1  0
 16 34  1  0
 17 35  1  0
 20 36  1  0
 21 37  1  0
 24 38  1  0
 24 39  1  0
 24 40  1  0
M  END
$$$$
