
     RDKit          3D

 49 51  0  0  0  0  0  0  0  0999 V2000
   -6.6239    2.1385   -0.8027 C   0  0  0  0  0  0  0  0  0  0  0  0
   -5.7203    1.0074   -0.4836 C   0  0  0  0  0  0  0  0  0  0  0  0
   -6.0654   -0.3306   -0.2211 C   0  0  0  0  0  0  0  0  0  0  0  0
   -4.8695   -0.9742    0.0150 C   0  0  0  0  0  0  0  0  0  0  0  0
   -4.6051   -2.3969    0.3443 C   0  0  0  0  0  0  0  0  0  0  0  0
   -3.8775   -0.0144   -0.1122 N   0  0  0  0  0  0  0  0  0  0  0  0
   -2.4862   -0.1448    0.0239 C   0  0  0  0  0  0  0  0  0  0  0  0
   -1.9025   -1.3015    0.3039 N   0  0  0  0  0  0  0  0  0  0  0  0
   -0.5743   -1.0283    0.3354 C   0  0  0  0  0  0  0  0  0  0  0  0
   -0.3116    0.2835    0.0816 C   0  0  0  0  0  0  0  0  0  0  0  0
    1.0171    0.8009    0.0481 C   0  0  0  0  0  0  0  0  0  0  0  0
    1.2837    1.9680   -0.2243 O   0  0  0  0  0  0  0  0  0  0  0  0
    1.9929   -0.1604    0.3452 N   0  0  0  0  0  0  0  0  0  0  0  0
    3.3873    0.2778    0.3244 C   0  0  0  0  0  0  0  0  0  0  0  0
    3.9915    0.1500   -1.0802 C   0  0  0  0  0  0  0  0  0  0  0  0
    5.4622    0.5888   -1.2061 C   0  0  0  0  0  0  0  0  0  0  0  0
    5.6563    2.0712   -0.8878 C   0  0  0  0  0  0  0  0  0  0  0  0
    6.3998   -0.2685   -0.3561 C   0  0  0  0  0  0  0  0  0  0  0  0
    1.7501   -1.5297    0.5683 C   0  0  0  0  0  0  0  0  0  0  0  0
    2.6778   -2.3256    0.7413 O   0  0  0  0  0  0  0  0  0  0  0  0
    0.4196   -1.9446    0.5790 N   0  0  0  0  0  0  0  0  0  0  0  0
    0.0844   -3.3378    0.8130 C   0  0  0  0  0  0  0  0  0  0  0  0
   -1.5440    0.8649   -0.1100 N   0  0  0  0  0  0  0  0  0  0  0  0
   -1.7954    2.2605   -0.3867 C   0  0  0  0  0  0  0  0  0  0  0  0
   -4.4000    1.1995   -0.4186 N   0  0  0  0  0  0  0  0  0  0  0  0
   -6.3854    2.5545   -1.7868 H   0  0  0  0  0  0  0  0  0  0  0  0
   -7.6702    1.8169   -0.8154 H   0  0  0  0  0  0  0  0  0  0  0  0
   -6.5228    2.9330   -0.0562 H   0  0  0  0  0  0  0  0  0  0  0  0
   -7.0525   -0.7720   -0.2055 H   0  0  0  0  0  0  0  0  0  0  0  0
   -4.1109   -2.4894    1.3165 H   0  0  0  0  0  0  0  0  0  0  0  0
   -5.5423   -2.9612    0.3973 H   0  0  0  0  0  0  0  0  0  0  0  0
   -3.9815   -2.8675   -0.4222 H   0  0  0  0  0  0  0  0  0  0  0  0
    3.4367    1.3168    0.6669 H   0  0  0  0  0  0  0  0  0  0  0  0
    3.9585   -0.3197    1.0425 H   0  0  0  0  0  0  0  0  0  0  0  0
    3.3889    0.7371   -1.7856 H   0  0  0  0  0  0  0  0  0  0  0  0
    3.9068   -0.8921   -1.4152 H   0  0  0  0  0  0  0  0  0  0  0  0
    5.7474    0.4408   -2.2562 H   0  0  0  0  0  0  0  0  0  0  0  0
    6.6798    2.3827   -1.1234 H   0  0  0  0  0  0  0  0  0  0  0  0
    4.9750    2.6900   -1.4810 H   0  0  0  0  0  0  0  0  0  0  0  0
    5.4818    2.2873    0.1710 H   0  0  0  0  0  0  0  0  0  0  0  0
    7.4452   -0.0259   -0.5760 H   0  0  0  0  0  0  0  0  0  0  0  0
    6.2535   -1.3329   -0.5669 H   0  0  0  0  0  0  0  0  0  0  0  0
    6.2423   -0.1062    0.7148 H   0  0  0  0  0  0  0  0  0  0  0  0
   -0.6140   -3.4035    1.6535 H   0  0  0  0  0  0  0  0  0  0  0  0
    0.9678   -3.9370    1.0481 H   0  0  0  0  0  0  0  0  0  0  0  0
   -0.3860   -3.7457   -0.0873 H   0  0  0  0  0  0  0  0  0  0  0  0
   -2.2434    2.3451   -1.3798 H   0  0  0  0  0  0  0  0  0  0  0  0
   -2.4514    2.6606    0.3904 H   0  0  0  0  0  0  0  0  0  0  0  0
   -0.8705    2.8347   -0.3720 H   0  0  0  0  0  0  0  0  0  0  0  0
  1  2  1  0
  2  3  1  0
  3  4  2  0
  4  5  1  0
  4  6  1  0
  6  7  1  0
  7  8  2  0
  8  9  1  0
  9 10  2  0
 10 11  1  0
 11 12  2  0
 11 13  1  0
 13 14  1  0
 14 15  1  0
 15 16  1  0
 16 17  1  0
 16 18  1  0
 13 19  1  0
 19 20  2  0
 19 21  1  0
 21 22  1  0
 10 23  1  0
 23 24  1  0
  6 25  1  0
 25  2  2  0
 23  7  1  0
 21  9  1  0
  1 26  1  0
  1 27  1  0
  1 28  1  0
  3 29  1  0
  5 30  1  0
  5 31  1  0
  5 32  1  0
 14 33  1  0
 14 34  1  0
 15 35  1  0
 15 36  1  0
 16 37  1  0
 17 38  1  0
 17 39  1  0
 17 40  1  0
 18 41  1  0
 18 42  1  0
 18 43  1  0
 22 44  1  0
 22 45  1  0
 22 46  1  0
 24 47  1  0
 24 48  1  0
 24 49  1  0
M  END
$$$$
