
     RDKit          3D

 44 46  0  0  0  0  0  0  0  0999 V2000
    3.2187   -0.4007   -2.7313 C   0  0  0  0  0  0  0  0  0  0  0  0
    3.7879    0.3239   -1.5478 C   0  0  0  0  0  0  0  0  0  0  0  0
    5.1482    0.2149   -1.2335 C   0  0  0  0  0  0  0  0  0  0  0  0
    5.6808    0.9065   -0.1436 C   0  0  0  0  0  0  0  0  0  0  0  0
    4.8612    1.7231    0.6347 C   0  0  0  0  0  0  0  0  0  0  0  0
    3.5121    1.8542    0.3124 C   0  0  0  0  0  0  0  0  0  0  0  0
    2.6617    2.6564    1.1219 N   0  0  0  0  0  0  0  0  0  0  0  0
    1.9245    1.9225    2.4572 S   0  0  0  0  0  6  0  0  0  0  0  0
    1.3715    3.0053    3.2453 O   0  0  0  0  0  0  0  0  0  0  0  0
    2.8327    0.9648    3.0492 O   0  0  0  0  0  0  0  0  0  0  0  0
    0.5626    1.0558    1.7225 C   0  0  0  0  0  0  0  0  0  0  0  0
    0.6501   -0.3144    1.4927 C   0  0  0  0  0  0  0  0  0  0  0  0
   -0.4345   -0.9917    0.9203 C   0  0  0  0  0  0  0  0  0  0  0  0
   -1.6220   -0.3253    0.5767 C   0  0  0  0  0  0  0  0  0  0  0  0
   -2.7330   -1.0166   -0.0154 N   0  0  0  0  0  0  0  0  0  0  0  0
   -3.6718   -0.2958   -0.8755 C   0  0  0  0  0  0  0  0  0  0  0  0
   -5.1106   -0.5368   -0.4372 C   0  0  0  0  0  0  0  0  0  0  0  0
   -5.3929   -2.0208   -0.2005 C   0  0  0  0  0  0  0  0  0  0  0  0
   -4.2043   -2.9052   -0.5553 C   0  0  0  0  0  0  0  0  0  0  0  0
   -2.9385   -2.4034    0.1227 C   0  0  0  0  0  0  0  0  0  0  0  0
   -2.2223   -3.1976    0.7268 O   0  0  0  0  0  0  0  0  0  0  0  0
   -1.6875    1.0541    0.8458 C   0  0  0  0  0  0  0  0  0  0  0  0
   -0.6089    1.7433    1.4151 C   0  0  0  0  0  0  0  0  0  0  0  0
    2.9748    1.1596   -0.7716 C   0  0  0  0  0  0  0  0  0  0  0  0
    3.7664   -1.3296   -2.9219 H   0  0  0  0  0  0  0  0  0  0  0  0
    3.2768    0.2332   -3.6214 H   0  0  0  0  0  0  0  0  0  0  0  0
    2.1721   -0.6714   -2.5558 H   0  0  0  0  0  0  0  0  0  0  0  0
    5.8012   -0.4177   -1.8315 H   0  0  0  0  0  0  0  0  0  0  0  0
    6.7339    0.8006    0.1044 H   0  0  0  0  0  0  0  0  0  0  0  0
    5.2794    2.2367    1.4957 H   0  0  0  0  0  0  0  0  0  0  0  0
    2.9989    3.5853    1.3709 H   0  0  0  0  0  0  0  0  0  0  0  0
    1.5543   -0.8665    1.7420 H   0  0  0  0  0  0  0  0  0  0  0  0
   -0.3029   -2.0532    0.7289 H   0  0  0  0  0  0  0  0  0  0  0  0
   -3.5303   -0.6797   -1.8948 H   0  0  0  0  0  0  0  0  0  0  0  0
   -3.4727    0.7753   -0.9412 H   0  0  0  0  0  0  0  0  0  0  0  0
   -5.3115    0.0159    0.4888 H   0  0  0  0  0  0  0  0  0  0  0  0
   -5.7971   -0.1392   -1.1935 H   0  0  0  0  0  0  0  0  0  0  0  0
   -6.2735   -2.3320   -0.7738 H   0  0  0  0  0  0  0  0  0  0  0  0
   -5.6463   -2.1651    0.8576 H   0  0  0  0  0  0  0  0  0  0  0  0
   -4.4015   -3.9298   -0.2202 H   0  0  0  0  0  0  0  0  0  0  0  0
   -4.0367   -2.9429   -1.6374 H   0  0  0  0  0  0  0  0  0  0  0  0
   -2.5943    1.6256    0.6726 H   0  0  0  0  0  0  0  0  0  0  0  0
   -0.6985    2.8071    1.6246 H   0  0  0  0  0  0  0  0  0  0  0  0
    1.9222    1.2712   -1.0190 H   0  0  0  0  0  0  0  0  0  0  0  0
  1  2  1  0
  2  3  2  0
  3  4  1  0
  4  5  2  0
  5  6  1  0
  6  7  1  0
  7  8  1  0
  8  9  2  0
  8 10  2  0
  8 11  1  0
 11 12  2  0
 12 13  1  0
 13 14  2  0
 14 15  1  0
 15 16  1  0
 16 17  1  0
 17 18  1  0
 18 19  1  0
 19 20  1  0
 20 21  2  0
 14 22  1  0
 22 23  2  0
  6 24  2  0
 24  2  1  0
 23 11  1  0
 20 15  1  0
  1 25  1  0
  1 26  1  0
  1 27  1  0
  3 28  1  0
  4 29  1  0
  5 30  1  0
  7 31  1  0
 12 32  1  0
 13 33  1  0
 16 34  1  0
 16 35  1  0
 17 36  1  0
 17 37  1  0
 18 38  1  0
 18 39  1  0
 19 40  1  0
 19 41  1  0
 22 42  1  0
 23 43  1  0
 24 44  1  0
M  END
$$$$
