
     RDKit          3D

 48 50  0  0  0  0  0  0  0  0999 V2000
    7.2691   -0.4746    0.2966 C   0  0  0  0  0  0  0  0  0  0  0  0
    6.0758   -0.8702   -0.5366 C   0  0  0  0  0  0  0  0  0  0  0  0
    6.2087   -1.6298   -1.4957 O   0  0  0  0  0  0  0  0  0  0  0  0
    4.8509   -0.3356   -0.1730 N   0  0  0  0  0  0  0  0  0  0  0  0
    3.6555   -0.7192   -0.9274 C   0  0  0  0  0  0  0  0  0  0  0  0
    2.4043   -0.7839   -0.0406 C   0  0  0  0  0  0  0  0  0  0  0  0
    2.1791    0.4516    0.7259 N   0  0  0  0  0  0  0  0  0  0  0  0
    0.9279    0.9211    1.1160 C   0  0  0  0  0  0  0  0  0  0  0  0
    0.7334    2.0706    1.4999 O   0  0  0  0  0  0  0  0  0  0  0  0
   -0.2294   -0.0008    1.0695 C   0  0  0  0  0  0  0  0  0  0  0  0
   -0.1982   -1.2214    1.7474 C   0  0  0  0  0  0  0  0  0  0  0  0
   -1.3089   -2.0646    1.6987 C   0  0  0  0  0  0  0  0  0  0  0  0
   -2.4539   -1.6895    0.9828 C   0  0  0  0  0  0  0  0  0  0  0  0
   -3.7609   -2.8186    0.9683 Cl  0  0  0  0  0  0  0  0  0  0  0  0
   -2.4924   -0.4542    0.3092 C   0  0  0  0  0  0  0  0  0  0  0  0
   -3.6326    0.0632   -0.4073 N   0  0  0  0  0  0  0  0  0  0  0  0
   -4.2285   -0.7409   -1.4879 C   0  0  0  0  0  0  0  0  0  0  0  0
   -4.7226    0.2077   -2.5849 C   0  0  0  0  0  0  0  0  0  0  0  0
   -5.2009    1.5756   -2.0770 C   0  0  0  0  0  0  0  0  0  0  0  0
   -5.8839    1.5008   -0.7198 C   0  0  0  0  0  0  0  0  0  0  0  0
   -4.7666    0.9082    0.5522 S   0  0  0  0  0  6  0  0  0  0  0  0
   -5.4889   -0.0458    1.3659 O   0  0  0  0  0  0  0  0  0  0  0  0
   -4.0944    2.0440    1.1451 O   0  0  0  0  0  0  0  0  0  0  0  0
   -1.3803    0.3953    0.3809 C   0  0  0  0  0  0  0  0  0  0  0  0
    3.3194    1.3619    0.8528 C   0  0  0  0  0  0  0  0  0  0  0  0
    4.6606    0.6214    0.9239 C   0  0  0  0  0  0  0  0  0  0  0  0
    7.0606   -0.6095    1.3610 H   0  0  0  0  0  0  0  0  0  0  0  0
    7.5393    0.5637    0.0887 H   0  0  0  0  0  0  0  0  0  0  0  0
    8.1180   -1.1147    0.0376 H   0  0  0  0  0  0  0  0  0  0  0  0
    3.5218    0.0378   -1.7097 H   0  0  0  0  0  0  0  0  0  0  0  0
    3.8061   -1.6834   -1.4242 H   0  0  0  0  0  0  0  0  0  0  0  0
    1.5275   -1.0060   -0.6569 H   0  0  0  0  0  0  0  0  0  0  0  0
    2.5242   -1.5897    0.6927 H   0  0  0  0  0  0  0  0  0  0  0  0
    0.6739   -1.5091    2.3292 H   0  0  0  0  0  0  0  0  0  0  0  0
   -1.2827   -3.0126    2.2319 H   0  0  0  0  0  0  0  0  0  0  0  0
   -3.5010   -1.4395   -1.9167 H   0  0  0  0  0  0  0  0  0  0  0  0
   -5.0671   -1.3361   -1.1098 H   0  0  0  0  0  0  0  0  0  0  0  0
   -5.5305   -0.2876   -3.1369 H   0  0  0  0  0  0  0  0  0  0  0  0
   -3.9179    0.3765   -3.3113 H   0  0  0  0  0  0  0  0  0  0  0  0
   -4.3383    2.2509   -2.0084 H   0  0  0  0  0  0  0  0  0  0  0  0
   -5.8817    2.0150   -2.8148 H   0  0  0  0  0  0  0  0  0  0  0  0
   -6.7358    0.8142   -0.7578 H   0  0  0  0  0  0  0  0  0  0  0  0
   -6.2401    2.4862   -0.4047 H   0  0  0  0  0  0  0  0  0  0  0  0
   -1.4104    1.3731   -0.0962 H   0  0  0  0  0  0  0  0  0  0  0  0
    3.2995    2.0194   -0.0251 H   0  0  0  0  0  0  0  0  0  0  0  0
    3.1950    1.9927    1.7397 H   0  0  0  0  0  0  0  0  0  0  0  0
    4.7139    0.0435    1.8544 H   0  0  0  0  0  0  0  0  0  0  0  0
    5.4834    1.3427    0.9288 H   0  0  0  0  0  0  0  0  0  0  0  0
  1  2  1  0
  2  3  2  0
  2  4  1  0
  4  5  1  0
  5  6  1  0
  6  7  1  0
  7  8  1  0
  8  9  2  0
  8 10  1  0
 10 11  2  0
 11 12  1  0
 12 13  2  0
 13 14  1  0
 13 15  1  0
 15 16  1  0
 16 17  1  0
 17 18  1  0
 18 19  1  0
 19 20  1  0
 20 21  1  0
 21 22  2  0
 21 23  2  0
 15 24  2  0
  7 25  1  0
 25 26  1  0
 26  4  1  0
 24 10  1  0
 21 16  1  0
  1 27  1  0
  1 28  1  0
  1 29  1  0
  5 30  1  0
  5 31  1  0
  6 32  1  0
  6 33  1  0
 11 34  1  0
 12 35  1  0
 17 36  1  0
 17 37  1  0
 18 38  1  0
 18 39  1  0
 19 40  1  0
 19 41  1  0
 20 42  1  0
 20 43  1  0
 24 44  1  0
 25 45  1  0
 25 46  1  0
 26 47  1  0
 26 48  1  0
M  END
$$$$
