
     RDKit          3D

 42 43  0  0  0  0  0  0  0  0999 V2000
   -3.6804   -2.3811   -0.6752 C   0  0  0  0  0  0  0  0  0  0  0  0
   -3.6678   -1.1202    0.1409 C   0  0  0  0  0  0  0  0  0  0  0  0
   -4.7329   -0.8319    1.0060 C   0  0  0  0  0  0  0  0  0  0  0  0
   -4.7289    0.3341    1.7732 C   0  0  0  0  0  0  0  0  0  0  0  0
   -3.6581    1.2207    1.6893 C   0  0  0  0  0  0  0  0  0  0  0  0
   -2.5949    0.9493    0.8286 C   0  0  0  0  0  0  0  0  0  0  0  0
   -2.6118   -0.2034    0.0371 C   0  0  0  0  0  0  0  0  0  0  0  0
   -1.5679   -0.5253   -0.7907 O   0  0  0  0  0  0  0  0  0  0  0  0
   -1.2160    0.5002   -1.7321 C   0  0  0  0  0  0  0  0  0  0  0  0
   -1.6094    0.0213   -3.1246 C   0  0  0  0  0  0  0  0  0  0  0  0
    0.2988    0.7642   -1.6616 C   0  0  0  0  0  0  0  0  0  0  0  0
    0.9584    1.1631   -2.6176 O   0  0  0  0  0  0  0  0  0  0  0  0
    0.8331    0.5803   -0.3981 N   0  0  0  0  0  0  0  0  0  0  0  0
    2.2637    0.6639   -0.1507 C   0  0  0  0  0  0  0  0  0  0  0  0
    2.9794   -0.6181   -0.5849 C   0  0  0  0  0  0  0  0  0  0  0  0
    4.4969   -0.5083   -0.4180 C   0  0  0  0  0  0  0  0  0  0  0  0
    4.9234    0.4450    0.6994 C   0  0  0  0  0  0  0  0  0  0  0  0
    3.8977    0.4932    1.8228 C   0  0  0  0  0  0  0  0  0  0  0  0
    2.5295    0.9726    1.3314 C   0  0  0  0  0  0  0  0  0  0  0  0
   -3.7751   -2.1413   -1.7388 H   0  0  0  0  0  0  0  0  0  0  0  0
   -4.5198   -3.0283   -0.3999 H   0  0  0  0  0  0  0  0  0  0  0  0
   -2.7602   -2.9514   -0.5118 H   0  0  0  0  0  0  0  0  0  0  0  0
   -5.5724   -1.5183    1.0921 H   0  0  0  0  0  0  0  0  0  0  0  0
   -5.5584    0.5450    2.4436 H   0  0  0  0  0  0  0  0  0  0  0  0
   -3.6483    2.1202    2.2994 H   0  0  0  0  0  0  0  0  0  0  0  0
   -1.7565    1.6392    0.7960 H   0  0  0  0  0  0  0  0  0  0  0  0
   -1.7159    1.4573   -1.5372 H   0  0  0  0  0  0  0  0  0  0  0  0
   -2.6847   -0.1796   -3.1732 H   0  0  0  0  0  0  0  0  0  0  0  0
   -1.0973   -0.9149   -3.3742 H   0  0  0  0  0  0  0  0  0  0  0  0
   -1.3596    0.7625   -3.8902 H   0  0  0  0  0  0  0  0  0  0  0  0
    0.2765   -0.0093    0.2148 H   0  0  0  0  0  0  0  0  0  0  0  0
    2.6520    1.4941   -0.7557 H   0  0  0  0  0  0  0  0  0  0  0  0
    2.6084   -1.4604    0.0146 H   0  0  0  0  0  0  0  0  0  0  0  0
    2.7476   -0.8681   -1.6271 H   0  0  0  0  0  0  0  0  0  0  0  0
    4.9018   -1.5095   -0.2268 H   0  0  0  0  0  0  0  0  0  0  0  0
    4.9497   -0.1708   -1.3582 H   0  0  0  0  0  0  0  0  0  0  0  0
    5.9010    0.1400    1.0894 H   0  0  0  0  0  0  0  0  0  0  0  0
    5.0531    1.4538    0.2876 H   0  0  0  0  0  0  0  0  0  0  0  0
    3.7949   -0.5096    2.2567 H   0  0  0  0  0  0  0  0  0  0  0  0
    4.2479    1.1468    2.6297 H   0  0  0  0  0  0  0  0  0  0  0  0
    2.4448    2.0568    1.4803 H   0  0  0  0  0  0  0  0  0  0  0  0
    1.7576    0.5264    1.9718 H   0  0  0  0  0  0  0  0  0  0  0  0
  1  2  1  0
  2  3  2  0
  3  4  1  0
  4  5  2  0
  5  6  1  0
  6  7  2  0
  7  8  1  0
  8  9  1  0
  9 10  1  0
  9 11  1  0
 11 12  2  0
 11 13  1  0
 13 14  1  0
 14 15  1  0
 15 16  1  0
 16 17  1  0
 17 18  1  0
 18 19  1  0
  7  2  1  0
 19 14  1  0
  1 20  1  0
  1 21  1  0
  1 22  1  0
  3 23  1  0
  4 24  1  0
  5 25  1  0
  6 26  1  0
  9 27  1  0
 10 28  1  0
 10 29  1  0
 10 30  1  0
 13 31  1  0
 14 32  1  0
 15 33  1  0
 15 34  1  0
 16 35  1  0
 16 36  1  0
 17 37  1  0
 17 38  1  0
 18 39  1  0
 18 40  1  0
 19 41  1  0
 19 42  1  0
M  END
$$$$
