
     RDKit          3D

 35 37  0  0  0  0  0  0  0  0999 V2000
    6.5458    0.0892    0.0143 C   0  0  0  0  0  0  0  0  0  0  0  0
    5.2866   -0.6449    0.3950 C   0  0  0  0  0  0  0  0  0  0  0  0
    5.3349   -1.7458    0.9402 O   0  0  0  0  0  0  0  0  0  0  0  0
    3.9648   -0.0154    0.1005 C   0  0  0  0  0  0  0  0  0  0  0  0
    3.8558    1.2323   -0.5167 C   0  0  0  0  0  0  0  0  0  0  0  0
    2.5945    1.7696   -0.7663 C   0  0  0  0  0  0  0  0  0  0  0  0
    1.4418    1.0660   -0.4021 C   0  0  0  0  0  0  0  0  0  0  0  0
    1.5192   -0.1846    0.2170 C   0  0  0  0  0  0  0  0  0  0  0  0
    0.4048   -0.9346    0.6036 N   0  0  0  0  0  0  0  0  0  0  0  0
   -0.9723   -0.7436    0.5272 C   0  0  0  0  0  0  0  0  0  0  0  0
   -1.7024   -1.7443    1.0331 N   0  0  0  0  0  0  0  0  0  0  0  0
   -3.0354   -1.6333    0.9958 C   0  0  0  0  0  0  0  0  0  0  0  0
   -3.7534   -2.7125    1.5405 N   0  0  0  0  0  0  0  0  0  0  0  0
   -3.6886   -0.5211    0.4531 C   0  0  0  0  0  0  0  0  0  0  0  0
   -5.0949   -0.3424    0.3832 C   0  0  0  0  0  0  0  0  0  0  0  0
   -5.6369    0.8100   -0.1809 C   0  0  0  0  0  0  0  0  0  0  0  0
   -4.7869    1.7887   -0.6775 C   0  0  0  0  0  0  0  0  0  0  0  0
   -3.4027    1.6071   -0.6059 C   0  0  0  0  0  0  0  0  0  0  0  0
   -2.8375    0.4663   -0.0478 C   0  0  0  0  0  0  0  0  0  0  0  0
   -1.5067    0.3584   -0.0120 N   0  0  0  0  0  0  0  0  0  0  0  0
    2.7988   -0.7109    0.4608 C   0  0  0  0  0  0  0  0  0  0  0  0
    6.6048    1.0421    0.5466 H   0  0  0  0  0  0  0  0  0  0  0  0
    6.5834    0.2419   -1.0674 H   0  0  0  0  0  0  0  0  0  0  0  0
    7.4134   -0.5132    0.3014 H   0  0  0  0  0  0  0  0  0  0  0  0
    4.7289    1.8053   -0.8124 H   0  0  0  0  0  0  0  0  0  0  0  0
    2.4998    2.7407   -1.2465 H   0  0  0  0  0  0  0  0  0  0  0  0
    0.4800    1.5227   -0.6157 H   0  0  0  0  0  0  0  0  0  0  0  0
    0.5779   -1.8280    1.0443 H   0  0  0  0  0  0  0  0  0  0  0  0
   -4.3545   -3.1151    0.8278 H   0  0  0  0  0  0  0  0  0  0  0  0
   -4.3348   -2.3827    2.3049 H   0  0  0  0  0  0  0  0  0  0  0  0
   -5.7705   -1.1014    0.7685 H   0  0  0  0  0  0  0  0  0  0  0  0
   -6.7147    0.9428   -0.2325 H   0  0  0  0  0  0  0  0  0  0  0  0
   -5.1924    2.6945   -1.1212 H   0  0  0  0  0  0  0  0  0  0  0  0
   -2.7447    2.3799   -0.9978 H   0  0  0  0  0  0  0  0  0  0  0  0
    2.8939   -1.6835    0.9418 H   0  0  0  0  0  0  0  0  0  0  0  0
  1  2  1  0
  2  3  2  0
  2  4  1  0
  4  5  2  0
  5  6  1  0
  6  7  2  0
  7  8  1  0
  8  9  1  0
  9 10  1  0
 10 11  2  0
 11 12  1  0
 12 13  1  0
 12 14  2  0
 14 15  1  0
 15 16  2  0
 16 17  1  0
 17 18  2  0
 18 19  1  0
 19 20  2  0
  8 21  2  0
 21  4  1  0
 20 10  1  0
 19 14  1  0
  1 22  1  0
  1 23  1  0
  1 24  1  0
  5 25  1  0
  6 26  1  0
  7 27  1  0
  9 28  1  0
 13 29  1  0
 13 30  1  0
 15 31  1  0
 16 32  1  0
 17 33  1  0
 18 34  1  0
 21 35  1  0
M  END
$$$$
