
     RDKit          3D

 55 57  0  0  0  0  0  0  0  0999 V2000
   -6.1800   -0.8719    1.1456 C   0  0  0  0  0  0  0  0  0  0  0  0
   -5.2624   -0.2588    0.0972 C   0  0  0  0  0  0  0  0  0  0  0  0
   -4.2078    0.6891    0.6997 C   0  0  0  0  0  0  0  0  0  0  0  0
   -4.8064    1.9483    1.3700 C   0  0  0  0  0  0  0  0  0  0  0  0
   -5.8675    2.6951    0.5701 C   0  0  0  0  0  0  0  0  0  0  0  0
   -3.1625    1.0579   -0.3675 C   0  0  0  0  0  0  0  0  0  0  0  0
   -3.1378    2.1876   -0.8605 O   0  0  0  0  0  0  0  0  0  0  0  0
   -2.2855    0.0616   -0.7984 N   0  0  0  0  0  0  0  0  0  0  0  0
   -1.9417   -1.1273   -0.0018 C   0  0  0  0  0  0  0  0  0  0  0  0
   -1.4343   -2.2936   -0.8732 C   0  0  0  0  0  0  0  0  0  0  0  0
   -0.3309   -1.8783   -1.7615 N   0  0  0  0  0  0  0  0  0  0  0  0
    0.9278   -1.7872   -1.1445 C   0  0  0  0  0  0  0  0  0  0  0  0
    1.4847   -2.8898   -0.5112 C   0  0  0  0  0  0  0  0  0  0  0  0
    2.7433   -2.7980    0.0920 C   0  0  0  0  0  0  0  0  0  0  0  0
    3.4562   -1.6059    0.0487 C   0  0  0  0  0  0  0  0  0  0  0  0
    4.7034   -1.5599    0.7178 N   0  0  0  0  0  0  0  0  0  0  0  0
    5.5895   -0.4589    0.7900 C   0  0  0  0  0  0  0  0  0  0  0  0
    6.7551   -0.6206    1.5413 C   0  0  0  0  0  0  0  0  0  0  0  0
    7.6509    0.4393    1.6660 C   0  0  0  0  0  0  0  0  0  0  0  0
    7.3620    1.6452    1.0439 C   0  0  0  0  0  0  0  0  0  0  0  0
    6.1808    1.7472    0.3224 C   0  0  0  0  0  0  0  0  0  0  0  0
    5.8175    3.0313   -0.3596 C   0  0  0  0  0  0  0  0  0  0  0  0
    5.3098    0.7178    0.2008 N   0  0  0  0  0  0  0  0  0  0  0  0
    2.8949   -0.5537   -0.5654 N   0  0  0  0  0  0  0  0  0  0  0  0
    1.6463   -0.6519   -1.1789 N   0  0  0  0  0  0  0  0  0  0  0  0
   -0.6942   -0.7034   -2.5892 C   0  0  0  0  0  0  0  0  0  0  0  0
   -1.2400    0.4705   -1.7530 C   0  0  0  0  0  0  0  0  0  0  0  0
   -6.7687   -0.1107    1.6645 H   0  0  0  0  0  0  0  0  0  0  0  0
   -5.6029   -1.4296    1.8897 H   0  0  0  0  0  0  0  0  0  0  0  0
   -6.8800   -1.5669    0.6713 H   0  0  0  0  0  0  0  0  0  0  0  0
   -5.8617    0.2641   -0.6569 H   0  0  0  0  0  0  0  0  0  0  0  0
   -4.7770   -1.0777   -0.4459 H   0  0  0  0  0  0  0  0  0  0  0  0
   -3.6692    0.1738    1.5041 H   0  0  0  0  0  0  0  0  0  0  0  0
   -3.9965    2.6488    1.6121 H   0  0  0  0  0  0  0  0  0  0  0  0
   -5.2495    1.6598    2.3315 H   0  0  0  0  0  0  0  0  0  0  0  0
   -6.1529    3.6117    1.0972 H   0  0  0  0  0  0  0  0  0  0  0  0
   -5.5083    2.9788   -0.4220 H   0  0  0  0  0  0  0  0  0  0  0  0
   -6.7740    2.0952    0.4485 H   0  0  0  0  0  0  0  0  0  0  0  0
   -2.7993   -1.4790    0.5744 H   0  0  0  0  0  0  0  0  0  0  0  0
   -1.1735   -0.8184    0.7176 H   0  0  0  0  0  0  0  0  0  0  0  0
   -1.1657   -3.1453   -0.2391 H   0  0  0  0  0  0  0  0  0  0  0  0
   -2.2600   -2.6406   -1.5082 H   0  0  0  0  0  0  0  0  0  0  0  0
    0.9622   -3.8400   -0.4988 H   0  0  0  0  0  0  0  0  0  0  0  0
    3.1535   -3.6671    0.5953 H   0  0  0  0  0  0  0  0  0  0  0  0
    5.2377   -2.3862    0.4791 H   0  0  0  0  0  0  0  0  0  0  0  0
    6.9642   -1.5606    2.0412 H   0  0  0  0  0  0  0  0  0  0  0  0
    8.5592    0.3254    2.2496 H   0  0  0  0  0  0  0  0  0  0  0  0
    8.0397    2.4880    1.1268 H   0  0  0  0  0  0  0  0  0  0  0  0
    4.8628    2.9364   -0.8878 H   0  0  0  0  0  0  0  0  0  0  0  0
    5.7221    3.8359    0.3763 H   0  0  0  0  0  0  0  0  0  0  0  0
    6.5859    3.3012   -1.0911 H   0  0  0  0  0  0  0  0  0  0  0  0
    0.1408   -0.3780   -3.2221 H   0  0  0  0  0  0  0  0  0  0  0  0
   -1.4828   -1.0273   -3.2812 H   0  0  0  0  0  0  0  0  0  0  0  0
   -1.6338    1.2330   -2.4345 H   0  0  0  0  0  0  0  0  0  0  0  0
   -0.4434    0.9434   -1.1672 H   0  0  0  0  0  0  0  0  0  0  0  0
  1  2  1  0
  2  3  1  0
  3  4  1  0
  4  5  1  0
  3  6  1  0
  6  7  2  0
  6  8  1  0
  8  9  1  0
  9 10  1  0
 10 11  1  0
 11 12  1  0
 12 13  2  0
 13 14  1  0
 14 15  2  0
 15 16  1  0
 16 17  1  0
 17 18  2  0
 18 19  1  0
 19 20  2  0
 20 21  1  0
 21 22  1  0
 21 23  2  0
 15 24  1  0
 24 25  2  0
 11 26  1  0
 26 27  1  0
 27  8  1  0
 25 12  1  0
 23 17  1  0
  1 28  1  0
  1 29  1  0
  1 30  1  0
  2 31  1  0
  2 32  1  0
  3 33  1  0
  4 34  1  0
  4 35  1  0
  5 36  1  0
  5 37  1  0
  5 38  1  0
  9 39  1  0
  9 40  1  0
 10 41  1  0
 10 42  1  0
 13 43  1  0
 14 44  1  0
 16 45  1  0
 18 46  1  0
 19 47  1  0
 20 48  1  0
 22 49  1  0
 22 50  1  0
 22 51  1  0
 26 52  1  0
 26 53  1  0
 27 54  1  0
 27 55  1  0
M  END
$$$$
