
     RDKit          3D

 42 44  0  0  0  0  0  0  0  0999 V2000
    7.3623   -0.3836   -1.2149 C   0  0  0  0  0  0  0  0  0  0  0  0
    6.6057    0.0496    0.0164 C   0  0  0  0  0  0  0  0  0  0  0  0
    7.2036    0.4442    1.0111 O   0  0  0  0  0  0  0  0  0  0  0  0
    5.2367   -0.0350   -0.1561 N   0  0  0  0  0  0  0  0  0  0  0  0
    4.2280    0.2898    0.7761 C   0  0  0  0  0  0  0  0  0  0  0  0
    4.4803    0.7530    2.0667 C   0  0  0  0  0  0  0  0  0  0  0  0
    3.4212    1.0504    2.9259 C   0  0  0  0  0  0  0  0  0  0  0  0
    2.1037    0.8856    2.4993 C   0  0  0  0  0  0  0  0  0  0  0  0
    1.8295    0.4216    1.2092 C   0  0  0  0  0  0  0  0  0  0  0  0
    0.4720    0.2821    0.8554 N   0  0  0  0  0  0  0  0  0  0  0  0
   -0.0596   -0.1512   -0.3409 C   0  0  0  0  0  0  0  0  0  0  0  0
    0.5845   -0.4988   -1.3281 O   0  0  0  0  0  0  0  0  0  0  0  0
   -1.5570   -0.1768   -0.3737 C   0  0  0  0  0  0  0  0  0  0  0  0
   -2.1718   -0.5837   -1.4952 C   0  0  0  0  0  0  0  0  0  0  0  0
   -3.5390   -0.6714   -1.7051 N   0  0  0  0  0  0  0  0  0  0  0  0
   -4.0951   -1.1320   -2.9785 C   0  0  0  0  0  0  0  0  0  0  0  0
   -4.4240   -0.3078   -0.6662 C   0  0  0  0  0  0  0  0  0  0  0  0
   -5.8227   -0.3636   -0.7864 C   0  0  0  0  0  0  0  0  0  0  0  0
   -6.6623    0.0073    0.2716 C   0  0  0  0  0  0  0  0  0  0  0  0
   -6.1237    0.4438    1.4775 C   0  0  0  0  0  0  0  0  0  0  0  0
   -4.7425    0.5103    1.6282 C   0  0  0  0  0  0  0  0  0  0  0  0
   -3.9032    0.1381    0.5667 C   0  0  0  0  0  0  0  0  0  0  0  0
   -2.4331    0.2193    0.7561 C   0  0  0  0  0  0  0  0  0  0  0  0
   -1.9564    0.6051    1.8224 O   0  0  0  0  0  0  0  0  0  0  0  0
    2.8973    0.1267    0.3566 C   0  0  0  0  0  0  0  0  0  0  0  0
    7.4268    0.4545   -1.9137 H   0  0  0  0  0  0  0  0  0  0  0  0
    8.3705   -0.6977   -0.9297 H   0  0  0  0  0  0  0  0  0  0  0  0
    6.8687   -1.2306   -1.7001 H   0  0  0  0  0  0  0  0  0  0  0  0
    4.9090   -0.3605   -1.0576 H   0  0  0  0  0  0  0  0  0  0  0  0
    5.4908    0.8939    2.4369 H   0  0  0  0  0  0  0  0  0  0  0  0
    3.6275    1.4113    3.9304 H   0  0  0  0  0  0  0  0  0  0  0  0
    1.2971    1.1245    3.1885 H   0  0  0  0  0  0  0  0  0  0  0  0
   -0.2024    0.5354    1.5807 H   0  0  0  0  0  0  0  0  0  0  0  0
   -1.5833   -0.8875   -2.3596 H   0  0  0  0  0  0  0  0  0  0  0  0
   -4.6952   -2.0379   -2.8381 H   0  0  0  0  0  0  0  0  0  0  0  0
   -4.7105   -0.3523   -3.4411 H   0  0  0  0  0  0  0  0  0  0  0  0
   -3.3054   -1.3818   -3.6967 H   0  0  0  0  0  0  0  0  0  0  0  0
   -6.2979   -0.6964   -1.7044 H   0  0  0  0  0  0  0  0  0  0  0  0
   -7.7419   -0.0464    0.1490 H   0  0  0  0  0  0  0  0  0  0  0  0
   -6.7771    0.7312    2.2975 H   0  0  0  0  0  0  0  0  0  0  0  0
   -4.3205    0.8516    2.5711 H   0  0  0  0  0  0  0  0  0  0  0  0
    2.7095   -0.2344   -0.6482 H   0  0  0  0  0  0  0  0  0  0  0  0
  1  2  1  0
  2  3  2  0
  2  4  1  0
  4  5  1  0
  5  6  2  0
  6  7  1  0
  7  8  2  0
  8  9  1  0
  9 10  1  0
 10 11  1  0
 11 12  2  0
 11 13  1  0
 13 14  2  0
 14 15  1  0
 15 16  1  0
 15 17  1  0
 17 18  2  0
 18 19  1  0
 19 20  2  0
 20 21  1  0
 21 22  2  0
 22 23  1  0
 23 24  2  0
  9 25  2  0
 25  5  1  0
 23 13  1  0
 22 17  1  0
  1 26  1  0
  1 27  1  0
  1 28  1  0
  4 29  1  0
  6 30  1  0
  7 31  1  0
  8 32  1  0
 10 33  1  0
 14 34  1  0
 16 35  1  0
 16 36  1  0
 16 37  1  0
 18 38  1  0
 19 39  1  0
 20 40  1  0
 21 41  1  0
 25 42  1  0
M  END
$$$$
