
     RDKit          3D

 37 38  0  0  0  0  0  0  0  0999 V2000
    0.4978   -1.5905   -2.2760 O   0  0  0  0  0  0  0  0  0  0  0  0
    0.1474   -1.2158   -1.1608 C   0  0  0  0  0  0  0  0  0  0  0  0
   -1.3329   -1.2333   -0.7381 C   0  0  0  0  0  0  0  0  0  0  0  0
   -2.0667   -0.0721   -1.2783 N   0  0  0  0  0  0  0  0  0  0  0  0
   -3.5220   -0.2601   -1.1817 C   0  0  0  0  0  0  0  0  0  0  0  0
   -4.0682   -0.1170    0.2414 C   0  0  0  0  0  0  0  0  0  0  0  0
   -3.6516    1.2129    0.8619 C   0  0  0  0  0  0  0  0  0  0  0  0
   -2.1461    1.4256    0.7394 C   0  0  0  0  0  0  0  0  0  0  0  0
   -1.6734    1.2202   -0.7022 C   0  0  0  0  0  0  0  0  0  0  0  0
    0.9814   -0.7462   -0.1518 N   0  0  0  0  0  0  0  0  0  0  0  0
    2.3901   -0.5998   -0.1714 C   0  0  0  0  0  0  0  0  0  0  0  0
    3.1615   -1.0056   -1.2690 C   0  0  0  0  0  0  0  0  0  0  0  0
    4.5522   -0.8592   -1.2755 C   0  0  0  0  0  0  0  0  0  0  0  0
    5.2010   -0.3040   -0.1821 C   0  0  0  0  0  0  0  0  0  0  0  0
    4.4554    0.1048    0.9189 C   0  0  0  0  0  0  0  0  0  0  0  0
    3.0498   -0.0353    0.9420 C   0  0  0  0  0  0  0  0  0  0  0  0
    2.3403    0.4459    2.1820 C   0  0  0  0  0  0  0  0  0  0  0  0
    0.9841    0.2768    2.1526 F   0  0  0  0  0  0  0  0  0  0  0  0
    2.7605   -0.1947    3.3086 F   0  0  0  0  0  0  0  0  0  0  0  0
    2.5340    1.7742    2.4146 F   0  0  0  0  0  0  0  0  0  0  0  0
   -1.7423   -2.1646   -1.1513 H   0  0  0  0  0  0  0  0  0  0  0  0
   -1.4180   -1.3171    0.3509 H   0  0  0  0  0  0  0  0  0  0  0  0
   -3.8104   -1.2345   -1.5944 H   0  0  0  0  0  0  0  0  0  0  0  0
   -4.0098    0.4831   -1.8259 H   0  0  0  0  0  0  0  0  0  0  0  0
   -3.7111   -0.9432    0.8677 H   0  0  0  0  0  0  0  0  0  0  0  0
   -5.1619   -0.1856    0.2234 H   0  0  0  0  0  0  0  0  0  0  0  0
   -4.1761    2.0304    0.3515 H   0  0  0  0  0  0  0  0  0  0  0  0
   -3.9522    1.2480    1.9148 H   0  0  0  0  0  0  0  0  0  0  0  0
   -1.8929    2.4404    1.0670 H   0  0  0  0  0  0  0  0  0  0  0  0
   -1.6214    0.7380    1.4127 H   0  0  0  0  0  0  0  0  0  0  0  0
   -0.5903    1.3688   -0.7638 H   0  0  0  0  0  0  0  0  0  0  0  0
   -2.1005    2.0159   -1.3273 H   0  0  0  0  0  0  0  0  0  0  0  0
    0.5033   -0.4254    0.6852 H   0  0  0  0  0  0  0  0  0  0  0  0
    2.7113   -1.4488   -2.1524 H   0  0  0  0  0  0  0  0  0  0  0  0
    5.1222   -1.1833   -2.1432 H   0  0  0  0  0  0  0  0  0  0  0  0
    6.2821   -0.1899   -0.1879 H   0  0  0  0  0  0  0  0  0  0  0  0
    4.9733    0.5410    1.7732 H   0  0  0  0  0  0  0  0  0  0  0  0
  1  2  2  0
  2  3  1  0
  3  4  1  0
  4  5  1  0
  5  6  1  0
  6  7  1  0
  7  8  1  0
  8  9  1  0
  2 10  1  0
 10 11  1  0
 11 12  2  0
 12 13  1  0
 13 14  2  0
 14 15  1  0
 15 16  2  0
 16 17  1  0
 17 18  1  0
 17 19  1  0
 17 20  1  0
  9  4  1  0
 16 11  1  0
  3 21  1  0
  3 22  1  0
  5 23  1  0
  5 24  1  0
  6 25  1  0
  6 26  1  0
  7 27  1  0
  7 28  1  0
  8 29  1  0
  8 30  1  0
  9 31  1  0
  9 32  1  0
 10 33  1  0
 12 34  1  0
 13 35  1  0
 14 36  1  0
 15 37  1  0
M  END
$$$$
