
     RDKit          3D

 50 53  0  0  0  0  0  0  0  0999 V2000
    1.4491   -0.2802   -0.9172 O   0  0  0  0  0  0  0  0  0  0  0  0
    0.9997   -0.7474    0.1242 C   0  0  0  0  0  0  0  0  0  0  0  0
    1.7936   -1.1395    1.1823 N   0  0  0  0  0  0  0  0  0  0  0  0
    3.2415   -1.0696    1.0904 C   0  0  0  0  0  0  0  0  0  0  0  0
    3.7665    0.3560    1.2556 C   0  0  0  0  0  0  0  0  0  0  0  0
    5.2297    0.4207    0.9761 C   0  0  0  0  0  0  0  0  0  0  0  0
    6.1841    0.3010    1.8827 N   0  0  0  0  0  0  0  0  0  0  0  0
    7.3663    0.4274    1.1991 C   0  0  0  0  0  0  0  0  0  0  0  0
    7.1375    0.6173   -0.1423 C   0  0  0  0  0  0  0  0  0  0  0  0
    7.9363    0.8067   -1.3037 C   0  0  0  0  0  0  0  0  0  0  0  0
    7.3332    0.9756   -2.4983 C   0  0  0  0  0  0  0  0  0  0  0  0
    5.8841    0.9584   -2.6298 C   0  0  0  0  0  0  0  0  0  0  0  0
    5.1310    0.7755   -1.5307 C   0  0  0  0  0  0  0  0  0  0  0  0
    5.7562    0.6113   -0.2913 N   0  0  0  0  0  0  0  0  0  0  0  0
   -0.4665   -0.9415    0.2874 C   0  0  0  0  0  0  0  0  0  0  0  0
   -1.0882   -0.8660    1.5425 C   0  0  0  0  0  0  0  0  0  0  0  0
   -2.4705   -1.0430    1.6507 C   0  0  0  0  0  0  0  0  0  0  0  0
   -3.2252   -1.2892    0.5009 C   0  0  0  0  0  0  0  0  0  0  0  0
   -4.9837   -1.5096    0.6179 S   0  0  0  0  0  6  0  0  0  0  0  0
   -5.3080   -2.7469   -0.0601 O   0  0  0  0  0  0  0  0  0  0  0  0
   -5.3827   -1.2769    1.9910 O   0  0  0  0  0  0  0  0  0  0  0  0
   -5.5780   -0.2197   -0.3121 N   0  0  0  0  0  0  0  0  0  0  0  0
   -5.2556    1.1562    0.1475 C   0  0  0  0  0  0  0  0  0  0  0  0
   -6.3826    2.0057   -0.4194 C   0  0  0  0  0  0  0  0  0  0  0  0
   -7.5822    1.0959   -0.2479 C   0  0  0  0  0  0  0  0  0  0  0  0
   -7.0358   -0.2783   -0.6166 C   0  0  0  0  0  0  0  0  0  0  0  0
   -2.6163   -1.3614   -0.7552 C   0  0  0  0  0  0  0  0  0  0  0  0
   -1.2367   -1.1775   -0.8605 C   0  0  0  0  0  0  0  0  0  0  0  0
    1.3933   -1.6725    1.9425 H   0  0  0  0  0  0  0  0  0  0  0  0
    3.6498   -1.7204    1.8728 H   0  0  0  0  0  0  0  0  0  0  0  0
    3.5400   -1.4910    0.1233 H   0  0  0  0  0  0  0  0  0  0  0  0
    3.5803    0.6918    2.2840 H   0  0  0  0  0  0  0  0  0  0  0  0
    3.2245    1.0600    0.6153 H   0  0  0  0  0  0  0  0  0  0  0  0
    8.3182    0.3748    1.7111 H   0  0  0  0  0  0  0  0  0  0  0  0
    9.0179    0.8185   -1.2170 H   0  0  0  0  0  0  0  0  0  0  0  0
    7.9202    1.1263   -3.4007 H   0  0  0  0  0  0  0  0  0  0  0  0
    5.4417    1.0923   -3.6121 H   0  0  0  0  0  0  0  0  0  0  0  0
    4.0481    0.7479   -1.5648 H   0  0  0  0  0  0  0  0  0  0  0  0
   -0.5163   -0.6446    2.4399 H   0  0  0  0  0  0  0  0  0  0  0  0
   -2.9476   -0.9835    2.6269 H   0  0  0  0  0  0  0  0  0  0  0  0
   -5.2532    1.2190    1.2409 H   0  0  0  0  0  0  0  0  0  0  0  0
   -4.2849    1.4783   -0.2368 H   0  0  0  0  0  0  0  0  0  0  0  0
   -6.2105    2.2112   -1.4830 H   0  0  0  0  0  0  0  0  0  0  0  0
   -6.4932    2.9593    0.1045 H   0  0  0  0  0  0  0  0  0  0  0  0
   -7.9091    1.1009    0.8000 H   0  0  0  0  0  0  0  0  0  0  0  0
   -8.4335    1.3882   -0.8717 H   0  0  0  0  0  0  0  0  0  0  0  0
   -7.5601   -1.0651   -0.0648 H   0  0  0  0  0  0  0  0  0  0  0  0
   -7.1531   -0.4701   -1.6900 H   0  0  0  0  0  0  0  0  0  0  0  0
   -3.2103   -1.5564   -1.6456 H   0  0  0  0  0  0  0  0  0  0  0  0
   -0.7592   -1.2260   -1.8380 H   0  0  0  0  0  0  0  0  0  0  0  0
  1  2  2  0
  2  3  1  0
  3  4  1  0
  4  5  1  0
  5  6  1  0
  6  7  2  0
  7  8  1  0
  8  9  2  0
  9 10  1  0
 10 11  2  0
 11 12  1  0
 12 13  2  0
 13 14  1  0
  2 15  1  0
 15 16  2  0
 16 17  1  0
 17 18  2  0
 18 19  1  0
 19 20  2  0
 19 21  2  0
 19 22  1  0
 22 23  1  0
 23 24  1  0
 24 25  1  0
 25 26  1  0
 18 27  1  0
 27 28  2  0
 14  6  1  0
 28 15  1  0
 14  9  1  0
 26 22  1  0
  3 29  1  0
  4 30  1  0
  4 31  1  0
  5 32  1  0
  5 33  1  0
  8 34  1  0
 10 35  1  0
 11 36  1  0
 12 37  1  0
 13 38  1  0
 16 39  1  0
 17 40  1  0
 23 41  1  0
 23 42  1  0
 24 43  1  0
 24 44  1  0
 25 45  1  0
 25 46  1  0
 26 47  1  0
 26 48  1  0
 27 49  1  0
 28 50  1  0
M  END
$$$$
