
     RDKit          3D

 55 57  0  0  0  0  0  0  0  0999 V2000
    5.9216   -2.6594    1.4393 C   0  0  0  0  0  0  0  0  0  0  0  0
    5.0256   -1.5503    1.9546 C   0  0  0  0  0  0  0  0  0  0  0  0
    4.1373   -1.0675    0.9220 N   0  0  0  0  0  0  0  0  0  0  0  0
    3.4518    0.1188    1.0618 C   0  0  0  0  0  0  0  0  0  0  0  0
    3.6681    0.8994    1.9845 O   0  0  0  0  0  0  0  0  0  0  0  0
    2.4199    0.4505    0.0240 C   0  0  0  0  0  0  0  0  0  0  0  0
    1.9386    1.7726    0.0329 C   0  0  0  0  0  0  0  0  0  0  0  0
    0.9702    2.1742   -0.8888 C   0  0  0  0  0  0  0  0  0  0  0  0
    0.3329    3.8361   -0.8278 S   0  0  0  0  0  6  0  0  0  0  0  0
   -0.2699    4.1217   -2.1123 O   0  0  0  0  0  0  0  0  0  0  0  0
    1.3785    4.6786   -0.2898 O   0  0  0  0  0  0  0  0  0  0  0  0
   -0.8928    3.7758    0.3603 N   0  0  0  0  0  0  0  0  0  0  0  0
   -1.7594    2.6692    0.2288 C   0  0  0  0  0  0  0  0  0  0  0  0
   -2.7776    2.5591   -0.6313 C   0  0  0  0  0  0  0  0  0  0  0  0
   -3.2989    3.5975   -1.5709 C   0  0  0  0  0  0  0  0  0  0  0  0
   -3.3838    1.2893   -0.5400 N   0  0  0  0  0  0  0  0  0  0  0  0
   -4.8425    1.2239   -0.3419 C   0  0  0  0  0  0  0  0  0  0  0  0
   -2.6396    0.5643    0.4567 N   0  0  0  0  0  0  0  0  0  0  0  0
   -2.5371   -0.8521    0.4102 C   0  0  0  0  0  0  0  0  0  0  0  0
   -1.8487   -1.5547    1.4091 C   0  0  0  0  0  0  0  0  0  0  0  0
   -1.7431   -2.9490    1.3684 C   0  0  0  0  0  0  0  0  0  0  0  0
   -2.3215   -3.6638    0.3240 C   0  0  0  0  0  0  0  0  0  0  0  0
   -3.0014   -2.9845   -0.6820 C   0  0  0  0  0  0  0  0  0  0  0  0
   -3.1069   -1.5904   -0.6387 C   0  0  0  0  0  0  0  0  0  0  0  0
   -1.6661    1.4110    1.0057 C   0  0  0  0  0  0  0  0  0  0  0  0
   -0.8183    1.2314    1.8643 O   0  0  0  0  0  0  0  0  0  0  0  0
    0.5080    1.2891   -1.8620 C   0  0  0  0  0  0  0  0  0  0  0  0
    0.9707   -0.0277   -1.8697 C   0  0  0  0  0  0  0  0  0  0  0  0
    1.9049   -0.4670   -0.9178 C   0  0  0  0  0  0  0  0  0  0  0  0
    2.3633   -1.7617   -0.8855 O   0  0  0  0  0  0  0  0  0  0  0  0
    1.4901   -2.7575   -1.4131 C   0  0  0  0  0  0  0  0  0  0  0  0
    6.5388   -2.3079    0.6059 H   0  0  0  0  0  0  0  0  0  0  0  0
    5.3290   -3.5076    1.0804 H   0  0  0  0  0  0  0  0  0  0  0  0
    6.5849   -3.0158    2.2332 H   0  0  0  0  0  0  0  0  0  0  0  0
    4.4057   -1.9136    2.7811 H   0  0  0  0  0  0  0  0  0  0  0  0
    5.6292   -0.7164    2.3285 H   0  0  0  0  0  0  0  0  0  0  0  0
    3.7745   -1.7264    0.2402 H   0  0  0  0  0  0  0  0  0  0  0  0
    2.3153    2.4800    0.7712 H   0  0  0  0  0  0  0  0  0  0  0  0
   -0.4172    3.7917    1.2690 H   0  0  0  0  0  0  0  0  0  0  0  0
   -3.1690    3.2694   -2.6069 H   0  0  0  0  0  0  0  0  0  0  0  0
   -4.3638    3.7813   -1.3978 H   0  0  0  0  0  0  0  0  0  0  0  0
   -2.7927    4.5595   -1.4502 H   0  0  0  0  0  0  0  0  0  0  0  0
   -5.3612    1.6159   -1.2227 H   0  0  0  0  0  0  0  0  0  0  0  0
   -5.1425    1.8099    0.5342 H   0  0  0  0  0  0  0  0  0  0  0  0
   -5.1888    0.1967   -0.1952 H   0  0  0  0  0  0  0  0  0  0  0  0
   -1.3960   -1.0367    2.2514 H   0  0  0  0  0  0  0  0  0  0  0  0
   -1.2111   -3.4720    2.1595 H   0  0  0  0  0  0  0  0  0  0  0  0
   -2.2422   -4.7475    0.2955 H   0  0  0  0  0  0  0  0  0  0  0  0
   -3.4495   -3.5366   -1.5043 H   0  0  0  0  0  0  0  0  0  0  0  0
   -3.6198   -1.0911   -1.4561 H   0  0  0  0  0  0  0  0  0  0  0  0
   -0.2233    1.6057   -2.6036 H   0  0  0  0  0  0  0  0  0  0  0  0
    0.5863   -0.6926   -2.6377 H   0  0  0  0  0  0  0  0  0  0  0  0
    1.8523   -3.7315   -1.0706 H   0  0  0  0  0  0  0  0  0  0  0  0
    0.4661   -2.6345   -1.0465 H   0  0  0  0  0  0  0  0  0  0  0  0
    1.5213   -2.7568   -2.5068 H   0  0  0  0  0  0  0  0  0  0  0  0
  1  2  1  0
  2  3  1  0
  3  4  1  0
  4  5  2  0
  4  6  1  0
  6  7  2  0
  7  8  1  0
  8  9  1  0
  9 10  2  0
  9 11  2  0
  9 12  1  0
 12 13  1  0
 13 14  2  0
 14 15  1  0
 14 16  1  0
 16 17  1  0
 16 18  1  0
 18 19  1  0
 19 20  2  0
 20 21  1  0
 21 22  2  0
 22 23  1  0
 23 24  2  0
 18 25  1  0
 25 26  2  0
  8 27  2  0
 27 28  1  0
 28 29  2  0
 29 30  1  0
 30 31  1  0
 29  6  1  0
 25 13  1  0
 24 19  1  0
  1 32  1  0
  1 33  1  0
  1 34  1  0
  2 35  1  0
  2 36  1  0
  3 37  1  0
  7 38  1  0
 12 39  1  0
 15 40  1  0
 15 41  1  0
 15 42  1  0
 17 43  1  0
 17 44  1  0
 17 45  1  0
 20 46  1  0
 21 47  1  0
 22 48  1  0
 23 49  1  0
 24 50  1  0
 27 51  1  0
 28 52  1  0
 31 53  1  0
 31 54  1  0
 31 55  1  0
M  END
$$$$
