
     RDKit          3D

 48 50  0  0  0  0  0  0  0  0999 V2000
    2.0504   -2.1929    1.4144 O   0  0  0  0  0  0  0  0  0  0  0  0
    1.2569   -1.3058    1.1206 C   0  0  0  0  0  0  0  0  0  0  0  0
    1.6469   -0.0083    0.8567 N   0  0  0  0  0  0  0  0  0  0  0  0
    3.0462    0.3782    0.9199 C   0  0  0  0  0  0  0  0  0  0  0  0
    3.8217   -0.0456   -0.3299 C   0  0  0  0  0  0  0  0  0  0  0  0
    5.2651    0.3896   -0.2670 C   0  0  0  0  0  0  0  0  0  0  0  0
    5.6773    1.5880   -0.8687 C   0  0  0  0  0  0  0  0  0  0  0  0
    7.0112    1.9912   -0.7905 C   0  0  0  0  0  0  0  0  0  0  0  0
    7.9289    1.2003   -0.1096 C   0  0  0  0  0  0  0  0  0  0  0  0
    9.2082    1.5904   -0.0355 F   0  0  0  0  0  0  0  0  0  0  0  0
    7.5389    0.0126    0.4966 C   0  0  0  0  0  0  0  0  0  0  0  0
    6.2062   -0.3932    0.4199 C   0  0  0  0  0  0  0  0  0  0  0  0
   -0.1971   -1.6175    0.9977 C   0  0  0  0  0  0  0  0  0  0  0  0
   -0.5688   -2.9580    0.8115 C   0  0  0  0  0  0  0  0  0  0  0  0
   -1.9151   -3.3202    0.7237 C   0  0  0  0  0  0  0  0  0  0  0  0
   -2.9054   -2.3455    0.8182 C   0  0  0  0  0  0  0  0  0  0  0  0
   -2.5376   -1.0075    0.9860 C   0  0  0  0  0  0  0  0  0  0  0  0
   -3.7990    0.2363    1.1484 S   0  0  0  0  0  6  0  0  0  0  0  0
   -5.0403   -0.4310    1.4705 O   0  0  0  0  0  0  0  0  0  0  0  0
   -3.2596    1.2568    2.0265 O   0  0  0  0  0  0  0  0  0  0  0  0
   -3.9429    0.9634   -0.4768 C   0  0  0  0  0  0  0  0  0  0  0  0
   -4.9624    2.1131   -0.4869 C   0  0  0  0  0  0  0  0  0  0  0  0
   -6.3543    1.4940   -0.5685 C   0  0  0  0  0  0  0  0  0  0  0  0
   -6.1589    0.0868   -1.6461 S   0  0  0  0  0  6  0  0  0  0  0  0
   -6.4962    0.4972   -2.9939 O   0  0  0  0  0  0  0  0  0  0  0  0
   -6.7310   -1.0919   -1.0371 O   0  0  0  0  0  0  0  0  0  0  0  0
   -4.3821   -0.0225   -1.5498 C   0  0  0  0  0  0  0  0  0  0  0  0
   -1.1910   -0.6367    1.0991 C   0  0  0  0  0  0  0  0  0  0  0  0
    0.9979    0.6545    0.4609 H   0  0  0  0  0  0  0  0  0  0  0  0
    3.0708    1.4671    1.0401 H   0  0  0  0  0  0  0  0  0  0  0  0
    3.4897   -0.0656    1.8191 H   0  0  0  0  0  0  0  0  0  0  0  0
    3.7783   -1.1340   -0.4629 H   0  0  0  0  0  0  0  0  0  0  0  0
    3.3460    0.3762   -1.2248 H   0  0  0  0  0  0  0  0  0  0  0  0
    4.9649    2.2125   -1.4027 H   0  0  0  0  0  0  0  0  0  0  0  0
    7.3407    2.9149   -1.2551 H   0  0  0  0  0  0  0  0  0  0  0  0
    8.2721   -0.5886    1.0243 H   0  0  0  0  0  0  0  0  0  0  0  0
    5.9032   -1.3236    0.8978 H   0  0  0  0  0  0  0  0  0  0  0  0
    0.1958   -3.7322    0.7509 H   0  0  0  0  0  0  0  0  0  0  0  0
   -2.1880   -4.3663    0.5985 H   0  0  0  0  0  0  0  0  0  0  0  0
   -3.9530   -2.6419    0.7743 H   0  0  0  0  0  0  0  0  0  0  0  0
   -2.9433    1.3522   -0.7040 H   0  0  0  0  0  0  0  0  0  0  0  0
   -4.8754    2.7708    0.3835 H   0  0  0  0  0  0  0  0  0  0  0  0
   -4.7924    2.7274   -1.3803 H   0  0  0  0  0  0  0  0  0  0  0  0
   -7.0861    2.1822   -0.9975 H   0  0  0  0  0  0  0  0  0  0  0  0
   -6.7100    1.1453    0.4030 H   0  0  0  0  0  0  0  0  0  0  0  0
   -3.9953    0.2899   -2.5256 H   0  0  0  0  0  0  0  0  0  0  0  0
   -4.0980   -1.0595   -1.3732 H   0  0  0  0  0  0  0  0  0  0  0  0
   -0.9342    0.3973    1.3115 H   0  0  0  0  0  0  0  0  0  0  0  0
  1  2  2  0
  2  3  1  0
  3  4  1  0
  4  5  1  0
  5  6  1  0
  6  7  2  0
  7  8  1  0
  8  9  2  0
  9 10  1  0
  9 11  1  0
 11 12  2  0
  2 13  1  0
 13 14  2  0
 14 15  1  0
 15 16  2  0
 16 17  1  0
 17 18  1  0
 18 19  2  0
 18 20  2  0
 18 21  1  0
 21 22  1  0
 22 23  1  0
 23 24  1  0
 24 25  2  0
 24 26  2  0
 24 27  1  0
 17 28  2  0
 12  6  1  0
 28 13  1  0
 27 21  1  0
  3 29  1  0
  4 30  1  0
  4 31  1  0
  5 32  1  0
  5 33  1  0
  7 34  1  0
  8 35  1  0
 11 36  1  0
 12 37  1  0
 14 38  1  0
 15 39  1  0
 16 40  1  0
 21 41  1  0
 22 42  1  0
 22 43  1  0
 23 44  1  0
 23 45  1  0
 27 46  1  0
 27 47  1  0
 28 48  1  0
M  END
$$$$
