
     RDKit          3D

 56 59  0  0  0  0  0  0  0  0999 V2000
    9.2767   -0.3034   -0.7870 C   0  0  0  0  0  0  0  0  0  0  0  0
    8.6610    0.3117    0.3371 O   0  0  0  0  0  0  0  0  0  0  0  0
    7.2958    0.2434    0.4422 C   0  0  0  0  0  0  0  0  0  0  0  0
    6.4734   -0.5363   -0.3828 C   0  0  0  0  0  0  0  0  0  0  0  0
    5.0768   -0.5567   -0.2129 C   0  0  0  0  0  0  0  0  0  0  0  0
    4.2331   -1.2873   -1.0048 O   0  0  0  0  0  0  0  0  0  0  0  0
    4.7831   -2.0541   -2.0667 C   0  0  0  0  0  0  0  0  0  0  0  0
    4.4970    0.2185    0.8075 C   0  0  0  0  0  0  0  0  0  0  0  0
    3.0313    0.2846    1.0721 C   0  0  0  0  0  0  0  0  0  0  0  0
    2.4987    1.2177    1.8033 N   0  0  0  0  0  0  0  0  0  0  0  0
    1.1087    0.9832    1.8417 O   0  0  0  0  0  0  0  0  0  0  0  0
    0.8765   -0.3620    1.4071 C   0  0  0  0  0  0  0  0  0  0  0  0
   -0.4589   -0.4598    0.6680 C   0  0  0  0  0  0  0  0  0  0  0  0
   -0.6364   -1.2716   -0.2315 O   0  0  0  0  0  0  0  0  0  0  0  0
   -1.3916    0.4485    1.1405 N   0  0  0  0  0  0  0  0  0  0  0  0
   -2.7138    0.5227    0.7936 C   0  0  0  0  0  0  0  0  0  0  0  0
   -3.5142    1.5992    0.8962 C   0  0  0  0  0  0  0  0  0  0  0  0
   -3.1296    2.9662    1.3692 C   0  0  0  0  0  0  0  0  0  0  0  0
   -4.8299    1.3543    0.4716 N   0  0  0  0  0  0  0  0  0  0  0  0
   -5.9227    1.6751    1.4103 C   0  0  0  0  0  0  0  0  0  0  0  0
   -4.8405   -0.0018    0.0290 N   0  0  0  0  0  0  0  0  0  0  0  0
   -5.8210   -0.4871   -0.8754 C   0  0  0  0  0  0  0  0  0  0  0  0
   -5.9075   -1.8519   -1.1864 C   0  0  0  0  0  0  0  0  0  0  0  0
   -6.8746   -2.3300   -2.0776 C   0  0  0  0  0  0  0  0  0  0  0  0
   -7.7680   -1.4489   -2.6797 C   0  0  0  0  0  0  0  0  0  0  0  0
   -7.6909   -0.0884   -2.3957 C   0  0  0  0  0  0  0  0  0  0  0  0
   -6.7240    0.3868   -1.5033 C   0  0  0  0  0  0  0  0  0  0  0  0
   -3.5943   -0.5928    0.2980 C   0  0  0  0  0  0  0  0  0  0  0  0
   -3.2652   -1.7635    0.1984 O   0  0  0  0  0  0  0  0  0  0  0  0
    2.0541   -0.6985    0.5248 C   0  0  0  0  0  0  0  0  0  0  0  0
    5.3210    0.9977    1.6349 C   0  0  0  0  0  0  0  0  0  0  0  0
    6.7048    1.0050    1.4570 C   0  0  0  0  0  0  0  0  0  0  0  0
    7.6556    1.9838    2.5203 Cl  0  0  0  0  0  0  0  0  0  0  0  0
    9.1746   -1.3933   -0.7425 H   0  0  0  0  0  0  0  0  0  0  0  0
    8.8772    0.0948   -1.7262 H   0  0  0  0  0  0  0  0  0  0  0  0
   10.3453   -0.0676   -0.7538 H   0  0  0  0  0  0  0  0  0  0  0  0
    6.9252   -1.1336   -1.1635 H   0  0  0  0  0  0  0  0  0  0  0  0
    5.4605   -2.8258   -1.6883 H   0  0  0  0  0  0  0  0  0  0  0  0
    5.2823   -1.4108   -2.7979 H   0  0  0  0  0  0  0  0  0  0  0  0
    3.9556   -2.5587   -2.5740 H   0  0  0  0  0  0  0  0  0  0  0  0
    0.8335   -1.0089    2.2924 H   0  0  0  0  0  0  0  0  0  0  0  0
   -0.9888    1.2425    1.6281 H   0  0  0  0  0  0  0  0  0  0  0  0
   -2.0475    3.0913    1.4627 H   0  0  0  0  0  0  0  0  0  0  0  0
   -3.5736    3.1749    2.3459 H   0  0  0  0  0  0  0  0  0  0  0  0
   -3.4809    3.7210    0.6614 H   0  0  0  0  0  0  0  0  0  0  0  0
   -6.9056    1.4196    1.0047 H   0  0  0  0  0  0  0  0  0  0  0  0
   -5.9356    2.7498    1.6223 H   0  0  0  0  0  0  0  0  0  0  0  0
   -5.7950    1.1331    2.3547 H   0  0  0  0  0  0  0  0  0  0  0  0
   -5.2365   -2.5767   -0.7328 H   0  0  0  0  0  0  0  0  0  0  0  0
   -6.9223   -3.3940   -2.2993 H   0  0  0  0  0  0  0  0  0  0  0  0
   -8.5151   -1.8211   -3.3756 H   0  0  0  0  0  0  0  0  0  0  0  0
   -8.3733    0.6085   -2.8763 H   0  0  0  0  0  0  0  0  0  0  0  0
   -6.6654    1.4595   -1.3356 H   0  0  0  0  0  0  0  0  0  0  0  0
    2.3703   -1.7373    0.6499 H   0  0  0  0  0  0  0  0  0  0  0  0
    1.8656   -0.4752   -0.5304 H   0  0  0  0  0  0  0  0  0  0  0  0
    4.8851    1.6037    2.4267 H   0  0  0  0  0  0  0  0  0  0  0  0
  1  2  1  0
  2  3  1  0
  3  4  2  0
  4  5  1  0
  5  6  1  0
  6  7  1  0
  5  8  2  0
  8  9  1  0
  9 10  2  0
 10 11  1  0
 11 12  1  0
 12 13  1  0
 13 14  2  0
 13 15  1  0
 15 16  1  0
 16 17  2  0
 17 18  1  0
 17 19  1  0
 19 20  1  0
 19 21  1  0
 21 22  1  0
 22 23  2  0
 23 24  1  0
 24 25  2  0
 25 26  1  0
 26 27  2  0
 21 28  1  0
 28 29  2  0
 12 30  1  0
  8 31  1  0
 31 32  2  0
 32 33  1  0
 32  3  1  0
 30  9  1  0
 28 16  1  0
 27 22  1  0
  1 34  1  0
  1 35  1  0
  1 36  1  0
  4 37  1  0
  7 38  1  0
  7 39  1  0
  7 40  1  0
 12 41  1  0
 15 42  1  0
 18 43  1  0
 18 44  1  0
 18 45  1  0
 20 46  1  0
 20 47  1  0
 20 48  1  0
 23 49  1  0
 24 50  1  0
 25 51  1  0
 26 52  1  0
 27 53  1  0
 30 54  1  0
 30 55  1  0
 31 56  1  0
M  END
$$$$
