
     RDKit          3D

 34 35  0  0  0  0  0  0  0  0999 V2000
    5.9491    0.8876    0.7625 C   0  0  0  0  0  0  0  0  0  0  0  0
    5.8551   -0.4689    1.1714 O   0  0  0  0  0  0  0  0  0  0  0  0
    5.2838   -1.3269    0.1787 C   0  0  0  0  0  0  0  0  0  0  0  0
    3.7927   -1.2970    0.2764 C   0  0  0  0  0  0  0  0  0  0  0  0
    3.0796   -1.9040    1.2042 N   0  0  0  0  0  0  0  0  0  0  0  0
    1.7199   -1.7240    1.0219 N   0  0  0  0  0  0  0  0  0  0  0  0
    1.4630   -0.9966   -0.0349 C   0  0  0  0  0  0  0  0  0  0  0  0
    0.2731   -0.5823   -0.5669 N   0  0  0  0  0  0  0  0  0  0  0  0
   -0.9402   -0.9209   -0.0044 C   0  0  0  0  0  0  0  0  0  0  0  0
   -1.1036   -1.6156    0.9911 O   0  0  0  0  0  0  0  0  0  0  0  0
   -2.1198   -0.3110   -0.7758 C   0  0  0  0  0  0  0  0  0  0  0  0
   -3.4697   -0.9070   -0.3337 C   0  0  0  0  0  0  0  0  0  0  0  0
   -4.1129   -0.0951    0.7855 C   0  0  0  0  0  0  0  0  0  0  0  0
   -4.3965    1.3454    0.3581 C   0  0  0  0  0  0  0  0  0  0  0  0
   -3.4710    1.8455   -0.7503 C   0  0  0  0  0  0  0  0  0  0  0  0
   -2.0832    1.2247   -0.6542 C   0  0  0  0  0  0  0  0  0  0  0  0
    2.8389   -0.4761   -0.9025 S   0  0  0  0  0  0  0  0  0  0  0  0
    6.4531    1.4487    1.5543 H   0  0  0  0  0  0  0  0  0  0  0  0
    6.5412    0.9749   -0.1535 H   0  0  0  0  0  0  0  0  0  0  0  0
    4.9569    1.3220    0.6148 H   0  0  0  0  0  0  0  0  0  0  0  0
    5.6554   -1.0714   -0.8202 H   0  0  0  0  0  0  0  0  0  0  0  0
    5.6256   -2.3440    0.3996 H   0  0  0  0  0  0  0  0  0  0  0  0
    0.3180   -0.0190   -1.4013 H   0  0  0  0  0  0  0  0  0  0  0  0
   -1.9794   -0.5914   -1.8292 H   0  0  0  0  0  0  0  0  0  0  0  0
   -4.1526   -0.9175   -1.1935 H   0  0  0  0  0  0  0  0  0  0  0  0
   -3.3612   -1.9520   -0.0215 H   0  0  0  0  0  0  0  0  0  0  0  0
   -5.0455   -0.5707    1.1100 H   0  0  0  0  0  0  0  0  0  0  0  0
   -3.4479   -0.0901    1.6581 H   0  0  0  0  0  0  0  0  0  0  0  0
   -4.3103    1.9962    1.2368 H   0  0  0  0  0  0  0  0  0  0  0  0
   -5.4344    1.4336    0.0149 H   0  0  0  0  0  0  0  0  0  0  0  0
   -3.9069    1.6013   -1.7273 H   0  0  0  0  0  0  0  0  0  0  0  0
   -3.4018    2.9384   -0.7060 H   0  0  0  0  0  0  0  0  0  0  0  0
   -1.6240    1.5253    0.2969 H   0  0  0  0  0  0  0  0  0  0  0  0
   -1.4448    1.6379   -1.4448 H   0  0  0  0  0  0  0  0  0  0  0  0
  1  2  1  0
  2  3  1  0
  3  4  1  0
  4  5  2  0
  5  6  1  0
  6  7  2  0
  7  8  1  0
  8  9  1  0
  9 10  2  0
  9 11  1  0
 11 12  1  0
 12 13  1  0
 13 14  1  0
 14 15  1  0
 15 16  1  0
  7 17  1  0
 17  4  1  0
 16 11  1  0
  1 18  1  0
  1 19  1  0
  1 20  1  0
  3 21  1  0
  3 22  1  0
  8 23  1  0
 11 24  1  0
 12 25  1  0
 12 26  1  0
 13 27  1  0
 13 28  1  0
 14 29  1  0
 14 30  1  0
 15 31  1  0
 15 32  1  0
 16 33  1  0
 16 34  1  0
M  END
$$$$
