
     RDKit          3D

 34 35  0  0  0  0  0  0  0  0999 V2000
   -0.7554   -1.8111   -3.2371 C   0  0  0  0  0  0  0  0  0  0  0  0
   -0.2342   -1.1855   -2.0716 O   0  0  0  0  0  0  0  0  0  0  0  0
   -1.1364   -0.7409   -1.1347 C   0  0  0  0  0  0  0  0  0  0  0  0
   -2.5233   -0.8656   -1.2408 C   0  0  0  0  0  0  0  0  0  0  0  0
   -3.3544   -0.3783   -0.2265 C   0  0  0  0  0  0  0  0  0  0  0  0
   -2.8053    0.2378    0.9035 C   0  0  0  0  0  0  0  0  0  0  0  0
   -3.6628    0.7705    2.0066 C   0  0  0  0  0  0  0  0  0  0  0  0
   -5.1562    0.5884    1.9225 C   0  0  0  0  0  0  0  0  0  0  0  0
   -3.1525    1.3489    2.9630 O   0  0  0  0  0  0  0  0  0  0  0  0
   -1.4124    0.3648    1.0119 C   0  0  0  0  0  0  0  0  0  0  0  0
   -0.5760   -0.1198    0.0015 C   0  0  0  0  0  0  0  0  0  0  0  0
    0.8275   -0.0257    0.0500 N   0  0  0  0  0  0  0  0  0  0  0  0
    1.6203    0.5362    1.0171 C   0  0  0  0  0  0  0  0  0  0  0  0
    1.3104    1.0986    2.0560 O   0  0  0  0  0  0  0  0  0  0  0  0
    3.1085    0.4226    0.6784 C   0  0  0  0  0  0  0  0  0  0  0  0
    3.4941    0.0599   -0.5249 N   0  0  0  0  0  0  0  0  0  0  0  0
    4.9863    0.1283   -0.4360 C   0  0  0  0  0  0  0  0  0  0  0  0
    5.3151    0.9052    0.8472 C   0  0  0  0  0  0  0  0  0  0  0  0
    4.0933    0.7301    1.5879 N   0  0  0  0  0  0  0  0  0  0  0  0
    0.0907   -2.0966   -3.8695 H   0  0  0  0  0  0  0  0  0  0  0  0
   -1.3037   -2.7241   -2.9829 H   0  0  0  0  0  0  0  0  0  0  0  0
   -1.3807   -1.1190   -3.8105 H   0  0  0  0  0  0  0  0  0  0  0  0
   -2.9915   -1.3364   -2.0991 H   0  0  0  0  0  0  0  0  0  0  0  0
   -4.4279   -0.4923   -0.3470 H   0  0  0  0  0  0  0  0  0  0  0  0
   -5.4074   -0.4739    1.8661 H   0  0  0  0  0  0  0  0  0  0  0  0
   -5.6191    0.9953    2.8272 H   0  0  0  0  0  0  0  0  0  0  0  0
   -5.5560    1.1321    1.0627 H   0  0  0  0  0  0  0  0  0  0  0  0
   -0.9993    0.8452    1.8953 H   0  0  0  0  0  0  0  0  0  0  0  0
    1.3308   -0.4082   -0.7515 H   0  0  0  0  0  0  0  0  0  0  0  0
    5.3992    0.6268   -1.3183 H   0  0  0  0  0  0  0  0  0  0  0  0
    5.3822   -0.8926   -0.3924 H   0  0  0  0  0  0  0  0  0  0  0  0
    6.1856    0.4997    1.3692 H   0  0  0  0  0  0  0  0  0  0  0  0
    5.4792    1.9658    0.6294 H   0  0  0  0  0  0  0  0  0  0  0  0
    3.8311    1.4137    2.2932 H   0  0  0  0  0  0  0  0  0  0  0  0
  1  2  1  0
  2  3  1  0
  3  4  2  0
  4  5  1  0
  5  6  2  0
  6  7  1  0
  7  8  1  0
  7  9  2  0
  6 10  1  0
 10 11  2  0
 11 12  1  0
 12 13  1  0
 13 14  2  0
 13 15  1  0
 15 16  2  0
 16 17  1  0
 17 18  1  0
 18 19  1  0
 11  3  1  0
 19 15  1  0
  1 20  1  0
  1 21  1  0
  1 22  1  0
  4 23  1  0
  5 24  1  0
  8 25  1  0
  8 26  1  0
  8 27  1  0
 10 28  1  0
 12 29  1  0
 17 30  1  0
 17 31  1  0
 18 32  1  0
 18 33  1  0
 19 34  1  0
M  END
$$$$
