
     RDKit          3D

 50 51  0  0  0  0  0  0  0  0999 V2000
    7.9555    1.2061   -1.6926 C   0  0  0  0  0  0  0  0  0  0  0  0
    6.7004    0.6575   -1.0820 C   0  0  0  0  0  0  0  0  0  0  0  0
    6.7577   -0.4088   -0.1798 C   0  0  0  0  0  0  0  0  0  0  0  0
    5.5835   -0.9384    0.3606 C   0  0  0  0  0  0  0  0  0  0  0  0
    4.3369   -0.4201    0.0044 C   0  0  0  0  0  0  0  0  0  0  0  0
    3.2723   -1.0304    0.6070 O   0  0  0  0  0  0  0  0  0  0  0  0
    1.9766   -0.4972    0.3373 C   0  0  0  0  0  0  0  0  0  0  0  0
    0.9185   -1.2839    1.1325 C   0  0  0  0  0  0  0  0  0  0  0  0
    1.1699   -1.2010    2.6398 C   0  0  0  0  0  0  0  0  0  0  0  0
   -0.4296   -0.7999    0.8225 N   0  0  0  0  0  0  0  0  0  0  0  0
   -1.5258   -1.6328    0.9165 C   0  0  0  0  0  0  0  0  0  0  0  0
   -1.4282   -2.8319    1.1611 O   0  0  0  0  0  0  0  0  0  0  0  0
   -2.8816   -0.9763    0.6959 C   0  0  0  0  0  0  0  0  0  0  0  0
   -3.1852    0.0768    1.7662 C   0  0  0  0  0  0  0  0  0  0  0  0
   -4.5377    0.7347    1.5062 C   0  0  0  0  0  0  0  0  0  0  0  0
   -4.6364    1.2903    0.0879 C   0  0  0  0  0  0  0  0  0  0  0  0
   -4.2933    0.2698   -0.9347 N   0  0  0  0  0  0  0  0  0  0  0  0
   -5.5353   -0.7443   -1.5001 S   0  0  0  0  0  6  0  0  0  0  0  0
   -6.5002    0.3832   -2.4846 C   0  0  0  0  0  0  0  0  0  0  0  0
   -4.9500   -1.7079   -2.4069 O   0  0  0  0  0  0  0  0  0  0  0  0
   -6.3292   -1.1630   -0.3668 O   0  0  0  0  0  0  0  0  0  0  0  0
   -2.9669   -0.3696   -0.7017 C   0  0  0  0  0  0  0  0  0  0  0  0
    4.2739    0.6320   -0.9084 C   0  0  0  0  0  0  0  0  0  0  0  0
    5.4494    1.1640   -1.4515 C   0  0  0  0  0  0  0  0  0  0  0  0
    8.7988    1.1156   -0.9999 H   0  0  0  0  0  0  0  0  0  0  0  0
    8.1928    0.6626   -2.6122 H   0  0  0  0  0  0  0  0  0  0  0  0
    7.8423    2.2695   -1.9286 H   0  0  0  0  0  0  0  0  0  0  0  0
    7.7149   -0.8366    0.1091 H   0  0  0  0  0  0  0  0  0  0  0  0
    5.6419   -1.7656    1.0639 H   0  0  0  0  0  0  0  0  0  0  0  0
    1.7521   -0.5877   -0.7332 H   0  0  0  0  0  0  0  0  0  0  0  0
    1.9348    0.5617    0.6242 H   0  0  0  0  0  0  0  0  0  0  0  0
    0.9854   -2.3407    0.8449 H   0  0  0  0  0  0  0  0  0  0  0  0
    0.4156   -1.7695    3.1946 H   0  0  0  0  0  0  0  0  0  0  0  0
    1.1218   -0.1637    2.9896 H   0  0  0  0  0  0  0  0  0  0  0  0
    2.1520   -1.6060    2.9032 H   0  0  0  0  0  0  0  0  0  0  0  0
   -0.5775    0.1990    0.8647 H   0  0  0  0  0  0  0  0  0  0  0  0
   -3.6332   -1.7734    0.7786 H   0  0  0  0  0  0  0  0  0  0  0  0
   -3.1818   -0.3856    2.7606 H   0  0  0  0  0  0  0  0  0  0  0  0
   -2.4115    0.8536    1.7842 H   0  0  0  0  0  0  0  0  0  0  0  0
   -4.6951    1.5450    2.2272 H   0  0  0  0  0  0  0  0  0  0  0  0
   -5.3326    0.0021    1.6833 H   0  0  0  0  0  0  0  0  0  0  0  0
   -3.9428    2.1319   -0.0319 H   0  0  0  0  0  0  0  0  0  0  0  0
   -5.6368    1.6967   -0.0867 H   0  0  0  0  0  0  0  0  0  0  0  0
   -7.2885   -0.1936   -2.9740 H   0  0  0  0  0  0  0  0  0  0  0  0
   -5.8539    0.8356   -3.2390 H   0  0  0  0  0  0  0  0  0  0  0  0
   -6.9498    1.1415   -1.8431 H   0  0  0  0  0  0  0  0  0  0  0  0
   -2.7497   -1.1199   -1.4693 H   0  0  0  0  0  0  0  0  0  0  0  0
   -2.2045    0.4079   -0.8418 H   0  0  0  0  0  0  0  0  0  0  0  0
    3.3298    1.0588   -1.2279 H   0  0  0  0  0  0  0  0  0  0  0  0
    5.3804    1.9785   -2.1694 H   0  0  0  0  0  0  0  0  0  0  0  0
  1  2  1  0
  2  3  2  0
  3  4  1  0
  4  5  2  0
  5  6  1  0
  6  7  1  0
  7  8  1  0
  8  9  1  0
  8 10  1  0
 10 11  1  0
 11 12  2  0
 11 13  1  0
 13 14  1  0
 14 15  1  0
 15 16  1  0
 16 17  1  0
 17 18  1  0
 18 19  1  0
 18 20  2  0
 18 21  2  0
 17 22  1  0
  5 23  1  0
 23 24  2  0
 24  2  1  0
 22 13  1  0
  1 25  1  0
  1 26  1  0
  1 27  1  0
  3 28  1  0
  4 29  1  0
  7 30  1  0
  7 31  1  0
  8 32  1  0
  9 33  1  0
  9 34  1  0
  9 35  1  0
 10 36  1  0
 13 37  1  0
 14 38  1  0
 14 39  1  0
 15 40  1  0
 15 41  1  0
 16 42  1  0
 16 43  1  0
 19 44  1  0
 19 45  1  0
 19 46  1  0
 22 47  1  0
 22 48  1  0
 23 49  1  0
 24 50  1  0
M  END
$$$$
