
     RDKit          3D

 39 40  0  0  0  0  0  0  0  0999 V2000
    0.0384   -2.5656    1.2398 C   0  0  0  0  0  0  0  0  0  0  0  0
    0.8215   -1.4183    0.6047 C   0  0  0  0  0  0  0  0  0  0  0  0
    2.1794   -1.5605    1.0497 O   0  0  0  0  0  0  0  0  0  0  0  0
    3.0588   -0.9605    0.1856 C   0  0  0  0  0  0  0  0  0  0  0  0
    3.5006    0.3271    0.4950 C   0  0  0  0  0  0  0  0  0  0  0  0
    4.4205    0.9669   -0.3364 C   0  0  0  0  0  0  0  0  0  0  0  0
    4.9138    0.3136   -1.4660 C   0  0  0  0  0  0  0  0  0  0  0  0
    4.4947   -0.9857   -1.7611 C   0  0  0  0  0  0  0  0  0  0  0  0
    3.5737   -1.6285   -0.9309 C   0  0  0  0  0  0  0  0  0  0  0  0
    3.1029   -3.2436   -1.3177 Cl  0  0  0  0  0  0  0  0  0  0  0  0
    0.1776   -0.0819    1.0509 C   0  0  0  0  0  0  0  0  0  0  0  0
    0.5647    0.4858    2.0773 O   0  0  0  0  0  0  0  0  0  0  0  0
   -0.8591    0.4490    0.2707 N   0  0  0  0  0  0  0  0  0  0  0  0
   -1.3359   -0.1635   -0.9688 C   0  0  0  0  0  0  0  0  0  0  0  0
   -2.7167    0.2673   -1.4632 C   0  0  0  0  0  0  0  0  0  0  0  0
   -3.8149    0.1192   -0.4114 C   0  0  0  0  0  0  0  0  0  0  0  0
   -3.9343    1.3329    0.5087 C   0  0  0  0  0  0  0  0  0  0  0  0
   -2.7328    1.5770    1.4190 C   0  0  0  0  0  0  0  0  0  0  0  0
   -1.4136    1.7428    0.6702 C   0  0  0  0  0  0  0  0  0  0  0  0
   -1.0258   -2.5314    0.9905 H   0  0  0  0  0  0  0  0  0  0  0  0
    0.1280   -2.5375    2.3321 H   0  0  0  0  0  0  0  0  0  0  0  0
    0.4436   -3.5301    0.9152 H   0  0  0  0  0  0  0  0  0  0  0  0
    0.7765   -1.5161   -0.4848 H   0  0  0  0  0  0  0  0  0  0  0  0
    3.1301    0.8303    1.3856 H   0  0  0  0  0  0  0  0  0  0  0  0
    4.7581    1.9722   -0.0957 H   0  0  0  0  0  0  0  0  0  0  0  0
    5.6351    0.8115   -2.1095 H   0  0  0  0  0  0  0  0  0  0  0  0
    4.8973   -1.4940   -2.6334 H   0  0  0  0  0  0  0  0  0  0  0  0
   -1.3450   -1.2503   -0.8495 H   0  0  0  0  0  0  0  0  0  0  0  0
   -0.5918    0.0658   -1.7409 H   0  0  0  0  0  0  0  0  0  0  0  0
   -2.9696   -0.3668   -2.3225 H   0  0  0  0  0  0  0  0  0  0  0  0
   -2.6892    1.2940   -1.8465 H   0  0  0  0  0  0  0  0  0  0  0  0
   -3.6710   -0.7952    0.1760 H   0  0  0  0  0  0  0  0  0  0  0  0
   -4.7732    0.0076   -0.9342 H   0  0  0  0  0  0  0  0  0  0  0  0
   -4.1160    2.2299   -0.0968 H   0  0  0  0  0  0  0  0  0  0  0  0
   -4.8227    1.2051    1.1395 H   0  0  0  0  0  0  0  0  0  0  0  0
   -2.9283    2.4947    1.9873 H   0  0  0  0  0  0  0  0  0  0  0  0
   -2.6541    0.7636    2.1509 H   0  0  0  0  0  0  0  0  0  0  0  0
   -0.7075    2.2566    1.3321 H   0  0  0  0  0  0  0  0  0  0  0  0
   -1.5140    2.3853   -0.2115 H   0  0  0  0  0  0  0  0  0  0  0  0
  1  2  1  0
  2  3  1  0
  3  4  1  0
  4  5  2  0
  5  6  1  0
  6  7  2  0
  7  8  1  0
  8  9  2  0
  9 10  1  0
  2 11  1  0
 11 12  2  0
 11 13  1  0
 13 14  1  0
 14 15  1  0
 15 16  1  0
 16 17  1  0
 17 18  1  0
 18 19  1  0
  9  4  1  0
 19 13  1  0
  1 20  1  0
  1 21  1  0
  1 22  1  0
  2 23  1  0
  5 24  1  0
  6 25  1  0
  7 26  1  0
  8 27  1  0
 14 28  1  0
 14 29  1  0
 15 30  1  0
 15 31  1  0
 16 32  1  0
 16 33  1  0
 17 34  1  0
 17 35  1  0
 18 36  1  0
 18 37  1  0
 19 38  1  0
 19 39  1  0
M  END
$$$$
