
     RDKit          3D

 31 33  0  0  0  0  0  0  0  0999 V2000
    5.3963   -0.4084    0.3779 C   0  0  0  0  0  0  0  0  0  0  0  0
    3.8972   -0.4444    0.4327 C   0  0  0  0  0  0  0  0  0  0  0  0
    3.2402   -1.1937    1.4191 C   0  0  0  0  0  0  0  0  0  0  0  0
    1.8444   -1.2038    1.4930 C   0  0  0  0  0  0  0  0  0  0  0  0
    1.0949   -0.4560    0.5874 C   0  0  0  0  0  0  0  0  0  0  0  0
   -0.2695   -0.5073    0.7103 O   0  0  0  0  0  0  0  0  0  0  0  0
   -1.0468    0.2340   -0.1695 C   0  0  0  0  0  0  0  0  0  0  0  0
   -2.4932    0.1036    0.0842 C   0  0  0  0  0  0  0  0  0  0  0  0
   -3.3808   -0.2826   -0.9319 C   0  0  0  0  0  0  0  0  0  0  0  0
   -4.7476   -0.4236   -0.6701 C   0  0  0  0  0  0  0  0  0  0  0  0
   -5.2447   -0.1852    0.6106 C   0  0  0  0  0  0  0  0  0  0  0  0
   -4.3749    0.1945    1.6305 C   0  0  0  0  0  0  0  0  0  0  0  0
   -3.0138    0.3339    1.3638 C   0  0  0  0  0  0  0  0  0  0  0  0
   -2.2061    0.7077    2.3689 F   0  0  0  0  0  0  0  0  0  0  0  0
   -0.5472    1.0085   -1.1492 C   0  0  0  0  0  0  0  0  0  0  0  0
   -1.3186    1.7592   -2.0180 O   0  0  0  0  0  0  0  0  0  0  0  0
    0.9243    1.0853   -1.3164 C   0  0  0  0  0  0  0  0  0  0  0  0
    1.4001    1.7836   -2.2062 O   0  0  0  0  0  0  0  0  0  0  0  0
    1.7409    0.3011   -0.3835 C   0  0  0  0  0  0  0  0  0  0  0  0
    3.1371    0.3166   -0.4648 C   0  0  0  0  0  0  0  0  0  0  0  0
    5.8226   -1.3541    0.7288 H   0  0  0  0  0  0  0  0  0  0  0  0
    5.7457   -0.2560   -0.6487 H   0  0  0  0  0  0  0  0  0  0  0  0
    5.7739    0.4048    1.0052 H   0  0  0  0  0  0  0  0  0  0  0  0
    3.8135   -1.7758    2.1384 H   0  0  0  0  0  0  0  0  0  0  0  0
    1.3451   -1.7909    2.2598 H   0  0  0  0  0  0  0  0  0  0  0  0
   -3.0140   -0.4740   -1.9383 H   0  0  0  0  0  0  0  0  0  0  0  0
   -5.4233   -0.7186   -1.4696 H   0  0  0  0  0  0  0  0  0  0  0  0
   -6.3073   -0.2937    0.8122 H   0  0  0  0  0  0  0  0  0  0  0  0
   -4.7452    0.3856    2.6327 H   0  0  0  0  0  0  0  0  0  0  0  0
   -0.6703    2.2285   -2.5859 H   0  0  0  0  0  0  0  0  0  0  0  0
    3.6273    0.9210   -1.2260 H   0  0  0  0  0  0  0  0  0  0  0  0
  1  2  1  0
  2  3  2  0
  3  4  1  0
  4  5  2  0
  5  6  1  0
  6  7  1  0
  7  8  1  0
  8  9  2  0
  9 10  1  0
 10 11  2  0
 11 12  1  0
 12 13  2  0
 13 14  1  0
  7 15  2  0
 15 16  1  0
 15 17  1  0
 17 18  2  0
 17 19  1  0
 19 20  2  0
 20  2  1  0
 19  5  1  0
 13  8  1  0
  1 21  1  0
  1 22  1  0
  1 23  1  0
  3 24  1  0
  4 25  1  0
  9 26  1  0
 10 27  1  0
 11 28  1  0
 12 29  1  0
 16 30  1  0
 20 31  1  0
M  END
$$$$
