
     RDKit          3D

 39 40  0  0  0  0  0  0  0  0999 V2000
   -4.0143    2.3581    1.3536 C   0  0  0  0  0  0  0  0  0  0  0  0
   -2.7041    1.9071    0.7269 C   0  0  0  0  0  0  0  0  0  0  0  0
   -2.6850    0.4641    0.4864 N   0  0  0  0  0  0  0  0  0  0  0  0
   -3.1772   -0.0006   -0.8110 C   0  0  0  0  0  0  0  0  0  0  0  0
   -2.0840   -0.0028   -1.8682 C   0  0  0  0  0  0  0  0  0  0  0  0
   -2.2193   -0.3672    1.5079 C   0  0  0  0  0  0  0  0  0  0  0  0
   -1.9126    0.0952    2.6118 O   0  0  0  0  0  0  0  0  0  0  0  0
   -2.1561   -1.8695    1.2265 C   0  0  0  0  0  0  0  0  0  0  0  0
   -0.8780   -2.6889    2.2322 S   0  0  0  0  0  0  0  0  0  0  0  0
    0.5215   -1.9413    1.5610 C   0  0  0  0  0  0  0  0  0  0  0  0
    0.7213   -1.6200    0.3067 N   0  0  0  0  0  0  0  0  0  0  0  0
    1.9671   -1.0363    0.2951 C   0  0  0  0  0  0  0  0  0  0  0  0
    2.6913   -0.5012   -0.7830 C   0  0  0  0  0  0  0  0  0  0  0  0
    3.9551    0.0486   -0.5367 C   0  0  0  0  0  0  0  0  0  0  0  0
    4.7785    0.6059   -1.4804 O   0  0  0  0  0  0  0  0  0  0  0  0
    4.3038    0.6121   -2.8211 C   0  0  0  0  0  0  0  0  0  0  0  0
    4.4770    0.0611    0.7634 C   0  0  0  0  0  0  0  0  0  0  0  0
    3.7725   -0.4668    1.8527 C   0  0  0  0  0  0  0  0  0  0  0  0
    2.5194   -1.0084    1.5731 C   0  0  0  0  0  0  0  0  0  0  0  0
    1.5661   -1.5973    2.3640 N   0  0  0  0  0  0  0  0  0  0  0  0
   -4.0011    3.4388    1.5251 H   0  0  0  0  0  0  0  0  0  0  0  0
   -4.1847    1.8612    2.3142 H   0  0  0  0  0  0  0  0  0  0  0  0
   -4.8636    2.1255    0.7032 H   0  0  0  0  0  0  0  0  0  0  0  0
   -1.8748    2.1779    1.3903 H   0  0  0  0  0  0  0  0  0  0  0  0
   -2.5367    2.4289   -0.2216 H   0  0  0  0  0  0  0  0  0  0  0  0
   -4.0000    0.6518   -1.1247 H   0  0  0  0  0  0  0  0  0  0  0  0
   -3.6001   -1.0045   -0.7105 H   0  0  0  0  0  0  0  0  0  0  0  0
   -1.6831    1.0039   -2.0239 H   0  0  0  0  0  0  0  0  0  0  0  0
   -2.4807   -0.3619   -2.8228 H   0  0  0  0  0  0  0  0  0  0  0  0
   -1.2497   -0.6489   -1.5802 H   0  0  0  0  0  0  0  0  0  0  0  0
   -1.9425   -2.0841    0.1785 H   0  0  0  0  0  0  0  0  0  0  0  0
   -3.1299   -2.3003    1.4787 H   0  0  0  0  0  0  0  0  0  0  0  0
    2.2419   -0.5345   -1.7659 H   0  0  0  0  0  0  0  0  0  0  0  0
    5.0708    1.0814   -3.4447 H   0  0  0  0  0  0  0  0  0  0  0  0
    3.3896    1.2077   -2.9134 H   0  0  0  0  0  0  0  0  0  0  0  0
    4.1519   -0.4073   -3.1912 H   0  0  0  0  0  0  0  0  0  0  0  0
    5.4611    0.4952    0.9330 H   0  0  0  0  0  0  0  0  0  0  0  0
    4.1867   -0.4495    2.8545 H   0  0  0  0  0  0  0  0  0  0  0  0
    1.6019   -1.7331    3.3627 H   0  0  0  0  0  0  0  0  0  0  0  0
  1  2  1  0
  2  3  1  0
  3  4  1  0
  4  5  1  0
  3  6  1  0
  6  7  2  0
  6  8  1  0
  8  9  1  0
  9 10  1  0
 10 11  2  0
 11 12  1  0
 12 13  2  0
 13 14  1  0
 14 15  1  0
 15 16  1  0
 14 17  2  0
 17 18  1  0
 18 19  2  0
 19 20  1  0
 20 10  1  0
 19 12  1  0
  1 21  1  0
  1 22  1  0
  1 23  1  0
  2 24  1  0
  2 25  1  0
  4 26  1  0
  4 27  1  0
  5 28  1  0
  5 29  1  0
  5 30  1  0
  8 31  1  0
  8 32  1  0
 13 33  1  0
 16 34  1  0
 16 35  1  0
 16 36  1  0
 17 37  1  0
 18 38  1  0
 20 39  1  0
M  END
$$$$
