
     RDKit          3D

 48 50  0  0  0  0  0  0  0  0999 V2000
    8.3003    1.3527   -0.3805 C   0  0  0  0  0  0  0  0  0  0  0  0
    7.3397    1.5436    0.6508 O   0  0  0  0  0  0  0  0  0  0  0  0
    6.1101    0.9799    0.4576 C   0  0  0  0  0  0  0  0  0  0  0  0
    5.7124    0.2281   -0.6424 C   0  0  0  0  0  0  0  0  0  0  0  0
    4.4114   -0.2959   -0.7118 C   0  0  0  0  0  0  0  0  0  0  0  0
    3.4787   -0.0843    0.3110 C   0  0  0  0  0  0  0  0  0  0  0  0
    2.1584   -0.6143    0.2505 N   0  0  0  0  0  0  0  0  0  0  0  0
    1.1713   -0.3488    1.2723 C   0  0  0  0  0  0  0  0  0  0  0  0
   -0.1514   -0.8563    0.7188 C   0  0  0  0  0  0  0  0  0  0  0  0
   -0.9910    0.2500    0.0871 C   0  0  0  0  0  0  0  0  0  0  0  0
   -0.4973    1.3444   -0.1825 O   0  0  0  0  0  0  0  0  0  0  0  0
   -2.3232   -0.0337   -0.1885 N   0  0  0  0  0  0  0  0  0  0  0  0
   -3.1481    1.0007   -0.8269 C   0  0  0  0  0  0  0  0  0  0  0  0
   -4.5571    1.0802   -0.2235 C   0  0  0  0  0  0  0  0  0  0  0  0
   -5.2427   -0.2174   -0.1861 N   0  0  0  0  0  0  0  0  0  0  0  0
   -6.6039   -0.3718    0.0189 C   0  0  0  0  0  0  0  0  0  0  0  0
   -7.4033    0.8815    0.2734 C   0  0  0  0  0  0  0  0  0  0  0  0
   -7.1570   -1.4707   -0.0050 O   0  0  0  0  0  0  0  0  0  0  0  0
   -4.4166   -1.4057   -0.4093 C   0  0  0  0  0  0  0  0  0  0  0  0
   -3.0225   -1.2637    0.2156 C   0  0  0  0  0  0  0  0  0  0  0  0
    0.2549   -1.8848   -0.3240 C   0  0  0  0  0  0  0  0  0  0  0  0
    1.6661   -1.5089   -0.7032 C   0  0  0  0  0  0  0  0  0  0  0  0
    2.2261   -2.0004   -1.6721 O   0  0  0  0  0  0  0  0  0  0  0  0
    3.8964    0.6787    1.4114 C   0  0  0  0  0  0  0  0  0  0  0  0
    5.1942    1.2017    1.4827 C   0  0  0  0  0  0  0  0  0  0  0  0
    7.9634    1.7994   -1.3218 H   0  0  0  0  0  0  0  0  0  0  0  0
    8.5369    0.2912   -0.5079 H   0  0  0  0  0  0  0  0  0  0  0  0
    9.2195    1.8646   -0.0797 H   0  0  0  0  0  0  0  0  0  0  0  0
    6.3813    0.0258   -1.4723 H   0  0  0  0  0  0  0  0  0  0  0  0
    4.1587   -0.8635   -1.6021 H   0  0  0  0  0  0  0  0  0  0  0  0
    1.1395    0.7144    1.5292 H   0  0  0  0  0  0  0  0  0  0  0  0
    1.4524   -0.9249    2.1624 H   0  0  0  0  0  0  0  0  0  0  0  0
   -0.7367   -1.2996    1.5314 H   0  0  0  0  0  0  0  0  0  0  0  0
   -2.6692    1.9830   -0.7675 H   0  0  0  0  0  0  0  0  0  0  0  0
   -3.2126    0.7326   -1.8885 H   0  0  0  0  0  0  0  0  0  0  0  0
   -4.4958    1.4322    0.8131 H   0  0  0  0  0  0  0  0  0  0  0  0
   -5.1628    1.7962   -0.7876 H   0  0  0  0  0  0  0  0  0  0  0  0
   -7.4839    1.4651   -0.6471 H   0  0  0  0  0  0  0  0  0  0  0  0
   -6.9454    1.4786    1.0660 H   0  0  0  0  0  0  0  0  0  0  0  0
   -8.4107    0.6064    0.6003 H   0  0  0  0  0  0  0  0  0  0  0  0
   -4.3309   -1.5303   -1.4956 H   0  0  0  0  0  0  0  0  0  0  0  0
   -4.9090   -2.3000   -0.0135 H   0  0  0  0  0  0  0  0  0  0  0  0
   -2.4146   -2.1354   -0.0386 H   0  0  0  0  0  0  0  0  0  0  0  0
   -3.1123   -1.2261    1.3080 H   0  0  0  0  0  0  0  0  0  0  0  0
    0.2750   -2.8920    0.1051 H   0  0  0  0  0  0  0  0  0  0  0  0
   -0.3742   -1.8760   -1.2187 H   0  0  0  0  0  0  0  0  0  0  0  0
    3.2357    0.8850    2.2471 H   0  0  0  0  0  0  0  0  0  0  0  0
    5.4897    1.7885    2.3491 H   0  0  0  0  0  0  0  0  0  0  0  0
  1  2  1  0
  2  3  1  0
  3  4  2  0
  4  5  1  0
  5  6  2  0
  6  7  1  0
  7  8  1  0
  8  9  1  0
  9 10  1  0
 10 11  2  0
 10 12  1  0
 12 13  1  0
 13 14  1  0
 14 15  1  0
 15 16  1  0
 16 17  1  0
 16 18  2  0
 15 19  1  0
 19 20  1  0
  9 21  1  0
 21 22  1  0
 22 23  2  0
  6 24  1  0
 24 25  2  0
 25  3  1  0
 22  7  1  0
 20 12  1  0
  1 26  1  0
  1 27  1  0
  1 28  1  0
  4 29  1  0
  5 30  1  0
  8 31  1  0
  8 32  1  0
  9 33  1  0
 13 34  1  0
 13 35  1  0
 14 36  1  0
 14 37  1  0
 17 38  1  0
 17 39  1  0
 17 40  1  0
 19 41  1  0
 19 42  1  0
 20 43  1  0
 20 44  1  0
 21 45  1  0
 21 46  1  0
 24 47  1  0
 25 48  1  0
M  END
$$$$
