
     RDKit          3D

 42 45  0  0  0  0  0  0  0  0999 V2000
   -7.1881    1.0407    0.8950 C   0  0  0  0  0  0  0  0  0  0  0  0
   -5.9298    1.5117    1.3610 O   0  0  0  0  0  0  0  0  0  0  0  0
   -4.8183    0.8504    0.9180 C   0  0  0  0  0  0  0  0  0  0  0  0
   -4.8027   -0.2377    0.0459 C   0  0  0  0  0  0  0  0  0  0  0  0
   -3.5863   -0.8229   -0.3275 C   0  0  0  0  0  0  0  0  0  0  0  0
   -2.3718   -0.3260    0.1636 C   0  0  0  0  0  0  0  0  0  0  0  0
   -1.1002   -0.9543   -0.2293 C   0  0  0  0  0  0  0  0  0  0  0  0
   -0.1389   -0.2398   -0.8485 C   0  0  0  0  0  0  0  0  0  0  0  0
    1.1816   -0.8850   -1.2538 C   0  0  0  0  0  0  0  0  0  0  0  0
    2.3649   -0.1847   -0.6014 C   0  0  0  0  0  0  0  0  0  0  0  0
    2.4994   -0.1166    0.7946 C   0  0  0  0  0  0  0  0  0  0  0  0
    3.5887    0.5414    1.3708 C   0  0  0  0  0  0  0  0  0  0  0  0
    4.5652    1.1399    0.5733 C   0  0  0  0  0  0  0  0  0  0  0  0
    5.5744    1.7494    1.2658 O   0  0  0  0  0  0  0  0  0  0  0  0
    6.6292    2.3166    0.4992 C   0  0  0  0  0  0  0  0  0  0  0  0
    4.4423    1.0763   -0.8138 C   0  0  0  0  0  0  0  0  0  0  0  0
    3.3513    0.4196   -1.3966 C   0  0  0  0  0  0  0  0  0  0  0  0
    1.1886   -2.3155   -0.9592 N   0  0  0  0  0  0  0  0  0  0  0  0
    2.1419   -3.1775   -1.3461 N   0  0  0  0  0  0  0  0  0  0  0  0
    1.7214   -4.3579   -0.9009 N   0  0  0  0  0  0  0  0  0  0  0  0
    0.4910   -4.2525   -0.2774 N   0  0  0  0  0  0  0  0  0  0  0  0
    0.1643   -2.9847   -0.3463 C   0  0  0  0  0  0  0  0  0  0  0  0
   -0.9334   -2.3001    0.0348 N   0  0  0  0  0  0  0  0  0  0  0  0
   -2.3938    0.7646    1.0399 C   0  0  0  0  0  0  0  0  0  0  0  0
   -3.6093    1.3461    1.4113 C   0  0  0  0  0  0  0  0  0  0  0  0
   -7.2667    1.1359   -0.1930 H   0  0  0  0  0  0  0  0  0  0  0  0
   -7.3672    0.0092    1.2162 H   0  0  0  0  0  0  0  0  0  0  0  0
   -7.9659    1.6679    1.3410 H   0  0  0  0  0  0  0  0  0  0  0  0
   -5.7161   -0.6554   -0.3643 H   0  0  0  0  0  0  0  0  0  0  0  0
   -3.5960   -1.6655   -1.0162 H   0  0  0  0  0  0  0  0  0  0  0  0
   -0.2730    0.8129   -1.0795 H   0  0  0  0  0  0  0  0  0  0  0  0
    1.2600   -0.8177   -2.3470 H   0  0  0  0  0  0  0  0  0  0  0  0
    1.7621   -0.5774    1.4498 H   0  0  0  0  0  0  0  0  0  0  0  0
    3.6805    0.5830    2.4538 H   0  0  0  0  0  0  0  0  0  0  0  0
    6.2633    3.1357   -0.1285 H   0  0  0  0  0  0  0  0  0  0  0  0
    7.1368    1.5541   -0.1009 H   0  0  0  0  0  0  0  0  0  0  0  0
    7.3622    2.7337    1.1964 H   0  0  0  0  0  0  0  0  0  0  0  0
    5.1783    1.5247   -1.4729 H   0  0  0  0  0  0  0  0  0  0  0  0
    3.2869    0.3807   -2.4826 H   0  0  0  0  0  0  0  0  0  0  0  0
   -1.6929   -2.7821    0.5066 H   0  0  0  0  0  0  0  0  0  0  0  0
   -1.4696    1.1665    1.4490 H   0  0  0  0  0  0  0  0  0  0  0  0
   -3.6142    2.1923    2.0945 H   0  0  0  0  0  0  0  0  0  0  0  0
  1  2  1  0
  2  3  1  0
  3  4  2  0
  4  5  1  0
  5  6  2  0
  6  7  1  0
  7  8  2  0
  8  9  1  0
  9 10  1  0
 10 11  2  0
 11 12  1  0
 12 13  2  0
 13 14  1  0
 14 15  1  0
 13 16  1  0
 16 17  2  0
  9 18  1  0
 18 19  1  0
 19 20  2  0
 20 21  1  0
 21 22  2  0
 22 23  1  0
  6 24  1  0
 24 25  2  0
 25  3  1  0
 23  7  1  0
 17 10  1  0
 22 18  1  0
  1 26  1  0
  1 27  1  0
  1 28  1  0
  4 29  1  0
  5 30  1  0
  8 31  1  0
  9 32  1  0
 11 33  1  0
 12 34  1  0
 15 35  1  0
 15 36  1  0
 15 37  1  0
 16 38  1  0
 17 39  1  0
 23 40  1  0
 24 41  1  0
 25 42  1  0
M  END
$$$$
