
     RDKit          3D

 43 44  0  0  0  0  0  0  0  0999 V2000
   -7.1872   -1.3613   -1.3514 C   0  0  0  0  0  0  0  0  0  0  0  0
   -6.0607   -0.6604   -0.6088 C   0  0  0  0  0  0  0  0  0  0  0  0
   -4.6954   -1.0036   -1.2086 C   0  0  0  0  0  0  0  0  0  0  0  0
   -3.5623   -0.2920   -0.4534 C   0  0  0  0  0  0  0  0  0  0  0  0
   -2.1462   -0.5404   -0.9400 C   0  0  0  0  0  0  0  0  0  0  0  0
   -1.8373   -1.3350   -1.9777 C   0  0  0  0  0  0  0  0  0  0  0  0
   -0.4661   -1.5788   -2.4523 C   0  0  0  0  0  0  0  0  0  0  0  0
   -0.2571   -2.3079   -3.4149 O   0  0  0  0  0  0  0  0  0  0  0  0
    0.5532   -0.9463   -1.7674 O   0  0  0  0  0  0  0  0  0  0  0  0
    0.2778   -0.1046   -0.6723 C   0  0  0  0  0  0  0  0  0  0  0  0
    1.3932    0.4801   -0.0604 C   0  0  0  0  0  0  0  0  0  0  0  0
    1.2181    1.3332    1.0276 C   0  0  0  0  0  0  0  0  0  0  0  0
    2.2290    1.9580    1.7068 O   0  0  0  0  0  0  0  0  0  0  0  0
    3.5649    1.8197    1.2459 C   0  0  0  0  0  0  0  0  0  0  0  0
    4.2711    0.4955    1.5945 C   0  0  0  0  0  0  0  0  0  0  0  0
    3.6842   -0.4016    2.2027 O   0  0  0  0  0  0  0  0  0  0  0  0
    5.5945    0.3521    1.1689 N   0  0  0  0  0  0  0  0  0  0  0  0
    6.3099   -0.8488    1.5719 C   0  0  0  0  0  0  0  0  0  0  0  0
    6.4190    1.4540    0.6964 C   0  0  0  0  0  0  0  0  0  0  0  0
   -0.0894    1.5746    1.4795 C   0  0  0  0  0  0  0  0  0  0  0  0
   -0.3957    2.6277    2.8198 Cl  0  0  0  0  0  0  0  0  0  0  0  0
   -1.1967    0.9784    0.8561 C   0  0  0  0  0  0  0  0  0  0  0  0
   -1.0288    0.1229   -0.2381 C   0  0  0  0  0  0  0  0  0  0  0  0
   -7.0718   -2.4488   -1.3034 H   0  0  0  0  0  0  0  0  0  0  0  0
   -8.1531   -1.1023   -0.9066 H   0  0  0  0  0  0  0  0  0  0  0  0
   -7.2075   -1.0637   -2.4047 H   0  0  0  0  0  0  0  0  0  0  0  0
   -6.2235    0.4229   -0.6484 H   0  0  0  0  0  0  0  0  0  0  0  0
   -6.0886   -0.9547    0.4469 H   0  0  0  0  0  0  0  0  0  0  0  0
   -4.6825   -0.7081   -2.2650 H   0  0  0  0  0  0  0  0  0  0  0  0
   -4.5471   -2.0897   -1.1665 H   0  0  0  0  0  0  0  0  0  0  0  0
   -3.7586    0.7875   -0.4971 H   0  0  0  0  0  0  0  0  0  0  0  0
   -3.6235   -0.5931    0.6009 H   0  0  0  0  0  0  0  0  0  0  0  0
   -2.5879   -1.8641   -2.5526 H   0  0  0  0  0  0  0  0  0  0  0  0
    2.3731    0.2310   -0.4516 H   0  0  0  0  0  0  0  0  0  0  0  0
    4.1287    2.6171    1.7437 H   0  0  0  0  0  0  0  0  0  0  0  0
    3.6201    2.0101    0.1679 H   0  0  0  0  0  0  0  0  0  0  0  0
    6.8671   -0.6329    2.4884 H   0  0  0  0  0  0  0  0  0  0  0  0
    5.6281   -1.6830    1.7584 H   0  0  0  0  0  0  0  0  0  0  0  0
    7.0044   -1.1388    0.7780 H   0  0  0  0  0  0  0  0  0  0  0  0
    5.8284    2.2246    0.1991 H   0  0  0  0  0  0  0  0  0  0  0  0
    6.9308    1.8975    1.5555 H   0  0  0  0  0  0  0  0  0  0  0  0
    7.1572    1.0742   -0.0160 H   0  0  0  0  0  0  0  0  0  0  0  0
   -2.1857    1.1989    1.2480 H   0  0  0  0  0  0  0  0  0  0  0  0
  1  2  1  0
  2  3  1  0
  3  4  1  0
  4  5  1  0
  5  6  2  0
  6  7  1  0
  7  8  2  0
  7  9  1  0
  9 10  1  0
 10 11  2  0
 11 12  1  0
 12 13  1  0
 13 14  1  0
 14 15  1  0
 15 16  2  0
 15 17  1  0
 17 18  1  0
 17 19  1  0
 12 20  2  0
 20 21  1  0
 20 22  1  0
 22 23  2  0
 23  5  1  0
 23 10  1  0
  1 24  1  0
  1 25  1  0
  1 26  1  0
  2 27  1  0
  2 28  1  0
  3 29  1  0
  3 30  1  0
  4 31  1  0
  4 32  1  0
  6 33  1  0
 11 34  1  0
 14 35  1  0
 14 36  1  0
 18 37  1  0
 18 38  1  0
 18 39  1  0
 19 40  1  0
 19 41  1  0
 19 42  1  0
 22 43  1  0
M  END
$$$$
