
     RDKit          3D

 34 35  0  0  0  0  0  0  0  0999 V2000
   -3.3018    1.5199    1.9333 N   0  0  0  0  0  0  0  0  0  0  0  0
   -2.1182    0.9723    1.5302 C   0  0  0  0  0  0  0  0  0  0  0  0
   -1.0762    1.6055    1.6478 O   0  0  0  0  0  0  0  0  0  0  0  0
   -2.2187   -0.4285    0.9387 C   0  0  0  0  0  0  0  0  0  0  0  0
   -3.0439   -0.4266   -0.3520 C   0  0  0  0  0  0  0  0  0  0  0  0
   -2.3161    0.2592   -1.5127 C   0  0  0  0  0  0  0  0  0  0  0  0
   -0.7936    0.1462   -1.4336 C   0  0  0  0  0  0  0  0  0  0  0  0
   -0.4420   -1.0909   -0.7120 N   0  0  0  0  0  0  0  0  0  0  0  0
    1.0590   -1.8055   -1.0788 S   0  0  0  0  0  6  0  0  0  0  0  0
    1.1886   -3.0034   -0.2745 O   0  0  0  0  0  0  0  0  0  0  0  0
    1.1885   -1.8630   -2.5202 O   0  0  0  0  0  0  0  0  0  0  0  0
    2.2489   -0.6229   -0.4827 C   0  0  0  0  0  0  0  0  0  0  0  0
    2.6962    0.3940   -1.3326 C   0  0  0  0  0  0  0  0  0  0  0  0
    3.6510    1.3020   -0.8752 C   0  0  0  0  0  0  0  0  0  0  0  0
    4.1654    1.1829    0.4169 C   0  0  0  0  0  0  0  0  0  0  0  0
    3.7355    0.1512    1.2532 C   0  0  0  0  0  0  0  0  0  0  0  0
    2.7814   -0.7612    0.8028 C   0  0  0  0  0  0  0  0  0  0  0  0
   -0.8318   -1.0632    0.7264 C   0  0  0  0  0  0  0  0  0  0  0  0
   -4.1507    0.9793    2.0274 H   0  0  0  0  0  0  0  0  0  0  0  0
   -3.2600    2.4229    2.3897 H   0  0  0  0  0  0  0  0  0  0  0  0
   -2.7446   -1.0262    1.6962 H   0  0  0  0  0  0  0  0  0  0  0  0
   -4.0238    0.0431   -0.2100 H   0  0  0  0  0  0  0  0  0  0  0  0
   -3.2467   -1.4687   -0.6333 H   0  0  0  0  0  0  0  0  0  0  0  0
   -2.5895    1.3204   -1.5551 H   0  0  0  0  0  0  0  0  0  0  0  0
   -2.6713   -0.1826   -2.4521 H   0  0  0  0  0  0  0  0  0  0  0  0
   -0.3726    1.0131   -0.9126 H   0  0  0  0  0  0  0  0  0  0  0  0
   -0.3915    0.1514   -2.4515 H   0  0  0  0  0  0  0  0  0  0  0  0
    2.3123    0.4810   -2.3464 H   0  0  0  0  0  0  0  0  0  0  0  0
    4.0001    2.0992   -1.5270 H   0  0  0  0  0  0  0  0  0  0  0  0
    4.9105    1.8916    0.7707 H   0  0  0  0  0  0  0  0  0  0  0  0
    4.1486    0.0563    2.2544 H   0  0  0  0  0  0  0  0  0  0  0  0
    2.4615   -1.5713    1.4540 H   0  0  0  0  0  0  0  0  0  0  0  0
   -0.0611   -0.5724    1.3267 H   0  0  0  0  0  0  0  0  0  0  0  0
   -0.8934   -2.1054    1.0640 H   0  0  0  0  0  0  0  0  0  0  0  0
  1  2  1  0
  2  3  2  0
  2  4  1  0
  4  5  1  0
  5  6  1  0
  6  7  1  0
  7  8  1  0
  8  9  1  0
  9 10  2  0
  9 11  2  0
  9 12  1  0
 12 13  2  0
 13 14  1  0
 14 15  2  0
 15 16  1  0
 16 17  2  0
  8 18  1  0
 18  4  1  0
 17 12  1  0
  1 19  1  0
  1 20  1  0
  4 21  1  0
  5 22  1  0
  5 23  1  0
  6 24  1  0
  6 25  1  0
  7 26  1  0
  7 27  1  0
 13 28  1  0
 14 29  1  0
 15 30  1  0
 16 31  1  0
 17 32  1  0
 18 33  1  0
 18 34  1  0
M  END
$$$$
