
     RDKit          3D

 32 33  0  0  0  0  0  0  0  0999 V2000
    5.3730   -0.2624   -1.1773 C   0  0  0  0  0  0  0  0  0  0  0  0
    4.4000   -0.4793   -0.0320 C   0  0  0  0  0  0  0  0  0  0  0  0
    2.9573   -0.2109   -0.4316 C   0  0  0  0  0  0  0  0  0  0  0  0
    2.6442    0.1411   -1.5623 O   0  0  0  0  0  0  0  0  0  0  0  0
    2.0940   -0.4165    0.6312 N   0  0  0  0  0  0  0  0  0  0  0  0
    0.6854   -0.2709    0.6553 C   0  0  0  0  0  0  0  0  0  0  0  0
   -0.0530    0.1249   -0.4678 C   0  0  0  0  0  0  0  0  0  0  0  0
   -1.4237    0.2352   -0.3326 C   0  0  0  0  0  0  0  0  0  0  0  0
   -2.0757   -0.0330    0.8711 C   0  0  0  0  0  0  0  0  0  0  0  0
   -1.3876   -0.4239    1.9964 C   0  0  0  0  0  0  0  0  0  0  0  0
    0.0035   -0.5410    1.8777 C   0  0  0  0  0  0  0  0  0  0  0  0
    0.9642   -1.0825    3.4333 Br  0  0  0  0  0  0  0  0  0  0  0  0
   -3.4467    0.1707    0.6743 N   0  0  0  0  0  0  0  0  0  0  0  0
   -4.4649    0.0009    1.6695 C   0  0  0  0  0  0  0  0  0  0  0  0
   -3.6669    0.5707   -0.6630 C   0  0  0  0  0  0  0  0  0  0  0  0
   -4.7398    0.8328   -1.1823 O   0  0  0  0  0  0  0  0  0  0  0  0
   -2.3942    0.6046   -1.2729 N   0  0  0  0  0  0  0  0  0  0  0  0
   -2.1309    0.9601   -2.6378 C   0  0  0  0  0  0  0  0  0  0  0  0
    6.3976   -0.4651   -0.8506 H   0  0  0  0  0  0  0  0  0  0  0  0
    5.3279    0.7693   -1.5416 H   0  0  0  0  0  0  0  0  0  0  0  0
    5.1446   -0.9254   -2.0183 H   0  0  0  0  0  0  0  0  0  0  0  0
    4.4765   -1.5146    0.3191 H   0  0  0  0  0  0  0  0  0  0  0  0
    4.6606    0.1873    0.7979 H   0  0  0  0  0  0  0  0  0  0  0  0
    2.5088   -0.7087    1.5104 H   0  0  0  0  0  0  0  0  0  0  0  0
    0.4081    0.3434   -1.4218 H   0  0  0  0  0  0  0  0  0  0  0  0
   -1.8993   -0.6307    2.9282 H   0  0  0  0  0  0  0  0  0  0  0  0
   -5.4495    0.2253    1.2503 H   0  0  0  0  0  0  0  0  0  0  0  0
   -4.2705    0.6793    2.5052 H   0  0  0  0  0  0  0  0  0  0  0  0
   -4.4558   -1.0342    2.0232 H   0  0  0  0  0  0  0  0  0  0  0  0
   -1.4692    1.8307   -2.6639 H   0  0  0  0  0  0  0  0  0  0  0  0
   -1.6545    0.1167   -3.1460 H   0  0  0  0  0  0  0  0  0  0  0  0
   -3.0633    1.2060   -3.1534 H   0  0  0  0  0  0  0  0  0  0  0  0
  1  2  1  0
  2  3  1  0
  3  4  2  0
  3  5  1  0
  5  6  1  0
  6  7  2  0
  7  8  1  0
  8  9  2  0
  9 10  1  0
 10 11  2  0
 11 12  1  0
  9 13  1  0
 13 14  1  0
 13 15  1  0
 15 16  2  0
 15 17  1  0
 17 18  1  0
 11  6  1  0
 17  8  1  0
  1 19  1  0
  1 20  1  0
  1 21  1  0
  2 22  1  0
  2 23  1  0
  5 24  1  0
  7 25  1  0
 10 26  1  0
 14 27  1  0
 14 28  1  0
 14 29  1  0
 18 30  1  0
 18 31  1  0
 18 32  1  0
M  END
$$$$
