
     RDKit          3D

 49 51  0  0  0  0  0  0  0  0999 V2000
   -6.8403    1.3344    0.8641 C   0  0  0  0  0  0  0  0  0  0  0  0
   -5.4126    1.2392    0.5549 N   0  0  0  0  0  0  0  0  0  0  0  0
   -5.1911    0.2991   -0.5528 C   0  0  0  0  0  0  0  0  0  0  0  0
   -3.7120    0.2374   -0.9283 C   0  0  0  0  0  0  0  0  0  0  0  0
   -2.8569   -0.1358    0.2846 C   0  0  0  0  0  0  0  0  0  0  0  0
   -1.4355   -0.1023   -0.0447 N   0  0  0  0  0  0  0  0  0  0  0  0
   -0.8230   -1.1485   -0.7064 C   0  0  0  0  0  0  0  0  0  0  0  0
   -1.4036   -2.1941   -0.9769 O   0  0  0  0  0  0  0  0  0  0  0  0
    0.6373   -0.8834   -1.0550 C   0  0  0  0  0  0  0  0  0  0  0  0
    1.2089   -1.9234   -2.0335 C   0  0  0  0  0  0  0  0  0  0  0  0
    2.6972   -2.1892   -1.8052 C   0  0  0  0  0  0  0  0  0  0  0  0
    3.4310   -0.9365   -1.3509 C   0  0  0  0  0  0  0  0  0  0  0  0
    2.8661   -0.3901   -0.0827 N   0  0  0  0  0  0  0  0  0  0  0  0
    3.9065   -0.4703    1.2782 S   0  0  0  0  0  6  0  0  0  0  0  0
    3.2291    0.1666    2.3870 O   0  0  0  0  0  0  0  0  0  0  0  0
    4.4100   -1.8243    1.3559 O   0  0  0  0  0  0  0  0  0  0  0  0
    5.2961    0.5847    0.9308 C   0  0  0  0  0  0  0  0  0  0  0  0
    5.4559    1.6524    0.0668 C   0  0  0  0  0  0  0  0  0  0  0  0
    6.7641    2.2131    0.1344 C   0  0  0  0  0  0  0  0  0  0  0  0
    7.5542    1.5624    1.0559 C   0  0  0  0  0  0  0  0  0  0  0  0
    6.7173    0.2891    1.8351 S   0  0  0  0  0  0  0  0  0  0  0  0
    1.4730   -0.8379    0.2243 C   0  0  0  0  0  0  0  0  0  0  0  0
   -3.1577    0.8009    1.4543 C   0  0  0  0  0  0  0  0  0  0  0  0
   -4.6557    0.8411    1.7493 C   0  0  0  0  0  0  0  0  0  0  0  0
   -7.2590    0.3744    1.1872 H   0  0  0  0  0  0  0  0  0  0  0  0
   -7.0138    2.0711    1.6564 H   0  0  0  0  0  0  0  0  0  0  0  0
   -7.4013    1.6787   -0.0119 H   0  0  0  0  0  0  0  0  0  0  0  0
   -5.7535    0.6268   -1.4356 H   0  0  0  0  0  0  0  0  0  0  0  0
   -5.5497   -0.7056   -0.2926 H   0  0  0  0  0  0  0  0  0  0  0  0
   -3.3910    1.2084   -1.3288 H   0  0  0  0  0  0  0  0  0  0  0  0
   -3.5697   -0.4919   -1.7347 H   0  0  0  0  0  0  0  0  0  0  0  0
   -3.1040   -1.1629    0.5842 H   0  0  0  0  0  0  0  0  0  0  0  0
   -0.9887    0.8066   -0.0645 H   0  0  0  0  0  0  0  0  0  0  0  0
    0.6805    0.0988   -1.5471 H   0  0  0  0  0  0  0  0  0  0  0  0
    1.0578   -1.5541   -3.0561 H   0  0  0  0  0  0  0  0  0  0  0  0
    0.6794   -2.8815   -1.9830 H   0  0  0  0  0  0  0  0  0  0  0  0
    3.1453   -2.5765   -2.7272 H   0  0  0  0  0  0  0  0  0  0  0  0
    2.8126   -2.9745   -1.0473 H   0  0  0  0  0  0  0  0  0  0  0  0
    3.3502   -0.1527   -2.1137 H   0  0  0  0  0  0  0  0  0  0  0  0
    4.4984   -1.1584   -1.2498 H   0  0  0  0  0  0  0  0  0  0  0  0
    4.6629    2.0118   -0.5777 H   0  0  0  0  0  0  0  0  0  0  0  0
    7.1071    3.0546   -0.4558 H   0  0  0  0  0  0  0  0  0  0  0  0
    8.5820    1.7755    1.3176 H   0  0  0  0  0  0  0  0  0  0  0  0
    1.4853   -1.8213    0.7112 H   0  0  0  0  0  0  0  0  0  0  0  0
    1.0371   -0.1243    0.9329 H   0  0  0  0  0  0  0  0  0  0  0  0
   -2.7990    1.8143    1.2290 H   0  0  0  0  0  0  0  0  0  0  0  0
   -2.6138    0.4713    2.3480 H   0  0  0  0  0  0  0  0  0  0  0  0
   -4.8253    1.5656    2.5551 H   0  0  0  0  0  0  0  0  0  0  0  0
   -4.9881   -0.1388    2.1168 H   0  0  0  0  0  0  0  0  0  0  0  0
  1  2  1  0
  2  3  1  0
  3  4  1  0
  4  5  1  0
  5  6  1  0
  6  7  1  0
  7  8  2  0
  7  9  1  0
  9 10  1  0
 10 11  1  0
 11 12  1  0
 12 13  1  0
 13 14  1  0
 14 15  2  0
 14 16  2  0
 14 17  1  0
 17 18  2  0
 18 19  1  0
 19 20  2  0
 20 21  1  0
 13 22  1  0
  5 23  1  0
 23 24  1  0
 24  2  1  0
 22  9  1  0
 21 17  1  0
  1 25  1  0
  1 26  1  0
  1 27  1  0
  3 28  1  0
  3 29  1  0
  4 30  1  0
  4 31  1  0
  5 32  1  0
  6 33  1  0
  9 34  1  0
 10 35  1  0
 10 36  1  0
 11 37  1  0
 11 38  1  0
 12 39  1  0
 12 40  1  0
 18 41  1  0
 19 42  1  0
 20 43  1  0
 22 44  1  0
 22 45  1  0
 23 46  1  0
 23 47  1  0
 24 48  1  0
 24 49  1  0
M  END
$$$$
