
     RDKit          3D

 43 44  0  0  0  0  0  0  0  0999 V2000
   -2.0511   -2.7841   -2.6446 C   0  0  0  0  0  0  0  0  0  0  0  0
   -3.0055   -2.1694   -1.7888 O   0  0  0  0  0  0  0  0  0  0  0  0
   -2.5853   -1.1149   -1.0217 C   0  0  0  0  0  0  0  0  0  0  0  0
   -1.3054   -0.5628   -1.0568 C   0  0  0  0  0  0  0  0  0  0  0  0
   -0.9732    0.5096   -0.2140 C   0  0  0  0  0  0  0  0  0  0  0  0
    0.4182    1.0326   -0.2778 C   0  0  0  0  0  0  0  0  0  0  0  0
    1.0739    0.9348   -1.3017 O   0  0  0  0  0  0  0  0  0  0  0  0
    0.8980    1.5989    0.9076 N   0  0  0  0  0  0  0  0  0  0  0  0
    2.3952    2.2992    1.0940 S   0  0  0  0  0  6  0  0  0  0  0  0
    2.5651    3.3325    0.0981 O   0  0  0  0  0  0  0  0  0  0  0  0
    2.4868    2.6103    2.5067 O   0  0  0  0  0  0  0  0  0  0  0  0
    3.5251    0.9723    0.7690 C   0  0  0  0  0  0  0  0  0  0  0  0
    4.0926    0.8342   -0.4980 C   0  0  0  0  0  0  0  0  0  0  0  0
    4.9981   -0.2029   -0.7376 C   0  0  0  0  0  0  0  0  0  0  0  0
    5.3867   -1.0662    0.2917 C   0  0  0  0  0  0  0  0  0  0  0  0
    6.1987   -2.1713    0.0141 N   0  0  0  0  0  0  0  0  0  0  0  0
    4.7803   -0.9375    1.5456 C   0  0  0  0  0  0  0  0  0  0  0  0
    3.8705    0.0930    1.7978 C   0  0  0  0  0  0  0  0  0  0  0  0
   -1.9294    1.0498    0.6601 C   0  0  0  0  0  0  0  0  0  0  0  0
   -3.2163    0.5112    0.7056 C   0  0  0  0  0  0  0  0  0  0  0  0
   -4.2246    0.9582    1.5190 O   0  0  0  0  0  0  0  0  0  0  0  0
   -3.9325    2.0123    2.4258 C   0  0  0  0  0  0  0  0  0  0  0  0
   -3.5360   -0.5629   -0.1451 C   0  0  0  0  0  0  0  0  0  0  0  0
   -4.7884   -1.1316   -0.0632 O   0  0  0  0  0  0  0  0  0  0  0  0
   -5.6654   -0.5149   -1.0047 C   0  0  0  0  0  0  0  0  0  0  0  0
   -1.2134   -3.1956   -2.0720 H   0  0  0  0  0  0  0  0  0  0  0  0
   -2.5464   -3.6162   -3.1543 H   0  0  0  0  0  0  0  0  0  0  0  0
   -1.7022   -2.0847   -3.4113 H   0  0  0  0  0  0  0  0  0  0  0  0
   -0.5417   -0.9519   -1.7249 H   0  0  0  0  0  0  0  0  0  0  0  0
    0.4194    1.4840    1.7937 H   0  0  0  0  0  0  0  0  0  0  0  0
    3.8160    1.5070   -1.3075 H   0  0  0  0  0  0  0  0  0  0  0  0
    5.4000   -0.3286   -1.7398 H   0  0  0  0  0  0  0  0  0  0  0  0
    6.6832   -2.5417    0.8257 H   0  0  0  0  0  0  0  0  0  0  0  0
    6.8233   -2.0333   -0.7748 H   0  0  0  0  0  0  0  0  0  0  0  0
    5.0187   -1.6392    2.3410 H   0  0  0  0  0  0  0  0  0  0  0  0
    3.4376    0.1947    2.7899 H   0  0  0  0  0  0  0  0  0  0  0  0
   -1.6709    1.9070    1.2711 H   0  0  0  0  0  0  0  0  0  0  0  0
   -3.6738    2.9312    1.8897 H   0  0  0  0  0  0  0  0  0  0  0  0
   -4.8358    2.2110    3.0106 H   0  0  0  0  0  0  0  0  0  0  0  0
   -3.1396    1.7249    3.1242 H   0  0  0  0  0  0  0  0  0  0  0  0
   -6.6491   -0.9824   -0.9011 H   0  0  0  0  0  0  0  0  0  0  0  0
   -5.7780    0.5562   -0.8037 H   0  0  0  0  0  0  0  0  0  0  0  0
   -5.3235   -0.6728   -2.0333 H   0  0  0  0  0  0  0  0  0  0  0  0
  1  2  1  0
  2  3  1  0
  3  4  2  0
  4  5  1  0
  5  6  1  0
  6  7  2  0
  6  8  1  0
  8  9  1  0
  9 10  2  0
  9 11  2  0
  9 12  1  0
 12 13  2  0
 13 14  1  0
 14 15  2  0
 15 16  1  0
 15 17  1  0
 17 18  2  0
  5 19  2  0
 19 20  1  0
 20 21  1  0
 21 22  1  0
 20 23  2  0
 23 24  1  0
 24 25  1  0
 23  3  1  0
 18 12  1  0
  1 26  1  0
  1 27  1  0
  1 28  1  0
  4 29  1  0
  8 30  1  0
 13 31  1  0
 14 32  1  0
 16 33  1  0
 16 34  1  0
 17 35  1  0
 18 36  1  0
 19 37  1  0
 22 38  1  0
 22 39  1  0
 22 40  1  0
 25 41  1  0
 25 42  1  0
 25 43  1  0
M  END
$$$$
