
     RDKit          3D

 44 45  0  0  0  0  0  0  0  0999 V2000
    5.6370    0.5124    0.5185 C   0  0  0  0  0  0  0  0  0  0  0  0
    4.4233    0.8161   -0.3797 C   0  0  0  0  0  0  0  0  0  0  0  0
    4.7793    0.4209   -1.8216 C   0  0  0  0  0  0  0  0  0  0  0  0
    4.1277    2.3221   -0.3006 C   0  0  0  0  0  0  0  0  0  0  0  0
    3.2822    0.0301    0.1160 N   0  0  0  0  0  0  0  0  0  0  0  0
    2.0202    0.0324   -0.4347 C   0  0  0  0  0  0  0  0  0  0  0  0
    1.7038    0.6943   -1.4176 O   0  0  0  0  0  0  0  0  0  0  0  0
    0.9842   -0.8203    0.2143 C   0  0  0  0  0  0  0  0  0  0  0  0
   -0.2671   -0.9301   -0.4138 C   0  0  0  0  0  0  0  0  0  0  0  0
   -1.2793   -1.6974    0.1732 C   0  0  0  0  0  0  0  0  0  0  0  0
   -2.8534   -1.8217   -0.6451 S   0  0  0  0  0  6  0  0  0  0  0  0
   -3.6732   -2.7374    0.1236 O   0  0  0  0  0  0  0  0  0  0  0  0
   -2.5746   -2.0671   -2.0450 O   0  0  0  0  0  0  0  0  0  0  0  0
   -3.5635   -0.2030   -0.4984 C   0  0  0  0  0  0  0  0  0  0  0  0
   -4.9397   -0.1283   -1.1693 C   0  0  0  0  0  0  0  0  0  0  0  0
   -5.5131    1.2318   -0.7993 C   0  0  0  0  0  0  0  0  0  0  0  0
   -4.9607    1.5307    0.8724 S   0  0  0  0  0  6  0  0  0  0  0  0
   -4.2290    2.7791    0.8995 O   0  0  0  0  0  0  0  0  0  0  0  0
   -6.0411    1.2403    1.7890 O   0  0  0  0  0  0  0  0  0  0  0  0
   -3.7813    0.2013    0.9512 C   0  0  0  0  0  0  0  0  0  0  0  0
   -1.0564   -2.3806    1.3709 C   0  0  0  0  0  0  0  0  0  0  0  0
    0.1877   -2.2771    1.9926 C   0  0  0  0  0  0  0  0  0  0  0  0
    1.1951   -1.5007    1.4168 C   0  0  0  0  0  0  0  0  0  0  0  0
    2.3725   -1.4295    2.0564 F   0  0  0  0  0  0  0  0  0  0  0  0
    5.8859   -0.5551    0.4976 H   0  0  0  0  0  0  0  0  0  0  0  0
    5.4317    0.7775    1.5624 H   0  0  0  0  0  0  0  0  0  0  0  0
    6.5234    1.0710    0.1979 H   0  0  0  0  0  0  0  0  0  0  0  0
    3.9795    0.6719   -2.5255 H   0  0  0  0  0  0  0  0  0  0  0  0
    5.6845    0.9372   -2.1609 H   0  0  0  0  0  0  0  0  0  0  0  0
    4.9572   -0.6578   -1.9006 H   0  0  0  0  0  0  0  0  0  0  0  0
    3.8403    2.6131    0.7164 H   0  0  0  0  0  0  0  0  0  0  0  0
    3.3097    2.6148   -0.9666 H   0  0  0  0  0  0  0  0  0  0  0  0
    5.0059    2.9129   -0.5845 H   0  0  0  0  0  0  0  0  0  0  0  0
    3.4392   -0.5318    0.9460 H   0  0  0  0  0  0  0  0  0  0  0  0
   -0.4395   -0.4269   -1.3652 H   0  0  0  0  0  0  0  0  0  0  0  0
   -2.8851    0.5009   -0.9957 H   0  0  0  0  0  0  0  0  0  0  0  0
   -5.5946   -0.9222   -0.7890 H   0  0  0  0  0  0  0  0  0  0  0  0
   -4.8769   -0.2519   -2.2553 H   0  0  0  0  0  0  0  0  0  0  0  0
   -5.0988    2.0195   -1.4351 H   0  0  0  0  0  0  0  0  0  0  0  0
   -6.6040    1.2520   -0.8395 H   0  0  0  0  0  0  0  0  0  0  0  0
   -4.2238   -0.5988    1.5518 H   0  0  0  0  0  0  0  0  0  0  0  0
   -2.8670    0.5551    1.4333 H   0  0  0  0  0  0  0  0  0  0  0  0
   -1.8318   -2.9985    1.8209 H   0  0  0  0  0  0  0  0  0  0  0  0
    0.3837   -2.8015    2.9244 H   0  0  0  0  0  0  0  0  0  0  0  0
  1  2  1  0
  2  3  1  0
  2  4  1  0
  2  5  1  0
  5  6  1  0
  6  7  2  0
  6  8  1  0
  8  9  2  0
  9 10  1  0
 10 11  1  0
 11 12  2  0
 11 13  2  0
 11 14  1  0
 14 15  1  0
 15 16  1  0
 16 17  1  0
 17 18  2  0
 17 19  2  0
 17 20  1  0
 10 21  2  0
 21 22  1  0
 22 23  2  0
 23 24  1  0
 23  8  1  0
 20 14  1  0
  1 25  1  0
  1 26  1  0
  1 27  1  0
  3 28  1  0
  3 29  1  0
  3 30  1  0
  4 31  1  0
  4 32  1  0
  4 33  1  0
  5 34  1  0
  9 35  1  0
 14 36  1  0
 15 37  1  0
 15 38  1  0
 16 39  1  0
 16 40  1  0
 20 41  1  0
 20 42  1  0
 21 43  1  0
 22 44  1  0
M  END
$$$$
