
     RDKit          3D

 52 52  0  0  0  0  0  0  0  0999 V2000
    6.8569   -0.6067   -0.5799 C   0  0  0  0  0  0  0  0  0  0  0  0
    5.3578   -0.6179   -0.8495 C   0  0  0  0  0  0  0  0  0  0  0  0
    4.9806    0.6236   -1.4571 O   0  0  0  0  0  0  0  0  0  0  0  0
    4.5559   -0.7944    0.4557 C   0  0  0  0  0  0  0  0  0  0  0  0
    3.1120   -0.7756    0.1587 N   0  0  0  0  0  0  0  0  0  0  0  0
    2.3306   -0.6234    1.3873 C   0  0  0  0  0  0  0  0  0  0  0  0
    0.8279   -0.7808    1.1522 C   0  0  0  0  0  0  0  0  0  0  0  0
    0.2649    0.1514    0.0833 C   0  0  0  0  0  0  0  0  0  0  0  0
   -1.1592    0.0781    0.1412 O   0  0  0  0  0  0  0  0  0  0  0  0
   -1.8834    0.8180   -0.7569 C   0  0  0  0  0  0  0  0  0  0  0  0
   -1.3133    1.5411   -1.8118 C   0  0  0  0  0  0  0  0  0  0  0  0
   -2.1180    2.2646   -2.6940 C   0  0  0  0  0  0  0  0  0  0  0  0
   -3.4978    2.2766   -2.5304 C   0  0  0  0  0  0  0  0  0  0  0  0
   -4.0747    1.5642   -1.4808 C   0  0  0  0  0  0  0  0  0  0  0  0
   -3.2863    0.8235   -0.5786 C   0  0  0  0  0  0  0  0  0  0  0  0
   -3.9533    0.0846    0.5118 C   0  0  0  0  0  0  0  0  0  0  0  0
   -3.8600   -1.3149    0.6054 C   0  0  0  0  0  0  0  0  0  0  0  0
   -4.5111   -2.0124    1.6265 C   0  0  0  0  0  0  0  0  0  0  0  0
   -5.2694   -1.3206    2.5701 C   0  0  0  0  0  0  0  0  0  0  0  0
   -5.3742    0.0672    2.4963 C   0  0  0  0  0  0  0  0  0  0  0  0
   -4.7217    0.7630    1.4750 C   0  0  0  0  0  0  0  0  0  0  0  0
    1.1514   -0.7100   -0.7245 O   0  0  0  0  0  0  0  0  0  0  0  0
    0.7385   -0.2111    0.3039 C   0  0  0  0  0  0  0  0  0  0  0  0
    1.5441    0.0279    1.3480 O   0  0  0  0  0  0  0  0  0  0  0  0
   -0.7391    0.2123    0.5721 C   0  0  0  0  0  0  0  0  0  0  0  0
   -1.1592    0.6927    1.6080 O   0  0  0  0  0  0  0  0  0  0  0  0
   -1.5372   -0.0112   -0.4794 O   0  0  0  0  0  0  0  0  0  0  0  0
    7.4134   -0.4254   -1.5080 H   0  0  0  0  0  0  0  0  0  0  0  0
    7.1231    0.2023    0.1102 H   0  0  0  0  0  0  0  0  0  0  0  0
    7.1937   -1.5574   -0.1526 H   0  0  0  0  0  0  0  0  0  0  0  0
    5.1182   -1.4267   -1.5463 H   0  0  0  0  0  0  0  0  0  0  0  0
    5.4739    0.6927   -2.2966 H   0  0  0  0  0  0  0  0  0  0  0  0
    4.8295   -1.7389    0.9401 H   0  0  0  0  0  0  0  0  0  0  0  0
    4.7968    0.0311    1.1335 H   0  0  0  0  0  0  0  0  0  0  0  0
    2.9600    0.0315   -0.4546 H   0  0  0  0  0  0  0  0  0  0  0  0
    2.5225    0.3620    1.8356 H   0  0  0  0  0  0  0  0  0  0  0  0
    2.6366   -1.3796    2.1223 H   0  0  0  0  0  0  0  0  0  0  0  0
    0.5937   -1.8176    0.8857 H   0  0  0  0  0  0  0  0  0  0  0  0
    0.3042   -0.5974    2.0990 H   0  0  0  0  0  0  0  0  0  0  0  0
    0.6157   -0.1757   -0.9004 H   0  0  0  0  0  0  0  0  0  0  0  0
    0.5870    1.1791    0.2797 H   0  0  0  0  0  0  0  0  0  0  0  0
   -0.2422    1.5583   -1.9802 H   0  0  0  0  0  0  0  0  0  0  0  0
   -1.6640    2.8142   -3.5127 H   0  0  0  0  0  0  0  0  0  0  0  0
   -4.1268    2.8331   -3.2194 H   0  0  0  0  0  0  0  0  0  0  0  0
   -5.1575    1.5743   -1.3710 H   0  0  0  0  0  0  0  0  0  0  0  0
   -3.2721   -1.8690   -0.1248 H   0  0  0  0  0  0  0  0  0  0  0  0
   -4.4241   -3.0947    1.6806 H   0  0  0  0  0  0  0  0  0  0  0  0
   -5.7760   -1.8632    3.3644 H   0  0  0  0  0  0  0  0  0  0  0  0
   -5.9617    0.6108    3.2333 H   0  0  0  0  0  0  0  0  0  0  0  0
   -4.8079    1.8470    1.4372 H   0  0  0  0  0  0  0  0  0  0  0  0
    2.4214   -0.2920    1.0575 H   0  0  0  0  0  0  0  0  0  0  0  0
   -2.4200    0.2913   -0.1825 H   0  0  0  0  0  0  0  0  0  0  0  0
  1  2  1  0
  2  3  1  0
  2  4  1  0
  4  5  1  0
  5  6  1  0
  6  7  1  0
  7  8  1  0
  8  9  1  0
  9 10  1  0
 10 11  2  0
 11 12  1  0
 12 13  2  0
 13 14  1  0
 14 15  2  0
 15 16  1  0
 16 17  2  0
 17 18  1  0
 18 19  2  0
 19 20  1  0
 20 21  2  0
 22 23  2  0
 23 24  1  0
 23 25  1  0
 25 26  2  0
 25 27  1  0
 15 10  1  0
 21 16  1  0
  1 28  1  0
  1 29  1  0
  1 30  1  0
  2 31  1  0
  3 32  1  0
  4 33  1  0
  4 34  1  0
  5 35  1  0
  6 36  1  0
  6 37  1  0
  7 38  1  0
  7 39  1  0
  8 40  1  0
  8 41  1  0
 11 42  1  0
 12 43  1  0
 13 44  1  0
 14 45  1  0
 17 46  1  0
 18 47  1  0
 19 48  1  0
 20 49  1  0
 21 50  1  0
 24 51  1  0
 27 52  1  0
M  END
$$$$
