
     RDKit          3D

 40 41  0  0  0  0  0  0  0  0999 V2000
    4.6644    1.7352    0.9417 C   0  0  0  0  0  0  0  0  0  0  0  0
    3.7691    0.5133    1.1199 C   0  0  0  0  0  0  0  0  0  0  0  0
    3.1751    0.4773    2.5267 C   0  0  0  0  0  0  0  0  0  0  0  0
    2.7093    0.5211    0.1190 N   0  0  0  0  0  0  0  0  0  0  0  0
    2.0654   -0.6444   -0.2495 C   0  0  0  0  0  0  0  0  0  0  0  0
    2.4468   -1.7534    0.1152 O   0  0  0  0  0  0  0  0  0  0  0  0
    0.8680   -0.4431   -1.1835 C   0  0  0  0  0  0  0  0  0  0  0  0
    0.3323   -1.7738   -1.7411 C   0  0  0  0  0  0  0  0  0  0  0  0
   -0.9050   -2.2866   -0.9996 C   0  0  0  0  0  0  0  0  0  0  0  0
   -0.9187   -1.8898    0.4710 C   0  0  0  0  0  0  0  0  0  0  0  0
   -0.8367   -0.4198    0.6271 N   0  0  0  0  0  0  0  0  0  0  0  0
   -1.9965    0.3683    1.5751 S   0  0  0  0  0  6  0  0  0  0  0  0
   -2.3754   -0.4841    2.6796 O   0  0  0  0  0  0  0  0  0  0  0  0
   -1.5269    1.7224    1.7931 O   0  0  0  0  0  0  0  0  0  0  0  0
   -3.4683    0.5909    0.5873 C   0  0  0  0  0  0  0  0  0  0  0  0
   -4.0249    1.7216    0.0163 C   0  0  0  0  0  0  0  0  0  0  0  0
   -5.2182    1.4366   -0.7075 C   0  0  0  0  0  0  0  0  0  0  0  0
   -5.5357    0.0975   -0.6641 C   0  0  0  0  0  0  0  0  0  0  0  0
   -4.3998   -0.8021    0.2450 S   0  0  0  0  0  0  0  0  0  0  0  0
   -0.2545    0.3392   -0.4999 C   0  0  0  0  0  0  0  0  0  0  0  0
    5.4852    1.7282    1.6663 H   0  0  0  0  0  0  0  0  0  0  0  0
    5.0994    1.7527   -0.0636 H   0  0  0  0  0  0  0  0  0  0  0  0
    4.1002    2.6653    1.0729 H   0  0  0  0  0  0  0  0  0  0  0  0
    4.3738   -0.3894    0.9722 H   0  0  0  0  0  0  0  0  0  0  0  0
    2.5385    1.3502    2.7099 H   0  0  0  0  0  0  0  0  0  0  0  0
    3.9655    0.4648    3.2843 H   0  0  0  0  0  0  0  0  0  0  0  0
    2.5566   -0.4152    2.6705 H   0  0  0  0  0  0  0  0  0  0  0  0
    2.2575    1.4075   -0.0579 H   0  0  0  0  0  0  0  0  0  0  0  0
    1.2485    0.1435   -2.0309 H   0  0  0  0  0  0  0  0  0  0  0  0
    0.0574   -1.6355   -2.7950 H   0  0  0  0  0  0  0  0  0  0  0  0
    1.1078   -2.5483   -1.7416 H   0  0  0  0  0  0  0  0  0  0  0  0
   -0.9653   -3.3766   -1.0970 H   0  0  0  0  0  0  0  0  0  0  0  0
   -1.8004   -1.8834   -1.4894 H   0  0  0  0  0  0  0  0  0  0  0  0
   -0.0697   -2.3396    0.9973 H   0  0  0  0  0  0  0  0  0  0  0  0
   -1.8200   -2.2942    0.9400 H   0  0  0  0  0  0  0  0  0  0  0  0
   -3.5886    2.7079    0.1270 H   0  0  0  0  0  0  0  0  0  0  0  0
   -5.8166    2.1757   -1.2269 H   0  0  0  0  0  0  0  0  0  0  0  0
   -6.3841   -0.3978   -1.1172 H   0  0  0  0  0  0  0  0  0  0  0  0
   -1.0409    0.5612   -1.2315 H   0  0  0  0  0  0  0  0  0  0  0  0
    0.1253    1.2970   -0.1311 H   0  0  0  0  0  0  0  0  0  0  0  0
  1  2  1  0
  2  3  1  0
  2  4  1  0
  4  5  1  0
  5  6  2  0
  5  7  1  0
  7  8  1  0
  8  9  1  0
  9 10  1  0
 10 11  1  0
 11 12  1  0
 12 13  2  0
 12 14  2  0
 12 15  1  0
 15 16  2  0
 16 17  1  0
 17 18  2  0
 18 19  1  0
 11 20  1  0
 20  7  1  0
 19 15  1  0
  1 21  1  0
  1 22  1  0
  1 23  1  0
  2 24  1  0
  3 25  1  0
  3 26  1  0
  3 27  1  0
  4 28  1  0
  7 29  1  0
  8 30  1  0
  8 31  1  0
  9 32  1  0
  9 33  1  0
 10 34  1  0
 10 35  1  0
 16 36  1  0
 17 37  1  0
 18 38  1  0
 20 39  1  0
 20 40  1  0
M  END
$$$$
