
     RDKit          3D

 36 39  0  0  0  0  0  0  0  0999 V2000
    4.1356   -0.3522   -3.7649 F   0  0  0  0  0  0  0  0  0  0  0  0
    4.3359    0.1738   -2.5497 C   0  0  0  0  0  0  0  0  0  0  0  0
    5.5401    0.8065   -2.2701 C   0  0  0  0  0  0  0  0  0  0  0  0
    5.7486    1.3533   -1.0065 C   0  0  0  0  0  0  0  0  0  0  0  0
    4.7494    1.2629   -0.0303 C   0  0  0  0  0  0  0  0  0  0  0  0
    3.5323    0.6232   -0.3144 C   0  0  0  0  0  0  0  0  0  0  0  0
    2.4319    0.4924    0.6756 C   0  0  0  0  0  0  0  0  0  0  0  0
    1.3170   -0.1433    0.4158 N   0  0  0  0  0  0  0  0  0  0  0  0
    0.5582   -0.0444    1.5384 N   0  0  0  0  0  0  0  0  0  0  0  0
   -0.6821   -0.4896    1.8977 C   0  0  0  0  0  0  0  0  0  0  0  0
   -1.5776   -1.2523    0.9896 C   0  0  0  0  0  0  0  0  0  0  0  0
   -2.3380   -0.3776    0.0811 N   0  0  0  0  0  0  0  0  0  0  0  0
   -3.3918    0.4003    0.7744 C   0  0  0  0  0  0  0  0  0  0  0  0
   -4.7995   -0.1983    0.6223 C   0  0  0  0  0  0  0  0  0  0  0  0
   -5.2199   -0.3187   -0.7439 O   0  0  0  0  0  0  0  0  0  0  0  0
   -4.1264   -0.4656   -1.6596 C   0  0  0  0  0  0  0  0  0  0  0  0
   -2.9211   -1.1711   -1.0231 C   0  0  0  0  0  0  0  0  0  0  0  0
   -0.9062   -0.1329    3.1593 N   0  0  0  0  0  0  0  0  0  0  0  0
    0.2009    0.5747    3.6215 N   0  0  0  0  0  0  0  0  0  0  0  0
    1.0351    0.6041    2.6231 C   0  0  0  0  0  0  0  0  0  0  0  0
    2.5932    1.2167    2.3046 S   0  0  0  0  0  0  0  0  0  0  0  0
    3.3345    0.0766   -1.5899 C   0  0  0  0  0  0  0  0  0  0  0  0
    6.3059    0.8692   -3.0374 H   0  0  0  0  0  0  0  0  0  0  0  0
    6.6888    1.8509   -0.7785 H   0  0  0  0  0  0  0  0  0  0  0  0
    4.9536    1.7019    0.9429 H   0  0  0  0  0  0  0  0  0  0  0  0
   -2.2557   -1.8794    1.5826 H   0  0  0  0  0  0  0  0  0  0  0  0
   -0.9538   -1.9398    0.4026 H   0  0  0  0  0  0  0  0  0  0  0  0
   -3.1707    0.5529    1.8358 H   0  0  0  0  0  0  0  0  0  0  0  0
   -3.3948    1.3986    0.3185 H   0  0  0  0  0  0  0  0  0  0  0  0
   -4.8487   -1.1921    1.0823 H   0  0  0  0  0  0  0  0  0  0  0  0
   -5.5332    0.4326    1.1345 H   0  0  0  0  0  0  0  0  0  0  0  0
   -4.4920   -1.0427   -2.5151 H   0  0  0  0  0  0  0  0  0  0  0  0
   -3.8503    0.5281   -2.0316 H   0  0  0  0  0  0  0  0  0  0  0  0
   -2.1507   -1.3429   -1.7828 H   0  0  0  0  0  0  0  0  0  0  0  0
   -3.2565   -2.1498   -0.6545 H   0  0  0  0  0  0  0  0  0  0  0  0
    2.4080   -0.4259   -1.8550 H   0  0  0  0  0  0  0  0  0  0  0  0
  1  2  1  0
  2  3  2  0
  3  4  1  0
  4  5  2  0
  5  6  1  0
  6  7  1  0
  7  8  2  0
  8  9  1  0
  9 10  1  0
 10 11  1  0
 11 12  1  0
 12 13  1  0
 13 14  1  0
 14 15  1  0
 15 16  1  0
 16 17  1  0
 10 18  2  0
 18 19  1  0
 19 20  2  0
 20 21  1  0
  6 22  2  0
 22  2  1  0
 21  7  1  0
 20  9  1  0
 17 12  1  0
  3 23  1  0
  4 24  1  0
  5 25  1  0
 11 26  1  0
 11 27  1  0
 13 28  1  0
 13 29  1  0
 14 30  1  0
 14 31  1  0
 16 32  1  0
 16 33  1  0
 17 34  1  0
 17 35  1  0
 22 36  1  0
M  END
$$$$
