
     RDKit          3D

 45 46  0  0  0  0  0  0  0  0999 V2000
   -3.4729    1.2847   -2.1700 C   0  0  0  0  0  0  0  0  0  0  0  0
   -3.0514    0.2913   -1.0858 C   0  0  0  0  0  0  0  0  0  0  0  0
   -2.0527    0.8960   -0.2200 N   0  0  0  0  0  0  0  0  0  0  0  0
   -0.9143    0.2242    0.1655 C   0  0  0  0  0  0  0  0  0  0  0  0
   -0.5967   -0.8853   -0.2615 O   0  0  0  0  0  0  0  0  0  0  0  0
   -0.0820    0.9550    1.2224 C   0  0  0  0  0  0  0  0  0  0  0  0
    1.3140    0.5933    1.0626 N   0  0  0  0  0  0  0  0  0  0  0  0
    2.1577    1.3942    0.3268 C   0  0  0  0  0  0  0  0  0  0  0  0
    1.8410    2.5148   -0.0643 O   0  0  0  0  0  0  0  0  0  0  0  0
    3.5231    0.7918    0.0136 C   0  0  0  0  0  0  0  0  0  0  0  0
    3.4080   -0.3635   -0.9958 C   0  0  0  0  0  0  0  0  0  0  0  0
    4.4489   -1.4641   -0.7814 C   0  0  0  0  0  0  0  0  0  0  0  0
    5.7862   -0.8875   -0.3355 C   0  0  0  0  0  0  0  0  0  0  0  0
    5.6758   -0.1246    0.9861 C   0  0  0  0  0  0  0  0  0  0  0  0
    4.2614    0.3726    1.2886 C   0  0  0  0  0  0  0  0  0  0  0  0
   -4.1976   -0.2281   -0.2339 C   0  0  0  0  0  0  0  0  0  0  0  0
   -5.2793    0.5773    0.1551 C   0  0  0  0  0  0  0  0  0  0  0  0
   -6.2970    0.0632    0.9631 C   0  0  0  0  0  0  0  0  0  0  0  0
   -6.2430   -1.2573    1.4028 C   0  0  0  0  0  0  0  0  0  0  0  0
   -5.1688   -2.0653    1.0405 C   0  0  0  0  0  0  0  0  0  0  0  0
   -4.1519   -1.5534    0.2328 C   0  0  0  0  0  0  0  0  0  0  0  0
   -2.6186    1.5309   -2.8111 H   0  0  0  0  0  0  0  0  0  0  0  0
   -3.8342    2.2292   -1.7488 H   0  0  0  0  0  0  0  0  0  0  0  0
   -4.2625    0.8670   -2.8038 H   0  0  0  0  0  0  0  0  0  0  0  0
   -2.6009   -0.5627   -1.6080 H   0  0  0  0  0  0  0  0  0  0  0  0
   -2.3245    1.7249    0.2912 H   0  0  0  0  0  0  0  0  0  0  0  0
   -0.4061    0.6121    2.2093 H   0  0  0  0  0  0  0  0  0  0  0  0
   -0.2178    2.0377    1.1480 H   0  0  0  0  0  0  0  0  0  0  0  0
    1.5017   -0.4029    1.0576 H   0  0  0  0  0  0  0  0  0  0  0  0
    4.1107    1.5943   -0.4551 H   0  0  0  0  0  0  0  0  0  0  0  0
    2.4099   -0.8167   -0.9952 H   0  0  0  0  0  0  0  0  0  0  0  0
    3.5345    0.0538   -2.0037 H   0  0  0  0  0  0  0  0  0  0  0  0
    4.5743   -2.0350   -1.7084 H   0  0  0  0  0  0  0  0  0  0  0  0
    4.0858   -2.1703   -0.0243 H   0  0  0  0  0  0  0  0  0  0  0  0
    6.1598   -0.2092   -1.1132 H   0  0  0  0  0  0  0  0  0  0  0  0
    6.5303   -1.6862   -0.2380 H   0  0  0  0  0  0  0  0  0  0  0  0
    6.0064   -0.7656    1.8124 H   0  0  0  0  0  0  0  0  0  0  0  0
    6.3707    0.7238    0.9626 H   0  0  0  0  0  0  0  0  0  0  0  0
    4.3087    1.2063    1.9998 H   0  0  0  0  0  0  0  0  0  0  0  0
    3.7093   -0.4270    1.7993 H   0  0  0  0  0  0  0  0  0  0  0  0
   -5.3473    1.6146   -0.1612 H   0  0  0  0  0  0  0  0  0  0  0  0
   -7.1327    0.6960    1.2513 H   0  0  0  0  0  0  0  0  0  0  0  0
   -7.0354   -1.6553    2.0313 H   0  0  0  0  0  0  0  0  0  0  0  0
   -5.1187   -3.0939    1.3880 H   0  0  0  0  0  0  0  0  0  0  0  0
   -3.3118   -2.1953   -0.0305 H   0  0  0  0  0  0  0  0  0  0  0  0
  1  2  1  0
  2  3  1  0
  3  4  1  0
  4  5  2  0
  4  6  1  0
  6  7  1  0
  7  8  1  0
  8  9  2  0
  8 10  1  0
 10 11  1  0
 11 12  1  0
 12 13  1  0
 13 14  1  0
 14 15  1  0
  2 16  1  0
 16 17  2  0
 17 18  1  0
 18 19  2  0
 19 20  1  0
 20 21  2  0
 15 10  1  0
 21 16  1  0
  1 22  1  0
  1 23  1  0
  1 24  1  0
  2 25  1  0
  3 26  1  0
  6 27  1  0
  6 28  1  0
  7 29  1  0
 10 30  1  0
 11 31  1  0
 11 32  1  0
 12 33  1  0
 12 34  1  0
 13 35  1  0
 13 36  1  0
 14 37  1  0
 14 38  1  0
 15 39  1  0
 15 40  1  0
 17 41  1  0
 18 42  1  0
 19 43  1  0
 20 44  1  0
 21 45  1  0
M  END
$$$$
