
     RDKit          3D

 30 32  0  0  0  0  0  0  0  0999 V2000
   -1.2707    2.5939    0.4112 O   0  0  0  0  0  0  0  0  0  0  0  0
   -1.3673    1.3932    0.1924 C   0  0  0  0  0  0  0  0  0  0  0  0
   -0.3282    0.4906    0.0356 N   0  0  0  0  0  0  0  0  0  0  0  0
    1.0668    0.7704   -0.0012 C   0  0  0  0  0  0  0  0  0  0  0  0
    1.5419    2.0802   -0.0085 C   0  0  0  0  0  0  0  0  0  0  0  0
    2.9039    2.2923   -0.0583 C   0  0  0  0  0  0  0  0  0  0  0  0
    3.8157    1.3043   -0.1061 N   0  0  0  0  0  0  0  0  0  0  0  0
    3.3769    0.0409   -0.1033 C   0  0  0  0  0  0  0  0  0  0  0  0
    4.3366   -0.9615   -0.1546 C   0  0  0  0  0  0  0  0  0  0  0  0
    3.9954   -2.3140   -0.1569 C   0  0  0  0  0  0  0  0  0  0  0  0
    2.6593   -2.6718   -0.1049 C   0  0  0  0  0  0  0  0  0  0  0  0
    2.2135   -4.3328   -0.1058 Cl  0  0  0  0  0  0  0  0  0  0  0  0
    1.6715   -1.6883   -0.0520 C   0  0  0  0  0  0  0  0  0  0  0  0
    2.0040   -0.3056   -0.0520 C   0  0  0  0  0  0  0  0  0  0  0  0
   -2.7275    0.8052    0.1231 C   0  0  0  0  0  0  0  0  0  0  0  0
   -3.0523   -0.2782   -0.6983 C   0  0  0  0  0  0  0  0  0  0  0  0
   -4.3591   -0.7642   -0.7005 C   0  0  0  0  0  0  0  0  0  0  0  0
   -5.2957   -0.1459    0.1137 C   0  0  0  0  0  0  0  0  0  0  0  0
   -5.0166    0.9104    0.9073 N   0  0  0  0  0  0  0  0  0  0  0  0
   -3.7409    1.3714    0.8864 C   0  0  0  0  0  0  0  0  0  0  0  0
   -0.5891   -0.4829    0.0185 H   0  0  0  0  0  0  0  0  0  0  0  0
    0.8941    2.9470    0.0149 H   0  0  0  0  0  0  0  0  0  0  0  0
    3.3102    3.3002   -0.0645 H   0  0  0  0  0  0  0  0  0  0  0  0
    5.3871   -0.6784   -0.1938 H   0  0  0  0  0  0  0  0  0  0  0  0
    4.7760   -3.0685   -0.1977 H   0  0  0  0  0  0  0  0  0  0  0  0
    0.6405   -2.0207   -0.0066 H   0  0  0  0  0  0  0  0  0  0  0  0
   -2.3195   -0.7298   -1.3600 H   0  0  0  0  0  0  0  0  0  0  0  0
   -4.6460   -1.5991   -1.3311 H   0  0  0  0  0  0  0  0  0  0  0  0
   -6.3265   -0.4886    0.1446 H   0  0  0  0  0  0  0  0  0  0  0  0
   -3.5541    2.2303    1.5269 H   0  0  0  0  0  0  0  0  0  0  0  0
  1  2  2  0
  2  3  1  0
  3  4  1  0
  4  5  2  0
  5  6  1  0
  6  7  2  0
  7  8  1  0
  8  9  2  0
  9 10  1  0
 10 11  2  0
 11 12  1  0
 11 13  1  0
 13 14  2  0
  2 15  1  0
 15 16  2  0
 16 17  1  0
 17 18  2  0
 18 19  1  0
 19 20  2  0
 14  4  1  0
 20 15  1  0
 14  8  1  0
  3 21  1  0
  5 22  1  0
  6 23  1  0
  9 24  1  0
 10 25  1  0
 13 26  1  0
 16 27  1  0
 17 28  1  0
 18 29  1  0
 20 30  1  0
M  END
$$$$
