
     RDKit          3D

 38 41  0  0  0  0  0  0  0  0999 V2000
   -5.3960   -1.6618   -0.1413 C   0  0  0  0  0  0  0  0  0  0  0  0
   -5.0021   -0.2527   -0.1547 N   0  0  0  0  0  0  0  0  0  0  0  0
   -5.5112    0.4365   -1.3406 C   0  0  0  0  0  0  0  0  0  0  0  0
   -3.6069   -0.0721    0.0274 N   0  0  0  0  0  0  0  0  0  0  0  0
   -3.2519    0.6044    1.1765 C   0  0  0  0  0  0  0  0  0  0  0  0
   -1.9689    0.8437    1.4718 C   0  0  0  0  0  0  0  0  0  0  0  0
   -0.9168    0.3917    0.5802 C   0  0  0  0  0  0  0  0  0  0  0  0
   -1.2444   -0.2706   -0.5452 C   0  0  0  0  0  0  0  0  0  0  0  0
   -0.1105   -0.7003   -1.4005 C   0  0  0  0  0  0  0  0  0  0  0  0
    1.1505   -0.4929   -1.1635 N   0  0  0  0  0  0  0  0  0  0  0  0
    1.4482    0.1863   -0.0094 C   0  0  0  0  0  0  0  0  0  0  0  0
    2.6503    0.5691    0.5631 C   0  0  0  0  0  0  0  0  0  0  0  0
    3.9788    0.3134    0.0255 C   0  0  0  0  0  0  0  0  0  0  0  0
    5.0528    0.0764    0.8967 C   0  0  0  0  0  0  0  0  0  0  0  0
    6.3388   -0.1533    0.3988 C   0  0  0  0  0  0  0  0  0  0  0  0
    6.5669   -0.1458   -0.9750 C   0  0  0  0  0  0  0  0  0  0  0  0
    5.5105    0.0904   -1.8514 C   0  0  0  0  0  0  0  0  0  0  0  0
    4.2246    0.3199   -1.3540 C   0  0  0  0  0  0  0  0  0  0  0  0
    2.2771    1.2229    1.7555 C   0  0  0  0  0  0  0  0  0  0  0  0
    0.9599    1.2673    1.9460 N   0  0  0  0  0  0  0  0  0  0  0  0
    0.4392    0.6272    0.8636 N   0  0  0  0  0  0  0  0  0  0  0  0
   -2.6614   -0.5509   -0.9007 C   0  0  0  0  0  0  0  0  0  0  0  0
   -2.9136   -1.1578   -1.9401 O   0  0  0  0  0  0  0  0  0  0  0  0
   -5.0362   -2.2152   -1.0147 H   0  0  0  0  0  0  0  0  0  0  0  0
   -6.4879   -1.7478   -0.1134 H   0  0  0  0  0  0  0  0  0  0  0  0
   -5.0183   -2.1583    0.7598 H   0  0  0  0  0  0  0  0  0  0  0  0
   -5.2186    1.4925   -1.3271 H   0  0  0  0  0  0  0  0  0  0  0  0
   -6.6066    0.4138   -1.3487 H   0  0  0  0  0  0  0  0  0  0  0  0
   -5.1577   -0.0058   -2.2777 H   0  0  0  0  0  0  0  0  0  0  0  0
   -4.0583    0.9316    1.8265 H   0  0  0  0  0  0  0  0  0  0  0  0
   -1.6974    1.3774    2.3791 H   0  0  0  0  0  0  0  0  0  0  0  0
   -0.3845   -1.2450   -2.3200 H   0  0  0  0  0  0  0  0  0  0  0  0
    4.9019    0.0526    1.9732 H   0  0  0  0  0  0  0  0  0  0  0  0
    7.1606   -0.3418    1.0848 H   0  0  0  0  0  0  0  0  0  0  0  0
    7.5658   -0.3263   -1.3631 H   0  0  0  0  0  0  0  0  0  0  0  0
    5.6831    0.0959   -2.9245 H   0  0  0  0  0  0  0  0  0  0  0  0
    3.4185    0.5075   -2.0597 H   0  0  0  0  0  0  0  0  0  0  0  0
    2.9217    1.6780    2.4970 H   0  0  0  0  0  0  0  0  0  0  0  0
  1  2  1  0
  2  3  1  0
  2  4  1  0
  4  5  1  0
  5  6  2  0
  6  7  1  0
  7  8  2  0
  8  9  1  0
  9 10  2  0
 10 11  1  0
 11 12  2  0
 12 13  1  0
 13 14  2  0
 14 15  1  0
 15 16  2  0
 16 17  1  0
 17 18  2  0
 12 19  1  0
 19 20  2  0
 20 21  1  0
  8 22  1  0
 22 23  2  0
 22  4  1  0
 21  7  1  0
 21 11  1  0
 18 13  1  0
  1 24  1  0
  1 25  1  0
  1 26  1  0
  3 27  1  0
  3 28  1  0
  3 29  1  0
  5 30  1  0
  6 31  1  0
  9 32  1  0
 14 33  1  0
 15 34  1  0
 16 35  1  0
 17 36  1  0
 18 37  1  0
 19 38  1  0
M  END
$$$$
