
     RDKit          3D

 44 48  0  0  0  0  0  0  0  0999 V2000
   -1.8357   -1.5967   -3.2218 O   0  0  0  0  0  0  0  0  0  0  0  0
   -1.3150   -0.8101   -2.4356 C   0  0  0  0  0  0  0  0  0  0  0  0
    0.0861   -1.0206   -1.9931 C   0  0  0  0  0  0  0  0  0  0  0  0
    0.9235   -2.1483   -2.4800 C   0  0  0  0  0  0  0  0  0  0  0  0
    2.1516   -2.3973   -2.1353 N   0  0  0  0  0  0  0  0  0  0  0  0
    2.7060   -1.5281   -1.2398 C   0  0  0  0  0  0  0  0  0  0  0  0
    3.9108   -1.5319   -0.7193 N   0  0  0  0  0  0  0  0  0  0  0  0
    3.9261   -0.4405    0.1109 C   0  0  0  0  0  0  0  0  0  0  0  0
    5.1057   -0.0850    0.8919 C   0  0  0  0  0  0  0  0  0  0  0  0
    5.1043    1.0300    1.7338 C   0  0  0  0  0  0  0  0  0  0  0  0
    6.2532    1.3179    2.4506 C   0  0  0  0  0  0  0  0  0  0  0  0
    7.3826    0.5822    2.3856 N   0  0  0  0  0  0  0  0  0  0  0  0
    7.3631   -0.4905    1.5664 C   0  0  0  0  0  0  0  0  0  0  0  0
    6.2648   -0.8604    0.8096 C   0  0  0  0  0  0  0  0  0  0  0  0
    2.7796    0.2526    0.1362 N   0  0  0  0  0  0  0  0  0  0  0  0
    1.9927   -0.4377   -0.7268 N   0  0  0  0  0  0  0  0  0  0  0  0
    0.6699   -0.1876   -1.1116 C   0  0  0  0  0  0  0  0  0  0  0  0
   -0.0831    0.9337   -0.5859 C   0  0  0  0  0  0  0  0  0  0  0  0
   -1.3432    1.1444   -0.9838 C   0  0  0  0  0  0  0  0  0  0  0  0
   -1.9583    0.3070   -1.8997 N   0  0  0  0  0  0  0  0  0  0  0  0
   -3.3535    0.5596   -2.2769 C   0  0  0  0  0  0  0  0  0  0  0  0
   -4.3608   -0.2977   -1.4967 C   0  0  0  0  0  0  0  0  0  0  0  0
   -4.4568    0.0785   -0.0368 C   0  0  0  0  0  0  0  0  0  0  0  0
   -5.1765    1.2141    0.3597 C   0  0  0  0  0  0  0  0  0  0  0  0
   -5.2423    1.5743    1.7064 C   0  0  0  0  0  0  0  0  0  0  0  0
   -4.5900    0.8047    2.6679 C   0  0  0  0  0  0  0  0  0  0  0  0
   -3.8730   -0.3269    2.2844 C   0  0  0  0  0  0  0  0  0  0  0  0
   -3.8065   -0.6895    0.9386 C   0  0  0  0  0  0  0  0  0  0  0  0
    0.4363   -2.8260   -3.2020 H   0  0  0  0  0  0  0  0  0  0  0  0
    4.2300    1.6646    1.8334 H   0  0  0  0  0  0  0  0  0  0  0  0
    6.2965    2.1747    3.1169 H   0  0  0  0  0  0  0  0  0  0  0  0
    8.2842   -1.0653    1.5323 H   0  0  0  0  0  0  0  0  0  0  0  0
    6.3153   -1.7361    0.1698 H   0  0  0  0  0  0  0  0  0  0  0  0
    0.3873    1.5933    0.1392 H   0  0  0  0  0  0  0  0  0  0  0  0
   -1.9266    1.9736   -0.5908 H   0  0  0  0  0  0  0  0  0  0  0  0
   -3.4574    0.3282   -3.3444 H   0  0  0  0  0  0  0  0  0  0  0  0
   -3.5725    1.6290   -2.1669 H   0  0  0  0  0  0  0  0  0  0  0  0
   -4.1113   -1.3619   -1.5897 H   0  0  0  0  0  0  0  0  0  0  0  0
   -5.3546   -0.1823   -1.9481 H   0  0  0  0  0  0  0  0  0  0  0  0
   -5.6943    1.8240   -0.3772 H   0  0  0  0  0  0  0  0  0  0  0  0
   -5.8059    2.4539    2.0069 H   0  0  0  0  0  0  0  0  0  0  0  0
   -4.6441    1.0842    3.7168 H   0  0  0  0  0  0  0  0  0  0  0  0
   -3.3670   -0.9292    3.0346 H   0  0  0  0  0  0  0  0  0  0  0  0
   -3.2413   -1.5746    0.6552 H   0  0  0  0  0  0  0  0  0  0  0  0
  1  2  2  0
  2  3  1  0
  3  4  1  0
  4  5  2  0
  5  6  1  0
  6  7  2  0
  7  8  1  0
  8  9  1  0
  9 10  2  0
 10 11  1  0
 11 12  2  0
 12 13  1  0
 13 14  2  0
  8 15  2  0
 15 16  1  0
 16 17  1  0
 17 18  1  0
 18 19  2  0
 19 20  1  0
 20 21  1  0
 21 22  1  0
 22 23  1  0
 23 24  2  0
 24 25  1  0
 25 26  2  0
 26 27  1  0
 27 28  2  0
 20  2  1  0
 28 23  1  0
 17  3  2  0
 16  6  1  0
 14  9  1  0
  4 29  1  0
 10 30  1  0
 11 31  1  0
 13 32  1  0
 14 33  1  0
 18 34  1  0
 19 35  1  0
 21 36  1  0
 21 37  1  0
 22 38  1  0
 22 39  1  0
 24 40  1  0
 25 41  1  0
 26 42  1  0
 27 43  1  0
 28 44  1  0
M  END
$$$$
