
     RDKit          3D

 38 39  0  0  0  0  0  0  0  0999 V2000
    5.1988    1.3859    0.6305 C   0  0  0  0  0  0  0  0  0  0  0  0
    4.6832   -0.0670    1.5209 S   0  0  0  0  0  6  0  0  0  0  0  0
    3.4453    0.2094    2.2127 O   0  0  0  0  0  0  0  0  0  0  0  0
    5.8426   -0.5758    2.2235 O   0  0  0  0  0  0  0  0  0  0  0  0
    4.4213   -1.1556    0.2599 N   0  0  0  0  0  0  0  0  0  0  0  0
    3.0975   -1.4616   -0.1793 C   0  0  0  0  0  0  0  0  0  0  0  0
    2.7946   -2.7941   -0.4679 C   0  0  0  0  0  0  0  0  0  0  0  0
    1.5409   -3.1412   -0.9812 C   0  0  0  0  0  0  0  0  0  0  0  0
    0.5810   -2.1557   -1.2276 C   0  0  0  0  0  0  0  0  0  0  0  0
   -0.9118   -2.6626   -1.9316 Cl  0  0  0  0  0  0  0  0  0  0  0  0
    0.8825   -0.8184   -0.9500 C   0  0  0  0  0  0  0  0  0  0  0  0
   -0.0559    0.3038   -1.1962 C   0  0  0  0  0  0  0  0  0  0  0  0
    0.3736    1.2759   -1.8066 O   0  0  0  0  0  0  0  0  0  0  0  0
   -1.3110    0.1424   -0.6534 N   0  0  0  0  0  0  0  0  0  0  0  0
   -2.4078    1.0395   -0.6755 C   0  0  0  0  0  0  0  0  0  0  0  0
   -2.3261    2.3019   -1.2752 C   0  0  0  0  0  0  0  0  0  0  0  0
   -3.4168    3.1768   -1.2622 C   0  0  0  0  0  0  0  0  0  0  0  0
   -4.6059    2.8072   -0.6439 C   0  0  0  0  0  0  0  0  0  0  0  0
   -4.7140    1.5521   -0.0476 C   0  0  0  0  0  0  0  0  0  0  0  0
   -3.6302    0.6559   -0.0727 C   0  0  0  0  0  0  0  0  0  0  0  0
   -3.7780   -0.6939    0.5511 C   0  0  0  0  0  0  0  0  0  0  0  0
   -5.0387   -1.2174    0.6528 N   0  0  0  0  0  0  0  0  0  0  0  0
   -2.8071   -1.3470    0.9194 O   0  0  0  0  0  0  0  0  0  0  0  0
    2.1505   -0.4746   -0.4494 C   0  0  0  0  0  0  0  0  0  0  0  0
    5.4667    2.1496    1.3641 H   0  0  0  0  0  0  0  0  0  0  0  0
    6.0704    1.1373    0.0221 H   0  0  0  0  0  0  0  0  0  0  0  0
    4.3775    1.7446    0.0099 H   0  0  0  0  0  0  0  0  0  0  0  0
    5.0628   -1.9448    0.3567 H   0  0  0  0  0  0  0  0  0  0  0  0
    3.5260   -3.5802   -0.2970 H   0  0  0  0  0  0  0  0  0  0  0  0
    1.3254   -4.1849   -1.2001 H   0  0  0  0  0  0  0  0  0  0  0  0
   -1.4840   -0.7209   -0.1305 H   0  0  0  0  0  0  0  0  0  0  0  0
   -1.4163    2.6439   -1.7590 H   0  0  0  0  0  0  0  0  0  0  0  0
   -3.3253    4.1549   -1.7293 H   0  0  0  0  0  0  0  0  0  0  0  0
   -5.4443    3.4991   -0.6204 H   0  0  0  0  0  0  0  0  0  0  0  0
   -5.6425    1.2973    0.4552 H   0  0  0  0  0  0  0  0  0  0  0  0
   -5.8058   -0.8719    0.0935 H   0  0  0  0  0  0  0  0  0  0  0  0
   -5.0893   -2.1845    0.9492 H   0  0  0  0  0  0  0  0  0  0  0  0
    2.3702    0.5746   -0.2735 H   0  0  0  0  0  0  0  0  0  0  0  0
  1  2  1  0
  2  3  2  0
  2  4  2  0
  2  5  1  0
  5  6  1  0
  6  7  2  0
  7  8  1  0
  8  9  2  0
  9 10  1  0
  9 11  1  0
 11 12  1  0
 12 13  2  0
 12 14  1  0
 14 15  1  0
 15 16  2  0
 16 17  1  0
 17 18  2  0
 18 19  1  0
 19 20  2  0
 20 21  1  0
 21 22  1  0
 21 23  2  0
 11 24  2  0
 24  6  1  0
 20 15  1  0
  1 25  1  0
  1 26  1  0
  1 27  1  0
  5 28  1  0
  7 29  1  0
  8 30  1  0
 14 31  1  0
 16 32  1  0
 17 33  1  0
 18 34  1  0
 19 35  1  0
 22 36  1  0
 22 37  1  0
 24 38  1  0
M  END
$$$$
