
     RDKit          3D

 43 45  0  0  0  0  0  0  0  0999 V2000
    4.6646    2.9935   -0.7868 N   0  0  0  0  0  0  0  0  0  0  0  0
    3.6514    2.4182   -0.0734 C   0  0  0  0  0  0  0  0  0  0  0  0
    2.9826    3.0657    0.7215 O   0  0  0  0  0  0  0  0  0  0  0  0
    3.4099    0.9683   -0.2774 C   0  0  0  0  0  0  0  0  0  0  0  0
    3.7099    0.3301   -1.4883 C   0  0  0  0  0  0  0  0  0  0  0  0
    3.4421   -1.0322   -1.6473 C   0  0  0  0  0  0  0  0  0  0  0  0
    2.8579   -1.7563   -0.6077 C   0  0  0  0  0  0  0  0  0  0  0  0
    2.5293   -1.1088    0.5878 C   0  0  0  0  0  0  0  0  0  0  0  0
    1.7924   -2.0295    1.9228 S   0  0  0  0  0  6  0  0  0  0  0  0
    2.2514   -1.4330    3.1585 O   0  0  0  0  0  0  0  0  0  0  0  0
    2.0084   -3.4345    1.6462 O   0  0  0  0  0  0  0  0  0  0  0  0
    0.1400   -1.7188    1.7586 N   0  0  0  0  0  0  0  0  0  0  0  0
   -0.5631   -2.3778    0.6222 C   0  0  0  0  0  0  0  0  0  0  0  0
   -1.9850   -1.8235    0.4172 C   0  0  0  0  0  0  0  0  0  0  0  0
   -1.9462   -0.3758    0.1584 N   0  0  0  0  0  0  0  0  0  0  0  0
   -2.9671    0.2748   -0.5187 C   0  0  0  0  0  0  0  0  0  0  0  0
   -4.2230   -0.3174   -0.7293 C   0  0  0  0  0  0  0  0  0  0  0  0
   -5.2490    0.3415   -1.4193 C   0  0  0  0  0  0  0  0  0  0  0  0
   -5.0416    1.6185   -1.9251 C   0  0  0  0  0  0  0  0  0  0  0  0
   -3.8092    2.2316   -1.7402 C   0  0  0  0  0  0  0  0  0  0  0  0
   -2.7905    1.5650   -1.0479 C   0  0  0  0  0  0  0  0  0  0  0  0
   -0.9117    0.3987    0.8696 C   0  0  0  0  0  0  0  0  0  0  0  0
   -0.3667   -0.3578    2.0962 C   0  0  0  0  0  0  0  0  0  0  0  0
    2.8259    0.2446    0.7675 C   0  0  0  0  0  0  0  0  0  0  0  0
    5.3922    2.4440   -1.2217 H   0  0  0  0  0  0  0  0  0  0  0  0
    4.8949    3.9471   -0.5351 H   0  0  0  0  0  0  0  0  0  0  0  0
    4.1302    0.8842   -2.3234 H   0  0  0  0  0  0  0  0  0  0  0  0
    3.6816   -1.5280   -2.5858 H   0  0  0  0  0  0  0  0  0  0  0  0
    2.6574   -2.8181   -0.7385 H   0  0  0  0  0  0  0  0  0  0  0  0
    0.0049   -2.2317   -0.3025 H   0  0  0  0  0  0  0  0  0  0  0  0
   -0.6270   -3.4525    0.8238 H   0  0  0  0  0  0  0  0  0  0  0  0
   -2.5998   -2.0216    1.3035 H   0  0  0  0  0  0  0  0  0  0  0  0
   -2.4237   -2.3601   -0.4324 H   0  0  0  0  0  0  0  0  0  0  0  0
   -4.4437   -1.3055   -0.3364 H   0  0  0  0  0  0  0  0  0  0  0  0
   -6.2099   -0.1477   -1.5541 H   0  0  0  0  0  0  0  0  0  0  0  0
   -5.8348    2.1322   -2.4606 H   0  0  0  0  0  0  0  0  0  0  0  0
   -3.6305    3.2275   -2.1364 H   0  0  0  0  0  0  0  0  0  0  0  0
   -1.8355    2.0746   -0.9504 H   0  0  0  0  0  0  0  0  0  0  0  0
   -0.0962    0.6155    0.1709 H   0  0  0  0  0  0  0  0  0  0  0  0
   -1.3133    1.3538    1.2297 H   0  0  0  0  0  0  0  0  0  0  0  0
    0.4018    0.2476    2.5852 H   0  0  0  0  0  0  0  0  0  0  0  0
   -1.1678   -0.4866    2.8352 H   0  0  0  0  0  0  0  0  0  0  0  0
    2.6067    0.7400    1.7118 H   0  0  0  0  0  0  0  0  0  0  0  0
  1  2  1  0
  2  3  2  0
  2  4  1  0
  4  5  2  0
  5  6  1  0
  6  7  2  0
  7  8  1  0
  8  9  1  0
  9 10  2  0
  9 11  2  0
  9 12  1  0
 12 13  1  0
 13 14  1  0
 14 15  1  0
 15 16  1  0
 16 17  2  0
 17 18  1  0
 18 19  2  0
 19 20  1  0
 20 21  2  0
 15 22  1  0
 22 23  1  0
  8 24  2  0
 24  4  1  0
 23 12  1  0
 21 16  1  0
  1 25  1  0
  1 26  1  0
  5 27  1  0
  6 28  1  0
  7 29  1  0
 13 30  1  0
 13 31  1  0
 14 32  1  0
 14 33  1  0
 17 34  1  0
 18 35  1  0
 19 36  1  0
 20 37  1  0
 21 38  1  0
 22 39  1  0
 22 40  1  0
 23 41  1  0
 23 42  1  0
 24 43  1  0
M  END
$$$$
