
     RDKit          3D

 51 54  0  0  0  0  0  0  0  0999 V2000
    6.8555    2.7545   -0.6700 C   0  0  0  0  0  0  0  0  0  0  0  0
    6.2173    1.5629   -0.0616 C   0  0  0  0  0  0  0  0  0  0  0  0
    6.7293    0.7234    0.9422 C   0  0  0  0  0  0  0  0  0  0  0  0
    5.7582   -0.2327    1.1559 C   0  0  0  0  0  0  0  0  0  0  0  0
    5.7654   -1.3723    2.1073 C   0  0  0  0  0  0  0  0  0  0  0  0
    4.7166    0.0650    0.2835 N   0  0  0  0  0  0  0  0  0  0  0  0
    3.4674   -0.6203    0.1126 C   0  0  0  0  0  0  0  0  0  0  0  0
    2.5761   -0.1448   -0.8369 C   0  0  0  0  0  0  0  0  0  0  0  0
    1.3693   -0.8064   -0.9826 C   0  0  0  0  0  0  0  0  0  0  0  0
    0.4360   -0.3726   -1.9369 N   0  0  0  0  0  0  0  0  0  0  0  0
   -0.7320   -1.2579   -2.1246 C   0  0  0  0  0  0  0  0  0  0  0  0
   -1.8112   -1.0411   -1.0447 C   0  0  0  0  0  0  0  0  0  0  0  0
   -2.1684    0.3810   -0.8708 N   0  0  0  0  0  0  0  0  0  0  0  0
   -3.3131    0.7736   -0.1673 C   0  0  0  0  0  0  0  0  0  0  0  0
   -3.3417    1.8114    0.4883 O   0  0  0  0  0  0  0  0  0  0  0  0
   -4.3806   -0.0830   -0.3216 N   0  0  0  0  0  0  0  0  0  0  0  0
   -5.6045   -0.0534    0.3786 C   0  0  0  0  0  0  0  0  0  0  0  0
   -6.6506   -0.8444   -0.1202 C   0  0  0  0  0  0  0  0  0  0  0  0
   -7.8902   -0.8827    0.5260 C   0  0  0  0  0  0  0  0  0  0  0  0
   -8.0897   -0.1348    1.6824 C   0  0  0  0  0  0  0  0  0  0  0  0
   -7.0487    0.6392    2.1810 C   0  0  0  0  0  0  0  0  0  0  0  0
   -7.2408    1.3492    3.3010 F   0  0  0  0  0  0  0  0  0  0  0  0
   -5.8111    0.6848    1.5444 C   0  0  0  0  0  0  0  0  0  0  0  0
   -1.0098    1.2786   -0.7482 C   0  0  0  0  0  0  0  0  0  0  0  0
    0.0406    1.0513   -1.8500 C   0  0  0  0  0  0  0  0  0  0  0  0
    1.0996   -1.8984   -0.2456 N   0  0  0  0  0  0  0  0  0  0  0  0
    2.0200   -2.2880    0.6464 C   0  0  0  0  0  0  0  0  0  0  0  0
    3.1967   -1.7007    0.8751 N   0  0  0  0  0  0  0  0  0  0  0  0
    5.0052    1.1733   -0.4618 N   0  0  0  0  0  0  0  0  0  0  0  0
    6.2404    3.6452   -0.5064 H   0  0  0  0  0  0  0  0  0  0  0  0
    6.9826    2.6137   -1.7482 H   0  0  0  0  0  0  0  0  0  0  0  0
    7.8424    2.9400   -0.2342 H   0  0  0  0  0  0  0  0  0  0  0  0
    7.6819    0.8002    1.4484 H   0  0  0  0  0  0  0  0  0  0  0  0
    6.7022   -1.3931    2.6750 H   0  0  0  0  0  0  0  0  0  0  0  0
    4.9496   -1.2860    2.8316 H   0  0  0  0  0  0  0  0  0  0  0  0
    5.6854   -2.3274    1.5792 H   0  0  0  0  0  0  0  0  0  0  0  0
    2.8252    0.6995   -1.4674 H   0  0  0  0  0  0  0  0  0  0  0  0
   -1.1707   -1.0194   -3.1026 H   0  0  0  0  0  0  0  0  0  0  0  0
   -0.4409   -2.3141   -2.1814 H   0  0  0  0  0  0  0  0  0  0  0  0
   -2.6898   -1.6355   -1.3080 H   0  0  0  0  0  0  0  0  0  0  0  0
   -1.4720   -1.4005   -0.0664 H   0  0  0  0  0  0  0  0  0  0  0  0
   -4.3706   -0.6196   -1.1740 H   0  0  0  0  0  0  0  0  0  0  0  0
   -6.5169   -1.4385   -1.0208 H   0  0  0  0  0  0  0  0  0  0  0  0
   -8.6951   -1.4949    0.1276 H   0  0  0  0  0  0  0  0  0  0  0  0
   -9.0431   -0.1505    2.2004 H   0  0  0  0  0  0  0  0  0  0  0  0
   -5.0337    1.2967    1.9884 H   0  0  0  0  0  0  0  0  0  0  0  0
   -0.5707    1.1131    0.2436 H   0  0  0  0  0  0  0  0  0  0  0  0
   -1.3479    2.3204   -0.7895 H   0  0  0  0  0  0  0  0  0  0  0  0
    0.8932    1.7216   -1.7001 H   0  0  0  0  0  0  0  0  0  0  0  0
   -0.3967    1.3338   -2.8166 H   0  0  0  0  0  0  0  0  0  0  0  0
    1.7843   -3.1648    1.2394 H   0  0  0  0  0  0  0  0  0  0  0  0
  1  2  1  0
  2  3  1  0
  3  4  2  0
  4  5  1  0
  4  6  1  0
  6  7  1  0
  7  8  2  0
  8  9  1  0
  9 10  1  0
 10 11  1  0
 11 12  1  0
 12 13  1  0
 13 14  1  0
 14 15  2  0
 14 16  1  0
 16 17  1  0
 17 18  2  0
 18 19  1  0
 19 20  2  0
 20 21  1  0
 21 22  1  0
 21 23  2  0
 13 24  1  0
 24 25  1  0
  9 26  2  0
 26 27  1  0
 27 28  2  0
  6 29  1  0
 29  2  2  0
 28  7  1  0
 25 10  1  0
 23 17  1  0
  1 30  1  0
  1 31  1  0
  1 32  1  0
  3 33  1  0
  5 34  1  0
  5 35  1  0
  5 36  1  0
  8 37  1  0
 11 38  1  0
 11 39  1  0
 12 40  1  0
 12 41  1  0
 16 42  1  0
 18 43  1  0
 19 44  1  0
 20 45  1  0
 23 46  1  0
 24 47  1  0
 24 48  1  0
 25 49  1  0
 25 50  1  0
 27 51  1  0
M  END
$$$$
