
     RDKit          3D

 35 37  0  0  0  0  0  0  0  0999 V2000
   -5.7485    1.3265   -2.4111 C   0  0  0  0  0  0  0  0  0  0  0  0
   -4.4469    0.9772   -1.7338 C   0  0  0  0  0  0  0  0  0  0  0  0
   -4.5205    0.4809   -0.3225 C   0  0  0  0  0  0  0  0  0  0  0  0
   -3.3515    0.1734    0.2682 C   0  0  0  0  0  0  0  0  0  0  0  0
   -3.2627   -0.3343    1.6736 C   0  0  0  0  0  0  0  0  0  0  0  0
   -2.1607    0.3321   -0.4558 N   0  0  0  0  0  0  0  0  0  0  0  0
   -0.8893    0.0777   -0.0383 N   0  0  0  0  0  0  0  0  0  0  0  0
   -0.1111    0.3891   -1.0947 C   0  0  0  0  0  0  0  0  0  0  0  0
    1.3560    0.2476   -1.0402 C   0  0  0  0  0  0  0  0  0  0  0  0
    2.0651    0.5299   -1.9987 O   0  0  0  0  0  0  0  0  0  0  0  0
    1.7772   -0.2248    0.1885 N   0  0  0  0  0  0  0  0  0  0  0  0
    3.0845   -0.4889    0.6249 C   0  0  0  0  0  0  0  0  0  0  0  0
    4.2214   -0.3027   -0.1639 C   0  0  0  0  0  0  0  0  0  0  0  0
    5.4941   -0.5898    0.3454 C   0  0  0  0  0  0  0  0  0  0  0  0
    5.6406   -1.0665    1.6502 C   0  0  0  0  0  0  0  0  0  0  0  0
    6.9435   -1.3603    2.1710 C   0  0  0  0  0  0  0  0  0  0  0  0
    7.9957   -1.5999    2.5983 N   0  0  0  0  0  0  0  0  0  0  0  0
    4.5069   -1.2549    2.4442 C   0  0  0  0  0  0  0  0  0  0  0  0
    3.2371   -0.9671    1.9325 C   0  0  0  0  0  0  0  0  0  0  0  0
   -0.8782    0.8426   -2.1894 C   0  0  0  0  0  0  0  0  0  0  0  0
   -2.1854    0.8024   -1.7713 C   0  0  0  0  0  0  0  0  0  0  0  0
   -3.3465    1.1273   -2.4125 N   0  0  0  0  0  0  0  0  0  0  0  0
   -5.8676    0.7060   -3.3040 H   0  0  0  0  0  0  0  0  0  0  0  0
   -6.6033    1.1624   -1.7503 H   0  0  0  0  0  0  0  0  0  0  0  0
   -5.7285    2.3791   -2.7084 H   0  0  0  0  0  0  0  0  0  0  0  0
   -5.4837    0.3891    0.1605 H   0  0  0  0  0  0  0  0  0  0  0  0
   -2.6638    0.3428    2.2918 H   0  0  0  0  0  0  0  0  0  0  0  0
   -2.8027   -1.3279    1.6970 H   0  0  0  0  0  0  0  0  0  0  0  0
   -4.2512   -0.4175    2.1383 H   0  0  0  0  0  0  0  0  0  0  0  0
    1.0102   -0.3916    0.8362 H   0  0  0  0  0  0  0  0  0  0  0  0
    4.1549    0.0658   -1.1835 H   0  0  0  0  0  0  0  0  0  0  0  0
    6.3652   -0.4363   -0.2895 H   0  0  0  0  0  0  0  0  0  0  0  0
    4.6012   -1.6255    3.4632 H   0  0  0  0  0  0  0  0  0  0  0  0
    2.3699   -1.1221    2.5706 H   0  0  0  0  0  0  0  0  0  0  0  0
   -0.5215    1.1583   -3.1596 H   0  0  0  0  0  0  0  0  0  0  0  0
  1  2  1  0
  2  3  1  0
  3  4  2  0
  4  5  1  0
  4  6  1  0
  6  7  1  0
  7  8  2  0
  8  9  1  0
  9 10  2  0
  9 11  1  0
 11 12  1  0
 12 13  2  0
 13 14  1  0
 14 15  2  0
 15 16  1  0
 16 17  3  0
 15 18  1  0
 18 19  2  0
  8 20  1  0
 20 21  2  0
 21 22  1  0
 22  2  2  0
 21  6  1  0
 19 12  1  0
  1 23  1  0
  1 24  1  0
  1 25  1  0
  3 26  1  0
  5 27  1  0
  5 28  1  0
  5 29  1  0
 11 30  1  0
 13 31  1  0
 14 32  1  0
 18 33  1  0
 19 34  1  0
 20 35  1  0
M  END
$$$$
