
     RDKit          3D

 60 63  0  0  0  0  0  0  0  0999 V2000
    9.2636    0.0055   -1.1857 C   0  0  0  0  0  0  0  0  0  0  0  0
    8.1798    0.9243   -1.2265 O   0  0  0  0  0  0  0  0  0  0  0  0
    7.1365    0.7191   -0.3621 C   0  0  0  0  0  0  0  0  0  0  0  0
    7.0060   -0.4005    0.4685 C   0  0  0  0  0  0  0  0  0  0  0  0
    5.8977   -0.5329    1.3116 C   0  0  0  0  0  0  0  0  0  0  0  0
    4.9065    0.4511    1.3159 C   0  0  0  0  0  0  0  0  0  0  0  0
    3.5055    0.3037    2.4108 S   0  0  0  0  0  6  0  0  0  0  0  0
    3.8443   -0.6992    3.3991 O   0  0  0  0  0  0  0  0  0  0  0  0
    3.1404    1.6483    2.7958 O   0  0  0  0  0  0  0  0  0  0  0  0
    2.3031   -0.3431    1.3978 N   0  0  0  0  0  0  0  0  0  0  0  0
    2.4234   -1.7756    1.0554 C   0  0  0  0  0  0  0  0  0  0  0  0
    1.5945   -2.1406   -0.1695 C   0  0  0  0  0  0  0  0  0  0  0  0
    0.2247   -1.4777   -0.1260 C   0  0  0  0  0  0  0  0  0  0  0  0
    0.3240    0.0562   -0.0797 C   0  0  0  0  0  0  0  0  0  0  0  0
   -0.7789    0.6660    0.7960 C   0  0  0  0  0  0  0  0  0  0  0  0
   -0.5051    1.3054    1.8122 O   0  0  0  0  0  0  0  0  0  0  0  0
   -2.1013    0.4836    0.4130 N   0  0  0  0  0  0  0  0  0  0  0  0
   -2.5625   -0.0803   -0.8610 C   0  0  0  0  0  0  0  0  0  0  0  0
   -3.9549    0.4279   -1.2859 C   0  0  0  0  0  0  0  0  0  0  0  0
   -4.9530    0.1803   -0.2370 N   0  0  0  0  0  0  0  0  0  0  0  0
   -6.3091    0.1137   -0.5230 C   0  0  0  0  0  0  0  0  0  0  0  0
   -7.2249   -0.4445    0.3852 C   0  0  0  0  0  0  0  0  0  0  0  0
   -8.5952   -0.5240    0.1071 C   0  0  0  0  0  0  0  0  0  0  0  0
   -9.0898   -0.0444   -1.0986 C   0  0  0  0  0  0  0  0  0  0  0  0
   -8.2120    0.5093   -2.0217 C   0  0  0  0  0  0  0  0  0  0  0  0
   -6.8428    0.5829   -1.7344 C   0  0  0  0  0  0  0  0  0  0  0  0
   -4.4865    0.2325    1.1617 C   0  0  0  0  0  0  0  0  0  0  0  0
   -3.1549    0.9927    1.2992 C   0  0  0  0  0  0  0  0  0  0  0  0
    1.7220    0.5375    0.3590 C   0  0  0  0  0  0  0  0  0  0  0  0
    5.0331    1.5873    0.5161 C   0  0  0  0  0  0  0  0  0  0  0  0
    6.1387    1.7104   -0.3272 C   0  0  0  0  0  0  0  0  0  0  0  0
    6.2360    3.1204   -1.3240 Cl  0  0  0  0  0  0  0  0  0  0  0  0
   10.0239    0.3536   -1.8914 H   0  0  0  0  0  0  0  0  0  0  0  0
    8.9450   -0.9920   -1.5053 H   0  0  0  0  0  0  0  0  0  0  0  0
    9.7214   -0.0239   -0.1913 H   0  0  0  0  0  0  0  0  0  0  0  0
    7.7516   -1.1895    0.4865 H   0  0  0  0  0  0  0  0  0  0  0  0
    5.8193   -1.4023    1.9624 H   0  0  0  0  0  0  0  0  0  0  0  0
    2.0681   -2.3560    1.9149 H   0  0  0  0  0  0  0  0  0  0  0  0
    3.4636   -2.0560    0.8683 H   0  0  0  0  0  0  0  0  0  0  0  0
    2.1205   -1.8310   -1.0815 H   0  0  0  0  0  0  0  0  0  0  0  0
    1.4852   -3.2295   -0.2277 H   0  0  0  0  0  0  0  0  0  0  0  0
   -0.3373   -1.7852   -1.0149 H   0  0  0  0  0  0  0  0  0  0  0  0
   -0.3318   -1.8574    0.7405 H   0  0  0  0  0  0  0  0  0  0  0  0
    0.1801    0.4626   -1.0884 H   0  0  0  0  0  0  0  0  0  0  0  0
   -1.8426    0.1381   -1.6531 H   0  0  0  0  0  0  0  0  0  0  0  0
   -2.6027   -1.1670   -0.7249 H   0  0  0  0  0  0  0  0  0  0  0  0
   -3.9080    1.5033   -1.4959 H   0  0  0  0  0  0  0  0  0  0  0  0
   -4.2238   -0.0928   -2.2127 H   0  0  0  0  0  0  0  0  0  0  0  0
   -6.8816   -0.8561    1.3301 H   0  0  0  0  0  0  0  0  0  0  0  0
   -9.2691   -0.9667    0.8353 H   0  0  0  0  0  0  0  0  0  0  0  0
  -10.1519   -0.1029   -1.3179 H   0  0  0  0  0  0  0  0  0  0  0  0
   -8.5871    0.8916   -2.9671 H   0  0  0  0  0  0  0  0  0  0  0  0
   -6.2030    1.0442   -2.4804 H   0  0  0  0  0  0  0  0  0  0  0  0
   -5.2190    0.7351    1.8047 H   0  0  0  0  0  0  0  0  0  0  0  0
   -4.3584   -0.7940    1.5257 H   0  0  0  0  0  0  0  0  0  0  0  0
   -2.8208    0.9546    2.3419 H   0  0  0  0  0  0  0  0  0  0  0  0
   -3.2998    2.0486    1.0390 H   0  0  0  0  0  0  0  0  0  0  0  0
    2.3903    0.5266   -0.5118 H   0  0  0  0  0  0  0  0  0  0  0  0
    1.6770    1.5754    0.7041 H   0  0  0  0  0  0  0  0  0  0  0  0
    4.2821    2.3733    0.5517 H   0  0  0  0  0  0  0  0  0  0  0  0
  1  2  1  0
  2  3  1  0
  3  4  2  0
  4  5  1  0
  5  6  2  0
  6  7  1  0
  7  8  2  0
  7  9  2  0
  7 10  1  0
 10 11  1  0
 11 12  1  0
 12 13  1  0
 13 14  1  0
 14 15  1  0
 15 16  2  0
 15 17  1  0
 17 18  1  0
 18 19  1  0
 19 20  1  0
 20 21  1  0
 21 22  2  0
 22 23  1  0
 23 24  2  0
 24 25  1  0
 25 26  2  0
 20 27  1  0
 27 28  1  0
 14 29  1  0
  6 30  1  0
 30 31  2  0
 31 32  1  0
 31  3  1  0
 29 10  1  0
 28 17  1  0
 26 21  1  0
  1 33  1  0
  1 34  1  0
  1 35  1  0
  4 36  1  0
  5 37  1  0
 11 38  1  0
 11 39  1  0
 12 40  1  0
 12 41  1  0
 13 42  1  0
 13 43  1  0
 14 44  1  0
 18 45  1  0
 18 46  1  0
 19 47  1  0
 19 48  1  0
 22 49  1  0
 23 50  1  0
 24 51  1  0
 25 52  1  0
 26 53  1  0
 27 54  1  0
 27 55  1  0
 28 56  1  0
 28 57  1  0
 29 58  1  0
 29 59  1  0
 30 60  1  0
M  END
$$$$
