
     RDKit          3D

 37 38  0  0  0  0  0  0  0  0999 V2000
   -3.1623    1.4010   -2.1156 C   0  0  0  0  0  0  0  0  0  0  0  0
   -3.4172    0.5281   -0.9409 N   0  0  0  0  0  0  0  0  0  0  0  0
   -2.3805   -0.4408   -0.6823 C   0  0  0  0  0  0  0  0  0  0  0  0
   -2.7496   -1.7863   -0.6511 C   0  0  0  0  0  0  0  0  0  0  0  0
   -1.7949   -2.7626   -0.3801 C   0  0  0  0  0  0  0  0  0  0  0  0
   -0.4685   -2.3920   -0.1495 C   0  0  0  0  0  0  0  0  0  0  0  0
   -0.0815   -1.0453   -0.1938 C   0  0  0  0  0  0  0  0  0  0  0  0
    1.2844   -0.7651    0.0290 N   0  0  0  0  0  0  0  0  0  0  0  0
    1.9079    0.4683   -0.0326 C   0  0  0  0  0  0  0  0  0  0  0  0
    1.3871    1.5469   -0.2852 O   0  0  0  0  0  0  0  0  0  0  0  0
    3.3686    0.4482    0.2594 C   0  0  0  0  0  0  0  0  0  0  0  0
    3.9187    1.5192    0.9753 C   0  0  0  0  0  0  0  0  0  0  0  0
    5.2843    1.5410    1.2696 C   0  0  0  0  0  0  0  0  0  0  0  0
    6.1010    0.4962    0.8368 C   0  0  0  0  0  0  0  0  0  0  0  0
    8.1335    0.5271    1.2705 I   0  0  0  0  0  0  0  0  0  0  0  0
    5.5650   -0.5657    0.1058 C   0  0  0  0  0  0  0  0  0  0  0  0
    4.1980   -0.5891   -0.1880 C   0  0  0  0  0  0  0  0  0  0  0  0
   -1.0497   -0.0714   -0.4511 C   0  0  0  0  0  0  0  0  0  0  0  0
   -3.9727    1.4042    0.4253 S   0  0  0  0  0  6  0  0  0  0  0  0
   -4.7126    0.1229    1.4173 C   0  0  0  0  0  0  0  0  0  0  0  0
   -5.0485    2.2678   -0.0219 O   0  0  0  0  0  0  0  0  0  0  0  0
   -2.8424    1.9525    1.1431 O   0  0  0  0  0  0  0  0  0  0  0  0
   -2.4447    2.1926   -1.8784 H   0  0  0  0  0  0  0  0  0  0  0  0
   -2.7684    0.8113   -2.9507 H   0  0  0  0  0  0  0  0  0  0  0  0
   -4.0995    1.8507   -2.4576 H   0  0  0  0  0  0  0  0  0  0  0  0
   -3.7793   -2.0759   -0.8426 H   0  0  0  0  0  0  0  0  0  0  0  0
   -2.0807   -3.8111   -0.3542 H   0  0  0  0  0  0  0  0  0  0  0  0
    0.2592   -3.1738    0.0536 H   0  0  0  0  0  0  0  0  0  0  0  0
    1.8557   -1.5569    0.2918 H   0  0  0  0  0  0  0  0  0  0  0  0
    3.2820    2.3387    1.3054 H   0  0  0  0  0  0  0  0  0  0  0  0
    5.6925    2.3788    1.8297 H   0  0  0  0  0  0  0  0  0  0  0  0
    6.2004   -1.3730   -0.2508 H   0  0  0  0  0  0  0  0  0  0  0  0
    3.8049   -1.4022   -0.7920 H   0  0  0  0  0  0  0  0  0  0  0  0
   -0.7943    0.9831   -0.4612 H   0  0  0  0  0  0  0  0  0  0  0  0
   -3.9368   -0.5490    1.7864 H   0  0  0  0  0  0  0  0  0  0  0  0
   -5.2079    0.6037    2.2643 H   0  0  0  0  0  0  0  0  0  0  0  0
   -5.4512   -0.4105    0.8162 H   0  0  0  0  0  0  0  0  0  0  0  0
  1  2  1  0
  2  3  1  0
  3  4  2  0
  4  5  1  0
  5  6  2  0
  6  7  1  0
  7  8  1  0
  8  9  1  0
  9 10  2  0
  9 11  1  0
 11 12  2  0
 12 13  1  0
 13 14  2  0
 14 15  1  0
 14 16  1  0
 16 17  2  0
  7 18  2  0
  2 19  1  0
 19 20  1  0
 19 21  2  0
 19 22  2  0
 18  3  1  0
 17 11  1  0
  1 23  1  0
  1 24  1  0
  1 25  1  0
  4 26  1  0
  5 27  1  0
  6 28  1  0
  8 29  1  0
 12 30  1  0
 13 31  1  0
 16 32  1  0
 17 33  1  0
 18 34  1  0
 20 35  1  0
 20 36  1  0
 20 37  1  0
M  END
$$$$
