
     RDKit          3D

 47 48  0  0  0  0  0  0  0  0999 V2000
    4.4334    2.1360   -1.5214 C   0  0  0  0  0  0  0  0  0  0  0  0
    3.3975    1.7592   -0.4747 C   0  0  0  0  0  0  0  0  0  0  0  0
    3.2959    0.3122   -0.2730 N   0  0  0  0  0  0  0  0  0  0  0  0
    4.1751   -0.2882    0.7347 C   0  0  0  0  0  0  0  0  0  0  0  0
    5.4149   -0.9301    0.1308 C   0  0  0  0  0  0  0  0  0  0  0  0
    2.4316   -0.3990   -1.1049 C   0  0  0  0  0  0  0  0  0  0  0  0
    1.7859    0.1748   -1.9901 O   0  0  0  0  0  0  0  0  0  0  0  0
    2.2986   -1.9108   -0.9292 C   0  0  0  0  0  0  0  0  0  0  0  0
    0.5499   -2.3890   -0.7491 S   0  0  0  0  0  0  0  0  0  0  0  0
    0.1696   -1.5847    0.7417 C   0  0  0  0  0  0  0  0  0  0  0  0
    1.0158   -1.4764    1.7398 N   0  0  0  0  0  0  0  0  0  0  0  0
    0.4680   -0.6367    2.6654 N   0  0  0  0  0  0  0  0  0  0  0  0
   -0.7177   -0.2570    2.2293 C   0  0  0  0  0  0  0  0  0  0  0  0
   -1.6680    0.5639    3.0190 C   0  0  0  0  0  0  0  0  0  0  0  0
   -0.9721   -0.8401    0.9894 N   0  0  0  0  0  0  0  0  0  0  0  0
   -2.1443   -0.7013    0.1965 C   0  0  0  0  0  0  0  0  0  0  0  0
   -2.6915   -1.8081   -0.4567 C   0  0  0  0  0  0  0  0  0  0  0  0
   -3.8524   -1.6661   -1.2199 C   0  0  0  0  0  0  0  0  0  0  0  0
   -4.4851   -0.4213   -1.3479 C   0  0  0  0  0  0  0  0  0  0  0  0
   -5.7303   -0.3117   -2.1850 C   0  0  0  0  0  0  0  0  0  0  0  0
   -3.9393    0.6981   -0.6906 C   0  0  0  0  0  0  0  0  0  0  0  0
   -4.5653    2.0610   -0.8165 C   0  0  0  0  0  0  0  0  0  0  0  0
   -2.7694    0.5469    0.0749 C   0  0  0  0  0  0  0  0  0  0  0  0
    4.2348    1.6384   -2.4759 H   0  0  0  0  0  0  0  0  0  0  0  0
    4.4231    3.2173   -1.6905 H   0  0  0  0  0  0  0  0  0  0  0  0
    5.4409    1.8581   -1.2001 H   0  0  0  0  0  0  0  0  0  0  0  0
    2.4210    2.1459   -0.7891 H   0  0  0  0  0  0  0  0  0  0  0  0
    3.6260    2.2414    0.4820 H   0  0  0  0  0  0  0  0  0  0  0  0
    3.6143   -1.0325    1.3050 H   0  0  0  0  0  0  0  0  0  0  0  0
    4.4729    0.4817    1.4552 H   0  0  0  0  0  0  0  0  0  0  0  0
    6.0173   -1.3972    0.9163 H   0  0  0  0  0  0  0  0  0  0  0  0
    5.1572   -1.6998   -0.6026 H   0  0  0  0  0  0  0  0  0  0  0  0
    6.0400   -0.1890   -0.3746 H   0  0  0  0  0  0  0  0  0  0  0  0
    2.6939   -2.3785   -1.8372 H   0  0  0  0  0  0  0  0  0  0  0  0
    2.8617   -2.3193   -0.0927 H   0  0  0  0  0  0  0  0  0  0  0  0
   -1.6352    1.6097    2.7013 H   0  0  0  0  0  0  0  0  0  0  0  0
   -2.6932    0.1909    2.9402 H   0  0  0  0  0  0  0  0  0  0  0  0
   -1.3947    0.5353    4.0794 H   0  0  0  0  0  0  0  0  0  0  0  0
   -2.2619   -2.8021   -0.3615 H   0  0  0  0  0  0  0  0  0  0  0  0
   -4.2630   -2.5437   -1.7161 H   0  0  0  0  0  0  0  0  0  0  0  0
   -5.5860    0.4160   -2.9899 H   0  0  0  0  0  0  0  0  0  0  0  0
   -5.9875   -1.2689   -2.6510 H   0  0  0  0  0  0  0  0  0  0  0  0
   -6.5790   -0.0076   -1.5643 H   0  0  0  0  0  0  0  0  0  0  0  0
   -4.0589    2.7965   -0.1823 H   0  0  0  0  0  0  0  0  0  0  0  0
   -5.6139    2.0309   -0.5042 H   0  0  0  0  0  0  0  0  0  0  0  0
   -4.5013    2.4124   -1.8511 H   0  0  0  0  0  0  0  0  0  0  0  0
   -2.3294    1.4327    0.5264 H   0  0  0  0  0  0  0  0  0  0  0  0
  1  2  1  0
  2  3  1  0
  3  4  1  0
  4  5  1  0
  3  6  1  0
  6  7  2  0
  6  8  1  0
  8  9  1  0
  9 10  1  0
 10 11  2  0
 11 12  1  0
 12 13  2  0
 13 14  1  0
 13 15  1  0
 15 16  1  0
 16 17  2  0
 17 18  1  0
 18 19  2  0
 19 20  1  0
 19 21  1  0
 21 22  1  0
 21 23  2  0
 15 10  1  0
 23 16  1  0
  1 24  1  0
  1 25  1  0
  1 26  1  0
  2 27  1  0
  2 28  1  0
  4 29  1  0
  4 30  1  0
  5 31  1  0
  5 32  1  0
  5 33  1  0
  8 34  1  0
  8 35  1  0
 14 36  1  0
 14 37  1  0
 14 38  1  0
 17 39  1  0
 18 40  1  0
 20 41  1  0
 20 42  1  0
 20 43  1  0
 22 44  1  0
 22 45  1  0
 22 46  1  0
 23 47  1  0
M  END
$$$$
