
     RDKit          3D

 45 47  0  0  0  0  0  0  0  0999 V2000
    8.7321    0.5428   -0.2808 C   0  0  0  0  0  0  0  0  0  0  0  0
    7.7503    0.6321    0.7438 O   0  0  0  0  0  0  0  0  0  0  0  0
    6.4410    0.5810    0.3531 C   0  0  0  0  0  0  0  0  0  0  0  0
    5.9790    0.4849   -0.9609 C   0  0  0  0  0  0  0  0  0  0  0  0
    4.6047    0.4424   -1.2221 C   0  0  0  0  0  0  0  0  0  0  0  0
    3.6922    0.5097   -0.1694 C   0  0  0  0  0  0  0  0  0  0  0  0
    2.2852    0.4219   -0.4255 N   0  0  0  0  0  0  0  0  0  0  0  0
    1.6798   -1.1743   -0.4006 S   0  0  0  0  0  6  0  0  0  0  0  0
    1.9605   -1.7363   -1.7058 O   0  0  0  0  0  0  0  0  0  0  0  0
    2.0602   -1.8390    0.8253 O   0  0  0  0  0  0  0  0  0  0  0  0
   -0.0656   -0.8633   -0.3062 C   0  0  0  0  0  0  0  0  0  0  0  0
   -0.5796   -0.2098    0.8114 C   0  0  0  0  0  0  0  0  0  0  0  0
   -1.9531    0.0466    0.8899 C   0  0  0  0  0  0  0  0  0  0  0  0
   -2.8336   -0.3402   -0.1350 C   0  0  0  0  0  0  0  0  0  0  0  0
   -4.2519   -0.0915   -0.0289 N   0  0  0  0  0  0  0  0  0  0  0  0
   -5.1460   -0.8502   -0.9109 C   0  0  0  0  0  0  0  0  0  0  0  0
   -6.5848   -0.9294   -0.4269 C   0  0  0  0  0  0  0  0  0  0  0  0
   -7.0855    0.4668   -0.1304 C   0  0  0  0  0  0  0  0  0  0  0  0
   -6.2221    1.0720    0.9546 C   0  0  0  0  0  0  0  0  0  0  0  0
   -4.7311    1.0316    0.6655 C   0  0  0  0  0  0  0  0  0  0  0  0
   -4.0281    1.9403    1.1125 O   0  0  0  0  0  0  0  0  0  0  0  0
   -2.2858   -1.0156   -1.2414 C   0  0  0  0  0  0  0  0  0  0  0  0
   -0.9120   -1.2736   -1.3335 C   0  0  0  0  0  0  0  0  0  0  0  0
    4.1454    0.5830    1.1444 C   0  0  0  0  0  0  0  0  0  0  0  0
    5.5172    0.6272    1.4012 C   0  0  0  0  0  0  0  0  0  0  0  0
    8.6609    1.3908   -0.9700 H   0  0  0  0  0  0  0  0  0  0  0  0
    8.6595   -0.4097   -0.8161 H   0  0  0  0  0  0  0  0  0  0  0  0
    9.7166    0.5828    0.1952 H   0  0  0  0  0  0  0  0  0  0  0  0
    6.6599    0.4326   -1.8038 H   0  0  0  0  0  0  0  0  0  0  0  0
    4.2633    0.3448   -2.2490 H   0  0  0  0  0  0  0  0  0  0  0  0
    2.0556    0.8175   -1.3387 H   0  0  0  0  0  0  0  0  0  0  0  0
    0.0737    0.0979    1.6253 H   0  0  0  0  0  0  0  0  0  0  0  0
   -2.3197    0.5341    1.7905 H   0  0  0  0  0  0  0  0  0  0  0  0
   -5.1176   -0.3700   -1.8971 H   0  0  0  0  0  0  0  0  0  0  0  0
   -4.7795   -1.8787   -1.0075 H   0  0  0  0  0  0  0  0  0  0  0  0
   -6.6440   -1.5495    0.4760 H   0  0  0  0  0  0  0  0  0  0  0  0
   -7.2101   -1.4044   -1.1907 H   0  0  0  0  0  0  0  0  0  0  0  0
   -8.1306    0.4339    0.1963 H   0  0  0  0  0  0  0  0  0  0  0  0
   -7.0439    1.0832   -1.0365 H   0  0  0  0  0  0  0  0  0  0  0  0
   -6.5151    2.1187    1.0977 H   0  0  0  0  0  0  0  0  0  0  0  0
   -6.3829    0.5518    1.9064 H   0  0  0  0  0  0  0  0  0  0  0  0
   -2.9037   -1.3336   -2.0761 H   0  0  0  0  0  0  0  0  0  0  0  0
   -0.5212   -1.7921   -2.2064 H   0  0  0  0  0  0  0  0  0  0  0  0
    3.4410    0.6023    1.9711 H   0  0  0  0  0  0  0  0  0  0  0  0
    5.8695    0.6884    2.4281 H   0  0  0  0  0  0  0  0  0  0  0  0
  1  2  1  0
  2  3  1  0
  3  4  2  0
  4  5  1  0
  5  6  2  0
  6  7  1  0
  7  8  1  0
  8  9  2  0
  8 10  2  0
  8 11  1  0
 11 12  2  0
 12 13  1  0
 13 14  2  0
 14 15  1  0
 15 16  1  0
 16 17  1  0
 17 18  1  0
 18 19  1  0
 19 20  1  0
 20 21  2  0
 14 22  1  0
 22 23  2  0
  6 24  1  0
 24 25  2  0
 25  3  1  0
 23 11  1  0
 20 15  1  0
  1 26  1  0
  1 27  1  0
  1 28  1  0
  4 29  1  0
  5 30  1  0
  7 31  1  0
 12 32  1  0
 13 33  1  0
 16 34  1  0
 16 35  1  0
 17 36  1  0
 17 37  1  0
 18 38  1  0
 18 39  1  0
 19 40  1  0
 19 41  1  0
 22 42  1  0
 23 43  1  0
 24 44  1  0
 25 45  1  0
M  END
$$$$
