
     RDKit          3D

 40 41  0  0  0  0  0  0  0  0999 V2000
    4.9649    1.2357   -1.3003 C   0  0  0  0  0  0  0  0  0  0  0  0
    3.6715    0.0396   -1.5734 S   0  0  0  0  0  6  0  0  0  0  0  0
    4.2947   -1.1680   -2.0726 O   0  0  0  0  0  0  0  0  0  0  0  0
    2.5904    0.6749   -2.3021 O   0  0  0  0  0  0  0  0  0  0  0  0
    3.1208   -0.2743    0.0087 N   0  0  0  0  0  0  0  0  0  0  0  0
    2.5890    0.8968    0.7581 C   0  0  0  0  0  0  0  0  0  0  0  0
    1.9085    0.4354    2.0405 C   0  0  0  0  0  0  0  0  0  0  0  0
    0.6664   -0.4099    1.7216 C   0  0  0  0  0  0  0  0  0  0  0  0
   -0.5760    0.4702    1.6026 C   0  0  0  0  0  0  0  0  0  0  0  0
   -0.5150    1.6916    1.4914 O   0  0  0  0  0  0  0  0  0  0  0  0
   -1.7572   -0.2369    1.6166 N   0  0  0  0  0  0  0  0  0  0  0  0
   -3.0312    0.4039    1.3889 C   0  0  0  0  0  0  0  0  0  0  0  0
   -3.5131    0.1436   -0.0171 C   0  0  0  0  0  0  0  0  0  0  0  0
   -3.0159    0.9058   -1.0858 C   0  0  0  0  0  0  0  0  0  0  0  0
   -3.4527    0.6666   -2.3904 C   0  0  0  0  0  0  0  0  0  0  0  0
   -4.3757   -0.3443   -2.6277 C   0  0  0  0  0  0  0  0  0  0  0  0
   -4.7956   -0.5762   -3.8784 F   0  0  0  0  0  0  0  0  0  0  0  0
   -4.8715   -1.1172   -1.5864 C   0  0  0  0  0  0  0  0  0  0  0  0
   -4.4396   -0.8771   -0.2801 C   0  0  0  0  0  0  0  0  0  0  0  0
    0.8488   -1.2181    0.4284 C   0  0  0  0  0  0  0  0  0  0  0  0
    2.3138   -1.5214    0.1489 C   0  0  0  0  0  0  0  0  0  0  0  0
    5.4801    1.3950   -2.2546 H   0  0  0  0  0  0  0  0  0  0  0  0
    4.5268    2.1753   -0.9608 H   0  0  0  0  0  0  0  0  0  0  0  0
    5.6671    0.8336   -0.5646 H   0  0  0  0  0  0  0  0  0  0  0  0
    3.4276    1.5463    1.0288 H   0  0  0  0  0  0  0  0  0  0  0  0
    1.8922    1.4722    0.1407 H   0  0  0  0  0  0  0  0  0  0  0  0
    1.6516    1.3047    2.6594 H   0  0  0  0  0  0  0  0  0  0  0  0
    2.6153   -0.1654    2.6309 H   0  0  0  0  0  0  0  0  0  0  0  0
    0.5017   -1.0922    2.5673 H   0  0  0  0  0  0  0  0  0  0  0  0
   -1.7326   -1.2443    1.5588 H   0  0  0  0  0  0  0  0  0  0  0  0
   -2.9691    1.4813    1.5746 H   0  0  0  0  0  0  0  0  0  0  0  0
   -3.7358   -0.0073    2.1170 H   0  0  0  0  0  0  0  0  0  0  0  0
   -2.2845    1.6938   -0.9033 H   0  0  0  0  0  0  0  0  0  0  0  0
   -3.0858    1.2697   -3.2181 H   0  0  0  0  0  0  0  0  0  0  0  0
   -5.5911   -1.9004   -1.7994 H   0  0  0  0  0  0  0  0  0  0  0  0
   -4.8306   -1.4889    0.5292 H   0  0  0  0  0  0  0  0  0  0  0  0
    0.4248   -0.6768   -0.4284 H   0  0  0  0  0  0  0  0  0  0  0  0
    0.2883   -2.1583    0.5031 H   0  0  0  0  0  0  0  0  0  0  0  0
    2.3830   -2.1473   -0.7467 H   0  0  0  0  0  0  0  0  0  0  0  0
    2.7456   -2.1119    0.9651 H   0  0  0  0  0  0  0  0  0  0  0  0
  1  2  1  0
  2  3  2  0
  2  4  2  0
  2  5  1  0
  5  6  1  0
  6  7  1  0
  7  8  1  0
  8  9  1  0
  9 10  2  0
  9 11  1  0
 11 12  1  0
 12 13  1  0
 13 14  2  0
 14 15  1  0
 15 16  2  0
 16 17  1  0
 16 18  1  0
 18 19  2  0
  8 20  1  0
 20 21  1  0
 21  5  1  0
 19 13  1  0
  1 22  1  0
  1 23  1  0
  1 24  1  0
  6 25  1  0
  6 26  1  0
  7 27  1  0
  7 28  1  0
  8 29  1  0
 11 30  1  0
 12 31  1  0
 12 32  1  0
 14 33  1  0
 15 34  1  0
 18 35  1  0
 19 36  1  0
 20 37  1  0
 20 38  1  0
 21 39  1  0
 21 40  1  0
M  END
$$$$
