
     RDKit          3D

 55 58  0  0  0  0  0  0  0  0999 V2000
    5.3240   -3.4074    0.8734 C   0  0  0  0  0  0  0  0  0  0  0  0
    5.3574   -1.8984    0.8712 C   0  0  0  0  0  0  0  0  0  0  0  0
    6.2819   -1.2949    1.4135 O   0  0  0  0  0  0  0  0  0  0  0  0
    4.3171   -1.2490    0.2286 N   0  0  0  0  0  0  0  0  0  0  0  0
    3.1845   -1.9316   -0.4087 C   0  0  0  0  0  0  0  0  0  0  0  0
    2.3664   -0.9928   -1.3070 C   0  0  0  0  0  0  0  0  0  0  0  0
    1.8625    0.1969   -0.5760 N   0  0  0  0  0  0  0  0  0  0  0  0
    0.5393    0.1436   -0.1524 C   0  0  0  0  0  0  0  0  0  0  0  0
    0.1153   -0.9525    0.4188 N   0  0  0  0  0  0  0  0  0  0  0  0
   -1.1659   -0.9424    0.8486 C   0  0  0  0  0  0  0  0  0  0  0  0
   -1.8486   -2.2985    1.6292 S   0  0  0  0  0  0  0  0  0  0  0  0
   -3.3338   -1.4977    1.8479 C   0  0  0  0  0  0  0  0  0  0  0  0
   -3.3347   -0.2204    1.3172 C   0  0  0  0  0  0  0  0  0  0  0  0
   -2.0590    0.0967    0.7462 C   0  0  0  0  0  0  0  0  0  0  0  0
   -1.6029    1.3111    0.1021 C   0  0  0  0  0  0  0  0  0  0  0  0
   -2.3352    2.2891   -0.0326 O   0  0  0  0  0  0  0  0  0  0  0  0
   -0.2753    1.2655   -0.3499 N   0  0  0  0  0  0  0  0  0  0  0  0
    0.1855    2.4291   -1.1117 C   0  0  0  0  0  0  0  0  0  0  0  0
   -0.3437    2.4552   -2.5632 C   0  0  0  0  0  0  0  0  0  0  0  0
    0.2092    1.3010   -3.4019 C   0  0  0  0  0  0  0  0  0  0  0  0
    0.0162    3.7898   -3.2211 C   0  0  0  0  0  0  0  0  0  0  0  0
   -4.5389    0.6720    1.4013 C   0  0  0  0  0  0  0  0  0  0  0  0
   -5.8097   -0.1175    1.7565 C   0  0  0  0  0  0  0  0  0  0  0  0
   -5.5580   -1.1098    2.9010 C   0  0  0  0  0  0  0  0  0  0  0  0
   -4.4973   -2.1546    2.5216 C   0  0  0  0  0  0  0  0  0  0  0  0
    2.8202    0.7232    0.4411 C   0  0  0  0  0  0  0  0  0  0  0  0
    4.2554    0.2140    0.2447 C   0  0  0  0  0  0  0  0  0  0  0  0
    5.5016   -3.7863   -0.1369 H   0  0  0  0  0  0  0  0  0  0  0  0
    6.1138   -3.7857    1.5295 H   0  0  0  0  0  0  0  0  0  0  0  0
    4.3663   -3.7711    1.2559 H   0  0  0  0  0  0  0  0  0  0  0  0
    2.5607   -2.3384    0.3940 H   0  0  0  0  0  0  0  0  0  0  0  0
    3.5599   -2.7724   -0.9998 H   0  0  0  0  0  0  0  0  0  0  0  0
    2.9937   -0.6348   -2.1327 H   0  0  0  0  0  0  0  0  0  0  0  0
    1.5382   -1.5466   -1.7674 H   0  0  0  0  0  0  0  0  0  0  0  0
   -0.1581    3.3292   -0.5859 H   0  0  0  0  0  0  0  0  0  0  0  0
    1.2771    2.4829   -1.1248 H   0  0  0  0  0  0  0  0  0  0  0  0
   -1.4379    2.3707   -2.5556 H   0  0  0  0  0  0  0  0  0  0  0  0
   -0.1176    0.3332   -3.0086 H   0  0  0  0  0  0  0  0  0  0  0  0
    1.3047    1.3135   -3.4240 H   0  0  0  0  0  0  0  0  0  0  0  0
   -0.1479    1.3675   -4.4366 H   0  0  0  0  0  0  0  0  0  0  0  0
   -0.3660    3.8338   -4.2473 H   0  0  0  0  0  0  0  0  0  0  0  0
    1.1030    3.9349   -3.2579 H   0  0  0  0  0  0  0  0  0  0  0  0
   -0.4203    4.6277   -2.6664 H   0  0  0  0  0  0  0  0  0  0  0  0
   -4.6966    1.2018    0.4536 H   0  0  0  0  0  0  0  0  0  0  0  0
   -4.3567    1.4284    2.1760 H   0  0  0  0  0  0  0  0  0  0  0  0
   -6.1604   -0.6691    0.8753 H   0  0  0  0  0  0  0  0  0  0  0  0
   -6.6068    0.5810    2.0360 H   0  0  0  0  0  0  0  0  0  0  0  0
   -5.2285   -0.5551    3.7897 H   0  0  0  0  0  0  0  0  0  0  0  0
   -6.4912   -1.6185    3.1690 H   0  0  0  0  0  0  0  0  0  0  0  0
   -4.1784   -2.6922    3.4211 H   0  0  0  0  0  0  0  0  0  0  0  0
   -4.9376   -2.8887    1.8363 H   0  0  0  0  0  0  0  0  0  0  0  0
    2.4824    0.4340    1.4466 H   0  0  0  0  0  0  0  0  0  0  0  0
    2.8180    1.8179    0.4009 H   0  0  0  0  0  0  0  0  0  0  0  0
    4.6524    0.5614   -0.7169 H   0  0  0  0  0  0  0  0  0  0  0  0
    4.9005    0.6212    1.0303 H   0  0  0  0  0  0  0  0  0  0  0  0
  1  2  1  0
  2  3  2  0
  2  4  1  0
  4  5  1  0
  5  6  1  0
  6  7  1  0
  7  8  1  0
  8  9  2  0
  9 10  1  0
 10 11  1  0
 11 12  1  0
 12 13  2  0
 13 14  1  0
 14 15  1  0
 15 16  2  0
 15 17  1  0
 17 18  1  0
 18 19  1  0
 19 20  1  0
 19 21  1  0
 13 22  1  0
 22 23  1  0
 23 24  1  0
 24 25  1  0
  7 26  1  0
 26 27  1  0
 27  4  1  0
 17  8  1  0
 14 10  2  0
 25 12  1  0
  1 28  1  0
  1 29  1  0
  1 30  1  0
  5 31  1  0
  5 32  1  0
  6 33  1  0
  6 34  1  0
 18 35  1  0
 18 36  1  0
 19 37  1  0
 20 38  1  0
 20 39  1  0
 20 40  1  0
 21 41  1  0
 21 42  1  0
 21 43  1  0
 22 44  1  0
 22 45  1  0
 23 46  1  0
 23 47  1  0
 24 48  1  0
 24 49  1  0
 25 50  1  0
 25 51  1  0
 26 52  1  0
 26 53  1  0
 27 54  1  0
 27 55  1  0
M  END
$$$$
