
     RDKit          3D

 40 41  0  0  0  0  0  0  0  0999 V2000
    2.7423    2.3627   -1.4879 C   0  0  0  0  0  0  0  0  0  0  0  0
    2.9274    1.1208   -2.3483 C   0  0  0  0  0  0  0  0  0  0  0  0
    3.6077   -0.0240   -1.5977 C   0  0  0  0  0  0  0  0  0  0  0  0
    2.8205   -0.5070   -0.4812 N   0  0  0  0  0  0  0  0  0  0  0  0
    1.7423   -1.3453   -0.6783 C   0  0  0  0  0  0  0  0  0  0  0  0
    1.4243   -1.8059   -1.7674 O   0  0  0  0  0  0  0  0  0  0  0  0
    0.9150   -1.6302    0.5232 C   0  0  0  0  0  0  0  0  0  0  0  0
    1.4823   -1.7349    1.8012 C   0  0  0  0  0  0  0  0  0  0  0  0
    0.6702   -1.9822    2.9114 C   0  0  0  0  0  0  0  0  0  0  0  0
   -0.7096   -2.1138    2.7524 C   0  0  0  0  0  0  0  0  0  0  0  0
   -1.2705   -2.0046    1.4756 C   0  0  0  0  0  0  0  0  0  0  0  0
   -3.0322   -2.1537    1.2732 S   0  0  0  0  0  6  0  0  0  0  0  0
   -3.5377   -2.8911    2.4129 O   0  0  0  0  0  0  0  0  0  0  0  0
   -3.2975   -2.5915   -0.0791 O   0  0  0  0  0  0  0  0  0  0  0  0
   -3.5723   -0.5654    1.4745 N   0  0  0  0  0  0  0  0  0  0  0  0
   -2.9897    0.4778    0.7024 C   0  0  0  0  0  0  0  0  0  0  0  0
   -2.2734    1.4816    1.3576 C   0  0  0  0  0  0  0  0  0  0  0  0
   -1.6454    2.4860    0.6187 C   0  0  0  0  0  0  0  0  0  0  0  0
   -1.7353    2.4877   -0.7728 C   0  0  0  0  0  0  0  0  0  0  0  0
   -2.4588    1.4905   -1.4258 C   0  0  0  0  0  0  0  0  0  0  0  0
   -3.0891    0.4869   -0.6883 C   0  0  0  0  0  0  0  0  0  0  0  0
   -0.4626   -1.7950    0.3547 C   0  0  0  0  0  0  0  0  0  0  0  0
    2.0728    2.1677   -0.6443 H   0  0  0  0  0  0  0  0  0  0  0  0
    2.3039    3.1705   -2.0825 H   0  0  0  0  0  0  0  0  0  0  0  0
    3.7014    2.7135   -1.0939 H   0  0  0  0  0  0  0  0  0  0  0  0
    3.5394    1.3835   -3.2189 H   0  0  0  0  0  0  0  0  0  0  0  0
    1.9502    0.8004   -2.7275 H   0  0  0  0  0  0  0  0  0  0  0  0
    3.7850   -0.8579   -2.2860 H   0  0  0  0  0  0  0  0  0  0  0  0
    4.5756    0.2969   -1.1987 H   0  0  0  0  0  0  0  0  0  0  0  0
    2.8968   -0.0081    0.3943 H   0  0  0  0  0  0  0  0  0  0  0  0
    2.5577   -1.6572    1.9400 H   0  0  0  0  0  0  0  0  0  0  0  0
    1.1148   -2.0803    3.8995 H   0  0  0  0  0  0  0  0  0  0  0  0
   -1.3357   -2.3089    3.6208 H   0  0  0  0  0  0  0  0  0  0  0  0
   -3.8213   -0.3654    2.4411 H   0  0  0  0  0  0  0  0  0  0  0  0
   -2.1857    1.4871    2.4400 H   0  0  0  0  0  0  0  0  0  0  0  0
   -1.0844    3.2663    1.1265 H   0  0  0  0  0  0  0  0  0  0  0  0
   -1.2445    3.2673   -1.3506 H   0  0  0  0  0  0  0  0  0  0  0  0
   -2.5320    1.4908   -2.5108 H   0  0  0  0  0  0  0  0  0  0  0  0
   -3.6537   -0.2821   -1.2104 H   0  0  0  0  0  0  0  0  0  0  0  0
   -0.8982   -1.7335   -0.6415 H   0  0  0  0  0  0  0  0  0  0  0  0
  1  2  1  0
  2  3  1  0
  3  4  1  0
  4  5  1  0
  5  6  2  0
  5  7  1  0
  7  8  2  0
  8  9  1  0
  9 10  2  0
 10 11  1  0
 11 12  1  0
 12 13  2  0
 12 14  2  0
 12 15  1  0
 15 16  1  0
 16 17  2  0
 17 18  1  0
 18 19  2  0
 19 20  1  0
 20 21  2  0
 11 22  2  0
 22  7  1  0
 21 16  1  0
  1 23  1  0
  1 24  1  0
  1 25  1  0
  2 26  1  0
  2 27  1  0
  3 28  1  0
  3 29  1  0
  4 30  1  0
  8 31  1  0
  9 32  1  0
 10 33  1  0
 15 34  1  0
 17 35  1  0
 18 36  1  0
 19 37  1  0
 20 38  1  0
 21 39  1  0
 22 40  1  0
M  END
$$$$
