
     RDKit          3D

 51 53  0  0  0  0  0  0  0  0999 V2000
    7.5444   -0.6555   -1.6654 C   0  0  0  0  0  0  0  0  0  0  0  0
    6.4739    0.0867   -0.8804 C   0  0  0  0  0  0  0  0  0  0  0  0
    5.1684   -0.4938   -1.1815 N   0  0  0  0  0  0  0  0  0  0  0  0
    4.0859    0.1321   -0.5318 C   0  0  0  0  0  0  0  0  0  0  0  0
    2.8197   -0.3823   -0.7358 C   0  0  0  0  0  0  0  0  0  0  0  0
    1.7500    0.2433   -0.1181 C   0  0  0  0  0  0  0  0  0  0  0  0
    0.4460   -0.2690   -0.2999 N   0  0  0  0  0  0  0  0  0  0  0  0
    0.3282   -1.6538    0.2252 C   0  0  0  0  0  0  0  0  0  0  0  0
   -1.1233   -1.9999    0.6080 C   0  0  0  0  0  0  0  0  0  0  0  0
   -1.6344   -1.0780    1.6645 N   0  0  0  0  0  0  0  0  0  0  0  0
   -3.2378   -1.2889    2.1614 S   0  0  0  0  0  6  0  0  0  0  0  0
   -3.4906   -2.7119    2.2519 O   0  0  0  0  0  0  0  0  0  0  0  0
   -3.4772   -0.4133    3.2892 O   0  0  0  0  0  0  0  0  0  0  0  0
   -4.1862   -0.6645    0.7885 C   0  0  0  0  0  0  0  0  0  0  0  0
   -4.5776    0.6768    0.7690 C   0  0  0  0  0  0  0  0  0  0  0  0
   -5.3356    1.1585   -0.2996 C   0  0  0  0  0  0  0  0  0  0  0  0
   -5.7303    0.3001   -1.3346 C   0  0  0  0  0  0  0  0  0  0  0  0
   -6.5203    0.8274   -2.4969 C   0  0  0  0  0  0  0  0  0  0  0  0
   -5.3449   -1.0467   -1.2947 C   0  0  0  0  0  0  0  0  0  0  0  0
   -4.5869   -1.5345   -0.2290 C   0  0  0  0  0  0  0  0  0  0  0  0
   -1.1063    0.3207    1.5690 C   0  0  0  0  0  0  0  0  0  0  0  0
   -0.6319    0.6461    0.1431 C   0  0  0  0  0  0  0  0  0  0  0  0
    1.9387    1.3325    0.6421 N   0  0  0  0  0  0  0  0  0  0  0  0
    3.1964    1.7877    0.7711 C   0  0  0  0  0  0  0  0  0  0  0  0
    3.4095    2.9901    1.6357 C   0  0  0  0  0  0  0  0  0  0  0  0
    4.2817    1.2209    0.2216 N   0  0  0  0  0  0  0  0  0  0  0  0
    7.3582   -0.5885   -2.7426 H   0  0  0  0  0  0  0  0  0  0  0  0
    8.5316   -0.2298   -1.4606 H   0  0  0  0  0  0  0  0  0  0  0  0
    7.5661   -1.7165   -1.3948 H   0  0  0  0  0  0  0  0  0  0  0  0
    6.6956    0.0056    0.1906 H   0  0  0  0  0  0  0  0  0  0  0  0
    6.5025    1.1450   -1.1665 H   0  0  0  0  0  0  0  0  0  0  0  0
    5.1401   -1.4904   -0.9861 H   0  0  0  0  0  0  0  0  0  0  0  0
    2.6685   -1.2328   -1.3865 H   0  0  0  0  0  0  0  0  0  0  0  0
    0.9573   -1.7864    1.1168 H   0  0  0  0  0  0  0  0  0  0  0  0
    0.6710   -2.3609   -0.5392 H   0  0  0  0  0  0  0  0  0  0  0  0
   -1.7541   -1.9399   -0.2844 H   0  0  0  0  0  0  0  0  0  0  0  0
   -1.1503   -3.0274    0.9860 H   0  0  0  0  0  0  0  0  0  0  0  0
   -4.3054    1.3493    1.5793 H   0  0  0  0  0  0  0  0  0  0  0  0
   -5.6283    2.2067   -0.3149 H   0  0  0  0  0  0  0  0  0  0  0  0
   -5.8424    1.1654   -3.2866 H   0  0  0  0  0  0  0  0  0  0  0  0
   -7.1539    1.6665   -2.1908 H   0  0  0  0  0  0  0  0  0  0  0  0
   -7.1805    0.0538   -2.9030 H   0  0  0  0  0  0  0  0  0  0  0  0
   -5.6436   -1.7261   -2.0908 H   0  0  0  0  0  0  0  0  0  0  0  0
   -4.3172   -2.5878   -0.1995 H   0  0  0  0  0  0  0  0  0  0  0  0
   -1.8605    1.0520    1.8718 H   0  0  0  0  0  0  0  0  0  0  0  0
   -0.2777    0.4086    2.2814 H   0  0  0  0  0  0  0  0  0  0  0  0
   -1.4731    0.5160   -0.5501 H   0  0  0  0  0  0  0  0  0  0  0  0
   -0.3547    1.7037    0.0565 H   0  0  0  0  0  0  0  0  0  0  0  0
    3.5888    2.6745    2.6676 H   0  0  0  0  0  0  0  0  0  0  0  0
    4.2719    3.5670    1.2878 H   0  0  0  0  0  0  0  0  0  0  0  0
    2.5304    3.6415    1.6135 H   0  0  0  0  0  0  0  0  0  0  0  0
  1  2  1  0
  2  3  1  0
  3  4  1  0
  4  5  2  0
  5  6  1  0
  6  7  1  0
  7  8  1  0
  8  9  1  0
  9 10  1  0
 10 11  1  0
 11 12  2  0
 11 13  2  0
 11 14  1  0
 14 15  2  0
 15 16  1  0
 16 17  2  0
 17 18  1  0
 17 19  1  0
 19 20  2  0
 10 21  1  0
 21 22  1  0
  6 23  2  0
 23 24  1  0
 24 25  1  0
 24 26  2  0
 26  4  1  0
 22  7  1  0
 20 14  1  0
  1 27  1  0
  1 28  1  0
  1 29  1  0
  2 30  1  0
  2 31  1  0
  3 32  1  0
  5 33  1  0
  8 34  1  0
  8 35  1  0
  9 36  1  0
  9 37  1  0
 15 38  1  0
 16 39  1  0
 18 40  1  0
 18 41  1  0
 18 42  1  0
 19 43  1  0
 20 44  1  0
 21 45  1  0
 21 46  1  0
 22 47  1  0
 22 48  1  0
 25 49  1  0
 25 50  1  0
 25 51  1  0
M  END
$$$$
