
     RDKit          3D

 39 41  0  0  0  0  0  0  0  0999 V2000
   -3.9616   -0.2791    2.5589 C   0  0  0  0  0  0  0  0  0  0  0  0
   -3.5611    0.2674    1.3105 O   0  0  0  0  0  0  0  0  0  0  0  0
   -4.1472   -0.2367    0.1812 C   0  0  0  0  0  0  0  0  0  0  0  0
   -5.0911   -1.2678    0.1599 C   0  0  0  0  0  0  0  0  0  0  0  0
   -5.6461   -1.6968   -1.0516 C   0  0  0  0  0  0  0  0  0  0  0  0
   -5.2707   -1.0961   -2.2519 C   0  0  0  0  0  0  0  0  0  0  0  0
   -4.3303   -0.0696   -2.2458 C   0  0  0  0  0  0  0  0  0  0  0  0
   -3.7564    0.3404   -1.0386 C   0  0  0  0  0  0  0  0  0  0  0  0
   -2.8567    1.3801   -1.1026 O   0  0  0  0  0  0  0  0  0  0  0  0
   -1.5362    1.1196   -0.8034 C   0  0  0  0  0  0  0  0  0  0  0  0
   -0.9541   -0.1419   -0.8710 C   0  0  0  0  0  0  0  0  0  0  0  0
    0.4070   -0.2820   -0.5817 C   0  0  0  0  0  0  0  0  0  0  0  0
    1.1606    0.8348   -0.2414 C   0  0  0  0  0  0  0  0  0  0  0  0
    2.5394    0.8108    0.0641 N   0  0  0  0  0  0  0  0  0  0  0  0
    3.3455   -0.3074    0.1734 C   0  0  0  0  0  0  0  0  0  0  0  0
    2.9922   -1.4771    0.0926 O   0  0  0  0  0  0  0  0  0  0  0  0
    4.7780   -0.0259    0.4599 C   0  0  0  0  0  0  0  0  0  0  0  0
    5.4366    1.0745   -0.0906 C   0  0  0  0  0  0  0  0  0  0  0  0
    6.7714    1.2509    0.2275 C   0  0  0  0  0  0  0  0  0  0  0  0
    7.4656    0.4213    1.0348 N   0  0  0  0  0  0  0  0  0  0  0  0
    6.8082   -0.6478    1.5338 C   0  0  0  0  0  0  0  0  0  0  0  0
    5.4778   -0.9156    1.2752 C   0  0  0  0  0  0  0  0  0  0  0  0
    0.4921    2.0573   -0.2240 C   0  0  0  0  0  0  0  0  0  0  0  0
   -0.8211    2.2272   -0.5041 N   0  0  0  0  0  0  0  0  0  0  0  0
   -3.7050   -1.3415    2.6246 H   0  0  0  0  0  0  0  0  0  0  0  0
   -3.4104    0.2449    3.3456 H   0  0  0  0  0  0  0  0  0  0  0  0
   -5.0299   -0.1177    2.7371 H   0  0  0  0  0  0  0  0  0  0  0  0
   -5.4234   -1.7572    1.0694 H   0  0  0  0  0  0  0  0  0  0  0  0
   -6.3823   -2.4973   -1.0548 H   0  0  0  0  0  0  0  0  0  0  0  0
   -5.7142   -1.4233   -3.1887 H   0  0  0  0  0  0  0  0  0  0  0  0
   -4.0398    0.4112   -3.1760 H   0  0  0  0  0  0  0  0  0  0  0  0
   -1.5265   -1.0202   -1.1463 H   0  0  0  0  0  0  0  0  0  0  0  0
    0.8414   -1.2746   -0.6390 H   0  0  0  0  0  0  0  0  0  0  0  0
    2.9521    1.7050    0.2975 H   0  0  0  0  0  0  0  0  0  0  0  0
    4.9505    1.7617   -0.7726 H   0  0  0  0  0  0  0  0  0  0  0  0
    7.3403    2.0847   -0.1751 H   0  0  0  0  0  0  0  0  0  0  0  0
    7.4004   -1.3042    2.1655 H   0  0  0  0  0  0  0  0  0  0  0  0
    4.9976   -1.7927    1.6969 H   0  0  0  0  0  0  0  0  0  0  0  0
    1.0074    2.9807    0.0239 H   0  0  0  0  0  0  0  0  0  0  0  0
  1  2  1  0
  2  3  1  0
  3  4  2  0
  4  5  1  0
  5  6  2  0
  6  7  1  0
  7  8  2  0
  8  9  1  0
  9 10  1  0
 10 11  2  0
 11 12  1  0
 12 13  2  0
 13 14  1  0
 14 15  1  0
 15 16  2  0
 15 17  1  0
 17 18  2  0
 18 19  1  0
 19 20  2  0
 20 21  1  0
 21 22  2  0
 13 23  1  0
 23 24  2  0
  8  3  1  0
 24 10  1  0
 22 17  1  0
  1 25  1  0
  1 26  1  0
  1 27  1  0
  4 28  1  0
  5 29  1  0
  6 30  1  0
  7 31  1  0
 11 32  1  0
 12 33  1  0
 14 34  1  0
 18 35  1  0
 19 36  1  0
 21 37  1  0
 22 38  1  0
 23 39  1  0
M  END
$$$$
