
     RDKit          3D

 24 25  0  0  0  0  0  0  0  0999 V2000
    5.1519   -0.5889   -0.1039 C   0  0  0  0  0  0  0  0  0  0  0  0
    3.8915   -0.3468    0.5421 N   0  0  0  0  0  0  0  0  0  0  0  0
    3.7970   -0.1554    1.8673 N   0  0  0  0  0  0  0  0  0  0  0  0
    2.4978   -0.0057    2.0859 N   0  0  0  0  0  0  0  0  0  0  0  0
    1.8749   -0.1255    0.8677 C   0  0  0  0  0  0  0  0  0  0  0  0
    0.5121   -0.0108    0.8099 N   0  0  0  0  0  0  0  0  0  0  0  0
   -0.2435   -0.1332   -0.3280 C   0  0  0  0  0  0  0  0  0  0  0  0
    0.1685   -0.3371   -1.4644 O   0  0  0  0  0  0  0  0  0  0  0  0
   -1.7122    0.0659   -0.1571 C   0  0  0  0  0  0  0  0  0  0  0  0
   -2.3703    0.7391   -1.2037 C   0  0  0  0  0  0  0  0  0  0  0  0
   -3.7425    0.9796   -1.1370 C   0  0  0  0  0  0  0  0  0  0  0  0
   -4.6941    1.9847   -2.6860 I   0  0  0  0  0  0  0  0  0  0  0  0
   -4.4784    0.5493   -0.0362 C   0  0  0  0  0  0  0  0  0  0  0  0
   -3.8367   -0.1327    0.9996 C   0  0  0  0  0  0  0  0  0  0  0  0
   -2.4587   -0.3807    0.9431 C   0  0  0  0  0  0  0  0  0  0  0  0
   -1.7807   -1.2743    2.2575 Cl  0  0  0  0  0  0  0  0  0  0  0  0
    2.7328   -0.3432   -0.1314 N   0  0  0  0  0  0  0  0  0  0  0  0
    5.3584   -1.6607   -0.0583 H   0  0  0  0  0  0  0  0  0  0  0  0
    5.9324   -0.0279    0.4160 H   0  0  0  0  0  0  0  0  0  0  0  0
    5.0914   -0.2574   -1.1435 H   0  0  0  0  0  0  0  0  0  0  0  0
    0.0787    0.1392    1.7090 H   0  0  0  0  0  0  0  0  0  0  0  0
   -1.7970    1.0727   -2.0685 H   0  0  0  0  0  0  0  0  0  0  0  0
   -5.5496    0.7280    0.0270 H   0  0  0  0  0  0  0  0  0  0  0  0
   -4.4238   -0.4784    1.8485 H   0  0  0  0  0  0  0  0  0  0  0  0
  1  2  1  0
  2  3  1  0
  3  4  2  0
  4  5  1  0
  5  6  1  0
  6  7  1  0
  7  8  2  0
  7  9  1  0
  9 10  2  0
 10 11  1  0
 11 12  1  0
 11 13  2  0
 13 14  1  0
 14 15  2  0
 15 16  1  0
  5 17  2  0
 17  2  1  0
 15  9  1  0
  1 18  1  0
  1 19  1  0
  1 20  1  0
  6 21  1  0
 10 22  1  0
 13 23  1  0
 14 24  1  0
M  END
$$$$
