
     RDKit          3D

 41 43  0  0  0  0  0  0  0  0999 V2000
    6.3136    0.0118   -1.1550 C   0  0  0  0  0  0  0  0  0  0  0  0
    4.9408   -0.3710   -0.6870 C   0  0  0  0  0  0  0  0  0  0  0  0
    4.2369   -1.4037   -1.3196 C   0  0  0  0  0  0  0  0  0  0  0  0
    2.9655   -1.7701   -0.8746 C   0  0  0  0  0  0  0  0  0  0  0  0
    2.3921   -1.1165    0.2151 C   0  0  0  0  0  0  0  0  0  0  0  0
    3.0968   -0.1048    0.8635 C   0  0  0  0  0  0  0  0  0  0  0  0
    2.4958    0.5770    1.9568 N   0  0  0  0  0  0  0  0  0  0  0  0
    1.6199    1.9853    1.6230 S   0  0  0  0  0  6  0  0  0  0  0  0
    1.3799    2.6132    2.9067 O   0  0  0  0  0  0  0  0  0  0  0  0
    2.2588    2.7159    0.5504 O   0  0  0  0  0  0  0  0  0  0  0  0
    0.0663    1.3509    1.0485 C   0  0  0  0  0  0  0  0  0  0  0  0
   -0.8995    0.9503    1.9692 C   0  0  0  0  0  0  0  0  0  0  0  0
   -2.1309    0.4645    1.5127 C   0  0  0  0  0  0  0  0  0  0  0  0
   -2.4216    0.3762    0.1393 C   0  0  0  0  0  0  0  0  0  0  0  0
   -3.6769   -0.1269   -0.3036 N   0  0  0  0  0  0  0  0  0  0  0  0
   -4.6924   -0.6026    0.6082 C   0  0  0  0  0  0  0  0  0  0  0  0
   -5.6622   -1.3615   -0.2720 C   0  0  0  0  0  0  0  0  0  0  0  0
   -5.5861   -0.6236   -1.5924 C   0  0  0  0  0  0  0  0  0  0  0  0
   -4.1629   -0.1170   -1.6220 C   0  0  0  0  0  0  0  0  0  0  0  0
   -3.6194    0.2612   -2.6482 O   0  0  0  0  0  0  0  0  0  0  0  0
   -1.4343    0.8008   -0.7623 C   0  0  0  0  0  0  0  0  0  0  0  0
   -0.2005    1.2924   -0.3172 C   0  0  0  0  0  0  0  0  0  0  0  0
    4.3647    0.2703    0.4176 C   0  0  0  0  0  0  0  0  0  0  0  0
    7.0676   -0.5745   -0.6208 H   0  0  0  0  0  0  0  0  0  0  0  0
    6.4239   -0.1653   -2.2300 H   0  0  0  0  0  0  0  0  0  0  0  0
    6.5028    1.0762   -0.9806 H   0  0  0  0  0  0  0  0  0  0  0  0
    4.6728   -1.9242   -2.1700 H   0  0  0  0  0  0  0  0  0  0  0  0
    2.4218   -2.5650   -1.3788 H   0  0  0  0  0  0  0  0  0  0  0  0
    1.4038   -1.4103    0.5569 H   0  0  0  0  0  0  0  0  0  0  0  0
    3.0634    0.7018    2.7940 H   0  0  0  0  0  0  0  0  0  0  0  0
   -0.7072    1.0148    3.0380 H   0  0  0  0  0  0  0  0  0  0  0  0
   -2.8564    0.1735    2.2665 H   0  0  0  0  0  0  0  0  0  0  0  0
   -4.2759   -1.2666    1.3716 H   0  0  0  0  0  0  0  0  0  0  0  0
   -5.1748    0.2615    1.0787 H   0  0  0  0  0  0  0  0  0  0  0  0
   -5.3141   -2.3933   -0.4071 H   0  0  0  0  0  0  0  0  0  0  0  0
   -6.6738   -1.3989    0.1417 H   0  0  0  0  0  0  0  0  0  0  0  0
   -6.2665    0.2332   -1.6180 H   0  0  0  0  0  0  0  0  0  0  0  0
   -5.7834   -1.2874   -2.4377 H   0  0  0  0  0  0  0  0  0  0  0  0
   -1.5880    0.7599   -1.8368 H   0  0  0  0  0  0  0  0  0  0  0  0
    0.5406    1.6162   -1.0457 H   0  0  0  0  0  0  0  0  0  0  0  0
    4.8992    1.0761    0.9144 H   0  0  0  0  0  0  0  0  0  0  0  0
  1  2  1  0
  2  3  2  0
  3  4  1  0
  4  5  2  0
  5  6  1  0
  6  7  1  0
  7  8  1  0
  8  9  2  0
  8 10  2  0
  8 11  1  0
 11 12  2  0
 12 13  1  0
 13 14  2  0
 14 15  1  0
 15 16  1  0
 16 17  1  0
 17 18  1  0
 18 19  1  0
 19 20  2  0
 14 21  1  0
 21 22  2  0
  6 23  2  0
 23  2  1  0
 22 11  1  0
 19 15  1  0
  1 24  1  0
  1 25  1  0
  1 26  1  0
  3 27  1  0
  4 28  1  0
  5 29  1  0
  7 30  1  0
 12 31  1  0
 13 32  1  0
 16 33  1  0
 16 34  1  0
 17 35  1  0
 17 36  1  0
 18 37  1  0
 18 38  1  0
 21 39  1  0
 22 40  1  0
 23 41  1  0
M  END
$$$$
