
     RDKit          3D

 49 52  0  0  0  0  0  0  0  0999 V2000
   -6.9975    1.1712   -2.3829 C   0  0  0  0  0  0  0  0  0  0  0  0
   -6.1736    0.9793   -1.2259 N   0  0  0  0  0  0  0  0  0  0  0  0
   -6.5720    1.2005    0.1114 C   0  0  0  0  0  0  0  0  0  0  0  0
   -7.6648    1.5856    0.4960 O   0  0  0  0  0  0  0  0  0  0  0  0
   -5.4509    0.8862    0.9092 N   0  0  0  0  0  0  0  0  0  0  0  0
   -5.3935    0.9636    2.3403 C   0  0  0  0  0  0  0  0  0  0  0  0
   -4.3958    0.4833    0.0796 C   0  0  0  0  0  0  0  0  0  0  0  0
   -3.1133    0.0836    0.4024 C   0  0  0  0  0  0  0  0  0  0  0  0
   -2.2588   -0.2681   -0.6489 C   0  0  0  0  0  0  0  0  0  0  0  0
   -0.9258   -0.6928   -0.4631 N   0  0  0  0  0  0  0  0  0  0  0  0
   -0.2462   -0.8439    0.7361 C   0  0  0  0  0  0  0  0  0  0  0  0
   -0.6900   -0.6336    1.8581 O   0  0  0  0  0  0  0  0  0  0  0  0
    1.1803   -1.3152    0.5033 C   0  0  0  0  0  0  0  0  0  0  0  0
    1.9455   -1.5401    1.8074 C   0  0  0  0  0  0  0  0  0  0  0  0
    3.3169   -2.1808    1.5864 C   0  0  0  0  0  0  0  0  0  0  0  0
    4.2518   -1.3010    0.9110 N   0  0  0  0  0  0  0  0  0  0  0  0
    5.0486   -0.3947    1.5581 C   0  0  0  0  0  0  0  0  0  0  0  0
    5.1387   -0.1598    2.7474 O   0  0  0  0  0  0  0  0  0  0  0  0
    5.8201    0.2924    0.5241 C   0  0  0  0  0  0  0  0  0  0  0  0
    6.7715    1.2877    0.6299 C   0  0  0  0  0  0  0  0  0  0  0  0
    7.3415    1.7547   -0.5588 C   0  0  0  0  0  0  0  0  0  0  0  0
    6.9513    1.2236   -1.8063 C   0  0  0  0  0  0  0  0  0  0  0  0
    5.9840    0.2166   -1.8867 C   0  0  0  0  0  0  0  0  0  0  0  0
    5.4376   -0.2284   -0.6989 C   0  0  0  0  0  0  0  0  0  0  0  0
    4.4181   -1.2448   -0.4462 C   0  0  0  0  0  0  0  0  0  0  0  0
    3.8413   -1.8692   -1.3166 O   0  0  0  0  0  0  0  0  0  0  0  0
   -2.7239   -0.2053   -1.9868 C   0  0  0  0  0  0  0  0  0  0  0  0
   -4.0286    0.2024   -2.2949 C   0  0  0  0  0  0  0  0  0  0  0  0
   -4.8442    0.5415   -1.2398 C   0  0  0  0  0  0  0  0  0  0  0  0
   -7.0949    0.2227   -2.9190 H   0  0  0  0  0  0  0  0  0  0  0  0
   -6.5373    1.9192   -3.0348 H   0  0  0  0  0  0  0  0  0  0  0  0
   -7.9922    1.5181   -2.0897 H   0  0  0  0  0  0  0  0  0  0  0  0
   -6.3515    1.3057    2.7413 H   0  0  0  0  0  0  0  0  0  0  0  0
   -4.6118    1.6703    2.6336 H   0  0  0  0  0  0  0  0  0  0  0  0
   -5.1701   -0.0266    2.7477 H   0  0  0  0  0  0  0  0  0  0  0  0
   -2.8057    0.0531    1.4389 H   0  0  0  0  0  0  0  0  0  0  0  0
   -0.4082   -0.9181   -1.3046 H   0  0  0  0  0  0  0  0  0  0  0  0
    1.1403   -2.2491   -0.0699 H   0  0  0  0  0  0  0  0  0  0  0  0
    1.6841   -0.5542   -0.1029 H   0  0  0  0  0  0  0  0  0  0  0  0
    1.3604   -2.2006    2.4595 H   0  0  0  0  0  0  0  0  0  0  0  0
    2.0543   -0.5874    2.3403 H   0  0  0  0  0  0  0  0  0  0  0  0
    3.7446   -2.4448    2.5604 H   0  0  0  0  0  0  0  0  0  0  0  0
    3.2132   -3.1019    1.0016 H   0  0  0  0  0  0  0  0  0  0  0  0
    7.0612    1.6878    1.5963 H   0  0  0  0  0  0  0  0  0  0  0  0
    8.0963    2.5388   -0.5229 H   0  0  0  0  0  0  0  0  0  0  0  0
    7.4105    1.6048   -2.7171 H   0  0  0  0  0  0  0  0  0  0  0  0
    5.6745   -0.1998   -2.8397 H   0  0  0  0  0  0  0  0  0  0  0  0
   -2.0652   -0.4776   -2.8090 H   0  0  0  0  0  0  0  0  0  0  0  0
   -4.3710    0.2453   -3.3215 H   0  0  0  0  0  0  0  0  0  0  0  0
  1  2  1  0
  2  3  1  0
  3  4  2  0
  3  5  1  0
  5  6  1  0
  5  7  1  0
  7  8  2  0
  8  9  1  0
  9 10  1  0
 10 11  1  0
 11 12  2  0
 11 13  1  0
 13 14  1  0
 14 15  1  0
 15 16  1  0
 16 17  1  0
 17 18  2  0
 17 19  1  0
 19 20  2  0
 20 21  1  0
 21 22  2  0
 22 23  1  0
 23 24  2  0
 24 25  1  0
 25 26  2  0
  9 27  2  0
 27 28  1  0
 28 29  2  0
 29  2  1  0
 29  7  1  0
 25 16  1  0
 24 19  1  0
  1 30  1  0
  1 31  1  0
  1 32  1  0
  6 33  1  0
  6 34  1  0
  6 35  1  0
  8 36  1  0
 10 37  1  0
 13 38  1  0
 13 39  1  0
 14 40  1  0
 14 41  1  0
 15 42  1  0
 15 43  1  0
 20 44  1  0
 21 45  1  0
 22 46  1  0
 23 47  1  0
 27 48  1  0
 28 49  1  0
M  END
$$$$
