
     RDKit          3D

 30 31  0  0  0  0  0  0  0  0999 V2000
   -5.3295    0.5851    1.9681 C   0  0  0  0  0  0  0  0  0  0  0  0
   -4.5022   -0.5459    2.2088 O   0  0  0  0  0  0  0  0  0  0  0  0
   -3.3104   -0.5967    1.5406 C   0  0  0  0  0  0  0  0  0  0  0  0
   -2.8196    0.3712    0.6623 C   0  0  0  0  0  0  0  0  0  0  0  0
   -1.5756    0.1957    0.0421 C   0  0  0  0  0  0  0  0  0  0  0  0
   -0.8116   -0.9488    0.3046 C   0  0  0  0  0  0  0  0  0  0  0  0
    0.5164   -1.1754   -0.3359 C   0  0  0  0  0  0  0  0  0  0  0  0
    0.8345   -2.3271   -0.6041 O   0  0  0  0  0  0  0  0  0  0  0  0
    1.2616   -0.0340   -0.5202 N   0  0  0  0  0  0  0  0  0  0  0  0
    2.5240    0.0426   -1.1248 C   0  0  0  0  0  0  0  0  0  0  0  0
    3.1098   -1.0374   -1.6718 N   0  0  0  0  0  0  0  0  0  0  0  0
    4.3253   -0.8728   -2.2356 C   0  0  0  0  0  0  0  0  0  0  0  0
    4.9960    0.3388   -2.2864 C   0  0  0  0  0  0  0  0  0  0  0  0
    4.3851    1.4547   -1.7250 C   0  0  0  0  0  0  0  0  0  0  0  0
    3.1334    1.3040   -1.1382 C   0  0  0  0  0  0  0  0  0  0  0  0
    2.4893    2.3758   -0.5736 O   0  0  0  0  0  0  0  0  0  0  0  0
   -1.3127   -1.9263    1.1697 C   0  0  0  0  0  0  0  0  0  0  0  0
   -2.5524   -1.7445    1.7873 C   0  0  0  0  0  0  0  0  0  0  0  0
   -4.8376    1.5091    2.2894 H   0  0  0  0  0  0  0  0  0  0  0  0
   -6.2390    0.4674    2.5651 H   0  0  0  0  0  0  0  0  0  0  0  0
   -5.6268    0.6402    0.9156 H   0  0  0  0  0  0  0  0  0  0  0  0
   -3.3830    1.2689    0.4303 H   0  0  0  0  0  0  0  0  0  0  0  0
   -1.2328    0.9465   -0.6648 H   0  0  0  0  0  0  0  0  0  0  0  0
    0.9411    0.8459   -0.1387 H   0  0  0  0  0  0  0  0  0  0  0  0
    4.7585   -1.7745   -2.6599 H   0  0  0  0  0  0  0  0  0  0  0  0
    5.9719    0.4075   -2.7543 H   0  0  0  0  0  0  0  0  0  0  0  0
    4.8901    2.4140   -1.7548 H   0  0  0  0  0  0  0  0  0  0  0  0
    3.0674    3.1541   -0.6511 H   0  0  0  0  0  0  0  0  0  0  0  0
   -0.7386   -2.8300    1.3651 H   0  0  0  0  0  0  0  0  0  0  0  0
   -2.9325   -2.5080    2.4623 H   0  0  0  0  0  0  0  0  0  0  0  0
  1  2  1  0
  2  3  1  0
  3  4  2  0
  4  5  1  0
  5  6  2  0
  6  7  1  0
  7  8  2  0
  7  9  1  0
  9 10  1  0
 10 11  2  0
 11 12  1  0
 12 13  2  0
 13 14  1  0
 14 15  2  0
 15 16  1  0
  6 17  1  0
 17 18  2  0
 18  3  1  0
 15 10  1  0
  1 19  1  0
  1 20  1  0
  1 21  1  0
  4 22  1  0
  5 23  1  0
  9 24  1  0
 12 25  1  0
 13 26  1  0
 14 27  1  0
 16 28  1  0
 17 29  1  0
 18 30  1  0
M  END
$$$$
