
     RDKit          3D

 48 49  0  0  0  0  0  0  0  0999 V2000
    6.3509   -1.3366   -2.2004 C   0  0  0  0  0  0  0  0  0  0  0  0
    5.2188   -1.3967   -1.1887 C   0  0  0  0  0  0  0  0  0  0  0  0
    4.3327   -0.1596   -1.2666 C   0  0  0  0  0  0  0  0  0  0  0  0
    3.2600   -0.2214   -0.2981 N   0  0  0  0  0  0  0  0  0  0  0  0
    2.1607    0.6015   -0.3808 C   0  0  0  0  0  0  0  0  0  0  0  0
    1.9584    1.3298   -1.3489 O   0  0  0  0  0  0  0  0  0  0  0  0
    1.1878    0.5908    0.7646 C   0  0  0  0  0  0  0  0  0  0  0  0
    0.1067    1.4858    0.6543 C   0  0  0  0  0  0  0  0  0  0  0  0
   -0.8807    1.5283    1.6389 C   0  0  0  0  0  0  0  0  0  0  0  0
   -2.2360    2.6644    1.4764 S   0  0  0  0  0  6  0  0  0  0  0  0
   -2.8738    2.7689    2.7705 O   0  0  0  0  0  0  0  0  0  0  0  0
   -1.7784    3.8283    0.7538 O   0  0  0  0  0  0  0  0  0  0  0  0
   -3.2847    1.7934    0.5069 N   0  0  0  0  0  0  0  0  0  0  0  0
   -3.1983    1.9568   -0.9560 C   0  0  0  0  0  0  0  0  0  0  0  0
   -3.9781    0.8376   -1.6520 C   0  0  0  0  0  0  0  0  0  0  0  0
   -3.3954   -0.5545   -1.4593 C   0  0  0  0  0  0  0  0  0  0  0  0
   -4.6113   -1.4200   -1.6769 C   0  0  0  0  0  0  0  0  0  0  0  0
   -5.7027   -0.6018   -1.0197 C   0  0  0  0  0  0  0  0  0  0  0  0
   -5.3345    0.7795   -1.1574 O   0  0  0  0  0  0  0  0  0  0  0  0
   -0.7897    0.7101    2.7619 C   0  0  0  0  0  0  0  0  0  0  0  0
    0.2885   -0.1695    2.8911 C   0  0  0  0  0  0  0  0  0  0  0  0
    1.2827   -0.2449    1.9013 C   0  0  0  0  0  0  0  0  0  0  0  0
    2.3614   -1.0894    1.9889 O   0  0  0  0  0  0  0  0  0  0  0  0
    2.4188   -1.9930    3.0881 C   0  0  0  0  0  0  0  0  0  0  0  0
    5.9615   -1.2768   -3.2218 H   0  0  0  0  0  0  0  0  0  0  0  0
    6.9886   -0.4645   -2.0239 H   0  0  0  0  0  0  0  0  0  0  0  0
    6.9738   -2.2335   -2.1264 H   0  0  0  0  0  0  0  0  0  0  0  0
    5.6379   -1.4930   -0.1798 H   0  0  0  0  0  0  0  0  0  0  0  0
    4.6179   -2.2965   -1.3673 H   0  0  0  0  0  0  0  0  0  0  0  0
    4.9115    0.7465   -1.0549 H   0  0  0  0  0  0  0  0  0  0  0  0
    3.9017   -0.0542   -2.2686 H   0  0  0  0  0  0  0  0  0  0  0  0
    3.4256   -0.6830    0.5908 H   0  0  0  0  0  0  0  0  0  0  0  0
    0.0372    2.1499   -0.2065 H   0  0  0  0  0  0  0  0  0  0  0  0
   -4.2352    1.7438    0.8803 H   0  0  0  0  0  0  0  0  0  0  0  0
   -2.1595    1.9502   -1.2967 H   0  0  0  0  0  0  0  0  0  0  0  0
   -3.6558    2.9195   -1.2101 H   0  0  0  0  0  0  0  0  0  0  0  0
   -4.0410    1.0619   -2.7243 H   0  0  0  0  0  0  0  0  0  0  0  0
   -3.0219   -0.6996   -0.4390 H   0  0  0  0  0  0  0  0  0  0  0  0
   -2.5792   -0.7707   -2.1542 H   0  0  0  0  0  0  0  0  0  0  0  0
   -4.8111   -1.5165   -2.7507 H   0  0  0  0  0  0  0  0  0  0  0  0
   -4.5181   -2.4240   -1.2550 H   0  0  0  0  0  0  0  0  0  0  0  0
   -6.6835   -0.7684   -1.4737 H   0  0  0  0  0  0  0  0  0  0  0  0
   -5.7713   -0.8213    0.0511 H   0  0  0  0  0  0  0  0  0  0  0  0
   -1.5478    0.7508    3.5420 H   0  0  0  0  0  0  0  0  0  0  0  0
    0.3218   -0.7829    3.7866 H   0  0  0  0  0  0  0  0  0  0  0  0
    3.3137   -2.6105    2.9635 H   0  0  0  0  0  0  0  0  0  0  0  0
    1.5520   -2.6619    3.0966 H   0  0  0  0  0  0  0  0  0  0  0  0
    2.5173   -1.4532    4.0353 H   0  0  0  0  0  0  0  0  0  0  0  0
  1  2  1  0
  2  3  1  0
  3  4  1  0
  4  5  1  0
  5  6  2  0
  5  7  1  0
  7  8  2  0
  8  9  1  0
  9 10  1  0
 10 11  2  0
 10 12  2  0
 10 13  1  0
 13 14  1  0
 14 15  1  0
 15 16  1  0
 16 17  1  0
 17 18  1  0
 18 19  1  0
  9 20  2  0
 20 21  1  0
 21 22  2  0
 22 23  1  0
 23 24  1  0
 22  7  1  0
 19 15  1  0
  1 25  1  0
  1 26  1  0
  1 27  1  0
  2 28  1  0
  2 29  1  0
  3 30  1  0
  3 31  1  0
  4 32  1  0
  8 33  1  0
 13 34  1  0
 14 35  1  0
 14 36  1  0
 15 37  1  0
 16 38  1  0
 16 39  1  0
 17 40  1  0
 17 41  1  0
 18 42  1  0
 18 43  1  0
 20 44  1  0
 21 45  1  0
 24 46  1  0
 24 47  1  0
 24 48  1  0
M  END
$$$$
