
     RDKit          3D

 54 55  0  0  0  0  0  0  0  0999 V2000
   -3.3601   -0.6480    1.6834 C   0  0  0  0  0  0  0  0  0  0  0  0
   -2.2761   -0.8015    0.7436 N   0  0  0  0  0  0  0  0  0  0  0  0
   -2.4751   -1.9417   -0.0549 C   0  0  0  0  0  0  0  0  0  0  0  0
   -1.9819    0.4380    0.1263 C   0  0  0  0  0  0  0  0  0  0  0  0
   -1.5294    0.3546   -1.3130 C   0  0  0  0  0  0  0  0  0  0  0  0
   -0.3480   -0.4025   -1.5377 N   0  0  0  0  0  0  0  0  0  0  0  0
    0.9071   -0.0869   -0.9497 C   0  0  0  0  0  0  0  0  0  0  0  0
    0.9333    0.9137   -0.2023 O   0  0  0  0  0  0  0  0  0  0  0  0
    2.0591   -0.9128   -1.2410 C   0  0  0  0  0  0  0  0  0  0  0  0
    3.2273   -0.6489   -0.6884 C   0  0  0  0  0  0  0  0  0  0  0  0
    3.5363    0.3998    0.2234 C   0  0  0  0  0  0  0  0  0  0  0  0
    4.5265    1.3024   -0.1567 C   0  0  0  0  0  0  0  0  0  0  0  0
    4.9275    2.3056    0.6862 C   0  0  0  0  0  0  0  0  0  0  0  0
    4.3593    2.4431    1.9292 C   0  0  0  0  0  0  0  0  0  0  0  0
    3.3849    1.5689    2.3271 C   0  0  0  0  0  0  0  0  0  0  0  0
    2.9872    0.5594    1.4688 C   0  0  0  0  0  0  0  0  0  0  0  0
    4.5606   -1.7355   -1.1415 S   0  0  0  0  0  6  0  0  0  0  0  0
    5.6351   -1.7080   -0.1176 O   0  0  0  0  0  0  0  0  0  0  0  0
    5.0437   -1.3724   -2.5156 O   0  0  0  0  0  0  0  0  0  0  0  0
    3.7787   -3.3359   -1.2211 C   0  0  0  0  0  0  0  0  0  0  0  0
    2.5939   -3.1900   -2.1079 C   0  0  0  0  0  0  0  0  0  0  0  0
    1.9171   -1.9874   -2.1106 O   0  0  0  0  0  0  0  0  0  0  0  0
   -3.2482    1.2303    0.0760 C   0  0  0  0  0  0  0  0  0  0  0  0
   -4.3609    0.6143   -0.4499 C   0  0  0  0  0  0  0  0  0  0  0  0
   -5.5843    1.2819   -0.5275 C   0  0  0  0  0  0  0  0  0  0  0  0
   -5.6994    2.5720   -0.0777 C   0  0  0  0  0  0  0  0  0  0  0  0
   -6.8866    3.2132   -0.1562 F   0  0  0  0  0  0  0  0  0  0  0  0
   -4.5771    3.1727    0.4456 C   0  0  0  0  0  0  0  0  0  0  0  0
   -3.3609    2.5193    0.5263 C   0  0  0  0  0  0  0  0  0  0  0  0
    0.6882    0.0000    0.0000 Cl  0  0  0  0  0  0  0  0  0  0  0  0
   -3.0548   -1.0231    2.7113 H   0  0  0  0  0  0  0  0  0  0  0  0
   -4.2686   -1.2116    1.4123 H   0  0  0  0  0  0  0  0  0  0  0  0
   -3.6602    0.3974    1.8743 H   0  0  0  0  0  0  0  0  0  0  0  0
   -1.7738   -2.7730    0.2106 H   0  0  0  0  0  0  0  0  0  0  0  0
   -3.4898   -2.3822    0.1803 H   0  0  0  0  0  0  0  0  0  0  0  0
   -2.4581   -1.8286   -1.1391 H   0  0  0  0  0  0  0  0  0  0  0  0
   -1.2639    1.0362    0.7429 H   0  0  0  0  0  0  0  0  0  0  0  0
   -1.2990    1.4175   -1.6147 H   0  0  0  0  0  0  0  0  0  0  0  0
   -2.3503    0.0275   -1.9387 H   0  0  0  0  0  0  0  0  0  0  0  0
   -0.3799   -1.2353   -2.1634 H   0  0  0  0  0  0  0  0  0  0  0  0
    4.9984    1.2282   -1.1236 H   0  0  0  0  0  0  0  0  0  0  0  0
    5.6932    3.0024    0.3896 H   0  0  0  0  0  0  0  0  0  0  0  0
    4.7114    3.2536    2.5607 H   0  0  0  0  0  0  0  0  0  0  0  0
    2.9635    1.7069    3.3123 H   0  0  0  0  0  0  0  0  0  0  0  0
    2.2290   -0.1337    1.8222 H   0  0  0  0  0  0  0  0  0  0  0  0
    4.4550   -4.1159   -1.6250 H   0  0  0  0  0  0  0  0  0  0  0  0
    3.4500   -3.5811   -0.1808 H   0  0  0  0  0  0  0  0  0  0  0  0
    1.8521   -3.9651   -1.7506 H   0  0  0  0  0  0  0  0  0  0  0  0
    2.9231   -3.5104   -3.1400 H   0  0  0  0  0  0  0  0  0  0  0  0
   -4.3508   -0.3948   -0.8280 H   0  0  0  0  0  0  0  0  0  0  0  0
   -6.4753    0.8048   -0.9428 H   0  0  0  0  0  0  0  0  0  0  0  0
   -4.6647    4.1848    0.7970 H   0  0  0  0  0  0  0  0  0  0  0  0
   -2.4760    2.9777    0.9331 H   0  0  0  0  0  0  0  0  0  0  0  0
   -0.6882    0.0000    0.0000 H   0  0  0  0  0  0  0  0  0  0  0  0
  1  2  1  0
  2  3  1  0
  2  4  1  0
  4  5  1  0
  5  6  1  0
  6  7  1  0
  7  8  2  0
  7  9  1  0
  9 10  2  0
 10 11  1  0
 11 12  2  0
 12 13  1  0
 13 14  2  0
 14 15  1  0
 15 16  2  0
 10 17  1  0
 17 18  2  0
 17 19  2  0
 17 20  1  0
 20 21  1  0
 21 22  1  0
  4 23  1  0
 23 24  2  0
 24 25  1  0
 25 26  2  0
 26 27  1  0
 26 28  1  0
 28 29  2  0
 22  9  1  0
 29 23  1  0
 16 11  1  0
  1 31  1  0
  1 32  1  0
  1 33  1  0
  3 34  1  0
  3 35  1  0
  3 36  1  0
  4 37  1  0
  5 38  1  0
  5 39  1  0
  6 40  1  0
 12 41  1  0
 13 42  1  0
 14 43  1  0
 15 44  1  0
 16 45  1  0
 20 46  1  0
 20 47  1  0
 21 48  1  0
 21 49  1  0
 24 50  1  0
 25 51  1  0
 28 52  1  0
 29 53  1  0
 30 54  1  0
M  END
$$$$
