
     RDKit          3D

 44 46  0  0  0  0  0  0  0  0999 V2000
   -1.6787   -0.3069    1.8793 O   0  0  0  0  0  0  0  0  0  0  0  0
   -1.9200   -0.9551    0.8655 C   0  0  0  0  0  0  0  0  0  0  0  0
   -3.1956   -1.1986    0.4140 N   0  0  0  0  0  0  0  0  0  0  0  0
   -4.3562   -0.6065    1.0391 C   0  0  0  0  0  0  0  0  0  0  0  0
   -4.7798    0.6361    0.3048 C   0  0  0  0  0  0  0  0  0  0  0  0
   -5.7708    0.5910   -0.6795 C   0  0  0  0  0  0  0  0  0  0  0  0
   -6.1019    1.7634   -1.3417 C   0  0  0  0  0  0  0  0  0  0  0  0
   -5.5174    2.9554   -1.0989 N   0  0  0  0  0  0  0  0  0  0  0  0
   -4.5563    2.9767   -0.1509 C   0  0  0  0  0  0  0  0  0  0  0  0
   -4.1567    1.8604    0.5657 C   0  0  0  0  0  0  0  0  0  0  0  0
   -0.7883   -1.5026    0.0676 C   0  0  0  0  0  0  0  0  0  0  0  0
    0.5070   -1.3919    0.5978 C   0  0  0  0  0  0  0  0  0  0  0  0
    1.6025   -1.8684   -0.1307 C   0  0  0  0  0  0  0  0  0  0  0  0
    3.2322   -1.7248    0.5669 S   0  0  0  0  0  6  0  0  0  0  0  0
    4.1534   -2.3833   -0.3379 O   0  0  0  0  0  0  0  0  0  0  0  0
    3.1266   -2.1351    1.9519 O   0  0  0  0  0  0  0  0  0  0  0  0
    3.5837    0.0129    0.5315 C   0  0  0  0  0  0  0  0  0  0  0  0
    4.9686    0.3202    1.1126 C   0  0  0  0  0  0  0  0  0  0  0  0
    5.2195    1.7965    0.8413 C   0  0  0  0  0  0  0  0  0  0  0  0
    4.4684    2.1130   -0.7477 S   0  0  0  0  0  6  0  0  0  0  0  0
    3.4919    3.1699   -0.5920 O   0  0  0  0  0  0  0  0  0  0  0  0
    5.4980    2.1451   -1.7627 O   0  0  0  0  0  0  0  0  0  0  0  0
    3.5903    0.5718   -0.8824 C   0  0  0  0  0  0  0  0  0  0  0  0
    1.4247   -2.4769   -1.3756 C   0  0  0  0  0  0  0  0  0  0  0  0
    0.1375   -2.5911   -1.9005 C   0  0  0  0  0  0  0  0  0  0  0  0
   -0.9563   -2.1048   -1.1824 C   0  0  0  0  0  0  0  0  0  0  0  0
   -2.1737   -2.2332   -1.7320 F   0  0  0  0  0  0  0  0  0  0  0  0
   -3.3290   -1.6385   -0.4891 H   0  0  0  0  0  0  0  0  0  0  0  0
   -4.1555   -0.3774    2.0918 H   0  0  0  0  0  0  0  0  0  0  0  0
   -5.1559   -1.3551    1.0173 H   0  0  0  0  0  0  0  0  0  0  0  0
   -6.2792   -0.3335   -0.9307 H   0  0  0  0  0  0  0  0  0  0  0  0
   -6.8692    1.7740   -2.1106 H   0  0  0  0  0  0  0  0  0  0  0  0
   -4.0976    3.9459    0.0231 H   0  0  0  0  0  0  0  0  0  0  0  0
   -3.3699    1.9419    1.3103 H   0  0  0  0  0  0  0  0  0  0  0  0
    0.6515   -0.9478    1.5826 H   0  0  0  0  0  0  0  0  0  0  0  0
    2.8215    0.5153    1.1397 H   0  0  0  0  0  0  0  0  0  0  0  0
    5.7361   -0.2837    0.6124 H   0  0  0  0  0  0  0  0  0  0  0  0
    5.0263    0.0966    2.1827 H   0  0  0  0  0  0  0  0  0  0  0  0
    6.2830    2.0410    0.8051 H   0  0  0  0  0  0  0  0  0  0  0  0
    4.7146    2.4237    1.5816 H   0  0  0  0  0  0  0  0  0  0  0  0
    4.1389   -0.0620   -1.5852 H   0  0  0  0  0  0  0  0  0  0  0  0
    2.5855    0.7589   -1.2684 H   0  0  0  0  0  0  0  0  0  0  0  0
    2.2702   -2.8711   -1.9371 H   0  0  0  0  0  0  0  0  0  0  0  0
   -0.0239   -3.0615   -2.8672 H   0  0  0  0  0  0  0  0  0  0  0  0
  1  2  2  0
  2  3  1  0
  3  4  1  0
  4  5  1  0
  5  6  2  0
  6  7  1  0
  7  8  2  0
  8  9  1  0
  9 10  2  0
  2 11  1  0
 11 12  2  0
 12 13  1  0
 13 14  1  0
 14 15  2  0
 14 16  2  0
 14 17  1  0
 17 18  1  0
 18 19  1  0
 19 20  1  0
 20 21  2  0
 20 22  2  0
 20 23  1  0
 13 24  2  0
 24 25  1  0
 25 26  2  0
 26 27  1  0
 10  5  1  0
 26 11  1  0
 23 17  1  0
  3 28  1  0
  4 29  1  0
  4 30  1  0
  6 31  1  0
  7 32  1  0
  9 33  1  0
 10 34  1  0
 12 35  1  0
 17 36  1  0
 18 37  1  0
 18 38  1  0
 19 39  1  0
 19 40  1  0
 23 41  1  0
 23 42  1  0
 24 43  1  0
 25 44  1  0
M  END
$$$$
