
     RDKit          3D

 36 39  0  0  0  0  0  0  0  0999 V2000
   -2.0551    3.0601   -0.4259 C   0  0  0  0  0  0  0  0  0  0  0  0
   -1.4840    2.1135   -1.4711 C   0  0  0  0  0  0  0  0  0  0  0  0
   -0.5251    1.1286   -0.8839 C   0  0  0  0  0  0  0  0  0  0  0  0
    0.7895    1.3423   -1.0073 N   0  0  0  0  0  0  0  0  0  0  0  0
    1.3801    0.3103   -0.3469 N   0  0  0  0  0  0  0  0  0  0  0  0
    0.4300   -0.5617    0.2029 C   0  0  0  0  0  0  0  0  0  0  0  0
    0.7955   -1.6720    0.9215 N   0  0  0  0  0  0  0  0  0  0  0  0
    2.0730   -1.8709    1.0563 C   0  0  0  0  0  0  0  0  0  0  0  0
    3.1499   -1.0106    0.5115 C   0  0  0  0  0  0  0  0  0  0  0  0
    4.5901   -1.2970    0.7062 C   0  0  0  0  0  0  0  0  0  0  0  0
    4.9805   -2.2731    1.3356 O   0  0  0  0  0  0  0  0  0  0  0  0
    5.4586   -0.3944    0.1345 N   0  0  0  0  0  0  0  0  0  0  0  0
    5.0598    0.7093   -0.5749 C   0  0  0  0  0  0  0  0  0  0  0  0
    3.7574    0.9660   -0.7485 C   0  0  0  0  0  0  0  0  0  0  0  0
    2.7550    0.0733   -0.1849 C   0  0  0  0  0  0  0  0  0  0  0  0
   -0.8066   -0.0530   -0.1506 C   0  0  0  0  0  0  0  0  0  0  0  0
   -2.0734   -0.6600    0.2149 C   0  0  0  0  0  0  0  0  0  0  0  0
   -3.0133   -0.9825   -0.7717 C   0  0  0  0  0  0  0  0  0  0  0  0
   -4.2413   -1.5481   -0.4199 C   0  0  0  0  0  0  0  0  0  0  0  0
   -4.5371   -1.7971    0.9193 C   0  0  0  0  0  0  0  0  0  0  0  0
   -3.6049   -1.4858    1.9076 C   0  0  0  0  0  0  0  0  0  0  0  0
   -2.3769   -0.9202    1.5572 C   0  0  0  0  0  0  0  0  0  0  0  0
   -2.7365    3.7766   -0.8954 H   0  0  0  0  0  0  0  0  0  0  0  0
   -1.2593    3.6234    0.0734 H   0  0  0  0  0  0  0  0  0  0  0  0
   -2.6135    2.5155    0.3427 H   0  0  0  0  0  0  0  0  0  0  0  0
   -2.3026    1.5879   -1.9738 H   0  0  0  0  0  0  0  0  0  0  0  0
   -0.9802    2.7039   -2.2468 H   0  0  0  0  0  0  0  0  0  0  0  0
    2.4091   -2.7540    1.6258 H   0  0  0  0  0  0  0  0  0  0  0  0
    6.4457   -0.5864    0.2648 H   0  0  0  0  0  0  0  0  0  0  0  0
    5.8411    1.3468   -0.9771 H   0  0  0  0  0  0  0  0  0  0  0  0
    3.4271    1.8373   -1.3085 H   0  0  0  0  0  0  0  0  0  0  0  0
   -2.7927   -0.8119   -1.8223 H   0  0  0  0  0  0  0  0  0  0  0  0
   -4.9636   -1.8003   -1.1918 H   0  0  0  0  0  0  0  0  0  0  0  0
   -5.4909   -2.2409    1.1927 H   0  0  0  0  0  0  0  0  0  0  0  0
   -3.8294   -1.6869    2.9517 H   0  0  0  0  0  0  0  0  0  0  0  0
   -1.6562   -0.6879    2.3380 H   0  0  0  0  0  0  0  0  0  0  0  0
  1  2  1  0
  2  3  1  0
  3  4  2  0
  4  5  1  0
  5  6  1  0
  6  7  1  0
  7  8  2  0
  8  9  1  0
  9 10  1  0
 10 11  2  0
 10 12  1  0
 12 13  1  0
 13 14  2  0
 14 15  1  0
  6 16  2  0
 16 17  1  0
 17 18  2  0
 18 19  1  0
 19 20  2  0
 20 21  1  0
 21 22  2  0
 16  3  1  0
 22 17  1  0
 15  5  1  0
 15  9  2  0
  1 23  1  0
  1 24  1  0
  1 25  1  0
  2 26  1  0
  2 27  1  0
  8 28  1  0
 12 29  1  0
 13 30  1  0
 14 31  1  0
 18 32  1  0
 19 33  1  0
 20 34  1  0
 21 35  1  0
 22 36  1  0
M  END
$$$$
