
     RDKit          3D

 39 41  0  0  0  0  0  0  0  0999 V2000
   -2.0482    0.7145    1.9143 O   0  0  0  0  0  0  0  0  0  0  0  0
   -1.7089    0.2505    0.8293 C   0  0  0  0  0  0  0  0  0  0  0  0
   -2.5424   -0.4295   -0.0314 N   0  0  0  0  0  0  0  0  0  0  0  0
   -3.9381   -0.5962    0.0776 C   0  0  0  0  0  0  0  0  0  0  0  0
   -4.7379    0.1072    0.9820 C   0  0  0  0  0  0  0  0  0  0  0  0
   -6.1211   -0.1040    1.0211 C   0  0  0  0  0  0  0  0  0  0  0  0
   -6.7099   -1.0160    0.1504 C   0  0  0  0  0  0  0  0  0  0  0  0
   -8.4096   -1.2742    0.1978 Cl  0  0  0  0  0  0  0  0  0  0  0  0
   -5.9278   -1.7174   -0.7625 C   0  0  0  0  0  0  0  0  0  0  0  0
   -4.5460   -1.5050   -0.7998 C   0  0  0  0  0  0  0  0  0  0  0  0
   -0.3976    0.3673    0.3759 N   0  0  0  0  0  0  0  0  0  0  0  0
    0.0352    0.1402   -1.0090 C   0  0  0  0  0  0  0  0  0  0  0  0
    1.3300    0.8797   -1.3701 C   0  0  0  0  0  0  0  0  0  0  0  0
    2.4086    0.6105   -0.4189 N   0  0  0  0  0  0  0  0  0  0  0  0
    3.7304    0.6573   -0.8792 C   0  0  0  0  0  0  0  0  0  0  0  0
    3.9598    1.0116   -2.0388 O   0  0  0  0  0  0  0  0  0  0  0  0
    4.8246    0.2867    0.0080 C   0  0  0  0  0  0  0  0  0  0  0  0
    6.1869    0.4891   -0.1428 C   0  0  0  0  0  0  0  0  0  0  0  0
    6.8221   -0.0947    0.9782 C   0  0  0  0  0  0  0  0  0  0  0  0
    5.8174   -0.6353    1.7426 C   0  0  0  0  0  0  0  0  0  0  0  0
    4.6097   -0.4189    1.1630 O   0  0  0  0  0  0  0  0  0  0  0  0
    2.0178    0.4832    0.9914 C   0  0  0  0  0  0  0  0  0  0  0  0
    0.5899    0.9714    1.2735 C   0  0  0  0  0  0  0  0  0  0  0  0
   -2.0809   -1.0184   -0.7053 H   0  0  0  0  0  0  0  0  0  0  0  0
   -4.3159    0.8355    1.6682 H   0  0  0  0  0  0  0  0  0  0  0  0
   -6.7264    0.4503    1.7335 H   0  0  0  0  0  0  0  0  0  0  0  0
   -6.3840   -2.4283   -1.4460 H   0  0  0  0  0  0  0  0  0  0  0  0
   -3.9553   -2.0631   -1.5215 H   0  0  0  0  0  0  0  0  0  0  0  0
   -0.7625    0.4409   -1.6967 H   0  0  0  0  0  0  0  0  0  0  0  0
    0.1863   -0.9407   -1.1142 H   0  0  0  0  0  0  0  0  0  0  0  0
    1.6359    0.6033   -2.3848 H   0  0  0  0  0  0  0  0  0  0  0  0
    1.1613    1.9635   -1.3603 H   0  0  0  0  0  0  0  0  0  0  0  0
    6.6518    1.0002   -0.9756 H   0  0  0  0  0  0  0  0  0  0  0  0
    7.8804   -0.1257    1.1967 H   0  0  0  0  0  0  0  0  0  0  0  0
    5.7980   -1.1824    2.6752 H   0  0  0  0  0  0  0  0  0  0  0  0
    2.0910   -0.5808    1.2446 H   0  0  0  0  0  0  0  0  0  0  0  0
    2.7168    1.0466    1.6176 H   0  0  0  0  0  0  0  0  0  0  0  0
    0.3312    0.7640    2.3177 H   0  0  0  0  0  0  0  0  0  0  0  0
    0.5275    2.0570    1.1283 H   0  0  0  0  0  0  0  0  0  0  0  0
  1  2  2  0
  2  3  1  0
  3  4  1  0
  4  5  2  0
  5  6  1  0
  6  7  2  0
  7  8  1  0
  7  9  1  0
  9 10  2  0
  2 11  1  0
 11 12  1  0
 12 13  1  0
 13 14  1  0
 14 15  1  0
 15 16  2  0
 15 17  1  0
 17 18  2  0
 18 19  1  0
 19 20  2  0
 20 21  1  0
 14 22  1  0
 22 23  1  0
 10  4  1  0
 23 11  1  0
 21 17  1  0
  3 24  1  0
  5 25  1  0
  6 26  1  0
  9 27  1  0
 10 28  1  0
 12 29  1  0
 12 30  1  0
 13 31  1  0
 13 32  1  0
 18 33  1  0
 19 34  1  0
 20 35  1  0
 22 36  1  0
 22 37  1  0
 23 38  1  0
 23 39  1  0
M  END
$$$$
