
     RDKit          3D

 55 58  0  0  0  0  0  0  0  0999 V2000
    0.2141   -1.6117   -2.9375 C   0  0  0  0  0  0  0  0  0  0  0  0
    0.3257   -2.0487   -1.4833 C   0  0  0  0  0  0  0  0  0  0  0  0
    1.1043   -1.0986   -0.6922 N   0  0  0  0  0  0  0  0  0  0  0  0
    0.4978    0.0213   -0.1093 C   0  0  0  0  0  0  0  0  0  0  0  0
   -0.8782    0.1540   -0.2397 N   0  0  0  0  0  0  0  0  0  0  0  0
   -1.3576    1.4854   -0.6890 C   0  0  0  0  0  0  0  0  0  0  0  0
   -2.8417    1.4175   -1.0764 C   0  0  0  0  0  0  0  0  0  0  0  0
   -3.6828    0.8461   -0.0137 N   0  0  0  0  0  0  0  0  0  0  0  0
   -4.9996    1.2852    0.0690 C   0  0  0  0  0  0  0  0  0  0  0  0
   -5.4093    2.2087   -0.6386 O   0  0  0  0  0  0  0  0  0  0  0  0
   -5.9446    0.5891    1.0534 C   0  0  0  0  0  0  0  0  0  0  0  0
   -6.4662   -0.7192    0.4625 C   0  0  0  0  0  0  0  0  0  0  0  0
   -7.1257    1.5010    1.3987 C   0  0  0  0  0  0  0  0  0  0  0  0
   -3.1569   -0.3894    0.5842 C   0  0  0  0  0  0  0  0  0  0  0  0
   -1.6630   -0.2912    0.9360 C   0  0  0  0  0  0  0  0  0  0  0  0
    1.1634    0.9318    0.5482 N   0  0  0  0  0  0  0  0  0  0  0  0
    2.4984    0.7380    0.6410 C   0  0  0  0  0  0  0  0  0  0  0  0
    3.4946    1.8277    1.4978 S   0  0  0  0  0  0  0  0  0  0  0  0
    4.8899    0.9192    1.1477 C   0  0  0  0  0  0  0  0  0  0  0  0
    4.6212   -0.1957    0.3749 C   0  0  0  0  0  0  0  0  0  0  0  0
    3.2189   -0.2995    0.0981 C   0  0  0  0  0  0  0  0  0  0  0  0
    2.4895   -1.3053   -0.6470 C   0  0  0  0  0  0  0  0  0  0  0  0
    3.0569   -2.2507   -1.1908 O   0  0  0  0  0  0  0  0  0  0  0  0
    5.7019   -1.1467   -0.0495 C   0  0  0  0  0  0  0  0  0  0  0  0
    7.1034   -0.5425    0.1381 C   0  0  0  0  0  0  0  0  0  0  0  0
    7.2414    0.1734    1.4890 C   0  0  0  0  0  0  0  0  0  0  0  0
    6.2479    1.3383    1.6175 C   0  0  0  0  0  0  0  0  0  0  0  0
    1.2028   -1.5250   -3.3998 H   0  0  0  0  0  0  0  0  0  0  0  0
   -0.2799   -0.6387   -3.0232 H   0  0  0  0  0  0  0  0  0  0  0  0
   -0.3677   -2.3412   -3.5092 H   0  0  0  0  0  0  0  0  0  0  0  0
   -0.6764   -2.1625   -1.0584 H   0  0  0  0  0  0  0  0  0  0  0  0
    0.7959   -3.0377   -1.4388 H   0  0  0  0  0  0  0  0  0  0  0  0
   -1.2167    2.2249    0.1097 H   0  0  0  0  0  0  0  0  0  0  0  0
   -0.7771    1.8133   -1.5594 H   0  0  0  0  0  0  0  0  0  0  0  0
   -2.9701    0.7754   -1.9568 H   0  0  0  0  0  0  0  0  0  0  0  0
   -3.1866    2.4207   -1.3479 H   0  0  0  0  0  0  0  0  0  0  0  0
   -5.4112    0.3984    1.9899 H   0  0  0  0  0  0  0  0  0  0  0  0
   -7.1558   -1.2114    1.1564 H   0  0  0  0  0  0  0  0  0  0  0  0
   -5.6594   -1.4233    0.2438 H   0  0  0  0  0  0  0  0  0  0  0  0
   -7.0007   -0.5401   -0.4774 H   0  0  0  0  0  0  0  0  0  0  0  0
   -7.7665    1.0362    2.1555 H   0  0  0  0  0  0  0  0  0  0  0  0
   -6.7730    2.4585    1.7975 H   0  0  0  0  0  0  0  0  0  0  0  0
   -7.7425    1.7145    0.5185 H   0  0  0  0  0  0  0  0  0  0  0  0
   -3.7128   -0.6639    1.4820 H   0  0  0  0  0  0  0  0  0  0  0  0
   -3.3081   -1.1837   -0.1569 H   0  0  0  0  0  0  0  0  0  0  0  0
   -1.5202    0.4135    1.7653 H   0  0  0  0  0  0  0  0  0  0  0  0
   -1.3116   -1.2742    1.2711 H   0  0  0  0  0  0  0  0  0  0  0  0
    5.6173   -2.0603    0.5516 H   0  0  0  0  0  0  0  0  0  0  0  0
    5.5751   -1.4288   -1.1004 H   0  0  0  0  0  0  0  0  0  0  0  0
    7.3034    0.1749   -0.6683 H   0  0  0  0  0  0  0  0  0  0  0  0
    7.8560   -1.3346    0.0547 H   0  0  0  0  0  0  0  0  0  0  0  0
    8.2633    0.5501    1.6108 H   0  0  0  0  0  0  0  0  0  0  0  0
    7.0678   -0.5493    2.2967 H   0  0  0  0  0  0  0  0  0  0  0  0
    6.2185    1.6781    2.6590 H   0  0  0  0  0  0  0  0  0  0  0  0
    6.5927    2.1791    1.0030 H   0  0  0  0  0  0  0  0  0  0  0  0
  1  2  1  0
  2  3  1  0
  3  4  1  0
  4  5  1  0
  5  6  1  0
  6  7  1  0
  7  8  1  0
  8  9  1  0
  9 10  2  0
  9 11  1  0
 11 12  1  0
 11 13  1  0
  8 14  1  0
 14 15  1  0
  4 16  2  0
 16 17  1  0
 17 18  1  0
 18 19  1  0
 19 20  2  0
 20 21  1  0
 21 22  1  0
 22 23  2  0
 20 24  1  0
 24 25  1  0
 25 26  1  0
 26 27  1  0
 22  3  1  0
 15  5  1  0
 21 17  2  0
 27 19  1  0
  1 28  1  0
  1 29  1  0
  1 30  1  0
  2 31  1  0
  2 32  1  0
  6 33  1  0
  6 34  1  0
  7 35  1  0
  7 36  1  0
 11 37  1  0
 12 38  1  0
 12 39  1  0
 12 40  1  0
 13 41  1  0
 13 42  1  0
 13 43  1  0
 14 44  1  0
 14 45  1  0
 15 46  1  0
 15 47  1  0
 24 48  1  0
 24 49  1  0
 25 50  1  0
 25 51  1  0
 26 52  1  0
 26 53  1  0
 27 54  1  0
 27 55  1  0
M  END
$$$$
