
     RDKit          3D

 30 32  0  0  0  0  0  0  0  0999 V2000
    1.2977    2.0654   -0.3317 O   0  0  0  0  0  0  0  0  0  0  0  0
    1.3956    0.8462   -0.2721 C   0  0  0  0  0  0  0  0  0  0  0  0
    0.3669   -0.0589   -0.0780 N   0  0  0  0  0  0  0  0  0  0  0  0
   -0.9920    0.2310    0.1701 C   0  0  0  0  0  0  0  0  0  0  0  0
   -1.4921    1.5399    0.3588 C   0  0  0  0  0  0  0  0  0  0  0  0
   -2.8525    1.7771    0.6083 C   0  0  0  0  0  0  0  0  0  0  0  0
   -3.6839    0.6807    0.6651 C   0  0  0  0  0  0  0  0  0  0  0  0
   -3.2023   -0.6027    0.4862 C   0  0  0  0  0  0  0  0  0  0  0  0
   -1.8675   -0.8630    0.2394 C   0  0  0  0  0  0  0  0  0  0  0  0
   -4.3346   -1.5179    0.6118 C   0  0  0  0  0  0  0  0  0  0  0  0
   -4.2717   -2.7264    0.5146 O   0  0  0  0  0  0  0  0  0  0  0  0
   -5.4280   -0.7452    0.8545 N   0  0  0  0  0  0  0  0  0  0  0  0
   -5.1235    0.5809    0.9041 C   0  0  0  0  0  0  0  0  0  0  0  0
   -5.8732    1.5138    1.1060 O   0  0  0  0  0  0  0  0  0  0  0  0
    2.7416    0.2358   -0.4676 C   0  0  0  0  0  0  0  0  0  0  0  0
    3.6336    0.8560   -1.3520 C   0  0  0  0  0  0  0  0  0  0  0  0
    4.9052    0.3166   -1.5625 C   0  0  0  0  0  0  0  0  0  0  0  0
    5.2884   -0.8372   -0.8788 C   0  0  0  0  0  0  0  0  0  0  0  0
    7.1803   -1.6400   -1.1878 I   0  0  0  0  0  0  0  0  0  0  0  0
    4.4135   -1.4514    0.0190 C   0  0  0  0  0  0  0  0  0  0  0  0
    3.1401   -0.9131    0.2294 C   0  0  0  0  0  0  0  0  0  0  0  0
    0.5939   -1.0384   -0.1969 H   0  0  0  0  0  0  0  0  0  0  0  0
   -0.8341    2.4047    0.3205 H   0  0  0  0  0  0  0  0  0  0  0  0
   -3.2329    2.7835    0.7518 H   0  0  0  0  0  0  0  0  0  0  0  0
   -1.5342   -1.8867    0.1049 H   0  0  0  0  0  0  0  0  0  0  0  0
   -6.3570   -1.1110    0.9882 H   0  0  0  0  0  0  0  0  0  0  0  0
    3.3388    1.7615   -1.8798 H   0  0  0  0  0  0  0  0  0  0  0  0
    5.5826    0.8098   -2.2556 H   0  0  0  0  0  0  0  0  0  0  0  0
    4.7135   -2.3405    0.5690 H   0  0  0  0  0  0  0  0  0  0  0  0
    2.4879   -1.3823    0.9612 H   0  0  0  0  0  0  0  0  0  0  0  0
  1  2  2  0
  2  3  1  0
  3  4  1  0
  4  5  2  0
  5  6  1  0
  6  7  2  0
  7  8  1  0
  8  9  2  0
  8 10  1  0
 10 11  2  0
 10 12  1  0
 12 13  1  0
 13 14  2  0
  2 15  1  0
 15 16  2  0
 16 17  1  0
 17 18  2  0
 18 19  1  0
 18 20  1  0
 20 21  2  0
  9  4  1  0
 21 15  1  0
 13  7  1  0
  3 22  1  0
  5 23  1  0
  6 24  1  0
  9 25  1  0
 12 26  1  0
 16 27  1  0
 17 28  1  0
 20 29  1  0
 21 30  1  0
M  END
$$$$
