
     RDKit          3D

 40 42  0  0  0  0  0  0  0  0999 V2000
    6.3489   -1.0149    0.1825 C   0  0  0  0  0  0  0  0  0  0  0  0
    5.0315   -0.3456    0.4378 C   0  0  0  0  0  0  0  0  0  0  0  0
    4.9317    0.6954    1.3657 C   0  0  0  0  0  0  0  0  0  0  0  0
    3.6970    1.2979    1.6187 C   0  0  0  0  0  0  0  0  0  0  0  0
    2.5427    0.8572    0.9689 C   0  0  0  0  0  0  0  0  0  0  0  0
    1.4007    1.5305    1.3033 O   0  0  0  0  0  0  0  0  0  0  0  0
    0.1587    0.8727    1.0741 C   0  0  0  0  0  0  0  0  0  0  0  0
   -0.4779    1.1226   -0.2944 C   0  0  0  0  0  0  0  0  0  0  0  0
    0.1394    1.7427   -1.1685 O   0  0  0  0  0  0  0  0  0  0  0  0
   -1.7591    0.6551   -0.5425 N   0  0  0  0  0  0  0  0  0  0  0  0
   -2.6831   -0.0557    0.2540 C   0  0  0  0  0  0  0  0  0  0  0  0
   -2.5505   -0.6530    1.4968 C   0  0  0  0  0  0  0  0  0  0  0  0
   -3.6543   -1.3114    2.0578 C   0  0  0  0  0  0  0  0  0  0  0  0
   -4.8793   -1.3665    1.3836 C   0  0  0  0  0  0  0  0  0  0  0  0
   -5.0182   -0.7622    0.1381 C   0  0  0  0  0  0  0  0  0  0  0  0
   -3.9150   -0.1208   -0.4098 C   0  0  0  0  0  0  0  0  0  0  0  0
   -3.8861    0.6384   -1.6988 C   0  0  0  0  0  0  0  0  0  0  0  0
   -2.3807    0.8997   -1.8682 C   0  0  0  0  0  0  0  0  0  0  0  0
   -1.7817   -0.0191   -2.9393 C   0  0  0  0  0  0  0  0  0  0  0  0
    2.6376   -0.1784    0.0404 C   0  0  0  0  0  0  0  0  0  0  0  0
    3.8738   -0.7824   -0.2159 C   0  0  0  0  0  0  0  0  0  0  0  0
    6.4049   -1.3877   -0.8457 H   0  0  0  0  0  0  0  0  0  0  0  0
    7.1774   -0.3118    0.3181 H   0  0  0  0  0  0  0  0  0  0  0  0
    6.4813   -1.8548    0.8713 H   0  0  0  0  0  0  0  0  0  0  0  0
    5.8134    1.0504    1.8938 H   0  0  0  0  0  0  0  0  0  0  0  0
    3.6337    2.1150    2.3328 H   0  0  0  0  0  0  0  0  0  0  0  0
    0.2583   -0.2037    1.2481 H   0  0  0  0  0  0  0  0  0  0  0  0
   -0.5231    1.2838    1.8258 H   0  0  0  0  0  0  0  0  0  0  0  0
   -1.6333   -0.6603    2.0660 H   0  0  0  0  0  0  0  0  0  0  0  0
   -3.5578   -1.7877    3.0315 H   0  0  0  0  0  0  0  0  0  0  0  0
   -5.7248   -1.8780    1.8374 H   0  0  0  0  0  0  0  0  0  0  0  0
   -5.9692   -0.7871   -0.3849 H   0  0  0  0  0  0  0  0  0  0  0  0
   -4.4289    1.5820   -1.5746 H   0  0  0  0  0  0  0  0  0  0  0  0
   -4.3222    0.0729   -2.5276 H   0  0  0  0  0  0  0  0  0  0  0  0
   -2.2076    1.9418   -2.1642 H   0  0  0  0  0  0  0  0  0  0  0  0
   -0.7092    0.1596   -3.0648 H   0  0  0  0  0  0  0  0  0  0  0  0
   -1.9082   -1.0752   -2.6764 H   0  0  0  0  0  0  0  0  0  0  0  0
   -2.2640    0.1522   -3.9074 H   0  0  0  0  0  0  0  0  0  0  0  0
    1.7762   -0.5237   -0.5207 H   0  0  0  0  0  0  0  0  0  0  0  0
    3.9269   -1.5900   -0.9427 H   0  0  0  0  0  0  0  0  0  0  0  0
  1  2  1  0
  2  3  2  0
  3  4  1  0
  4  5  2  0
  5  6  1  0
  6  7  1  0
  7  8  1  0
  8  9  2  0
  8 10  1  0
 10 11  1  0
 11 12  2  0
 12 13  1  0
 13 14  2  0
 14 15  1  0
 15 16  2  0
 16 17  1  0
 17 18  1  0
 18 19  1  0
  5 20  1  0
 20 21  2  0
 21  2  1  0
 18 10  1  0
 16 11  1  0
  1 22  1  0
  1 23  1  0
  1 24  1  0
  3 25  1  0
  4 26  1  0
  7 27  1  0
  7 28  1  0
 12 29  1  0
 13 30  1  0
 14 31  1  0
 15 32  1  0
 17 33  1  0
 17 34  1  0
 18 35  1  0
 19 36  1  0
 19 37  1  0
 19 38  1  0
 20 39  1  0
 21 40  1  0
M  END
$$$$
