
     RDKit          3D

 35 37  0  0  0  0  0  0  0  0999 V2000
   -1.9663    0.3105   -2.2366 O   0  0  0  0  0  0  0  0  0  0  0  0
   -1.7984    0.7992   -1.1228 C   0  0  0  0  0  0  0  0  0  0  0  0
   -0.5570    1.6203   -0.8154 C   0  0  0  0  0  0  0  0  0  0  0  0
    0.7022    0.5378   -0.0779 S   0  0  0  0  0  0  0  0  0  0  0  0
    1.9971    1.6683    0.1445 C   0  0  0  0  0  0  0  0  0  0  0  0
    1.8348    2.9728    0.1230 N   0  0  0  0  0  0  0  0  0  0  0  0
    3.0210    3.5083    0.5279 N   0  0  0  0  0  0  0  0  0  0  0  0
    3.9010    2.5604    0.8052 N   0  0  0  0  0  0  0  0  0  0  0  0
    3.3044    1.3720    0.5195 N   0  0  0  0  0  0  0  0  0  0  0  0
    4.0307    0.1553    0.5917 C   0  0  0  0  0  0  0  0  0  0  0  0
    3.6458   -0.9844   -0.1298 C   0  0  0  0  0  0  0  0  0  0  0  0
    4.3968   -2.1634   -0.0469 C   0  0  0  0  0  0  0  0  0  0  0  0
    5.5395   -2.2177    0.7471 C   0  0  0  0  0  0  0  0  0  0  0  0
    5.9373   -1.0889    1.4565 C   0  0  0  0  0  0  0  0  0  0  0  0
    5.1907    0.0866    1.3745 C   0  0  0  0  0  0  0  0  0  0  0  0
    5.6054    1.1248    2.1140 F   0  0  0  0  0  0  0  0  0  0  0  0
   -2.6473    0.6812   -0.0321 N   0  0  0  0  0  0  0  0  0  0  0  0
   -3.8840    0.0061    0.0268 C   0  0  0  0  0  0  0  0  0  0  0  0
   -4.5441   -0.0100    1.2631 C   0  0  0  0  0  0  0  0  0  0  0  0
   -5.7755   -0.6549    1.4073 C   0  0  0  0  0  0  0  0  0  0  0  0
   -6.3599   -1.2897    0.3153 C   0  0  0  0  0  0  0  0  0  0  0  0
   -5.7127   -1.2778   -0.9177 C   0  0  0  0  0  0  0  0  0  0  0  0
   -4.4800   -0.6323   -1.0620 C   0  0  0  0  0  0  0  0  0  0  0  0
   -0.8139    2.4384   -0.1341 H   0  0  0  0  0  0  0  0  0  0  0  0
   -0.1880    2.0573   -1.7493 H   0  0  0  0  0  0  0  0  0  0  0  0
    2.7989   -0.9915   -0.8085 H   0  0  0  0  0  0  0  0  0  0  0  0
    4.0924   -3.0398   -0.6165 H   0  0  0  0  0  0  0  0  0  0  0  0
    6.1210   -3.1344    0.8079 H   0  0  0  0  0  0  0  0  0  0  0  0
    6.8253   -1.1132    2.0816 H   0  0  0  0  0  0  0  0  0  0  0  0
   -2.3314    1.0933    0.8375 H   0  0  0  0  0  0  0  0  0  0  0  0
   -4.1118    0.4773    2.1330 H   0  0  0  0  0  0  0  0  0  0  0  0
   -6.2772   -0.6610    2.3714 H   0  0  0  0  0  0  0  0  0  0  0  0
   -7.3176   -1.7923    0.4228 H   0  0  0  0  0  0  0  0  0  0  0  0
   -6.1647   -1.7711   -1.7747 H   0  0  0  0  0  0  0  0  0  0  0  0
   -4.0145   -0.6471   -2.0422 H   0  0  0  0  0  0  0  0  0  0  0  0
  1  2  2  0
  2  3  1  0
  3  4  1  0
  4  5  1  0
  5  6  2  0
  6  7  1  0
  7  8  2  0
  8  9  1  0
  9 10  1  0
 10 11  2  0
 11 12  1  0
 12 13  2  0
 13 14  1  0
 14 15  2  0
 15 16  1  0
  2 17  1  0
 17 18  1  0
 18 19  2  0
 19 20  1  0
 20 21  2  0
 21 22  1  0
 22 23  2  0
  9  5  1  0
 15 10  1  0
 23 18  1  0
  3 24  1  0
  3 25  1  0
 11 26  1  0
 12 27  1  0
 13 28  1  0
 14 29  1  0
 17 30  1  0
 19 31  1  0
 20 32  1  0
 21 33  1  0
 22 34  1  0
 23 35  1  0
M  END
$$$$
