
     RDKit          3D

 23 24  0  0  0  0  0  0  0  0999 V2000
    3.8425    0.4931   -0.3631 C   0  0  0  0  0  0  0  0  0  0  0  0
    2.5362   -0.1343   -0.0223 C   0  0  0  0  0  0  0  0  0  0  0  0
    2.3542   -1.2452    0.7033 C   0  0  0  0  0  0  0  0  0  0  0  0
    0.8904   -1.4787    0.7174 C   0  0  0  0  0  0  0  0  0  0  0  0
    0.3693   -2.3210    1.4269 O   0  0  0  0  0  0  0  0  0  0  0  0
    0.3359   -0.5186   -0.1415 N   0  0  0  0  0  0  0  0  0  0  0  0
   -1.0249   -0.1334   -0.1855 C   0  0  0  0  0  0  0  0  0  0  0  0
   -1.3475    1.2362   -0.1535 C   0  0  0  0  0  0  0  0  0  0  0  0
   -2.6778    1.6575   -0.1554 C   0  0  0  0  0  0  0  0  0  0  0  0
   -3.0413    3.3380   -0.0890 Cl  0  0  0  0  0  0  0  0  0  0  0  0
   -3.7126    0.7307   -0.2074 C   0  0  0  0  0  0  0  0  0  0  0  0
   -3.4120   -0.6289   -0.2797 C   0  0  0  0  0  0  0  0  0  0  0  0
   -2.0785   -1.0636   -0.2814 C   0  0  0  0  0  0  0  0  0  0  0  0
   -1.8296   -2.7486   -0.5889 Cl  0  0  0  0  0  0  0  0  0  0  0  0
    1.3431    0.4077   -0.4766 N   0  0  0  0  0  0  0  0  0  0  0  0
    3.9798    0.5259   -1.4487 H   0  0  0  0  0  0  0  0  0  0  0  0
    3.8860    1.5168    0.0224 H   0  0  0  0  0  0  0  0  0  0  0  0
    4.6811   -0.0649    0.0662 H   0  0  0  0  0  0  0  0  0  0  0  0
    3.0683   -1.8781    1.1954 H   0  0  0  0  0  0  0  0  0  0  0  0
   -0.5615    1.9842   -0.0821 H   0  0  0  0  0  0  0  0  0  0  0  0
   -4.7496    1.0567   -0.2093 H   0  0  0  0  0  0  0  0  0  0  0  0
   -4.2229   -1.3500   -0.3593 H   0  0  0  0  0  0  0  0  0  0  0  0
    1.3714    0.6185   -1.4759 H   0  0  0  0  0  0  0  0  0  0  0  0
  1  2  1  0
  2  3  2  0
  3  4  1  0
  4  5  2  0
  4  6  1  0
  6  7  1  0
  7  8  2  0
  8  9  1  0
  9 10  1  0
  9 11  2  0
 11 12  1  0
 12 13  2  0
 13 14  1  0
  6 15  1  0
 15  2  1  0
 13  7  1  0
  1 16  1  0
  1 17  1  0
  1 18  1  0
  3 19  1  0
  8 20  1  0
 11 21  1  0
 12 22  1  0
 15 23  1  0
M  END
$$$$
