
     RDKit          3D

 54 56  0  0  0  0  0  0  0  0999 V2000
    8.1422    0.5402    1.4645 C   0  0  0  0  0  0  0  0  0  0  0  0
    7.5184   -0.8468    1.4467 C   0  0  0  0  0  0  0  0  0  0  0  0
    6.0797   -0.7821    1.6941 N   0  0  0  0  0  0  0  0  0  0  0  0
    5.2698   -0.4841    0.5808 C   0  0  0  0  0  0  0  0  0  0  0  0
    3.9013   -0.4221    0.7737 C   0  0  0  0  0  0  0  0  0  0  0  0
    3.0926   -0.1152   -0.3068 C   0  0  0  0  0  0  0  0  0  0  0  0
    1.7074   -0.0304   -0.1696 N   0  0  0  0  0  0  0  0  0  0  0  0
    1.0249   -1.0107    0.6965 C   0  0  0  0  0  0  0  0  0  0  0  0
   -0.3115   -1.4980    0.1042 C   0  0  0  0  0  0  0  0  0  0  0  0
   -1.1745   -0.4016   -0.3415 N   0  0  0  0  0  0  0  0  0  0  0  0
   -2.5526   -0.5199   -0.1973 C   0  0  0  0  0  0  0  0  0  0  0  0
   -3.0616   -1.5489    0.2487 O   0  0  0  0  0  0  0  0  0  0  0  0
   -3.3886    0.6765   -0.6467 C   0  0  0  0  0  0  0  0  0  0  0  0
   -4.8088    0.6763   -0.1295 C   0  0  0  0  0  0  0  0  0  0  0  0
   -5.1500    1.4035    1.0168 C   0  0  0  0  0  0  0  0  0  0  0  0
   -6.4646    1.3983    1.4897 C   0  0  0  0  0  0  0  0  0  0  0  0
   -7.4559    0.6635    0.8363 C   0  0  0  0  0  0  0  0  0  0  0  0
   -8.6975    0.7456    1.4046 O   0  0  0  0  0  0  0  0  0  0  0  0
   -9.7277   -0.0310    0.8072 C   0  0  0  0  0  0  0  0  0  0  0  0
   -7.1197   -0.0706   -0.3006 C   0  0  0  0  0  0  0  0  0  0  0  0
   -5.8043   -0.0653   -0.7789 C   0  0  0  0  0  0  0  0  0  0  0  0
   -0.4980    0.7352   -0.9792 C   0  0  0  0  0  0  0  0  0  0  0  0
    0.9682    0.4440   -1.3481 C   0  0  0  0  0  0  0  0  0  0  0  0
    3.6392    0.1481   -1.5046 N   0  0  0  0  0  0  0  0  0  0  0  0
    4.9774    0.0918   -1.6094 C   0  0  0  0  0  0  0  0  0  0  0  0
    5.5758    0.3618   -2.9538 C   0  0  0  0  0  0  0  0  0  0  0  0
    5.8155   -0.2298   -0.6130 N   0  0  0  0  0  0  0  0  0  0  0  0
    9.2287    0.4672    1.3546 H   0  0  0  0  0  0  0  0  0  0  0  0
    7.9290    1.0521    2.4090 H   0  0  0  0  0  0  0  0  0  0  0  0
    7.7632    1.1687    0.6529 H   0  0  0  0  0  0  0  0  0  0  0  0
    7.9689   -1.4287    2.2598 H   0  0  0  0  0  0  0  0  0  0  0  0
    7.7582   -1.3826    0.5205 H   0  0  0  0  0  0  0  0  0  0  0  0
    5.7365   -1.6369    2.1234 H   0  0  0  0  0  0  0  0  0  0  0  0
    3.4865   -0.5784    1.7601 H   0  0  0  0  0  0  0  0  0  0  0  0
    1.6457   -1.8963    0.8804 H   0  0  0  0  0  0  0  0  0  0  0  0
    0.8345   -0.5296    1.6634 H   0  0  0  0  0  0  0  0  0  0  0  0
   -0.1218   -2.1238   -0.7766 H   0  0  0  0  0  0  0  0  0  0  0  0
   -0.8283   -2.1230    0.8402 H   0  0  0  0  0  0  0  0  0  0  0  0
   -2.9053    1.6048   -0.3217 H   0  0  0  0  0  0  0  0  0  0  0  0
   -3.4073    0.6886   -1.7432 H   0  0  0  0  0  0  0  0  0  0  0  0
   -4.3989    1.9775    1.5540 H   0  0  0  0  0  0  0  0  0  0  0  0
   -6.7178    1.9676    2.3806 H   0  0  0  0  0  0  0  0  0  0  0  0
   -9.4897   -1.0993    0.8435 H   0  0  0  0  0  0  0  0  0  0  0  0
  -10.6427    0.1255    1.3866 H   0  0  0  0  0  0  0  0  0  0  0  0
   -9.9238    0.2967   -0.2190 H   0  0  0  0  0  0  0  0  0  0  0  0
   -7.8525   -0.6633   -0.8369 H   0  0  0  0  0  0  0  0  0  0  0  0
   -5.5591   -0.6579   -1.6578 H   0  0  0  0  0  0  0  0  0  0  0  0
   -1.0534    1.0298   -1.8753 H   0  0  0  0  0  0  0  0  0  0  0  0
   -0.5406    1.5670   -0.2660 H   0  0  0  0  0  0  0  0  0  0  0  0
    1.4059    1.3716   -1.7376 H   0  0  0  0  0  0  0  0  0  0  0  0
    1.0039   -0.3124   -2.1429 H   0  0  0  0  0  0  0  0  0  0  0  0
    4.9613    1.0740   -3.5130 H   0  0  0  0  0  0  0  0  0  0  0  0
    6.5804    0.7836   -2.8511 H   0  0  0  0  0  0  0  0  0  0  0  0
    5.6409   -0.5705   -3.5220 H   0  0  0  0  0  0  0  0  0  0  0  0
  1  2  1  0
  2  3  1  0
  3  4  1  0
  4  5  2  0
  5  6  1  0
  6  7  1  0
  7  8  1  0
  8  9  1  0
  9 10  1  0
 10 11  1  0
 11 12  2  0
 11 13  1  0
 13 14  1  0
 14 15  2  0
 15 16  1  0
 16 17  2  0
 17 18  1  0
 18 19  1  0
 17 20  1  0
 20 21  2  0
 10 22  1  0
 22 23  1  0
  6 24  2  0
 24 25  1  0
 25 26  1  0
 25 27  2  0
 27  4  1  0
 23  7  1  0
 21 14  1  0
  1 28  1  0
  1 29  1  0
  1 30  1  0
  2 31  1  0
  2 32  1  0
  3 33  1  0
  5 34  1  0
  8 35  1  0
  8 36  1  0
  9 37  1  0
  9 38  1  0
 13 39  1  0
 13 40  1  0
 15 41  1  0
 16 42  1  0
 19 43  1  0
 19 44  1  0
 19 45  1  0
 20 46  1  0
 21 47  1  0
 22 48  1  0
 22 49  1  0
 23 50  1  0
 23 51  1  0
 26 52  1  0
 26 53  1  0
 26 54  1  0
M  END
$$$$
