
     RDKit          3D

 46 48  0  0  0  0  0  0  0  0999 V2000
    8.5586   -0.3971   -2.4063 C   0  0  0  0  0  0  0  0  0  0  0  0
    7.1674    0.0296   -2.1820 C   0  0  0  0  0  0  0  0  0  0  0  0
    6.2529   -0.1678   -1.1778 C   0  0  0  0  0  0  0  0  0  0  0  0
    5.1008    0.5268   -1.6050 C   0  0  0  0  0  0  0  0  0  0  0  0
    3.8790    0.6691   -0.9845 N   0  0  0  0  0  0  0  0  0  0  0  0
    3.5266    0.0841    0.2091 C   0  0  0  0  0  0  0  0  0  0  0  0
    4.2238   -0.6779    0.8697 O   0  0  0  0  0  0  0  0  0  0  0  0
    2.1509    0.3993    0.6938 C   0  0  0  0  0  0  0  0  0  0  0  0
    1.4832   -0.5638    1.4657 C   0  0  0  0  0  0  0  0  0  0  0  0
    0.1953   -0.3153    1.9440 C   0  0  0  0  0  0  0  0  0  0  0  0
   -0.4221    0.9039    1.6517 C   0  0  0  0  0  0  0  0  0  0  0  0
   -2.0614    1.2073    2.2692 S   0  0  0  0  0  6  0  0  0  0  0  0
   -2.0267    0.9663    3.6952 O   0  0  0  0  0  0  0  0  0  0  0  0
   -2.5294    2.4653    1.7262 O   0  0  0  0  0  0  0  0  0  0  0  0
   -2.9703   -0.0357    1.5310 N   0  0  0  0  0  0  0  0  0  0  0  0
   -3.0710    0.0108    0.0445 C   0  0  0  0  0  0  0  0  0  0  0  0
   -4.4800    0.3664   -0.4150 C   0  0  0  0  0  0  0  0  0  0  0  0
   -5.5237   -0.6468    0.0818 C   0  0  0  0  0  0  0  0  0  0  0  0
   -5.8065   -1.7250   -0.9644 C   0  0  0  0  0  0  0  0  0  0  0  0
   -5.0969   -1.2891    1.4105 C   0  0  0  0  0  0  0  0  0  0  0  0
   -4.2486   -0.3298    2.2363 C   0  0  0  0  0  0  0  0  0  0  0  0
    0.2393    1.8812    0.9028 C   0  0  0  0  0  0  0  0  0  0  0  0
    1.5295    1.6292    0.4263 C   0  0  0  0  0  0  0  0  0  0  0  0
    5.3061    1.1102   -2.7915 N   0  0  0  0  0  0  0  0  0  0  0  0
    6.6035    0.7956   -3.1523 O   0  0  0  0  0  0  0  0  0  0  0  0
    8.6348   -0.9914   -3.3220 H   0  0  0  0  0  0  0  0  0  0  0  0
    8.9217   -1.0072   -1.5735 H   0  0  0  0  0  0  0  0  0  0  0  0
    9.2159    0.4724   -2.5030 H   0  0  0  0  0  0  0  0  0  0  0  0
    6.4010   -0.7325   -0.2696 H   0  0  0  0  0  0  0  0  0  0  0  0
    3.2177    1.2049   -1.5268 H   0  0  0  0  0  0  0  0  0  0  0  0
    1.9684   -1.5108    1.6984 H   0  0  0  0  0  0  0  0  0  0  0  0
   -0.3171   -1.0643    2.5447 H   0  0  0  0  0  0  0  0  0  0  0  0
   -2.3641    0.7311   -0.3793 H   0  0  0  0  0  0  0  0  0  0  0  0
   -2.7762   -0.9715   -0.3433 H   0  0  0  0  0  0  0  0  0  0  0  0
   -4.5091    0.4524   -1.5074 H   0  0  0  0  0  0  0  0  0  0  0  0
   -4.7379    1.3590   -0.0224 H   0  0  0  0  0  0  0  0  0  0  0  0
   -6.4614   -0.0991    0.2450 H   0  0  0  0  0  0  0  0  0  0  0  0
   -4.9019   -2.2918   -1.2089 H   0  0  0  0  0  0  0  0  0  0  0  0
   -6.5617   -2.4297   -0.6004 H   0  0  0  0  0  0  0  0  0  0  0  0
   -6.1853   -1.2780   -1.8896 H   0  0  0  0  0  0  0  0  0  0  0  0
   -5.9885   -1.5837    1.9765 H   0  0  0  0  0  0  0  0  0  0  0  0
   -4.5241   -2.2077    1.2269 H   0  0  0  0  0  0  0  0  0  0  0  0
   -4.8032    0.5961    2.4287 H   0  0  0  0  0  0  0  0  0  0  0  0
   -4.0180   -0.8013    3.1979 H   0  0  0  0  0  0  0  0  0  0  0  0
   -0.2341    2.8402    0.7000 H   0  0  0  0  0  0  0  0  0  0  0  0
    2.0430    2.4159   -0.1206 H   0  0  0  0  0  0  0  0  0  0  0  0
  1  2  1  0
  2  3  2  0
  3  4  1  0
  4  5  1  0
  5  6  1  0
  6  7  2  0
  6  8  1  0
  8  9  2  0
  9 10  1  0
 10 11  2  0
 11 12  1  0
 12 13  2  0
 12 14  2  0
 12 15  1  0
 15 16  1  0
 16 17  1  0
 17 18  1  0
 18 19  1  0
 18 20  1  0
 20 21  1  0
 11 22  1  0
 22 23  2  0
  4 24  2  0
 24 25  1  0
 25  2  1  0
 23  8  1  0
 21 15  1  0
  1 26  1  0
  1 27  1  0
  1 28  1  0
  3 29  1  0
  5 30  1  0
  9 31  1  0
 10 32  1  0
 16 33  1  0
 16 34  1  0
 17 35  1  0
 17 36  1  0
 18 37  1  0
 19 38  1  0
 19 39  1  0
 19 40  1  0
 20 41  1  0
 20 42  1  0
 21 43  1  0
 21 44  1  0
 22 45  1  0
 23 46  1  0
M  END
$$$$
