
     RDKit          3D

 42 44  0  0  0  0  0  0  0  0999 V2000
   -1.2957   -1.8736    0.4422 C   0  0  0  0  0  0  0  0  0  0  0  0
   -2.1892   -0.8183   -0.2377 C   0  0  0  0  0  0  0  0  0  0  0  0
   -3.3084   -1.6121   -0.9454 C   0  0  0  0  0  0  0  0  0  0  0  0
   -2.7035    0.2832    0.7235 C   0  0  0  0  0  0  0  0  0  0  0  0
   -3.4611    1.2523   -0.2089 C   0  0  0  0  0  0  0  0  0  0  0  0
   -2.6171    1.2186   -1.4936 C   0  0  0  0  0  0  0  0  0  0  0  0
   -1.4607    0.2350   -1.1303 C   0  0  0  0  0  0  0  0  0  0  0  0
   -0.7587   -0.2836   -2.3739 C   0  0  0  0  0  0  0  0  0  0  0  0
   -0.5572    1.0302   -0.1266 C   0  0  0  0  0  0  0  0  0  0  0  0
    0.7685    0.4777    0.0828 N   0  0  0  0  0  0  0  0  0  0  0  0
    1.7319    1.1791    0.7786 C   0  0  0  0  0  0  0  0  0  0  0  0
    1.5488    2.2928    1.2556 O   0  0  0  0  0  0  0  0  0  0  0  0
    3.0625    0.5231    0.9066 C   0  0  0  0  0  0  0  0  0  0  0  0
    4.1970    1.3397    1.0249 C   0  0  0  0  0  0  0  0  0  0  0  0
    5.4640    0.7668    1.1502 C   0  0  0  0  0  0  0  0  0  0  0  0
    5.5901   -0.6174    1.1672 C   0  0  0  0  0  0  0  0  0  0  0  0
    6.8047   -1.1680    1.2891 F   0  0  0  0  0  0  0  0  0  0  0  0
    4.4732   -1.4410    1.0680 C   0  0  0  0  0  0  0  0  0  0  0  0
    3.2031   -0.8725    0.9414 C   0  0  0  0  0  0  0  0  0  0  0  0
   -1.4127    1.0140    1.1648 C   0  0  0  0  0  0  0  0  0  0  0  0
   -1.8979   -2.5173    1.0947 H   0  0  0  0  0  0  0  0  0  0  0  0
   -0.5040   -1.4682    1.0726 H   0  0  0  0  0  0  0  0  0  0  0  0
   -0.8171   -2.5162   -0.3049 H   0  0  0  0  0  0  0  0  0  0  0  0
   -2.8815   -2.3319   -1.6532 H   0  0  0  0  0  0  0  0  0  0  0  0
   -3.8976   -2.1756   -0.2125 H   0  0  0  0  0  0  0  0  0  0  0  0
   -4.0149   -1.0006   -1.5101 H   0  0  0  0  0  0  0  0  0  0  0  0
   -3.3078   -0.0669    1.5637 H   0  0  0  0  0  0  0  0  0  0  0  0
   -4.4815    0.9061   -0.4039 H   0  0  0  0  0  0  0  0  0  0  0  0
   -3.5320    2.2639    0.2043 H   0  0  0  0  0  0  0  0  0  0  0  0
   -3.2145    0.8641   -2.3408 H   0  0  0  0  0  0  0  0  0  0  0  0
   -2.2503    2.2162   -1.7600 H   0  0  0  0  0  0  0  0  0  0  0  0
   -0.0257   -1.0607   -2.1389 H   0  0  0  0  0  0  0  0  0  0  0  0
   -0.2363    0.5279   -2.8919 H   0  0  0  0  0  0  0  0  0  0  0  0
   -1.4739   -0.7187   -3.0801 H   0  0  0  0  0  0  0  0  0  0  0  0
   -0.4137    2.0636   -0.4669 H   0  0  0  0  0  0  0  0  0  0  0  0
    1.0328   -0.3599   -0.4144 H   0  0  0  0  0  0  0  0  0  0  0  0
    4.0928    2.4234    1.0182 H   0  0  0  0  0  0  0  0  0  0  0  0
    6.3480    1.3905    1.2387 H   0  0  0  0  0  0  0  0  0  0  0  0
    4.5991   -2.5189    1.1009 H   0  0  0  0  0  0  0  0  0  0  0  0
    2.3372   -1.5269    0.9021 H   0  0  0  0  0  0  0  0  0  0  0  0
   -1.6196    2.0307    1.5174 H   0  0  0  0  0  0  0  0  0  0  0  0
   -0.9212    0.4819    1.9865 H   0  0  0  0  0  0  0  0  0  0  0  0
  1  2  1  0
  2  3  1  0
  2  4  1  0
  4  5  1  0
  5  6  1  0
  6  7  1  0
  7  8  1  0
  7  9  1  0
  9 10  1  0
 10 11  1  0
 11 12  2  0
 11 13  1  0
 13 14  2  0
 14 15  1  0
 15 16  2  0
 16 17  1  0
 16 18  1  0
 18 19  2  0
  9 20  1  0
  7  2  1  0
 19 13  1  0
 20  4  1  0
  1 21  1  0
  1 22  1  0
  1 23  1  0
  3 24  1  0
  3 25  1  0
  3 26  1  0
  4 27  1  0
  5 28  1  0
  5 29  1  0
  6 30  1  0
  6 31  1  0
  8 32  1  0
  8 33  1  0
  8 34  1  0
  9 35  1  0
 10 36  1  0
 14 37  1  0
 15 38  1  0
 18 39  1  0
 19 40  1  0
 20 41  1  0
 20 42  1  0
M  END
$$$$
