
     RDKit          3D

 56 59  0  0  0  0  0  0  0  0999 V2000
   -7.9526    1.8964    0.2032 C   0  0  0  0  0  0  0  0  0  0  0  0
   -6.5369    1.8940    0.3347 O   0  0  0  0  0  0  0  0  0  0  0  0
   -5.8638    0.8342   -0.2108 C   0  0  0  0  0  0  0  0  0  0  0  0
   -6.4443   -0.2778   -0.8159 C   0  0  0  0  0  0  0  0  0  0  0  0
   -5.6345   -1.2958   -1.3193 C   0  0  0  0  0  0  0  0  0  0  0  0
   -4.2433   -1.2091   -1.2155 C   0  0  0  0  0  0  0  0  0  0  0  0
   -3.6354   -0.1010   -0.6089 C   0  0  0  0  0  0  0  0  0  0  0  0
   -2.2035   -0.0103   -0.4699 N   0  0  0  0  0  0  0  0  0  0  0  0
   -1.5691    1.2207   -0.7042 C   0  0  0  0  0  0  0  0  0  0  0  0
   -2.1518    2.2607   -1.0231 O   0  0  0  0  0  0  0  0  0  0  0  0
   -0.0433    1.2272   -0.6699 C   0  0  0  0  0  0  0  0  0  0  0  0
    0.4911    0.3035    0.3427 N   0  0  0  0  0  0  0  0  0  0  0  0
    1.9346    0.5333    0.5658 C   0  0  0  0  0  0  0  0  0  0  0  0
    2.8919    0.1828   -0.5919 C   0  0  0  0  0  0  0  0  0  0  0  0
    4.3258    0.5683   -0.2963 C   0  0  0  0  0  0  0  0  0  0  0  0
    4.9507    1.5409   -0.9867 C   0  0  0  0  0  0  0  0  0  0  0  0
    6.3643    1.9768   -0.7265 C   0  0  0  0  0  0  0  0  0  0  0  0
    6.9249    1.4431    0.5915 C   0  0  0  0  0  0  0  0  0  0  0  0
    6.5529   -0.0219    0.7880 C   0  0  0  0  0  0  0  0  0  0  0  0
    5.0331   -0.2100    0.7910 C   0  0  0  0  0  0  0  0  0  0  0  0
    0.1220   -1.0749   -0.0057 C   0  0  1  0  0  0  0  0  0  0  0  0
    0.5676   -2.0709    1.0785 C   0  0  0  0  0  0  0  0  0  0  0  0
   -0.6871   -3.3038    1.1319 S   0  0  0  0  0  6  0  0  0  0  0  0
   -0.5380   -4.1632   -0.0245 O   0  0  0  0  0  0  0  0  0  0  0  0
   -0.8074   -3.8233    2.4763 O   0  0  0  0  0  0  0  0  0  0  0  0
   -1.9870   -2.1579    0.8161 C   0  0  0  0  0  0  0  0  0  0  0  0
   -1.4224   -1.2602   -0.2935 C   0  0  1  0  0  0  0  0  0  0  0  0
   -4.4684    0.9155   -0.1159 C   0  0  0  0  0  0  0  0  0  0  0  0
   -8.3300    2.8152    0.6638 H   0  0  0  0  0  0  0  0  0  0  0  0
   -8.2514    1.9041   -0.8509 H   0  0  0  0  0  0  0  0  0  0  0  0
   -8.3991    1.0500    0.7358 H   0  0  0  0  0  0  0  0  0  0  0  0
   -7.5194   -0.3821   -0.9123 H   0  0  0  0  0  0  0  0  0  0  0  0
   -6.0887   -2.1582   -1.8024 H   0  0  0  0  0  0  0  0  0  0  0  0
   -3.6576   -2.0109   -1.6558 H   0  0  0  0  0  0  0  0  0  0  0  0
    0.2574    2.2530   -0.4227 H   0  0  0  0  0  0  0  0  0  0  0  0
    0.3157    0.9953   -1.6795 H   0  0  0  0  0  0  0  0  0  0  0  0
    2.2361   -0.0223    1.4620 H   0  0  0  0  0  0  0  0  0  0  0  0
    2.0750    1.5877    0.8413 H   0  0  0  0  0  0  0  0  0  0  0  0
    2.8616   -0.8927   -0.8017 H   0  0  0  0  0  0  0  0  0  0  0  0
    2.5613    0.6832   -1.5097 H   0  0  0  0  0  0  0  0  0  0  0  0
    4.4316    2.0675   -1.7847 H   0  0  0  0  0  0  0  0  0  0  0  0
    6.9893    1.6338   -1.5601 H   0  0  0  0  0  0  0  0  0  0  0  0
    6.4116    3.0718   -0.7194 H   0  0  0  0  0  0  0  0  0  0  0  0
    8.0138    1.5628    0.6053 H   0  0  0  0  0  0  0  0  0  0  0  0
    6.5271    2.0342    1.4257 H   0  0  0  0  0  0  0  0  0  0  0  0
    6.9956   -0.6212   -0.0185 H   0  0  0  0  0  0  0  0  0  0  0  0
    6.9725   -0.3954    1.7289 H   0  0  0  0  0  0  0  0  0  0  0  0
    4.8167   -1.2797    0.6861 H   0  0  0  0  0  0  0  0  0  0  0  0
    4.6358    0.1070    1.7634 H   0  0  0  0  0  0  0  0  0  0  0  0
    0.6292   -1.3542   -0.9401 H   0  0  0  0  0  0  0  0  0  0  0  0
    0.5946   -1.6122    2.0746 H   0  0  0  0  0  0  0  0  0  0  0  0
    1.5356   -2.5319    0.8623 H   0  0  0  0  0  0  0  0  0  0  0  0
   -2.1828   -1.5976    1.7373 H   0  0  0  0  0  0  0  0  0  0  0  0
   -2.8776   -2.7220    0.5340 H   0  0  0  0  0  0  0  0  0  0  0  0
   -1.4800   -1.7894   -1.2557 H   0  0  0  0  0  0  0  0  0  0  0  0
   -4.0438    1.7870    0.3791 H   0  0  0  0  0  0  0  0  0  0  0  0
  1  2  1  0
  2  3  1  0
  3  4  2  0
  4  5  1  0
  5  6  2  0
  6  7  1  0
  7  8  1  0
  8  9  1  0
  9 10  2  0
  9 11  1  0
 11 12  1  0
 12 13  1  0
 13 14  1  0
 14 15  1  0
 15 16  2  0
 16 17  1  0
 17 18  1  0
 18 19  1  0
 19 20  1  0
 12 21  1  0
 21 22  1  0
 22 23  1  0
 23 24  2  0
 23 25  2  0
 23 26  1  0
 26 27  1  0
  7 28  2  0
 28  3  1  0
 27  8  1  0
 20 15  1  0
 27 21  1  0
  1 29  1  0
  1 30  1  0
  1 31  1  0
  4 32  1  0
  5 33  1  0
  6 34  1  0
 11 35  1  0
 11 36  1  0
 13 37  1  0
 13 38  1  0
 14 39  1  0
 14 40  1  0
 16 41  1  0
 17 42  1  0
 17 43  1  0
 18 44  1  0
 18 45  1  0
 19 46  1  0
 19 47  1  0
 20 48  1  0
 20 49  1  0
 21 50  1  6
 22 51  1  0
 22 52  1  0
 26 53  1  0
 26 54  1  0
 27 55  1  6
 28 56  1  0
M  END
$$$$
