
     RDKit          3D

 38 41  0  0  0  0  0  0  0  0999 V2000
    5.6910    0.2663    0.8633 C   0  0  0  0  0  0  0  0  0  0  0  0
    5.4055    1.0593   -0.4032 C   0  0  0  0  0  0  0  0  0  0  0  0
    4.6607    0.2490   -1.4687 C   0  0  0  0  0  0  0  0  0  0  0  0
    3.2925   -0.0995   -1.0819 N   0  0  0  0  0  0  0  0  0  0  0  0
    3.0276   -1.3683   -0.5997 C   0  0  0  0  0  0  0  0  0  0  0  0
    1.7942   -1.7240   -0.2276 C   0  0  0  0  0  0  0  0  0  0  0  0
    0.7081   -0.7754   -0.3257 C   0  0  0  0  0  0  0  0  0  0  0  0
    0.9083    0.4724   -0.7881 C   0  0  0  0  0  0  0  0  0  0  0  0
   -0.1130    1.3990   -0.8948 N   0  0  0  0  0  0  0  0  0  0  0  0
   -1.2950    1.1127   -0.5594 N   0  0  0  0  0  0  0  0  0  0  0  0
   -1.5980   -0.1259   -0.0682 C   0  0  0  0  0  0  0  0  0  0  0  0
   -2.7680   -0.7157    0.3736 C   0  0  0  0  0  0  0  0  0  0  0  0
   -4.0775   -0.0869    0.4182 C   0  0  0  0  0  0  0  0  0  0  0  0
   -4.2289    1.2595    0.7763 C   0  0  0  0  0  0  0  0  0  0  0  0
   -5.4975    1.8438    0.8264 C   0  0  0  0  0  0  0  0  0  0  0  0
   -6.6276    1.0883    0.5225 C   0  0  0  0  0  0  0  0  0  0  0  0
   -6.4915   -0.2520    0.1691 C   0  0  0  0  0  0  0  0  0  0  0  0
   -5.2236   -0.8378    0.1188 C   0  0  0  0  0  0  0  0  0  0  0  0
   -2.3822   -2.0266    0.7244 C   0  0  0  0  0  0  0  0  0  0  0  0
   -1.0834   -2.2615    0.5372 N   0  0  0  0  0  0  0  0  0  0  0  0
   -0.5983   -1.0872    0.0473 N   0  0  0  0  0  0  0  0  0  0  0  0
    2.2958    0.8795   -1.2069 C   0  0  0  0  0  0  0  0  0  0  0  0
    2.5163    2.0133   -1.6308 O   0  0  0  0  0  0  0  0  0  0  0  0
    4.7668    0.0013    1.3854 H   0  0  0  0  0  0  0  0  0  0  0  0
    6.2383   -0.6541    0.6365 H   0  0  0  0  0  0  0  0  0  0  0  0
    6.3007    0.8622    1.5501 H   0  0  0  0  0  0  0  0  0  0  0  0
    6.3605    1.3927   -0.8263 H   0  0  0  0  0  0  0  0  0  0  0  0
    4.8402    1.9610   -0.1418 H   0  0  0  0  0  0  0  0  0  0  0  0
    4.6099    0.8451   -2.3883 H   0  0  0  0  0  0  0  0  0  0  0  0
    5.2185   -0.6619   -1.7185 H   0  0  0  0  0  0  0  0  0  0  0  0
    3.8591   -2.0646   -0.5314 H   0  0  0  0  0  0  0  0  0  0  0  0
    1.5895   -2.7216    0.1523 H   0  0  0  0  0  0  0  0  0  0  0  0
   -3.3660    1.8713    1.0295 H   0  0  0  0  0  0  0  0  0  0  0  0
   -5.6007    2.8900    1.1037 H   0  0  0  0  0  0  0  0  0  0  0  0
   -7.6134    1.5448    0.5601 H   0  0  0  0  0  0  0  0  0  0  0  0
   -7.3723   -0.8420   -0.0714 H   0  0  0  0  0  0  0  0  0  0  0  0
   -5.1457   -1.8829   -0.1713 H   0  0  0  0  0  0  0  0  0  0  0  0
   -3.0011   -2.8235    1.1182 H   0  0  0  0  0  0  0  0  0  0  0  0
  1  2  1  0
  2  3  1  0
  3  4  1  0
  4  5  1  0
  5  6  2  0
  6  7  1  0
  7  8  2  0
  8  9  1  0
  9 10  2  0
 10 11  1  0
 11 12  2  0
 12 13  1  0
 13 14  2  0
 14 15  1  0
 15 16  2  0
 16 17  1  0
 17 18  2  0
 12 19  1  0
 19 20  2  0
 20 21  1  0
  8 22  1  0
 22 23  2  0
 22  4  1  0
 21  7  1  0
 21 11  1  0
 18 13  1  0
  1 24  1  0
  1 25  1  0
  1 26  1  0
  2 27  1  0
  2 28  1  0
  3 29  1  0
  3 30  1  0
  5 31  1  0
  6 32  1  0
 14 33  1  0
 15 34  1  0
 16 35  1  0
 17 36  1  0
 18 37  1  0
 19 38  1  0
M  END
$$$$
