
     RDKit          3D

 41 43  0  0  0  0  0  0  0  0999 V2000
   -4.9173   -3.2813   -0.9631 C   0  0  0  0  0  0  0  0  0  0  0  0
   -3.4164   -2.9591   -0.9434 C   0  0  0  0  0  0  0  0  0  0  0  0
   -2.8011   -3.4397   -2.2679 C   0  0  0  0  0  0  0  0  0  0  0  0
   -3.2314   -1.4305   -0.7343 C   0  0  0  0  0  0  0  0  0  0  0  0
   -1.8490   -1.1208   -0.2446 C   0  0  0  0  0  0  0  0  0  0  0  0
   -1.0666   -2.1223    0.2905 C   0  0  0  0  0  0  0  0  0  0  0  0
    0.4469   -1.5540    0.8066 S   0  0  0  0  0  0  0  0  0  0  0  0
    0.1003    0.0405    0.3114 C   0  0  0  0  0  0  0  0  0  0  0  0
    1.0127    1.0690    0.5094 N   0  0  0  0  0  0  0  0  0  0  0  0
    2.3632    0.9315    0.7555 C   0  0  0  0  0  0  0  0  0  0  0  0
    3.0030   -0.1122    0.6690 O   0  0  0  0  0  0  0  0  0  0  0  0
    2.9911    2.1268    1.0938 N   0  0  0  0  0  0  0  0  0  0  0  0
    4.4469    2.1299    1.2537 C   0  0  0  0  0  0  0  0  0  0  0  0
    5.0151    3.5377    1.0573 C   0  0  0  0  0  0  0  0  0  0  0  0
    4.4611    4.5224    1.9428 O   0  0  0  0  0  0  0  0  0  0  0  0
    3.1810    4.1708    2.4809 C   0  0  0  0  0  0  0  0  0  0  0  0
    2.3162    3.3630    1.5077 C   0  0  0  0  0  0  0  0  0  0  0  0
   -1.1771    0.1414   -0.2126 C   0  0  0  0  0  0  0  0  0  0  0  0
   -1.7395    1.3765   -0.6689 C   0  0  0  0  0  0  0  0  0  0  0  0
   -2.1646    2.3951   -1.0270 N   0  0  0  0  0  0  0  0  0  0  0  0
   -1.4549   -3.5602    0.3900 C   0  0  0  0  0  0  0  0  0  0  0  0
   -2.8745   -3.6864    0.1815 O   0  0  0  0  0  0  0  0  0  0  0  0
   -5.0829   -4.3574   -1.0910 H   0  0  0  0  0  0  0  0  0  0  0  0
   -5.3883   -3.0093   -0.0113 H   0  0  0  0  0  0  0  0  0  0  0  0
   -5.4345   -2.7518   -1.7700 H   0  0  0  0  0  0  0  0  0  0  0  0
   -1.7388   -3.1879   -2.3472 H   0  0  0  0  0  0  0  0  0  0  0  0
   -3.3099   -2.9915   -3.1281 H   0  0  0  0  0  0  0  0  0  0  0  0
   -2.8703   -4.5301   -2.3525 H   0  0  0  0  0  0  0  0  0  0  0  0
   -3.9285   -1.0749    0.0362 H   0  0  0  0  0  0  0  0  0  0  0  0
   -3.4541   -0.8853   -1.6587 H   0  0  0  0  0  0  0  0  0  0  0  0
    0.7267    1.9888    0.2088 H   0  0  0  0  0  0  0  0  0  0  0  0
    4.9051    1.4329    0.5444 H   0  0  0  0  0  0  0  0  0  0  0  0
    4.6560    1.7717    2.2686 H   0  0  0  0  0  0  0  0  0  0  0  0
    4.8243    3.8800    0.0335 H   0  0  0  0  0  0  0  0  0  0  0  0
    6.0997    3.5341    1.2043 H   0  0  0  0  0  0  0  0  0  0  0  0
    3.3499    3.6040    3.4041 H   0  0  0  0  0  0  0  0  0  0  0  0
    2.6721    5.0998    2.7567 H   0  0  0  0  0  0  0  0  0  0  0  0
    1.3519    3.1305    1.9700 H   0  0  0  0  0  0  0  0  0  0  0  0
    2.1393    3.9405    0.5933 H   0  0  0  0  0  0  0  0  0  0  0  0
   -0.9257   -4.1709   -0.3488 H   0  0  0  0  0  0  0  0  0  0  0  0
   -1.2372   -3.9615    1.3849 H   0  0  0  0  0  0  0  0  0  0  0  0
  1  2  1  0
  2  3  1  0
  2  4  1  0
  4  5  1  0
  5  6  2  0
  6  7  1  0
  7  8  1  0
  8  9  1  0
  9 10  1  0
 10 11  2  0
 10 12  1  0
 12 13  1  0
 13 14  1  0
 14 15  1  0
 15 16  1  0
 16 17  1  0
  8 18  2  0
 18 19  1  0
 19 20  3  0
  6 21  1  0
 21 22  1  0
 22  2  1  0
 18  5  1  0
 17 12  1  0
  1 23  1  0
  1 24  1  0
  1 25  1  0
  3 26  1  0
  3 27  1  0
  3 28  1  0
  4 29  1  0
  4 30  1  0
  9 31  1  0
 13 32  1  0
 13 33  1  0
 14 34  1  0
 14 35  1  0
 16 36  1  0
 16 37  1  0
 17 38  1  0
 17 39  1  0
 21 40  1  0
 21 41  1  0
M  END
$$$$
