
     RDKit          3D

 30 31  0  0  0  0  0  0  0  0999 V2000
   -4.2397   -0.5977   -0.4952 C   0  0  0  0  0  0  0  0  0  0  0  0
   -3.4321    0.4206    0.2635 C   0  0  0  0  0  0  0  0  0  0  0  0
   -3.9599    1.3562    0.8599 O   0  0  0  0  0  0  0  0  0  0  0  0
   -1.9613    0.3165    0.2442 C   0  0  0  0  0  0  0  0  0  0  0  0
   -1.2719   -0.8349    0.5910 C   0  0  0  0  0  0  0  0  0  0  0  0
   -1.9463   -2.0822    1.0789 C   0  0  0  0  0  0  0  0  0  0  0  0
    0.0778   -0.8997    0.5314 N   0  0  0  0  0  0  0  0  0  0  0  0
    0.7417    0.2118    0.1575 C   0  0  0  0  0  0  0  0  0  0  0  0
    2.2162    0.1502    0.0887 C   0  0  0  0  0  0  0  0  0  0  0  0
    2.9816    1.2737   -0.2846 C   0  0  0  0  0  0  0  0  0  0  0  0
    4.3789    1.2205   -0.3521 C   0  0  0  0  0  0  0  0  0  0  0  0
    5.0403    0.0362   -0.0456 C   0  0  0  0  0  0  0  0  0  0  0  0
    6.7568   -0.0341   -0.1277 Cl  0  0  0  0  0  0  0  0  0  0  0  0
    4.3174   -1.0920    0.3273 C   0  0  0  0  0  0  0  0  0  0  0  0
    2.9200   -1.0327    0.3931 C   0  0  0  0  0  0  0  0  0  0  0  0
    0.1442    1.3730   -0.1578 N   0  0  0  0  0  0  0  0  0  0  0  0
   -1.1949    1.4265   -0.0953 C   0  0  0  0  0  0  0  0  0  0  0  0
   -1.7702    2.6610   -0.4423 N   0  0  0  0  0  0  0  0  0  0  0  0
   -5.0286   -0.0800   -1.0491 H   0  0  0  0  0  0  0  0  0  0  0  0
   -4.6888   -1.3077    0.2031 H   0  0  0  0  0  0  0  0  0  0  0  0
   -3.6240   -1.1302   -1.2249 H   0  0  0  0  0  0  0  0  0  0  0  0
   -1.2195   -2.7526    1.5508 H   0  0  0  0  0  0  0  0  0  0  0  0
   -2.7064   -1.8482    1.8307 H   0  0  0  0  0  0  0  0  0  0  0  0
   -2.4034   -2.6224    0.2455 H   0  0  0  0  0  0  0  0  0  0  0  0
    2.4845    2.2131   -0.5277 H   0  0  0  0  0  0  0  0  0  0  0  0
    4.9366    2.1066   -0.6432 H   0  0  0  0  0  0  0  0  0  0  0  0
    4.8283   -2.0201    0.5690 H   0  0  0  0  0  0  0  0  0  0  0  0
    2.3759   -1.9289    0.6887 H   0  0  0  0  0  0  0  0  0  0  0  0
   -2.3213    2.5719   -1.2903 H   0  0  0  0  0  0  0  0  0  0  0  0
   -2.4319    2.9255    0.2934 H   0  0  0  0  0  0  0  0  0  0  0  0
  1  2  1  0
  2  3  2  0
  2  4  1  0
  4  5  2  0
  5  6  1  0
  5  7  1  0
  7  8  2  0
  8  9  1  0
  9 10  2  0
 10 11  1  0
 11 12  2  0
 12 13  1  0
 12 14  1  0
 14 15  2  0
  8 16  1  0
 16 17  2  0
 17 18  1  0
 17  4  1  0
 15  9  1  0
  1 19  1  0
  1 20  1  0
  1 21  1  0
  6 22  1  0
  6 23  1  0
  6 24  1  0
 10 25  1  0
 11 26  1  0
 14 27  1  0
 15 28  1  0
 18 29  1  0
 18 30  1  0
M  END
$$$$
