
     RDKit          3D

 43 45  0  0  0  0  0  0  0  0999 V2000
    7.2420    0.3748    1.6249 C   0  0  0  0  0  0  0  0  0  0  0  0
    5.7793    0.0193    1.5726 C   0  0  0  0  0  0  0  0  0  0  0  0
    5.1816   -0.3693    2.5743 O   0  0  0  0  0  0  0  0  0  0  0  0
    5.0471    0.1474    0.2780 C   0  0  0  0  0  0  0  0  0  0  0  0
    5.6560    0.6439   -0.8769 C   0  0  0  0  0  0  0  0  0  0  0  0
    4.9200    0.7450   -2.0573 C   0  0  0  0  0  0  0  0  0  0  0  0
    3.5782    0.3523   -2.0925 C   0  0  0  0  0  0  0  0  0  0  0  0
    2.9555   -0.1489   -0.9490 C   0  0  0  0  0  0  0  0  0  0  0  0
    1.6073   -0.5643   -0.8928 N   0  0  0  0  0  0  0  0  0  0  0  0
    0.6883   -0.6207   -1.9325 C   0  0  0  0  0  0  0  0  0  0  0  0
    0.9524   -0.3456   -3.0991 O   0  0  0  0  0  0  0  0  0  0  0  0
   -0.6466   -1.0538   -1.5133 C   0  0  0  0  0  0  0  0  0  0  0  0
   -1.2522   -1.0122   -0.2684 C   0  0  0  0  0  0  0  0  0  0  0  0
   -2.5803   -1.5436   -0.2873 C   0  0  0  0  0  0  0  0  0  0  0  0
   -3.6170   -1.6168    1.1079 S   0  0  0  0  0  6  0  0  0  0  0  0
   -2.6964   -1.5459    2.2217 O   0  0  0  0  0  0  0  0  0  0  0  0
   -4.4514   -2.7725    0.8668 O   0  0  0  0  0  0  0  0  0  0  0  0
   -4.5819   -0.2433    1.1232 N   0  0  0  0  0  0  0  0  0  0  0  0
   -5.6439   -0.0911    0.1068 C   0  0  0  0  0  0  0  0  0  0  0  0
   -5.5287    1.3555   -0.3583 C   0  0  0  0  0  0  0  0  0  0  0  0
   -4.9734    2.0669    0.8613 C   0  0  0  0  0  0  0  0  0  0  0  0
   -3.9551    1.0658    1.3886 C   0  0  0  0  0  0  0  0  0  0  0  0
   -2.9462   -1.9816   -1.5398 C   0  0  0  0  0  0  0  0  0  0  0  0
   -1.7128   -1.7146   -2.6904 S   0  0  0  0  0  0  0  0  0  0  0  0
    3.6993   -0.2449    0.2346 C   0  0  0  0  0  0  0  0  0  0  0  0
    7.6250    0.1718    2.6299 H   0  0  0  0  0  0  0  0  0  0  0  0
    7.3799    1.4387    1.4160 H   0  0  0  0  0  0  0  0  0  0  0  0
    7.8080   -0.2390    0.9194 H   0  0  0  0  0  0  0  0  0  0  0  0
    6.6946    0.9607   -0.8878 H   0  0  0  0  0  0  0  0  0  0  0  0
    5.3880    1.1321   -2.9601 H   0  0  0  0  0  0  0  0  0  0  0  0
    3.0502    0.4551   -3.0358 H   0  0  0  0  0  0  0  0  0  0  0  0
    1.3013   -0.9171    0.0041 H   0  0  0  0  0  0  0  0  0  0  0  0
   -0.7862   -0.6117    0.6249 H   0  0  0  0  0  0  0  0  0  0  0  0
   -6.6112   -0.2694    0.5889 H   0  0  0  0  0  0  0  0  0  0  0  0
   -5.5445   -0.7796   -0.7353 H   0  0  0  0  0  0  0  0  0  0  0  0
   -6.4862    1.7650   -0.6915 H   0  0  0  0  0  0  0  0  0  0  0  0
   -4.8171    1.4268   -1.1899 H   0  0  0  0  0  0  0  0  0  0  0  0
   -5.7683    2.2269    1.5995 H   0  0  0  0  0  0  0  0  0  0  0  0
   -4.5244    3.0347    0.6219 H   0  0  0  0  0  0  0  0  0  0  0  0
   -3.7734    1.2069    2.4573 H   0  0  0  0  0  0  0  0  0  0  0  0
   -3.0132    1.1680    0.8409 H   0  0  0  0  0  0  0  0  0  0  0  0
   -3.8801   -2.4415   -1.8370 H   0  0  0  0  0  0  0  0  0  0  0  0
    3.2365   -0.6303    1.1416 H   0  0  0  0  0  0  0  0  0  0  0  0
  1  2  1  0
  2  3  2  0
  2  4  1  0
  4  5  2  0
  5  6  1  0
  6  7  2  0
  7  8  1  0
  8  9  1  0
  9 10  1  0
 10 11  2  0
 10 12  1  0
 12 13  2  0
 13 14  1  0
 14 15  1  0
 15 16  2  0
 15 17  2  0
 15 18  1  0
 18 19  1  0
 19 20  1  0
 20 21  1  0
 21 22  1  0
 14 23  2  0
 23 24  1  0
  8 25  2  0
 25  4  1  0
 24 12  1  0
 22 18  1  0
  1 26  1  0
  1 27  1  0
  1 28  1  0
  5 29  1  0
  6 30  1  0
  7 31  1  0
  9 32  1  0
 13 33  1  0
 19 34  1  0
 19 35  1  0
 20 36  1  0
 20 37  1  0
 21 38  1  0
 21 39  1  0
 22 40  1  0
 22 41  1  0
 23 42  1  0
 25 43  1  0
M  END
$$$$
