
     RDKit          3D

 43 45  0  0  0  0  0  0  0  0999 V2000
   -4.8809   -1.4646   -1.7092 C   0  0  0  0  0  0  0  0  0  0  0  0
   -4.8041   -1.2659   -0.1866 C   0  0  0  0  0  0  0  0  0  0  0  0
   -5.9888   -2.0004    0.4567 C   0  0  0  0  0  0  0  0  0  0  0  0
   -3.4816   -1.8232    0.4092 C   0  0  0  0  0  0  0  0  0  0  0  0
   -2.3507   -0.8638    0.1921 C   0  0  0  0  0  0  0  0  0  0  0  0
   -2.6141    0.4503   -0.1330 C   0  0  0  0  0  0  0  0  0  0  0  0
   -1.1981    1.3700   -0.3059 S   0  0  0  0  0  0  0  0  0  0  0  0
   -0.1991    0.0279    0.0267 C   0  0  0  0  0  0  0  0  0  0  0  0
    1.1817    0.1630    0.0710 N   0  0  0  0  0  0  0  0  0  0  0  0
    1.9217    1.1573   -0.5381 C   0  0  0  0  0  0  0  0  0  0  0  0
    1.4954    1.9491   -1.3732 O   0  0  0  0  0  0  0  0  0  0  0  0
    3.2755    1.1458   -0.1532 N   0  0  0  0  0  0  0  0  0  0  0  0
    3.6724    0.8179    1.2209 C   0  0  0  0  0  0  0  0  0  0  0  0
    5.1392    0.4089    1.3105 C   0  0  0  0  0  0  0  0  0  0  0  0
    6.0460    1.4556    0.6725 C   0  0  0  0  0  0  0  0  0  0  0  0
    5.6076    1.7315   -0.7613 C   0  0  0  0  0  0  0  0  0  0  0  0
    4.1340    2.1200   -0.8274 C   0  0  0  0  0  0  0  0  0  0  0  0
   -0.9451   -1.1032    0.3079 C   0  0  0  0  0  0  0  0  0  0  0  0
   -0.3591   -2.3599    0.6652 C   0  0  0  0  0  0  0  0  0  0  0  0
    0.1410   -3.3658    0.9561 N   0  0  0  0  0  0  0  0  0  0  0  0
   -3.9725    1.0292   -0.3511 C   0  0  0  0  0  0  0  0  0  0  0  0
   -4.9655    0.1252    0.1699 O   0  0  0  0  0  0  0  0  0  0  0  0
   -4.0297   -1.0146   -2.2297 H   0  0  0  0  0  0  0  0  0  0  0  0
   -5.7814   -0.9901   -2.1154 H   0  0  0  0  0  0  0  0  0  0  0  0
   -4.9007   -2.5282   -1.9705 H   0  0  0  0  0  0  0  0  0  0  0  0
   -5.9472   -3.0783    0.2688 H   0  0  0  0  0  0  0  0  0  0  0  0
   -6.0085   -1.8372    1.5405 H   0  0  0  0  0  0  0  0  0  0  0  0
   -6.9406   -1.6166    0.0713 H   0  0  0  0  0  0  0  0  0  0  0  0
   -3.2519   -2.8070   -0.0161 H   0  0  0  0  0  0  0  0  0  0  0  0
   -3.5882   -1.9485    1.4950 H   0  0  0  0  0  0  0  0  0  0  0  0
    1.7148   -0.6664    0.2912 H   0  0  0  0  0  0  0  0  0  0  0  0
    3.0535    0.0193    1.6379 H   0  0  0  0  0  0  0  0  0  0  0  0
    3.4857    1.7103    1.8315 H   0  0  0  0  0  0  0  0  0  0  0  0
    5.2805   -0.5510    0.7983 H   0  0  0  0  0  0  0  0  0  0  0  0
    5.4208    0.2610    2.3589 H   0  0  0  0  0  0  0  0  0  0  0  0
    7.0845    1.1071    0.6849 H   0  0  0  0  0  0  0  0  0  0  0  0
    6.0082    2.3834    1.2561 H   0  0  0  0  0  0  0  0  0  0  0  0
    5.7726    0.8311   -1.3664 H   0  0  0  0  0  0  0  0  0  0  0  0
    6.2225    2.5283   -1.1940 H   0  0  0  0  0  0  0  0  0  0  0  0
    3.8367    2.2139   -1.8781 H   0  0  0  0  0  0  0  0  0  0  0  0
    3.9695    3.0947   -0.3512 H   0  0  0  0  0  0  0  0  0  0  0  0
   -4.1674    1.2065   -1.4138 H   0  0  0  0  0  0  0  0  0  0  0  0
   -4.0886    1.9786    0.1811 H   0  0  0  0  0  0  0  0  0  0  0  0
  1  2  1  0
  2  3  1  0
  2  4  1  0
  4  5  1  0
  5  6  2  0
  6  7  1  0
  7  8  1  0
  8  9  1  0
  9 10  1  0
 10 11  2  0
 10 12  1  0
 12 13  1  0
 13 14  1  0
 14 15  1  0
 15 16  1  0
 16 17  1  0
  8 18  2  0
 18 19  1  0
 19 20  3  0
  6 21  1  0
 21 22  1  0
 22  2  1  0
 18  5  1  0
 17 12  1  0
  1 23  1  0
  1 24  1  0
  1 25  1  0
  3 26  1  0
  3 27  1  0
  3 28  1  0
  4 29  1  0
  4 30  1  0
  9 31  1  0
 13 32  1  0
 13 33  1  0
 14 34  1  0
 14 35  1  0
 15 36  1  0
 15 37  1  0
 16 38  1  0
 16 39  1  0
 17 40  1  0
 17 41  1  0
 21 42  1  0
 21 43  1  0
M  END
$$$$
