
     RDKit          3D

 41 43  0  0  0  0  0  0  0  0999 V2000
   -6.1411    0.9084   -2.0841 C   0  0  0  0  0  0  0  0  0  0  0  0
   -5.1671    0.0709   -1.3098 C   0  0  0  0  0  0  0  0  0  0  0  0
   -4.8297   -1.2112   -1.7582 C   0  0  0  0  0  0  0  0  0  0  0  0
   -3.9392   -2.0060   -1.0321 C   0  0  0  0  0  0  0  0  0  0  0  0
   -3.3837   -1.5376    0.1655 C   0  0  0  0  0  0  0  0  0  0  0  0
   -2.4002   -2.3752    0.9402 C   0  0  0  0  0  0  0  0  0  0  0  0
   -1.0430   -2.0072    0.6032 N   0  0  0  0  0  0  0  0  0  0  0  0
   -0.2991   -1.1717    1.4080 C   0  0  0  0  0  0  0  0  0  0  0  0
   -0.6675   -0.7819    2.5102 O   0  0  0  0  0  0  0  0  0  0  0  0
    1.0289   -0.7934    0.7861 C   0  0  0  0  0  0  0  0  0  0  0  0
    1.8372    0.1262    1.6972 C   0  0  0  0  0  0  0  0  0  0  0  0
    3.1556    0.5049    1.0663 C   0  0  0  0  0  0  0  0  0  0  0  0
    4.2960   -0.3067    1.2634 C   0  0  0  0  0  0  0  0  0  0  0  0
    5.5200    0.0165    0.6688 C   0  0  0  0  0  0  0  0  0  0  0  0
    5.5726    1.1478   -0.1153 C   0  0  0  0  0  0  0  0  0  0  0  0
    4.4681    1.9407   -0.3162 C   0  0  0  0  0  0  0  0  0  0  0  0
    3.2477    1.6472    0.2547 C   0  0  0  0  0  0  0  0  0  0  0  0
    4.7326    3.0048   -1.1208 O   0  0  0  0  0  0  0  0  0  0  0  0
    6.1322    2.7928   -1.3986 C   0  0  0  0  0  0  0  0  0  0  0  0
    6.6716    1.6126   -0.7674 O   0  0  0  0  0  0  0  0  0  0  0  0
   -3.7258   -0.2550    0.6145 C   0  0  0  0  0  0  0  0  0  0  0  0
   -4.6163    0.5387   -0.1121 C   0  0  0  0  0  0  0  0  0  0  0  0
   -7.1652    0.5716   -1.8893 H   0  0  0  0  0  0  0  0  0  0  0  0
   -6.0605    1.9657   -1.8081 H   0  0  0  0  0  0  0  0  0  0  0  0
   -5.9377    0.8377   -3.1595 H   0  0  0  0  0  0  0  0  0  0  0  0
   -5.2579   -1.5981   -2.6805 H   0  0  0  0  0  0  0  0  0  0  0  0
   -3.6872   -2.9954   -1.4066 H   0  0  0  0  0  0  0  0  0  0  0  0
   -2.5207   -3.4347    0.6880 H   0  0  0  0  0  0  0  0  0  0  0  0
   -2.5784   -2.2765    2.0167 H   0  0  0  0  0  0  0  0  0  0  0  0
   -0.7624   -2.1205   -0.3610 H   0  0  0  0  0  0  0  0  0  0  0  0
    1.5881   -1.7144    0.5811 H   0  0  0  0  0  0  0  0  0  0  0  0
    0.8307   -0.2985   -0.1724 H   0  0  0  0  0  0  0  0  0  0  0  0
    1.2671    1.0364    1.9255 H   0  0  0  0  0  0  0  0  0  0  0  0
    2.0211   -0.3582    2.6649 H   0  0  0  0  0  0  0  0  0  0  0  0
    4.2302   -1.1958    1.8881 H   0  0  0  0  0  0  0  0  0  0  0  0
    6.3990   -0.5996    0.8205 H   0  0  0  0  0  0  0  0  0  0  0  0
    2.3910    2.2894    0.0767 H   0  0  0  0  0  0  0  0  0  0  0  0
    6.6954    3.6659   -1.0488 H   0  0  0  0  0  0  0  0  0  0  0  0
    6.2642    2.7003   -2.4831 H   0  0  0  0  0  0  0  0  0  0  0  0
   -3.2958    0.1320    1.5376 H   0  0  0  0  0  0  0  0  0  0  0  0
   -4.8709    1.5272    0.2631 H   0  0  0  0  0  0  0  0  0  0  0  0
  1  2  1  0
  2  3  2  0
  3  4  1  0
  4  5  2  0
  5  6  1  0
  6  7  1  0
  7  8  1  0
  8  9  2  0
  8 10  1  0
 10 11  1  0
 11 12  1  0
 12 13  2  0
 13 14  1  0
 14 15  2  0
 15 16  1  0
 16 17  2  0
 16 18  1  0
 18 19  1  0
 19 20  1  0
  5 21  1  0
 21 22  2  0
 22  2  1  0
 17 12  1  0
 20 15  1  0
  1 23  1  0
  1 24  1  0
  1 25  1  0
  3 26  1  0
  4 27  1  0
  6 28  1  0
  6 29  1  0
  7 30  1  0
 10 31  1  0
 10 32  1  0
 11 33  1  0
 11 34  1  0
 13 35  1  0
 14 36  1  0
 17 37  1  0
 19 38  1  0
 19 39  1  0
 21 40  1  0
 22 41  1  0
M  END
$$$$
