
     RDKit          3D

 49 52  0  0  0  0  0  0  0  0999 V2000
    5.5420   -2.1963    0.8410 C   0  0  0  0  0  0  0  0  0  0  0  0
    5.0386   -2.2054   -0.4887 O   0  0  0  0  0  0  0  0  0  0  0  0
    4.3410   -1.1065   -0.9153 C   0  0  0  0  0  0  0  0  0  0  0  0
    3.9498   -0.0517   -0.0854 C   0  0  0  0  0  0  0  0  0  0  0  0
    3.2189    1.0217   -0.6136 C   0  0  0  0  0  0  0  0  0  0  0  0
    2.7589    2.3727    0.4500 S   0  0  0  0  0  6  0  0  0  0  0  0
    3.6713    2.3595    1.5743 O   0  0  0  0  0  0  0  0  0  0  0  0
    2.6236    3.5480   -0.3838 O   0  0  0  0  0  0  0  0  0  0  0  0
    1.2295    1.9400    1.0090 N   0  0  0  0  0  0  0  0  0  0  0  0
    0.0563    2.0715    0.1096 C   0  0  0  0  0  0  0  0  0  0  0  0
   -0.4608    0.7064   -0.3810 C   0  0  0  0  0  0  0  0  0  0  0  0
   -0.6900   -0.2989    0.6776 N   0  0  0  0  0  0  0  0  0  0  0  0
   -1.8535    0.0133    1.5251 C   0  0  0  0  0  0  0  0  0  0  0  0
   -3.1724   -0.0736    0.7838 C   0  0  0  0  0  0  0  0  0  0  0  0
   -4.0442    1.0400    0.7438 C   0  0  0  0  0  0  0  0  0  0  0  0
   -5.2683    0.9720    0.0703 C   0  0  0  0  0  0  0  0  0  0  0  0
   -5.5955   -0.2150   -0.5475 C   0  0  0  0  0  0  0  0  0  0  0  0
   -4.7591   -1.3050   -0.5116 C   0  0  0  0  0  0  0  0  0  0  0  0
   -3.5470   -1.2685    0.1440 C   0  0  0  0  0  0  0  0  0  0  0  0
   -5.2694   -2.3731   -1.1807 O   0  0  0  0  0  0  0  0  0  0  0  0
   -6.5228   -1.8294   -1.6431 C   0  0  0  0  0  0  0  0  0  0  0  0
   -6.7376   -0.4595   -1.2440 O   0  0  0  0  0  0  0  0  0  0  0  0
    0.5402   -0.4293    1.4836 C   0  0  0  0  0  0  0  0  0  0  0  0
    1.0979    0.8911    2.0489 C   0  0  0  0  0  0  0  0  0  0  0  0
    2.9133    1.0812   -1.9749 C   0  0  0  0  0  0  0  0  0  0  0  0
    3.2952    0.0302   -2.8059 C   0  0  0  0  0  0  0  0  0  0  0  0
    3.9971   -1.0595   -2.2777 C   0  0  0  0  0  0  0  0  0  0  0  0
    4.4800   -2.4575   -3.4722 Br  0  0  0  0  0  0  0  0  0  0  0  0
    4.7247   -2.2165    1.5691 H   0  0  0  0  0  0  0  0  0  0  0  0
    6.2029   -1.3396    1.0098 H   0  0  0  0  0  0  0  0  0  0  0  0
    6.1340   -3.1060    0.9803 H   0  0  0  0  0  0  0  0  0  0  0  0
    4.1985   -0.0427    0.9712 H   0  0  0  0  0  0  0  0  0  0  0  0
   -0.7294    2.6012    0.6608 H   0  0  0  0  0  0  0  0  0  0  0  0
    0.2893    2.6981   -0.7571 H   0  0  0  0  0  0  0  0  0  0  0  0
    0.2697    0.2819   -1.0798 H   0  0  0  0  0  0  0  0  0  0  0  0
   -1.3652    0.8561   -0.9818 H   0  0  0  0  0  0  0  0  0  0  0  0
   -1.9153   -0.7148    2.3452 H   0  0  0  0  0  0  0  0  0  0  0  0
   -1.7558    0.9960    2.0012 H   0  0  0  0  0  0  0  0  0  0  0  0
   -3.7697    1.9687    1.2402 H   0  0  0  0  0  0  0  0  0  0  0  0
   -5.9400    1.8222    0.0350 H   0  0  0  0  0  0  0  0  0  0  0  0
   -2.8985   -2.1387    0.1552 H   0  0  0  0  0  0  0  0  0  0  0  0
   -6.5456   -1.8830   -2.7377 H   0  0  0  0  0  0  0  0  0  0  0  0
   -7.3393   -2.4424   -1.2444 H   0  0  0  0  0  0  0  0  0  0  0  0
    0.3784   -1.1380    2.3053 H   0  0  0  0  0  0  0  0  0  0  0  0
    1.3033   -0.8961    0.8497 H   0  0  0  0  0  0  0  0  0  0  0  0
    2.0569    0.6937    2.5382 H   0  0  0  0  0  0  0  0  0  0  0  0
    0.4353    1.2789    2.8315 H   0  0  0  0  0  0  0  0  0  0  0  0
    2.3835    1.9345   -2.3929 H   0  0  0  0  0  0  0  0  0  0  0  0
    3.0495    0.0683   -3.8647 H   0  0  0  0  0  0  0  0  0  0  0  0
  1  2  1  0
  2  3  1  0
  3  4  2  0
  4  5  1  0
  5  6  1  0
  6  7  2  0
  6  8  2  0
  6  9  1  0
  9 10  1  0
 10 11  1  0
 11 12  1  0
 12 13  1  0
 13 14  1  0
 14 15  2  0
 15 16  1  0
 16 17  2  0
 17 18  1  0
 18 19  2  0
 18 20  1  0
 20 21  1  0
 21 22  1  0
 12 23  1  0
 23 24  1  0
  5 25  2  0
 25 26  1  0
 26 27  2  0
 27 28  1  0
 27  3  1  0
 24  9  1  0
 19 14  1  0
 22 17  1  0
  1 29  1  0
  1 30  1  0
  1 31  1  0
  4 32  1  0
 10 33  1  0
 10 34  1  0
 11 35  1  0
 11 36  1  0
 13 37  1  0
 13 38  1  0
 15 39  1  0
 16 40  1  0
 19 41  1  0
 21 42  1  0
 21 43  1  0
 23 44  1  0
 23 45  1  0
 24 46  1  0
 24 47  1  0
 25 48  1  0
 26 49  1  0
M  END
$$$$
