
     RDKit          3D

 47 49  0  0  0  0  0  0  0  0999 V2000
    6.6734    1.3637    0.5490 C   0  0  0  0  0  0  0  0  0  0  0  0
    5.6202    0.8007    1.4905 C   0  0  0  0  0  0  0  0  0  0  0  0
    4.2898    1.2223    1.0923 N   0  0  0  0  0  0  0  0  0  0  0  0
    3.6010    0.3534    0.2561 C   0  0  0  0  0  0  0  0  0  0  0  0
    4.2541   -0.3965   -0.6368 N   0  0  0  0  0  0  0  0  0  0  0  0
    3.5153   -1.1986   -1.4211 C   0  0  0  0  0  0  0  0  0  0  0  0
    4.2382   -2.0142   -2.4488 C   0  0  0  0  0  0  0  0  0  0  0  0
    2.1434   -1.2752   -1.3082 C   0  0  0  0  0  0  0  0  0  0  0  0
    1.5380   -0.4910   -0.3441 C   0  0  0  0  0  0  0  0  0  0  0  0
    0.1494   -0.5065   -0.1860 N   0  0  0  0  0  0  0  0  0  0  0  0
   -0.3975    0.4950    0.7446 C   0  0  0  0  0  0  0  0  0  0  0  0
   -1.9344    0.5481    0.6302 C   0  0  0  0  0  0  0  0  0  0  0  0
   -2.5781   -0.7728    0.7273 N   0  0  0  0  0  0  0  0  0  0  0  0
   -3.9060   -1.0082    0.3873 C   0  0  0  0  0  0  0  0  0  0  0  0
   -4.3693   -2.1245    0.1701 O   0  0  0  0  0  0  0  0  0  0  0  0
   -4.8211    0.1474    0.2642 C   0  0  0  0  0  0  0  0  0  0  0  0
   -5.0797    0.9725    1.3642 C   0  0  0  0  0  0  0  0  0  0  0  0
   -5.9664    2.0433    1.2308 C   0  0  0  0  0  0  0  0  0  0  0  0
   -6.5980    2.2723    0.0071 C   0  0  0  0  0  0  0  0  0  0  0  0
   -7.6893    3.5926   -0.1538 Cl  0  0  0  0  0  0  0  0  0  0  0  0
   -6.3588    1.4358   -1.0841 C   0  0  0  0  0  0  0  0  0  0  0  0
   -5.4732    0.3639   -0.9543 C   0  0  0  0  0  0  0  0  0  0  0  0
   -1.6639   -1.9122    0.8252 C   0  0  0  0  0  0  0  0  0  0  0  0
   -0.5211   -1.8251   -0.2045 C   0  0  0  0  0  0  0  0  0  0  0  0
    2.2735    0.3284    0.4286 N   0  0  0  0  0  0  0  0  0  0  0  0
    6.6093    2.4560    0.4993 H   0  0  0  0  0  0  0  0  0  0  0  0
    6.5583    0.9772   -0.4681 H   0  0  0  0  0  0  0  0  0  0  0  0
    7.6753    1.0971    0.8998 H   0  0  0  0  0  0  0  0  0  0  0  0
    5.8145    1.2000    2.4930 H   0  0  0  0  0  0  0  0  0  0  0  0
    5.7079   -0.2898    1.5733 H   0  0  0  0  0  0  0  0  0  0  0  0
    3.6508    1.4207    1.8538 H   0  0  0  0  0  0  0  0  0  0  0  0
    3.9015   -1.7414   -3.4538 H   0  0  0  0  0  0  0  0  0  0  0  0
    4.0537   -3.0804   -2.2845 H   0  0  0  0  0  0  0  0  0  0  0  0
    5.3183   -1.8435   -2.3933 H   0  0  0  0  0  0  0  0  0  0  0  0
    1.5672   -1.9082   -1.9696 H   0  0  0  0  0  0  0  0  0  0  0  0
   -0.0097    1.4961    0.5182 H   0  0  0  0  0  0  0  0  0  0  0  0
   -0.1129    0.2452    1.7751 H   0  0  0  0  0  0  0  0  0  0  0  0
   -2.3344    1.1923    1.4188 H   0  0  0  0  0  0  0  0  0  0  0  0
   -2.2138    0.9816   -0.3377 H   0  0  0  0  0  0  0  0  0  0  0  0
   -4.6067    0.7756    2.3229 H   0  0  0  0  0  0  0  0  0  0  0  0
   -6.1684    2.6873    2.0828 H   0  0  0  0  0  0  0  0  0  0  0  0
   -6.8626    1.6076   -2.0318 H   0  0  0  0  0  0  0  0  0  0  0  0
   -5.2944   -0.3023   -1.7954 H   0  0  0  0  0  0  0  0  0  0  0  0
   -1.2515   -1.8983    1.8416 H   0  0  0  0  0  0  0  0  0  0  0  0
   -2.1942   -2.8627    0.7096 H   0  0  0  0  0  0  0  0  0  0  0  0
    0.1805   -2.6414    0.0075 H   0  0  0  0  0  0  0  0  0  0  0  0
   -0.9283   -1.9833   -1.2103 H   0  0  0  0  0  0  0  0  0  0  0  0
  1  2  1  0
  2  3  1  0
  3  4  1  0
  4  5  2  0
  5  6  1  0
  6  7  1  0
  6  8  2  0
  8  9  1  0
  9 10  1  0
 10 11  1  0
 11 12  1  0
 12 13  1  0
 13 14  1  0
 14 15  2  0
 14 16  1  0
 16 17  2  0
 17 18  1  0
 18 19  2  0
 19 20  1  0
 19 21  1  0
 21 22  2  0
 13 23  1  0
 23 24  1  0
  9 25  2  0
 25  4  1  0
 24 10  1  0
 22 16  1  0
  1 26  1  0
  1 27  1  0
  1 28  1  0
  2 29  1  0
  2 30  1  0
  3 31  1  0
  7 32  1  0
  7 33  1  0
  7 34  1  0
  8 35  1  0
 11 36  1  0
 11 37  1  0
 12 38  1  0
 12 39  1  0
 17 40  1  0
 18 41  1  0
 21 42  1  0
 22 43  1  0
 23 44  1  0
 23 45  1  0
 24 46  1  0
 24 47  1  0
M  END
$$$$
