
     RDKit          3D

 54 54  0  0  0  0  0  0  0  0999 V2000
   -4.1002    1.8113    1.0711 C   0  0  0  0  0  0  0  0  0  0  0  0
   -5.0149    0.7038    0.6113 C   0  0  0  0  0  0  0  0  0  0  0  0
   -6.3661    0.7597    0.8888 C   0  0  0  0  0  0  0  0  0  0  0  0
   -7.2280   -0.2586    0.4693 C   0  0  0  0  0  0  0  0  0  0  0  0
   -6.6438   -1.2987   -0.2261 C   0  0  0  0  0  0  0  0  0  0  0  0
   -5.2946   -1.3569   -0.5044 C   0  0  0  0  0  0  0  0  0  0  0  0
   -4.4663   -0.3506   -0.0853 C   0  0  0  0  0  0  0  0  0  0  0  0
   -3.0996   -0.3399   -0.3270 O   0  0  0  0  0  0  0  0  0  0  0  0
   -2.4609   -1.3986   -1.0435 C   0  0  0  0  0  0  0  0  0  0  0  0
   -0.9918   -1.0251   -1.0865 C   0  0  0  0  0  0  0  0  0  0  0  0
   -0.8923    0.1929   -1.7435 O   0  0  0  0  0  0  0  0  0  0  0  0
   -0.5641   -0.9180    0.3620 C   0  0  0  0  0  0  0  0  0  0  0  0
    0.7562   -0.5052    0.5892 N   0  0  0  0  0  0  0  0  0  0  0  0
    1.1276    0.8211    0.2708 C   0  0  0  0  0  0  0  0  0  0  0  0
    2.3597    1.2213    1.0627 C   0  0  0  0  0  0  0  0  0  0  0  0
    3.3862    0.2129    0.7944 N   0  0  0  0  0  0  0  0  0  0  0  0
    4.5959    0.4655    0.1179 C   0  0  0  0  0  0  0  0  0  0  0  0
    4.7698    1.6103   -0.6309 C   0  0  0  0  0  0  0  0  0  0  0  0
    5.9611    1.8962   -1.3046 C   0  0  0  0  0  0  0  0  0  0  0  0
    7.0292    1.0346   -1.2498 C   0  0  0  0  0  0  0  0  0  0  0  0
    8.2055    1.2623   -1.8805 F   0  0  0  0  0  0  0  0  0  0  0  0
    6.8686   -0.1086   -0.5075 C   0  0  0  0  0  0  0  0  0  0  0  0
    5.6729   -0.3934    0.1677 C   0  0  0  0  0  0  0  0  0  0  0  0
    3.0094   -1.1172    1.2960 C   0  0  0  0  0  0  0  0  0  0  0  0
    1.7631   -1.4958    0.5075 C   0  0  0  0  0  0  0  0  0  0  0  0
    0.6830    0.0000    0.0000 Cl  0  0  0  0  0  0  0  0  0  0  0  0
    0.6834    0.0000    0.0000 Cl  0  0  0  0  0  0  0  0  0  0  0  0
   -4.1748    1.9583    2.1694 H   0  0  0  0  0  0  0  0  0  0  0  0
   -4.4232    2.7165    0.5249 H   0  0  0  0  0  0  0  0  0  0  0  0
   -3.0561    1.5617    0.8285 H   0  0  0  0  0  0  0  0  0  0  0  0
   -6.7799    1.5914    1.4351 H   0  0  0  0  0  0  0  0  0  0  0  0
   -8.2861   -0.1996    0.6964 H   0  0  0  0  0  0  0  0  0  0  0  0
   -7.3163   -2.1004   -0.5586 H   0  0  0  0  0  0  0  0  0  0  0  0
   -4.8471   -2.1790   -1.0503 H   0  0  0  0  0  0  0  0  0  0  0  0
   -2.5645   -2.3684   -0.5067 H   0  0  0  0  0  0  0  0  0  0  0  0
   -2.9046   -1.4543   -2.0601 H   0  0  0  0  0  0  0  0  0  0  0  0
   -0.3933   -1.7816   -1.6381 H   0  0  0  0  0  0  0  0  0  0  0  0
   -1.3742    0.9174   -1.3155 H   0  0  0  0  0  0  0  0  0  0  0  0
   -1.2685   -0.1536    0.8054 H   0  0  0  0  0  0  0  0  0  0  0  0
   -0.7388   -1.8971    0.8319 H   0  0  0  0  0  0  0  0  0  0  0  0
    1.3128    1.0405   -0.7937 H   0  0  0  0  0  0  0  0  0  0  0  0
    0.3184    1.5092    0.6045 H   0  0  0  0  0  0  0  0  0  0  0  0
    2.1350    1.2291    2.1663 H   0  0  0  0  0  0  0  0  0  0  0  0
    2.6884    2.2049    0.7766 H   0  0  0  0  0  0  0  0  0  0  0  0
    3.9632    2.3224   -0.7164 H   0  0  0  0  0  0  0  0  0  0  0  0
    6.0675    2.8030   -1.8838 H   0  0  0  0  0  0  0  0  0  0  0  0
    7.6911   -0.8011   -0.4469 H   0  0  0  0  0  0  0  0  0  0  0  0
    5.5993   -1.3029    0.7416 H   0  0  0  0  0  0  0  0  0  0  0  0
    2.7499   -0.9903    2.3691 H   0  0  0  0  0  0  0  0  0  0  0  0
    3.7762   -1.8670    1.1840 H   0  0  0  0  0  0  0  0  0  0  0  0
    2.0722   -1.7591   -0.5209 H   0  0  0  0  0  0  0  0  0  0  0  0
    1.3706   -2.4254    1.0034 H   0  0  0  0  0  0  0  0  0  0  0  0
   -0.6830    0.0000    0.0000 H   0  0  0  0  0  0  0  0  0  0  0  0
   -0.6834    0.0000    0.0000 H   0  0  0  0  0  0  0  0  0  0  0  0
  1  2  1  0
  2  3  2  0
  3  4  1  0
  4  5  2  0
  5  6  1  0
  6  7  2  0
  7  8  1  0
  8  9  1  0
  9 10  1  0
 10 11  1  0
 10 12  1  0
 12 13  1  0
 13 14  1  0
 14 15  1  0
 15 16  1  0
 16 17  1  0
 17 18  2  0
 18 19  1  0
 19 20  2  0
 20 21  1  0
 20 22  1  0
 22 23  2  0
 16 24  1  0
 24 25  1  0
  7  2  1  0
 25 13  1  0
 23 17  1  0
  1 28  1  0
  1 29  1  0
  1 30  1  0
  3 31  1  0
  4 32  1  0
  5 33  1  0
  6 34  1  0
  9 35  1  0
  9 36  1  0
 10 37  1  0
 11 38  1  0
 12 39  1  0
 12 40  1  0
 14 41  1  0
 14 42  1  0
 15 43  1  0
 15 44  1  0
 18 45  1  0
 19 46  1  0
 22 47  1  0
 23 48  1  0
 24 49  1  0
 24 50  1  0
 25 51  1  0
 25 52  1  0
 26 53  1  0
 27 54  1  0
M  END
$$$$
