
     RDKit          3D

 35 37  0  0  0  0  0  0  0  0999 V2000
   -1.8731    1.4829   -2.3398 O   0  0  0  0  0  0  0  0  0  0  0  0
   -1.8181    0.3024   -1.5133 S   0  0  0  0  0  6  0  0  0  0  0  0
   -2.0830   -1.0147   -2.0359 O   0  0  0  0  0  0  0  0  0  0  0  0
   -0.3233    0.3072   -0.7655 N   0  0  0  0  0  0  0  0  0  0  0  0
    0.7733   -0.1362   -1.6403 C   0  0  0  0  0  0  0  0  0  0  0  0
    2.1000   -0.0164   -0.9272 C   0  0  0  0  0  0  0  0  0  0  0  0
    3.0020    1.0219   -1.2566 C   0  0  0  0  0  0  0  0  0  0  0  0
    4.2242    1.1509   -0.5885 C   0  0  0  0  0  0  0  0  0  0  0  0
    4.5135    0.2380    0.4019 C   0  0  0  0  0  0  0  0  0  0  0  0
    3.6403   -0.7697    0.7354 C   0  0  0  0  0  0  0  0  0  0  0  0
    2.4290   -0.9228    0.0953 C   0  0  0  0  0  0  0  0  0  0  0  0
    4.1134   -1.5554    1.7394 O   0  0  0  0  0  0  0  0  0  0  0  0
    5.3873   -0.9288    1.9962 C   0  0  0  0  0  0  0  0  0  0  0  0
    5.6469    0.2127    1.1528 O   0  0  0  0  0  0  0  0  0  0  0  0
   -2.7706    0.5537   -0.1586 N   0  0  0  0  0  0  0  0  0  0  0  0
   -2.7627   -0.5103    0.8826 C   0  0  0  0  0  0  0  0  0  0  0  0
   -4.2269   -0.8505    1.1257 C   0  0  0  0  0  0  0  0  0  0  0  0
   -4.9400    0.4433    0.7909 C   0  0  0  0  0  0  0  0  0  0  0  0
   -4.1829    0.9157   -0.4399 C   0  0  0  0  0  0  0  0  0  0  0  0
   -0.1560    1.2509   -0.4172 H   0  0  0  0  0  0  0  0  0  0  0  0
    0.6266   -1.1813   -1.9359 H   0  0  0  0  0  0  0  0  0  0  0  0
    0.7942    0.4710   -2.5529 H   0  0  0  0  0  0  0  0  0  0  0  0
    2.7526    1.7364   -2.0394 H   0  0  0  0  0  0  0  0  0  0  0  0
    4.9215    1.9427   -0.8382 H   0  0  0  0  0  0  0  0  0  0  0  0
    1.7503   -1.7198    0.3818 H   0  0  0  0  0  0  0  0  0  0  0  0
    5.4134   -0.6041    3.0428 H   0  0  0  0  0  0  0  0  0  0  0  0
    6.1802   -1.6689    1.8382 H   0  0  0  0  0  0  0  0  0  0  0  0
   -2.3057   -0.0937    1.7871 H   0  0  0  0  0  0  0  0  0  0  0  0
   -2.1973   -1.4012    0.5951 H   0  0  0  0  0  0  0  0  0  0  0  0
   -4.5470   -1.6444    0.4401 H   0  0  0  0  0  0  0  0  0  0  0  0
   -4.4132   -1.1877    2.1491 H   0  0  0  0  0  0  0  0  0  0  0  0
   -6.0073    0.3039    0.5988 H   0  0  0  0  0  0  0  0  0  0  0  0
   -4.8255    1.1628    1.6105 H   0  0  0  0  0  0  0  0  0  0  0  0
   -4.2854    1.9947   -0.5840 H   0  0  0  0  0  0  0  0  0  0  0  0
   -4.5507    0.3932   -1.3304 H   0  0  0  0  0  0  0  0  0  0  0  0
  1  2  2  0
  2  3  2  0
  2  4  1  0
  4  5  1  0
  5  6  1  0
  6  7  2  0
  7  8  1  0
  8  9  2  0
  9 10  1  0
 10 11  2  0
 10 12  1  0
 12 13  1  0
 13 14  1  0
  2 15  1  0
 15 16  1  0
 16 17  1  0
 17 18  1  0
 18 19  1  0
 11  6  1  0
 19 15  1  0
 14  9  1  0
  4 20  1  0
  5 21  1  0
  5 22  1  0
  7 23  1  0
  8 24  1  0
 11 25  1  0
 13 26  1  0
 13 27  1  0
 16 28  1  0
 16 29  1  0
 17 30  1  0
 17 31  1  0
 18 32  1  0
 18 33  1  0
 19 34  1  0
 19 35  1  0
M  END
$$$$
