
     RDKit          3D

 44 46  0  0  0  0  0  0  0  0999 V2000
   -1.4365   -1.4176    0.7706 O   0  0  0  0  0  0  0  0  0  0  0  0
   -1.5814   -0.2278    1.0352 C   0  0  0  0  0  0  0  0  0  0  0  0
   -2.6254    0.2467    1.7905 N   0  0  0  0  0  0  0  0  0  0  0  0
   -3.7354   -0.6028    2.1747 C   0  0  0  0  0  0  0  0  0  0  0  0
   -4.8534   -0.5345    1.1607 C   0  0  0  0  0  0  0  0  0  0  0  0
   -4.8794   -1.4172    0.0827 C   0  0  0  0  0  0  0  0  0  0  0  0
   -5.9027   -1.3053   -0.8538 C   0  0  0  0  0  0  0  0  0  0  0  0
   -6.8627   -0.3130   -0.6974 C   0  0  0  0  0  0  0  0  0  0  0  0
   -6.7565    0.5341    0.3926 C   0  0  0  0  0  0  0  0  0  0  0  0
   -5.7752    0.4519    1.3181 N   0  0  0  0  0  0  0  0  0  0  0  0
   -0.5948    0.7608    0.5191 C   0  0  0  0  0  0  0  0  0  0  0  0
    0.3951    0.3048   -0.3664 C   0  0  0  0  0  0  0  0  0  0  0  0
    1.3635    1.1922   -0.8489 C   0  0  0  0  0  0  0  0  0  0  0  0
    2.5973    0.6115   -1.9916 S   0  0  0  0  0  6  0  0  0  0  0  0
    3.0380    1.7626   -2.7549 O   0  0  0  0  0  0  0  0  0  0  0  0
    2.0620   -0.5582   -2.6572 O   0  0  0  0  0  0  0  0  0  0  0  0
    3.9509    0.1030   -0.9668 C   0  0  0  0  0  0  0  0  0  0  0  0
    3.6406   -1.1039   -0.0784 C   0  0  0  0  0  0  0  0  0  0  0  0
    4.9698   -1.5324    0.5297 C   0  0  0  0  0  0  0  0  0  0  0  0
    6.1927   -1.2205   -0.7327 S   0  0  0  0  0  6  0  0  0  0  0  0
    6.5532   -2.4729   -1.3590 O   0  0  0  0  0  0  0  0  0  0  0  0
    7.1752   -0.3051   -0.1922 O   0  0  0  0  0  0  0  0  0  0  0  0
    5.1337   -0.3116   -1.8330 C   0  0  0  0  0  0  0  0  0  0  0  0
    1.3389    2.5420   -0.4880 C   0  0  0  0  0  0  0  0  0  0  0  0
    0.3507    2.9974    0.3844 C   0  0  0  0  0  0  0  0  0  0  0  0
   -0.6040    2.1101    0.8838 C   0  0  0  0  0  0  0  0  0  0  0  0
   -1.5320    2.5970    1.7212 F   0  0  0  0  0  0  0  0  0  0  0  0
   -2.7872    1.2456    1.8578 H   0  0  0  0  0  0  0  0  0  0  0  0
   -4.0984   -0.2404    3.1428 H   0  0  0  0  0  0  0  0  0  0  0  0
   -3.3996   -1.6366    2.3119 H   0  0  0  0  0  0  0  0  0  0  0  0
   -4.1082   -2.1738   -0.0321 H   0  0  0  0  0  0  0  0  0  0  0  0
   -5.9450   -1.9836   -1.7013 H   0  0  0  0  0  0  0  0  0  0  0  0
   -7.6715   -0.1998   -1.4103 H   0  0  0  0  0  0  0  0  0  0  0  0
   -7.4807    1.3272    0.5557 H   0  0  0  0  0  0  0  0  0  0  0  0
    0.4005   -0.7395   -0.6792 H   0  0  0  0  0  0  0  0  0  0  0  0
    4.2322    0.9635   -0.3468 H   0  0  0  0  0  0  0  0  0  0  0  0
    2.9127   -0.8715    0.7046 H   0  0  0  0  0  0  0  0  0  0  0  0
    3.2276   -1.9268   -0.6744 H   0  0  0  0  0  0  0  0  0  0  0  0
    4.9811   -2.5889    0.8057 H   0  0  0  0  0  0  0  0  0  0  0  0
    5.2199   -0.9162    1.3984 H   0  0  0  0  0  0  0  0  0  0  0  0
    5.6766    0.5431   -2.2434 H   0  0  0  0  0  0  0  0  0  0  0  0
    4.8399   -0.9826   -2.6460 H   0  0  0  0  0  0  0  0  0  0  0  0
    2.0673    3.2451   -0.8885 H   0  0  0  0  0  0  0  0  0  0  0  0
    0.3104    4.0440    0.6753 H   0  0  0  0  0  0  0  0  0  0  0  0
  1  2  2  0
  2  3  1  0
  3  4  1  0
  4  5  1  0
  5  6  2  0
  6  7  1  0
  7  8  2  0
  8  9  1  0
  9 10  2  0
  2 11  1  0
 11 12  2  0
 12 13  1  0
 13 14  1  0
 14 15  2  0
 14 16  2  0
 14 17  1  0
 17 18  1  0
 18 19  1  0
 19 20  1  0
 20 21  2  0
 20 22  2  0
 20 23  1  0
 13 24  2  0
 24 25  1  0
 25 26  2  0
 26 27  1  0
 10  5  1  0
 26 11  1  0
 23 17  1  0
  3 28  1  0
  4 29  1  0
  4 30  1  0
  6 31  1  0
  7 32  1  0
  8 33  1  0
  9 34  1  0
 12 35  1  0
 17 36  1  0
 18 37  1  0
 18 38  1  0
 19 39  1  0
 19 40  1  0
 23 41  1  0
 23 42  1  0
 24 43  1  0
 25 44  1  0
M  END
$$$$
