
     RDKit          3D

 35 37  0  0  0  0  0  0  0  0999 V2000
    4.6499   -0.4021    1.6410 N   0  0  0  0  0  0  0  0  0  0  0  0
    4.2143   -0.9245    0.4547 C   0  0  0  0  0  0  0  0  0  0  0  0
    4.7786   -1.8830   -0.0561 O   0  0  0  0  0  0  0  0  0  0  0  0
    3.0557   -0.2631   -0.2010 C   0  0  0  0  0  0  0  0  0  0  0  0
    2.8966   -0.4173   -1.5849 C   0  0  0  0  0  0  0  0  0  0  0  0
    1.8318    0.1974   -2.2475 C   0  0  0  0  0  0  0  0  0  0  0  0
    0.9075    0.9539   -1.5283 C   0  0  0  0  0  0  0  0  0  0  0  0
    1.0386    1.0687   -0.1410 C   0  0  0  0  0  0  0  0  0  0  0  0
   -0.1327    2.0525    0.7821 S   0  0  0  0  0  6  0  0  0  0  0  0
    0.5026    2.3731    2.0466 O   0  0  0  0  0  0  0  0  0  0  0  0
   -0.5813    3.1124   -0.0966 O   0  0  0  0  0  0  0  0  0  0  0  0
   -1.4018    0.9793    1.1051 N   0  0  0  0  0  0  0  0  0  0  0  0
   -1.1413   -0.1143    2.0900 C   0  0  0  0  0  0  0  0  0  0  0  0
   -2.0356   -1.2973    1.6807 C   0  0  0  0  0  0  0  0  0  0  0  0
   -2.5561   -0.8759    0.3459 C   0  0  0  0  0  0  0  0  0  0  0  0
   -3.3581   -1.6121   -0.5135 C   0  0  0  0  0  0  0  0  0  0  0  0
   -3.8105   -1.0011   -1.6837 C   0  0  0  0  0  0  0  0  0  0  0  0
   -3.4800    0.3327   -1.9624 C   0  0  0  0  0  0  0  0  0  0  0  0
   -2.6759    1.0650   -1.0839 C   0  0  0  0  0  0  0  0  0  0  0  0
   -2.1852    0.4326    0.0450 C   0  0  0  0  0  0  0  0  0  0  0  0
    2.1210    0.4813    0.5260 C   0  0  0  0  0  0  0  0  0  0  0  0
    5.5179   -0.7859    1.9947 H   0  0  0  0  0  0  0  0  0  0  0  0
    4.4141    0.5358    1.9347 H   0  0  0  0  0  0  0  0  0  0  0  0
    3.6135   -1.0083   -2.1533 H   0  0  0  0  0  0  0  0  0  0  0  0
    1.7280    0.0890   -3.3249 H   0  0  0  0  0  0  0  0  0  0  0  0
    0.0929    1.4457   -2.0548 H   0  0  0  0  0  0  0  0  0  0  0  0
   -0.0945   -0.4316    2.0765 H   0  0  0  0  0  0  0  0  0  0  0  0
   -1.3821    0.2272    3.1020 H   0  0  0  0  0  0  0  0  0  0  0  0
   -2.8600   -1.4232    2.3901 H   0  0  0  0  0  0  0  0  0  0  0  0
   -1.4604   -2.2261    1.6205 H   0  0  0  0  0  0  0  0  0  0  0  0
   -3.6444   -2.6327   -0.2789 H   0  0  0  0  0  0  0  0  0  0  0  0
   -4.4450   -1.5540   -2.3730 H   0  0  0  0  0  0  0  0  0  0  0  0
   -3.8671    0.8076   -2.8612 H   0  0  0  0  0  0  0  0  0  0  0  0
   -2.4667    2.1083   -1.2935 H   0  0  0  0  0  0  0  0  0  0  0  0
    2.2156    0.5901    1.6028 H   0  0  0  0  0  0  0  0  0  0  0  0
  1  2  1  0
  2  3  2  0
  2  4  1  0
  4  5  2  0
  5  6  1  0
  6  7  2  0
  7  8  1  0
  8  9  1  0
  9 10  2  0
  9 11  2  0
  9 12  1  0
 12 13  1  0
 13 14  1  0
 14 15  1  0
 15 16  2  0
 16 17  1  0
 17 18  2  0
 18 19  1  0
 19 20  2  0
  8 21  2  0
 21  4  1  0
 20 12  1  0
 20 15  1  0
  1 22  1  0
  1 23  1  0
  5 24  1  0
  6 25  1  0
  7 26  1  0
 13 27  1  0
 13 28  1  0
 14 29  1  0
 14 30  1  0
 16 31  1  0
 17 32  1  0
 18 33  1  0
 19 34  1  0
 21 35  1  0
M  END
$$$$
