
     RDKit          3D

 42 43  0  0  0  0  0  0  0  0999 V2000
    4.4833    2.5322   -0.1304 C   0  0  0  0  0  0  0  0  0  0  0  0
    3.6293    1.5210    0.5742 C   0  0  0  0  0  0  0  0  0  0  0  0
    3.4848    1.5569    1.9637 C   0  0  0  0  0  0  0  0  0  0  0  0
    2.6631    0.6322    2.6078 C   0  0  0  0  0  0  0  0  0  0  0  0
    1.9697   -0.3321    1.8713 C   0  0  0  0  0  0  0  0  0  0  0  0
    2.0941   -0.3727    0.4834 C   0  0  0  0  0  0  0  0  0  0  0  0
    1.4605   -1.2401   -0.3644 O   0  0  0  0  0  0  0  0  0  0  0  0
    0.6990   -2.2962    0.1999 C   0  0  0  0  0  0  0  0  0  0  0  0
    0.5198   -3.3684   -0.8766 C   0  0  0  0  0  0  0  0  0  0  0  0
   -0.6890   -1.9621    0.8118 C   0  0  0  0  0  0  0  0  0  0  0  0
   -0.9807   -2.4708    1.9019 O   0  0  0  0  0  0  0  0  0  0  0  0
   -1.6011   -1.1692    0.1058 N   0  0  0  0  0  0  0  0  0  0  0  0
   -1.1917   -0.3093   -1.0064 C   0  0  0  0  0  0  0  0  0  0  0  0
   -2.2736    0.5332   -1.6833 C   0  0  0  0  0  0  0  0  0  0  0  0
   -2.7039    1.7389   -0.8480 C   0  0  0  0  0  0  0  0  0  0  0  0
   -3.6610    1.4108    0.2920 C   0  0  0  0  0  0  0  0  0  0  0  0
   -3.1319    0.3957    1.3013 C   0  0  0  0  0  0  0  0  0  0  0  0
   -2.9299   -0.9884    0.6920 C   0  0  0  0  0  0  0  0  0  0  0  0
    2.9178    0.5601   -0.1567 C   0  0  0  0  0  0  0  0  0  0  0  0
    4.9189    2.1084   -1.0414 H   0  0  0  0  0  0  0  0  0  0  0  0
    5.3138    2.8546    0.5064 H   0  0  0  0  0  0  0  0  0  0  0  0
    3.8831    3.4071   -0.3985 H   0  0  0  0  0  0  0  0  0  0  0  0
    4.0108    2.3041    2.5536 H   0  0  0  0  0  0  0  0  0  0  0  0
    2.5571    0.6634    3.6896 H   0  0  0  0  0  0  0  0  0  0  0  0
    1.3384   -1.0240    2.4195 H   0  0  0  0  0  0  0  0  0  0  0  0
    1.2913   -2.7754    0.9924 H   0  0  0  0  0  0  0  0  0  0  0  0
    1.4966   -3.7216   -1.2253 H   0  0  0  0  0  0  0  0  0  0  0  0
   -0.0443   -4.2252   -0.4938 H   0  0  0  0  0  0  0  0  0  0  0  0
   -0.0040   -2.9854   -1.7567 H   0  0  0  0  0  0  0  0  0  0  0  0
   -0.4117    0.3616   -0.6333 H   0  0  0  0  0  0  0  0  0  0  0  0
   -0.7371   -0.9473   -1.7685 H   0  0  0  0  0  0  0  0  0  0  0  0
   -3.1369   -0.0758   -1.9730 H   0  0  0  0  0  0  0  0  0  0  0  0
   -1.8450    0.9224   -2.6161 H   0  0  0  0  0  0  0  0  0  0  0  0
   -1.8215    2.2568   -0.4526 H   0  0  0  0  0  0  0  0  0  0  0  0
   -3.2072    2.4540   -1.5109 H   0  0  0  0  0  0  0  0  0  0  0  0
   -3.8958    2.3410    0.8241 H   0  0  0  0  0  0  0  0  0  0  0  0
   -4.6096    1.0493   -0.1247 H   0  0  0  0  0  0  0  0  0  0  0  0
   -2.2086    0.7611    1.7662 H   0  0  0  0  0  0  0  0  0  0  0  0
   -3.8793    0.3127    2.1003 H   0  0  0  0  0  0  0  0  0  0  0  0
   -3.0931   -1.7354    1.4765 H   0  0  0  0  0  0  0  0  0  0  0  0
   -3.6788   -1.2092   -0.0769 H   0  0  0  0  0  0  0  0  0  0  0  0
    3.0046    0.5308   -1.2408 H   0  0  0  0  0  0  0  0  0  0  0  0
  1  2  1  0
  2  3  2  0
  3  4  1  0
  4  5  2  0
  5  6  1  0
  6  7  1  0
  7  8  1  0
  8  9  1  0
  8 10  1  0
 10 11  2  0
 10 12  1  0
 12 13  1  0
 13 14  1  0
 14 15  1  0
 15 16  1  0
 16 17  1  0
 17 18  1  0
  6 19  2  0
 19  2  1  0
 18 12  1  0
  1 20  1  0
  1 21  1  0
  1 22  1  0
  3 23  1  0
  4 24  1  0
  5 25  1  0
  8 26  1  0
  9 27  1  0
  9 28  1  0
  9 29  1  0
 13 30  1  0
 13 31  1  0
 14 32  1  0
 14 33  1  0
 15 34  1  0
 15 35  1  0
 16 36  1  0
 16 37  1  0
 17 38  1  0
 17 39  1  0
 18 40  1  0
 18 41  1  0
 19 42  1  0
M  END
$$$$
