
     RDKit          3D

 38 39  0  0  0  0  0  0  0  0999 V2000
    6.3026    0.2246    0.6289 C   0  0  0  0  0  0  0  0  0  0  0  0
    5.5139   -0.5700   -0.2481 O   0  0  0  0  0  0  0  0  0  0  0  0
    4.2016   -0.2142   -0.3953 C   0  0  0  0  0  0  0  0  0  0  0  0
    3.4821   -1.0071   -1.2970 C   0  0  0  0  0  0  0  0  0  0  0  0
    2.1309   -0.7597   -1.5461 C   0  0  0  0  0  0  0  0  0  0  0  0
    1.4972    0.2879   -0.8777 C   0  0  0  0  0  0  0  0  0  0  0  0
   -0.2183    0.6306   -1.1724 S   0  0  0  0  0  6  0  0  0  0  0  0
   -0.3368    2.0553   -1.4015 O   0  0  0  0  0  0  0  0  0  0  0  0
   -0.7210   -0.3176   -2.1431 O   0  0  0  0  0  0  0  0  0  0  0  0
   -0.9375    0.2744    0.3306 N   0  0  0  0  0  0  0  0  0  0  0  0
   -0.8725   -1.1258    0.8243 C   0  0  0  0  0  0  0  0  0  0  0  0
   -2.0002   -1.9869    0.2624 C   0  0  0  0  0  0  0  0  0  0  0  0
   -3.3689   -1.3427    0.4679 C   0  0  0  0  0  0  0  0  0  0  0  0
   -3.3881    0.0912   -0.0737 C   0  0  0  0  0  0  0  0  0  0  0  0
   -4.7176    0.7719    0.1952 C   0  0  0  0  0  0  0  0  0  0  0  0
   -4.9090    1.9502   -0.4675 N   0  0  0  0  0  0  0  0  0  0  0  0
   -5.5729    0.3425    0.9600 O   0  0  0  0  0  0  0  0  0  0  0  0
   -2.2670    0.9008    0.5740 C   0  0  0  0  0  0  0  0  0  0  0  0
    2.2045    1.0928    0.0197 C   0  0  0  0  0  0  0  0  0  0  0  0
    3.5579    0.8377    0.2614 C   0  0  0  0  0  0  0  0  0  0  0  0
    6.3543    1.2623    0.2832 H   0  0  0  0  0  0  0  0  0  0  0  0
    7.3196   -0.1795    0.6224 H   0  0  0  0  0  0  0  0  0  0  0  0
    5.9283    0.1675    1.6564 H   0  0  0  0  0  0  0  0  0  0  0  0
    3.9842   -1.8229   -1.8129 H   0  0  0  0  0  0  0  0  0  0  0  0
    1.5908   -1.3824   -2.2553 H   0  0  0  0  0  0  0  0  0  0  0  0
    0.0970   -1.5776    0.5950 H   0  0  0  0  0  0  0  0  0  0  0  0
   -0.9382   -1.0971    1.9193 H   0  0  0  0  0  0  0  0  0  0  0  0
   -1.9830   -2.9704    0.7461 H   0  0  0  0  0  0  0  0  0  0  0  0
   -1.8436   -2.1657   -0.8067 H   0  0  0  0  0  0  0  0  0  0  0  0
   -3.6124   -1.3484    1.5384 H   0  0  0  0  0  0  0  0  0  0  0  0
   -4.1391   -1.9446   -0.0292 H   0  0  0  0  0  0  0  0  0  0  0  0
   -3.2521    0.0542   -1.1620 H   0  0  0  0  0  0  0  0  0  0  0  0
   -4.3685    2.1942   -1.2883 H   0  0  0  0  0  0  0  0  0  0  0  0
   -5.8249    2.3729   -0.3754 H   0  0  0  0  0  0  0  0  0  0  0  0
   -2.2635    1.9388    0.2237 H   0  0  0  0  0  0  0  0  0  0  0  0
   -2.4176    0.9682    1.6601 H   0  0  0  0  0  0  0  0  0  0  0  0
    1.7077    1.9160    0.5291 H   0  0  0  0  0  0  0  0  0  0  0  0
    4.0801    1.4786    0.9643 H   0  0  0  0  0  0  0  0  0  0  0  0
  1  2  1  0
  2  3  1  0
  3  4  2  0
  4  5  1  0
  5  6  2  0
  6  7  1  0
  7  8  2  0
  7  9  2  0
  7 10  1  0
 10 11  1  0
 11 12  1  0
 12 13  1  0
 13 14  1  0
 14 15  1  0
 15 16  1  0
 15 17  2  0
 14 18  1  0
  6 19  1  0
 19 20  2  0
 20  3  1  0
 18 10  1  0
  1 21  1  0
  1 22  1  0
  1 23  1  0
  4 24  1  0
  5 25  1  0
 11 26  1  0
 11 27  1  0
 12 28  1  0
 12 29  1  0
 13 30  1  0
 13 31  1  0
 14 32  1  0
 16 33  1  0
 16 34  1  0
 18 35  1  0
 18 36  1  0
 19 37  1  0
 20 38  1  0
M  END
$$$$
