
     RDKit          3D

 41 43  0  0  0  0  0  0  0  0999 V2000
    3.6795   -0.5169    1.9130 C   0  0  0  0  0  0  0  0  0  0  0  0
    3.9115   -0.9164    0.5348 N   0  0  0  0  0  0  0  0  0  0  0  0
    5.0250   -1.6870    0.2306 C   0  0  0  0  0  0  0  0  0  0  0  0
    5.8677   -2.0392    1.0567 O   0  0  0  0  0  0  0  0  0  0  0  0
    5.0970   -2.1643   -1.2157 C   0  0  0  0  0  0  0  0  0  0  0  0
    4.5083   -1.3766   -2.2313 O   0  0  0  0  0  0  0  0  0  0  0  0
    3.3564   -0.7574   -1.8349 C   0  0  0  0  0  0  0  0  0  0  0  0
    2.5280   -0.3205   -2.8678 C   0  0  0  0  0  0  0  0  0  0  0  0
    1.3418    0.3525   -2.5774 C   0  0  0  0  0  0  0  0  0  0  0  0
    0.9783    0.6062   -1.2514 C   0  0  0  0  0  0  0  0  0  0  0  0
   -0.2371    1.2928   -1.0420 N   0  0  0  0  0  0  0  0  0  0  0  0
   -0.8124    1.6488    0.1679 C   0  0  0  0  0  0  0  0  0  0  0  0
   -0.3336    1.4577    1.2808 O   0  0  0  0  0  0  0  0  0  0  0  0
   -2.1223    2.4008   -0.0225 C   0  0  0  0  0  0  0  0  0  0  0  0
   -3.0786    2.2316    1.1569 C   0  0  0  0  0  0  0  0  0  0  0  0
   -3.7769    0.8921    1.1320 C   0  0  0  0  0  0  0  0  0  0  0  0
   -3.2292   -0.2078    1.8050 C   0  0  0  0  0  0  0  0  0  0  0  0
   -3.8616   -1.4510    1.7613 C   0  0  0  0  0  0  0  0  0  0  0  0
   -5.0461   -1.6071    1.0442 C   0  0  0  0  0  0  0  0  0  0  0  0
   -5.5989   -0.5203    0.3694 C   0  0  0  0  0  0  0  0  0  0  0  0
   -4.9670    0.7236    0.4108 C   0  0  0  0  0  0  0  0  0  0  0  0
    1.8253    0.1770   -0.2225 C   0  0  0  0  0  0  0  0  0  0  0  0
    3.0226   -0.5069   -0.4988 C   0  0  0  0  0  0  0  0  0  0  0  0
    3.6150    0.5741    1.9732 H   0  0  0  0  0  0  0  0  0  0  0  0
    4.4910   -0.8423    2.5701 H   0  0  0  0  0  0  0  0  0  0  0  0
    2.7523   -0.9750    2.2714 H   0  0  0  0  0  0  0  0  0  0  0  0
    4.6595   -3.1694   -1.2561 H   0  0  0  0  0  0  0  0  0  0  0  0
    6.1586   -2.2608   -1.4701 H   0  0  0  0  0  0  0  0  0  0  0  0
    2.8085   -0.5065   -3.9014 H   0  0  0  0  0  0  0  0  0  0  0  0
    0.7136    0.6755   -3.4035 H   0  0  0  0  0  0  0  0  0  0  0  0
   -0.7553    1.5331   -1.8779 H   0  0  0  0  0  0  0  0  0  0  0  0
   -2.6071    2.0955   -0.9571 H   0  0  0  0  0  0  0  0  0  0  0  0
   -1.8567    3.4606   -0.1190 H   0  0  0  0  0  0  0  0  0  0  0  0
   -3.8401    3.0212    1.1162 H   0  0  0  0  0  0  0  0  0  0  0  0
   -2.5646    2.3656    2.1166 H   0  0  0  0  0  0  0  0  0  0  0  0
   -2.3025   -0.1027    2.3672 H   0  0  0  0  0  0  0  0  0  0  0  0
   -3.4281   -2.2972    2.2880 H   0  0  0  0  0  0  0  0  0  0  0  0
   -5.5384   -2.5754    1.0130 H   0  0  0  0  0  0  0  0  0  0  0  0
   -6.5240   -0.6417   -0.1880 H   0  0  0  0  0  0  0  0  0  0  0  0
   -5.4121    1.5616   -0.1206 H   0  0  0  0  0  0  0  0  0  0  0  0
    1.5530    0.3723    0.8069 H   0  0  0  0  0  0  0  0  0  0  0  0
  1  2  1  0
  2  3  1  0
  3  4  2  0
  3  5  1  0
  5  6  1  0
  6  7  1  0
  7  8  2  0
  8  9  1  0
  9 10  2  0
 10 11  1  0
 11 12  1  0
 12 13  2  0
 12 14  1  0
 14 15  1  0
 15 16  1  0
 16 17  2  0
 17 18  1  0
 18 19  2  0
 19 20  1  0
 20 21  2  0
 10 22  1  0
 22 23  2  0
 23  2  1  0
 23  7  1  0
 21 16  1  0
  1 24  1  0
  1 25  1  0
  1 26  1  0
  5 27  1  0
  5 28  1  0
  8 29  1  0
  9 30  1  0
 11 31  1  0
 14 32  1  0
 14 33  1  0
 15 34  1  0
 15 35  1  0
 17 36  1  0
 18 37  1  0
 19 38  1  0
 20 39  1  0
 21 40  1  0
 22 41  1  0
M  END
$$$$
