
     RDKit          3D

 48 51  0  0  0  0  0  0  0  0999 V2000
    0.1837   -0.8926   -2.1154 O   0  0  0  0  0  0  0  0  0  0  0  0
   -0.2424    0.0524   -1.4604 C   0  0  0  0  0  0  0  0  0  0  0  0
    0.6197    0.9087   -0.5639 C   0  0  0  0  0  0  0  0  0  0  0  0
    2.0838    0.5287   -0.6860 C   0  0  0  0  0  0  0  0  0  0  0  0
    2.4346   -0.6753    0.0268 N   0  0  0  0  0  0  0  0  0  0  0  0
    3.5001   -0.4748    0.8750 C   0  0  0  0  0  0  0  0  0  0  0  0
    4.0699   -1.3698    1.4762 O   0  0  0  0  0  0  0  0  0  0  0  0
    3.7850    0.8550    0.8996 N   0  0  0  0  0  0  0  0  0  0  0  0
    4.8459    1.4450    1.6798 C   0  0  0  0  0  0  0  0  0  0  0  0
    6.1272    1.3340    0.9328 C   0  0  0  0  0  0  0  0  0  0  0  0
    7.0181    0.2992    0.7299 C   0  0  0  0  0  0  0  0  0  0  0  0
    8.0529    0.8170   -0.0850 C   0  0  0  0  0  0  0  0  0  0  0  0
    7.7301    2.1317   -0.3249 C   0  0  0  0  0  0  0  0  0  0  0  0
    6.5639    2.4551    0.2900 O   0  0  0  0  0  0  0  0  0  0  0  0
    2.9809    1.5362    0.0306 C   0  0  0  0  0  0  0  0  0  0  0  0
    2.9659    2.7433   -0.1654 O   0  0  0  0  0  0  0  0  0  0  0  0
   -1.5687    0.4248   -1.4575 N   0  0  0  0  0  0  0  0  0  0  0  0
   -2.5717   -0.3434   -2.1775 C   0  0  0  0  0  0  0  0  0  0  0  0
   -2.9469   -1.6572   -1.4874 C   0  0  0  0  0  0  0  0  0  0  0  0
   -3.5689   -1.4421   -0.1882 N   0  0  0  0  0  0  0  0  0  0  0  0
   -2.9042   -1.5388    1.0071 C   0  0  0  0  0  0  0  0  0  0  0  0
   -3.7961   -1.2474    2.0121 C   0  0  0  0  0  0  0  0  0  0  0  0
   -5.0595   -0.9721    1.4126 C   0  0  0  0  0  0  0  0  0  0  0  0
   -6.3404   -0.6233    1.8851 C   0  0  0  0  0  0  0  0  0  0  0  0
   -6.5180   -0.4593    3.5780 Cl  0  0  0  0  0  0  0  0  0  0  0  0
   -7.4080   -0.4204    1.0130 C   0  0  0  0  0  0  0  0  0  0  0  0
   -7.2115   -0.5650   -0.3562 C   0  0  0  0  0  0  0  0  0  0  0  0
   -5.9562   -0.9099   -0.8720 C   0  0  0  0  0  0  0  0  0  0  0  0
   -4.8917   -1.1082    0.0270 C   0  0  0  0  0  0  0  0  0  0  0  0
    0.2688    0.7980    0.4695 H   0  0  0  0  0  0  0  0  0  0  0  0
    0.4741    1.9549   -0.8594 H   0  0  0  0  0  0  0  0  0  0  0  0
    2.4239    0.4294   -1.7225 H   0  0  0  0  0  0  0  0  0  0  0  0
    2.1987   -1.6109   -0.2844 H   0  0  0  0  0  0  0  0  0  0  0  0
    4.6087    2.4946    1.8833 H   0  0  0  0  0  0  0  0  0  0  0  0
    4.9264    0.9139    2.6345 H   0  0  0  0  0  0  0  0  0  0  0  0
    6.9214   -0.7064    1.1184 H   0  0  0  0  0  0  0  0  0  0  0  0
    8.9247    0.2963   -0.4547 H   0  0  0  0  0  0  0  0  0  0  0  0
    8.1991    2.9290   -0.8848 H   0  0  0  0  0  0  0  0  0  0  0  0
   -1.8931    1.0744   -0.7489 H   0  0  0  0  0  0  0  0  0  0  0  0
   -3.4452    0.3066   -2.2926 H   0  0  0  0  0  0  0  0  0  0  0  0
   -2.1804   -0.5615   -3.1775 H   0  0  0  0  0  0  0  0  0  0  0  0
   -3.6552   -2.2254   -2.1004 H   0  0  0  0  0  0  0  0  0  0  0  0
   -2.0673   -2.2923   -1.3320 H   0  0  0  0  0  0  0  0  0  0  0  0
   -1.8558   -1.8062    1.0486 H   0  0  0  0  0  0  0  0  0  0  0  0
   -3.5702   -1.2401    3.0709 H   0  0  0  0  0  0  0  0  0  0  0  0
   -8.3877   -0.1533    1.3983 H   0  0  0  0  0  0  0  0  0  0  0  0
   -8.0457   -0.4101   -1.0375 H   0  0  0  0  0  0  0  0  0  0  0  0
   -5.8227   -1.0222   -1.9437 H   0  0  0  0  0  0  0  0  0  0  0  0
  1  2  2  0
  2  3  1  0
  3  4  1  0
  4  5  1  0
  5  6  1  0
  6  7  2  0
  6  8  1  0
  8  9  1  0
  9 10  1  0
 10 11  2  0
 11 12  1  0
 12 13  2  0
 13 14  1  0
  8 15  1  0
 15 16  2  0
  2 17  1  0
 17 18  1  0
 18 19  1  0
 19 20  1  0
 20 21  1  0
 21 22  2  0
 22 23  1  0
 23 24  2  0
 24 25  1  0
 24 26  1  0
 26 27  2  0
 27 28  1  0
 28 29  2  0
 15  4  1  0
 29 20  1  0
 14 10  1  0
 29 23  1  0
  3 30  1  0
  3 31  1  0
  4 32  1  0
  5 33  1  0
  9 34  1  0
  9 35  1  0
 11 36  1  0
 12 37  1  0
 13 38  1  0
 17 39  1  0
 18 40  1  0
 18 41  1  0
 19 42  1  0
 19 43  1  0
 21 44  1  0
 22 45  1  0
 26 46  1  0
 27 47  1  0
 28 48  1  0
M  END
$$$$
