
     RDKit          3D

 36 37  0  0  0  0  0  0  0  0999 V2000
   -2.5252   -0.6972    1.8516 C   0  0  0  0  0  0  0  0  0  0  0  0
   -3.0158    0.0541    0.6424 C   0  0  0  0  0  0  0  0  0  0  0  0
   -4.0305   -0.5190   -0.1411 C   0  0  0  0  0  0  0  0  0  0  0  0
   -4.5120    0.1296   -1.2777 C   0  0  0  0  0  0  0  0  0  0  0  0
   -3.9839    1.3601   -1.6509 C   0  0  0  0  0  0  0  0  0  0  0  0
   -2.9678    1.9387   -0.8922 C   0  0  0  0  0  0  0  0  0  0  0  0
   -2.4652    1.2938    0.2530 C   0  0  0  0  0  0  0  0  0  0  0  0
   -1.3326    1.9513    1.0171 C   0  0  0  0  0  0  0  0  0  0  0  0
    0.0060    1.2220    0.9672 C   0  0  0  0  0  0  0  0  0  0  0  0
    0.7599    1.2618    1.9381 O   0  0  0  0  0  0  0  0  0  0  0  0
    0.2857    0.6169   -0.2463 N   0  0  0  0  0  0  0  0  0  0  0  0
    1.4348   -0.1191   -0.6026 C   0  0  0  0  0  0  0  0  0  0  0  0
    1.4919   -0.6122   -1.9128 C   0  0  0  0  0  0  0  0  0  0  0  0
    2.5919   -1.3520   -2.3492 C   0  0  0  0  0  0  0  0  0  0  0  0
    3.6492   -1.6020   -1.4773 C   0  0  0  0  0  0  0  0  0  0  0  0
    3.6108   -1.1128   -0.1661 C   0  0  0  0  0  0  0  0  0  0  0  0
    4.7662   -1.4120    0.7252 C   0  0  0  0  0  0  0  0  0  0  0  0
    4.9072   -0.6733    1.8666 N   0  0  0  0  0  0  0  0  0  0  0  0
    5.5886   -2.2742    0.4391 O   0  0  0  0  0  0  0  0  0  0  0  0
    2.4947   -0.3827    0.2694 C   0  0  0  0  0  0  0  0  0  0  0  0
   -2.4467   -0.0344    2.7186 H   0  0  0  0  0  0  0  0  0  0  0  0
   -3.2180   -1.4992    2.1289 H   0  0  0  0  0  0  0  0  0  0  0  0
   -1.5508   -1.1502    1.6462 H   0  0  0  0  0  0  0  0  0  0  0  0
   -4.4592   -1.4809    0.1345 H   0  0  0  0  0  0  0  0  0  0  0  0
   -5.3038   -0.3253   -1.8674 H   0  0  0  0  0  0  0  0  0  0  0  0
   -4.3651    1.8704   -2.5318 H   0  0  0  0  0  0  0  0  0  0  0  0
   -2.5704    2.9034   -1.2032 H   0  0  0  0  0  0  0  0  0  0  0  0
   -1.1555    2.9672    0.6427 H   0  0  0  0  0  0  0  0  0  0  0  0
   -1.6344    2.0589    2.0658 H   0  0  0  0  0  0  0  0  0  0  0  0
   -0.4303    0.6860   -0.9612 H   0  0  0  0  0  0  0  0  0  0  0  0
    0.6794   -0.4303   -2.6124 H   0  0  0  0  0  0  0  0  0  0  0  0
    2.6255   -1.7342   -3.3664 H   0  0  0  0  0  0  0  0  0  0  0  0
    4.5052   -2.1804   -1.8205 H   0  0  0  0  0  0  0  0  0  0  0  0
    5.7439   -0.8366    2.4111 H   0  0  0  0  0  0  0  0  0  0  0  0
    4.3766    0.1632    2.0633 H   0  0  0  0  0  0  0  0  0  0  0  0
    2.4497   -0.0496    1.2979 H   0  0  0  0  0  0  0  0  0  0  0  0
  1  2  1  0
  2  3  2  0
  3  4  1  0
  4  5  2  0
  5  6  1  0
  6  7  2  0
  7  8  1  0
  8  9  1  0
  9 10  2  0
  9 11  1  0
 11 12  1  0
 12 13  2  0
 13 14  1  0
 14 15  2  0
 15 16  1  0
 16 17  1  0
 17 18  1  0
 17 19  2  0
 16 20  2  0
  7  2  1  0
 20 12  1  0
  1 21  1  0
  1 22  1  0
  1 23  1  0
  3 24  1  0
  4 25  1  0
  5 26  1  0
  6 27  1  0
  8 28  1  0
  8 29  1  0
 11 30  1  0
 13 31  1  0
 14 32  1  0
 15 33  1  0
 18 34  1  0
 18 35  1  0
 20 36  1  0
M  END
$$$$
