
     RDKit          3D

 57 61  0  0  0  0  0  0  0  0999 V2000
   -8.1792   -0.4660   -0.2176 C   0  0  0  0  0  0  0  0  0  0  0  0
   -7.0459   -1.1925    0.4754 C   0  0  0  0  0  0  0  0  0  0  0  0
   -7.2827   -2.1775    1.1746 O   0  0  0  0  0  0  0  0  0  0  0  0
   -5.7669   -0.6731    0.3433 N   0  0  0  0  0  0  0  0  0  0  0  0
   -5.3856    0.4662   -0.5073 C   0  0  0  0  0  0  0  0  0  0  0  0
   -4.4556    1.4476    0.2403 C   0  0  0  0  0  0  0  0  0  0  0  0
   -3.3233    0.7725    0.9041 N   0  0  0  0  0  0  0  0  0  0  0  0
   -2.0666    0.7192    0.2941 C   0  0  0  0  0  0  0  0  0  0  0  0
   -0.9239    0.6236    1.1257 C   0  0  0  0  0  0  0  0  0  0  0  0
    0.3841    0.5881    0.6127 C   0  0  0  0  0  0  0  0  0  0  0  0
    0.5397    0.5977   -0.7897 C   0  0  0  0  0  0  0  0  0  0  0  0
   -0.5611    0.7158   -1.6412 C   0  0  0  0  0  0  0  0  0  0  0  0
   -1.8389    0.8001   -1.0956 C   0  0  0  0  0  0  0  0  0  0  0  0
   -2.8620    0.9279   -1.9590 F   0  0  0  0  0  0  0  0  0  0  0  0
    1.8927    0.4789   -1.3823 C   0  0  0  0  0  0  0  0  0  0  0  0
    2.0431    0.3647   -2.5971 O   0  0  0  0  0  0  0  0  0  0  0  0
    3.0457    0.4910   -0.4590 C   0  0  0  0  0  0  0  0  0  0  0  0
    4.4622    0.4655   -0.8949 C   0  0  0  0  0  0  0  0  0  0  0  0
    5.2769    1.1812   -0.3110 O   0  0  0  0  0  0  0  0  0  0  0  0
    4.7365   -0.4939   -1.8760 N   0  0  0  0  0  0  0  0  0  0  0  0
    6.0063   -0.7917   -2.3943 C   0  0  0  0  0  0  0  0  0  0  0  0
    7.1623   -0.0636   -2.1263 C   0  0  0  0  0  0  0  0  0  0  0  0
    8.3808   -0.4597   -2.6832 C   0  0  0  0  0  0  0  0  0  0  0  0
    8.4088   -1.6054   -3.4667 C   0  0  0  0  0  0  0  0  0  0  0  0
    7.3168   -2.3525   -3.7444 N   0  0  0  0  0  0  0  0  0  0  0  0
    6.1446   -1.9253   -3.2114 C   0  0  0  0  0  0  0  0  0  0  0  0
    2.7924    0.4964    0.8593 C   0  0  0  0  0  0  0  0  0  0  0  0
    1.5385    0.5572    1.4466 N   0  0  0  0  0  0  0  0  0  0  0  0
    1.4463    0.4262    2.9153 C   0  0  0  0  0  0  0  0  0  0  0  0
    2.3721    1.1717    3.8506 C   0  0  0  0  0  0  0  0  0  0  0  0
    0.9141    1.5400    3.8041 C   0  0  0  0  0  0  0  0  0  0  0  0
   -3.7077   -0.4002    1.7338 C   0  0  0  0  0  0  0  0  0  0  0  0
   -4.6344   -1.3688    0.9619 C   0  0  0  0  0  0  0  0  0  0  0  0
   -8.3103    0.5164    0.2662 H   0  0  0  0  0  0  0  0  0  0  0  0
   -8.0028   -0.3527   -1.2989 H   0  0  0  0  0  0  0  0  0  0  0  0
   -9.1040   -1.0424   -0.0922 H   0  0  0  0  0  0  0  0  0  0  0  0
   -6.2656    1.0057   -0.8677 H   0  0  0  0  0  0  0  0  0  0  0  0
   -4.8888    0.0443   -1.3886 H   0  0  0  0  0  0  0  0  0  0  0  0
   -5.0386    1.9338    1.0328 H   0  0  0  0  0  0  0  0  0  0  0  0
   -4.1147    2.2513   -0.4241 H   0  0  0  0  0  0  0  0  0  0  0  0
   -1.0750    0.6187    2.2066 H   0  0  0  0  0  0  0  0  0  0  0  0
   -0.4368    0.7420   -2.7260 H   0  0  0  0  0  0  0  0  0  0  0  0
    3.9537   -1.0229   -2.2492 H   0  0  0  0  0  0  0  0  0  0  0  0
    7.1503    0.8370   -1.5181 H   0  0  0  0  0  0  0  0  0  0  0  0
    9.2924    0.1140   -2.5063 H   0  0  0  0  0  0  0  0  0  0  0  0
    9.3351   -1.9471   -3.9182 H   0  0  0  0  0  0  0  0  0  0  0  0
    5.2916   -2.5609   -3.4540 H   0  0  0  0  0  0  0  0  0  0  0  0
    3.6203    0.4609    1.5705 H   0  0  0  0  0  0  0  0  0  0  0  0
    1.1278   -0.5885    3.2046 H   0  0  0  0  0  0  0  0  0  0  0  0
    2.7407    0.6322    4.7171 H   0  0  0  0  0  0  0  0  0  0  0  0
    3.0326    1.9523    3.4922 H   0  0  0  0  0  0  0  0  0  0  0  0
    0.6716    2.5101    3.3616 H   0  0  0  0  0  0  0  0  0  0  0  0
    0.3057    1.3023    4.6900 H   0  0  0  0  0  0  0  0  0  0  0  0
   -2.8329   -0.9696    2.0925 H   0  0  0  0  0  0  0  0  0  0  0  0
   -4.2296   -0.0315    2.6334 H   0  0  0  0  0  0  0  0  0  0  0  0
   -4.9758   -2.1609    1.6420 H   0  0  0  0  0  0  0  0  0  0  0  0
   -4.0771   -1.8533    0.1491 H   0  0  0  0  0  0  0  0  0  0  0  0
  1  2  1  0
  2  3  2  0
  2  4  1  0
  4  5  1  0
  5  6  1  0
  6  7  1  0
  7  8  1  0
  8  9  2  0
  9 10  1  0
 10 11  2  0
 11 12  1  0
 12 13  2  0
 13 14  1  0
 11 15  1  0
 15 16  2  0
 15 17  1  0
 17 18  1  0
 18 19  2  0
 18 20  1  0
 20 21  1  0
 21 22  2  0
 22 23  1  0
 23 24  2  0
 24 25  1  0
 25 26  2  0
 17 27  2  0
 27 28  1  0
 28 29  1  0
 29 30  1  0
 30 31  1  0
  7 32  1  0
 32 33  1  0
 33  4  1  0
 13  8  1  0
 26 21  1  0
 31 29  1  0
 28 10  1  0
  1 34  1  0
  1 35  1  0
  1 36  1  0
  5 37  1  0
  5 38  1  0
  6 39  1  0
  6 40  1  0
  9 41  1  0
 12 42  1  0
 20 43  1  0
 22 44  1  0
 23 45  1  0
 24 46  1  0
 26 47  1  0
 27 48  1  0
 29 49  1  0
 30 50  1  0
 30 51  1  0
 31 52  1  0
 31 53  1  0
 32 54  1  0
 32 55  1  0
 33 56  1  0
 33 57  1  0
M  END
$$$$
