
     RDKit          3D

 32 33  0  0  0  0  0  0  0  0999 V2000
   -1.6971   -1.3598    1.0295 C   0  0  0  0  0  0  0  0  0  0  0  0
   -1.9961   -0.2416    0.0664 C   0  0  0  0  0  0  0  0  0  0  0  0
   -2.6899    0.9008    0.5151 C   0  0  0  0  0  0  0  0  0  0  0  0
   -3.2218    1.0526    2.1556 Cl  0  0  0  0  0  0  0  0  0  0  0  0
   -2.9731    1.9645   -0.3474 C   0  0  0  0  0  0  0  0  0  0  0  0
   -2.5691    1.9103   -1.6764 C   0  0  0  0  0  0  0  0  0  0  0  0
   -1.8817    0.7924   -2.1399 C   0  0  0  0  0  0  0  0  0  0  0  0
   -1.5962   -0.2776   -1.2827 C   0  0  0  0  0  0  0  0  0  0  0  0
   -0.8578   -1.3753   -1.8113 N   0  0  0  0  0  0  0  0  0  0  0  0
    0.7726   -1.1786   -2.2035 S   0  0  0  0  0  6  0  0  0  0  0  0
    1.2860   -2.5118   -2.4413 O   0  0  0  0  0  0  0  0  0  0  0  0
    0.9068   -0.1365   -3.1985 O   0  0  0  0  0  0  0  0  0  0  0  0
    1.4867   -0.5894   -0.6855 C   0  0  0  0  0  0  0  0  0  0  0  0
    1.5972    0.7836   -0.4575 C   0  0  0  0  0  0  0  0  0  0  0  0
    2.1613    1.2385    0.7370 C   0  0  0  0  0  0  0  0  0  0  0  0
    2.5912    0.3363    1.7153 C   0  0  0  0  0  0  0  0  0  0  0  0
    3.2608    0.7996    2.8521 N   0  0  0  0  0  0  0  0  0  0  0  0
    2.5476   -1.0334    1.4350 C   0  0  0  0  0  0  0  0  0  0  0  0
    1.9841   -1.5032    0.2456 C   0  0  0  0  0  0  0  0  0  0  0  0
   -1.1517   -2.1893    0.5740 H   0  0  0  0  0  0  0  0  0  0  0  0
   -2.6293   -1.7749    1.4273 H   0  0  0  0  0  0  0  0  0  0  0  0
   -1.0799   -0.9917    1.8560 H   0  0  0  0  0  0  0  0  0  0  0  0
   -3.5094    2.8389    0.0140 H   0  0  0  0  0  0  0  0  0  0  0  0
   -2.7872    2.7343   -2.3511 H   0  0  0  0  0  0  0  0  0  0  0  0
   -1.5726    0.7568   -3.1834 H   0  0  0  0  0  0  0  0  0  0  0  0
   -1.0790   -2.3191   -1.5024 H   0  0  0  0  0  0  0  0  0  0  0  0
    1.2575    1.5020   -1.2002 H   0  0  0  0  0  0  0  0  0  0  0  0
    2.2660    2.3089    0.8968 H   0  0  0  0  0  0  0  0  0  0  0  0
    3.2653    0.1466    3.6292 H   0  0  0  0  0  0  0  0  0  0  0  0
    2.9955    1.7372    3.1375 H   0  0  0  0  0  0  0  0  0  0  0  0
    2.9599   -1.7483    2.1429 H   0  0  0  0  0  0  0  0  0  0  0  0
    1.9532   -2.5727    0.0518 H   0  0  0  0  0  0  0  0  0  0  0  0
  1  2  1  0
  2  3  2  0
  3  4  1  0
  3  5  1  0
  5  6  2  0
  6  7  1  0
  7  8  2  0
  8  9  1  0
  9 10  1  0
 10 11  2  0
 10 12  2  0
 10 13  1  0
 13 14  2  0
 14 15  1  0
 15 16  2  0
 16 17  1  0
 16 18  1  0
 18 19  2  0
  8  2  1  0
 19 13  1  0
  1 20  1  0
  1 21  1  0
  1 22  1  0
  5 23  1  0
  6 24  1  0
  7 25  1  0
  9 26  1  0
 14 27  1  0
 15 28  1  0
 17 29  1  0
 17 30  1  0
 18 31  1  0
 19 32  1  0
M  END
$$$$
