
     RDKit          3D

 57 59  0  0  0  0  0  0  0  0999 V2000
    6.0309   -0.7122    1.6909 C   0  0  0  0  0  0  0  0  0  0  0  0
    6.4025   -0.0034    0.4605 N   0  0  0  0  0  0  0  0  0  0  0  0
    6.9199   -0.8860   -0.5912 C   0  0  0  0  0  0  0  0  0  0  0  0
    5.4847    1.3306    0.0074 S   0  0  0  0  0  6  0  0  0  0  0  0
    5.1610    2.0770    1.1961 O   0  0  0  0  0  0  0  0  0  0  0  0
    6.1419    1.9621   -1.1144 O   0  0  0  0  0  0  0  0  0  0  0  0
    4.0828    0.6206   -0.5602 N   0  0  0  0  0  0  0  0  0  0  0  0
    3.9682    0.2444   -1.9795 C   0  0  0  0  0  0  0  0  0  0  0  0
    2.8937   -0.8184   -2.1810 C   0  0  0  0  0  0  0  0  0  0  0  0
    1.5444   -0.3748   -1.6208 C   0  0  0  0  0  0  0  0  0  0  0  0
    1.6519    0.4015   -0.2973 C   0  0  0  0  0  0  0  0  0  0  0  0
    0.5494   -0.0162    0.6760 C   0  0  0  0  0  0  0  0  0  0  0  0
    0.8084   -0.7727    1.6157 O   0  0  0  0  0  0  0  0  0  0  0  0
   -0.7444    0.4573    0.4586 N   0  0  0  0  0  0  0  0  0  0  0  0
   -1.1998    1.0632   -0.7975 C   0  0  0  0  0  0  0  0  0  0  0  0
   -2.4613    1.9307   -0.6352 C   0  0  0  0  0  0  0  0  0  0  0  0
   -3.5696    1.2850    0.0958 N   0  0  0  0  0  0  0  0  0  0  0  0
   -4.1852    0.2100   -0.6997 C   0  0  0  0  0  0  0  0  0  0  0  0
   -5.4980   -0.2836   -0.1303 C   0  0  0  0  0  0  0  0  0  0  0  0
   -6.5854    0.5926    0.0124 C   0  0  0  0  0  0  0  0  0  0  0  0
   -7.8064    0.1354    0.5065 C   0  0  0  0  0  0  0  0  0  0  0  0
   -7.9543   -1.2046    0.8634 C   0  0  0  0  0  0  0  0  0  0  0  0
   -6.8818   -2.0858    0.7269 C   0  0  0  0  0  0  0  0  0  0  0  0
   -5.6600   -1.6300    0.2305 C   0  0  0  0  0  0  0  0  0  0  0  0
   -3.0530    0.8135    1.4004 C   0  0  0  0  0  0  0  0  0  0  0  0
   -1.8034   -0.0845    1.3217 C   0  0  0  0  0  0  0  0  0  0  0  0
    3.0173    0.1754    0.3594 C   0  0  0  0  0  0  0  0  0  0  0  0
    6.8480   -1.3758    2.0033 H   0  0  0  0  0  0  0  0  0  0  0  0
    5.8507   -0.0205    2.5132 H   0  0  0  0  0  0  0  0  0  0  0  0
    5.1473   -1.3316    1.5337 H   0  0  0  0  0  0  0  0  0  0  0  0
    7.7981   -1.4296   -0.2332 H   0  0  0  0  0  0  0  0  0  0  0  0
    6.1638   -1.6126   -0.8900 H   0  0  0  0  0  0  0  0  0  0  0  0
    7.2455   -0.3198   -1.4622 H   0  0  0  0  0  0  0  0  0  0  0  0
    4.9183   -0.1399   -2.3673 H   0  0  0  0  0  0  0  0  0  0  0  0
    3.7108    1.1456   -2.5541 H   0  0  0  0  0  0  0  0  0  0  0  0
    3.2080   -1.7481   -1.6918 H   0  0  0  0  0  0  0  0  0  0  0  0
    2.7838   -1.0508   -3.2481 H   0  0  0  0  0  0  0  0  0  0  0  0
    1.0587    0.2677   -2.3688 H   0  0  0  0  0  0  0  0  0  0  0  0
    0.9000   -1.2573   -1.5111 H   0  0  0  0  0  0  0  0  0  0  0  0
    1.5629    1.4751   -0.4945 H   0  0  0  0  0  0  0  0  0  0  0  0
   -0.4071    1.6818   -1.2262 H   0  0  0  0  0  0  0  0  0  0  0  0
   -1.3912    0.2428   -1.4988 H   0  0  0  0  0  0  0  0  0  0  0  0
   -2.1897    2.8431   -0.0886 H   0  0  0  0  0  0  0  0  0  0  0  0
   -2.8023    2.2709   -1.6208 H   0  0  0  0  0  0  0  0  0  0  0  0
   -3.4996   -0.6315   -0.8432 H   0  0  0  0  0  0  0  0  0  0  0  0
   -4.4152    0.5844   -1.7079 H   0  0  0  0  0  0  0  0  0  0  0  0
   -6.4776    1.6407   -0.2628 H   0  0  0  0  0  0  0  0  0  0  0  0
   -8.6385    0.8255    0.6135 H   0  0  0  0  0  0  0  0  0  0  0  0
   -8.9011   -1.5644    1.2519 H   0  0  0  0  0  0  0  0  0  0  0  0
   -7.0056   -3.1299    1.0039 H   0  0  0  0  0  0  0  0  0  0  0  0
   -4.8343   -2.3311    0.1259 H   0  0  0  0  0  0  0  0  0  0  0  0
   -2.7968    1.7028    1.9932 H   0  0  0  0  0  0  0  0  0  0  0  0
   -3.8365    0.3060    1.9777 H   0  0  0  0  0  0  0  0  0  0  0  0
   -2.0641   -1.0753    0.9305 H   0  0  0  0  0  0  0  0  0  0  0  0
   -1.4119   -0.2312    2.3357 H   0  0  0  0  0  0  0  0  0  0  0  0
    3.1628   -0.8879    0.5997 H   0  0  0  0  0  0  0  0  0  0  0  0
    3.0588    0.7241    1.3060 H   0  0  0  0  0  0  0  0  0  0  0  0
  1  2  1  0
  2  3  1  0
  2  4  1  0
  4  5  2  0
  4  6  2  0
  4  7  1  0
  7  8  1  0
  8  9  1  0
  9 10  1  0
 10 11  1  0
 11 12  1  0
 12 13  2  0
 12 14  1  0
 14 15  1  0
 15 16  1  0
 16 17  1  0
 17 18  1  0
 18 19  1  0
 19 20  2  0
 20 21  1  0
 21 22  2  0
 22 23  1  0
 23 24  2  0
 17 25  1  0
 25 26  1  0
 11 27  1  0
 27  7  1  0
 26 14  1  0
 24 19  1  0
  1 28  1  0
  1 29  1  0
  1 30  1  0
  3 31  1  0
  3 32  1  0
  3 33  1  0
  8 34  1  0
  8 35  1  0
  9 36  1  0
  9 37  1  0
 10 38  1  0
 10 39  1  0
 11 40  1  0
 15 41  1  0
 15 42  1  0
 16 43  1  0
 16 44  1  0
 18 45  1  0
 18 46  1  0
 20 47  1  0
 21 48  1  0
 22 49  1  0
 23 50  1  0
 24 51  1  0
 25 52  1  0
 25 53  1  0
 26 54  1  0
 26 55  1  0
 27 56  1  0
 27 57  1  0
M  END
$$$$
