
     RDKit          3D

 49 51  0  0  0  0  0  0  0  0999 V2000
    6.3878    1.6812    0.4740 C   0  0  0  0  0  0  0  0  0  0  0  0
    5.8068    0.2716    0.4353 C   0  0  0  0  0  0  0  0  0  0  0  0
    4.7159    0.1471   -0.5374 N   0  0  0  0  0  0  0  0  0  0  0  0
    4.5003   -1.2693   -0.9043 C   0  0  0  0  0  0  0  0  0  0  0  0
    3.1172   -1.5395   -1.5181 C   0  0  0  0  0  0  0  0  0  0  0  0
    2.0422   -1.1965   -0.5876 N   0  0  0  0  0  0  0  0  0  0  0  0
    0.7884   -1.7522   -0.7937 C   0  0  0  0  0  0  0  0  0  0  0  0
    0.5048   -2.4781   -1.7424 O   0  0  0  0  0  0  0  0  0  0  0  0
   -0.2758   -1.4712    0.1894 C   0  0  0  0  0  0  0  0  0  0  0  0
   -0.1409   -1.8921    1.5169 C   0  0  0  0  0  0  0  0  0  0  0  0
   -1.1648   -1.6328    2.4290 C   0  0  0  0  0  0  0  0  0  0  0  0
   -2.3182   -0.9626    2.0100 C   0  0  0  0  0  0  0  0  0  0  0  0
   -3.5633   -0.6710    3.1738 Cl  0  0  0  0  0  0  0  0  0  0  0  0
   -2.4577   -0.5588    0.6707 C   0  0  0  0  0  0  0  0  0  0  0  0
   -3.6283    0.1645    0.2505 N   0  0  0  0  0  0  0  0  0  0  0  0
   -4.5363   -0.5128   -0.7021 C   0  0  0  0  0  0  0  0  0  0  0  0
   -5.7461    0.3607   -1.0528 C   0  0  0  0  0  0  0  0  0  0  0  0
   -6.1270    1.3106    0.0802 C   0  0  0  0  0  0  0  0  0  0  0  0
   -5.0857    2.4071    0.2909 C   0  0  0  0  0  0  0  0  0  0  0  0
   -3.4077    1.8331    0.0573 S   0  0  0  0  0  6  0  0  0  0  0  0
   -3.0255    2.0616   -1.3214 O   0  0  0  0  0  0  0  0  0  0  0  0
   -2.5956    2.3334    1.1467 O   0  0  0  0  0  0  0  0  0  0  0  0
   -1.4333   -0.8197   -0.2432 C   0  0  0  0  0  0  0  0  0  0  0  0
    2.3447   -0.1319    0.3776 C   0  0  0  0  0  0  0  0  0  0  0  0
    3.4643    0.8094   -0.1135 C   0  0  0  0  0  0  0  0  0  0  0  0
    5.6679    2.4175    0.8424 H   0  0  0  0  0  0  0  0  0  0  0  0
    6.7220    1.9953   -0.5206 H   0  0  0  0  0  0  0  0  0  0  0  0
    7.2558    1.7071    1.1414 H   0  0  0  0  0  0  0  0  0  0  0  0
    5.4791   -0.0317    1.4373 H   0  0  0  0  0  0  0  0  0  0  0  0
    6.6279   -0.3994    0.1513 H   0  0  0  0  0  0  0  0  0  0  0  0
    5.2752   -1.5710   -1.6182 H   0  0  0  0  0  0  0  0  0  0  0  0
    4.6048   -1.9087   -0.0168 H   0  0  0  0  0  0  0  0  0  0  0  0
    2.9730   -0.9433   -2.4274 H   0  0  0  0  0  0  0  0  0  0  0  0
    3.0304   -2.5954   -1.7984 H   0  0  0  0  0  0  0  0  0  0  0  0
    0.7510   -2.4259    1.8362 H   0  0  0  0  0  0  0  0  0  0  0  0
   -1.0616   -1.9558    3.4619 H   0  0  0  0  0  0  0  0  0  0  0  0
   -4.9017   -1.4295   -0.2220 H   0  0  0  0  0  0  0  0  0  0  0  0
   -4.0105   -0.8076   -1.6167 H   0  0  0  0  0  0  0  0  0  0  0  0
   -5.5331    0.9420   -1.9586 H   0  0  0  0  0  0  0  0  0  0  0  0
   -6.5943   -0.2885   -1.2995 H   0  0  0  0  0  0  0  0  0  0  0  0
   -6.2522    0.7372    1.0074 H   0  0  0  0  0  0  0  0  0  0  0  0
   -7.0968    1.7759   -0.1302 H   0  0  0  0  0  0  0  0  0  0  0  0
   -5.1688    2.8130    1.3036 H   0  0  0  0  0  0  0  0  0  0  0  0
   -5.2377    3.2234   -0.4229 H   0  0  0  0  0  0  0  0  0  0  0  0
   -1.5185   -0.5051   -1.2809 H   0  0  0  0  0  0  0  0  0  0  0  0
    2.6529   -0.6200    1.3096 H   0  0  0  0  0  0  0  0  0  0  0  0
    1.4443    0.4554    0.5830 H   0  0  0  0  0  0  0  0  0  0  0  0
    3.0851    1.3493   -0.9911 H   0  0  0  0  0  0  0  0  0  0  0  0
    3.6394    1.5745    0.6504 H   0  0  0  0  0  0  0  0  0  0  0  0
  1  2  1  0
  2  3  1  0
  3  4  1  0
  4  5  1  0
  5  6  1  0
  6  7  1  0
  7  8  2  0
  7  9  1  0
  9 10  2  0
 10 11  1  0
 11 12  2  0
 12 13  1  0
 12 14  1  0
 14 15  1  0
 15 16  1  0
 16 17  1  0
 17 18  1  0
 18 19  1  0
 19 20  1  0
 20 21  2  0
 20 22  2  0
 14 23  2  0
  6 24  1  0
 24 25  1  0
 25  3  1  0
 23  9  1  0
 20 15  1  0
  1 26  1  0
  1 27  1  0
  1 28  1  0
  2 29  1  0
  2 30  1  0
  4 31  1  0
  4 32  1  0
  5 33  1  0
  5 34  1  0
 10 35  1  0
 11 36  1  0
 16 37  1  0
 16 38  1  0
 17 39  1  0
 17 40  1  0
 18 41  1  0
 18 42  1  0
 19 43  1  0
 19 44  1  0
 23 45  1  0
 24 46  1  0
 24 47  1  0
 25 48  1  0
 25 49  1  0
M  END
$$$$
