
     RDKit          3D

 45 46  0  0  0  0  0  0  0  0999 V2000
   -5.9177    0.7847    0.6016 C   0  0  0  0  0  0  0  0  0  0  0  0
   -5.1125   -0.4735    0.2984 C   0  0  0  0  0  0  0  0  0  0  0  0
   -3.6578   -0.3996    0.8160 C   0  0  1  0  0  0  0  0  0  0  0  0
   -3.2687   -1.7750    1.3888 C   0  0  0  0  0  0  0  0  0  0  0  0
   -2.6302    0.0258   -0.2722 C   0  0  1  0  0  0  0  0  0  0  0  0
   -2.9920    1.3479   -0.9832 C   0  0  0  0  0  0  0  0  0  0  0  0
   -2.0105    1.6895   -1.9607 O   0  0  0  0  0  0  0  0  0  0  0  0
   -1.3041    0.1514    0.3301 N   0  0  0  0  0  0  0  0  0  0  0  0
   -0.1598   -0.3391   -0.2659 C   0  0  0  0  0  0  0  0  0  0  0  0
   -0.1592   -1.1392   -1.1964 O   0  0  0  0  0  0  0  0  0  0  0  0
    1.0734    0.1923    0.3534 C   0  0  0  0  0  0  0  0  0  0  0  0
    1.0112    1.1000    1.3548 N   0  0  0  0  0  0  0  0  0  0  0  0
    2.2937    1.3641    1.6413 N   0  0  0  0  0  0  0  0  0  0  0  0
    3.1849    0.6769    0.8723 C   0  0  0  0  0  0  0  0  0  0  0  0
    2.4311   -0.1201    0.0313 C   0  0  0  0  0  0  0  0  0  0  0  0
    2.9398   -1.0738   -1.0014 C   0  0  0  0  0  0  0  0  0  0  0  0
    4.3059   -1.6708   -0.6538 C   0  0  0  0  0  0  0  0  0  0  0  0
    5.4994   -0.7314   -0.8589 C   0  0  0  0  0  0  0  0  0  0  0  0
    5.3606    0.7077   -0.3491 C   0  0  0  0  0  0  0  0  0  0  0  0
    4.6589    0.8455    1.0023 C   0  0  0  0  0  0  0  0  0  0  0  0
   -5.9851    0.9494    1.6820 H   0  0  0  0  0  0  0  0  0  0  0  0
   -6.9367    0.6790    0.2154 H   0  0  0  0  0  0  0  0  0  0  0  0
   -5.4803    1.6776    0.1501 H   0  0  0  0  0  0  0  0  0  0  0  0
   -5.1298   -0.6773   -0.7785 H   0  0  0  0  0  0  0  0  0  0  0  0
   -5.6421   -1.3091    0.7731 H   0  0  0  0  0  0  0  0  0  0  0  0
   -3.6078    0.3164    1.6477 H   0  0  0  0  0  0  0  0  0  0  0  0
   -3.2780   -2.5444    0.6091 H   0  0  0  0  0  0  0  0  0  0  0  0
   -2.2708   -1.7570    1.8384 H   0  0  0  0  0  0  0  0  0  0  0  0
   -3.9680   -2.0794    2.1753 H   0  0  0  0  0  0  0  0  0  0  0  0
   -2.5762   -0.7575   -1.0390 H   0  0  0  0  0  0  0  0  0  0  0  0
   -3.9472    1.2628   -1.5074 H   0  0  0  0  0  0  0  0  0  0  0  0
   -3.0485    2.1706   -0.2623 H   0  0  0  0  0  0  0  0  0  0  0  0
   -2.2819    2.5311   -2.3627 H   0  0  0  0  0  0  0  0  0  0  0  0
   -1.1212    0.8846    1.0101 H   0  0  0  0  0  0  0  0  0  0  0  0
    2.4923    2.0374    2.3738 H   0  0  0  0  0  0  0  0  0  0  0  0
    2.2355   -1.9085   -1.0924 H   0  0  0  0  0  0  0  0  0  0  0  0
    2.9779   -0.5755   -1.9770 H   0  0  0  0  0  0  0  0  0  0  0  0
    4.4702   -2.5562   -1.2814 H   0  0  0  0  0  0  0  0  0  0  0  0
    4.3022   -2.0335    0.3825 H   0  0  0  0  0  0  0  0  0  0  0  0
    5.7384   -0.6890   -1.9292 H   0  0  0  0  0  0  0  0  0  0  0  0
    6.3721   -1.1913   -0.3773 H   0  0  0  0  0  0  0  0  0  0  0  0
    4.8392    1.3097   -1.1051 H   0  0  0  0  0  0  0  0  0  0  0  0
    6.3692    1.1324   -0.2688 H   0  0  0  0  0  0  0  0  0  0  0  0
    4.8720    1.8446    1.4027 H   0  0  0  0  0  0  0  0  0  0  0  0
    5.0583    0.1200    1.7202 H   0  0  0  0  0  0  0  0  0  0  0  0
  1  2  1  0
  2  3  1  0
  3  4  1  0
  3  5  1  0
  5  6  1  0
  6  7  1  0
  5  8  1  0
  8  9  1  0
  9 10  2  0
  9 11  1  0
 11 12  2  0
 12 13  1  0
 13 14  1  0
 14 15  2  0
 15 16  1  0
 16 17  1  0
 17 18  1  0
 18 19  1  0
 19 20  1  0
 15 11  1  0
 20 14  1  0
  1 21  1  0
  1 22  1  0
  1 23  1  0
  2 24  1  0
  2 25  1  0
  3 26  1  1
  4 27  1  0
  4 28  1  0
  4 29  1  0
  5 30  1  6
  6 31  1  0
  6 32  1  0
  7 33  1  0
  8 34  1  0
 13 35  1  0
 16 36  1  0
 16 37  1  0
 17 38  1  0
 17 39  1  0
 18 40  1  0
 18 41  1  0
 19 42  1  0
 19 43  1  0
 20 44  1  0
 20 45  1  0
M  END
$$$$
