
     RDKit          3D

 40 41  0  0  0  0  0  0  0  0999 V2000
   -5.6543    0.4888   -0.2334 C   0  0  0  0  0  0  0  0  0  0  0  0
   -4.2038    0.3808    0.1351 C   0  0  0  0  0  0  0  0  0  0  0  0
   -3.8255    0.1389    1.4604 C   0  0  0  0  0  0  0  0  0  0  0  0
   -2.4763    0.0096    1.7981 C   0  0  0  0  0  0  0  0  0  0  0  0
   -1.4914    0.1174    0.8160 C   0  0  0  0  0  0  0  0  0  0  0  0
   -0.1166   -0.0580    1.1866 N   0  0  0  0  0  0  0  0  0  0  0  0
    0.9025    1.0042    0.9262 C   0  0  0  0  0  0  0  0  0  0  0  0
    0.3141    2.4155    0.9871 C   0  0  0  0  0  0  0  0  0  0  0  0
    1.6665    0.7962   -0.3826 C   0  0  0  0  0  0  0  0  0  0  0  0
    1.2786    1.2339   -1.4646 O   0  0  0  0  0  0  0  0  0  0  0  0
    2.8149    0.0336   -0.2480 N   0  0  0  0  0  0  0  0  0  0  0  0
    3.6451   -0.3078   -1.3585 C   0  0  0  0  0  0  0  0  0  0  0  0
    4.9748    0.3688   -1.5432 C   0  0  0  0  0  0  0  0  0  0  0  0
    4.9199   -1.0784   -1.1492 C   0  0  0  0  0  0  0  0  0  0  0  0
    0.4192   -1.6473    1.4301 S   0  0  0  0  0  6  0  0  0  0  0  0
    0.2421   -2.3939   -0.1822 C   0  0  0  0  0  0  0  0  0  0  0  0
    1.8380   -1.5868    1.7343 O   0  0  0  0  0  0  0  0  0  0  0  0
   -0.4900   -2.3275    2.3278 O   0  0  0  0  0  0  0  0  0  0  0  0
   -1.8641    0.3294   -0.5126 C   0  0  0  0  0  0  0  0  0  0  0  0
   -3.2137    0.4618   -0.8504 C   0  0  0  0  0  0  0  0  0  0  0  0
   -6.2359    0.9159    0.5903 H   0  0  0  0  0  0  0  0  0  0  0  0
   -6.0537   -0.5012   -0.4733 H   0  0  0  0  0  0  0  0  0  0  0  0
   -5.7890    1.1450   -1.0999 H   0  0  0  0  0  0  0  0  0  0  0  0
   -4.5781    0.0446    2.2401 H   0  0  0  0  0  0  0  0  0  0  0  0
   -2.2000   -0.1834    2.8322 H   0  0  0  0  0  0  0  0  0  0  0  0
    1.6261    0.9644    1.7522 H   0  0  0  0  0  0  0  0  0  0  0  0
   -0.2276    2.5770    1.9251 H   0  0  0  0  0  0  0  0  0  0  0  0
    1.1155    3.1610    0.9292 H   0  0  0  0  0  0  0  0  0  0  0  0
   -0.3688    2.6241    0.1577 H   0  0  0  0  0  0  0  0  0  0  0  0
    2.9427   -0.4861    0.6247 H   0  0  0  0  0  0  0  0  0  0  0  0
    3.0844   -0.5383   -2.2628 H   0  0  0  0  0  0  0  0  0  0  0  0
    5.2940    1.0890   -0.7987 H   0  0  0  0  0  0  0  0  0  0  0  0
    5.2768    0.6143   -2.5549 H   0  0  0  0  0  0  0  0  0  0  0  0
    5.2140   -1.3391   -0.1389 H   0  0  0  0  0  0  0  0  0  0  0  0
    5.1918   -1.8175   -1.8940 H   0  0  0  0  0  0  0  0  0  0  0  0
    0.6695   -3.3982   -0.1275 H   0  0  0  0  0  0  0  0  0  0  0  0
    0.7820   -1.8108   -0.9267 H   0  0  0  0  0  0  0  0  0  0  0  0
   -0.8174   -2.4677   -0.4317 H   0  0  0  0  0  0  0  0  0  0  0  0
   -1.1202    0.3987   -1.3008 H   0  0  0  0  0  0  0  0  0  0  0  0
   -3.4860    0.6294   -1.8905 H   0  0  0  0  0  0  0  0  0  0  0  0
  1  2  1  0
  2  3  2  0
  3  4  1  0
  4  5  2  0
  5  6  1  0
  6  7  1  0
  7  8  1  0
  7  9  1  0
  9 10  2  0
  9 11  1  0
 11 12  1  0
 12 13  1  0
 13 14  1  0
  6 15  1  0
 15 16  1  0
 15 17  2  0
 15 18  2  0
  5 19  1  0
 19 20  2  0
 20  2  1  0
 14 12  1  0
  1 21  1  0
  1 22  1  0
  1 23  1  0
  3 24  1  0
  4 25  1  0
  7 26  1  0
  8 27  1  0
  8 28  1  0
  8 29  1  0
 11 30  1  0
 12 31  1  0
 13 32  1  0
 13 33  1  0
 14 34  1  0
 14 35  1  0
 16 36  1  0
 16 37  1  0
 16 38  1  0
 19 39  1  0
 20 40  1  0
M  END
$$$$
