
     RDKit          3D

 59 61  0  0  0  0  0  0  0  0999 V2000
   -3.7904    0.8745   -3.3438 C   0  0  0  0  0  0  0  0  0  0  0  0
   -2.8011    0.7581   -2.2168 C   0  0  0  0  0  0  0  0  0  0  0  0
   -1.6876    1.6158   -2.2164 C   0  0  0  0  0  0  0  0  0  0  0  0
   -0.7280    1.5545   -1.2014 C   0  0  0  0  0  0  0  0  0  0  0  0
   -0.8539    0.6156   -0.1737 C   0  0  0  0  0  0  0  0  0  0  0  0
    0.1239    0.5410    0.9457 C   0  0  0  0  0  0  0  0  0  0  0  0
   -0.2387    0.1357    2.0440 O   0  0  0  0  0  0  0  0  0  0  0  0
    1.4176    0.9273    0.6602 N   0  0  0  0  0  0  0  0  0  0  0  0
    2.4698    0.8413    1.6554 C   0  0  0  0  0  0  0  0  0  0  0  0
    3.0547   -0.5645    1.7938 C   0  0  0  0  0  0  0  0  0  0  0  0
    3.7256   -1.1351    0.5330 C   0  0  0  0  0  0  0  0  0  0  0  0
    5.1024   -0.7415    0.2300 N   0  0  0  0  0  0  0  0  0  0  0  0
    5.3321    0.6660   -0.0451 C   0  0  0  0  0  0  0  0  0  0  0  0
    6.6525    0.8385   -0.8055 C   0  0  0  0  0  0  0  0  0  0  0  0
    7.7686   -0.0786   -0.2988 C   0  0  0  0  0  0  0  0  0  0  0  0
    7.4594   -0.6187    1.0904 C   0  0  0  0  0  0  0  0  0  0  0  0
    6.1006   -1.3329    1.1271 C   0  0  0  0  0  0  0  0  0  0  0  0
   -1.9507   -0.2522   -0.1605 C   0  0  0  0  0  0  0  0  0  0  0  0
   -2.9192   -0.1828   -1.1744 C   0  0  0  0  0  0  0  0  0  0  0  0
   -4.2882   -1.3275   -1.0898 S   0  0  0  0  0  6  0  0  0  0  0  0
   -4.5494   -1.8143   -2.4272 O   0  0  0  0  0  0  0  0  0  0  0  0
   -4.0528   -2.2579   -0.0061 O   0  0  0  0  0  0  0  0  0  0  0  0
   -5.5853   -0.3240   -0.6167 N   0  0  0  0  0  0  0  0  0  0  0  0
   -6.9320   -0.9812   -0.7313 C   0  0  0  0  0  0  0  0  0  0  0  0
   -7.4855   -1.3492    0.6463 C   0  0  0  0  0  0  0  0  0  0  0  0
   -7.6852   -0.2081    1.4929 O   0  0  0  0  0  0  0  0  0  0  0  0
   -6.7608    0.8579    1.2338 C   0  0  0  0  0  0  0  0  0  0  0  0
   -5.4097    0.3659    0.7054 C   0  0  0  0  0  0  0  0  0  0  0  0
   -3.6539    1.8125   -3.8932 H   0  0  0  0  0  0  0  0  0  0  0  0
   -4.8187    0.8842   -2.9738 H   0  0  0  0  0  0  0  0  0  0  0  0
   -3.6554    0.0533   -4.0531 H   0  0  0  0  0  0  0  0  0  0  0  0
   -1.5649    2.3544   -3.0079 H   0  0  0  0  0  0  0  0  0  0  0  0
    0.0928    2.2667   -1.2155 H   0  0  0  0  0  0  0  0  0  0  0  0
    1.6952    1.0401   -0.3050 H   0  0  0  0  0  0  0  0  0  0  0  0
    3.2286    1.5801    1.3884 H   0  0  0  0  0  0  0  0  0  0  0  0
    2.0508    1.1469    2.6228 H   0  0  0  0  0  0  0  0  0  0  0  0
    2.2430   -1.2501    2.0719 H   0  0  0  0  0  0  0  0  0  0  0  0
    3.7536   -0.5744    2.6369 H   0  0  0  0  0  0  0  0  0  0  0  0
    3.1029   -0.9248   -0.3449 H   0  0  0  0  0  0  0  0  0  0  0  0
    3.7103   -2.2309    0.6186 H   0  0  0  0  0  0  0  0  0  0  0  0
    4.5295    1.0835   -0.6646 H   0  0  0  0  0  0  0  0  0  0  0  0
    5.3648    1.2473    0.8843 H   0  0  0  0  0  0  0  0  0  0  0  0
    6.4982    0.6431   -1.8732 H   0  0  0  0  0  0  0  0  0  0  0  0
    6.9708    1.8843   -0.7246 H   0  0  0  0  0  0  0  0  0  0  0  0
    7.8865   -0.9211   -0.9912 H   0  0  0  0  0  0  0  0  0  0  0  0
    8.7243    0.4583   -0.2986 H   0  0  0  0  0  0  0  0  0  0  0  0
    7.4585    0.2135    1.8073 H   0  0  0  0  0  0  0  0  0  0  0  0
    8.2492   -1.3102    1.4080 H   0  0  0  0  0  0  0  0  0  0  0  0
    5.7620   -1.3442    2.1687 H   0  0  0  0  0  0  0  0  0  0  0  0
    6.2443   -2.3796    0.8307 H   0  0  0  0  0  0  0  0  0  0  0  0
   -2.0451   -0.9775    0.6472 H   0  0  0  0  0  0  0  0  0  0  0  0
   -6.8898   -1.8728   -1.3635 H   0  0  0  0  0  0  0  0  0  0  0  0
   -7.5944   -0.2654   -1.2327 H   0  0  0  0  0  0  0  0  0  0  0  0
   -6.8118   -2.0407    1.1638 H   0  0  0  0  0  0  0  0  0  0  0  0
   -8.4532   -1.8501    0.5418 H   0  0  0  0  0  0  0  0  0  0  0  0
   -6.6225    1.4068    2.1704 H   0  0  0  0  0  0  0  0  0  0  0  0
   -7.2307    1.5431    0.5191 H   0  0  0  0  0  0  0  0  0  0  0  0
   -4.7415    1.2224    0.5718 H   0  0  0  0  0  0  0  0  0  0  0  0
   -4.9719   -0.3226    1.4366 H   0  0  0  0  0  0  0  0  0  0  0  0
  1  2  1  0
  2  3  2  0
  3  4  1  0
  4  5  2  0
  5  6  1  0
  6  7  2  0
  6  8  1  0
  8  9  1  0
  9 10  1  0
 10 11  1  0
 11 12  1  0
 12 13  1  0
 13 14  1  0
 14 15  1  0
 15 16  1  0
 16 17  1  0
  5 18  1  0
 18 19  2  0
 19 20  1  0
 20 21  2  0
 20 22  2  0
 20 23  1  0
 23 24  1  0
 24 25  1  0
 25 26  1  0
 26 27  1  0
 27 28  1  0
 19  2  1  0
 28 23  1  0
 17 12  1  0
  1 29  1  0
  1 30  1  0
  1 31  1  0
  3 32  1  0
  4 33  1  0
  8 34  1  0
  9 35  1  0
  9 36  1  0
 10 37  1  0
 10 38  1  0
 11 39  1  0
 11 40  1  0
 13 41  1  0
 13 42  1  0
 14 43  1  0
 14 44  1  0
 15 45  1  0
 15 46  1  0
 16 47  1  0
 16 48  1  0
 17 49  1  0
 17 50  1  0
 18 51  1  0
 24 52  1  0
 24 53  1  0
 25 54  1  0
 25 55  1  0
 27 56  1  0
 27 57  1  0
 28 58  1  0
 28 59  1  0
M  END
$$$$
