
     RDKit          3D

 35 37  0  0  0  0  0  0  0  0999 V2000
    6.4766    0.1285   -0.7199 C   0  0  0  0  0  0  0  0  0  0  0  0
    5.7153   -0.3774    0.4772 C   0  0  0  0  0  0  0  0  0  0  0  0
    6.3012   -0.8212    1.4629 O   0  0  0  0  0  0  0  0  0  0  0  0
    4.2230   -0.3351    0.4569 C   0  0  0  0  0  0  0  0  0  0  0  0
    3.5022    0.1554   -0.6353 C   0  0  0  0  0  0  0  0  0  0  0  0
    2.1001    0.1754   -0.6082 C   0  0  0  0  0  0  0  0  0  0  0  0
    1.4003   -0.2905    0.5063 C   0  0  0  0  0  0  0  0  0  0  0  0
   -0.0057   -0.3082    0.6115 N   0  0  0  0  0  0  0  0  0  0  0  0
   -0.9349    0.1710   -0.2951 C   0  0  0  0  0  0  0  0  0  0  0  0
   -0.6516    0.7445   -1.3415 O   0  0  0  0  0  0  0  0  0  0  0  0
   -2.3276   -0.0418    0.1124 C   0  0  0  0  0  0  0  0  0  0  0  0
   -2.8378   -0.9112    1.0837 C   0  0  0  0  0  0  0  0  0  0  0  0
   -4.2246   -0.7137    1.0484 C   0  0  0  0  0  0  0  0  0  0  0  0
   -5.3205   -1.1942    1.6883 O   0  0  0  0  0  0  0  0  0  0  0  0
   -6.3664   -0.5323    1.1130 C   0  0  0  0  0  0  0  0  0  0  0  0
   -5.9710    0.3486    0.1310 C   0  0  0  0  0  0  0  0  0  0  0  0
   -4.5678    0.1978    0.1213 C   0  0  0  0  0  0  0  0  0  0  0  0
   -3.4079    0.6234   -0.4746 N   0  0  0  0  0  0  0  0  0  0  0  0
   -3.3684    1.6106   -1.5267 C   0  0  0  0  0  0  0  0  0  0  0  0
    2.1262   -0.7844    1.5968 C   0  0  0  0  0  0  0  0  0  0  0  0
    3.5249   -0.8060    1.5741 C   0  0  0  0  0  0  0  0  0  0  0  0
    6.2623    1.1875   -0.8857 H   0  0  0  0  0  0  0  0  0  0  0  0
    7.5501    0.0256   -0.5326 H   0  0  0  0  0  0  0  0  0  0  0  0
    6.2291   -0.4639   -1.6045 H   0  0  0  0  0  0  0  0  0  0  0  0
    3.9986    0.5295   -1.5260 H   0  0  0  0  0  0  0  0  0  0  0  0
    1.5868    0.5608   -1.4841 H   0  0  0  0  0  0  0  0  0  0  0  0
   -0.3737   -0.6772    1.4758 H   0  0  0  0  0  0  0  0  0  0  0  0
   -2.3035   -1.6018    1.7186 H   0  0  0  0  0  0  0  0  0  0  0  0
   -7.3366   -0.7984    1.5111 H   0  0  0  0  0  0  0  0  0  0  0  0
   -6.5993    0.9865   -0.4718 H   0  0  0  0  0  0  0  0  0  0  0  0
   -4.3657    2.0320   -1.6774 H   0  0  0  0  0  0  0  0  0  0  0  0
   -2.6836    2.4099   -1.2331 H   0  0  0  0  0  0  0  0  0  0  0  0
   -3.0359    1.1232   -2.4464 H   0  0  0  0  0  0  0  0  0  0  0  0
    1.6195   -1.1591    2.4829 H   0  0  0  0  0  0  0  0  0  0  0  0
    4.0661   -1.1937    2.4357 H   0  0  0  0  0  0  0  0  0  0  0  0
  1  2  1  0
  2  3  2  0
  2  4  1  0
  4  5  2  0
  5  6  1  0
  6  7  2  0
  7  8  1  0
  8  9  1  0
  9 10  2  0
  9 11  1  0
 11 12  2  0
 12 13  1  0
 13 14  1  0
 14 15  1  0
 15 16  2  0
 16 17  1  0
 17 18  1  0
 18 19  1  0
  7 20  1  0
 20 21  2  0
 21  4  1  0
 18 11  1  0
 17 13  2  0
  1 22  1  0
  1 23  1  0
  1 24  1  0
  5 25  1  0
  6 26  1  0
  8 27  1  0
 12 28  1  0
 15 29  1  0
 16 30  1  0
 19 31  1  0
 19 32  1  0
 19 33  1  0
 20 34  1  0
 21 35  1  0
M  END
$$$$
