
     RDKit          3D

 49 52  0  0  0  0  0  0  0  0999 V2000
    0.5325    1.3143   -3.3036 O   0  0  0  0  0  0  0  0  0  0  0  0
    0.2318    0.8300   -2.2160 C   0  0  0  0  0  0  0  0  0  0  0  0
   -1.0054    0.0294   -2.1473 C   0  0  0  0  0  0  0  0  0  0  0  0
   -1.1063   -1.1366   -2.9104 C   0  0  0  0  0  0  0  0  0  0  0  0
   -2.2455   -1.9340   -2.7961 C   0  0  0  0  0  0  0  0  0  0  0  0
   -3.2846   -1.5550   -1.9356 C   0  0  0  0  0  0  0  0  0  0  0  0
   -4.6056   -2.6574   -1.7555 Cl  0  0  0  0  0  0  0  0  0  0  0  0
   -3.2132   -0.3382   -1.2257 C   0  0  0  0  0  0  0  0  0  0  0  0
   -4.1830    0.0852   -0.2602 N   0  0  0  0  0  0  0  0  0  0  0  0
   -5.5369    0.1807   -0.6605 C   0  0  0  0  0  0  0  0  0  0  0  0
   -5.9192    0.4259   -1.7953 O   0  0  0  0  0  0  0  0  0  0  0  0
   -6.4541    0.0081    0.5294 C   0  0  0  0  0  0  0  0  0  0  0  0
   -5.7062   -0.8918    1.5051 C   0  0  0  0  0  0  0  0  0  0  0  0
   -3.9928   -0.4480    1.3357 S   0  0  0  0  0  6  0  0  0  0  0  0
   -3.7269    0.7079    2.1640 O   0  0  0  0  0  0  0  0  0  0  0  0
   -3.1679   -1.6351    1.3770 O   0  0  0  0  0  0  0  0  0  0  0  0
   -2.0588    0.4444   -1.3249 C   0  0  0  0  0  0  0  0  0  0  0  0
    0.9770    0.9967   -1.0442 N   0  0  0  0  0  0  0  0  0  0  0  0
    2.2534    1.7142   -1.1810 C   0  0  0  0  0  0  0  0  0  0  0  0
    2.7623    2.2841    0.1552 C   0  0  0  0  0  0  0  0  0  0  0  0
    2.8289    1.2176    1.1864 N   0  0  0  0  0  0  0  0  0  0  0  0
    4.0020    0.4588    1.2484 C   0  0  0  0  0  0  0  0  0  0  0  0
    4.0111   -0.9432    1.3733 C   0  0  0  0  0  0  0  0  0  0  0  0
    5.2075   -1.6728    1.4293 C   0  0  0  0  0  0  0  0  0  0  0  0
    6.4235   -1.0060    1.3810 C   0  0  0  0  0  0  0  0  0  0  0  0
    7.5669   -1.7020    1.4345 F   0  0  0  0  0  0  0  0  0  0  0  0
    6.4632    0.3759    1.2952 C   0  0  0  0  0  0  0  0  0  0  0  0
    5.2629    1.0952    1.2410 C   0  0  0  0  0  0  0  0  0  0  0  0
    1.5048    0.5873    1.3866 C   0  0  0  0  0  0  0  0  0  0  0  0
    0.9335    0.0250    0.0682 C   0  0  0  0  0  0  0  0  0  0  0  0
   -0.2906   -1.4346   -3.5680 H   0  0  0  0  0  0  0  0  0  0  0  0
   -2.3045   -2.8631   -3.3604 H   0  0  0  0  0  0  0  0  0  0  0  0
   -6.6330    0.9972    0.9637 H   0  0  0  0  0  0  0  0  0  0  0  0
   -7.4067   -0.4343    0.2272 H   0  0  0  0  0  0  0  0  0  0  0  0
   -6.0285   -0.7397    2.5375 H   0  0  0  0  0  0  0  0  0  0  0  0
   -5.8147   -1.9497    1.2323 H   0  0  0  0  0  0  0  0  0  0  0  0
   -1.9698    1.3675   -0.7554 H   0  0  0  0  0  0  0  0  0  0  0  0
    2.9794    1.0001   -1.5880 H   0  0  0  0  0  0  0  0  0  0  0  0
    2.1466    2.5261   -1.9073 H   0  0  0  0  0  0  0  0  0  0  0  0
    3.7151    2.7984    0.0002 H   0  0  0  0  0  0  0  0  0  0  0  0
    2.0596    3.0488    0.5103 H   0  0  0  0  0  0  0  0  0  0  0  0
    3.0874   -1.5157    1.4184 H   0  0  0  0  0  0  0  0  0  0  0  0
    5.1910   -2.7565    1.5102 H   0  0  0  0  0  0  0  0  0  0  0  0
    7.4205    0.8924    1.2841 H   0  0  0  0  0  0  0  0  0  0  0  0
    5.3297    2.1826    1.2286 H   0  0  0  0  0  0  0  0  0  0  0  0
    1.5240   -0.1785    2.1703 H   0  0  0  0  0  0  0  0  0  0  0  0
    0.8204    1.3630    1.7562 H   0  0  0  0  0  0  0  0  0  0  0  0
    1.5072   -0.8487   -0.2628 H   0  0  0  0  0  0  0  0  0  0  0  0
   -0.0879   -0.3161    0.2456 H   0  0  0  0  0  0  0  0  0  0  0  0
  1  2  2  0
  2  3  1  0
  3  4  2  0
  4  5  1  0
  5  6  2  0
  6  7  1  0
  6  8  1  0
  8  9  1  0
  9 10  1  0
 10 11  2  0
 10 12  1  0
 12 13  1  0
 13 14  1  0
 14 15  2  0
 14 16  2  0
  8 17  2  0
  2 18  1  0
 18 19  1  0
 19 20  1  0
 20 21  1  0
 21 22  1  0
 22 23  2  0
 23 24  1  0
 24 25  2  0
 25 26  1  0
 25 27  1  0
 27 28  2  0
 21 29  1  0
 29 30  1  0
 17  3  1  0
 30 18  1  0
 14  9  1  0
 28 22  1  0
  4 31  1  0
  5 32  1  0
 12 33  1  0
 12 34  1  0
 13 35  1  0
 13 36  1  0
 17 37  1  0
 19 38  1  0
 19 39  1  0
 20 40  1  0
 20 41  1  0
 23 42  1  0
 24 43  1  0
 27 44  1  0
 28 45  1  0
 29 46  1  0
 29 47  1  0
 30 48  1  0
 30 49  1  0
M  END
$$$$
