
     RDKit          3D

 59 62  0  0  0  0  0  0  0  0999 V2000
    6.2520    1.5577   -2.2806 C   0  0  0  0  0  0  0  0  0  0  0  0
    5.0054    2.1952   -1.6832 C   0  0  0  0  0  0  0  0  0  0  0  0
    4.1694    1.2321   -0.8432 C   0  0  0  0  0  0  0  0  0  0  0  0
    4.9251    0.8504    0.7426 S   0  0  0  0  0  6  0  0  0  0  0  0
    5.0733    2.0816    1.4889 O   0  0  0  0  0  0  0  0  0  0  0  0
    6.0491   -0.0322    0.5157 O   0  0  0  0  0  0  0  0  0  0  0  0
    3.7370   -0.0611    1.5148 N   0  0  0  0  0  0  0  0  0  0  0  0
    2.5565    0.6655    2.0618 C   0  0  0  0  0  0  0  0  0  0  0  0
    1.4727   -0.3184    2.5241 C   0  0  0  0  0  0  0  0  0  0  0  0
    0.9776   -1.1638    1.4073 N   0  0  0  0  0  0  0  0  0  0  0  0
   -0.2156   -0.7466    0.8346 C   0  0  0  0  0  0  0  0  0  0  0  0
   -0.1877    0.3199    0.0800 N   0  0  0  0  0  0  0  0  0  0  0  0
   -1.3709    0.7033   -0.4443 C   0  0  0  0  0  0  0  0  0  0  0  0
   -1.4865    2.0642   -1.4676 S   0  0  0  0  0  0  0  0  0  0  0  0
   -3.1648    1.8552   -1.6504 C   0  0  0  0  0  0  0  0  0  0  0  0
   -3.6490    0.7739   -0.9364 C   0  0  0  0  0  0  0  0  0  0  0  0
   -2.5881    0.0989   -0.2476 C   0  0  0  0  0  0  0  0  0  0  0  0
   -2.6279   -1.0833    0.5905 C   0  0  0  0  0  0  0  0  0  0  0  0
   -3.6853   -1.6673    0.8113 O   0  0  0  0  0  0  0  0  0  0  0  0
   -1.3817   -1.4789    1.1052 N   0  0  0  0  0  0  0  0  0  0  0  0
   -1.3291   -2.6840    1.9609 C   0  0  0  0  0  0  0  0  0  0  0  0
   -2.0861   -2.4919    3.2783 C   0  0  0  0  0  0  0  0  0  0  0  0
   -1.7798   -3.9498    1.2242 C   0  0  0  0  0  0  0  0  0  0  0  0
   -5.1029    0.3974   -0.9559 C   0  0  0  0  0  0  0  0  0  0  0  0
   -5.9801    1.5332   -1.5074 C   0  0  0  0  0  0  0  0  0  0  0  0
   -5.3702    2.1650   -2.7660 C   0  0  0  0  0  0  0  0  0  0  0  0
   -3.9961    2.7882   -2.4754 C   0  0  0  0  0  0  0  0  0  0  0  0
    2.0415   -1.5638    0.4490 C   0  0  0  0  0  0  0  0  0  0  0  0
    3.4579   -1.4395    1.0270 C   0  0  0  0  0  0  0  0  0  0  0  0
    6.9783    1.2885   -1.5083 H   0  0  0  0  0  0  0  0  0  0  0  0
    6.7463    2.2612   -2.9588 H   0  0  0  0  0  0  0  0  0  0  0  0
    6.0011    0.6571   -2.8512 H   0  0  0  0  0  0  0  0  0  0  0  0
    5.2935    3.0722   -1.0921 H   0  0  0  0  0  0  0  0  0  0  0  0
    4.3819    2.5576   -2.5104 H   0  0  0  0  0  0  0  0  0  0  0  0
    3.2042    1.7010   -0.6332 H   0  0  0  0  0  0  0  0  0  0  0  0
    4.0018    0.2906   -1.3744 H   0  0  0  0  0  0  0  0  0  0  0  0
    2.8806    1.2641    2.9197 H   0  0  0  0  0  0  0  0  0  0  0  0
    2.1440    1.3401    1.3062 H   0  0  0  0  0  0  0  0  0  0  0  0
    1.8743   -0.9816    3.3005 H   0  0  0  0  0  0  0  0  0  0  0  0
    0.6426    0.2320    2.9836 H   0  0  0  0  0  0  0  0  0  0  0  0
   -0.2895   -2.8745    2.2461 H   0  0  0  0  0  0  0  0  0  0  0  0
   -1.7306   -1.5961    3.7990 H   0  0  0  0  0  0  0  0  0  0  0  0
   -3.1642   -2.3838    3.1290 H   0  0  0  0  0  0  0  0  0  0  0  0
   -1.9299   -3.3509    3.9400 H   0  0  0  0  0  0  0  0  0  0  0  0
   -1.2398   -4.0575    0.2767 H   0  0  0  0  0  0  0  0  0  0  0  0
   -1.5751   -4.8379    1.8324 H   0  0  0  0  0  0  0  0  0  0  0  0
   -2.8509   -3.9498    1.0013 H   0  0  0  0  0  0  0  0  0  0  0  0
   -5.2241   -0.4929   -1.5835 H   0  0  0  0  0  0  0  0  0  0  0  0
   -5.4472    0.1405    0.0527 H   0  0  0  0  0  0  0  0  0  0  0  0
   -6.9825    1.1481   -1.7267 H   0  0  0  0  0  0  0  0  0  0  0  0
   -6.0946    2.3112   -0.7414 H   0  0  0  0  0  0  0  0  0  0  0  0
   -6.0427    2.9338   -3.1627 H   0  0  0  0  0  0  0  0  0  0  0  0
   -5.2702    1.3940   -3.5406 H   0  0  0  0  0  0  0  0  0  0  0  0
   -3.4984    3.0346   -3.4204 H   0  0  0  0  0  0  0  0  0  0  0  0
   -4.1345    3.7248   -1.9207 H   0  0  0  0  0  0  0  0  0  0  0  0
    1.8606   -2.6027    0.1512 H   0  0  0  0  0  0  0  0  0  0  0  0
    1.9833   -0.9531   -0.4603 H   0  0  0  0  0  0  0  0  0  0  0  0
    3.5837   -2.1244    1.8743 H   0  0  0  0  0  0  0  0  0  0  0  0
    4.1826   -1.7474    0.2664 H   0  0  0  0  0  0  0  0  0  0  0  0
  1  2  1  0
  2  3  1  0
  3  4  1  0
  4  5  2  0
  4  6  2  0
  4  7  1  0
  7  8  1  0
  8  9  1  0
  9 10  1  0
 10 11  1  0
 11 12  2  0
 12 13  1  0
 13 14  1  0
 14 15  1  0
 15 16  2  0
 16 17  1  0
 17 18  1  0
 18 19  2  0
 18 20  1  0
 20 21  1  0
 21 22  1  0
 21 23  1  0
 16 24  1  0
 24 25  1  0
 25 26  1  0
 26 27  1  0
 10 28  1  0
 28 29  1  0
 29  7  1  0
 20 11  1  0
 17 13  2  0
 27 15  1  0
  1 30  1  0
  1 31  1  0
  1 32  1  0
  2 33  1  0
  2 34  1  0
  3 35  1  0
  3 36  1  0
  8 37  1  0
  8 38  1  0
  9 39  1  0
  9 40  1  0
 21 41  1  0
 22 42  1  0
 22 43  1  0
 22 44  1  0
 23 45  1  0
 23 46  1  0
 23 47  1  0
 24 48  1  0
 24 49  1  0
 25 50  1  0
 25 51  1  0
 26 52  1  0
 26 53  1  0
 27 54  1  0
 27 55  1  0
 28 56  1  0
 28 57  1  0
 29 58  1  0
 29 59  1  0
M  END
$$$$
