
     RDKit          3D

 49 52  0  0  0  0  0  0  0  0999 V2000
   -0.8346   -1.3652   -1.5689 O   0  0  0  0  0  0  0  0  0  0  0  0
   -1.2406   -1.2389   -0.4131 C   0  0  0  0  0  0  0  0  0  0  0  0
   -2.6661   -0.8955   -0.2420 C   0  0  0  0  0  0  0  0  0  0  0  0
   -3.4094   -1.4078    0.8056 C   0  0  0  0  0  0  0  0  0  0  0  0
   -4.7172   -1.1231    1.0179 N   0  0  0  0  0  0  0  0  0  0  0  0
   -5.3421   -0.3180    0.1410 C   0  0  0  0  0  0  0  0  0  0  0  0
   -6.6830   -0.0152    0.3463 C   0  0  0  0  0  0  0  0  0  0  0  0
   -7.3928    0.8076   -0.5321 C   0  0  0  0  0  0  0  0  0  0  0  0
   -6.7469    1.3357   -1.6378 C   0  0  0  0  0  0  0  0  0  0  0  0
   -7.4204    2.1250   -2.4837 F   0  0  0  0  0  0  0  0  0  0  0  0
   -5.4092    1.0552   -1.8759 C   0  0  0  0  0  0  0  0  0  0  0  0
   -4.6900    0.2277   -0.9883 C   0  0  0  0  0  0  0  0  0  0  0  0
   -3.3329   -0.0963   -1.1709 C   0  0  0  0  0  0  0  0  0  0  0  0
   -2.6888    0.3933   -2.2844 O   0  0  0  0  0  0  0  0  0  0  0  0
   -0.4308   -1.4068    0.7103 N   0  0  0  0  0  0  0  0  0  0  0  0
    0.9281   -1.9002    0.4825 C   0  0  0  0  0  0  0  0  0  0  0  0
    1.9221   -0.7377    0.2740 C   0  0  0  0  0  0  0  0  0  0  0  0
    1.8961    0.2307    1.3995 N   0  0  0  0  0  0  0  0  0  0  0  0
    2.7758    1.3930    1.1519 C   0  0  0  0  0  0  0  0  0  0  0  0
    4.2880    1.1089    1.2757 C   0  0  0  0  0  0  0  0  0  0  0  0
    4.9725    0.5426    0.0553 C   0  0  0  0  0  0  0  0  0  0  0  0
    4.9036    1.1819   -1.1858 C   0  0  0  0  0  0  0  0  0  0  0  0
    5.5704    0.6196   -2.2647 C   0  0  0  0  0  0  0  0  0  0  0  0
    6.2990   -0.5140   -2.1917 N   0  0  0  0  0  0  0  0  0  0  0  0
    6.3693   -1.1081   -0.9824 C   0  0  0  0  0  0  0  0  0  0  0  0
    5.7384   -0.6238    0.1535 C   0  0  0  0  0  0  0  0  0  0  0  0
    0.5047    0.6977    1.6228 C   0  0  0  0  0  0  0  0  0  0  0  0
   -0.4886   -0.4664    1.8372 C   0  0  0  0  0  0  0  0  0  0  0  0
   -2.9729   -2.0870    1.5335 H   0  0  0  0  0  0  0  0  0  0  0  0
   -7.1904   -0.4342    1.2125 H   0  0  0  0  0  0  0  0  0  0  0  0
   -8.4399    1.0331   -0.3575 H   0  0  0  0  0  0  0  0  0  0  0  0
   -4.9289    1.4829   -2.7519 H   0  0  0  0  0  0  0  0  0  0  0  0
   -1.8691   -0.1350   -2.4187 H   0  0  0  0  0  0  0  0  0  0  0  0
    1.2158   -2.4887    1.3624 H   0  0  0  0  0  0  0  0  0  0  0  0
    0.9474   -2.5723   -0.3827 H   0  0  0  0  0  0  0  0  0  0  0  0
    2.9150   -1.1838    0.1835 H   0  0  0  0  0  0  0  0  0  0  0  0
    1.6910   -0.2275   -0.6700 H   0  0  0  0  0  0  0  0  0  0  0  0
    2.5593    2.1365    1.9316 H   0  0  0  0  0  0  0  0  0  0  0  0
    2.5307    1.8744    0.1974 H   0  0  0  0  0  0  0  0  0  0  0  0
    4.4602    0.4606    2.1449 H   0  0  0  0  0  0  0  0  0  0  0  0
    4.7966    2.0538    1.5110 H   0  0  0  0  0  0  0  0  0  0  0  0
    4.3493    2.1038   -1.3223 H   0  0  0  0  0  0  0  0  0  0  0  0
    5.5371    1.0848   -3.2459 H   0  0  0  0  0  0  0  0  0  0  0  0
    6.9673   -2.0141   -0.9460 H   0  0  0  0  0  0  0  0  0  0  0  0
    5.8412   -1.1548    1.0944 H   0  0  0  0  0  0  0  0  0  0  0  0
    0.4716    1.3381    2.5123 H   0  0  0  0  0  0  0  0  0  0  0  0
    0.1691    1.2996    0.7673 H   0  0  0  0  0  0  0  0  0  0  0  0
   -1.4898   -0.0496    1.9642 H   0  0  0  0  0  0  0  0  0  0  0  0
   -0.2354   -1.0225    2.7475 H   0  0  0  0  0  0  0  0  0  0  0  0
  1  2  2  0
  2  3  1  0
  3  4  2  0
  4  5  1  0
  5  6  2  0
  6  7  1  0
  7  8  2  0
  8  9  1  0
  9 10  1  0
  9 11  2  0
 11 12  1  0
 12 13  2  0
 13 14  1  0
  2 15  1  0
 15 16  1  0
 16 17  1  0
 17 18  1  0
 18 19  1  0
 19 20  1  0
 20 21  1  0
 21 22  2  0
 22 23  1  0
 23 24  2  0
 24 25  1  0
 25 26  2  0
 18 27  1  0
 27 28  1  0
 13  3  1  0
 28 15  1  0
 12  6  1  0
 26 21  1  0
  4 29  1  0
  7 30  1  0
  8 31  1  0
 11 32  1  0
 14 33  1  0
 16 34  1  0
 16 35  1  0
 17 36  1  0
 17 37  1  0
 19 38  1  0
 19 39  1  0
 20 40  1  0
 20 41  1  0
 22 42  1  0
 23 43  1  0
 25 44  1  0
 26 45  1  0
 27 46  1  0
 27 47  1  0
 28 48  1  0
 28 49  1  0
M  END
$$$$
