
     RDKit          3D

 37 40  0  0  0  0  0  0  0  0999 V2000
    0.8391    0.8592   -2.2979 O   0  0  0  0  0  0  0  0  0  0  0  0
    0.6990    0.3732   -1.1744 C   0  0  0  0  0  0  0  0  0  0  0  0
    1.7831   -0.0986   -0.4508 N   0  0  0  0  0  0  0  0  0  0  0  0
    3.1277   -0.0380   -0.9899 C   0  0  0  0  0  0  0  0  0  0  0  0
    3.9803   -0.7451    0.0523 C   0  0  0  0  0  0  0  0  0  0  0  0
    3.2588   -0.4168    1.3540 C   0  0  0  0  0  0  0  0  0  0  0  0
    1.7896   -0.4764    0.9557 C   0  0  0  0  0  0  0  0  0  0  0  0
   -0.5357    0.2709   -0.5231 N   0  0  0  0  0  0  0  0  0  0  0  0
   -1.1711   -1.0216   -0.4244 C   0  0  0  0  0  0  0  0  0  0  0  0
   -0.5994   -2.1287   -1.0951 C   0  0  0  0  0  0  0  0  0  0  0  0
   -1.1618   -3.4072   -1.0371 C   0  0  0  0  0  0  0  0  0  0  0  0
   -2.3198   -3.6164   -0.3072 C   0  0  0  0  0  0  0  0  0  0  0  0
   -2.9103   -2.5436    0.3539 C   0  0  0  0  0  0  0  0  0  0  0  0
   -2.3509   -1.2519    0.2959 C   0  0  0  0  0  0  0  0  0  0  0  0
   -3.2099    0.0003    1.1999 S   0  0  0  0  0  0  0  0  0  0  0  0
   -2.4573    1.4647    0.5508 C   0  0  0  0  0  0  0  0  0  0  0  0
   -3.1084    2.6740    0.8666 C   0  0  0  0  0  0  0  0  0  0  0  0
   -2.5784    3.9005    0.4798 C   0  0  0  0  0  0  0  0  0  0  0  0
   -1.3821    3.9297   -0.2166 C   0  0  0  0  0  0  0  0  0  0  0  0
   -0.7303    2.7329   -0.5316 C   0  0  0  0  0  0  0  0  0  0  0  0
   -1.2573    1.4702   -0.1767 C   0  0  0  0  0  0  0  0  0  0  0  0
    3.1728   -0.5119   -1.9749 H   0  0  0  0  0  0  0  0  0  0  0  0
    3.4083    1.0167   -1.0882 H   0  0  0  0  0  0  0  0  0  0  0  0
    5.0214   -0.4115    0.0432 H   0  0  0  0  0  0  0  0  0  0  0  0
    3.9627   -1.8284   -0.1179 H   0  0  0  0  0  0  0  0  0  0  0  0
    3.5192    0.5991    1.6749 H   0  0  0  0  0  0  0  0  0  0  0  0
    3.5038   -1.1066    2.1661 H   0  0  0  0  0  0  0  0  0  0  0  0
    1.4067   -1.4987    1.0366 H   0  0  0  0  0  0  0  0  0  0  0  0
    1.1656    0.1936    1.5538 H   0  0  0  0  0  0  0  0  0  0  0  0
    0.2972   -2.0174   -1.7018 H   0  0  0  0  0  0  0  0  0  0  0  0
   -0.6937   -4.2308   -1.5706 H   0  0  0  0  0  0  0  0  0  0  0  0
   -2.7678   -4.6051   -0.2562 H   0  0  0  0  0  0  0  0  0  0  0  0
   -3.8233   -2.7208    0.9201 H   0  0  0  0  0  0  0  0  0  0  0  0
   -4.0394    2.6650    1.4309 H   0  0  0  0  0  0  0  0  0  0  0  0
   -3.0933    4.8242    0.7293 H   0  0  0  0  0  0  0  0  0  0  0  0
   -0.9486    4.8786   -0.5227 H   0  0  0  0  0  0  0  0  0  0  0  0
    0.2033    2.8229   -1.0825 H   0  0  0  0  0  0  0  0  0  0  0  0
  1  2  2  0
  2  3  1  0
  3  4  1  0
  4  5  1  0
  5  6  1  0
  6  7  1  0
  2  8  1  0
  8  9  1  0
  9 10  2  0
 10 11  1  0
 11 12  2  0
 12 13  1  0
 13 14  2  0
 14 15  1  0
 15 16  1  0
 16 17  2  0
 17 18  1  0
 18 19  2  0
 19 20  1  0
 20 21  2  0
  7  3  1  0
 21  8  1  0
 14  9  1  0
 21 16  1  0
  4 22  1  0
  4 23  1  0
  5 24  1  0
  5 25  1  0
  6 26  1  0
  6 27  1  0
  7 28  1  0
  7 29  1  0
 10 30  1  0
 11 31  1  0
 12 32  1  0
 13 33  1  0
 17 34  1  0
 18 35  1  0
 19 36  1  0
 20 37  1  0
M  END
$$$$
