
     RDKit          3D

 32 34  0  0  0  0  0  0  0  0999 V2000
   -0.0897    1.6842    0.5280 O   0  0  0  0  0  0  0  0  0  0  0  0
   -0.7841    0.7422    0.1516 C   0  0  0  0  0  0  0  0  0  0  0  0
   -2.0200    0.4096    0.9137 C   0  0  0  0  0  0  0  0  0  0  0  0
   -2.7078    1.4472    1.5562 C   0  0  0  0  0  0  0  0  0  0  0  0
   -3.8671    1.1735    2.2846 C   0  0  0  0  0  0  0  0  0  0  0  0
   -4.3355   -0.1366    2.3848 C   0  0  0  0  0  0  0  0  0  0  0  0
   -3.6448   -1.1765    1.7624 C   0  0  0  0  0  0  0  0  0  0  0  0
   -2.4854   -0.9079    1.0315 C   0  0  0  0  0  0  0  0  0  0  0  0
   -0.4419   -0.0243   -1.0346 C   0  0  0  0  0  0  0  0  0  0  0  0
   -1.3295   -0.5170   -1.9738 C   0  0  0  0  0  0  0  0  0  0  0  0
   -0.5796   -1.1493   -2.9141 N   0  0  0  0  0  0  0  0  0  0  0  0
    0.7271   -1.1494   -2.6409 N   0  0  0  0  0  0  0  0  0  0  0  0
    0.8481   -0.4108   -1.5212 C   0  0  0  0  0  0  0  0  0  0  0  0
    2.1764   -0.2015   -0.9382 C   0  0  0  0  0  0  0  0  0  0  0  0
    2.9769   -1.3323   -0.6932 C   0  0  0  0  0  0  0  0  0  0  0  0
    4.2740   -1.2030   -0.1892 C   0  0  0  0  0  0  0  0  0  0  0  0
    4.7991    0.0620    0.0596 C   0  0  0  0  0  0  0  0  0  0  0  0
    4.0256    1.1945   -0.1890 C   0  0  0  0  0  0  0  0  0  0  0  0
    2.7224    1.0617   -0.6725 C   0  0  0  0  0  0  0  0  0  0  0  0
    2.0440    2.2313   -0.8789 O   0  0  0  0  0  0  0  0  0  0  0  0
   -2.3460    2.4715    1.4876 H   0  0  0  0  0  0  0  0  0  0  0  0
   -4.4015    1.9812    2.7778 H   0  0  0  0  0  0  0  0  0  0  0  0
   -5.2371   -0.3487    2.9559 H   0  0  0  0  0  0  0  0  0  0  0  0
   -4.0073   -2.1987    1.8502 H   0  0  0  0  0  0  0  0  0  0  0  0
   -1.9492   -1.7361    0.5729 H   0  0  0  0  0  0  0  0  0  0  0  0
   -2.4052   -0.4553   -2.0626 H   0  0  0  0  0  0  0  0  0  0  0  0
   -0.8903   -1.6122   -3.7628 H   0  0  0  0  0  0  0  0  0  0  0  0
    2.5909   -2.3264   -0.9140 H   0  0  0  0  0  0  0  0  0  0  0  0
    4.8771   -2.0890   -0.0094 H   0  0  0  0  0  0  0  0  0  0  0  0
    5.8122    0.1686    0.4386 H   0  0  0  0  0  0  0  0  0  0  0  0
    4.4338    2.1844   -0.0056 H   0  0  0  0  0  0  0  0  0  0  0  0
    1.2145    2.1630   -0.3553 H   0  0  0  0  0  0  0  0  0  0  0  0
  1  2  2  0
  2  3  1  0
  3  4  2  0
  4  5  1  0
  5  6  2  0
  6  7  1  0
  7  8  2  0
  2  9  1  0
  9 10  2  0
 10 11  1  0
 11 12  1  0
 12 13  2  0
 13 14  1  0
 14 15  2  0
 15 16  1  0
 16 17  2  0
 17 18  1  0
 18 19  2  0
 19 20  1  0
  8  3  1  0
 13  9  1  0
 19 14  1  0
  4 21  1  0
  5 22  1  0
  6 23  1  0
  7 24  1  0
  8 25  1  0
 10 26  1  0
 11 27  1  0
 15 28  1  0
 16 29  1  0
 17 30  1  0
 18 31  1  0
 20 32  1  0
M  END
$$$$
