
     RDKit          3D

 40 41  0  0  0  0  0  0  0  0999 V2000
   -0.8168    2.9932    1.4511 C   0  0  0  0  0  0  0  0  0  0  0  0
   -0.7337    2.6106   -0.0188 C   0  0  0  0  0  0  0  0  0  0  0  0
   -0.7232    1.1130   -0.2092 C   0  0  0  0  0  0  0  0  0  0  0  0
    0.5193    0.5689   -0.2523 N   0  0  0  0  0  0  0  0  0  0  0  0
    0.6712   -0.7652   -0.3776 C   0  0  0  0  0  0  0  0  0  0  0  0
    1.9755   -1.2893   -0.4727 N   0  0  0  0  0  0  0  0  0  0  0  0
    3.0530   -0.3089   -0.3161 C   0  0  0  0  0  0  0  0  0  0  0  0
    4.3947   -1.0096   -0.5391 C   0  0  0  0  0  0  0  0  0  0  0  0
    5.5602   -0.0344   -0.4737 C   0  0  0  0  0  0  0  0  0  0  0  0
    5.6558    0.5183    0.8312 O   0  0  0  0  0  0  0  0  0  0  0  0
   -0.4424   -1.6081   -0.4677 C   0  0  0  0  0  0  0  0  0  0  0  0
   -0.2528   -3.0207   -0.6329 C   0  0  0  0  0  0  0  0  0  0  0  0
   -0.1246   -4.1703   -0.7401 N   0  0  0  0  0  0  0  0  0  0  0  0
   -1.7426   -1.0581   -0.3968 C   0  0  0  0  0  0  0  0  0  0  0  0
   -1.8896    0.3407   -0.2941 C   0  0  0  0  0  0  0  0  0  0  0  0
   -3.2586    0.9773   -0.2213 C   0  0  0  0  0  0  0  0  0  0  0  0
   -4.3938    0.0647   -0.6778 C   0  0  0  0  0  0  0  0  0  0  0  0
   -4.2547   -1.3038   -0.0365 C   0  0  0  0  0  0  0  0  0  0  0  0
   -2.9561   -1.9633   -0.4900 C   0  0  0  0  0  0  0  0  0  0  0  0
    0.0240    2.5762    2.0161 H   0  0  0  0  0  0  0  0  0  0  0  0
   -0.7908    4.0821    1.5600 H   0  0  0  0  0  0  0  0  0  0  0  0
   -1.7411    2.6298    1.9109 H   0  0  0  0  0  0  0  0  0  0  0  0
   -1.5439    3.0791   -0.5850 H   0  0  0  0  0  0  0  0  0  0  0  0
    0.1926    3.0246   -0.4377 H   0  0  0  0  0  0  0  0  0  0  0  0
    2.0862   -2.0617    0.1810 H   0  0  0  0  0  0  0  0  0  0  0  0
    2.9480    0.4948   -1.0557 H   0  0  0  0  0  0  0  0  0  0  0  0
    3.0206    0.1307    0.6883 H   0  0  0  0  0  0  0  0  0  0  0  0
    4.3949   -1.5084   -1.5157 H   0  0  0  0  0  0  0  0  0  0  0  0
    4.5228   -1.7875    0.2241 H   0  0  0  0  0  0  0  0  0  0  0  0
    5.4345    0.7801   -1.1943 H   0  0  0  0  0  0  0  0  0  0  0  0
    6.4968   -0.5561   -0.6947 H   0  0  0  0  0  0  0  0  0  0  0  0
    6.4254    1.1137    0.8342 H   0  0  0  0  0  0  0  0  0  0  0  0
   -3.2964    1.8764   -0.8449 H   0  0  0  0  0  0  0  0  0  0  0  0
   -3.4404    1.2793    0.8172 H   0  0  0  0  0  0  0  0  0  0  0  0
   -4.3777   -0.0355   -1.7706 H   0  0  0  0  0  0  0  0  0  0  0  0
   -5.3572    0.5135   -0.4109 H   0  0  0  0  0  0  0  0  0  0  0  0
   -5.1052   -1.9390   -0.3081 H   0  0  0  0  0  0  0  0  0  0  0  0
   -4.2635   -1.2034    1.0563 H   0  0  0  0  0  0  0  0  0  0  0  0
   -3.0605   -2.2846   -1.5341 H   0  0  0  0  0  0  0  0  0  0  0  0
   -2.8096   -2.8594    0.1243 H   0  0  0  0  0  0  0  0  0  0  0  0
  1  2  1  0
  2  3  1  0
  3  4  2  0
  4  5  1  0
  5  6  1  0
  6  7  1  0
  7  8  1  0
  8  9  1  0
  9 10  1  0
  5 11  2  0
 11 12  1  0
 12 13  3  0
 11 14  1  0
 14 15  2  0
 15 16  1  0
 16 17  1  0
 17 18  1  0
 18 19  1  0
 15  3  1  0
 19 14  1  0
  1 20  1  0
  1 21  1  0
  1 22  1  0
  2 23  1  0
  2 24  1  0
  6 25  1  0
  7 26  1  0
  7 27  1  0
  8 28  1  0
  8 29  1  0
  9 30  1  0
  9 31  1  0
 10 32  1  0
 16 33  1  0
 16 34  1  0
 17 35  1  0
 17 36  1  0
 18 37  1  0
 18 38  1  0
 19 39  1  0
 19 40  1  0
M  END
$$$$
