
     RDKit          3D

 41 43  0  0  0  0  0  0  0  0999 V2000
   -2.0391   -2.2759   -0.8936 O   0  0  0  0  0  0  0  0  0  0  0  0
   -2.2089   -1.0759   -0.6998 C   0  0  0  0  0  0  0  0  0  0  0  0
   -1.0783   -0.1567   -0.9588 C   0  0  0  0  0  0  0  0  0  0  0  0
   -1.2276    0.9427   -1.8116 C   0  0  0  0  0  0  0  0  0  0  0  0
   -0.1423    1.7877   -2.0507 C   0  0  0  0  0  0  0  0  0  0  0  0
    1.0908    1.5266   -1.4470 C   0  0  0  0  0  0  0  0  0  0  0  0
    2.3965    2.6196   -1.7483 Cl  0  0  0  0  0  0  0  0  0  0  0  0
    1.2468    0.4109   -0.6069 C   0  0  0  0  0  0  0  0  0  0  0  0
    2.5274    0.1244   -0.0171 N   0  0  0  0  0  0  0  0  0  0  0  0
    2.6376    0.2137    1.4547 C   0  0  0  0  0  0  0  0  0  0  0  0
    4.0660   -0.0668    1.9353 C   0  0  0  0  0  0  0  0  0  0  0  0
    5.1162    0.3180    0.8961 C   0  0  0  0  0  0  0  0  0  0  0  0
    5.0818   -0.5941   -0.3281 C   0  0  0  0  0  0  0  0  0  0  0  0
    3.4255   -1.0887   -0.7876 S   0  0  0  0  0  6  0  0  0  0  0  0
    3.2916   -0.9455   -2.2214 O   0  0  0  0  0  0  0  0  0  0  0  0
    3.1190   -2.3393   -0.1238 O   0  0  0  0  0  0  0  0  0  0  0  0
    0.1621   -0.4411   -0.3775 C   0  0  0  0  0  0  0  0  0  0  0  0
   -3.3963   -0.5459   -0.2318 N   0  0  0  0  0  0  0  0  0  0  0  0
   -4.5267   -1.4165    0.0416 C   0  0  0  0  0  0  0  0  0  0  0  0
   -5.6408   -0.4690    0.4584 C   0  0  0  0  0  0  0  0  0  0  0  0
   -4.8800    0.6571    1.1468 C   0  0  0  0  0  0  0  0  0  0  0  0
   -3.6271    0.7945    0.2909 C   0  0  0  0  0  0  0  0  0  0  0  0
   -2.1766    1.1297   -2.3080 H   0  0  0  0  0  0  0  0  0  0  0  0
   -0.2590    2.6399   -2.7156 H   0  0  0  0  0  0  0  0  0  0  0  0
    2.3708    1.2365    1.7497 H   0  0  0  0  0  0  0  0  0  0  0  0
    1.9356   -0.4652    1.9507 H   0  0  0  0  0  0  0  0  0  0  0  0
    4.1715   -1.1305    2.1826 H   0  0  0  0  0  0  0  0  0  0  0  0
    4.2421    0.4818    2.8680 H   0  0  0  0  0  0  0  0  0  0  0  0
    4.9550    1.3581    0.5860 H   0  0  0  0  0  0  0  0  0  0  0  0
    6.1169    0.2788    1.3415 H   0  0  0  0  0  0  0  0  0  0  0  0
    5.5363   -0.0877   -1.1849 H   0  0  0  0  0  0  0  0  0  0  0  0
    5.6398   -1.5163   -0.1353 H   0  0  0  0  0  0  0  0  0  0  0  0
    0.2763   -1.3313    0.2374 H   0  0  0  0  0  0  0  0  0  0  0  0
   -4.7779   -2.0131   -0.8404 H   0  0  0  0  0  0  0  0  0  0  0  0
   -4.2487   -2.0904    0.8601 H   0  0  0  0  0  0  0  0  0  0  0  0
   -6.1572   -0.0805   -0.4276 H   0  0  0  0  0  0  0  0  0  0  0  0
   -6.3803   -0.9462    1.1071 H   0  0  0  0  0  0  0  0  0  0  0  0
   -4.6076    0.3519    2.1643 H   0  0  0  0  0  0  0  0  0  0  0  0
   -5.4524    1.5866    1.2086 H   0  0  0  0  0  0  0  0  0  0  0  0
   -2.7667    1.1558    0.8613 H   0  0  0  0  0  0  0  0  0  0  0  0
   -3.8120    1.4619   -0.5569 H   0  0  0  0  0  0  0  0  0  0  0  0
  1  2  2  0
  2  3  1  0
  3  4  2  0
  4  5  1  0
  5  6  2  0
  6  7  1  0
  6  8  1  0
  8  9  1  0
  9 10  1  0
 10 11  1  0
 11 12  1  0
 12 13  1  0
 13 14  1  0
 14 15  2  0
 14 16  2  0
  8 17  2  0
  2 18  1  0
 18 19  1  0
 19 20  1  0
 20 21  1  0
 21 22  1  0
 17  3  1  0
 22 18  1  0
 14  9  1  0
  4 23  1  0
  5 24  1  0
 10 25  1  0
 10 26  1  0
 11 27  1  0
 11 28  1  0
 12 29  1  0
 12 30  1  0
 13 31  1  0
 13 32  1  0
 17 33  1  0
 19 34  1  0
 19 35  1  0
 20 36  1  0
 20 37  1  0
 21 38  1  0
 21 39  1  0
 22 40  1  0
 22 41  1  0
M  END
$$$$
