
     RDKit          3D

 39 40  0  0  0  0  0  0  0  0999 V2000
   -3.4106    0.8869   -2.0977 C   0  0  0  0  0  0  0  0  0  0  0  0
   -3.0599    0.6673   -0.6475 C   0  0  0  0  0  0  0  0  0  0  0  0
   -1.6990    0.6350   -0.4273 N   0  0  0  0  0  0  0  0  0  0  0  0
   -1.3011    0.3945    0.7728 C   0  0  0  0  0  0  0  0  0  0  0  0
    0.3764    0.2992    1.2071 S   0  0  0  0  0  0  0  0  0  0  0  0
    1.1169    1.0459   -0.2782 C   0  0  0  0  0  0  0  0  0  0  0  0
    2.6303    1.1407   -0.1490 C   0  0  0  0  0  0  0  0  0  0  0  0
    3.2111    2.1971   -0.3838 O   0  0  0  0  0  0  0  0  0  0  0  0
    3.2301   -0.0659    0.1769 N   0  0  0  0  0  0  0  0  0  0  0  0
    4.6043   -0.3406    0.3145 C   0  0  0  0  0  0  0  0  0  0  0  0
    5.6163    0.5887    0.0630 C   0  0  0  0  0  0  0  0  0  0  0  0
    6.9616    0.2343    0.2208 C   0  0  0  0  0  0  0  0  0  0  0  0
    7.2988   -1.0526    0.6292 C   0  0  0  0  0  0  0  0  0  0  0  0
    8.9515   -1.4872    0.8213 Cl  0  0  0  0  0  0  0  0  0  0  0  0
    6.3017   -1.9904    0.8807 C   0  0  0  0  0  0  0  0  0  0  0  0
    4.9586   -1.6341    0.7227 C   0  0  0  0  0  0  0  0  0  0  0  0
   -2.1225    0.1841    1.8253 N   0  0  0  0  0  0  0  0  0  0  0  0
   -3.4701    0.3214    1.7123 C   0  0  0  0  0  0  0  0  0  0  0  0
   -4.1923    0.3330    2.7027 O   0  0  0  0  0  0  0  0  0  0  0  0
   -3.9819    0.5049    0.3257 C   0  0  0  0  0  0  0  0  0  0  0  0
   -5.4803    0.5139    0.1580 C   0  0  0  0  0  0  0  0  0  0  0  0
   -6.0243   -0.8352   -0.3144 C   0  0  0  0  0  0  0  0  0  0  0  0
   -5.7569   -1.8498    0.6436 O   0  0  0  0  0  0  0  0  0  0  0  0
   -3.0291    1.8580   -2.4309 H   0  0  0  0  0  0  0  0  0  0  0  0
   -2.9510    0.1076   -2.7157 H   0  0  0  0  0  0  0  0  0  0  0  0
   -4.4840    0.8687   -2.2992 H   0  0  0  0  0  0  0  0  0  0  0  0
    0.7177    2.0566   -0.4122 H   0  0  0  0  0  0  0  0  0  0  0  0
    0.8880    0.4490   -1.1669 H   0  0  0  0  0  0  0  0  0  0  0  0
    2.5938   -0.8200    0.4112 H   0  0  0  0  0  0  0  0  0  0  0  0
    5.3957    1.6019   -0.2590 H   0  0  0  0  0  0  0  0  0  0  0  0
    7.7353    0.9712    0.0214 H   0  0  0  0  0  0  0  0  0  0  0  0
    6.5600   -2.9965    1.1995 H   0  0  0  0  0  0  0  0  0  0  0  0
    4.1970   -2.3832    0.9248 H   0  0  0  0  0  0  0  0  0  0  0  0
   -1.7407    0.0739    2.7506 H   0  0  0  0  0  0  0  0  0  0  0  0
   -5.7744    1.2950   -0.5527 H   0  0  0  0  0  0  0  0  0  0  0  0
   -5.9661    0.7853    1.1027 H   0  0  0  0  0  0  0  0  0  0  0  0
   -7.1092   -0.7664   -0.4461 H   0  0  0  0  0  0  0  0  0  0  0  0
   -5.5803   -1.1351   -1.2690 H   0  0  0  0  0  0  0  0  0  0  0  0
   -6.2115   -2.6571    0.3481 H   0  0  0  0  0  0  0  0  0  0  0  0
  1  2  1  0
  2  3  1  0
  3  4  2  0
  4  5  1  0
  5  6  1  0
  6  7  1  0
  7  8  2  0
  7  9  1  0
  9 10  1  0
 10 11  2  0
 11 12  1  0
 12 13  2  0
 13 14  1  0
 13 15  1  0
 15 16  2  0
  4 17  1  0
 17 18  1  0
 18 19  2  0
 18 20  1  0
 20 21  1  0
 21 22  1  0
 22 23  1  0
 20  2  2  0
 16 10  1  0
  1 24  1  0
  1 25  1  0
  1 26  1  0
  6 27  1  0
  6 28  1  0
  9 29  1  0
 11 30  1  0
 12 31  1  0
 15 32  1  0
 16 33  1  0
 17 34  1  0
 21 35  1  0
 21 36  1  0
 22 37  1  0
 22 38  1  0
 23 39  1  0
M  END
$$$$
