
     RDKit          3D

 33 35  0  0  0  0  0  0  0  0999 V2000
    4.6786   -1.3124    1.5856 O   0  0  0  0  0  0  0  0  0  0  0  0
    4.1905   -0.6454    0.4559 N   0  0  0  0  0  0  0  0  0  0  0  0
    2.9944   -1.0750    0.2042 C   0  0  0  0  0  0  0  0  0  0  0  0
    2.2045   -0.5284   -0.9530 C   0  0  0  0  0  0  0  0  0  0  0  0
    1.1268    0.3601   -0.4267 C   0  0  0  0  0  0  0  0  0  0  0  0
    1.4185    1.6220    0.0404 N   0  0  0  0  0  0  0  0  0  0  0  0
    0.2744    2.2661    0.4495 C   0  0  0  0  0  0  0  0  0  0  0  0
    0.1029    3.5500    0.9808 C   0  0  0  0  0  0  0  0  0  0  0  0
   -1.1963    3.9451    1.3137 C   0  0  0  0  0  0  0  0  0  0  0  0
   -2.2782    3.0886    1.1236 C   0  0  0  0  0  0  0  0  0  0  0  0
   -2.0883    1.8079    0.5924 C   0  0  0  0  0  0  0  0  0  0  0  0
   -0.7878    1.3860    0.2464 C   0  0  0  0  0  0  0  0  0  0  0  0
   -0.2409    0.1839   -0.2977 C   0  0  0  0  0  0  0  0  0  0  0  0
   -0.9317   -1.0299   -0.6839 C   0  0  0  0  0  0  0  0  0  0  0  0
   -0.8775   -2.1623    0.1359 C   0  0  0  0  0  0  0  0  0  0  0  0
   -1.5444   -3.3296   -0.2398 C   0  0  0  0  0  0  0  0  0  0  0  0
   -2.2681   -3.3669   -1.4318 C   0  0  0  0  0  0  0  0  0  0  0  0
   -2.3291   -2.2375   -2.2485 C   0  0  0  0  0  0  0  0  0  0  0  0
   -1.6635   -1.0688   -1.8750 C   0  0  0  0  0  0  0  0  0  0  0  0
    5.5731   -0.9356    1.6841 H   0  0  0  0  0  0  0  0  0  0  0  0
    2.5027   -1.8369    0.8355 H   0  0  0  0  0  0  0  0  0  0  0  0
    1.7912   -1.3722   -1.5136 H   0  0  0  0  0  0  0  0  0  0  0  0
    2.8661    0.0316   -1.6231 H   0  0  0  0  0  0  0  0  0  0  0  0
    2.3463    2.0227    0.0835 H   0  0  0  0  0  0  0  0  0  0  0  0
    0.9435    4.2192    1.1317 H   0  0  0  0  0  0  0  0  0  0  0  0
   -1.3634    4.9364    1.7288 H   0  0  0  0  0  0  0  0  0  0  0  0
   -3.2802    3.4146    1.3908 H   0  0  0  0  0  0  0  0  0  0  0  0
   -2.9355    1.1433    0.4499 H   0  0  0  0  0  0  0  0  0  0  0  0
   -0.3254   -2.1362    1.0720 H   0  0  0  0  0  0  0  0  0  0  0  0
   -1.5035   -4.2077    0.3994 H   0  0  0  0  0  0  0  0  0  0  0  0
   -2.7886   -4.2758   -1.7228 H   0  0  0  0  0  0  0  0  0  0  0  0
   -2.8960   -2.2659   -3.1753 H   0  0  0  0  0  0  0  0  0  0  0  0
   -1.7152   -0.1912   -2.5152 H   0  0  0  0  0  0  0  0  0  0  0  0
  1  2  1  0
  2  3  2  0
  3  4  1  0
  4  5  1  0
  5  6  1  0
  6  7  1  0
  7  8  2  0
  8  9  1  0
  9 10  2  0
 10 11  1  0
 11 12  2  0
 12 13  1  0
 13 14  1  0
 14 15  2  0
 15 16  1  0
 16 17  2  0
 17 18  1  0
 18 19  2  0
 13  5  2  0
 19 14  1  0
 12  7  1  0
  1 20  1  0
  3 21  1  0
  4 22  1  0
  4 23  1  0
  6 24  1  0
  8 25  1  0
  9 26  1  0
 10 27  1  0
 11 28  1  0
 15 29  1  0
 16 30  1  0
 17 31  1  0
 18 32  1  0
 19 33  1  0
M  END
$$$$
