
     RDKit          3D

 44 46  0  0  0  0  0  0  0  0999 V2000
    1.0955    0.4104   -2.0149 O   0  0  0  0  0  0  0  0  0  0  0  0
    1.5235   -0.0543   -0.9632 C   0  0  0  0  0  0  0  0  0  0  0  0
    2.8430    0.0439   -0.5930 N   0  0  0  0  0  0  0  0  0  0  0  0
    3.8147    0.6644   -1.4631 C   0  0  0  0  0  0  0  0  0  0  0  0
    5.1557    0.7526   -0.8021 C   0  0  0  0  0  0  0  0  0  0  0  0
    5.4379    1.7405    0.1460 C   0  0  0  0  0  0  0  0  0  0  0  0
    6.6886    1.7758    0.7551 C   0  0  0  0  0  0  0  0  0  0  0  0
    7.6180    0.8128    0.3998 C   0  0  0  0  0  0  0  0  0  0  0  0
    7.3799   -0.1622   -0.5032 N   0  0  0  0  0  0  0  0  0  0  0  0
    6.1577   -0.1704   -1.0820 C   0  0  0  0  0  0  0  0  0  0  0  0
    0.5915   -0.7535   -0.0363 C   0  0  0  0  0  0  0  0  0  0  0  0
   -0.7352   -0.9483   -0.4544 C   0  0  0  0  0  0  0  0  0  0  0  0
   -1.6507   -1.5753    0.3983 C   0  0  0  0  0  0  0  0  0  0  0  0
   -3.3244   -1.8417   -0.1449 S   0  0  0  0  0  6  0  0  0  0  0  0
   -3.3325   -1.7776   -1.5916 O   0  0  0  0  0  0  0  0  0  0  0  0
   -3.8064   -3.0195    0.5496 O   0  0  0  0  0  0  0  0  0  0  0  0
   -4.2203   -0.4472    0.4808 C   0  0  0  0  0  0  0  0  0  0  0  0
   -5.7145   -0.5412    0.1501 C   0  0  0  0  0  0  0  0  0  0  0  0
   -6.3262    0.7866    0.5747 C   0  0  0  0  0  0  0  0  0  0  0  0
   -5.0644    2.0097    0.2555 S   0  0  0  0  0  6  0  0  0  0  0  0
   -5.4007    2.7394   -0.9462 O   0  0  0  0  0  0  0  0  0  0  0  0
   -4.7406    2.6662    1.5048 O   0  0  0  0  0  0  0  0  0  0  0  0
   -3.7499    0.8696   -0.1152 C   0  0  0  0  0  0  0  0  0  0  0  0
   -1.2541   -2.0424    1.6544 C   0  0  0  0  0  0  0  0  0  0  0  0
    0.0645   -1.8545    2.0674 C   0  0  0  0  0  0  0  0  0  0  0  0
    0.9751   -1.2122    1.2269 C   0  0  0  0  0  0  0  0  0  0  0  0
    2.2310   -1.0529    1.6709 F   0  0  0  0  0  0  0  0  0  0  0  0
    3.1672   -0.3876    0.2663 H   0  0  0  0  0  0  0  0  0  0  0  0
    3.8675    0.0798   -2.3893 H   0  0  0  0  0  0  0  0  0  0  0  0
    3.4580    1.6638   -1.7398 H   0  0  0  0  0  0  0  0  0  0  0  0
    4.6875    2.4821    0.4097 H   0  0  0  0  0  0  0  0  0  0  0  0
    6.9328    2.5353    1.4893 H   0  0  0  0  0  0  0  0  0  0  0  0
    8.6081    0.7983    0.8463 H   0  0  0  0  0  0  0  0  0  0  0  0
    6.0037   -0.9723   -1.8000 H   0  0  0  0  0  0  0  0  0  0  0  0
   -1.0426   -0.6158   -1.4461 H   0  0  0  0  0  0  0  0  0  0  0  0
   -4.0934   -0.4434    1.5707 H   0  0  0  0  0  0  0  0  0  0  0  0
   -5.8580   -0.6870   -0.9280 H   0  0  0  0  0  0  0  0  0  0  0  0
   -6.1987   -1.3817    0.6575 H   0  0  0  0  0  0  0  0  0  0  0  0
   -7.2298    1.0289    0.0120 H   0  0  0  0  0  0  0  0  0  0  0  0
   -6.5382    0.7963    1.6477 H   0  0  0  0  0  0  0  0  0  0  0  0
   -3.6420    0.8268   -1.2029 H   0  0  0  0  0  0  0  0  0  0  0  0
   -2.8214    1.2321    0.3317 H   0  0  0  0  0  0  0  0  0  0  0  0
   -1.9527   -2.5624    2.3080 H   0  0  0  0  0  0  0  0  0  0  0  0
    0.3952   -2.2119    3.0394 H   0  0  0  0  0  0  0  0  0  0  0  0
  1  2  2  0
  2  3  1  0
  3  4  1  0
  4  5  1  0
  5  6  2  0
  6  7  1  0
  7  8  2  0
  8  9  1  0
  9 10  2  0
  2 11  1  0
 11 12  2  0
 12 13  1  0
 13 14  1  0
 14 15  2  0
 14 16  2  0
 14 17  1  0
 17 18  1  0
 18 19  1  0
 19 20  1  0
 20 21  2  0
 20 22  2  0
 20 23  1  0
 13 24  2  0
 24 25  1  0
 25 26  2  0
 26 27  1  0
 10  5  1  0
 26 11  1  0
 23 17  1  0
  3 28  1  0
  4 29  1  0
  4 30  1  0
  6 31  1  0
  7 32  1  0
  8 33  1  0
 10 34  1  0
 12 35  1  0
 17 36  1  0
 18 37  1  0
 18 38  1  0
 19 39  1  0
 19 40  1  0
 23 41  1  0
 23 42  1  0
 24 43  1  0
 25 44  1  0
M  END
$$$$
