
     RDKit          3D

 48 50  0  0  0  0  0  0  0  0999 V2000
    7.6788   -0.3467    2.6934 C   0  0  0  0  0  0  0  0  0  0  0  0
    7.1824    0.0318    1.4175 O   0  0  0  0  0  0  0  0  0  0  0  0
    5.8230    0.0050    1.2311 C   0  0  0  0  0  0  0  0  0  0  0  0
    4.8975   -0.3677    2.2082 C   0  0  0  0  0  0  0  0  0  0  0  0
    3.5258   -0.3653    1.9287 C   0  0  0  0  0  0  0  0  0  0  0  0
    3.0590    0.0090    0.6708 C   0  0  0  0  0  0  0  0  0  0  0  0
    1.6933    0.0374    0.3136 N   0  0  0  0  0  0  0  0  0  0  0  0
    0.6050   -0.2907    1.1070 C   0  0  0  0  0  0  0  0  0  0  0  0
    0.6365   -0.6689    2.2717 O   0  0  0  0  0  0  0  0  0  0  0  0
   -0.7009   -0.1260    0.3542 C   0  0  0  0  0  0  0  0  0  0  0  0
   -1.8922   -0.5024    1.2278 C   0  0  0  0  0  0  0  0  0  0  0  0
   -3.1471   -0.3532    0.5116 N   0  0  0  0  0  0  0  0  0  0  0  0
   -3.6978   -1.3334   -0.2837 C   0  0  0  0  0  0  0  0  0  0  0  0
   -3.1941   -2.3897   -0.6212 O   0  0  0  0  0  0  0  0  0  0  0  0
   -5.0820   -0.8595   -0.6120 C   0  0  0  0  0  0  0  0  0  0  0  0
   -5.7568   -1.3270   -1.8852 C   0  0  0  0  0  0  0  0  0  0  0  0
   -6.9456   -0.4341   -2.1780 C   0  0  0  0  0  0  0  0  0  0  0  0
   -7.1539    0.7534   -1.5736 C   0  0  0  0  0  0  0  0  0  0  0  0
   -6.1886    1.3705   -0.5819 C   0  0  0  0  0  0  0  0  0  0  0  0
   -4.8613    0.6450   -0.6596 C   0  0  0  0  0  0  0  0  0  0  0  0
   -3.8468    0.8309    0.4314 C   0  0  0  0  0  0  0  0  0  0  0  0
   -3.6246    1.8680    1.0314 O   0  0  0  0  0  0  0  0  0  0  0  0
    3.9866    0.3838   -0.3121 C   0  0  0  0  0  0  0  0  0  0  0  0
    5.3627    0.3850   -0.0435 C   0  0  0  0  0  0  0  0  0  0  0  0
    6.3312    0.7383   -0.9513 O   0  0  0  0  0  0  0  0  0  0  0  0
    5.9155    1.1237   -2.2526 C   0  0  0  0  0  0  0  0  0  0  0  0
    7.3180    0.3303    3.4747 H   0  0  0  0  0  0  0  0  0  0  0  0
    8.7699   -0.2680    2.6644 H   0  0  0  0  0  0  0  0  0  0  0  0
    7.4272   -1.3874    2.9227 H   0  0  0  0  0  0  0  0  0  0  0  0
    5.2049   -0.6680    3.2044 H   0  0  0  0  0  0  0  0  0  0  0  0
    2.8508   -0.6636    2.7248 H   0  0  0  0  0  0  0  0  0  0  0  0
    1.4915    0.3293   -0.6347 H   0  0  0  0  0  0  0  0  0  0  0  0
   -0.6729   -0.7600   -0.5400 H   0  0  0  0  0  0  0  0  0  0  0  0
   -0.7878    0.9168    0.0265 H   0  0  0  0  0  0  0  0  0  0  0  0
   -1.8062   -1.5447    1.5568 H   0  0  0  0  0  0  0  0  0  0  0  0
   -1.9245    0.1341    2.1198 H   0  0  0  0  0  0  0  0  0  0  0  0
   -5.7104   -1.1338    0.2503 H   0  0  0  0  0  0  0  0  0  0  0  0
   -5.0669   -1.3107   -2.7367 H   0  0  0  0  0  0  0  0  0  0  0  0
   -6.0950   -2.3624   -1.7650 H   0  0  0  0  0  0  0  0  0  0  0  0
   -7.6686   -0.8001   -2.9043 H   0  0  0  0  0  0  0  0  0  0  0  0
   -8.0489    1.3255   -1.8099 H   0  0  0  0  0  0  0  0  0  0  0  0
   -6.6160    1.3215    0.4261 H   0  0  0  0  0  0  0  0  0  0  0  0
   -6.0450    2.4306   -0.8194 H   0  0  0  0  0  0  0  0  0  0  0  0
   -4.3504    0.9288   -1.5938 H   0  0  0  0  0  0  0  0  0  0  0  0
    3.6215    0.6750   -1.2902 H   0  0  0  0  0  0  0  0  0  0  0  0
    6.8114    1.3650   -2.8327 H   0  0  0  0  0  0  0  0  0  0  0  0
    5.4011    0.3025   -2.7625 H   0  0  0  0  0  0  0  0  0  0  0  0
    5.2907    2.0222   -2.2178 H   0  0  0  0  0  0  0  0  0  0  0  0
  1  2  1  0
  2  3  1  0
  3  4  2  0
  4  5  1  0
  5  6  2  0
  6  7  1  0
  7  8  1  0
  8  9  2  0
  8 10  1  0
 10 11  1  0
 11 12  1  0
 12 13  1  0
 13 14  2  0
 13 15  1  0
 15 16  1  0
 16 17  1  0
 17 18  2  0
 18 19  1  0
 19 20  1  0
 20 21  1  0
 21 22  2  0
  6 23  1  0
 23 24  2  0
 24 25  1  0
 25 26  1  0
 24  3  1  0
 21 12  1  0
 20 15  1  0
  1 27  1  0
  1 28  1  0
  1 29  1  0
  4 30  1  0
  5 31  1  0
  7 32  1  0
 10 33  1  0
 10 34  1  0
 11 35  1  0
 11 36  1  0
 15 37  1  0
 16 38  1  0
 16 39  1  0
 17 40  1  0
 18 41  1  0
 19 42  1  0
 19 43  1  0
 20 44  1  0
 23 45  1  0
 26 46  1  0
 26 47  1  0
 26 48  1  0
M  END
$$$$
