
     RDKit          3D

 44 47  0  0  0  0  0  0  0  0999 V2000
   -5.1203    1.7501   -2.2505 C   0  0  0  0  0  0  0  0  0  0  0  0
   -4.6731    1.2035   -0.6164 S   0  0  0  0  0  6  0  0  0  0  0  0
   -4.5666    2.3901    0.2068 O   0  0  0  0  0  0  0  0  0  0  0  0
   -5.5543    0.1149   -0.2482 O   0  0  0  0  0  0  0  0  0  0  0  0
   -3.1205    0.5656   -0.8926 N   0  0  0  0  0  0  0  0  0  0  0  0
   -3.0399   -0.6106   -1.8244 C   0  0  0  0  0  0  0  0  0  0  0  0
   -1.7943   -1.4063   -1.4052 C   0  0  0  0  0  0  0  0  0  0  0  0
   -1.5567   -0.9114   -0.0167 C   0  0  0  0  0  0  0  0  0  0  0  0
   -0.6537   -1.4107    0.9117 C   0  0  0  0  0  0  0  0  0  0  0  0
   -0.5197   -0.7414    2.1298 C   0  0  0  0  0  0  0  0  0  0  0  0
    0.4397   -1.2123    3.0668 N   0  0  0  0  0  0  0  0  0  0  0  0
    1.7979   -0.2692    3.4101 S   0  0  0  0  0  6  0  0  0  0  0  0
    2.7306   -1.1416    4.0926 O   0  0  0  0  0  0  0  0  0  0  0  0
    1.3820    0.9884    3.9910 O   0  0  0  0  0  0  0  0  0  0  0  0
    2.4720    0.0649    1.7931 C   0  0  0  0  0  0  0  0  0  0  0  0
    2.1646    1.2857    1.1534 C   0  0  0  0  0  0  0  0  0  0  0  0
    2.6800    1.5663   -0.1144 C   0  0  0  0  0  0  0  0  0  0  0  0
    3.4967    0.6152   -0.6886 C   0  0  0  0  0  0  0  0  0  0  0  0
    3.8196   -0.5853   -0.0552 C   0  0  0  0  0  0  0  0  0  0  0  0
    3.3195   -0.8813    1.1991 C   0  0  0  0  0  0  0  0  0  0  0  0
    4.7323   -1.3833   -0.9392 C   0  0  0  0  0  0  0  0  0  0  0  0
    4.8700   -0.4728   -2.1654 C   0  0  0  0  0  0  0  0  0  0  0  0
    5.5157   -0.7023   -3.1739 O   0  0  0  0  0  0  0  0  0  0  0  0
    4.1165    0.6701   -1.9256 N   0  0  0  0  0  0  0  0  0  0  0  0
   -1.2710    0.4120    2.3928 C   0  0  0  0  0  0  0  0  0  0  0  0
   -2.1721    0.9081    1.4432 C   0  0  0  0  0  0  0  0  0  0  0  0
   -2.3294    0.2180    0.2540 C   0  0  0  0  0  0  0  0  0  0  0  0
   -6.0913    2.2462   -2.1827 H   0  0  0  0  0  0  0  0  0  0  0  0
   -5.1970    0.8885   -2.9153 H   0  0  0  0  0  0  0  0  0  0  0  0
   -4.3691    2.4581   -2.6052 H   0  0  0  0  0  0  0  0  0  0  0  0
   -2.9605   -0.2761   -2.8632 H   0  0  0  0  0  0  0  0  0  0  0  0
   -3.9271   -1.2469   -1.7265 H   0  0  0  0  0  0  0  0  0  0  0  0
   -0.9398   -1.1547   -2.0424 H   0  0  0  0  0  0  0  0  0  0  0  0
   -1.9771   -2.4840   -1.4426 H   0  0  0  0  0  0  0  0  0  0  0  0
   -0.0532   -2.2832    0.6778 H   0  0  0  0  0  0  0  0  0  0  0  0
    0.6496   -2.2086    3.0821 H   0  0  0  0  0  0  0  0  0  0  0  0
    1.5186    2.0144    1.6411 H   0  0  0  0  0  0  0  0  0  0  0  0
    2.4446    2.4981   -0.6163 H   0  0  0  0  0  0  0  0  0  0  0  0
    3.5783   -1.8076    1.7032 H   0  0  0  0  0  0  0  0  0  0  0  0
    5.7112   -1.5265   -0.4754 H   0  0  0  0  0  0  0  0  0  0  0  0
    4.2726   -2.3298   -1.2338 H   0  0  0  0  0  0  0  0  0  0  0  0
    4.0543    1.4306   -2.5861 H   0  0  0  0  0  0  0  0  0  0  0  0
   -1.1586    0.9387    3.3386 H   0  0  0  0  0  0  0  0  0  0  0  0
   -2.7211    1.8184    1.6584 H   0  0  0  0  0  0  0  0  0  0  0  0
  1  2  1  0
  2  3  2  0
  2  4  2  0
  2  5  1  0
  5  6  1  0
  6  7  1  0
  7  8  1  0
  8  9  2  0
  9 10  1  0
 10 11  1  0
 11 12  1  0
 12 13  2  0
 12 14  2  0
 12 15  1  0
 15 16  2  0
 16 17  1  0
 17 18  2  0
 18 19  1  0
 19 20  2  0
 19 21  1  0
 21 22  1  0
 22 23  2  0
 22 24  1  0
 10 25  2  0
 25 26  1  0
 26 27  2  0
 27  5  1  0
 27  8  1  0
 20 15  1  0
 24 18  1  0
  1 28  1  0
  1 29  1  0
  1 30  1  0
  6 31  1  0
  6 32  1  0
  7 33  1  0
  7 34  1  0
  9 35  1  0
 11 36  1  0
 16 37  1  0
 17 38  1  0
 20 39  1  0
 21 40  1  0
 21 41  1  0
 24 42  1  0
 25 43  1  0
 26 44  1  0
M  END
$$$$
