
     RDKit          3D

 50 53  0  0  0  0  0  0  0  0999 V2000
    7.1866    1.3945    2.6387 C   0  0  0  0  0  0  0  0  0  0  0  0
    6.9991    1.4475    1.2301 O   0  0  0  0  0  0  0  0  0  0  0  0
    5.9757    0.7035    0.7114 C   0  0  0  0  0  0  0  0  0  0  0  0
    5.8767    0.7435   -0.6837 C   0  0  0  0  0  0  0  0  0  0  0  0
    4.8764    0.0311   -1.3481 C   0  0  0  0  0  0  0  0  0  0  0  0
    3.9558   -0.7128   -0.6092 C   0  0  0  0  0  0  0  0  0  0  0  0
    2.9095   -1.4737   -1.3271 C   0  0  0  0  0  0  0  0  0  0  0  0
    3.2671   -2.2588   -2.2014 O   0  0  0  0  0  0  0  0  0  0  0  0
    1.5784   -1.2730   -0.9825 N   0  0  0  0  0  0  0  0  0  0  0  0
    1.0705   -0.1570   -0.1738 C   0  0  0  0  0  0  0  0  0  0  0  0
   -0.2962    0.3718   -0.6577 C   0  0  0  0  0  0  0  0  0  0  0  0
   -1.2950   -0.7007   -0.8176 N   0  0  0  0  0  0  0  0  0  0  0  0
   -2.5574   -0.5452   -0.2518 C   0  0  0  0  0  0  0  0  0  0  0  0
   -3.2243    0.6657   -0.3270 C   0  0  0  0  0  0  0  0  0  0  0  0
   -4.4818    0.7387    0.2421 C   0  0  0  0  0  0  0  0  0  0  0  0
   -5.2244    1.9515    0.2020 N   0  0  0  0  0  0  0  0  0  0  0  0
   -6.4804    2.1425    0.7399 C   0  0  0  0  0  0  0  0  0  0  0  0
   -6.8096    3.4506    0.4822 C   0  0  0  0  0  0  0  0  0  0  0  0
   -5.8022    4.0779   -0.1964 N   0  0  0  0  0  0  0  0  0  0  0  0
   -4.8720    3.1605   -0.3536 C   0  0  0  0  0  0  0  0  0  0  0  0
   -5.0618   -0.3154    0.8519 N   0  0  0  0  0  0  0  0  0  0  0  0
   -4.3589   -1.4554    0.8704 C   0  0  0  0  0  0  0  0  0  0  0  0
   -4.9964   -2.6561    1.4954 C   0  0  0  0  0  0  0  0  0  0  0  0
   -3.1390   -1.6079    0.3301 N   0  0  0  0  0  0  0  0  0  0  0  0
   -0.7815   -2.0819   -0.8848 C   0  0  0  0  0  0  0  0  0  0  0  0
    0.5681   -2.1235   -1.6177 C   0  0  0  0  0  0  0  0  0  0  0  0
    4.0594   -0.7777    0.7841 C   0  0  0  0  0  0  0  0  0  0  0  0
    5.0660   -0.0634    1.4433 C   0  0  0  0  0  0  0  0  0  0  0  0
    8.0498    2.0204    2.8851 H   0  0  0  0  0  0  0  0  0  0  0  0
    7.4093    0.3746    2.9695 H   0  0  0  0  0  0  0  0  0  0  0  0
    6.3184    1.8015    3.1672 H   0  0  0  0  0  0  0  0  0  0  0  0
    6.5935    1.3267   -1.2577 H   0  0  0  0  0  0  0  0  0  0  0  0
    4.8195    0.0534   -2.4337 H   0  0  0  0  0  0  0  0  0  0  0  0
    1.7890    0.6679   -0.1663 H   0  0  0  0  0  0  0  0  0  0  0  0
    0.9733   -0.5328    0.8517 H   0  0  0  0  0  0  0  0  0  0  0  0
   -0.1684    0.8584   -1.6322 H   0  0  0  0  0  0  0  0  0  0  0  0
   -0.6233    1.1402    0.0530 H   0  0  0  0  0  0  0  0  0  0  0  0
   -2.7685    1.4967   -0.8443 H   0  0  0  0  0  0  0  0  0  0  0  0
   -7.0112    1.3478    1.2451 H   0  0  0  0  0  0  0  0  0  0  0  0
   -7.7197    3.9716    0.7510 H   0  0  0  0  0  0  0  0  0  0  0  0
   -3.9344    3.3336   -0.8617 H   0  0  0  0  0  0  0  0  0  0  0  0
   -4.2348   -3.3430    1.8771 H   0  0  0  0  0  0  0  0  0  0  0  0
   -5.6030   -3.1803    0.7512 H   0  0  0  0  0  0  0  0  0  0  0  0
   -5.6389   -2.3590    2.3299 H   0  0  0  0  0  0  0  0  0  0  0  0
   -0.6515   -2.4851    0.1281 H   0  0  0  0  0  0  0  0  0  0  0  0
   -1.4889   -2.7232   -1.4247 H   0  0  0  0  0  0  0  0  0  0  0  0
    0.4501   -1.7656   -2.6481 H   0  0  0  0  0  0  0  0  0  0  0  0
    0.9417   -3.1526   -1.6642 H   0  0  0  0  0  0  0  0  0  0  0  0
    3.3718   -1.3939    1.3574 H   0  0  0  0  0  0  0  0  0  0  0  0
    5.1181   -0.1342    2.5248 H   0  0  0  0  0  0  0  0  0  0  0  0
  1  2  1  0
  2  3  1  0
  3  4  2  0
  4  5  1  0
  5  6  2  0
  6  7  1  0
  7  8  2  0
  7  9  1  0
  9 10  1  0
 10 11  1  0
 11 12  1  0
 12 13  1  0
 13 14  2  0
 14 15  1  0
 15 16  1  0
 16 17  1  0
 17 18  2  0
 18 19  1  0
 19 20  2  0
 15 21  2  0
 21 22  1  0
 22 23  1  0
 22 24  2  0
 12 25  1  0
 25 26  1  0
  6 27  1  0
 27 28  2  0
 28  3  1  0
 26  9  1  0
 24 13  1  0
 20 16  1  0
  1 29  1  0
  1 30  1  0
  1 31  1  0
  4 32  1  0
  5 33  1  0
 10 34  1  0
 10 35  1  0
 11 36  1  0
 11 37  1  0
 14 38  1  0
 17 39  1  0
 18 40  1  0
 20 41  1  0
 23 42  1  0
 23 43  1  0
 23 44  1  0
 25 45  1  0
 25 46  1  0
 26 47  1  0
 26 48  1  0
 27 49  1  0
 28 50  1  0
M  END
$$$$
