
     RDKit          3D

 43 45  0  0  0  0  0  0  0  0999 V2000
    5.8411    0.6792    1.4530 C   0  0  0  0  0  0  0  0  0  0  0  0
    4.5538    0.8025    0.6445 C   0  0  0  0  0  0  0  0  0  0  0  0
    4.2932   -0.3789   -0.1890 N   0  0  0  0  0  0  0  0  0  0  0  0
    3.9487   -1.5897    0.5876 C   0  0  0  0  0  0  0  0  0  0  0  0
    2.5635   -1.5578    1.2606 C   0  0  0  0  0  0  0  0  0  0  0  0
    1.4904   -1.1787    0.3373 N   0  0  0  0  0  0  0  0  0  0  0  0
    0.2038   -1.5838    0.6629 C   0  0  0  0  0  0  0  0  0  0  0  0
   -0.0544   -2.2467    1.6686 O   0  0  0  0  0  0  0  0  0  0  0  0
   -0.9123   -1.1544   -0.2129 C   0  0  0  0  0  0  0  0  0  0  0  0
   -1.8693   -0.4163    0.3700 C   0  0  0  0  0  0  0  0  0  0  0  0
   -3.0178    0.0256   -0.4040 C   0  0  0  0  0  0  0  0  0  0  0  0
   -4.0355    0.8058    0.1569 C   0  0  0  0  0  0  0  0  0  0  0  0
   -5.1208    1.2102   -0.6279 C   0  0  0  0  0  0  0  0  0  0  0  0
   -6.1766    1.9714   -0.2072 O   0  0  0  0  0  0  0  0  0  0  0  0
   -6.1986    2.3481    1.1640 C   0  0  0  0  0  0  0  0  0  0  0  0
   -5.1803    0.8311   -1.9744 C   0  0  0  0  0  0  0  0  0  0  0  0
   -4.1719    0.0515   -2.5394 C   0  0  0  0  0  0  0  0  0  0  0  0
   -3.1027   -0.3417   -1.7433 C   0  0  0  0  0  0  0  0  0  0  0  0
   -2.1028   -1.1301   -2.3416 O   0  0  0  0  0  0  0  0  0  0  0  0
   -0.9947   -1.5762   -1.6244 C   0  0  0  0  0  0  0  0  0  0  0  0
   -0.1318   -2.2622   -2.1607 O   0  0  0  0  0  0  0  0  0  0  0  0
    1.7959   -0.0410   -0.5409 C   0  0  0  0  0  0  0  0  0  0  0  0
    3.2049   -0.1291   -1.1595 C   0  0  0  0  0  0  0  0  0  0  0  0
    5.7594   -0.0758    2.2403 H   0  0  0  0  0  0  0  0  0  0  0  0
    6.0681    1.6344    1.9384 H   0  0  0  0  0  0  0  0  0  0  0  0
    6.6893    0.4219    0.8099 H   0  0  0  0  0  0  0  0  0  0  0  0
    3.7209    1.0291    1.3192 H   0  0  0  0  0  0  0  0  0  0  0  0
    4.6752    1.6762   -0.0085 H   0  0  0  0  0  0  0  0  0  0  0  0
    4.7178   -1.8120    1.3346 H   0  0  0  0  0  0  0  0  0  0  0  0
    3.9722   -2.4417   -0.1056 H   0  0  0  0  0  0  0  0  0  0  0  0
    2.5508   -0.8390    2.0885 H   0  0  0  0  0  0  0  0  0  0  0  0
    2.3520   -2.5452    1.6869 H   0  0  0  0  0  0  0  0  0  0  0  0
   -1.8135   -0.1448    1.4203 H   0  0  0  0  0  0  0  0  0  0  0  0
   -3.9659    1.0868    1.2026 H   0  0  0  0  0  0  0  0  0  0  0  0
   -7.1105    2.9276    1.3370 H   0  0  0  0  0  0  0  0  0  0  0  0
   -5.3452    2.9885    1.4099 H   0  0  0  0  0  0  0  0  0  0  0  0
   -6.2342    1.4683    1.8150 H   0  0  0  0  0  0  0  0  0  0  0  0
   -6.0241    1.1453   -2.5848 H   0  0  0  0  0  0  0  0  0  0  0  0
   -4.2244   -0.2440   -3.5830 H   0  0  0  0  0  0  0  0  0  0  0  0
    1.7008    0.8650    0.0696 H   0  0  0  0  0  0  0  0  0  0  0  0
    1.0609    0.0463   -1.3435 H   0  0  0  0  0  0  0  0  0  0  0  0
    3.4125    0.7803   -1.7365 H   0  0  0  0  0  0  0  0  0  0  0  0
    3.2124   -0.9487   -1.8906 H   0  0  0  0  0  0  0  0  0  0  0  0
  1  2  1  0
  2  3  1  0
  3  4  1  0
  4  5  1  0
  5  6  1  0
  6  7  1  0
  7  8  2  0
  7  9  1  0
  9 10  2  0
 10 11  1  0
 11 12  2  0
 12 13  1  0
 13 14  1  0
 14 15  1  0
 13 16  2  0
 16 17  1  0
 17 18  2  0
 18 19  1  0
 19 20  1  0
 20 21  2  0
  6 22  1  0
 22 23  1  0
 23  3  1  0
 20  9  1  0
 18 11  1  0
  1 24  1  0
  1 25  1  0
  1 26  1  0
  2 27  1  0
  2 28  1  0
  4 29  1  0
  4 30  1  0
  5 31  1  0
  5 32  1  0
 10 33  1  0
 12 34  1  0
 15 35  1  0
 15 36  1  0
 15 37  1  0
 16 38  1  0
 17 39  1  0
 22 40  1  0
 22 41  1  0
 23 42  1  0
 23 43  1  0
M  END
$$$$
