
     RDKit          3D

 53 57  0  0  0  0  0  0  0  0999 V2000
    2.1822   -1.0836    2.2468 O   0  0  0  0  0  0  0  0  0  0  0  0
    1.8572   -1.8111    1.3146 C   0  0  0  0  0  0  0  0  0  0  0  0
    2.7899   -2.8808    0.7637 C   0  0  0  0  0  0  0  0  0  0  0  0
    4.2663   -2.5473    0.9704 C   0  0  0  0  0  0  0  0  0  0  0  0
    4.7593   -1.5159   -0.0195 C   0  0  0  0  0  0  0  0  0  0  0  0
    5.2157   -1.9185   -1.2944 C   0  0  0  0  0  0  0  0  0  0  0  0
    5.6576   -0.9784   -2.2291 C   0  0  0  0  0  0  0  0  0  0  0  0
    5.6208    0.3521   -1.8721 C   0  0  0  0  0  0  0  0  0  0  0  0
    5.1771    0.7644   -0.6267 C   0  0  0  0  0  0  0  0  0  0  0  0
    4.7464   -0.1525    0.3156 C   0  0  0  0  0  0  0  0  0  0  0  0
    5.3250    2.2319   -0.5173 C   0  0  0  0  0  0  0  0  0  0  0  0
    5.5440    2.5615   -1.9946 C   0  0  0  0  0  0  0  0  0  0  0  0
    6.0254    1.3816   -2.6813 O   0  0  0  0  0  0  0  0  0  0  0  0
    0.6247   -1.8230    0.6803 N   0  0  0  0  0  0  0  0  0  0  0  0
   -0.4888   -1.0020    0.9514 C   0  0  0  0  0  0  0  0  0  0  0  0
   -0.5355   -0.0565    1.9689 C   0  0  0  0  0  0  0  0  0  0  0  0
   -1.6894    0.7100    2.1709 C   0  0  0  0  0  0  0  0  0  0  0  0
   -2.8172    0.5709    1.3472 C   0  0  0  0  0  0  0  0  0  0  0  0
   -2.7900   -0.4034    0.3378 C   0  0  0  0  0  0  0  0  0  0  0  0
   -1.6221   -1.1749    0.1511 C   0  0  0  0  0  0  0  0  0  0  0  0
   -3.9651   -0.8306   -0.4703 C   0  0  0  0  0  0  0  0  0  0  0  0
   -4.0283   -1.9967   -0.8568 O   0  0  0  0  0  0  0  0  0  0  0  0
   -4.9516    0.0775   -0.7493 N   0  0  0  0  0  0  0  0  0  0  0  0
   -6.1521   -0.3002   -1.4713 C   0  0  0  0  0  0  0  0  0  0  0  0
   -7.0226    0.9431   -1.4184 C   0  0  0  0  0  0  0  0  0  0  0  0
   -5.9952    2.0696   -1.4586 C   0  0  0  0  0  0  0  0  0  0  0  0
   -4.8280    1.5185   -0.6342 C   0  0  1  0  0  0  0  0  0  0  0  0
   -4.8772    1.9070    0.8395 C   0  0  0  0  0  0  0  0  0  0  0  0
   -5.6772    2.7247    1.2963 O   0  0  0  0  0  0  0  0  0  0  0  0
   -3.8863    1.4313    1.6564 N   0  0  0  0  0  0  0  0  0  0  0  0
    2.5808   -3.0571   -0.2979 H   0  0  0  0  0  0  0  0  0  0  0  0
    2.5533   -3.8044    1.3059 H   0  0  0  0  0  0  0  0  0  0  0  0
    4.4628   -2.2056    1.9940 H   0  0  0  0  0  0  0  0  0  0  0  0
    4.8614   -3.4609    0.8437 H   0  0  0  0  0  0  0  0  0  0  0  0
    5.2338   -2.9731   -1.5604 H   0  0  0  0  0  0  0  0  0  0  0  0
    6.0165   -1.2814   -3.2060 H   0  0  0  0  0  0  0  0  0  0  0  0
    4.4083    0.1789    1.2944 H   0  0  0  0  0  0  0  0  0  0  0  0
    4.4447    2.7379   -0.1130 H   0  0  0  0  0  0  0  0  0  0  0  0
    6.2091    2.4808    0.0783 H   0  0  0  0  0  0  0  0  0  0  0  0
    6.2663    3.3744   -2.1226 H   0  0  0  0  0  0  0  0  0  0  0  0
    4.6048    2.8662   -2.4741 H   0  0  0  0  0  0  0  0  0  0  0  0
    0.5113   -2.4839   -0.0794 H   0  0  0  0  0  0  0  0  0  0  0  0
    0.3061    0.1115    2.6340 H   0  0  0  0  0  0  0  0  0  0  0  0
   -1.6769    1.4408    2.9780 H   0  0  0  0  0  0  0  0  0  0  0  0
   -1.6218   -1.9404   -0.6242 H   0  0  0  0  0  0  0  0  0  0  0  0
   -6.6225   -1.1753   -1.0135 H   0  0  0  0  0  0  0  0  0  0  0  0
   -5.8673   -0.5464   -2.5005 H   0  0  0  0  0  0  0  0  0  0  0  0
   -7.5763    0.9783   -0.4726 H   0  0  0  0  0  0  0  0  0  0  0  0
   -7.7414    0.9903   -2.2408 H   0  0  0  0  0  0  0  0  0  0  0  0
   -5.6705    2.2206   -2.4959 H   0  0  0  0  0  0  0  0  0  0  0  0
   -6.4000    3.0179   -1.0945 H   0  0  0  0  0  0  0  0  0  0  0  0
   -3.8720    1.8581   -1.0497 H   0  0  0  0  0  0  0  0  0  0  0  0
   -3.8755    1.9039    2.5535 H   0  0  0  0  0  0  0  0  0  0  0  0
  1  2  2  0
  2  3  1  0
  3  4  1  0
  4  5  1  0
  5  6  2  0
  6  7  1  0
  7  8  2  0
  8  9  1  0
  9 10  2  0
  9 11  1  0
 11 12  1  0
 12 13  1  0
  2 14  1  0
 14 15  1  0
 15 16  2  0
 16 17  1  0
 17 18  2  0
 18 19  1  0
 19 20  2  0
 19 21  1  0
 21 22  2  0
 21 23  1  0
 23 24  1  0
 24 25  1  0
 25 26  1  0
 26 27  1  0
 27 28  1  0
 28 29  2  0
 28 30  1  0
 10  5  1  0
 20 15  1  0
 27 23  1  0
 13  8  1  0
 30 18  1  0
  3 31  1  0
  3 32  1  0
  4 33  1  0
  4 34  1  0
  6 35  1  0
  7 36  1  0
 10 37  1  0
 11 38  1  0
 11 39  1  0
 12 40  1  0
 12 41  1  0
 14 42  1  0
 16 43  1  0
 17 44  1  0
 20 45  1  0
 24 46  1  0
 24 47  1  0
 25 48  1  0
 25 49  1  0
 26 50  1  0
 26 51  1  0
 27 52  1  6
 30 53  1  0
M  END
$$$$
