
     RDKit          3D

 36 38  0  0  0  0  0  0  0  0999 V2000
   -6.6536   -1.8249   -1.5521 N   0  0  0  0  0  0  0  0  0  0  0  0
   -6.0321   -1.9828   -0.3446 C   0  0  0  0  0  0  0  0  0  0  0  0
   -6.6289   -2.4592    0.6118 O   0  0  0  0  0  0  0  0  0  0  0  0
   -4.6279   -1.5100   -0.2399 C   0  0  0  0  0  0  0  0  0  0  0  0
   -3.7738   -1.4794   -1.3458 C   0  0  0  0  0  0  0  0  0  0  0  0
   -2.4559   -1.0319   -1.1969 C   0  0  0  0  0  0  0  0  0  0  0  0
   -1.9745   -0.6130    0.0517 C   0  0  0  0  0  0  0  0  0  0  0  0
   -0.6362   -0.1784    0.1087 N   0  0  0  0  0  0  0  0  0  0  0  0
    0.0443    0.3485    1.1875 C   0  0  0  0  0  0  0  0  0  0  0  0
   -0.4265    0.5494    2.3020 O   0  0  0  0  0  0  0  0  0  0  0  0
    1.4699    0.7265    0.9472 C   0  0  0  0  0  0  0  0  0  0  0  0
    2.1385    1.3823    1.9687 C   0  0  0  0  0  0  0  0  0  0  0  0
    3.4301    1.7944    1.9046 N   0  0  0  0  0  0  0  0  0  0  0  0
    4.1125    1.5787    0.7732 C   0  0  0  0  0  0  0  0  0  0  0  0
    5.4244    2.0327    0.7031 C   0  0  0  0  0  0  0  0  0  0  0  0
    6.1949    1.8793   -0.4487 C   0  0  0  0  0  0  0  0  0  0  0  0
    5.6377    1.2566   -1.5503 C   0  0  0  0  0  0  0  0  0  0  0  0
    6.3531    1.1248   -2.6731 F   0  0  0  0  0  0  0  0  0  0  0  0
    4.3329    0.7788   -1.5123 C   0  0  0  0  0  0  0  0  0  0  0  0
    3.5473    0.9217   -0.3433 C   0  0  0  0  0  0  0  0  0  0  0  0
    2.2075    0.4718   -0.2154 C   0  0  0  0  0  0  0  0  0  0  0  0
    1.6093   -0.2273   -1.2411 O   0  0  0  0  0  0  0  0  0  0  0  0
   -2.8304   -0.6561    1.1519 C   0  0  0  0  0  0  0  0  0  0  0  0
   -4.1480   -1.1094    1.0109 C   0  0  0  0  0  0  0  0  0  0  0  0
   -6.3082   -1.1706   -2.2402 H   0  0  0  0  0  0  0  0  0  0  0  0
   -7.6481   -2.0162   -1.5564 H   0  0  0  0  0  0  0  0  0  0  0  0
   -4.1067   -1.8255   -2.3189 H   0  0  0  0  0  0  0  0  0  0  0  0
   -1.8091   -1.0214   -2.0705 H   0  0  0  0  0  0  0  0  0  0  0  0
   -0.1017   -0.2464   -0.7547 H   0  0  0  0  0  0  0  0  0  0  0  0
    1.6468    1.6094    2.9134 H   0  0  0  0  0  0  0  0  0  0  0  0
    5.8530    2.5363    1.5677 H   0  0  0  0  0  0  0  0  0  0  0  0
    7.2136    2.2509   -0.4912 H   0  0  0  0  0  0  0  0  0  0  0  0
    3.9459    0.3220   -2.4173 H   0  0  0  0  0  0  0  0  0  0  0  0
    2.2987   -0.7090   -1.7332 H   0  0  0  0  0  0  0  0  0  0  0  0
   -2.5016   -0.3572    2.1421 H   0  0  0  0  0  0  0  0  0  0  0  0
   -4.7971   -1.1453    1.8828 H   0  0  0  0  0  0  0  0  0  0  0  0
  1  2  1  0
  2  3  2  0
  2  4  1  0
  4  5  2  0
  5  6  1  0
  6  7  2  0
  7  8  1  0
  8  9  1  0
  9 10  2  0
  9 11  1  0
 11 12  2  0
 12 13  1  0
 13 14  2  0
 14 15  1  0
 15 16  2  0
 16 17  1  0
 17 18  1  0
 17 19  2  0
 19 20  1  0
 20 21  2  0
 21 22  1  0
  7 23  1  0
 23 24  2  0
 24  4  1  0
 21 11  1  0
 20 14  1  0
  1 25  1  0
  1 26  1  0
  5 27  1  0
  6 28  1  0
  8 29  1  0
 12 30  1  0
 15 31  1  0
 16 32  1  0
 19 33  1  0
 22 34  1  0
 23 35  1  0
 24 36  1  0
M  END
$$$$
