
     RDKit          3D

 47 49  0  0  0  0  0  0  0  0999 V2000
    4.1540    2.8520    1.3195 C   0  0  0  0  0  0  0  0  0  0  0  0
    4.3395    2.1628   -0.0294 C   0  0  0  0  0  0  0  0  0  0  0  0
    3.7292    0.8194   -0.0545 N   0  0  0  0  0  0  0  0  0  0  0  0
    4.3213   -0.0043   -1.1268 C   0  0  0  0  0  0  0  0  0  0  0  0
    5.6965   -0.5442   -0.7422 C   0  0  0  0  0  0  0  0  0  0  0  0
    2.2619    0.9141   -0.2160 C   0  0  0  0  0  0  0  0  0  0  0  0
    1.5128   -0.3627    0.2097 C   0  0  0  0  0  0  0  0  0  0  0  0
    0.0711   -0.1951    0.1021 N   0  0  0  0  0  0  0  0  0  0  0  0
   -0.7838   -1.1539    0.6335 C   0  0  0  0  0  0  0  0  0  0  0  0
   -0.3157   -2.1195    1.2314 O   0  0  0  0  0  0  0  0  0  0  0  0
   -2.1476   -0.9322    0.3203 N   0  0  0  0  0  0  0  0  0  0  0  0
   -3.1021   -2.0225    0.3072 C   0  0  0  0  0  0  0  0  0  0  0  0
   -2.9208   -3.1652    1.1090 C   0  0  0  0  0  0  0  0  0  0  0  0
   -3.8279   -4.2320    1.0984 C   0  0  0  0  0  0  0  0  0  0  0  0
   -4.9445   -4.1878    0.2782 C   0  0  0  0  0  0  0  0  0  0  0  0
   -5.1530   -3.0731   -0.5262 C   0  0  0  0  0  0  0  0  0  0  0  0
   -4.2473   -1.9972   -0.5130 C   0  0  0  0  0  0  0  0  0  0  0  0
   -4.5849   -0.6622   -1.6367 S   0  0  0  0  0  0  0  0  0  0  0  0
   -3.7769    0.6384   -0.7476 C   0  0  0  0  0  0  0  0  0  0  0  0
   -4.2524    1.9463   -0.9413 C   0  0  0  0  0  0  0  0  0  0  0  0
   -3.6656    3.0231   -0.2820 C   0  0  0  0  0  0  0  0  0  0  0  0
   -2.6033    2.7981    0.5818 C   0  0  0  0  0  0  0  0  0  0  0  0
   -2.1222    1.4994    0.7695 C   0  0  0  0  0  0  0  0  0  0  0  0
   -2.6802    0.3945    0.0925 C   0  0  0  0  0  0  0  0  0  0  0  0
    4.7103    3.7955    1.3342 H   0  0  0  0  0  0  0  0  0  0  0  0
    4.5348    2.2289    2.1346 H   0  0  0  0  0  0  0  0  0  0  0  0
    3.1070    3.0875    1.5264 H   0  0  0  0  0  0  0  0  0  0  0  0
    3.9421    2.7932   -0.8355 H   0  0  0  0  0  0  0  0  0  0  0  0
    5.4210    2.0995   -0.1924 H   0  0  0  0  0  0  0  0  0  0  0  0
    3.6978   -0.8817   -1.3289 H   0  0  0  0  0  0  0  0  0  0  0  0
    4.3818    0.5556   -2.0687 H   0  0  0  0  0  0  0  0  0  0  0  0
    6.4453    0.2482   -0.6539 H   0  0  0  0  0  0  0  0  0  0  0  0
    6.0489   -1.2443   -1.5080 H   0  0  0  0  0  0  0  0  0  0  0  0
    5.6533   -1.0857    0.2096 H   0  0  0  0  0  0  0  0  0  0  0  0
    2.0031    1.1766   -1.2508 H   0  0  0  0  0  0  0  0  0  0  0  0
    1.8617    1.7243    0.4049 H   0  0  0  0  0  0  0  0  0  0  0  0
    1.7555   -0.6150    1.2493 H   0  0  0  0  0  0  0  0  0  0  0  0
    1.7800   -1.2213   -0.4146 H   0  0  0  0  0  0  0  0  0  0  0  0
   -0.2703    0.1980   -0.7644 H   0  0  0  0  0  0  0  0  0  0  0  0
   -2.0901   -3.2487    1.8031 H   0  0  0  0  0  0  0  0  0  0  0  0
   -3.6539   -5.0921    1.7402 H   0  0  0  0  0  0  0  0  0  0  0  0
   -5.6483   -5.0155    0.2627 H   0  0  0  0  0  0  0  0  0  0  0  0
   -6.0269   -3.0493   -1.1740 H   0  0  0  0  0  0  0  0  0  0  0  0
   -5.0928    2.1321   -1.6074 H   0  0  0  0  0  0  0  0  0  0  0  0
   -4.0469    4.0297   -0.4328 H   0  0  0  0  0  0  0  0  0  0  0  0
   -2.1525    3.6272    1.1221 H   0  0  0  0  0  0  0  0  0  0  0  0
   -1.3190    1.3612    1.4919 H   0  0  0  0  0  0  0  0  0  0  0  0
  1  2  1  0
  2  3  1  0
  3  4  1  0
  4  5  1  0
  3  6  1  0
  6  7  1  0
  7  8  1  0
  8  9  1  0
  9 10  2  0
  9 11  1  0
 11 12  1  0
 12 13  2  0
 13 14  1  0
 14 15  2  0
 15 16  1  0
 16 17  2  0
 17 18  1  0
 18 19  1  0
 19 20  2  0
 20 21  1  0
 21 22  2  0
 22 23  1  0
 23 24  2  0
 24 11  1  0
 17 12  1  0
 24 19  1  0
  1 25  1  0
  1 26  1  0
  1 27  1  0
  2 28  1  0
  2 29  1  0
  4 30  1  0
  4 31  1  0
  5 32  1  0
  5 33  1  0
  5 34  1  0
  6 35  1  0
  6 36  1  0
  7 37  1  0
  7 38  1  0
  8 39  1  0
 13 40  1  0
 14 41  1  0
 15 42  1  0
 16 43  1  0
 20 44  1  0
 21 45  1  0
 22 46  1  0
 23 47  1  0
M  END
$$$$
