
     RDKit          3D

 62 65  0  0  0  0  0  0  0  0999 V2000
    6.7881    2.3030    0.2769 C   0  0  0  0  0  0  0  0  0  0  0  0
    6.5193    0.9434   -0.3375 C   0  0  0  0  0  0  0  0  0  0  0  0
    5.8493    0.1394    0.6330 O   0  0  0  0  0  0  0  0  0  0  0  0
    5.5785   -1.1694    0.1527 C   0  0  0  0  0  0  0  0  0  0  0  0
    4.5489   -1.2881   -0.9844 C   0  0  0  0  0  0  0  0  0  0  0  0
    4.8244   -1.9376   -1.9962 O   0  0  0  0  0  0  0  0  0  0  0  0
    3.3257   -0.6524   -0.8265 N   0  0  0  0  0  0  0  0  0  0  0  0
    2.3109   -0.7933   -1.8747 C   0  0  0  0  0  0  0  0  0  0  0  0
    1.2311   -1.8040   -1.4462 C   0  0  0  0  0  0  0  0  0  0  0  0
    0.6465   -1.4809   -0.1132 N   0  0  0  0  0  0  0  0  0  0  0  0
   -0.4257   -0.5983   -0.0783 C   0  0  0  0  0  0  0  0  0  0  0  0
   -0.4025    0.4525   -0.8525 N   0  0  0  0  0  0  0  0  0  0  0  0
   -1.4553    1.2932   -0.7529 C   0  0  0  0  0  0  0  0  0  0  0  0
   -1.5537    2.7061   -1.7054 S   0  0  0  0  0  0  0  0  0  0  0  0
   -3.0459    3.1394   -1.0123 C   0  0  0  0  0  0  0  0  0  0  0  0
   -3.4709    2.2379   -0.0536 C   0  0  0  0  0  0  0  0  0  0  0  0
   -2.5392    1.1575    0.0802 C   0  0  0  0  0  0  0  0  0  0  0  0
   -2.5883   -0.0138    0.9296 C   0  0  0  0  0  0  0  0  0  0  0  0
   -3.5293   -0.2232    1.6928 O   0  0  0  0  0  0  0  0  0  0  0  0
   -1.4879   -0.8745    0.7958 N   0  0  0  0  0  0  0  0  0  0  0  0
   -1.5590   -2.1282    1.5510 C   0  0  0  0  0  0  0  0  0  0  0  0
   -2.4964   -3.1740    0.9088 C   0  0  0  0  0  0  0  0  0  0  0  0
   -1.9834   -3.6577   -0.4482 C   0  0  0  0  0  0  0  0  0  0  0  0
   -2.6648   -4.3663    1.8533 C   0  0  0  0  0  0  0  0  0  0  0  0
   -4.7675    2.4130    0.6816 C   0  0  0  0  0  0  0  0  0  0  0  0
   -5.3254    3.8376    0.5281 C   0  0  0  0  0  0  0  0  0  0  0  0
   -5.2278    4.3369   -0.9204 C   0  0  0  0  0  0  0  0  0  0  0  0
   -3.7709    4.3886   -1.4057 C   0  0  0  0  0  0  0  0  0  0  0  0
    1.6993   -1.2812    0.9187 C   0  0  0  0  0  0  0  0  0  0  0  0
    2.7593   -0.2553    0.4675 C   0  0  0  0  0  0  0  0  0  0  0  0
    7.4025    2.2044    1.1780 H   0  0  0  0  0  0  0  0  0  0  0  0
    7.3035    2.9567   -0.4323 H   0  0  0  0  0  0  0  0  0  0  0  0
    5.8506    2.7804    0.5810 H   0  0  0  0  0  0  0  0  0  0  0  0
    7.4657    0.4706   -0.6217 H   0  0  0  0  0  0  0  0  0  0  0  0
    5.8933    1.0608   -1.2282 H   0  0  0  0  0  0  0  0  0  0  0  0
    5.2107   -1.7692    0.9926 H   0  0  0  0  0  0  0  0  0  0  0  0
    6.5157   -1.6363   -0.1743 H   0  0  0  0  0  0  0  0  0  0  0  0
    1.8814    0.1995   -2.0442 H   0  0  0  0  0  0  0  0  0  0  0  0
    2.7631   -1.1127   -2.8191 H   0  0  0  0  0  0  0  0  0  0  0  0
    1.6761   -2.8045   -1.3796 H   0  0  0  0  0  0  0  0  0  0  0  0
    0.4405   -1.8600   -2.2036 H   0  0  0  0  0  0  0  0  0  0  0  0
   -0.5652   -2.5647    1.6842 H   0  0  0  0  0  0  0  0  0  0  0  0
   -1.9226   -1.8889    2.5587 H   0  0  0  0  0  0  0  0  0  0  0  0
   -3.4868   -2.7293    0.7528 H   0  0  0  0  0  0  0  0  0  0  0  0
   -1.9516   -2.8393   -1.1740 H   0  0  0  0  0  0  0  0  0  0  0  0
   -0.9782   -4.0842   -0.3653 H   0  0  0  0  0  0  0  0  0  0  0  0
   -2.6431   -4.4298   -0.8588 H   0  0  0  0  0  0  0  0  0  0  0  0
   -3.3526   -5.1054    1.4289 H   0  0  0  0  0  0  0  0  0  0  0  0
   -1.7069   -4.8633    2.0411 H   0  0  0  0  0  0  0  0  0  0  0  0
   -3.0752   -4.0446    2.8164 H   0  0  0  0  0  0  0  0  0  0  0  0
   -5.4937    1.6941    0.2826 H   0  0  0  0  0  0  0  0  0  0  0  0
   -4.6376    2.1954    1.7474 H   0  0  0  0  0  0  0  0  0  0  0  0
   -6.3687    3.8586    0.8625 H   0  0  0  0  0  0  0  0  0  0  0  0
   -4.7667    4.5215    1.1800 H   0  0  0  0  0  0  0  0  0  0  0  0
   -5.8083    3.6686   -1.5694 H   0  0  0  0  0  0  0  0  0  0  0  0
   -5.6759    5.3333   -1.0043 H   0  0  0  0  0  0  0  0  0  0  0  0
   -3.2669    5.2501   -0.9504 H   0  0  0  0  0  0  0  0  0  0  0  0
   -3.7541    4.5300   -2.4922 H   0  0  0  0  0  0  0  0  0  0  0  0
    2.1802   -2.2493    1.1047 H   0  0  0  0  0  0  0  0  0  0  0  0
    1.2537   -0.9558    1.8658 H   0  0  0  0  0  0  0  0  0  0  0  0
    2.3065    0.7344    0.3376 H   0  0  0  0  0  0  0  0  0  0  0  0
    3.5230   -0.1716    1.2411 H   0  0  0  0  0  0  0  0  0  0  0  0
  1  2  1  0
  2  3  1  0
  3  4  1  0
  4  5  1  0
  5  6  2  0
  5  7  1  0
  7  8  1  0
  8  9  1  0
  9 10  1  0
 10 11  1  0
 11 12  2  0
 12 13  1  0
 13 14  1  0
 14 15  1  0
 15 16  2  0
 16 17  1  0
 17 18  1  0
 18 19  2  0
 18 20  1  0
 20 21  1  0
 21 22  1  0
 22 23  1  0
 22 24  1  0
 16 25  1  0
 25 26  1  0
 26 27  1  0
 27 28  1  0
 10 29  1  0
 29 30  1  0
 30  7  1  0
 20 11  1  0
 17 13  2  0
 28 15  1  0
  1 31  1  0
  1 32  1  0
  1 33  1  0
  2 34  1  0
  2 35  1  0
  4 36  1  0
  4 37  1  0
  8 38  1  0
  8 39  1  0
  9 40  1  0
  9 41  1  0
 21 42  1  0
 21 43  1  0
 22 44  1  0
 23 45  1  0
 23 46  1  0
 23 47  1  0
 24 48  1  0
 24 49  1  0
 24 50  1  0
 25 51  1  0
 25 52  1  0
 26 53  1  0
 26 54  1  0
 27 55  1  0
 27 56  1  0
 28 57  1  0
 28 58  1  0
 29 59  1  0
 29 60  1  0
 30 61  1  0
 30 62  1  0
M  END
$$$$
