
     RDKit          3D

 47 49  0  0  0  0  0  0  0  0999 V2000
   -3.4385    3.9115    0.7052 C   0  0  0  0  0  0  0  0  0  0  0  0
   -3.1216    3.2578   -0.6323 C   0  0  0  0  0  0  0  0  0  0  0  0
   -2.4628    1.9533   -0.4415 N   0  0  0  0  0  0  0  0  0  0  0  0
   -1.0769    1.8613   -0.4109 C   0  0  0  0  0  0  0  0  0  0  0  0
   -0.3459    0.7506   -0.2339 C   0  0  0  0  0  0  0  0  0  0  0  0
    1.1478    0.8612   -0.2373 C   0  0  0  0  0  0  0  0  0  0  0  0
    1.6840    1.9557   -0.3923 O   0  0  0  0  0  0  0  0  0  0  0  0
    1.8038   -0.3382   -0.0567 N   0  0  0  0  0  0  0  0  0  0  0  0
    3.1910   -0.5747   -0.0097 C   0  0  0  0  0  0  0  0  0  0  0  0
    4.1614    0.4192   -0.1446 C   0  0  0  0  0  0  0  0  0  0  0  0
    5.5256    0.1003   -0.0858 C   0  0  0  0  0  0  0  0  0  0  0  0
    5.9345   -1.2223    0.1096 C   0  0  0  0  0  0  0  0  0  0  0  0
    7.3743   -1.6117    0.1793 C   0  0  0  0  0  0  0  0  0  0  0  0
    8.4267   -0.5440    0.0336 C   0  0  0  0  0  0  0  0  0  0  0  0
    7.6837   -2.7889    0.3535 O   0  0  0  0  0  0  0  0  0  0  0  0
    4.9635   -2.2204    0.2452 C   0  0  0  0  0  0  0  0  0  0  0  0
    3.6037   -1.8976    0.1858 C   0  0  0  0  0  0  0  0  0  0  0  0
   -1.0985   -0.5122   -0.0469 C   0  0  0  0  0  0  0  0  0  0  0  0
   -0.5099   -1.5813    0.1048 O   0  0  0  0  0  0  0  0  0  0  0  0
   -2.5813   -0.4498   -0.0411 C   0  0  0  0  0  0  0  0  0  0  0  0
   -3.3005   -1.6377    0.1627 C   0  0  0  0  0  0  0  0  0  0  0  0
   -4.6920   -1.6255    0.1839 C   0  0  0  0  0  0  0  0  0  0  0  0
   -5.2749   -2.8431    0.3909 O   0  0  0  0  0  0  0  0  0  0  0  0
   -6.6963   -2.8844    0.4172 C   0  0  0  0  0  0  0  0  0  0  0  0
   -5.3562   -0.4169    0.0015 C   0  0  0  0  0  0  0  0  0  0  0  0
   -4.6339    0.7702   -0.2035 C   0  0  0  0  0  0  0  0  0  0  0  0
   -3.2308    0.7870   -0.2331 C   0  0  0  0  0  0  0  0  0  0  0  0
   -2.5279    4.0590    1.2954 H   0  0  0  0  0  0  0  0  0  0  0  0
   -4.1258    3.3029    1.3007 H   0  0  0  0  0  0  0  0  0  0  0  0
   -3.9025    4.8900    0.5470 H   0  0  0  0  0  0  0  0  0  0  0  0
   -4.0205    3.1745   -1.2528 H   0  0  0  0  0  0  0  0  0  0  0  0
   -2.4577    3.9269   -1.1957 H   0  0  0  0  0  0  0  0  0  0  0  0
   -0.5816    2.8213   -0.5517 H   0  0  0  0  0  0  0  0  0  0  0  0
    1.2085   -1.1617    0.0568 H   0  0  0  0  0  0  0  0  0  0  0  0
    3.8918    1.4597   -0.2978 H   0  0  0  0  0  0  0  0  0  0  0  0
    6.2414    0.9095   -0.1963 H   0  0  0  0  0  0  0  0  0  0  0  0
    8.3491   -0.0664   -0.9465 H   0  0  0  0  0  0  0  0  0  0  0  0
    8.3336    0.1921    0.8362 H   0  0  0  0  0  0  0  0  0  0  0  0
    9.4173   -1.0035    0.1088 H   0  0  0  0  0  0  0  0  0  0  0  0
    5.2582   -3.2572    0.3981 H   0  0  0  0  0  0  0  0  0  0  0  0
    2.8738   -2.6972    0.2949 H   0  0  0  0  0  0  0  0  0  0  0  0
   -2.7741   -2.5792    0.3075 H   0  0  0  0  0  0  0  0  0  0  0  0
   -7.0930   -2.2823    1.2412 H   0  0  0  0  0  0  0  0  0  0  0  0
   -6.9976   -3.9225    0.5878 H   0  0  0  0  0  0  0  0  0  0  0  0
   -7.1180   -2.5683   -0.5427 H   0  0  0  0  0  0  0  0  0  0  0  0
   -6.4400   -0.3548    0.0128 H   0  0  0  0  0  0  0  0  0  0  0  0
   -5.2149    1.6779   -0.3328 H   0  0  0  0  0  0  0  0  0  0  0  0
  1  2  1  0
  2  3  1  0
  3  4  1  0
  4  5  2  0
  5  6  1  0
  6  7  2  0
  6  8  1  0
  8  9  1  0
  9 10  2  0
 10 11  1  0
 11 12  2  0
 12 13  1  0
 13 14  1  0
 13 15  2  0
 12 16  1  0
 16 17  2  0
  5 18  1  0
 18 19  2  0
 18 20  1  0
 20 21  2  0
 21 22  1  0
 22 23  1  0
 23 24  1  0
 22 25  2  0
 25 26  1  0
 26 27  2  0
 27  3  1  0
 17  9  1  0
 27 20  1  0
  1 28  1  0
  1 29  1  0
  1 30  1  0
  2 31  1  0
  2 32  1  0
  4 33  1  0
  8 34  1  0
 10 35  1  0
 11 36  1  0
 14 37  1  0
 14 38  1  0
 14 39  1  0
 16 40  1  0
 17 41  1  0
 21 42  1  0
 24 43  1  0
 24 44  1  0
 24 45  1  0
 25 46  1  0
 26 47  1  0
M  END
$$$$
