
     RDKit          3D

 45 46  0  0  0  0  0  0  0  0999 V2000
    3.2599   -2.3331   -1.5420 C   0  0  0  0  0  0  0  0  0  0  0  0
    2.1086   -1.3565   -1.3269 C   0  0  0  0  0  0  0  0  0  0  0  0
    2.2555   -0.5735    0.3323 S   0  0  0  0  0  0  0  0  0  0  0  0
    3.3123    0.7966   -0.0873 C   0  0  0  0  0  0  0  0  0  0  0  0
    4.6927    0.7115    0.1221 C   0  0  0  0  0  0  0  0  0  0  0  0
    5.5198    1.7835   -0.2185 C   0  0  0  0  0  0  0  0  0  0  0  0
    4.9708    2.9458   -0.7591 C   0  0  0  0  0  0  0  0  0  0  0  0
    3.5941    3.0398   -0.9561 C   0  0  0  0  0  0  0  0  0  0  0  0
    2.7648    1.9685   -0.6191 C   0  0  0  0  0  0  0  0  0  0  0  0
    0.7489   -2.0593   -1.4224 C   0  0  0  0  0  0  0  0  0  0  0  0
    0.6204   -3.2589   -1.6502 O   0  0  0  0  0  0  0  0  0  0  0  0
   -0.3309   -1.2035   -1.2948 N   0  0  0  0  0  0  0  0  0  0  0  0
   -1.6964   -1.6865   -1.2718 C   0  0  0  0  0  0  0  0  0  0  0  0
   -2.1141   -2.2371    0.0948 C   0  0  0  0  0  0  0  0  0  0  0  0
   -2.0041   -1.2214    1.2452 C   0  0  0  0  0  0  0  0  0  0  0  0
   -2.6903    0.0499    0.9811 N   0  0  0  0  0  0  0  0  0  0  0  0
   -4.1663   -0.0555    1.0161 C   0  0  0  0  0  0  0  0  0  0  0  0
   -4.8077    0.5694    2.2656 C   0  0  0  0  0  0  0  0  0  0  0  0
   -4.4855    1.9556    2.4337 O   0  0  0  0  0  0  0  0  0  0  0  0
   -3.1867    2.2945    1.9319 C   0  0  0  0  0  0  0  0  0  0  0  0
   -2.2215    1.0995    1.9104 C   0  0  0  0  0  0  0  0  0  0  0  0
    3.1822   -2.8047   -2.5272 H   0  0  0  0  0  0  0  0  0  0  0  0
    3.2557   -3.1395   -0.8006 H   0  0  0  0  0  0  0  0  0  0  0  0
    4.2331   -1.8317   -1.5017 H   0  0  0  0  0  0  0  0  0  0  0  0
    2.1309   -0.5873   -2.1100 H   0  0  0  0  0  0  0  0  0  0  0  0
    5.1336   -0.1871    0.5461 H   0  0  0  0  0  0  0  0  0  0  0  0
    6.5935    1.7118   -0.0619 H   0  0  0  0  0  0  0  0  0  0  0  0
    5.6165    3.7805   -1.0221 H   0  0  0  0  0  0  0  0  0  0  0  0
    3.1649    3.9501   -1.3686 H   0  0  0  0  0  0  0  0  0  0  0  0
    1.6925    2.0614   -0.7662 H   0  0  0  0  0  0  0  0  0  0  0  0
   -0.1590   -0.2913   -0.8865 H   0  0  0  0  0  0  0  0  0  0  0  0
   -2.3380   -0.8538   -1.5762 H   0  0  0  0  0  0  0  0  0  0  0  0
   -1.8015   -2.4748   -2.0264 H   0  0  0  0  0  0  0  0  0  0  0  0
   -3.1400   -2.6162    0.0204 H   0  0  0  0  0  0  0  0  0  0  0  0
   -1.4874   -3.1016    0.3479 H   0  0  0  0  0  0  0  0  0  0  0  0
   -2.3776   -1.6789    2.1721 H   0  0  0  0  0  0  0  0  0  0  0  0
   -0.9375   -1.0253    1.4100 H   0  0  0  0  0  0  0  0  0  0  0  0
   -4.5104   -1.0901    0.9149 H   0  0  0  0  0  0  0  0  0  0  0  0
   -4.5402    0.4840    0.1352 H   0  0  0  0  0  0  0  0  0  0  0  0
   -4.4957    0.0333    3.1689 H   0  0  0  0  0  0  0  0  0  0  0  0
   -5.8983    0.4944    2.2042 H   0  0  0  0  0  0  0  0  0  0  0  0
   -2.7876    3.0906    2.5666 H   0  0  0  0  0  0  0  0  0  0  0  0
   -3.3101    2.7115    0.9258 H   0  0  0  0  0  0  0  0  0  0  0  0
   -2.1363    0.6985    2.9293 H   0  0  0  0  0  0  0  0  0  0  0  0
   -1.2277    1.4371    1.5969 H   0  0  0  0  0  0  0  0  0  0  0  0
  1  2  1  0
  2  3  1  0
  3  4  1  0
  4  5  2  0
  5  6  1  0
  6  7  2  0
  7  8  1  0
  8  9  2  0
  2 10  1  0
 10 11  2  0
 10 12  1  0
 12 13  1  0
 13 14  1  0
 14 15  1  0
 15 16  1  0
 16 17  1  0
 17 18  1  0
 18 19  1  0
 19 20  1  0
 20 21  1  0
  9  4  1  0
 21 16  1  0
  1 22  1  0
  1 23  1  0
  1 24  1  0
  2 25  1  0
  5 26  1  0
  6 27  1  0
  7 28  1  0
  8 29  1  0
  9 30  1  0
 12 31  1  0
 13 32  1  0
 13 33  1  0
 14 34  1  0
 14 35  1  0
 15 36  1  0
 15 37  1  0
 17 38  1  0
 17 39  1  0
 18 40  1  0
 18 41  1  0
 20 42  1  0
 20 43  1  0
 21 44  1  0
 21 45  1  0
M  END
$$$$
