
     RDKit          3D

 55 58  0  0  0  0  0  0  0  0999 V2000
   -4.9918   -2.8619   -0.2747 C   0  0  0  0  0  0  0  0  0  0  0  0
   -5.5457   -1.4874   -0.5301 C   0  0  0  0  0  0  0  0  0  0  0  0
   -5.9642   -1.1570   -1.7647 C   0  0  0  0  0  0  0  0  0  0  0  0
   -6.5216    0.1354   -2.0369 C   0  0  0  0  0  0  0  0  0  0  0  0
   -6.8897    0.3380   -3.3429 O   0  0  0  0  0  0  0  0  0  0  0  0
   -6.6653    1.0425   -1.0686 C   0  0  0  0  0  0  0  0  0  0  0  0
   -6.2281    0.7114    0.3096 C   0  0  0  0  0  0  0  0  0  0  0  0
   -6.3875    1.5556    1.1887 O   0  0  0  0  0  0  0  0  0  0  0  0
   -5.6500   -0.5518    0.5094 N   0  0  0  0  0  0  0  0  0  0  0  0
   -5.1910   -0.8438    1.8717 C   0  0  0  0  0  0  0  0  0  0  0  0
   -3.9109   -0.0964    2.2674 C   0  0  0  0  0  0  0  0  0  0  0  0
   -2.7068   -0.4538    1.3993 C   0  0  0  0  0  0  0  0  0  0  0  0
   -1.4355    0.2452    1.8582 C   0  0  0  0  0  0  0  0  0  0  0  0
   -1.3711    0.8589    2.9164 O   0  0  0  0  0  0  0  0  0  0  0  0
   -0.4007    0.0565    0.9547 N   0  0  0  0  0  0  0  0  0  0  0  0
    0.9132    0.5599    1.0381 C   0  0  0  0  0  0  0  0  0  0  0  0
    1.3714    1.3854    2.0564 C   0  0  0  0  0  0  0  0  0  0  0  0
    2.6928    1.8459    2.0507 C   0  0  0  0  0  0  0  0  0  0  0  0
    3.5986    1.4759    1.0427 C   0  0  0  0  0  0  0  0  0  0  0  0
    3.1379    0.6697   -0.0055 C   0  0  0  0  0  0  0  0  0  0  0  0
    1.7982    0.2182    0.0110 C   0  0  0  0  0  0  0  0  0  0  0  0
    3.8882    0.3562   -1.2514 C   0  0  0  0  0  0  0  0  0  0  0  0
    3.2467    0.1659   -2.2848 O   0  0  0  0  0  0  0  0  0  0  0  0
    5.2590    0.2803   -1.2297 N   0  0  0  0  0  0  0  0  0  0  0  0
    6.0001   -0.1179   -2.4159 C   0  0  0  0  0  0  0  0  0  0  0  0
    7.1968   -0.8773   -1.8707 C   0  0  0  0  0  0  0  0  0  0  0  0
    7.4854   -0.1455   -0.5693 C   0  0  0  0  0  0  0  0  0  0  0  0
    6.0883    0.2015   -0.0378 C   0  0  1  0  0  0  0  0  0  0  0  0
    6.0851    1.5094    0.7437 C   0  0  0  0  0  0  0  0  0  0  0  0
    7.1186    2.0667    1.1205 O   0  0  0  0  0  0  0  0  0  0  0  0
    4.8930    1.9958    1.1984 N   0  0  0  0  0  0  0  0  0  0  0  0
   -5.6150   -3.4031    0.4447 H   0  0  0  0  0  0  0  0  0  0  0  0
   -4.9629   -3.4668   -1.1883 H   0  0  0  0  0  0  0  0  0  0  0  0
   -3.9673   -2.8110    0.1028 H   0  0  0  0  0  0  0  0  0  0  0  0
   -5.9065   -1.8569   -2.5932 H   0  0  0  0  0  0  0  0  0  0  0  0
   -7.2608    1.2333   -3.4256 H   0  0  0  0  0  0  0  0  0  0  0  0
   -7.0857    2.0266   -1.2168 H   0  0  0  0  0  0  0  0  0  0  0  0
   -5.0569   -1.9178    2.0267 H   0  0  0  0  0  0  0  0  0  0  0  0
   -5.9907   -0.5425    2.5608 H   0  0  0  0  0  0  0  0  0  0  0  0
   -3.6887   -0.3325    3.3158 H   0  0  0  0  0  0  0  0  0  0  0  0
   -4.0735    0.9872    2.2276 H   0  0  0  0  0  0  0  0  0  0  0  0
   -2.5224   -1.5330    1.4429 H   0  0  0  0  0  0  0  0  0  0  0  0
   -2.8972   -0.1725    0.3575 H   0  0  0  0  0  0  0  0  0  0  0  0
   -0.6121   -0.4990    0.1341 H   0  0  0  0  0  0  0  0  0  0  0  0
    0.7281    1.7009    2.8726 H   0  0  0  0  0  0  0  0  0  0  0  0
    3.0070    2.4876    2.8726 H   0  0  0  0  0  0  0  0  0  0  0  0
    1.4448   -0.3952   -0.8174 H   0  0  0  0  0  0  0  0  0  0  0  0
    5.3991   -0.7248   -3.0993 H   0  0  0  0  0  0  0  0  0  0  0  0
    6.3123    0.7975   -2.9307 H   0  0  0  0  0  0  0  0  0  0  0  0
    8.0461   -0.8798   -2.5591 H   0  0  0  0  0  0  0  0  0  0  0  0
    6.9202   -1.9169   -1.6581 H   0  0  0  0  0  0  0  0  0  0  0  0
    8.0559   -0.7561    0.1373 H   0  0  0  0  0  0  0  0  0  0  0  0
    8.0751    0.7540   -0.7852 H   0  0  0  0  0  0  0  0  0  0  0  0
    5.7100   -0.6040    0.6033 H   0  0  0  0  0  0  0  0  0  0  0  0
    5.0279    2.7430    1.8708 H   0  0  0  0  0  0  0  0  0  0  0  0
  1  2  1  0
  2  3  2  0
  3  4  1  0
  4  5  1  0
  4  6  2  0
  6  7  1  0
  7  8  2  0
  7  9  1  0
  9 10  1  0
 10 11  1  0
 11 12  1  0
 12 13  1  0
 13 14  2  0
 13 15  1  0
 15 16  1  0
 16 17  2  0
 17 18  1  0
 18 19  2  0
 19 20  1  0
 20 21  2  0
 20 22  1  0
 22 23  2  0
 22 24  1  0
 24 25  1  0
 25 26  1  0
 26 27  1  0
 27 28  1  0
 28 29  1  0
 29 30  2  0
 29 31  1  0
  9  2  1  0
 21 16  1  0
 28 24  1  0
 31 19  1  0
  1 32  1  0
  1 33  1  0
  1 34  1  0
  3 35  1  0
  5 36  1  0
  6 37  1  0
 10 38  1  0
 10 39  1  0
 11 40  1  0
 11 41  1  0
 12 42  1  0
 12 43  1  0
 15 44  1  0
 17 45  1  0
 18 46  1  0
 21 47  1  0
 25 48  1  0
 25 49  1  0
 26 50  1  0
 26 51  1  0
 27 52  1  0
 27 53  1  0
 28 54  1  1
 31 55  1  0
M  END
$$$$
