
     RDKit          3D

 51 53  0  0  0  0  0  0  0  0999 V2000
    5.9930    1.1098    0.3038 C   0  0  0  0  0  0  0  0  0  0  0  0
    6.0384   -0.3111    0.2725 O   0  0  0  0  0  0  0  0  0  0  0  0
    4.8662   -0.9733    0.0291 C   0  0  0  0  0  0  0  0  0  0  0  0
    4.9659   -2.3608    0.0828 C   0  0  0  0  0  0  0  0  0  0  0  0
    3.8454   -3.1502   -0.1463 C   0  0  0  0  0  0  0  0  0  0  0  0
    2.6146   -2.5526   -0.4308 C   0  0  0  0  0  0  0  0  0  0  0  0
    2.4770   -1.1585   -0.4985 C   0  0  0  0  0  0  0  0  0  0  0  0
    1.1941   -0.5369   -0.7658 N   0  0  0  0  0  0  0  0  0  0  0  0
    0.2084   -1.2037   -1.5222 C   0  0  0  0  0  0  0  0  0  0  0  0
    0.3622   -2.3032   -2.0608 O   0  0  0  0  0  0  0  0  0  0  0  0
   -1.1085   -0.4634   -1.7946 C   0  0  0  0  0  0  0  0  0  0  0  0
   -1.5223    0.4687   -0.7243 N   0  0  0  0  0  0  0  0  0  0  0  0
   -1.9852   -0.2369    0.4808 C   0  0  0  0  0  0  0  0  0  0  0  0
   -3.3379   -0.9540    0.3081 C   0  0  0  0  0  0  0  0  0  0  0  0
   -4.4961   -0.0716   -0.1977 C   0  0  0  0  0  0  0  0  0  0  0  0
   -5.7401   -0.9346   -0.4271 C   0  0  0  0  0  0  0  0  0  0  0  0
   -4.8294    1.0617    0.7730 C   0  0  0  0  0  0  0  0  0  0  0  0
   -0.4268    1.4354   -0.5484 C   0  0  1  0  0  0  0  0  0  0  0  0
   -0.7154    2.5963    0.4105 C   0  0  0  0  0  0  0  0  0  0  0  0
    0.3436    2.3692    1.8168 S   0  0  0  0  0  6  0  0  0  0  0  0
    1.4020    3.3567    1.7485 O   0  0  0  0  0  0  0  0  0  0  0  0
   -0.4630    2.1794    3.0027 O   0  0  0  0  0  0  0  0  0  0  0  0
    1.0338    0.8109    1.3402 C   0  0  0  0  0  0  0  0  0  0  0  0
    0.9458    0.8081   -0.1865 C   0  0  1  0  0  0  0  0  0  0  0  0
    3.6304   -0.3820   -0.2635 C   0  0  0  0  0  0  0  0  0  0  0  0
    6.9953    1.4711    0.5531 H   0  0  0  0  0  0  0  0  0  0  0  0
    5.3073    1.4672    1.0793 H   0  0  0  0  0  0  0  0  0  0  0  0
    5.7271    1.5157   -0.6776 H   0  0  0  0  0  0  0  0  0  0  0  0
    5.9220   -2.8284    0.3047 H   0  0  0  0  0  0  0  0  0  0  0  0
    3.9233   -4.2335   -0.0994 H   0  0  0  0  0  0  0  0  0  0  0  0
    1.7655   -3.2174   -0.5640 H   0  0  0  0  0  0  0  0  0  0  0  0
   -1.8909   -1.2038   -1.9890 H   0  0  0  0  0  0  0  0  0  0  0  0
   -0.9817    0.0878   -2.7353 H   0  0  0  0  0  0  0  0  0  0  0  0
   -1.2523   -0.9816    0.8110 H   0  0  0  0  0  0  0  0  0  0  0  0
   -2.0994    0.4665    1.3112 H   0  0  0  0  0  0  0  0  0  0  0  0
   -3.6148   -1.3870    1.2789 H   0  0  0  0  0  0  0  0  0  0  0  0
   -3.2130   -1.8086   -0.3677 H   0  0  0  0  0  0  0  0  0  0  0  0
   -4.2203    0.3703   -1.1627 H   0  0  0  0  0  0  0  0  0  0  0  0
   -6.0763   -1.4039    0.5038 H   0  0  0  0  0  0  0  0  0  0  0  0
   -5.5343   -1.7286   -1.1528 H   0  0  0  0  0  0  0  0  0  0  0  0
   -6.5655   -0.3314   -0.8200 H   0  0  0  0  0  0  0  0  0  0  0  0
   -5.0670    0.6743    1.7695 H   0  0  0  0  0  0  0  0  0  0  0  0
   -5.6937    1.6341    0.4190 H   0  0  0  0  0  0  0  0  0  0  0  0
   -3.9958    1.7622    0.8701 H   0  0  0  0  0  0  0  0  0  0  0  0
   -0.3123    1.9085   -1.5356 H   0  0  0  0  0  0  0  0  0  0  0  0
   -1.7552    2.6497    0.7390 H   0  0  0  0  0  0  0  0  0  0  0  0
   -0.4511    3.5543   -0.0493 H   0  0  0  0  0  0  0  0  0  0  0  0
    0.4511    0.0128    1.8044 H   0  0  0  0  0  0  0  0  0  0  0  0
    2.0573    0.7592    1.7184 H   0  0  0  0  0  0  0  0  0  0  0  0
    1.6960    1.4915   -0.6044 H   0  0  0  0  0  0  0  0  0  0  0  0
    3.5828    0.6955   -0.3427 H   0  0  0  0  0  0  0  0  0  0  0  0
  1  2  1  0
  2  3  1  0
  3  4  2  0
  4  5  1  0
  5  6  2  0
  6  7  1  0
  7  8  1  0
  8  9  1  0
  9 10  2  0
  9 11  1  0
 11 12  1  0
 12 13  1  0
 13 14  1  0
 14 15  1  0
 15 16  1  0
 15 17  1  0
 12 18  1  0
 18 19  1  0
 19 20  1  0
 20 21  2  0
 20 22  2  0
 20 23  1  0
 23 24  1  0
  7 25  2  0
 25  3  1  0
 24  8  1  0
 24 18  1  0
  1 26  1  0
  1 27  1  0
  1 28  1  0
  4 29  1  0
  5 30  1  0
  6 31  1  0
 11 32  1  0
 11 33  1  0
 13 34  1  0
 13 35  1  0
 14 36  1  0
 14 37  1  0
 15 38  1  0
 16 39  1  0
 16 40  1  0
 16 41  1  0
 17 42  1  0
 17 43  1  0
 17 44  1  0
 18 45  1  6
 19 46  1  0
 19 47  1  0
 23 48  1  0
 23 49  1  0
 24 50  1  6
 25 51  1  0
M  END
$$$$
