
     RDKit          3D

 56 59  0  0  0  0  0  0  0  0999 V2000
   -6.7563   -0.8619   -1.3634 C   0  0  0  0  0  0  0  0  0  0  0  0
   -5.6998   -0.1293   -2.1646 C   0  0  0  0  0  0  0  0  0  0  0  0
   -4.8373    1.1168   -1.2091 S   0  0  0  0  0  6  0  0  0  0  0  0
   -5.8211    2.0025   -0.6225 O   0  0  0  0  0  0  0  0  0  0  0  0
   -3.7557    1.6505   -2.0083 O   0  0  0  0  0  0  0  0  0  0  0  0
   -4.1342    0.2279    0.0590 N   0  0  0  0  0  0  0  0  0  0  0  0
   -3.1655   -0.8489   -0.3555 C   0  0  0  0  0  0  0  0  0  0  0  0
   -2.2524   -1.2514    0.8129 C   0  0  0  0  0  0  0  0  0  0  0  0
   -1.3854   -0.1269    1.2521 N   0  0  0  0  0  0  0  0  0  0  0  0
   -0.0568   -0.1705    0.8401 C   0  0  0  0  0  0  0  0  0  0  0  0
    0.1880   -0.5719   -0.3798 N   0  0  0  0  0  0  0  0  0  0  0  0
    1.4822   -0.5690   -0.7609 C   0  0  0  0  0  0  0  0  0  0  0  0
    1.9459   -1.0707   -2.3246 S   0  0  0  0  0  0  0  0  0  0  0  0
    3.5883   -0.7756   -1.9950 C   0  0  0  0  0  0  0  0  0  0  0  0
    3.7964   -0.2870   -0.7181 C   0  0  0  0  0  0  0  0  0  0  0  0
    2.5585   -0.1840   -0.0016 C   0  0  0  0  0  0  0  0  0  0  0  0
    2.3043    0.2407    1.3604 C   0  0  0  0  0  0  0  0  0  0  0  0
    3.2257    0.5726    2.1018 O   0  0  0  0  0  0  0  0  0  0  0  0
    0.9506    0.2193    1.7410 N   0  0  0  0  0  0  0  0  0  0  0  0
    0.6257    0.5275    3.1505 C   0  0  0  0  0  0  0  0  0  0  0  0
    1.2424   -0.4809    4.1262 C   0  0  0  0  0  0  0  0  0  0  0  0
    0.9725    1.9692    3.5335 C   0  0  0  0  0  0  0  0  0  0  0  0
    5.1701    0.0351   -0.2065 C   0  0  0  0  0  0  0  0  0  0  0  0
    6.1989    0.1286   -1.3453 C   0  0  0  0  0  0  0  0  0  0  0  0
    6.0413   -1.0177   -2.3538 C   0  0  0  0  0  0  0  0  0  0  0  0
    4.6561   -1.0028   -3.0188 C   0  0  0  0  0  0  0  0  0  0  0  0
   -2.0481    1.1993    1.0921 C   0  0  0  0  0  0  0  0  0  0  0  0
   -3.5789    1.0936    1.1600 C   0  0  0  0  0  0  0  0  0  0  0  0
   -7.5064   -0.1679   -0.9728 H   0  0  0  0  0  0  0  0  0  0  0  0
   -6.3196   -1.3949   -0.5139 H   0  0  0  0  0  0  0  0  0  0  0  0
   -7.2688   -1.5942   -1.9942 H   0  0  0  0  0  0  0  0  0  0  0  0
   -6.1642    0.3971   -3.0056 H   0  0  0  0  0  0  0  0  0  0  0  0
   -4.9557   -0.8194   -2.5721 H   0  0  0  0  0  0  0  0  0  0  0  0
   -2.5589   -0.5137   -1.2030 H   0  0  0  0  0  0  0  0  0  0  0  0
   -3.7432   -1.7251   -0.6672 H   0  0  0  0  0  0  0  0  0  0  0  0
   -2.8628   -1.5599    1.6708 H   0  0  0  0  0  0  0  0  0  0  0  0
   -1.6521   -2.1275    0.5376 H   0  0  0  0  0  0  0  0  0  0  0  0
   -0.4538    0.4320    3.2958 H   0  0  0  0  0  0  0  0  0  0  0  0
    0.9881   -1.5053    3.8337 H   0  0  0  0  0  0  0  0  0  0  0  0
    0.8597   -0.3150    5.1398 H   0  0  0  0  0  0  0  0  0  0  0  0
    2.3325   -0.4072    4.1741 H   0  0  0  0  0  0  0  0  0  0  0  0
    2.0509    2.1478    3.5651 H   0  0  0  0  0  0  0  0  0  0  0  0
    0.5383    2.6758    2.8184 H   0  0  0  0  0  0  0  0  0  0  0  0
    0.5741    2.2066    4.5260 H   0  0  0  0  0  0  0  0  0  0  0  0
    5.4743   -0.7528    0.4935 H   0  0  0  0  0  0  0  0  0  0  0  0
    5.1629    0.9825    0.3437 H   0  0  0  0  0  0  0  0  0  0  0  0
    7.2105    0.1209   -0.9240 H   0  0  0  0  0  0  0  0  0  0  0  0
    6.0784    1.0852   -1.8701 H   0  0  0  0  0  0  0  0  0  0  0  0
    6.1900   -1.9741   -1.8350 H   0  0  0  0  0  0  0  0  0  0  0  0
    6.8168   -0.9480   -3.1250 H   0  0  0  0  0  0  0  0  0  0  0  0
    4.4983   -1.9478   -3.5510 H   0  0  0  0  0  0  0  0  0  0  0  0
    4.6158   -0.1941   -3.7590 H   0  0  0  0  0  0  0  0  0  0  0  0
   -1.7025    1.8692    1.8857 H   0  0  0  0  0  0  0  0  0  0  0  0
   -1.7549    1.6453    0.1333 H   0  0  0  0  0  0  0  0  0  0  0  0
   -3.8901    0.6511    2.1140 H   0  0  0  0  0  0  0  0  0  0  0  0
   -4.0130    2.0981    1.1329 H   0  0  0  0  0  0  0  0  0  0  0  0
  1  2  1  0
  2  3  1  0
  3  4  2  0
  3  5  2  0
  3  6  1  0
  6  7  1  0
  7  8  1  0
  8  9  1  0
  9 10  1  0
 10 11  2  0
 11 12  1  0
 12 13  1  0
 13 14  1  0
 14 15  2  0
 15 16  1  0
 16 17  1  0
 17 18  2  0
 17 19  1  0
 19 20  1  0
 20 21  1  0
 20 22  1  0
 15 23  1  0
 23 24  1  0
 24 25  1  0
 25 26  1  0
  9 27  1  0
 27 28  1  0
 28  6  1  0
 19 10  1  0
 16 12  2  0
 26 14  1  0
  1 29  1  0
  1 30  1  0
  1 31  1  0
  2 32  1  0
  2 33  1  0
  7 34  1  0
  7 35  1  0
  8 36  1  0
  8 37  1  0
 20 38  1  0
 21 39  1  0
 21 40  1  0
 21 41  1  0
 22 42  1  0
 22 43  1  0
 22 44  1  0
 23 45  1  0
 23 46  1  0
 24 47  1  0
 24 48  1  0
 25 49  1  0
 25 50  1  0
 26 51  1  0
 26 52  1  0
 27 53  1  0
 27 54  1  0
 28 55  1  0
 28 56  1  0
M  END
$$$$
