
     RDKit          3D

 48 50  0  0  0  0  0  0  0  0999 V2000
    1.0239   -1.4427    0.1855 O   0  0  0  0  0  0  0  0  0  0  0  0
    1.1867   -0.2643    0.4867 C   0  0  0  0  0  0  0  0  0  0  0  0
    2.3570    0.4221    0.2467 N   0  0  0  0  0  0  0  0  0  0  0  0
    3.4597   -0.1714   -0.4964 C   0  0  0  0  0  0  0  0  0  0  0  0
    3.2238   -0.0707   -2.0057 C   0  0  0  0  0  0  0  0  0  0  0  0
    4.3233   -0.7765   -2.8029 C   0  0  0  0  0  0  0  0  0  0  0  0
    5.6738   -0.8121   -2.0860 C   0  0  0  0  0  0  0  0  0  0  0  0
    5.8669    0.3991   -1.1848 C   0  0  0  0  0  0  0  0  0  0  0  0
    4.7915    0.4852   -0.0986 C   0  0  0  0  0  0  0  0  0  0  0  0
    0.0729    0.4784    1.1362 C   0  0  0  0  0  0  0  0  0  0  0  0
   -1.0229   -0.2587    1.6108 C   0  0  0  0  0  0  0  0  0  0  0  0
   -2.1174    0.4019    2.1798 C   0  0  0  0  0  0  0  0  0  0  0  0
   -3.4976   -0.5472    2.7935 S   0  0  0  0  0  6  0  0  0  0  0  0
   -2.9763   -1.8185    3.2443 O   0  0  0  0  0  0  0  0  0  0  0  0
   -4.2445    0.3170    3.6830 O   0  0  0  0  0  0  0  0  0  0  0  0
   -4.4386   -0.8085    1.4170 N   0  0  0  0  0  0  0  0  0  0  0  0
   -3.9642   -1.7763    0.3889 C   0  0  0  0  0  0  0  0  0  0  0  0
   -3.7427   -1.0750   -0.9557 C   0  0  0  0  0  0  0  0  0  0  0  0
   -4.9147   -0.4273   -1.4720 O   0  0  0  0  0  0  0  0  0  0  0  0
   -5.8556   -0.0453   -0.4587 C   0  0  0  0  0  0  0  0  0  0  0  0
   -5.1799    0.3527    0.8569 C   0  0  0  0  0  0  0  0  0  0  0  0
   -2.1101    1.7929    2.3272 C   0  0  0  0  0  0  0  0  0  0  0  0
   -1.0161    2.5256    1.8669 C   0  0  0  0  0  0  0  0  0  0  0  0
    0.0618    1.8690    1.2718 C   0  0  0  0  0  0  0  0  0  0  0  0
    1.0849    2.6164    0.8297 F   0  0  0  0  0  0  0  0  0  0  0  0
    2.3698    1.4262    0.3902 H   0  0  0  0  0  0  0  0  0  0  0  0
    3.5022   -1.2354   -0.2276 H   0  0  0  0  0  0  0  0  0  0  0  0
    3.1871    0.9878   -2.2966 H   0  0  0  0  0  0  0  0  0  0  0  0
    2.2495   -0.4910   -2.2827 H   0  0  0  0  0  0  0  0  0  0  0  0
    4.0174   -1.8061   -3.0250 H   0  0  0  0  0  0  0  0  0  0  0  0
    4.4305   -0.2747   -3.7723 H   0  0  0  0  0  0  0  0  0  0  0  0
    5.7408   -1.7250   -1.4806 H   0  0  0  0  0  0  0  0  0  0  0  0
    6.4808   -0.8690   -2.8252 H   0  0  0  0  0  0  0  0  0  0  0  0
    5.8355    1.3091   -1.7973 H   0  0  0  0  0  0  0  0  0  0  0  0
    6.8584    0.3720   -0.7188 H   0  0  0  0  0  0  0  0  0  0  0  0
    4.6491    1.5422    0.1612 H   0  0  0  0  0  0  0  0  0  0  0  0
    5.1554    0.0032    0.8180 H   0  0  0  0  0  0  0  0  0  0  0  0
   -1.0147   -1.3457    1.5391 H   0  0  0  0  0  0  0  0  0  0  0  0
   -4.7386   -2.5458    0.2870 H   0  0  0  0  0  0  0  0  0  0  0  0
   -3.0473   -2.2836    0.6991 H   0  0  0  0  0  0  0  0  0  0  0  0
   -2.9602   -0.3132   -0.8671 H   0  0  0  0  0  0  0  0  0  0  0  0
   -3.4096   -1.7973   -1.7076 H   0  0  0  0  0  0  0  0  0  0  0  0
   -6.5464   -0.8826   -0.3049 H   0  0  0  0  0  0  0  0  0  0  0  0
   -6.4387    0.7928   -0.8529 H   0  0  0  0  0  0  0  0  0  0  0  0
   -5.9417    0.6757    1.5732 H   0  0  0  0  0  0  0  0  0  0  0  0
   -4.4869    1.1786    0.6685 H   0  0  0  0  0  0  0  0  0  0  0  0
   -2.9439    2.3088    2.8001 H   0  0  0  0  0  0  0  0  0  0  0  0
   -0.9942    3.6073    1.9690 H   0  0  0  0  0  0  0  0  0  0  0  0
  1  2  2  0
  2  3  1  0
  3  4  1  0
  4  5  1  0
  5  6  1  0
  6  7  1  0
  7  8  1  0
  8  9  1  0
  2 10  1  0
 10 11  2  0
 11 12  1  0
 12 13  1  0
 13 14  2  0
 13 15  2  0
 13 16  1  0
 16 17  1  0
 17 18  1  0
 18 19  1  0
 19 20  1  0
 20 21  1  0
 12 22  2  0
 22 23  1  0
 23 24  2  0
 24 25  1  0
  9  4  1  0
 24 10  1  0
 21 16  1  0
  3 26  1  0
  4 27  1  0
  5 28  1  0
  5 29  1  0
  6 30  1  0
  6 31  1  0
  7 32  1  0
  7 33  1  0
  8 34  1  0
  8 35  1  0
  9 36  1  0
  9 37  1  0
 11 38  1  0
 17 39  1  0
 17 40  1  0
 18 41  1  0
 18 42  1  0
 20 43  1  0
 20 44  1  0
 21 45  1  0
 21 46  1  0
 22 47  1  0
 23 48  1  0
M  END
$$$$
