
     RDKit          3D

 55 57  0  0  0  0  0  0  0  0999 V2000
    5.9518    2.8818   -1.2031 C   0  0  0  0  0  0  0  0  0  0  0  0
    5.9550    1.5102   -0.6999 N   0  0  0  0  0  0  0  0  0  0  0  0
    5.6027    1.4435    0.7253 C   0  0  0  0  0  0  0  0  0  0  0  0
    4.1917    0.9253    0.9811 C   0  0  0  0  0  0  0  0  0  0  0  0
    4.0127   -0.4846    0.4014 C   0  0  0  0  0  0  0  0  0  0  0  0
    2.5971   -0.7619    0.1662 N   0  0  0  0  0  0  0  0  0  0  0  0
    1.7514   -1.0953    1.2061 C   0  0  0  0  0  0  0  0  0  0  0  0
    2.1259   -1.2531    2.3627 O   0  0  0  0  0  0  0  0  0  0  0  0
    0.3058   -1.2200    0.8692 C   0  0  0  0  0  0  0  0  0  0  0  0
   -0.6338   -1.0113    1.8868 C   0  0  0  0  0  0  0  0  0  0  0  0
   -2.0017   -1.1179    1.6191 C   0  0  0  0  0  0  0  0  0  0  0  0
   -2.4406   -1.4269    0.3291 C   0  0  0  0  0  0  0  0  0  0  0  0
   -3.8374   -1.5797    0.0229 N   0  0  0  0  0  0  0  0  0  0  0  0
   -4.7870   -0.5320    0.4740 C   0  0  0  0  0  0  0  0  0  0  0  0
   -4.4181    0.8613    0.0060 C   0  0  0  0  0  0  0  0  0  0  0  0
   -4.3406    1.1446   -1.3662 C   0  0  0  0  0  0  0  0  0  0  0  0
   -4.0019    2.4240   -1.8074 C   0  0  0  0  0  0  0  0  0  0  0  0
   -3.7401    3.4334   -0.8831 C   0  0  0  0  0  0  0  0  0  0  0  0
   -3.8169    3.1648    0.4824 C   0  0  0  0  0  0  0  0  0  0  0  0
   -4.1562    1.8857    0.9268 C   0  0  0  0  0  0  0  0  0  0  0  0
   -4.4365   -3.1695   -0.0449 S   0  0  0  0  0  6  0  0  0  0  0  0
   -4.5285   -3.6203    1.6775 C   0  0  0  0  0  0  0  0  0  0  0  0
   -5.7958   -3.1128   -0.5442 O   0  0  0  0  0  0  0  0  0  0  0  0
   -3.4597   -4.0313   -0.6775 O   0  0  0  0  0  0  0  0  0  0  0  0
   -1.5027   -1.6685   -0.6780 C   0  0  0  0  0  0  0  0  0  0  0  0
   -0.1336   -1.5665   -0.4134 C   0  0  0  0  0  0  0  0  0  0  0  0
    4.8321   -0.6929   -0.8792 C   0  0  0  0  0  0  0  0  0  0  0  0
    5.1458    0.6370   -1.5592 C   0  0  0  0  0  0  0  0  0  0  0  0
    4.9596    3.3420   -1.1343 H   0  0  0  0  0  0  0  0  0  0  0  0
    6.6605    3.5006   -0.6413 H   0  0  0  0  0  0  0  0  0  0  0  0
    6.2746    2.9103   -2.2500 H   0  0  0  0  0  0  0  0  0  0  0  0
    6.3178    0.7681    1.2126 H   0  0  0  0  0  0  0  0  0  0  0  0
    5.7337    2.4142    1.2196 H   0  0  0  0  0  0  0  0  0  0  0  0
    3.9882    0.9108    2.0585 H   0  0  0  0  0  0  0  0  0  0  0  0
    3.4630    1.6205    0.5430 H   0  0  0  0  0  0  0  0  0  0  0  0
    4.3607   -1.2163    1.1423 H   0  0  0  0  0  0  0  0  0  0  0  0
    2.1858   -0.3921   -0.6801 H   0  0  0  0  0  0  0  0  0  0  0  0
   -0.2993   -0.7634    2.8926 H   0  0  0  0  0  0  0  0  0  0  0  0
   -2.7044   -0.9544    2.4295 H   0  0  0  0  0  0  0  0  0  0  0  0
   -4.8723   -0.5559    1.5667 H   0  0  0  0  0  0  0  0  0  0  0  0
   -5.7914   -0.7302    0.0825 H   0  0  0  0  0  0  0  0  0  0  0  0
   -4.5396    0.3619   -2.0964 H   0  0  0  0  0  0  0  0  0  0  0  0
   -3.9424    2.6321   -2.8725 H   0  0  0  0  0  0  0  0  0  0  0  0
   -3.4757    4.4297   -1.2274 H   0  0  0  0  0  0  0  0  0  0  0  0
   -3.6127    3.9539    1.2018 H   0  0  0  0  0  0  0  0  0  0  0  0
   -4.2098    1.6973    1.9962 H   0  0  0  0  0  0  0  0  0  0  0  0
   -5.1748   -2.9157    2.2027 H   0  0  0  0  0  0  0  0  0  0  0  0
   -4.9601   -4.6225    1.7343 H   0  0  0  0  0  0  0  0  0  0  0  0
   -3.5250   -3.6336    2.1041 H   0  0  0  0  0  0  0  0  0  0  0  0
   -1.8372   -1.9488   -1.6747 H   0  0  0  0  0  0  0  0  0  0  0  0
    0.5689   -1.7917   -1.2106 H   0  0  0  0  0  0  0  0  0  0  0  0
    5.7786   -1.1878   -0.6233 H   0  0  0  0  0  0  0  0  0  0  0  0
    4.3145   -1.3608   -1.5779 H   0  0  0  0  0  0  0  0  0  0  0  0
    5.6962    0.4430   -2.4872 H   0  0  0  0  0  0  0  0  0  0  0  0
    4.2013    1.1217   -1.8406 H   0  0  0  0  0  0  0  0  0  0  0  0
  1  2  1  0
  2  3  1  0
  3  4  1  0
  4  5  1  0
  5  6  1  0
  6  7  1  0
  7  8  2  0
  7  9  1  0
  9 10  2  0
 10 11  1  0
 11 12  2  0
 12 13  1  0
 13 14  1  0
 14 15  1  0
 15 16  2  0
 16 17  1  0
 17 18  2  0
 18 19  1  0
 19 20  2  0
 13 21  1  0
 21 22  1  0
 21 23  2  0
 21 24  2  0
 12 25  1  0
 25 26  2  0
  5 27  1  0
 27 28  1  0
 28  2  1  0
 26  9  1  0
 20 15  1  0
  1 29  1  0
  1 30  1  0
  1 31  1  0
  3 32  1  0
  3 33  1  0
  4 34  1  0
  4 35  1  0
  5 36  1  0
  6 37  1  0
 10 38  1  0
 11 39  1  0
 14 40  1  0
 14 41  1  0
 16 42  1  0
 17 43  1  0
 18 44  1  0
 19 45  1  0
 20 46  1  0
 22 47  1  0
 22 48  1  0
 22 49  1  0
 25 50  1  0
 26 51  1  0
 27 52  1  0
 27 53  1  0
 28 54  1  0
 28 55  1  0
M  END
$$$$
