
     RDKit          3D

 26 28  0  0  0  0  0  0  0  0999 V2000
    3.0928   -3.2005    0.6099 Cl  0  0  0  0  0  0  0  0  0  0  0  0
    3.2342   -1.4827    0.4508 C   0  0  0  0  0  0  0  0  0  0  0  0
    4.5382   -0.9680    0.5255 C   0  0  0  0  0  0  0  0  0  0  0  0
    4.7700    0.4005    0.4103 C   0  0  0  0  0  0  0  0  0  0  0  0
    3.6992    1.2639    0.2196 C   0  0  0  0  0  0  0  0  0  0  0  0
    2.3985    0.7562    0.1445 C   0  0  0  0  0  0  0  0  0  0  0  0
    2.1342   -0.6263    0.2580 C   0  0  0  0  0  0  0  0  0  0  0  0
    0.7534   -1.1051    0.1722 C   0  0  0  0  0  0  0  0  0  0  0  0
    0.2421   -2.3172    0.2445 N   0  0  0  0  0  0  0  0  0  0  0  0
   -1.1233   -2.1908    0.0994 N   0  0  0  0  0  0  0  0  0  0  0  0
   -1.3640   -0.9063   -0.0531 C   0  0  0  0  0  0  0  0  0  0  0  0
   -2.6265   -0.2083   -0.2457 C   0  0  0  0  0  0  0  0  0  0  0  0
   -3.8191   -0.9371   -0.2881 C   0  0  0  0  0  0  0  0  0  0  0  0
   -5.0097   -0.2554   -0.4721 C   0  0  0  0  0  0  0  0  0  0  0  0
   -5.0897    1.0835   -0.6145 N   0  0  0  0  0  0  0  0  0  0  0  0
   -3.9307    1.7717   -0.5713 C   0  0  0  0  0  0  0  0  0  0  0  0
   -2.6911    1.1804   -0.3916 C   0  0  0  0  0  0  0  0  0  0  0  0
   -0.2212   -0.1513   -0.0182 O   0  0  0  0  0  0  0  0  0  0  0  0
    5.3827   -1.6380    0.6748 H   0  0  0  0  0  0  0  0  0  0  0  0
    5.7839    0.7890    0.4695 H   0  0  0  0  0  0  0  0  0  0  0  0
    3.8718    2.3340    0.1286 H   0  0  0  0  0  0  0  0  0  0  0  0
    1.5856    1.4651   -0.0056 H   0  0  0  0  0  0  0  0  0  0  0  0
   -3.8250   -2.0180   -0.1800 H   0  0  0  0  0  0  0  0  0  0  0  0
   -5.9580   -0.7844   -0.5109 H   0  0  0  0  0  0  0  0  0  0  0  0
   -4.0272    2.8475   -0.6888 H   0  0  0  0  0  0  0  0  0  0  0  0
   -1.8014    1.8004   -0.3677 H   0  0  0  0  0  0  0  0  0  0  0  0
  1  2  1  0
  2  3  2  0
  3  4  1  0
  4  5  2  0
  5  6  1  0
  6  7  2  0
  7  8  1  0
  8  9  2  0
  9 10  1  0
 10 11  2  0
 11 12  1  0
 12 13  2  0
 13 14  1  0
 14 15  2  0
 15 16  1  0
 16 17  2  0
 11 18  1  0
  7  2  1  0
 18  8  1  0
 17 12  1  0
  3 19  1  0
  4 20  1  0
  5 21  1  0
  6 22  1  0
 13 23  1  0
 14 24  1  0
 16 25  1  0
 17 26  1  0
M  END
$$$$
