
     RDKit          3D

 48 50  0  0  0  0  0  0  0  0999 V2000
   -2.4847    1.2083    2.0685 C   0  0  0  0  0  0  0  0  0  0  0  0
   -2.6234    0.8554    0.6380 N   0  0  0  0  0  0  0  0  0  0  0  0
   -1.6183   -0.1342    0.1806 C   0  0  0  0  0  0  0  0  0  0  0  0
   -0.2875    0.5252    0.0572 C   0  0  0  0  0  0  0  0  0  0  0  0
    0.7821    0.2537    0.7817 N   0  0  0  0  0  0  0  0  0  0  0  0
    1.7897    1.0975    0.3862 N   0  0  0  0  0  0  0  0  0  0  0  0
    1.3146    1.8661   -0.5661 C   0  0  0  0  0  0  0  0  0  0  0  0
    2.1853    3.1148   -1.3844 S   0  0  0  0  0  0  0  0  0  0  0  0
    3.8758    2.4622   -1.2250 C   0  0  0  0  0  0  0  0  0  0  0  0
    4.0346    1.1435   -1.9653 C   0  0  0  0  0  0  0  0  0  0  0  0
    3.4331    0.8774   -3.0066 O   0  0  0  0  0  0  0  0  0  0  0  0
    4.9933    0.1358   -1.4241 C   0  0  0  0  0  0  0  0  0  0  0  0
    4.8293   -1.2064   -1.8023 C   0  0  0  0  0  0  0  0  0  0  0  0
    5.7039   -2.1850   -1.3262 C   0  0  0  0  0  0  0  0  0  0  0  0
    6.7429   -1.8196   -0.4796 C   0  0  0  0  0  0  0  0  0  0  0  0
    7.5842   -2.7561   -0.0233 F   0  0  0  0  0  0  0  0  0  0  0  0
    6.9259   -0.4933   -0.1029 C   0  0  0  0  0  0  0  0  0  0  0  0
    6.0526    0.4904   -0.5768 C   0  0  0  0  0  0  0  0  0  0  0  0
    0.0157    1.5363   -0.8268 N   0  0  0  0  0  0  0  0  0  0  0  0
   -0.8660    2.1214   -1.8043 C   0  0  0  0  0  0  0  0  0  0  0  0
   -4.2063    0.6101    0.0706 S   0  0  0  0  0  6  0  0  0  0  0  0
   -4.1230    0.3473   -1.3512 O   0  0  0  0  0  0  0  0  0  0  0  0
   -5.0392    1.6795    0.5773 O   0  0  0  0  0  0  0  0  0  0  0  0
   -4.7064   -0.8961    0.8746 C   0  0  0  0  0  0  0  0  0  0  0  0
   -5.3390   -0.8359    2.1203 C   0  0  0  0  0  0  0  0  0  0  0  0
   -5.7468   -2.0165    2.7409 C   0  0  0  0  0  0  0  0  0  0  0  0
   -5.5369   -3.2450    2.1121 C   0  0  0  0  0  0  0  0  0  0  0  0
   -4.9283   -3.2984    0.8569 C   0  0  0  0  0  0  0  0  0  0  0  0
   -4.5177   -2.1225    0.2292 C   0  0  0  0  0  0  0  0  0  0  0  0
   -1.5103    1.6729    2.2490 H   0  0  0  0  0  0  0  0  0  0  0  0
   -3.2368    1.9435    2.3679 H   0  0  0  0  0  0  0  0  0  0  0  0
   -2.5713    0.3229    2.7046 H   0  0  0  0  0  0  0  0  0  0  0  0
   -1.5584   -0.9639    0.8947 H   0  0  0  0  0  0  0  0  0  0  0  0
   -1.8789   -0.5654   -0.7910 H   0  0  0  0  0  0  0  0  0  0  0  0
    4.5745    3.1841   -1.6586 H   0  0  0  0  0  0  0  0  0  0  0  0
    4.1000    2.3542   -0.1606 H   0  0  0  0  0  0  0  0  0  0  0  0
    4.0145   -1.4936   -2.4649 H   0  0  0  0  0  0  0  0  0  0  0  0
    5.5795   -3.2251   -1.6104 H   0  0  0  0  0  0  0  0  0  0  0  0
    7.7497   -0.2342    0.5554 H   0  0  0  0  0  0  0  0  0  0  0  0
    6.2289    1.5202   -0.2807 H   0  0  0  0  0  0  0  0  0  0  0  0
   -0.2970    2.4161   -2.6889 H   0  0  0  0  0  0  0  0  0  0  0  0
   -1.6135    1.3888   -2.1139 H   0  0  0  0  0  0  0  0  0  0  0  0
   -1.3498    2.9912   -1.3533 H   0  0  0  0  0  0  0  0  0  0  0  0
   -5.5223    0.1193    2.6076 H   0  0  0  0  0  0  0  0  0  0  0  0
   -6.2375   -1.9805    3.7110 H   0  0  0  0  0  0  0  0  0  0  0  0
   -5.8612   -4.1635    2.5964 H   0  0  0  0  0  0  0  0  0  0  0  0
   -4.7849   -4.2576    0.3646 H   0  0  0  0  0  0  0  0  0  0  0  0
   -4.0647   -2.1718   -0.7583 H   0  0  0  0  0  0  0  0  0  0  0  0
  1  2  1  0
  2  3  1  0
  3  4  1  0
  4  5  2  0
  5  6  1  0
  6  7  2  0
  7  8  1  0
  8  9  1  0
  9 10  1  0
 10 11  2  0
 10 12  1  0
 12 13  2  0
 13 14  1  0
 14 15  2  0
 15 16  1  0
 15 17  1  0
 17 18  2  0
  7 19  1  0
 19 20  1  0
  2 21  1  0
 21 22  2  0
 21 23  2  0
 21 24  1  0
 24 25  2  0
 25 26  1  0
 26 27  2  0
 27 28  1  0
 28 29  2  0
 19  4  1  0
 29 24  1  0
 18 12  1  0
  1 30  1  0
  1 31  1  0
  1 32  1  0
  3 33  1  0
  3 34  1  0
  9 35  1  0
  9 36  1  0
 13 37  1  0
 14 38  1  0
 17 39  1  0
 18 40  1  0
 20 41  1  0
 20 42  1  0
 20 43  1  0
 25 44  1  0
 26 45  1  0
 27 46  1  0
 28 47  1  0
 29 48  1  0
M  END
$$$$
