
     RDKit          3D

 29 31  0  0  0  0  0  0  0  0999 V2000
   -0.7277   -1.5484   -2.4030 O   0  0  0  0  0  0  0  0  0  0  0  0
   -0.0342   -1.0069   -1.5477 C   0  0  0  0  0  0  0  0  0  0  0  0
    1.3492   -1.1327   -1.5888 O   0  0  0  0  0  0  0  0  0  0  0  0
    2.1864   -0.4642   -0.6808 C   0  0  0  0  0  0  0  0  0  0  0  0
    3.5608   -0.5993   -0.8836 C   0  0  0  0  0  0  0  0  0  0  0  0
    4.4250    0.0779   -0.0358 C   0  0  0  0  0  0  0  0  0  0  0  0
    5.7771   -0.0072   -0.1776 O   0  0  0  0  0  0  0  0  0  0  0  0
    3.9303    0.8807    0.9856 C   0  0  0  0  0  0  0  0  0  0  0  0
    2.5485    1.0023    1.1737 C   0  0  0  0  0  0  0  0  0  0  0  0
    1.6533    0.3095    0.3467 C   0  0  0  0  0  0  0  0  0  0  0  0
    0.1946    0.3686    0.4805 C   0  0  0  0  0  0  0  0  0  0  0  0
   -0.3100    1.0362    1.5830 O   0  0  0  0  0  0  0  0  0  0  0  0
   -0.6149   -0.2241   -0.4188 C   0  0  0  0  0  0  0  0  0  0  0  0
   -2.0881   -0.1502   -0.2718 C   0  0  0  0  0  0  0  0  0  0  0  0
   -2.7512    1.0866   -0.2756 C   0  0  0  0  0  0  0  0  0  0  0  0
   -4.1402    1.1507   -0.1420 C   0  0  0  0  0  0  0  0  0  0  0  0
   -4.8826   -0.0204   -0.0072 C   0  0  0  0  0  0  0  0  0  0  0  0
   -4.2381   -1.2557   -0.0062 C   0  0  0  0  0  0  0  0  0  0  0  0
   -2.8487   -1.3210   -0.1380 C   0  0  0  0  0  0  0  0  0  0  0  0
    3.9269   -1.2166   -1.6970 H   0  0  0  0  0  0  0  0  0  0  0  0
    5.9799   -0.5841   -0.9332 H   0  0  0  0  0  0  0  0  0  0  0  0
    4.6193    1.4201    1.6310 H   0  0  0  0  0  0  0  0  0  0  0  0
    2.1985    1.6636    1.9617 H   0  0  0  0  0  0  0  0  0  0  0  0
    0.2613    0.8462    2.3461 H   0  0  0  0  0  0  0  0  0  0  0  0
   -2.1874    2.0114   -0.3781 H   0  0  0  0  0  0  0  0  0  0  0  0
   -4.6407    2.1154   -0.1447 H   0  0  0  0  0  0  0  0  0  0  0  0
   -5.9636    0.0292    0.0931 H   0  0  0  0  0  0  0  0  0  0  0  0
   -4.8163   -2.1708    0.0910 H   0  0  0  0  0  0  0  0  0  0  0  0
   -2.3674   -2.2966   -0.1447 H   0  0  0  0  0  0  0  0  0  0  0  0
  1  2  2  0
  2  3  1  0
  3  4  1  0
  4  5  2  0
  5  6  1  0
  6  7  1  0
  6  8  2  0
  8  9  1  0
  9 10  2  0
 10 11  1  0
 11 12  1  0
 11 13  2  0
 13 14  1  0
 14 15  2  0
 15 16  1  0
 16 17  2  0
 17 18  1  0
 18 19  2  0
 13  2  1  0
 19 14  1  0
 10  4  1  0
  5 20  1  0
  7 21  1  0
  8 22  1  0
  9 23  1  0
 12 24  1  0
 15 25  1  0
 16 26  1  0
 17 27  1  0
 18 28  1  0
 19 29  1  0
M  END
$$$$
