
     RDKit          3D

 50 53  0  0  0  0  0  0  0  0999 V2000
    6.3108   -1.4160   -2.4735 C   0  0  0  0  0  0  0  0  0  0  0  0
    5.9381   -0.0829   -2.1452 O   0  0  0  0  0  0  0  0  0  0  0  0
    4.8518    0.0726   -1.3302 C   0  0  0  0  0  0  0  0  0  0  0  0
    4.0699   -0.9525   -0.7991 C   0  0  0  0  0  0  0  0  0  0  0  0
    2.9801   -0.6491    0.0254 C   0  0  0  0  0  0  0  0  0  0  0  0
    2.6705    0.6812    0.3347 C   0  0  0  0  0  0  0  0  0  0  0  0
    1.4976    0.9533    1.2134 C   0  0  0  0  0  0  0  0  0  0  0  0
    1.6069    2.1192    2.1465 C   0  0  0  0  0  0  0  0  0  0  0  0
    0.5440    2.3563    2.9393 C   0  0  0  0  0  0  0  0  0  0  0  0
    0.5068    3.4672    3.9275 C   0  0  0  0  0  0  0  0  0  0  0  0
   -0.4909    4.3504    3.6643 F   0  0  0  0  0  0  0  0  0  0  0  0
    0.3326    3.0226    5.1983 F   0  0  0  0  0  0  0  0  0  0  0  0
   -0.5751    1.5258    2.8580 N   0  0  0  0  0  0  0  0  0  0  0  0
   -1.7265    1.5915    3.5713 N   0  0  0  0  0  0  0  0  0  0  0  0
   -2.4377    0.5418    3.1655 C   0  0  0  0  0  0  0  0  0  0  0  0
   -1.8192   -0.1789    2.1296 C   0  0  0  0  0  0  0  0  0  0  0  0
   -2.3262   -1.3789    1.4959 C   0  0  0  0  0  0  0  0  0  0  0  0
   -2.7134   -2.3119    2.1975 O   0  0  0  0  0  0  0  0  0  0  0  0
   -2.4246   -1.4116    0.1049 N   0  0  0  0  0  0  0  0  0  0  0  0
   -2.3248   -0.2240   -0.7532 C   0  0  0  0  0  0  0  0  0  0  0  0
   -2.5123   -0.5454   -2.2488 C   0  0  0  0  0  0  0  0  0  0  0  0
   -3.7276   -1.3146   -2.5801 N   0  0  0  0  0  0  0  0  0  0  0  0
   -4.8338   -0.4470   -2.9750 C   0  0  0  0  0  0  0  0  0  0  0  0
   -4.1374   -2.2194   -1.4831 C   0  0  0  0  0  0  0  0  0  0  0  0
   -2.9859   -2.6036   -0.5375 C   0  0  0  0  0  0  0  0  0  0  0  0
   -0.5987    0.4482    1.9578 C   0  0  0  0  0  0  0  0  0  0  0  0
    0.4629    0.1663    1.1422 N   0  0  0  0  0  0  0  0  0  0  0  0
    3.4431    1.7099   -0.2121 C   0  0  0  0  0  0  0  0  0  0  0  0
    4.5294    1.4004   -1.0362 C   0  0  0  0  0  0  0  0  0  0  0  0
    5.5156   -1.9226   -3.0300 H   0  0  0  0  0  0  0  0  0  0  0  0
    7.1915   -1.3668   -3.1212 H   0  0  0  0  0  0  0  0  0  0  0  0
    6.5883   -1.9799   -1.5769 H   0  0  0  0  0  0  0  0  0  0  0  0
    4.2747   -1.9978   -1.0067 H   0  0  0  0  0  0  0  0  0  0  0  0
    2.3755   -1.4606    0.4278 H   0  0  0  0  0  0  0  0  0  0  0  0
    2.5155    2.7046    2.1872 H   0  0  0  0  0  0  0  0  0  0  0  0
    1.4410    4.0374    3.9196 H   0  0  0  0  0  0  0  0  0  0  0  0
   -3.3948    0.3438    3.6329 H   0  0  0  0  0  0  0  0  0  0  0  0
   -3.0894    0.4892   -0.4219 H   0  0  0  0  0  0  0  0  0  0  0  0
   -1.3494    0.2453   -0.6204 H   0  0  0  0  0  0  0  0  0  0  0  0
   -1.6554   -1.1507   -2.5734 H   0  0  0  0  0  0  0  0  0  0  0  0
   -2.4527    0.3783   -2.8377 H   0  0  0  0  0  0  0  0  0  0  0  0
   -5.7134   -1.0427   -3.2442 H   0  0  0  0  0  0  0  0  0  0  0  0
   -4.5664    0.1356   -3.8633 H   0  0  0  0  0  0  0  0  0  0  0  0
   -5.1177    0.2497   -2.1783 H   0  0  0  0  0  0  0  0  0  0  0  0
   -4.5663   -3.1265   -1.9232 H   0  0  0  0  0  0  0  0  0  0  0  0
   -4.9221   -1.7516   -0.8729 H   0  0  0  0  0  0  0  0  0  0  0  0
   -2.1752   -3.0873   -1.0956 H   0  0  0  0  0  0  0  0  0  0  0  0
   -3.3441   -3.3256    0.2024 H   0  0  0  0  0  0  0  0  0  0  0  0
    3.2071    2.7550   -0.0377 H   0  0  0  0  0  0  0  0  0  0  0  0
    5.1272    2.2022   -1.4642 H   0  0  0  0  0  0  0  0  0  0  0  0
  1  2  1  0
  2  3  1  0
  3  4  2  0
  4  5  1  0
  5  6  2  0
  6  7  1  0
  7  8  1  0
  8  9  2  0
  9 10  1  0
 10 11  1  0
 10 12  1  0
  9 13  1  0
 13 14  1  0
 14 15  2  0
 15 16  1  0
 16 17  1  0
 17 18  2  0
 17 19  1  0
 19 20  1  0
 20 21  1  0
 21 22  1  0
 22 23  1  0
 22 24  1  0
 24 25  1  0
 16 26  2  0
 26 27  1  0
  6 28  1  0
 28 29  2  0
 29  3  1  0
 27  7  2  0
 26 13  1  0
 25 19  1  0
  1 30  1  0
  1 31  1  0
  1 32  1  0
  4 33  1  0
  5 34  1  0
  8 35  1  0
 10 36  1  0
 15 37  1  0
 20 38  1  0
 20 39  1  0
 21 40  1  0
 21 41  1  0
 23 42  1  0
 23 43  1  0
 23 44  1  0
 24 45  1  0
 24 46  1  0
 25 47  1  0
 25 48  1  0
 28 49  1  0
 29 50  1  0
M  END
$$$$
