
     RDKit          3D

 45 47  0  0  0  0  0  0  0  0999 V2000
    3.1686   -1.9473    0.2990 C   0  0  0  0  0  0  0  0  0  0  0  0
    3.1176   -0.4825    0.2685 N   0  0  0  0  0  0  0  0  0  0  0  0
    1.8841    0.1872    0.1867 C   0  0  0  0  0  0  0  0  0  0  0  0
    1.6425    1.3294    0.5769 O   0  0  0  0  0  0  0  0  0  0  0  0
    0.7164   -0.5107   -0.3891 C   0  0  0  0  0  0  0  0  0  0  0  0
   -0.4901   -0.4963    0.3213 C   0  0  0  0  0  0  0  0  0  0  0  0
   -1.6242   -1.0787   -0.2503 C   0  0  0  0  0  0  0  0  0  0  0  0
   -3.1519   -1.0616    0.6584 S   0  0  0  0  0  6  0  0  0  0  0  0
   -4.1097   -1.8502   -0.0846 O   0  0  0  0  0  0  0  0  0  0  0  0
   -2.8128   -1.4118    2.0234 O   0  0  0  0  0  0  0  0  0  0  0  0
   -3.6838    0.6447    0.6494 C   0  0  0  0  0  0  0  0  0  0  0  0
   -5.0300    0.8178    1.3681 C   0  0  0  0  0  0  0  0  0  0  0  0
   -6.1324    0.4065    0.3963 C   0  0  0  0  0  0  0  0  0  0  0  0
   -5.5561    0.9439   -1.2042 S   0  0  0  0  0  6  0  0  0  0  0  0
   -6.1477    2.2341   -1.4924 O   0  0  0  0  0  0  0  0  0  0  0  0
   -5.6089   -0.1512   -2.1462 O   0  0  0  0  0  0  0  0  0  0  0  0
   -3.8554    1.2198   -0.7489 C   0  0  0  0  0  0  0  0  0  0  0  0
   -1.5629   -1.6877   -1.5089 C   0  0  0  0  0  0  0  0  0  0  0  0
   -0.3587   -1.6827   -2.2159 C   0  0  0  0  0  0  0  0  0  0  0  0
    0.7712   -1.0848   -1.6599 C   0  0  0  0  0  0  0  0  0  0  0  0
    1.9065   -1.0743   -2.3715 F   0  0  0  0  0  0  0  0  0  0  0  0
    4.3684    0.2311    0.4329 C   0  0  0  0  0  0  0  0  0  0  0  0
    5.5686   -0.4513    0.7083 C   0  0  0  0  0  0  0  0  0  0  0  0
    6.7869    0.2264    0.8518 C   0  0  0  0  0  0  0  0  0  0  0  0
    6.8392    1.6067    0.7115 C   0  0  0  0  0  0  0  0  0  0  0  0
    5.6748    2.3048    0.4202 C   0  0  0  0  0  0  0  0  0  0  0  0
    4.4584    1.6233    0.2777 C   0  0  0  0  0  0  0  0  0  0  0  0
    3.6067   -2.2772    1.2467 H   0  0  0  0  0  0  0  0  0  0  0  0
    2.1792   -2.4064    0.2551 H   0  0  0  0  0  0  0  0  0  0  0  0
    3.7598   -2.3084   -0.5482 H   0  0  0  0  0  0  0  0  0  0  0  0
   -0.5297   -0.0339    1.3065 H   0  0  0  0  0  0  0  0  0  0  0  0
   -2.9021    1.1911    1.1898 H   0  0  0  0  0  0  0  0  0  0  0  0
   -5.0934    0.2461    2.2992 H   0  0  0  0  0  0  0  0  0  0  0  0
   -5.1591    1.8771    1.6241 H   0  0  0  0  0  0  0  0  0  0  0  0
   -6.2806   -0.6747    0.3710 H   0  0  0  0  0  0  0  0  0  0  0  0
   -7.0822    0.8961    0.6236 H   0  0  0  0  0  0  0  0  0  0  0  0
   -3.2069    0.7878   -1.5116 H   0  0  0  0  0  0  0  0  0  0  0  0
   -3.7075    2.3047   -0.7284 H   0  0  0  0  0  0  0  0  0  0  0  0
   -2.4417   -2.1576   -1.9502 H   0  0  0  0  0  0  0  0  0  0  0  0
   -0.2955   -2.1358   -3.2019 H   0  0  0  0  0  0  0  0  0  0  0  0
    5.6018   -1.5294    0.8256 H   0  0  0  0  0  0  0  0  0  0  0  0
    7.6937   -0.3312    1.0721 H   0  0  0  0  0  0  0  0  0  0  0  0
    7.7819    2.1353    0.8215 H   0  0  0  0  0  0  0  0  0  0  0  0
    5.7028    3.3845    0.2962 H   0  0  0  0  0  0  0  0  0  0  0  0
    3.5941    2.2275    0.0214 H   0  0  0  0  0  0  0  0  0  0  0  0
  1  2  1  0
  2  3  1  0
  3  4  2  0
  3  5  1  0
  5  6  2  0
  6  7  1  0
  7  8  1  0
  8  9  2  0
  8 10  2  0
  8 11  1  0
 11 12  1  0
 12 13  1  0
 13 14  1  0
 14 15  2  0
 14 16  2  0
 14 17  1  0
  7 18  2  0
 18 19  1  0
 19 20  2  0
 20 21  1  0
  2 22  1  0
 22 23  2  0
 23 24  1  0
 24 25  2  0
 25 26  1  0
 26 27  2  0
 20  5  1  0
 27 22  1  0
 17 11  1  0
  1 28  1  0
  1 29  1  0
  1 30  1  0
  6 31  1  0
 11 32  1  0
 12 33  1  0
 12 34  1  0
 13 35  1  0
 13 36  1  0
 17 37  1  0
 17 38  1  0
 18 39  1  0
 19 40  1  0
 23 41  1  0
 24 42  1  0
 25 43  1  0
 26 44  1  0
 27 45  1  0
M  END
$$$$
