
     RDKit          3D

 41 45  0  0  0  0  0  0  0  0999 V2000
    2.1820    2.0021   -0.8997 C   0  0  0  0  0  0  0  0  0  0  0  0
    1.8646    0.9760    0.1574 C   0  0  0  0  0  0  0  0  0  0  0  0
    0.6353    0.4522    0.3189 C   0  0  0  0  0  0  0  0  0  0  0  0
   -0.6651    0.7188   -0.3971 C   0  0  0  0  0  0  0  0  0  0  0  0
   -0.8167    1.5107   -1.3096 O   0  0  0  0  0  0  0  0  0  0  0  0
   -1.5902   -0.1024    0.2593 N   0  0  0  0  0  0  0  0  0  0  0  0
   -2.9539   -0.1812    0.0708 C   0  0  0  0  0  0  0  0  0  0  0  0
   -3.7385   -0.9434    0.8044 N   0  0  0  0  0  0  0  0  0  0  0  0
   -5.0503   -0.8103    0.3816 C   0  0  0  0  0  0  0  0  0  0  0  0
   -6.1667   -1.4788    0.9237 C   0  0  0  0  0  0  0  0  0  0  0  0
   -7.4410   -1.2448    0.3961 C   0  0  0  0  0  0  0  0  0  0  0  0
   -7.6142   -0.3559   -0.6602 C   0  0  0  0  0  0  0  0  0  0  0  0
   -6.5230    0.3198   -1.2153 C   0  0  0  0  0  0  0  0  0  0  0  0
   -5.2483    0.0765   -0.6778 C   0  0  0  0  0  0  0  0  0  0  0  0
   -3.7300    0.7420   -1.1341 S   0  0  0  0  0  0  0  0  0  0  0  0
   -0.9511   -0.9061    1.2283 N   0  0  0  0  0  0  0  0  0  0  0  0
    0.3586   -0.5232    1.3485 C   0  0  0  0  0  0  0  0  0  0  0  0
    1.2880   -0.8887    2.2271 C   0  0  0  0  0  0  0  0  0  0  0  0
    2.6543   -0.3267    2.1036 C   0  0  0  0  0  0  0  0  0  0  0  0
    3.4910   -0.6659    2.9376 O   0  0  0  0  0  0  0  0  0  0  0  0
    2.8909    0.5607    1.0404 N   0  0  0  0  0  0  0  0  0  0  0  0
    4.2745    1.0359    0.9056 C   0  0  0  0  0  0  0  0  0  0  0  0
    4.9990    0.3518   -0.2241 C   0  0  0  0  0  0  0  0  0  0  0  0
    5.6171    0.9379   -1.3142 C   0  0  0  0  0  0  0  0  0  0  0  0
    6.2228   -0.0180   -2.1796 C   0  0  0  0  0  0  0  0  0  0  0  0
    6.0646   -1.3037   -1.7159 C   0  0  0  0  0  0  0  0  0  0  0  0
    5.1978   -1.3532   -0.2447 S   0  0  0  0  0  0  0  0  0  0  0  0
    2.6638    2.8819   -0.4624 H   0  0  0  0  0  0  0  0  0  0  0  0
    2.8355    1.5764   -1.6655 H   0  0  0  0  0  0  0  0  0  0  0  0
    1.3027    2.3828   -1.4199 H   0  0  0  0  0  0  0  0  0  0  0  0
   -6.0287   -2.1725    1.7470 H   0  0  0  0  0  0  0  0  0  0  0  0
   -8.3001   -1.7631    0.8160 H   0  0  0  0  0  0  0  0  0  0  0  0
   -8.6109   -0.1833   -1.0616 H   0  0  0  0  0  0  0  0  0  0  0  0
   -6.6590    1.0129   -2.0402 H   0  0  0  0  0  0  0  0  0  0  0  0
   -1.4821   -1.0501    2.0868 H   0  0  0  0  0  0  0  0  0  0  0  0
    1.1170   -1.6058    3.0174 H   0  0  0  0  0  0  0  0  0  0  0  0
    4.2694    2.1225    0.7677 H   0  0  0  0  0  0  0  0  0  0  0  0
    4.8373    0.8678    1.8317 H   0  0  0  0  0  0  0  0  0  0  0  0
    5.6303    2.0073   -1.4887 H   0  0  0  0  0  0  0  0  0  0  0  0
    6.7514    0.2249   -3.0933 H   0  0  0  0  0  0  0  0  0  0  0  0
    6.4220   -2.2197   -2.1659 H   0  0  0  0  0  0  0  0  0  0  0  0
  1  2  1  0
  2  3  2  0
  3  4  1  0
  4  5  2  0
  4  6  1  0
  6  7  1  0
  7  8  2  0
  8  9  1  0
  9 10  2  0
 10 11  1  0
 11 12  2  0
 12 13  1  0
 13 14  2  0
 14 15  1  0
  6 16  1  0
 16 17  1  0
 17 18  2  0
 18 19  1  0
 19 20  2  0
 19 21  1  0
 21 22  1  0
 22 23  1  0
 23 24  2  0
 24 25  1  0
 25 26  2  0
 26 27  1  0
 21  2  1  0
 27 23  1  0
 17  3  1  0
 15  7  1  0
 14  9  1  0
  1 28  1  0
  1 29  1  0
  1 30  1  0
 10 31  1  0
 11 32  1  0
 12 33  1  0
 13 34  1  0
 16 35  1  0
 18 36  1  0
 22 37  1  0
 22 38  1  0
 24 39  1  0
 25 40  1  0
 26 41  1  0
M  END
$$$$
