
     RDKit          3D

 44 46  0  0  0  0  0  0  0  0999 V2000
    5.0504   -3.6706   -0.5011 C   0  0  0  0  0  0  0  0  0  0  0  0
    5.3758   -2.3529   -0.9259 O   0  0  0  0  0  0  0  0  0  0  0  0
    4.3573   -1.4414   -0.9342 C   0  0  0  0  0  0  0  0  0  0  0  0
    4.7147   -0.1647   -1.3631 C   0  0  0  0  0  0  0  0  0  0  0  0
    3.7638    0.8607   -1.4187 C   0  0  0  0  0  0  0  0  0  0  0  0
    2.4283    0.6370   -1.0537 C   0  0  0  0  0  0  0  0  0  0  0  0
    1.5313    1.7081   -1.1058 N   0  0  0  0  0  0  0  0  0  0  0  0
    0.1937    1.8689   -0.7530 C   0  0  0  0  0  0  0  0  0  0  0  0
   -0.4896    0.9111   -0.1193 N   0  0  0  0  0  0  0  0  0  0  0  0
   -1.7712    1.1422    0.2074 C   0  0  0  0  0  0  0  0  0  0  0  0
   -2.4972    0.1352    0.8932 N   0  0  0  0  0  0  0  0  0  0  0  0
   -1.7211   -1.0706    1.1933 C   0  0  0  0  0  0  0  0  0  0  0  0
   -2.6329   -2.0925    1.8746 C   0  0  0  0  0  0  0  0  0  0  0  0
   -1.8735   -3.3486    2.2786 C   0  0  0  0  0  0  0  0  0  0  0  0
   -1.3297   -4.0064    1.1436 O   0  0  0  0  0  0  0  0  0  0  0  0
   -2.4140    2.3446   -0.1241 C   0  0  0  0  0  0  0  0  0  0  0  0
   -3.7740    2.6496    0.1442 C   0  0  0  0  0  0  0  0  0  0  0  0
   -4.3154    3.8803   -0.2188 C   0  0  0  0  0  0  0  0  0  0  0  0
   -3.5102    4.8151   -0.8541 C   0  0  0  0  0  0  0  0  0  0  0  0
   -2.1741    4.5075   -1.1266 C   0  0  0  0  0  0  0  0  0  0  0  0
   -1.6126    3.2847   -0.7763 C   0  0  0  0  0  0  0  0  0  0  0  0
   -0.3312    3.0575   -1.0783 N   0  0  0  0  0  0  0  0  0  0  0  0
    2.0894   -0.6462   -0.6162 C   0  0  0  0  0  0  0  0  0  0  0  0
    3.0381   -1.6785   -0.5592 C   0  0  0  0  0  0  0  0  0  0  0  0
    4.3095   -4.1282   -1.1651 H   0  0  0  0  0  0  0  0  0  0  0  0
    4.7081   -3.6770    0.5390 H   0  0  0  0  0  0  0  0  0  0  0  0
    5.9620   -4.2735   -0.5548 H   0  0  0  0  0  0  0  0  0  0  0  0
    5.7419    0.0378   -1.6549 H   0  0  0  0  0  0  0  0  0  0  0  0
    4.0841    1.8449   -1.7514 H   0  0  0  0  0  0  0  0  0  0  0  0
    1.8490    2.5479   -1.5666 H   0  0  0  0  0  0  0  0  0  0  0  0
   -2.8778    0.5540    1.7383 H   0  0  0  0  0  0  0  0  0  0  0  0
   -0.8825   -0.8275    1.8577 H   0  0  0  0  0  0  0  0  0  0  0  0
   -1.3248   -1.5056    0.2678 H   0  0  0  0  0  0  0  0  0  0  0  0
   -3.4454   -2.3582    1.1868 H   0  0  0  0  0  0  0  0  0  0  0  0
   -3.0943   -1.6483    2.7648 H   0  0  0  0  0  0  0  0  0  0  0  0
   -1.0503   -3.1045    2.9574 H   0  0  0  0  0  0  0  0  0  0  0  0
   -2.5385   -4.0484    2.7947 H   0  0  0  0  0  0  0  0  0  0  0  0
   -2.0696   -4.2535    0.5613 H   0  0  0  0  0  0  0  0  0  0  0  0
   -4.4157    1.9144    0.6242 H   0  0  0  0  0  0  0  0  0  0  0  0
   -5.3588    4.1033   -0.0121 H   0  0  0  0  0  0  0  0  0  0  0  0
   -3.9154    5.7804   -1.1466 H   0  0  0  0  0  0  0  0  0  0  0  0
   -1.5534    5.2443   -1.6323 H   0  0  0  0  0  0  0  0  0  0  0  0
    1.0729   -0.8809   -0.3175 H   0  0  0  0  0  0  0  0  0  0  0  0
    2.7030   -2.6515   -0.2156 H   0  0  0  0  0  0  0  0  0  0  0  0
  1  2  1  0
  2  3  1  0
  3  4  2  0
  4  5  1  0
  5  6  2  0
  6  7  1  0
  7  8  1  0
  8  9  2  0
  9 10  1  0
 10 11  1  0
 11 12  1  0
 12 13  1  0
 13 14  1  0
 14 15  1  0
 10 16  2  0
 16 17  1  0
 17 18  2  0
 18 19  1  0
 19 20  2  0
 20 21  1  0
 21 22  2  0
  6 23  1  0
 23 24  2  0
 24  3  1  0
 22  8  1  0
 21 16  1  0
  1 25  1  0
  1 26  1  0
  1 27  1  0
  4 28  1  0
  5 29  1  0
  7 30  1  0
 11 31  1  0
 12 32  1  0
 12 33  1  0
 13 34  1  0
 13 35  1  0
 14 36  1  0
 14 37  1  0
 15 38  1  0
 17 39  1  0
 18 40  1  0
 19 41  1  0
 20 42  1  0
 23 43  1  0
 24 44  1  0
M  END
$$$$
