
     RDKit          3D

 53 53  0  0  0  0  0  0  0  0999 V2000
   -3.2295   -0.7581   -1.7852 C   0  0  0  0  0  0  0  0  0  0  0  0
   -3.7247    0.5979   -1.2907 C   0  0  0  0  0  0  0  0  0  0  0  0
   -2.6371    1.3990   -0.5339 C   0  0  0  0  0  0  0  0  0  0  0  0
   -2.3291    0.9446    0.8338 N   0  0  0  0  0  0  0  0  0  0  0  0
   -1.0873    0.1712    0.9590 C   0  0  0  0  0  0  0  0  0  0  0  0
    0.1858    1.0163    0.7661 C   0  0  0  0  0  0  0  0  0  0  0  0
    1.3819    0.3115    1.1101 O   0  0  0  0  0  0  0  0  0  0  0  0
    1.7352   -0.7908    0.2746 C   0  0  0  0  0  0  0  0  0  0  0  0
    2.0228   -0.4445   -1.1906 C   0  0  0  0  0  0  0  0  0  0  0  0
    3.3000    0.8459   -1.4203 S   0  0  0  0  0  0  0  0  0  0  0  0
    4.7307   -0.0219   -0.8127 C   0  0  0  0  0  0  0  0  0  0  0  0
    5.3292   -1.0340   -1.5701 C   0  0  0  0  0  0  0  0  0  0  0  0
    6.4577   -1.7007   -1.0850 C   0  0  0  0  0  0  0  0  0  0  0  0
    6.9885   -1.3516    0.1558 C   0  0  0  0  0  0  0  0  0  0  0  0
    8.3761   -2.1743    0.7533 Cl  0  0  0  0  0  0  0  0  0  0  0  0
    6.4036   -0.3393    0.9135 C   0  0  0  0  0  0  0  0  0  0  0  0
    5.2771    0.3286    0.4262 C   0  0  0  0  0  0  0  0  0  0  0  0
   -3.4730    0.2280    1.4321 C   0  0  0  0  0  0  0  0  0  0  0  0
   -4.8198    0.7068    0.8551 C   0  0  0  0  0  0  0  0  0  0  0  0
   -5.9892    0.0375    1.5657 C   0  0  0  0  0  0  0  0  0  0  0  0
   -4.9317    0.3866   -0.5406 O   0  0  0  0  0  0  0  0  0  0  0  0
   -1.3280   -0.6326   -0.4754 O   0  0  0  0  0  0  0  0  0  0  0  0
   -0.7696   -0.0148    0.4101 C   0  0  0  0  0  0  0  0  0  0  0  0
   -1.4507    0.7275    1.2942 O   0  0  0  0  0  0  0  0  0  0  0  0
    0.7698    0.0173    0.6564 C   0  0  0  0  0  0  0  0  0  0  0  0
    1.3290    0.6435    1.5354 O   0  0  0  0  0  0  0  0  0  0  0  0
    1.4501   -0.7350   -0.2197 O   0  0  0  0  0  0  0  0  0  0  0  0
   -2.3185   -0.6546   -2.3824 H   0  0  0  0  0  0  0  0  0  0  0  0
   -3.0336   -1.4485   -0.9601 H   0  0  0  0  0  0  0  0  0  0  0  0
   -3.9974   -1.2338   -2.4057 H   0  0  0  0  0  0  0  0  0  0  0  0
   -4.0151    1.1814   -2.1725 H   0  0  0  0  0  0  0  0  0  0  0  0
   -3.0091    2.4273   -0.4284 H   0  0  0  0  0  0  0  0  0  0  0  0
   -1.7399    1.4816   -1.1569 H   0  0  0  0  0  0  0  0  0  0  0  0
   -1.0273   -0.2675    1.9643 H   0  0  0  0  0  0  0  0  0  0  0  0
   -1.0902   -0.6757    0.2640 H   0  0  0  0  0  0  0  0  0  0  0  0
    0.2681    1.4183   -0.2472 H   0  0  0  0  0  0  0  0  0  0  0  0
    0.1412    1.8804    1.4393 H   0  0  0  0  0  0  0  0  0  0  0  0
    0.9495   -1.5522    0.3260 H   0  0  0  0  0  0  0  0  0  0  0  0
    2.6194   -1.2550    0.7253 H   0  0  0  0  0  0  0  0  0  0  0  0
    2.3212   -1.3476   -1.7332 H   0  0  0  0  0  0  0  0  0  0  0  0
    1.1130   -0.0738   -1.6726 H   0  0  0  0  0  0  0  0  0  0  0  0
    4.9302   -1.3047   -2.5448 H   0  0  0  0  0  0  0  0  0  0  0  0
    6.9190   -2.4833   -1.6808 H   0  0  0  0  0  0  0  0  0  0  0  0
    6.8163   -0.0633    1.8801 H   0  0  0  0  0  0  0  0  0  0  0  0
    4.8243    1.1176    1.0236 H   0  0  0  0  0  0  0  0  0  0  0  0
   -3.3808   -0.8509    1.2514 H   0  0  0  0  0  0  0  0  0  0  0  0
   -3.4523    0.3850    2.5167 H   0  0  0  0  0  0  0  0  0  0  0  0
   -4.9222    1.7936    0.9675 H   0  0  0  0  0  0  0  0  0  0  0  0
   -5.9547   -1.0503    1.4369 H   0  0  0  0  0  0  0  0  0  0  0  0
   -5.9887    0.2650    2.6359 H   0  0  0  0  0  0  0  0  0  0  0  0
   -6.9395    0.3737    1.1372 H   0  0  0  0  0  0  0  0  0  0  0  0
   -2.3877    0.6229    1.0317 H   0  0  0  0  0  0  0  0  0  0  0  0
    2.3872   -0.6288    0.0415 H   0  0  0  0  0  0  0  0  0  0  0  0
  1  2  1  0
  2  3  1  0
  3  4  1  0
  4  5  1  0
  5  6  1  0
  6  7  1  0
  7  8  1  0
  8  9  1  0
  9 10  1  0
 10 11  1  0
 11 12  2  0
 12 13  1  0
 13 14  2  0
 14 15  1  0
 14 16  1  0
 16 17  2  0
  4 18  1  0
 18 19  1  0
 19 20  1  0
 19 21  1  0
 22 23  2  0
 23 24  1  0
 23 25  1  0
 25 26  2  0
 25 27  1  0
 21  2  1  0
 17 11  1  0
  1 28  1  0
  1 29  1  0
  1 30  1  0
  2 31  1  0
  3 32  1  0
  3 33  1  0
  5 34  1  0
  5 35  1  0
  6 36  1  0
  6 37  1  0
  8 38  1  0
  8 39  1  0
  9 40  1  0
  9 41  1  0
 12 42  1  0
 13 43  1  0
 16 44  1  0
 17 45  1  0
 18 46  1  0
 18 47  1  0
 19 48  1  0
 20 49  1  0
 20 50  1  0
 20 51  1  0
 24 52  1  0
 27 53  1  0
M  END
$$$$
