
     RDKit          3D

 52 56  0  0  0  0  0  0  0  0999 V2000
    5.3468   -2.6888   -1.0223 C   0  0  0  0  0  0  0  0  0  0  0  0
    4.2726   -1.7553   -0.5962 C   0  0  0  0  0  0  0  0  0  0  0  0
    3.0111   -2.1920   -0.5275 N   0  0  0  0  0  0  0  0  0  0  0  0
    2.2913   -1.1245   -0.0895 N   0  0  0  0  0  0  0  0  0  0  0  0
    3.1063   -0.0028    0.1181 C   0  0  0  0  0  0  0  0  0  0  0  0
    2.5933    1.1905    0.5598 N   0  0  0  0  0  0  0  0  0  0  0  0
    1.3110    1.2194    0.7704 C   0  0  0  0  0  0  0  0  0  0  0  0
    0.3689    0.0890    0.5809 C   0  0  0  0  0  0  0  0  0  0  0  0
   -1.0871    0.2052    0.8425 C   0  0  0  0  0  0  0  0  0  0  0  0
   -1.5672    1.2754    1.2079 O   0  0  0  0  0  0  0  0  0  0  0  0
   -1.8353   -0.9568    0.6382 N   0  0  0  0  0  0  0  0  0  0  0  0
   -3.2820   -0.9019    0.8699 C   0  0  0  0  0  0  0  0  0  0  0  0
   -4.0342   -0.2897   -0.3296 C   0  0  0  0  0  0  0  0  0  0  0  0
   -5.4946   -0.2652   -0.1393 N   0  0  0  0  0  0  0  0  0  0  0  0
   -5.9328    0.7838    0.8121 C   0  0  0  0  0  0  0  0  0  0  0  0
   -6.5195    2.0328    0.1327 C   0  0  0  0  0  0  0  0  0  0  0  0
   -7.6539    1.7436   -0.6950 O   0  0  0  0  0  0  0  0  0  0  0  0
   -7.6131    0.4284   -1.2648 C   0  0  0  0  0  0  0  0  0  0  0  0
   -6.1812   -0.0970   -1.4406 C   0  0  0  0  0  0  0  0  0  0  0  0
   -1.2649   -2.1314    0.1801 C   0  0  0  0  0  0  0  0  0  0  0  0
    0.0481   -2.2149   -0.0634 C   0  0  0  0  0  0  0  0  0  0  0  0
    0.9082   -1.0655    0.1484 C   0  0  0  0  0  0  0  0  0  0  0  0
    4.3905   -0.3930   -0.2187 C   0  0  0  0  0  0  0  0  0  0  0  0
    5.5559    0.4742   -0.1684 C   0  0  0  0  0  0  0  0  0  0  0  0
    5.8300    1.2419    0.9709 C   0  0  0  0  0  0  0  0  0  0  0  0
    6.9617    2.0593    1.0201 C   0  0  0  0  0  0  0  0  0  0  0  0
    7.8288    2.1172   -0.0692 C   0  0  0  0  0  0  0  0  0  0  0  0
    7.5637    1.3614   -1.2096 C   0  0  0  0  0  0  0  0  0  0  0  0
    6.4319    0.5435   -1.2599 C   0  0  0  0  0  0  0  0  0  0  0  0
    5.0427   -3.7325   -0.8893 H   0  0  0  0  0  0  0  0  0  0  0  0
    6.2568   -2.5328   -0.4343 H   0  0  0  0  0  0  0  0  0  0  0  0
    5.5846   -2.5367   -2.0797 H   0  0  0  0  0  0  0  0  0  0  0  0
    0.8611    2.1623    1.1246 H   0  0  0  0  0  0  0  0  0  0  0  0
   -3.6543   -1.9131    1.0773 H   0  0  0  0  0  0  0  0  0  0  0  0
   -3.4526   -0.3107    1.7765 H   0  0  0  0  0  0  0  0  0  0  0  0
   -3.7974   -0.9101   -1.2048 H   0  0  0  0  0  0  0  0  0  0  0  0
   -3.6547    0.7153   -0.5547 H   0  0  0  0  0  0  0  0  0  0  0  0
   -5.1323    1.0853    1.4954 H   0  0  0  0  0  0  0  0  0  0  0  0
   -6.7164    0.3339    1.4346 H   0  0  0  0  0  0  0  0  0  0  0  0
   -6.8441    2.7536    0.8901 H   0  0  0  0  0  0  0  0  0  0  0  0
   -5.7623    2.5301   -0.4847 H   0  0  0  0  0  0  0  0  0  0  0  0
   -8.2001   -0.2412   -0.6252 H   0  0  0  0  0  0  0  0  0  0  0  0
   -8.1184    0.4767   -2.2348 H   0  0  0  0  0  0  0  0  0  0  0  0
   -6.2055   -1.0626   -1.9574 H   0  0  0  0  0  0  0  0  0  0  0  0
   -5.6306    0.6115   -2.0740 H   0  0  0  0  0  0  0  0  0  0  0  0
   -1.9218   -2.9837    0.0264 H   0  0  0  0  0  0  0  0  0  0  0  0
    0.4913   -3.1409   -0.4216 H   0  0  0  0  0  0  0  0  0  0  0  0
    5.1615    1.2112    1.8286 H   0  0  0  0  0  0  0  0  0  0  0  0
    7.1616    2.6528    1.9084 H   0  0  0  0  0  0  0  0  0  0  0  0
    8.7072    2.7562   -0.0312 H   0  0  0  0  0  0  0  0  0  0  0  0
    8.2344    1.4129   -2.0633 H   0  0  0  0  0  0  0  0  0  0  0  0
    6.2346   -0.0242   -2.1656 H   0  0  0  0  0  0  0  0  0  0  0  0
  1  2  1  0
  2  3  2  0
  3  4  1  0
  4  5  1  0
  5  6  1  0
  6  7  2  0
  7  8  1  0
  8  9  1  0
  9 10  2  0
  9 11  1  0
 11 12  1  0
 12 13  1  0
 13 14  1  0
 14 15  1  0
 15 16  1  0
 16 17  1  0
 17 18  1  0
 18 19  1  0
 11 20  1  0
 20 21  2  0
 21 22  1  0
  5 23  2  0
 23 24  1  0
 24 25  2  0
 25 26  1  0
 26 27  2  0
 27 28  1  0
 28 29  2  0
 23  2  1  0
 29 24  1  0
 22  4  1  0
 22  8  2  0
 19 14  1  0
  1 30  1  0
  1 31  1  0
  1 32  1  0
  7 33  1  0
 12 34  1  0
 12 35  1  0
 13 36  1  0
 13 37  1  0
 15 38  1  0
 15 39  1  0
 16 40  1  0
 16 41  1  0
 18 42  1  0
 18 43  1  0
 19 44  1  0
 19 45  1  0
 20 46  1  0
 21 47  1  0
 25 48  1  0
 26 49  1  0
 27 50  1  0
 28 51  1  0
 29 52  1  0
M  END
$$$$
