
     RDKit          3D

 54 56  0  0  0  0  0  0  0  0999 V2000
    3.0022    2.9643   -1.5795 C   0  0  0  0  0  0  0  0  0  0  0  0
    4.1271    2.0833   -1.0752 C   0  0  0  0  0  0  0  0  0  0  0  0
    3.7164    0.7210   -1.2048 O   0  0  0  0  0  0  0  0  0  0  0  0
    4.7639   -0.1905   -0.8483 C   0  0  0  0  0  0  0  0  0  0  0  0
    4.2497   -1.6209   -1.0251 C   0  0  0  0  0  0  0  0  0  0  0  0
    3.1906   -1.8975   -0.1007 O   0  0  0  0  0  0  0  0  0  0  0  0
    3.4602   -2.3459    1.1643 C   0  0  0  0  0  0  0  0  0  0  0  0
    4.7474   -2.6386    1.6354 C   0  0  0  0  0  0  0  0  0  0  0  0
    4.9378   -3.1308    2.9316 C   0  0  0  0  0  0  0  0  0  0  0  0
    3.8474   -3.3369    3.7737 C   0  0  0  0  0  0  0  0  0  0  0  0
    2.5626   -3.0407    3.3226 C   0  0  0  0  0  0  0  0  0  0  0  0
    2.3537   -2.5363    2.0248 C   0  0  0  0  0  0  0  0  0  0  0  0
    0.9295   -2.2301    1.6485 C   0  0  0  0  0  0  0  0  0  0  0  0
    0.0303   -2.7693    2.2876 O   0  0  0  0  0  0  0  0  0  0  0  0
    0.7567   -1.3175    0.6252 N   0  0  0  0  0  0  0  0  0  0  0  0
   -0.4460   -0.8356    0.0771 C   0  0  0  0  0  0  0  0  0  0  0  0
   -1.7144   -1.2557    0.4828 C   0  0  0  0  0  0  0  0  0  0  0  0
   -2.8631   -0.7282   -0.1188 C   0  0  0  0  0  0  0  0  0  0  0  0
   -2.7490    0.2456   -1.1136 C   0  0  0  0  0  0  0  0  0  0  0  0
   -3.9406    0.8206   -1.7826 C   0  0  0  0  0  0  0  0  0  0  0  0
   -3.9475    0.8748   -3.0116 O   0  0  0  0  0  0  0  0  0  0  0  0
   -4.9820    1.2995   -1.0081 N   0  0  0  0  0  0  0  0  0  0  0  0
   -6.1512    1.8838   -1.6396 C   0  0  0  0  0  0  0  0  0  0  0  0
   -7.0794    2.2235   -0.4838 C   0  0  0  0  0  0  0  0  0  0  0  0
   -6.1054    2.5567    0.6395 C   0  0  0  0  0  0  0  0  0  0  0  0
   -4.9864    1.5451    0.4293 C   0  0  0  0  0  0  0  0  0  0  0  0
   -1.4835    0.6521   -1.5435 C   0  0  0  0  0  0  0  0  0  0  0  0
   -0.3390    0.1158   -0.9470 C   0  0  0  0  0  0  0  0  0  0  0  0
    3.2730    4.0234   -1.5032 H   0  0  0  0  0  0  0  0  0  0  0  0
    2.0817    2.7884   -1.0074 H   0  0  0  0  0  0  0  0  0  0  0  0
    2.7788    2.7291   -2.6263 H   0  0  0  0  0  0  0  0  0  0  0  0
    4.3367    2.3066   -0.0236 H   0  0  0  0  0  0  0  0  0  0  0  0
    5.0323    2.2599   -1.6709 H   0  0  0  0  0  0  0  0  0  0  0  0
    5.0599   -0.0052    0.1904 H   0  0  0  0  0  0  0  0  0  0  0  0
    5.6225   -0.0277   -1.5104 H   0  0  0  0  0  0  0  0  0  0  0  0
    3.8028   -1.7114   -2.0230 H   0  0  0  0  0  0  0  0  0  0  0  0
    5.0485   -2.3696   -0.9780 H   0  0  0  0  0  0  0  0  0  0  0  0
    5.6352   -2.5076    1.0202 H   0  0  0  0  0  0  0  0  0  0  0  0
    5.9431   -3.3602    3.2807 H   0  0  0  0  0  0  0  0  0  0  0  0
    3.9935   -3.7258    4.7791 H   0  0  0  0  0  0  0  0  0  0  0  0
    1.7153   -3.2019    3.9912 H   0  0  0  0  0  0  0  0  0  0  0  0
    1.6096   -0.9716    0.1933 H   0  0  0  0  0  0  0  0  0  0  0  0
   -1.8433   -2.0077    1.2556 H   0  0  0  0  0  0  0  0  0  0  0  0
   -3.8378   -1.1012    0.1848 H   0  0  0  0  0  0  0  0  0  0  0  0
   -5.8346    2.7864   -2.1750 H   0  0  0  0  0  0  0  0  0  0  0  0
   -6.5946    1.1829   -2.3533 H   0  0  0  0  0  0  0  0  0  0  0  0
   -7.7610    3.0452   -0.7161 H   0  0  0  0  0  0  0  0  0  0  0  0
   -7.6778    1.3469   -0.2082 H   0  0  0  0  0  0  0  0  0  0  0  0
   -5.7211    3.5752    0.5071 H   0  0  0  0  0  0  0  0  0  0  0  0
   -6.5575    2.4847    1.6337 H   0  0  0  0  0  0  0  0  0  0  0  0
   -5.2264    0.6036    0.9331 H   0  0  0  0  0  0  0  0  0  0  0  0
   -4.0171    1.9137    0.7782 H   0  0  0  0  0  0  0  0  0  0  0  0
   -1.3866    1.3829   -2.3428 H   0  0  0  0  0  0  0  0  0  0  0  0
    0.6367    0.4492   -1.2946 H   0  0  0  0  0  0  0  0  0  0  0  0
  1  2  1  0
  2  3  1  0
  3  4  1  0
  4  5  1  0
  5  6  1  0
  6  7  1  0
  7  8  2  0
  8  9  1  0
  9 10  2  0
 10 11  1  0
 11 12  2  0
 12 13  1  0
 13 14  2  0
 13 15  1  0
 15 16  1  0
 16 17  2  0
 17 18  1  0
 18 19  2  0
 19 20  1  0
 20 21  2  0
 20 22  1  0
 22 23  1  0
 23 24  1  0
 24 25  1  0
 25 26  1  0
 19 27  1  0
 27 28  2  0
 12  7  1  0
 28 16  1  0
 26 22  1  0
  1 29  1  0
  1 30  1  0
  1 31  1  0
  2 32  1  0
  2 33  1  0
  4 34  1  0
  4 35  1  0
  5 36  1  0
  5 37  1  0
  8 38  1  0
  9 39  1  0
 10 40  1  0
 11 41  1  0
 15 42  1  0
 17 43  1  0
 18 44  1  0
 23 45  1  0
 23 46  1  0
 24 47  1  0
 24 48  1  0
 25 49  1  0
 25 50  1  0
 26 51  1  0
 26 52  1  0
 27 53  1  0
 28 54  1  0
M  END
$$$$
