
     RDKit          3D

 44 45  0  0  0  0  0  0  0  0999 V2000
    8.0723   -1.4164   -0.1892 C   0  0  0  0  0  0  0  0  0  0  0  0
    7.3913   -0.2006    0.0896 O   0  0  0  0  0  0  0  0  0  0  0  0
    6.0249   -0.2429    0.1036 C   0  0  0  0  0  0  0  0  0  0  0  0
    5.2368   -1.3412   -0.2297 C   0  0  0  0  0  0  0  0  0  0  0  0
    3.8403   -1.2469   -0.1653 C   0  0  0  0  0  0  0  0  0  0  0  0
    3.2142   -0.0601    0.2374 C   0  0  0  0  0  0  0  0  0  0  0  0
    1.8059   -0.0606    0.2896 N   0  0  0  0  0  0  0  0  0  0  0  0
    0.9847    0.9504    0.7550 C   0  0  0  0  0  0  0  0  0  0  0  0
    1.3203    2.0226    1.2421 O   0  0  0  0  0  0  0  0  0  0  0  0
   -0.4661    0.6381    0.6699 C   0  0  0  0  0  0  0  0  0  0  0  0
   -1.2757    0.9291    1.7743 C   0  0  0  0  0  0  0  0  0  0  0  0
   -2.6335    0.6233    1.7290 C   0  0  0  0  0  0  0  0  0  0  0  0
   -3.1780    0.0572    0.5718 C   0  0  0  0  0  0  0  0  0  0  0  0
   -4.5149   -0.2603    0.5959 O   0  0  0  0  0  0  0  0  0  0  0  0
   -5.3015    0.7190   -0.1068 C   0  0  0  0  0  0  0  0  0  0  0  0
   -6.0987    1.5224    0.9250 C   0  0  0  0  0  0  0  0  0  0  0  0
   -6.2507   -0.0210   -1.0506 C   0  0  0  0  0  0  0  0  0  0  0  0
   -2.3750   -0.2386   -0.5465 C   0  0  0  0  0  0  0  0  0  0  0  0
   -3.0102   -0.8184   -1.6141 O   0  0  0  0  0  0  0  0  0  0  0  0
   -2.2259   -1.1529   -2.7517 C   0  0  0  0  0  0  0  0  0  0  0  0
   -1.0140    0.0712   -0.4955 C   0  0  0  0  0  0  0  0  0  0  0  0
    4.0069    1.0407    0.5560 C   0  0  0  0  0  0  0  0  0  0  0  0
    5.4021    0.9479    0.4872 C   0  0  0  0  0  0  0  0  0  0  0  0
    7.8660   -1.7574   -1.2074 H   0  0  0  0  0  0  0  0  0  0  0  0
    7.8199   -2.1869    0.5446 H   0  0  0  0  0  0  0  0  0  0  0  0
    9.1463   -1.2253   -0.1127 H   0  0  0  0  0  0  0  0  0  0  0  0
    5.6729   -2.2840   -0.5439 H   0  0  0  0  0  0  0  0  0  0  0  0
    3.2538   -2.1228   -0.4287 H   0  0  0  0  0  0  0  0  0  0  0  0
    1.3585   -0.9345    0.0411 H   0  0  0  0  0  0  0  0  0  0  0  0
   -0.8477    1.3756    2.6711 H   0  0  0  0  0  0  0  0  0  0  0  0
   -3.2688    0.8287    2.5893 H   0  0  0  0  0  0  0  0  0  0  0  0
   -4.6825    1.4066   -0.7040 H   0  0  0  0  0  0  0  0  0  0  0  0
   -6.7181    2.2815    0.4358 H   0  0  0  0  0  0  0  0  0  0  0  0
   -6.7449    0.8641    1.5214 H   0  0  0  0  0  0  0  0  0  0  0  0
   -5.4222    2.0206    1.6296 H   0  0  0  0  0  0  0  0  0  0  0  0
   -5.6929   -0.6096   -1.7849 H   0  0  0  0  0  0  0  0  0  0  0  0
   -6.8792   -0.7324   -0.5008 H   0  0  0  0  0  0  0  0  0  0  0  0
   -6.8999    0.6796   -1.5864 H   0  0  0  0  0  0  0  0  0  0  0  0
   -1.4267   -1.8576   -2.4954 H   0  0  0  0  0  0  0  0  0  0  0  0
   -1.8232   -0.2526   -3.2329 H   0  0  0  0  0  0  0  0  0  0  0  0
   -2.8813   -1.6550   -3.4759 H   0  0  0  0  0  0  0  0  0  0  0  0
   -0.3661   -0.1073   -1.3491 H   0  0  0  0  0  0  0  0  0  0  0  0
    3.5749    1.9898    0.8604 H   0  0  0  0  0  0  0  0  0  0  0  0
    6.0057    1.8169    0.7420 H   0  0  0  0  0  0  0  0  0  0  0  0
  1  2  1  0
  2  3  1  0
  3  4  2  0
  4  5  1  0
  5  6  2  0
  6  7  1  0
  7  8  1  0
  8  9  2  0
  8 10  1  0
 10 11  2  0
 11 12  1  0
 12 13  2  0
 13 14  1  0
 14 15  1  0
 15 16  1  0
 15 17  1  0
 13 18  1  0
 18 19  1  0
 19 20  1  0
 18 21  2  0
  6 22  1  0
 22 23  2  0
 23  3  1  0
 21 10  1  0
  1 24  1  0
  1 25  1  0
  1 26  1  0
  4 27  1  0
  5 28  1  0
  7 29  1  0
 11 30  1  0
 12 31  1  0
 15 32  1  0
 16 33  1  0
 16 34  1  0
 16 35  1  0
 17 36  1  0
 17 37  1  0
 17 38  1  0
 20 39  1  0
 20 40  1  0
 20 41  1  0
 21 42  1  0
 22 43  1  0
 23 44  1  0
M  END
$$$$
