
     RDKit          3D

 48 51  0  0  0  0  0  0  0  0999 V2000
    1.4581    2.1488   -3.2837 O   0  0  0  0  0  0  0  0  0  0  0  0
    1.7295    1.1437   -2.6205 C   0  0  0  0  0  0  0  0  0  0  0  0
    1.4225   -0.2240   -3.1942 C   0  0  0  0  0  0  0  0  0  0  0  0
   -0.0837   -0.4461   -3.2341 C   0  0  0  0  0  0  0  0  0  0  0  0
   -0.6137   -0.9605   -1.9717 N   0  0  0  0  0  0  0  0  0  0  0  0
   -0.9169   -0.0210   -1.0230 N   0  0  0  0  0  0  0  0  0  0  0  0
   -1.4082   -0.3991    0.1189 C   0  0  0  0  0  0  0  0  0  0  0  0
   -1.6202    0.6654    1.1309 C   0  0  0  0  0  0  0  0  0  0  0  0
   -1.0125    0.5818    2.3891 C   0  0  0  0  0  0  0  0  0  0  0  0
   -1.1752    1.6238    3.3041 C   0  0  0  0  0  0  0  0  0  0  0  0
   -1.9302    2.7453    2.9528 C   0  0  0  0  0  0  0  0  0  0  0  0
   -2.1209    4.0300    4.0784 Cl  0  0  0  0  0  0  0  0  0  0  0  0
   -2.5182    2.8394    1.6908 C   0  0  0  0  0  0  0  0  0  0  0  0
   -2.3585    1.8005    0.7732 C   0  0  0  0  0  0  0  0  0  0  0  0
   -1.7287   -1.8113    0.4238 C   0  0  0  0  0  0  0  0  0  0  0  0
   -2.4578   -2.2125    1.5541 C   0  0  0  0  0  0  0  0  0  0  0  0
   -2.7107   -3.5686    1.7792 C   0  0  0  0  0  0  0  0  0  0  0  0
   -2.2469   -4.5268    0.8777 C   0  0  0  0  0  0  0  0  0  0  0  0
   -1.5503   -4.1281   -0.2642 C   0  0  0  0  0  0  0  0  0  0  0  0
   -1.3074   -2.7671   -0.4957 C   0  0  0  0  0  0  0  0  0  0  0  0
   -0.6615   -2.3337   -1.7486 C   0  0  0  0  0  0  0  0  0  0  0  0
   -0.2355   -3.1743   -2.5369 O   0  0  0  0  0  0  0  0  0  0  0  0
    2.3036    1.2348   -1.3663 N   0  0  0  0  0  0  0  0  0  0  0  0
    2.6992    0.1015   -0.5270 C   0  0  0  0  0  0  0  0  0  0  0  0
    3.5836    0.5491    0.6418 C   0  0  0  0  0  0  0  0  0  0  0  0
    2.9570    1.5256    1.4790 O   0  0  0  0  0  0  0  0  0  0  0  0
    2.1342    2.4644    0.7677 C   0  0  0  0  0  0  0  0  0  0  0  0
    2.4190    2.5509   -0.7353 C   0  0  0  0  0  0  0  0  0  0  0  0
    1.8148   -0.2178   -4.2184 H   0  0  0  0  0  0  0  0  0  0  0  0
    1.9323   -1.0383   -2.6793 H   0  0  0  0  0  0  0  0  0  0  0  0
   -0.3123   -1.1768   -4.0186 H   0  0  0  0  0  0  0  0  0  0  0  0
   -0.6308    0.4708   -3.4830 H   0  0  0  0  0  0  0  0  0  0  0  0
   -0.3892   -0.2691    2.6549 H   0  0  0  0  0  0  0  0  0  0  0  0
   -0.6988    1.5640    4.2795 H   0  0  0  0  0  0  0  0  0  0  0  0
   -3.0913    3.7210    1.4095 H   0  0  0  0  0  0  0  0  0  0  0  0
   -2.7958    1.8826   -0.2203 H   0  0  0  0  0  0  0  0  0  0  0  0
   -2.8583   -1.4901    2.2622 H   0  0  0  0  0  0  0  0  0  0  0  0
   -3.2820   -3.8777    2.6542 H   0  0  0  0  0  0  0  0  0  0  0  0
   -2.4482   -5.5816    1.0510 H   0  0  0  0  0  0  0  0  0  0  0  0
   -1.2171   -4.8755   -0.9831 H   0  0  0  0  0  0  0  0  0  0  0  0
    1.7781   -0.3573   -0.1536 H   0  0  0  0  0  0  0  0  0  0  0  0
    3.2429   -0.6312   -1.1290 H   0  0  0  0  0  0  0  0  0  0  0  0
    4.5256    0.9748    0.2739 H   0  0  0  0  0  0  0  0  0  0  0  0
    3.8354   -0.3087    1.2728 H   0  0  0  0  0  0  0  0  0  0  0  0
    2.2746    3.4444    1.2391 H   0  0  0  0  0  0  0  0  0  0  0  0
    1.0928    2.1663    0.9355 H   0  0  0  0  0  0  0  0  0  0  0  0
    1.7322    3.2708   -1.1963 H   0  0  0  0  0  0  0  0  0  0  0  0
    3.4456    2.8973   -0.9113 H   0  0  0  0  0  0  0  0  0  0  0  0
  1  2  2  0
  2  3  1  0
  3  4  1  0
  4  5  1  0
  5  6  1  0
  6  7  2  0
  7  8  1  0
  8  9  2  0
  9 10  1  0
 10 11  2  0
 11 12  1  0
 11 13  1  0
 13 14  2  0
  7 15  1  0
 15 16  2  0
 16 17  1  0
 17 18  2  0
 18 19  1  0
 19 20  2  0
 20 21  1  0
 21 22  2  0
  2 23  1  0
 23 24  1  0
 24 25  1  0
 25 26  1  0
 26 27  1  0
 27 28  1  0
 21  5  1  0
 28 23  1  0
 14  8  1  0
 20 15  1  0
  3 29  1  0
  3 30  1  0
  4 31  1  0
  4 32  1  0
  9 33  1  0
 10 34  1  0
 13 35  1  0
 14 36  1  0
 16 37  1  0
 17 38  1  0
 18 39  1  0
 19 40  1  0
 24 41  1  0
 24 42  1  0
 25 43  1  0
 25 44  1  0
 27 45  1  0
 27 46  1  0
 28 47  1  0
 28 48  1  0
M  END
$$$$
