
     RDKit          3D

 42 43  0  0  0  0  0  0  0  0999 V2000
   -4.4867    0.9518    1.7613 C   0  0  0  0  0  0  0  0  0  0  0  0
   -4.2552   -0.5193    1.4316 C   0  0  0  0  0  0  0  0  0  0  0  0
   -3.6245   -0.8524    0.1528 N   0  0  0  0  0  0  0  0  0  0  0  0
   -4.3535   -0.3541   -1.0173 C   0  0  0  0  0  0  0  0  0  0  0  0
   -3.6246    0.8971   -1.4883 C   0  0  0  0  0  0  0  0  0  0  0  0
   -2.2916    0.9016   -0.7540 C   0  0  0  0  0  0  0  0  0  0  0  0
   -2.2192   -0.4557   -0.0559 C   0  0  0  0  0  0  0  0  0  0  0  0
   -1.2657   -0.4868    1.1655 C   0  0  0  0  0  0  0  0  0  0  0  0
    0.1287   -0.1099    0.8972 N   0  0  0  0  0  0  0  0  0  0  0  0
    0.8561   -1.1288    0.1465 C   0  0  0  0  0  0  0  0  0  0  0  0
    2.2896   -0.7016   -0.0643 C   0  0  0  0  0  0  0  0  0  0  0  0
    3.1953   -0.7022    1.0043 C   0  0  0  0  0  0  0  0  0  0  0  0
    4.5226   -0.2958    0.8228 C   0  0  0  0  0  0  0  0  0  0  0  0
    4.9707    0.1247   -0.4330 C   0  0  0  0  0  0  0  0  0  0  0  0
    6.2489    0.5388   -0.7040 O   0  0  0  0  0  0  0  0  0  0  0  0
    7.1820    0.5412    0.3678 C   0  0  0  0  0  0  0  0  0  0  0  0
    4.0608    0.1327   -1.5025 C   0  0  0  0  0  0  0  0  0  0  0  0
    4.5352    0.6451   -3.0863 Cl  0  0  0  0  0  0  0  0  0  0  0  0
    2.7339   -0.2735   -1.3209 C   0  0  0  0  0  0  0  0  0  0  0  0
   -4.9907    1.0343    2.7305 H   0  0  0  0  0  0  0  0  0  0  0  0
   -3.5510    1.5103    1.8360 H   0  0  0  0  0  0  0  0  0  0  0  0
   -5.1282    1.4390    1.0215 H   0  0  0  0  0  0  0  0  0  0  0  0
   -5.2305   -1.0231    1.4603 H   0  0  0  0  0  0  0  0  0  0  0  0
   -3.6882   -0.9818    2.2482 H   0  0  0  0  0  0  0  0  0  0  0  0
   -4.3017   -1.1168   -1.8043 H   0  0  0  0  0  0  0  0  0  0  0  0
   -5.4186   -0.1726   -0.8348 H   0  0  0  0  0  0  0  0  0  0  0  0
   -3.4769    0.8759   -2.5734 H   0  0  0  0  0  0  0  0  0  0  0  0
   -4.1908    1.8034   -1.2477 H   0  0  0  0  0  0  0  0  0  0  0  0
   -1.4595    1.0412   -1.4527 H   0  0  0  0  0  0  0  0  0  0  0  0
   -2.2622    1.7312   -0.0394 H   0  0  0  0  0  0  0  0  0  0  0  0
   -1.8282   -1.1768   -0.7867 H   0  0  0  0  0  0  0  0  0  0  0  0
   -1.2934   -1.4797    1.6319 H   0  0  0  0  0  0  0  0  0  0  0  0
   -1.6259    0.2124    1.9275 H   0  0  0  0  0  0  0  0  0  0  0  0
    0.1639    0.7731    0.3906 H   0  0  0  0  0  0  0  0  0  0  0  0
    0.8551   -2.0834    0.6873 H   0  0  0  0  0  0  0  0  0  0  0  0
    0.3895   -1.3124   -0.8277 H   0  0  0  0  0  0  0  0  0  0  0  0
    2.8619   -1.0127    1.9936 H   0  0  0  0  0  0  0  0  0  0  0  0
    5.1769   -0.3166    1.6880 H   0  0  0  0  0  0  0  0  0  0  0  0
    8.1401    0.8958   -0.0242 H   0  0  0  0  0  0  0  0  0  0  0  0
    6.8717    1.2303    1.1600 H   0  0  0  0  0  0  0  0  0  0  0  0
    7.3368   -0.4697    0.7590 H   0  0  0  0  0  0  0  0  0  0  0  0
    2.0477   -0.2540   -2.1641 H   0  0  0  0  0  0  0  0  0  0  0  0
  1  2  1  0
  2  3  1  0
  3  4  1  0
  4  5  1  0
  5  6  1  0
  6  7  1  0
  7  8  1  0
  8  9  1  0
  9 10  1  0
 10 11  1  0
 11 12  2  0
 12 13  1  0
 13 14  2  0
 14 15  1  0
 15 16  1  0
 14 17  1  0
 17 18  1  0
 17 19  2  0
  7  3  1  0
 19 11  1  0
  1 20  1  0
  1 21  1  0
  1 22  1  0
  2 23  1  0
  2 24  1  0
  4 25  1  0
  4 26  1  0
  5 27  1  0
  5 28  1  0
  6 29  1  0
  6 30  1  0
  7 31  1  0
  8 32  1  0
  8 33  1  0
  9 34  1  0
 10 35  1  0
 10 36  1  0
 12 37  1  0
 13 38  1  0
 16 39  1  0
 16 40  1  0
 16 41  1  0
 19 42  1  0
M  END
$$$$
