
     RDKit          3D

 48 50  0  0  0  0  0  0  0  0999 V2000
    6.8906    3.0490    0.3607 C   0  0  0  0  0  0  0  0  0  0  0  0
    6.4132    1.6177    0.3459 C   0  0  0  0  0  0  0  0  0  0  0  0
    7.1828    0.7003    0.6073 O   0  0  0  0  0  0  0  0  0  0  0  0
    5.0829    1.5103   -0.0182 N   0  0  0  0  0  0  0  0  0  0  0  0
    4.3131    0.3331   -0.1155 C   0  0  0  0  0  0  0  0  0  0  0  0
    4.7875   -0.9400    0.2078 C   0  0  0  0  0  0  0  0  0  0  0  0
    3.9565   -2.0602    0.0891 C   0  0  0  0  0  0  0  0  0  0  0  0
    2.6484   -1.9129   -0.3635 C   0  0  0  0  0  0  0  0  0  0  0  0
    1.7944   -3.0461   -0.4472 N   0  0  0  0  0  0  0  0  0  0  0  0
    0.8441   -3.4210    0.9039 S   0  0  0  0  0  6  0  0  0  0  0  0
    1.5579   -3.0718    2.1122 O   0  0  0  0  0  0  0  0  0  0  0  0
    0.3620   -4.7693    0.6847 O   0  0  0  0  0  0  0  0  0  0  0  0
   -0.5433   -2.3318    0.7147 C   0  0  0  0  0  0  0  0  0  0  0  0
   -0.6468   -1.1883    1.5023 C   0  0  0  0  0  0  0  0  0  0  0  0
   -1.7518   -0.3416    1.3498 C   0  0  0  0  0  0  0  0  0  0  0  0
   -2.7742   -0.6233    0.4283 C   0  0  0  0  0  0  0  0  0  0  0  0
   -3.8994    0.2569    0.2696 N   0  0  0  0  0  0  0  0  0  0  0  0
   -4.7029    0.2005   -0.9513 C   0  0  0  0  0  0  0  0  0  0  0  0
   -5.0539    1.5960   -1.4659 C   0  0  0  0  0  0  0  0  0  0  0  0
   -5.4586    2.5593   -0.3561 C   0  0  0  0  0  0  0  0  0  0  0  0
   -5.6212    1.8581    0.9798 C   0  0  0  0  0  0  0  0  0  0  0  0
   -4.3766    1.0588    1.3238 C   0  0  0  0  0  0  0  0  0  0  0  0
   -3.9213    1.1128    2.4641 O   0  0  0  0  0  0  0  0  0  0  0  0
   -2.6492   -1.7952   -0.3395 C   0  0  0  0  0  0  0  0  0  0  0  0
   -1.5470   -2.6477   -0.1987 C   0  0  0  0  0  0  0  0  0  0  0  0
    2.1590   -0.6488   -0.6781 C   0  0  0  0  0  0  0  0  0  0  0  0
    2.9897    0.4692   -0.5555 C   0  0  0  0  0  0  0  0  0  0  0  0
    6.0860    3.7323    0.6473 H   0  0  0  0  0  0  0  0  0  0  0  0
    7.6975    3.1530    1.0918 H   0  0  0  0  0  0  0  0  0  0  0  0
    7.2611    3.3158   -0.6324 H   0  0  0  0  0  0  0  0  0  0  0  0
    4.6075    2.3709   -0.2582 H   0  0  0  0  0  0  0  0  0  0  0  0
    5.7986   -1.0980    0.5707 H   0  0  0  0  0  0  0  0  0  0  0  0
    4.3423   -3.0363    0.3703 H   0  0  0  0  0  0  0  0  0  0  0  0
    2.1944   -3.8992   -0.8376 H   0  0  0  0  0  0  0  0  0  0  0  0
    0.1223   -0.9389    2.2307 H   0  0  0  0  0  0  0  0  0  0  0  0
   -1.7755    0.5570    1.9615 H   0  0  0  0  0  0  0  0  0  0  0  0
   -5.6159   -0.3634   -0.7244 H   0  0  0  0  0  0  0  0  0  0  0  0
   -4.1775   -0.3110   -1.7626 H   0  0  0  0  0  0  0  0  0  0  0  0
   -5.8552    1.5163   -2.2099 H   0  0  0  0  0  0  0  0  0  0  0  0
   -4.1885    2.0174   -1.9934 H   0  0  0  0  0  0  0  0  0  0  0  0
   -6.3858    3.0773   -0.6262 H   0  0  0  0  0  0  0  0  0  0  0  0
   -4.6869    3.3345   -0.2636 H   0  0  0  0  0  0  0  0  0  0  0  0
   -5.7876    2.6049    1.7643 H   0  0  0  0  0  0  0  0  0  0  0  0
   -6.4843    1.1830    0.9777 H   0  0  0  0  0  0  0  0  0  0  0  0
   -3.4245   -2.1066   -1.0333 H   0  0  0  0  0  0  0  0  0  0  0  0
   -1.4878   -3.5564   -0.7941 H   0  0  0  0  0  0  0  0  0  0  0  0
    1.1397   -0.5212   -1.0309 H   0  0  0  0  0  0  0  0  0  0  0  0
    2.5844    1.4447   -0.8110 H   0  0  0  0  0  0  0  0  0  0  0  0
  1  2  1  0
  2  3  2  0
  2  4  1  0
  4  5  1  0
  5  6  2  0
  6  7  1  0
  7  8  2  0
  8  9  1  0
  9 10  1  0
 10 11  2  0
 10 12  2  0
 10 13  1  0
 13 14  2  0
 14 15  1  0
 15 16  2  0
 16 17  1  0
 17 18  1  0
 18 19  1  0
 19 20  1  0
 20 21  1  0
 21 22  1  0
 22 23  2  0
 16 24  1  0
 24 25  2  0
  8 26  1  0
 26 27  2  0
 27  5  1  0
 25 13  1  0
 22 17  1  0
  1 28  1  0
  1 29  1  0
  1 30  1  0
  4 31  1  0
  6 32  1  0
  7 33  1  0
  9 34  1  0
 14 35  1  0
 15 36  1  0
 18 37  1  0
 18 38  1  0
 19 39  1  0
 19 40  1  0
 20 41  1  0
 20 42  1  0
 21 43  1  0
 21 44  1  0
 24 45  1  0
 25 46  1  0
 26 47  1  0
 27 48  1  0
M  END
$$$$
